=
 OpenBabel11052414443D

 32 34  0  0  1  0  0  0  0  0999 V2000
  189.6070  177.3370  143.3600 C   0  0  1  0  0  3  0  0  0  0  0  0
  191.2240  177.8540  145.3030 C   0  0  1  0  0  3  0  0  0  0  0  0
  191.5940  178.6940  144.0960 C   0  0  0  0  0  2  0  0  0  0  0  0
  190.1320  178.3790  144.3570 C   0  0  1  0  0  3  0  0  0  0  0  0
  191.5860  176.4670  145.0440 N   0  0  0  0  0  2  0  0  0  0  0  0
  191.2460  176.5450  147.4390 C   0  0  0  0  0  1  0  0  0  0  0  0
  192.0200  175.9030  146.3080 C   0  0  0  0  0  2  0  0  0  0  0  0
  188.1510  176.9800  143.6580 C   0  0  2  0  0  3  0  0  0  0  0  0
  187.8720  175.6760  143.2450 O   0  0  0  0  0  1  0  0  0  0  0  0
  187.2070  177.9380  142.9440 C   0  0  0  0  0  2  0  0  0  0  0  0
  185.9030  177.9480  143.6110 N   0  0  0  0  0  0  0  0  0  0  0  0
  184.8220  178.1700  142.6300 C   0  0  1  0  0  3  0  0  0  0  0  0
  183.5710  178.7620  143.2800 C   0  0  0  0  0  1  0  0  0  0  0  0
  185.2800  179.0780  141.4820 C   0  0  0  0  0  2  0  0  0  0  0  0
  184.4260  178.9060  140.2340 C   0  0  0  0  0  1  0  0  0  0  0  0
  185.9120  179.0040  144.6400 C   0  0  0  0  0  2  0  0  0  0  0  0
  186.2530  177.2890  146.2770 O   0  0  0  0  0  0  0  0  0  0  0  0
  185.5250  179.3210  147.1290 N   0  0  0  0  0  1  0  0  0  0  0  0
  185.9130  178.4780  146.0490 C   0  0  0  0  0  0  0  0  0  0  0  0
  189.7360  177.8800  141.9450 C   0  0  0  0  0  2  0  0  0  0  0  0
  191.7880  177.4430  140.6260 C   0  0  0  0  0  2  0  0  0  0  0  0
  190.6030  177.4120  139.6890 C   0  0  2  0  0  3  0  0  0  0  0  0
  190.4710  176.8640  141.0960 C   0  0  2  0  0  3  0  0  0  0  0  0
  190.7330  176.2430  138.7380 C   0  0  0  0  0  2  0  0  0  0  0  0
  190.5400  176.7060  137.3740 N   0  0  0  0  0  2  0  0  0  0  0  0
  189.1700  176.5860  137.0890 N   0  0  0  0  0  0  0  0  0  0  0  0
  187.0750  177.8570  138.0110 O   0  0  0  0  0  1  0  0  0  0  0  0
  188.9400  179.0170  137.1100 C   0  0  0  0  0  2  0  0  0  0  0  0
  188.7900  177.7500  136.2890 C   0  0  2  0  0  3  0  0  0  0  0  0
  187.5560  178.4650  136.8480 C   0  0  1  0  0  3  0  0  0  0  0  0
  188.9910  175.3840  136.2750 C   0  0  0  0  0  2  0  0  0  0  0  0
  189.1380  174.2300  137.0290 F   0  0  0  0  0  0  0  0  0  0  0  0
  1 20  1  6  0  0  0
  1  8  1  0  0  0  0
  2  5  1  6  0  0  0
  3  4  1  0  0  0  0
  3  2  1  0  0  0  0
  4  1  1  6  0  0  0
  4  2  1  0  0  0  0
  5  7  1  0  0  0  0
  7  6  1  0  0  0  0
  8  9  1  6  0  0  0
 10 11  1  0  0  0  0
 10  8  1  0  0  0  0
 11 16  1  0  0  0  0
 12 13  1  1  0  0  0
 12 11  1  0  0  0  0
 14 12  1  0  0  0  0
 15 14  1  0  0  0  0
 16 19  1  0  0  0  0
 19 17  2  0  0  0  0
 19 18  1  0  0  0  0
 21 23  1  0  0  0  0
 22 24  1  6  0  0  0
 22 21  1  0  0  0  0
 22 23  1  0  0  0  0
 23 20  1  1  0  0  0
 25 24  1  0  0  0  0
 26 25  1  0  0  0  0
 29 30  1  0  0  0  0
 29 26  1  1  0  0  0
 29 28  1  0  0  0  0
 30 28  1  0  0  0  0
 30 27  1  1  0  0  0
 31 32  1  0  0  0  0
 31 26  1  0  0  0  0
M  END
>  <MODEL>
1

>  <REMARK>
 VINA RESULT:      -6.3      0.000      0.000
  Name = 
  17 active torsions:
  status: ('A' for Active; 'I' for Inactive)
    1  A    between atoms: C_2  and  C_6
    2  A    between atoms: C_3  and  N_20
    3  A    between atoms: C_3  and  C_22
    4  A    between atoms: C_4  and  C_14
    5  A    between atoms: C_4  and  C_24
    6  A    between atoms: C_4  and  C_30
    7  A    between atoms: C_5  and  C_14
    8  A    between atoms: C_6  and  N_17
    9  A    between atoms: C_11  and  N_12
   10  A    between atoms: N_12  and  N_17
   11  A    between atoms: N_12  and  C_28
   12  A    between atoms: N_13  and  C_18
   13  A    between atoms: N_13  and  C_29
   14  A    between atoms: C_15  and  N_20
   15  A    between atoms: C_15  and  C_26
   16  A    between atoms: C_16  and  N_20
   17  A    between atoms: C_16  and  C_24
                            x       y       z     vdW  Elec       q    Type
                         _______ _______ _______ _____ _____    ______ ____

>  <TORSDO>
F 17

$$$$
=
 OpenBabel11052414443D

 32 34  0  0  1  0  0  0  0  0999 V2000
  188.6810  177.4070  141.0800 C   0  0  1  0  0  3  0  0  0  0  0  0
  189.4980  177.3140  138.6350 C   0  0  1  0  0  3  0  0  0  0  0  0
  189.0880  178.7320  138.9810 C   0  0  0  0  0  2  0  0  0  0  0  0
  189.7240  177.8640  140.0530 C   0  0  1  0  0  3  0  0  0  0  0  0
  188.3030  176.4890  138.5260 N   0  0  0  0  0  2  0  0  0  0  0  0
  187.4750  176.7920  136.2730 C   0  0  0  0  0  1  0  0  0  0  0  0
  188.3040  175.9210  137.1910 C   0  0  0  0  0  2  0  0  0  0  0  0
  189.3560  176.8850  142.3490 C   0  0  2  0  0  3  0  0  0  0  0  0
  188.7300  175.7180  142.7920 O   0  0  0  0  0  1  0  0  0  0  0  0
  189.2970  177.9290  143.4560 C   0  0  0  0  0  2  0  0  0  0  0  0
  189.4870  177.2900  144.7600 N   0  0  0  0  0  0  0  0  0  0  0  0
  188.5230  177.8210  145.7430 C   0  0  1  0  0  3  0  0  0  0  0  0
  187.0780  177.6780  145.2640 C   0  0  0  0  0  1  0  0  0  0  0  0
  188.6780  177.1410  147.1090 C   0  0  0  0  0  2  0  0  0  0  0  0
  188.5750  178.1300  148.2610 C   0  0  0  0  0  1  0  0  0  0  0  0
  190.8750  177.5240  145.1980 C   0  0  0  0  0  2  0  0  0  0  0  0
  191.9550  175.5720  144.3260 O   0  0  0  0  0  0  0  0  0  0  0  0
  192.1540  175.8560  146.6210 N   0  0  0  0  0  1  0  0  0  0  0  0
  191.6890  176.2670  145.3400 C   0  0  0  0  0  0  0  0  0  0  0  0
  187.7570  178.5670  141.4160 C   0  0  0  0  0  2  0  0  0  0  0  0
  185.4370  178.9640  140.6410 C   0  0  0  0  0  2  0  0  0  0  0  0
  185.4670  179.1020  142.1460 C   0  0  2  0  0  3  0  0  0  0  0  0
  186.3310  178.0600  141.4620 C   0  0  2  0  0  3  0  0  0  0  0  0
  184.2700  178.4020  142.7480 C   0  0  0  0  0  2  0  0  0  0  0  0
  183.0580  178.8680  142.0970 N   0  0  0  0  0  2  0  0  0  0  0  0
  182.1380  179.1740  143.1120 N   0  0  0  0  0  0  0  0  0  0  0  0
  180.1260  180.8320  142.8770 O   0  0  0  0  0  1  0  0  0  0  0  0
  180.4030  178.9910  141.4040 C   0  0  0  0  0  2  0  0  0  0  0  0
  180.8760  178.5210  142.7660 C   0  0  2  0  0  3  0  0  0  0  0  0
  179.7170  179.5160  142.6450 C   0  0  1  0  0  3  0  0  0  0  0  0
  182.6390  178.5870  144.3550 C   0  0  0  0  0  2  0  0  0  0  0  0
  183.2280  179.5420  145.1690 F   0  0  0  0  0  0  0  0  0  0  0  0
  1 20  1  1  0  0  0
  1  8  1  0  0  0  0
  2  5  1  1  0  0  0
  2  3  1  0  0  0  0
  2  4  1  0  0  0  0
  3  4  1  0  0  0  0
  4  1  1  1  0  0  0
  6  7  1  0  0  0  0
  7  5  1  0  0  0  0
  8  9  1  1  0  0  0
  8 10  1  0  0  0  0
 10 11  1  0  0  0  0
 11 16  1  0  0  0  0
 11 12  1  0  0  0  0
 12 13  1  6  0  0  0
 12 14  1  0  0  0  0
 14 15  1  0  0  0  0
 16 19  1  0  0  0  0
 17 19  2  0  0  0  0
 19 18  1  0  0  0  0
 21 23  1  0  0  0  0
 21 22  1  0  0  0  0
 22 24  1  1  0  0  0
 23 20  1  6  0  0  0
 23 22  1  0  0  0  0
 25 24  1  0  0  0  0
 25 26  1  0  0  0  0
 26 31  1  0  0  0  0
 28 30  1  0  0  0  0
 28 29  1  0  0  0  0
 29 26  1  1  0  0  0
 30 29  1  0  0  0  0
 30 27  1  1  0  0  0
 31 32  1  0  0  0  0
M  END
>  <MODEL>
2

>  <REMARK>
 VINA RESULT:      -6.1      3.237      7.304
  Name = 
  17 active torsions:
  status: ('A' for Active; 'I' for Inactive)
    1  A    between atoms: C_2  and  C_6
    2  A    between atoms: C_3  and  N_20
    3  A    between atoms: C_3  and  C_22
    4  A    between atoms: C_4  and  C_14
    5  A    between atoms: C_4  and  C_24
    6  A    between atoms: C_4  and  C_30
    7  A    between atoms: C_5  and  C_14
    8  A    between atoms: C_6  and  N_17
    9  A    between atoms: C_11  and  N_12
   10  A    between atoms: N_12  and  N_17
   11  A    between atoms: N_12  and  C_28
   12  A    between atoms: N_13  and  C_18
   13  A    between atoms: N_13  and  C_29
   14  A    between atoms: C_15  and  N_20
   15  A    between atoms: C_15  and  C_26
   16  A    between atoms: C_16  and  N_20
   17  A    between atoms: C_16  and  C_24
                            x       y       z     vdW  Elec       q    Type
                         _______ _______ _______ _____ _____    ______ ____

>  <TORSDO>
F 17

$$$$
=
 OpenBabel11052414443D

 32 34  0  0  1  0  0  0  0  0999 V2000
  187.2110  178.3920  142.5640 C   0  0  1  0  0  3  0  0  0  0  0  0
  184.6370  178.5670  142.4960 C   0  0  1  0  0  3  0  0  0  0  0  0
  185.2130  179.0170  141.1680 C   0  0  0  0  0  2  0  0  0  0  0  0
  185.9030  177.9000  141.9320 C   0  0  1  0  0  3  0  0  0  0  0  0
  184.9260  179.5780  143.5040 N   0  0  0  0  0  2  0  0  0  0  0  0
  184.8220  178.7050  145.7590 C   0  0  0  0  0  1  0  0  0  0  0  0
  184.0370  179.3220  144.6220 C   0  0  0  0  0  2  0  0  0  0  0  0
  187.8290  177.3130  143.4530 C   0  0  2  0  0  3  0  0  0  0  0  0
  186.8730  176.3560  143.7990 O   0  0  0  0  0  1  0  0  0  0  0  0
  188.3970  177.9270  144.7250 C   0  0  0  0  0  2  0  0  0  0  0  0
  189.4370  177.0590  145.2820 N   0  0  0  0  0  0  0  0  0  0  0  0
  189.1960  176.8160  146.7180 C   0  0  1  0  0  3  0  0  0  0  0  0
  190.4400  177.0920  147.5620 C   0  0  0  0  0  1  0  0  0  0  0  0
  188.0250  177.6560  147.2420 C   0  0  0  0  0  2  0  0  0  0  0  0
  188.2700  178.1710  148.6530 C   0  0  0  0  0  1  0  0  0  0  0  0
  190.7470  177.6990  145.0640 C   0  0  0  0  0  2  0  0  0  0  0  0
  192.0930  177.7900  143.0840 O   0  0  0  0  0  0  0  0  0  0  0  0
  191.7110  175.6540  143.9080 N   0  0  0  0  0  1  0  0  0  0  0  0
  191.5560  177.0680  143.9620 C   0  0  0  0  0  0  0  0  0  0  0  0
  188.1850  178.7920  141.4670 C   0  0  0  0  0  2  0  0  0  0  0  0
  190.0640  177.4830  140.5190 C   0  0  0  0  0  2  0  0  0  0  0  0
  189.2180  177.9980  139.3780 C   0  0  2  0  0  3  0  0  0  0  0  0
  188.5600  177.5590  140.6720 C   0  0  2  0  0  3  0  0  0  0  0  0
  189.0200  176.9030  138.3530 C   0  0  0  0  0  2  0  0  0  0  0  0
  190.0140  177.0390  137.3020 N   0  0  0  0  0  2  0  0  0  0  0  0
  190.4410  175.7430  136.9710 N   0  0  0  0  0  0  0  0  0  0  0  0
  192.7130  174.9810  135.9190 O   0  0  0  0  0  1  0  0  0  0  0  0
  192.6330  176.2910  137.8970 C   0  0  0  0  0  2  0  0  0  0  0  0
  191.4440  175.3510  137.9600 C   0  0  2  0  0  3  0  0  0  0  0  0
  192.7580  174.9010  137.3130 C   0  0  1  0  0  3  0  0  0  0  0  0
  189.2880  174.8510  137.1000 C   0  0  0  0  0  2  0  0  0  0  0  0
  189.6770  173.5570  137.4120 F   0  0  0  0  0  0  0  0  0  0  0  0
  1 20  1  6  0  0  0
  1  8  1  0  0  0  0
  2  5  1  1  0  0  0
  3  4  1  0  0  0  0
  3  2  1  0  0  0  0
  4  2  1  0  0  0  0
  4  1  1  1  0  0  0
  5  7  1  0  0  0  0
  7  6  1  0  0  0  0
  8  9  1  1  0  0  0
  8 10  1  0  0  0  0
 10 11  1  0  0  0  0
 11 12  1  0  0  0  0
 12 14  1  0  0  0  0
 12 13  1  1  0  0  0
 14 15  1  0  0  0  0
 16 11  1  0  0  0  0
 17 19  2  0  0  0  0
 18 19  1  0  0  0  0
 19 16  1  0  0  0  0
 21 23  1  0  0  0  0
 22 24  1  6  0  0  0
 22 21  1  0  0  0  0
 22 23  1  0  0  0  0
 23 20  1  1  0  0  0
 25 24  1  0  0  0  0
 26 31  1  0  0  0  0
 26 25  1  0  0  0  0
 28 29  1  0  0  0  0
 29 26  1  6  0  0  0
 30 27  1  6  0  0  0
 30 28  1  0  0  0  0
 30 29  1  0  0  0  0
 31 32  1  0  0  0  0
M  END
>  <MODEL>
3

>  <REMARK>
 VINA RESULT:      -6.1      2.136      5.264
  Name = 
  17 active torsions:
  status: ('A' for Active; 'I' for Inactive)
    1  A    between atoms: C_2  and  C_6
    2  A    between atoms: C_3  and  N_20
    3  A    between atoms: C_3  and  C_22
    4  A    between atoms: C_4  and  C_14
    5  A    between atoms: C_4  and  C_24
    6  A    between atoms: C_4  and  C_30
    7  A    between atoms: C_5  and  C_14
    8  A    between atoms: C_6  and  N_17
    9  A    between atoms: C_11  and  N_12
   10  A    between atoms: N_12  and  N_17
   11  A    between atoms: N_12  and  C_28
   12  A    between atoms: N_13  and  C_18
   13  A    between atoms: N_13  and  C_29
   14  A    between atoms: C_15  and  N_20
   15  A    between atoms: C_15  and  C_26
   16  A    between atoms: C_16  and  N_20
   17  A    between atoms: C_16  and  C_24
                            x       y       z     vdW  Elec       q    Type
                         _______ _______ _______ _____ _____    ______ ____

>  <TORSDO>
F 17

$$$$
=
 OpenBabel11052414443D

 32 34  0  0  1  0  0  0  0  0999 V2000
  187.4870  178.3170  142.5970 C   0  0  1  0  0  3  0  0  0  0  0  0
  184.9110  178.3190  142.7450 C   0  0  1  0  0  3  0  0  0  0  0  0
  185.3430  178.8430  141.3900 C   0  0  0  0  0  2  0  0  0  0  0  0
  186.1650  177.7550  142.0580 C   0  0  1  0  0  3  0  0  0  0  0  0
  185.2160  179.3190  143.7590 N   0  0  0  0  0  2  0  0  0  0  0  0
  182.9190  178.8500  144.3580 C   0  0  0  0  0  1  0  0  0  0  0  0
  184.3230  179.0720  144.8750 C   0  0  0  0  0  2  0  0  0  0  0  0
  188.2070  177.2850  143.4650 C   0  0  2  0  0  3  0  0  0  0  0  0
  187.6210  176.0270  143.3180 O   0  0  0  0  0  1  0  0  0  0  0  0
  188.1530  177.6880  144.9330 C   0  0  0  0  0  2  0  0  0  0  0  0
  189.4930  178.0390  145.4070 N   0  0  0  0  0  0  0  0  0  0  0  0
  190.4820  177.8910  144.3210 C   0  0  1  0  0  3  0  0  0  0  0  0
  191.1560  179.2180  143.9750 C   0  0  0  0  0  1  0  0  0  0  0  0
  191.5520  176.8500  144.6720 C   0  0  0  0  0  2  0  0  0  0  0  0
  191.5930  175.7040  143.6720 C   0  0  0  0  0  1  0  0  0  0  0  0
  189.8270  177.1710  146.5510 C   0  0  0  0  0  2  0  0  0  0  0  0
  188.1460  176.5060  148.1230 O   0  0  0  0  0  0  0  0  0  0  0  0
  189.0420  178.6160  148.4860 N   0  0  0  0  0  1  0  0  0  0  0  0
  188.9560  177.3960  147.7580 C   0  0  0  0  0  0  0  0  0  0  0  0
  188.3720  178.7360  141.4340 C   0  0  0  0  0  2  0  0  0  0  0  0
  190.3250  177.4660  140.5860 C   0  0  0  0  0  2  0  0  0  0  0  0
  189.5030  177.9240  139.4030 C   0  0  2  0  0  3  0  0  0  0  0  0
  188.8150  177.4970  140.6850 C   0  0  2  0  0  3  0  0  0  0  0  0
  189.3770  176.7990  138.4010 C   0  0  0  0  0  2  0  0  0  0  0  0
  190.3550  176.9820  137.3420 N   0  0  0  0  0  2  0  0  0  0  0  0
  190.8680  175.7110  137.0320 N   0  0  0  0  0  0  0  0  0  0  0  0
  193.1400  175.1250  135.8730 O   0  0  0  0  0  1  0  0  0  0  0  0
  193.0470  176.4810  137.8190 C   0  0  0  0  0  2  0  0  0  0  0  0
  191.9540  175.4400  137.9730 C   0  0  2  0  0  3  0  0  0  0  0  0
  193.2670  175.0910  137.2640 C   0  0  1  0  0  3  0  0  0  0  0  0
  189.8010  174.7360  137.2620 C   0  0  0  0  0  2  0  0  0  0  0  0
  190.0990  173.5100  136.6890 F   0  0  0  0  0  0  0  0  0  0  0  0
  1 20  1  6  0  0  0
  1  8  1  0  0  0  0
  2  5  1  1  0  0  0
  3  4  1  0  0  0  0
  3  2  1  0  0  0  0
  4  1  1  1  0  0  0
  4  2  1  0  0  0  0
  5  7  1  0  0  0  0
  6  7  1  0  0  0  0
  8  9  1  1  0  0  0
  8 10  1  0  0  0  0
 10 11  1  0  0  0  0
 11 16  1  0  0  0  0
 12 13  1  1  0  0  0
 12 14  1  0  0  0  0
 12 11  1  0  0  0  0
 15 14  1  0  0  0  0
 16 19  1  0  0  0  0
 19 17  2  0  0  0  0
 19 18  1  0  0  0  0
 21 23  1  0  0  0  0
 22 24  1  6  0  0  0
 22 21  1  0  0  0  0
 22 23  1  0  0  0  0
 23 20  1  1  0  0  0
 25 24  1  0  0  0  0
 26 31  1  0  0  0  0
 26 25  1  0  0  0  0
 28 29  1  0  0  0  0
 29 26  1  6  0  0  0
 30 27  1  6  0  0  0
 30 28  1  0  0  0  0
 30 29  1  0  0  0  0
 32 31  1  0  0  0  0
M  END
>  <MODEL>
4

>  <REMARK>
 VINA RESULT:      -6.1      2.103      4.941
  Name = 
  17 active torsions:
  status: ('A' for Active; 'I' for Inactive)
    1  A    between atoms: C_2  and  C_6
    2  A    between atoms: C_3  and  N_20
    3  A    between atoms: C_3  and  C_22
    4  A    between atoms: C_4  and  C_14
    5  A    between atoms: C_4  and  C_24
    6  A    between atoms: C_4  and  C_30
    7  A    between atoms: C_5  and  C_14
    8  A    between atoms: C_6  and  N_17
    9  A    between atoms: C_11  and  N_12
   10  A    between atoms: N_12  and  N_17
   11  A    between atoms: N_12  and  C_28
   12  A    between atoms: N_13  and  C_18
   13  A    between atoms: N_13  and  C_29
   14  A    between atoms: C_15  and  N_20
   15  A    between atoms: C_15  and  C_26
   16  A    between atoms: C_16  and  N_20
   17  A    between atoms: C_16  and  C_24
                            x       y       z     vdW  Elec       q    Type
                         _______ _______ _______ _____ _____    ______ ____

>  <TORSDO>
F 17

$$$$
=
 OpenBabel11052414443D

 32 34  0  0  1  0  0  0  0  0999 V2000
  189.5710  177.3570  143.3280 C   0  0  1  0  0  3  0  0  0  0  0  0
  191.2240  177.8560  145.2450 C   0  0  1  0  0  3  0  0  0  0  0  0
  191.6000  178.6720  144.0240 C   0  0  0  0  0  2  0  0  0  0  0  0
  190.1340  178.3960  144.3050 C   0  0  1  0  0  3  0  0  0  0  0  0
  191.5480  176.4580  144.9990 N   0  0  0  0  0  2  0  0  0  0  0  0
  191.2580  176.5590  147.4000 C   0  0  0  0  0  1  0  0  0  0  0  0
  192.0070  175.9050  146.2590 C   0  0  0  0  0  2  0  0  0  0  0  0
  188.1210  177.0130  143.6690 C   0  0  2  0  0  3  0  0  0  0  0  0
  187.8220  175.7070  143.2760 O   0  0  0  0  0  1  0  0  0  0  0  0
  187.1650  177.9710  142.9710 C   0  0  0  0  0  2  0  0  0  0  0  0
  185.8620  177.9560  143.6400 N   0  0  0  0  0  0  0  0  0  0  0  0
  184.7760  178.1690  142.6640 C   0  0  1  0  0  3  0  0  0  0  0  0
  183.5250  178.7540  143.3170 C   0  0  0  0  0  1  0  0  0  0  0  0
  185.2240  179.0770  141.5120 C   0  0  0  0  0  2  0  0  0  0  0  0
  184.4330  178.8240  140.2360 C   0  0  0  0  0  1  0  0  0  0  0  0
  185.8570  179.0030  144.6780 C   0  0  0  0  0  2  0  0  0  0  0  0
  186.1610  177.2620  146.2950 O   0  0  0  0  0  0  0  0  0  0  0  0
  185.5340  179.3160  147.1760 N   0  0  0  0  0  1  0  0  0  0  0  0
  185.8660  178.4660  146.0830 C   0  0  0  0  0  0  0  0  0  0  0  0
  189.6640  177.8930  141.9070 C   0  0  0  0  0  2  0  0  0  0  0  0
  191.6660  177.4130  140.5280 C   0  0  0  0  0  2  0  0  0  0  0  0
  190.4530  177.4070  139.6270 C   0  0  2  0  0  3  0  0  0  0  0  0
  190.3520  176.8620  141.0380 C   0  0  2  0  0  3  0  0  0  0  0  0
  190.5300  176.2360  138.6730 C   0  0  0  0  0  2  0  0  0  0  0  0
  191.0720  176.6830  137.4010 N   0  0  0  0  0  2  0  0  0  0  0  0
  191.8710  175.6390  136.9050 N   0  0  0  0  0  0  0  0  0  0  0  0
  191.0590  173.2270  136.2930 O   0  0  0  0  0  1  0  0  0  0  0  0
  190.0630  175.1580  135.3370 C   0  0  0  0  0  2  0  0  0  0  0  0
  191.5380  175.4720  135.4910 C   0  0  2  0  0  3  0  0  0  0  0  0
  191.0770  174.0490  135.1630 C   0  0  1  0  0  3  0  0  0  0  0  0
  193.2660  176.0640  137.0070 C   0  0  0  0  0  2  0  0  0  0  0  0
  193.6840  176.1320  138.3280 F   0  0  0  0  0  0  0  0  0  0  0  0
  1 20  1  6  0  0  0
  1  8  1  0  0  0  0
  2  5  1  6  0  0  0
  3  4  1  0  0  0  0
  3  2  1  0  0  0  0
  4  1  1  6  0  0  0
  4  2  1  0  0  0  0
  5  7  1  0  0  0  0
  7  6  1  0  0  0  0
  8  9  1  6  0  0  0
 10 11  1  0  0  0  0
 10  8  1  0  0  0  0
 11 16  1  0  0  0  0
 12 13  1  1  0  0  0
 12 11  1  0  0  0  0
 14 12  1  0  0  0  0
 15 14  1  0  0  0  0
 16 19  1  0  0  0  0
 19 17  2  0  0  0  0
 19 18  1  0  0  0  0
 21 23  1  0  0  0  0
 22 24  1  6  0  0  0
 22 21  1  0  0  0  0
 22 23  1  0  0  0  0
 23 20  1  1  0  0  0
 25 24  1  0  0  0  0
 26 31  1  0  0  0  0
 26 25  1  0  0  0  0
 28 29  1  0  0  0  0
 29 26  1  1  0  0  0
 30 28  1  0  0  0  0
 30 29  1  0  0  0  0
 30 27  1  1  0  0  0
 31 32  1  0  0  0  0
M  END
>  <MODEL>
5

>  <REMARK>
 VINA RESULT:      -5.9      1.792      2.247
  Name = 
  17 active torsions:
  status: ('A' for Active; 'I' for Inactive)
    1  A    between atoms: C_2  and  C_6
    2  A    between atoms: C_3  and  N_20
    3  A    between atoms: C_3  and  C_22
    4  A    between atoms: C_4  and  C_14
    5  A    between atoms: C_4  and  C_24
    6  A    between atoms: C_4  and  C_30
    7  A    between atoms: C_5  and  C_14
    8  A    between atoms: C_6  and  N_17
    9  A    between atoms: C_11  and  N_12
   10  A    between atoms: N_12  and  N_17
   11  A    between atoms: N_12  and  C_28
   12  A    between atoms: N_13  and  C_18
   13  A    between atoms: N_13  and  C_29
   14  A    between atoms: C_15  and  N_20
   15  A    between atoms: C_15  and  C_26
   16  A    between atoms: C_16  and  N_20
   17  A    between atoms: C_16  and  C_24
                            x       y       z     vdW  Elec       q    Type
                         _______ _______ _______ _____ _____    ______ ____

>  <TORSDO>
F 17

$$$$
=
 OpenBabel11052414443D

 32 34  0  0  1  0  0  0  0  0999 V2000
  187.3480  178.3560  142.5970 C   0  0  1  0  0  3  0  0  0  0  0  0
  184.7940  178.3340  142.9620 C   0  0  1  0  0  3  0  0  0  0  0  0
  185.1070  178.9020  141.5920 C   0  0  0  0  0  2  0  0  0  0  0  0
  185.9890  177.8000  142.1540 C   0  0  1  0  0  3  0  0  0  0  0  0
  185.1790  179.3050  143.9760 N   0  0  0  0  0  2  0  0  0  0  0  0
  185.0070  178.4580  146.2370 C   0  0  0  0  0  1  0  0  0  0  0  0
  184.2730  179.1270  145.0950 C   0  0  0  0  0  2  0  0  0  0  0  0
  188.1620  177.2890  143.3300 C   0  0  2  0  0  3  0  0  0  0  0  0
  187.3870  176.1510  143.5580 O   0  0  0  0  0  1  0  0  0  0  0  0
  188.6650  177.8220  144.6650 C   0  0  0  0  0  2  0  0  0  0  0  0
  189.6200  176.8810  145.2540 N   0  0  0  0  0  0  0  0  0  0  0  0
  189.4270  176.7930  146.7150 C   0  0  1  0  0  3  0  0  0  0  0  0
  190.7330  177.0050  147.4800 C   0  0  0  0  0  1  0  0  0  0  0  0
  188.3780  177.7980  147.2060 C   0  0  0  0  0  2  0  0  0  0  0  0
  188.5360  178.1220  148.6850 C   0  0  0  0  0  1  0  0  0  0  0  0
  190.9840  177.3320  144.9250 C   0  0  0  0  0  2  0  0  0  0  0  0
  191.9620  175.3540  143.9910 O   0  0  0  0  0  0  0  0  0  0  0  0
  191.8690  177.1710  142.5510 N   0  0  0  0  0  1  0  0  0  0  0  0
  191.6290  176.5530  143.8100 C   0  0  0  0  0  0  0  0  0  0  0  0
  188.1120  178.8570  141.3810 C   0  0  0  0  0  2  0  0  0  0  0  0
  189.6980  177.9710  139.6950 C   0  0  0  0  0  2  0  0  0  0  0  0
  188.3420  178.1170  139.0440 C   0  0  2  0  0  3  0  0  0  0  0  0
  188.4440  177.6770  140.4910 C   0  0  2  0  0  3  0  0  0  0  0  0
  188.0450  176.8980  138.2000 C   0  0  0  0  0  2  0  0  0  0  0  0
  187.4470  177.3140  136.9420 N   0  0  0  0  0  2  0  0  0  0  0  0
  187.9870  176.4930  135.9390 N   0  0  0  0  0  0  0  0  0  0  0  0
  187.4560  173.9310  135.8850 O   0  0  0  0  0  1  0  0  0  0  0  0
  185.7330  175.5630  135.8200 C   0  0  0  0  0  2  0  0  0  0  0  0
  186.8950  176.1380  135.0340 C   0  0  2  0  0  3  0  0  0  0  0  0
  186.6150  174.6320  135.0170 C   0  0  1  0  0  3  0  0  0  0  0  0
  188.9660  177.2880  135.1970 C   0  0  0  0  0  2  0  0  0  0  0  0
  189.3850  178.3910  135.9250 F   0  0  0  0  0  0  0  0  0  0  0  0
  1 20  1  6  0  0  0
  1  8  1  0  0  0  0
  2  5  1  1  0  0  0
  3  4  1  0  0  0  0
  3  2  1  0  0  0  0
  4  1  1  1  0  0  0
  4  2  1  0  0  0  0
  5  7  1  0  0  0  0
  7  6  1  0  0  0  0
  8  9  1  1  0  0  0
  8 10  1  0  0  0  0
 10 11  1  0  0  0  0
 11 12  1  0  0  0  0
 12 14  1  0  0  0  0
 12 13  1  1  0  0  0
 14 15  1  0  0  0  0
 16 11  1  0  0  0  0
 18 19  1  0  0  0  0
 19 17  2  0  0  0  0
 19 16  1  0  0  0  0
 21 23  1  0  0  0  0
 22 24  1  6  0  0  0
 22 21  1  0  0  0  0
 22 23  1  0  0  0  0
 23 20  1  1  0  0  0
 25 24  1  0  0  0  0
 26 25  1  0  0  0  0
 29 28  1  0  0  0  0
 29 26  1  1  0  0  0
 30 29  1  0  0  0  0
 30 28  1  0  0  0  0
 30 27  1  1  0  0  0
 31 32  1  0  0  0  0
 31 26  1  0  0  0  0
M  END
>  <MODEL>
6

>  <REMARK>
 VINA RESULT:      -5.8      2.219      5.219
  Name = 
  17 active torsions:
  status: ('A' for Active; 'I' for Inactive)
    1  A    between atoms: C_2  and  C_6
    2  A    between atoms: C_3  and  N_20
    3  A    between atoms: C_3  and  C_22
    4  A    between atoms: C_4  and  C_14
    5  A    between atoms: C_4  and  C_24
    6  A    between atoms: C_4  and  C_30
    7  A    between atoms: C_5  and  C_14
    8  A    between atoms: C_6  and  N_17
    9  A    between atoms: C_11  and  N_12
   10  A    between atoms: N_12  and  N_17
   11  A    between atoms: N_12  and  C_28
   12  A    between atoms: N_13  and  C_18
   13  A    between atoms: N_13  and  C_29
   14  A    between atoms: C_15  and  N_20
   15  A    between atoms: C_15  and  C_26
   16  A    between atoms: C_16  and  N_20
   17  A    between atoms: C_16  and  C_24
                            x       y       z     vdW  Elec       q    Type
                         _______ _______ _______ _____ _____    ______ ____

>  <TORSDO>
F 17

$$$$
=
 OpenBabel11052414443D

 32 34  0  0  1  0  0  0  0  0999 V2000
  189.2480  177.6380  143.5400 C   0  0  1  0  0  3  0  0  0  0  0  0
  191.2940  177.7800  145.1060 C   0  0  1  0  0  3  0  0  0  0  0  0
  191.4950  178.7030  143.9210 C   0  0  0  0  0  2  0  0  0  0  0  0
  190.0950  178.5090  144.4770 C   0  0  1  0  0  3  0  0  0  0  0  0
  191.4210  176.4000  144.6580 N   0  0  0  0  0  2  0  0  0  0  0  0
  191.6480  176.4010  147.0680 C   0  0  0  0  0  1  0  0  0  0  0  0
  191.9100  175.6340  145.7900 C   0  0  0  0  0  2  0  0  0  0  0  0
  187.7910  177.5960  144.0020 C   0  0  2  0  0  3  0  0  0  0  0  0
  187.4640  176.3240  144.4750 O   0  0  0  0  0  1  0  0  0  0  0  0
  186.8550  177.9540  142.8550 C   0  0  0  0  0  2  0  0  0  0  0  0
  185.5180  178.2520  143.3730 N   0  0  0  0  0  0  0  0  0  0  0  0
  184.6620  178.8080  142.3070 C   0  0  1  0  0  3  0  0  0  0  0  0
  185.4270  178.9990  140.9980 C   0  0  0  0  0  1  0  0  0  0  0  0
  183.4310  177.9280  142.0560 C   0  0  0  0  0  2  0  0  0  0  0  0
  182.9540  177.9990  140.6130 C   0  0  0  0  0  1  0  0  0  0  0  0
  185.6510  179.1990  144.4950 C   0  0  0  0  0  2  0  0  0  0  0  0
  183.4570  179.0010  145.4350 O   0  0  0  0  0  0  0  0  0  0  0  0
  185.1950  178.6200  146.9240 N   0  0  0  0  0  1  0  0  0  0  0  0
  184.6970  178.9360  145.6280 C   0  0  0  0  0  0  0  0  0  0  0  0
  189.3340  178.1840  142.1230 C   0  0  0  0  0  2  0  0  0  0  0  0
  190.9010  176.9250  140.6730 C   0  0  0  0  0  2  0  0  0  0  0  0
  189.8520  177.5690  139.7960 C   0  0  2  0  0  3  0  0  0  0  0  0
  189.4710  177.0240  141.1590 C   0  0  2  0  0  3  0  0  0  0  0  0
  189.3870  176.5840  138.7470 C   0  0  0  0  0  2  0  0  0  0  0  0
  190.5100  175.7690  138.3170 N   0  0  0  0  0  2  0  0  0  0  0  0
  191.0540  176.3880  137.1800 N   0  0  0  0  0  0  0  0  0  0  0  0
  193.5850  176.8140  137.6910 O   0  0  0  0  0  1  0  0  0  0  0  0
  192.6830  174.6200  137.6070 C   0  0  0  0  0  2  0  0  0  0  0  0
  191.9520  175.4220  136.5480 C   0  0  2  0  0  3  0  0  0  0  0  0
  193.4260  175.7040  136.8570 C   0  0  1  0  0  3  0  0  0  0  0  0
  189.9520  176.6690  136.2590 C   0  0  0  0  0  2  0  0  0  0  0  0
  189.6990  175.5920  135.4240 F   0  0  0  0  0  0  0  0  0  0  0  0
  1 20  1  6  0  0  0
  1  8  1  0  0  0  0
  2  5  1  6  0  0  0
  3  4  1  0  0  0  0
  3  2  1  0  0  0  0
  4  1  1  6  0  0  0
  4  2  1  0  0  0  0
  5  7  1  0  0  0  0
  7  6  1  0  0  0  0
  8  9  1  6  0  0  0
 10 11  1  0  0  0  0
 10  8  1  0  0  0  0
 11 16  1  0  0  0  0
 12 13  1  6  0  0  0
 12 11  1  0  0  0  0
 14 12  1  0  0  0  0
 15 14  1  0  0  0  0
 16 19  1  0  0  0  0
 17 19  2  0  0  0  0
 19 18  1  0  0  0  0
 21 23  1  0  0  0  0
 22 24  1  6  0  0  0
 22 21  1  0  0  0  0
 22 23  1  0  0  0  0
 23 20  1  1  0  0  0
 25 24  1  0  0  0  0
 26 25  1  0  0  0  0
 29 30  1  0  0  0  0
 29 26  1  1  0  0  0
 29 28  1  0  0  0  0
 30 28  1  0  0  0  0
 30 27  1  1  0  0  0
 31 26  1  0  0  0  0
 32 31  1  0  0  0  0
M  END
>  <MODEL>
7

>  <REMARK>
 VINA RESULT:      -5.7      1.834      2.425
  Name = 
  17 active torsions:
  status: ('A' for Active; 'I' for Inactive)
    1  A    between atoms: C_2  and  C_6
    2  A    between atoms: C_3  and  N_20
    3  A    between atoms: C_3  and  C_22
    4  A    between atoms: C_4  and  C_14
    5  A    between atoms: C_4  and  C_24
    6  A    between atoms: C_4  and  C_30
    7  A    between atoms: C_5  and  C_14
    8  A    between atoms: C_6  and  N_17
    9  A    between atoms: C_11  and  N_12
   10  A    between atoms: N_12  and  N_17
   11  A    between atoms: N_12  and  C_28
   12  A    between atoms: N_13  and  C_18
   13  A    between atoms: N_13  and  C_29
   14  A    between atoms: C_15  and  N_20
   15  A    between atoms: C_15  and  C_26
   16  A    between atoms: C_16  and  N_20
   17  A    between atoms: C_16  and  C_24
                            x       y       z     vdW  Elec       q    Type
                         _______ _______ _______ _____ _____    ______ ____

>  <TORSDO>
F 17

$$$$
=
 OpenBabel11052414443D

 32 34  0  0  1  0  0  0  0  0999 V2000
  184.0720  178.4750  140.7160 C   0  0  1  0  0  3  0  0  0  0  0  0
  181.8930  177.5080  139.7310 C   0  0  1  0  0  3  0  0  0  0  0  0
  181.6230  178.0640  141.1140 C   0  0  0  0  0  2  0  0  0  0  0  0
  182.6450  178.7530  140.2280 C   0  0  1  0  0  3  0  0  0  0  0  0
  182.6710  176.2830  139.8550 N   0  0  0  0  0  2  0  0  0  0  0  0
  182.1460  176.5230  137.5050 C   0  0  0  0  0  1  0  0  0  0  0  0
  182.5130  175.5560  138.6100 C   0  0  0  0  0  2  0  0  0  0  0  0
  185.1030  179.0920  139.7700 C   0  0  2  0  0  3  0  0  0  0  0  0
  184.5530  180.1760  139.0850 O   0  0  0  0  0  1  0  0  0  0  0  0
  185.5880  178.0610  138.7600 C   0  0  0  0  0  2  0  0  0  0  0  0
  186.9600  178.3670  138.3490 N   0  0  0  0  0  0  0  0  0  0  0  0
  187.0640  178.4080  136.8770 C   0  0  1  0  0  3  0  0  0  0  0  0
  188.4700  178.0560  136.3920 C   0  0  0  0  0  1  0  0  0  0  0  0
  186.0450  177.4730  136.2150 C   0  0  0  0  0  2  0  0  0  0  0  0
  186.7130  176.3480  135.4370 C   0  0  0  0  0  1  0  0  0  0  0  0
  187.8570  177.3440  138.9170 C   0  0  0  0  0  2  0  0  0  0  0  0
  188.2280  178.2640  141.0970 O   0  0  0  0  0  0  0  0  0  0  0  0
  190.1520  177.8830  139.8580 N   0  0  0  0  0  1  0  0  0  0  0  0
  188.7390  177.8550  140.0230 C   0  0  0  0  0  0  0  0  0  0  0  0
  184.2470  179.0330  142.1200 C   0  0  0  0  0  2  0  0  0  0  0  0
  184.5550  178.2530  144.4520 C   0  0  0  0  0  2  0  0  0  0  0  0
  185.9100  178.6090  143.8850 C   0  0  2  0  0  3  0  0  0  0  0  0
  184.8630  177.9640  142.9980 C   0  0  2  0  0  3  0  0  0  0  0  0
  186.9200  177.5510  144.2690 C   0  0  0  0  0  2  0  0  0  0  0  0
  188.1620  178.1900  144.6700 N   0  0  0  0  0  2  0  0  0  0  0  0
  188.9890  177.1850  145.1980 N   0  0  0  0  0  0  0  0  0  0  0  0
  190.1370  175.9720  143.1830 O   0  0  0  0  0  1  0  0  0  0  0  0
  190.5010  178.2770  143.6220 C   0  0  0  0  0  2  0  0  0  0  0  0
  190.3730  177.6010  144.9740 C   0  0  2  0  0  3  0  0  0  0  0  0
  191.0200  176.8660  143.7950 C   0  0  1  0  0  3  0  0  0  0  0  0
  188.7490  177.1280  146.6400 C   0  0  0  0  0  2  0  0  0  0  0  0
  189.8330  176.5890  147.3160 F   0  0  0  0  0  0  0  0  0  0  0  0
  1 20  1  1  0  0  0
  2  5  1  1  0  0  0
  2  4  1  0  0  0  0
  2  3  1  0  0  0  0
  4  1  1  1  0  0  0
  4  3  1  0  0  0  0
  6  7  1  0  0  0  0
  7  5  1  0  0  0  0
  8  9  1  6  0  0  0
  8  1  1  0  0  0  0
 10  8  1  0  0  0  0
 11 10  1  0  0  0  0
 11 16  1  0  0  0  0
 12 13  1  1  0  0  0
 12 11  1  0  0  0  0
 14 12  1  0  0  0  0
 15 14  1  0  0  0  0
 16 19  1  0  0  0  0
 18 19  1  0  0  0  0
 19 17  2  0  0  0  0
 22 24  1  1  0  0  0
 22 21  1  0  0  0  0
 23 20  1  6  0  0  0
 23 22  1  0  0  0  0
 23 21  1  0  0  0  0
 24 25  1  0  0  0  0
 25 26  1  0  0  0  0
 26 31  1  0  0  0  0
 28 30  1  0  0  0  0
 28 29  1  0  0  0  0
 29 26  1  6  0  0  0
 30 27  1  6  0  0  0
 30 29  1  0  0  0  0
 31 32  1  0  0  0  0
M  END
>  <MODEL>
8

>  <REMARK>
 VINA RESULT:      -5.6      3.060      8.043
  Name = 
  17 active torsions:
  status: ('A' for Active; 'I' for Inactive)
    1  A    between atoms: C_2  and  C_6
    2  A    between atoms: C_3  and  N_20
    3  A    between atoms: C_3  and  C_22
    4  A    between atoms: C_4  and  C_14
    5  A    between atoms: C_4  and  C_24
    6  A    between atoms: C_4  and  C_30
    7  A    between atoms: C_5  and  C_14
    8  A    between atoms: C_6  and  N_17
    9  A    between atoms: C_11  and  N_12
   10  A    between atoms: N_12  and  N_17
   11  A    between atoms: N_12  and  C_28
   12  A    between atoms: N_13  and  C_18
   13  A    between atoms: N_13  and  C_29
   14  A    between atoms: C_15  and  N_20
   15  A    between atoms: C_15  and  C_26
   16  A    between atoms: C_16  and  N_20
   17  A    between atoms: C_16  and  C_24
                            x       y       z     vdW  Elec       q    Type
                         _______ _______ _______ _____ _____    ______ ____

>  <TORSDO>
F 17

$$$$
=
 OpenBabel11052414443D

 32 34  0  0  1  0  0  0  0  0999 V2000
  187.9570  177.3890  142.3480 C   0  0  1  0  0  3  0  0  0  0  0  0
  189.0310  178.2900  140.1820 C   0  0  1  0  0  3  0  0  0  0  0  0
  187.5230  178.2630  140.0290 C   0  0  0  0  0  2  0  0  0  0  0  0
  188.1220  178.5740  141.3890 C   0  0  1  0  0  3  0  0  0  0  0  0
  189.5350  176.9240  140.1570 N   0  0  0  0  0  2  0  0  0  0  0  0
  191.2790  176.4910  138.5370 C   0  0  0  0  0  1  0  0  0  0  0  0
  190.9640  177.0070  139.9240 C   0  0  0  0  0  2  0  0  0  0  0  0
  189.1110  177.3290  143.3490 C   0  0  2  0  0  3  0  0  0  0  0  0
  189.5160  176.0090  143.5510 O   0  0  0  0  0  1  0  0  0  0  0  0
  188.6950  177.9300  144.6840 C   0  0  0  0  0  2  0  0  0  0  0  0
  189.2280  177.1240  145.7850 N   0  0  0  0  0  0  0  0  0  0  0  0
  188.2870  177.1140  146.9220 C   0  0  1  0  0  3  0  0  0  0  0  0
  188.7460  178.0310  148.0550 C   0  0  0  0  0  1  0  0  0  0  0  0
  186.8710  177.5100  146.4860 C   0  0  0  0  0  2  0  0  0  0  0  0
  186.3450  178.7130  147.2550 C   0  0  0  0  0  1  0  0  0  0  0  0
  190.5340  177.6800  146.1820 C   0  0  0  0  0  2  0  0  0  0  0  0
  192.0580  175.9880  145.4390 O   0  0  0  0  0  0  0  0  0  0  0  0
  192.0710  176.3780  147.7270 N   0  0  0  0  0  1  0  0  0  0  0  0
  191.5940  176.6370  146.4110 C   0  0  0  0  0  0  0  0  0  0  0  0
  186.6310  177.5120  143.0830 C   0  0  0  0  0  2  0  0  0  0  0  0
  184.9040  179.2400  143.4960 C   0  0  0  0  0  2  0  0  0  0  0  0
  184.3610  178.2540  142.4870 C   0  0  2  0  0  3  0  0  0  0  0  0
  185.8280  178.6350  142.4610 C   0  0  2  0  0  3  0  0  0  0  0  0
  183.6610  178.9970  141.3710 C   0  0  0  0  0  2  0  0  0  0  0  0
  182.4970  178.2410  140.9420 N   0  0  0  0  0  2  0  0  0  0  0  0
  181.4500  179.1610  140.7670 N   0  0  0  0  0  0  0  0  0  0  0  0
  180.8150  181.2500  139.3240 O   0  0  0  0  0  1  0  0  0  0  0  0
  181.6390  179.2560  138.3350 C   0  0  0  0  0  2  0  0  0  0  0  0
  180.7830  178.8260  139.5100 C   0  0  2  0  0  3  0  0  0  0  0  0
  180.4150  180.0690  138.6930 C   0  0  1  0  0  3  0  0  0  0  0  0
  180.5020  178.9660  141.8630 C   0  0  0  0  0  2  0  0  0  0  0  0
  180.7660  179.8190  142.9240 F   0  0  0  0  0  0  0  0  0  0  0  0
  1 20  1  1  0  0  0
  1  8  1  0  0  0  0
  2  5  1  1  0  0  0
  2  4  1  0  0  0  0
  3  2  1  0  0  0  0
  3  4  1  0  0  0  0
  4  1  1  1  0  0  0
  6  7  1  0  0  0  0
  7  5  1  0  0  0  0
  8  9  1  1  0  0  0
  8 10  1  0  0  0  0
 10 11  1  0  0  0  0
 11 16  1  0  0  0  0
 11 12  1  0  0  0  0
 12 13  1  1  0  0  0
 14 12  1  0  0  0  0
 14 15  1  0  0  0  0
 16 19  1  0  0  0  0
 17 19  2  0  0  0  0
 19 18  1  0  0  0  0
 22 24  1  6  0  0  0
 22 21  1  0  0  0  0
 23 22  1  0  0  0  0
 23 20  1  1  0  0  0
 23 21  1  0  0  0  0
 25 24  1  0  0  0  0
 26 25  1  0  0  0  0
 26 31  1  0  0  0  0
 28 30  1  0  0  0  0
 28 29  1  0  0  0  0
 29 26  1  1  0  0  0
 30 27  1  1  0  0  0
 30 29  1  0  0  0  0
 31 32  1  0  0  0  0
M  END
>  <MODEL>
9

>  <REMARK>
 VINA RESULT:      -5.6      3.488      6.689
  Name = 
  17 active torsions:
  status: ('A' for Active; 'I' for Inactive)
    1  A    between atoms: C_2  and  C_6
    2  A    between atoms: C_3  and  N_20
    3  A    between atoms: C_3  and  C_22
    4  A    between atoms: C_4  and  C_14
    5  A    between atoms: C_4  and  C_24
    6  A    between atoms: C_4  and  C_30
    7  A    between atoms: C_5  and  C_14
    8  A    between atoms: C_6  and  N_17
    9  A    between atoms: C_11  and  N_12
   10  A    between atoms: N_12  and  N_17
   11  A    between atoms: N_12  and  C_28
   12  A    between atoms: N_13  and  C_18
   13  A    between atoms: N_13  and  C_29
   14  A    between atoms: C_15  and  N_20
   15  A    between atoms: C_15  and  C_26
   16  A    between atoms: C_16  and  N_20
   17  A    between atoms: C_16  and  C_24
                            x       y       z     vdW  Elec       q    Type
                         _______ _______ _______ _____ _____    ______ ____

>  <TORSDO>
F 17

$$$$
