=
 OpenBabel11052416553D

 32 36  0  0  1  0  0  0  0  0999 V2000
  189.3410  177.4750  136.3990 C   0  0  1  0  0  3  0  0  0  0  0  0
  189.0320  177.4540  141.4210 C   0  0  0  0  0  0  0  0  0  0  0  0
  184.4940  179.1940  142.3570 C   0  0  0  0  0  2  0  0  0  0  0  0
  184.4270  178.1890  143.4140 N   0  0  0  0  0  2  0  0  0  0  0  0
  189.8590  177.2260  139.0790 C   0  0  1  0  0  3  0  0  0  0  0  0
  187.6790  178.3300  139.4490 C   0  0  0  0  0  2  0  0  0  0  0  0
  188.9010  178.6810  137.2510 C   0  0  0  0  0  2  0  0  0  0  0  0
  185.4290  178.7160  141.2540 C   0  0  0  0  0  2  0  0  0  0  0  0
  187.8350  178.0300  140.9270 C   0  0  0  0  0  0  0  0  0  0  0  0
  186.7490  178.2350  141.8020 C   0  0  0  0  0  0  0  0  0  0  0  0
  188.0770  177.3450  143.6510 C   0  0  0  0  0  0  0  0  0  0  0  0
  190.5340  176.6980  137.0050 C   0  0  0  0  0  2  0  0  0  0  0  0
  189.0300  178.4610  138.7620 C   0  0  2  0  0  3  0  0  0  0  0  0
  190.9810  177.2060  138.2430 O   0  0  0  0  0  0  0  0  0  0  0  0
  185.7130  178.1350  144.1160 C   0  0  1  0  0  3  0  0  0  0  0  0
  186.8690  177.8890  143.1700 C   0  0  0  0  0  0  0  0  0  0  0  0
  190.2460  177.2590  140.5490 C   0  0  0  0  0  2  0  0  0  0  0  0
  185.9220  179.3600  144.8740 N   0  0  0  0  0  1  0  0  0  0  0  0
  189.1370  177.1270  142.7700 C   0  0  0  0  0  3  0  0  0  0  0  0
  188.1790  176.5130  136.1890 C   0  0  0  0  0  2  0  0  0  0  0  0
  186.8710  177.2600  135.9960 C   0  0  2  0  0  3  0  0  0  0  0  0
  185.9600  176.8800  136.9670 F   0  0  0  0  0  0  0  0  0  0  0  0
  184.7990  176.9970  134.6480 C   0  0  0  0  0  1  0  0  0  0  0  0
  186.3140  176.9400  134.6230 C   0  0  0  0  0  2  0  0  0  0  0  0
  188.2370  176.9630  145.1000 C   0  0  0  0  0  2  0  0  0  0  0  0
  191.6710  177.8200  145.4340 O   0  0  0  0  0  1  0  0  0  0  0  0
  190.6500  176.9740  145.8640 C   0  0  1  0  0  3  0  0  0  0  0  0
  189.0860  177.9270  147.3540 C   0  0  2  0  0  3  0  0  0  0  0  0
  189.7120  176.8910  148.0560 O   0  0  0  0  0  0  0  0  0  0  0  0
  190.8760  176.6070  147.3200 C   0  0  0  0  0  2  0  0  0  0  0  0
  187.6210  178.0560  147.7390 C   0  0  0  0  0  1  0  0  0  0  0  0
  189.3440  177.7190  145.8680 C   0  0  2  0  0  3  0  0  0  0  0  0
  1 20  1  1  0  0  0
  1 12  1  0  0  0  0
  1  7  1  0  0  0  0
  2 19  1  0  0  0  0
  3  4  1  0  0  0  0
  4 15  1  0  0  0  0
  5 17  1  1  0  0  0
  6  9  1  0  0  0  0
  8 10  1  0  0  0  0
  8  3  1  0  0  0  0
  9  2  2  0  0  0  0
  9 10  1  0  0  0  0
 10 16  2  0  0  0  0
 11 25  1  0  0  0  0
 12 14  1  0  0  0  0
 13  7  1  6  0  0  0
 13  5  1  0  0  0  0
 13  6  1  0  0  0  0
 14  5  1  0  0  0  0
 15 18  1  6  0  0  0
 16 11  1  0  0  0  0
 16 15  1  0  0  0  0
 17  2  1  0  0  0  0
 19 11  2  0  0  0  0
 21 20  1  0  0  0  0
 21 22  1  1  0  0  0
 24 23  1  0  0  0  0
 24 21  1  0  0  0  0
 27 26  1  1  0  0  0
 27 32  1  0  0  0  0
 27 30  1  0  0  0  0
 28 31  1  6  0  0  0
 28 29  1  0  0  0  0
 30 29  1  0  0  0  0
 32 25  1  1  0  0  0
 32 28  1  0  0  0  0
M  END
>  <MODEL>
1

>  <REMARK>
 VINA RESULT:      -8.8      0.000      0.000
  Name = 
  5 active torsions:
  status: ('A' for Active; 'I' for Inactive)
    1  A    between atoms: C_1  and  C_20
    2  A    between atoms: C_1  and  C_24
    3  A    between atoms: C_2  and  C_24
    4  A    between atoms: C_16  and  C_27
    5  A    between atoms: C_27  and  C_32
                            x       y       z     vdW  Elec       q    Type
                         _______ _______ _______ _____ _____    ______ ____

>  <TORSDO>
F 5

$$$$
=
 OpenBabel11052416553D

 32 36  0  0  1  0  0  0  0  0999 V2000
  184.9000  178.2480  137.8500 C   0  0  1  0  0  3  0  0  0  0  0  0
  187.0870  177.9220  142.3700 C   0  0  0  0  0  0  0  0  0  0  0  0
  183.4880  179.1410  145.5420 C   0  0  0  0  0  2  0  0  0  0  0  0
  184.0080  178.0780  146.3970 N   0  0  0  0  0  2  0  0  0  0  0  0
  186.6750  177.9060  139.9100 C   0  0  1  0  0  3  0  0  0  0  0  0
  184.8910  178.7630  141.3900 C   0  0  0  0  0  2  0  0  0  0  0  0
  184.8580  179.3550  138.9210 C   0  0  0  0  0  2  0  0  0  0  0  0
  183.7920  178.8210  144.0840 C   0  0  0  0  0  2  0  0  0  0  0  0
  185.7680  178.4000  142.5720 C   0  0  0  0  0  0  0  0  0  0  0  0
  185.2380  178.4460  143.8780 C   0  0  0  0  0  0  0  0  0  0  0  0
  187.3530  177.5950  144.7610 C   0  0  0  0  0  0  0  0  0  0  0  0
  186.2820  177.5640  137.7270 C   0  0  0  0  0  2  0  0  0  0  0  0
  185.7230  179.0670  140.1540 C   0  0  2  0  0  3  0  0  0  0  0  0
  187.2450  178.0450  138.6390 O   0  0  0  0  0  0  0  0  0  0  0  0
  185.4730  178.1160  146.3820 C   0  0  1  0  0  3  0  0  0  0  0  0
  186.0330  178.0400  144.9770 C   0  0  0  0  0  0  0  0  0  0  0  0
  187.7290  177.8980  141.0060 C   0  0  0  0  0  2  0  0  0  0  0  0
  185.9510  179.3120  147.0600 N   0  0  0  0  0  1  0  0  0  0  0  0
  187.8580  177.5330  143.4620 C   0  0  0  0  0  3  0  0  0  0  0  0
  183.8460  177.1860  138.1350 C   0  0  0  0  0  2  0  0  0  0  0  0
  182.5570  177.8100  138.6440 C   0  0  2  0  0  3  0  0  0  0  0  0
  181.9300  176.9460  139.5270 F   0  0  0  0  0  0  0  0  0  0  0  0
  181.3160  179.5680  137.4010 C   0  0  0  0  0  1  0  0  0  0  0  0
  181.6410  178.0890  137.4690 C   0  0  0  0  0  2  0  0  0  0  0  0
  188.2230  177.1520  145.9090 C   0  0  0  0  0  2  0  0  0  0  0  0
  191.3590  177.9580  144.4380 O   0  0  0  0  0  1  0  0  0  0  0  0
  190.6820  177.1030  145.3070 C   0  0  1  0  0  3  0  0  0  0  0  0
  190.1500  178.0020  147.4250 C   0  0  2  0  0  3  0  0  0  0  0  0
  191.0150  176.9280  147.6630 O   0  0  0  0  0  0  0  0  0  0  0  0
  191.6180  176.6660  146.4200 C   0  0  0  0  0  2  0  0  0  0  0  0
  189.1030  178.1270  148.5200 C   0  0  0  0  0  1  0  0  0  0  0  0
  189.5920  177.8600  146.0160 C   0  0  2  0  0  3  0  0  0  0  0  0
  1 20  1  1  0  0  0
  1  7  1  0  0  0  0
  2  9  2  0  0  0  0
  2 19  1  0  0  0  0
  3  4  1  0  0  0  0
  5 13  1  0  0  0  0
  5 17  1  1  0  0  0
  6  9  1  0  0  0  0
  8  3  1  0  0  0  0
  9 10  1  0  0  0  0
 10  8  1  0  0  0  0
 10 16  2  0  0  0  0
 11 16  1  0  0  0  0
 11 25  1  0  0  0  0
 12  1  1  0  0  0  0
 12 14  1  0  0  0  0
 13  7  1  6  0  0  0
 13  6  1  0  0  0  0
 14  5  1  0  0  0  0
 15  4  1  0  0  0  0
 15 18  1  6  0  0  0
 16 15  1  0  0  0  0
 17  2  1  0  0  0  0
 19 11  2  0  0  0  0
 20 21  1  0  0  0  0
 21 22  1  1  0  0  0
 23 24  1  0  0  0  0
 24 21  1  0  0  0  0
 27 26  1  6  0  0  0
 27 32  1  0  0  0  0
 27 30  1  0  0  0  0
 28 29  1  0  0  0  0
 28 31  1  1  0  0  0
 30 29  1  0  0  0  0
 32 25  1  1  0  0  0
 32 28  1  0  0  0  0
M  END
>  <MODEL>
2

>  <REMARK>
 VINA RESULT:      -8.1      2.339      3.191
  Name = 
  5 active torsions:
  status: ('A' for Active; 'I' for Inactive)
    1  A    between atoms: C_1  and  C_20
    2  A    between atoms: C_1  and  C_24
    3  A    between atoms: C_2  and  C_24
    4  A    between atoms: C_16  and  C_27
    5  A    between atoms: C_27  and  C_32
                            x       y       z     vdW  Elec       q    Type
                         _______ _______ _______ _____ _____    ______ ____

>  <TORSDO>
F 5

$$$$
=
 OpenBabel11052416553D

 32 36  0  0  1  0  0  0  0  0999 V2000
  184.0640  178.5430  138.3150 C   0  0  1  0  0  3  0  0  0  0  0  0
  187.0960  178.0580  142.3020 C   0  0  0  0  0  0  0  0  0  0  0  0
  184.1210  178.8400  146.1810 C   0  0  0  0  0  2  0  0  0  0  0  0
  184.8470  177.7580  146.8380 N   0  0  0  0  0  2  0  0  0  0  0  0
  186.2190  178.1790  139.9700 C   0  0  1  0  0  3  0  0  0  0  0  0
  184.7140  178.8230  141.8220 C   0  0  0  0  0  2  0  0  0  0  0  0
  184.1770  179.5730  139.4560 C   0  0  0  0  0  2  0  0  0  0  0  0
  184.1530  178.6350  144.6720 C   0  0  0  0  0  2  0  0  0  0  0  0
  185.8190  178.4390  142.7860 C   0  0  0  0  0  0  0  0  0  0  0  0
  185.5490  178.3660  144.1680 C   0  0  0  0  0  0  0  0  0  0  0  0
  187.8330  177.5930  144.5690 C   0  0  0  0  0  0  0  0  0  0  0  0
  185.4290  177.9560  137.8820 C   0  0  0  0  0  2  0  0  0  0  0  0
  185.2760  179.2590  140.4780 C   0  0  2  0  0  3  0  0  0  0  0  0
  186.5250  178.4360  138.6300 O   0  0  0  0  0  0  0  0  0  0  0  0
  186.2780  177.8880  146.5510 C   0  0  1  0  0  3  0  0  0  0  0  0
  186.5590  177.9390  145.0640 C   0  0  0  0  0  0  0  0  0  0  0  0
  187.4630  178.1640  140.8450 C   0  0  0  0  0  2  0  0  0  0  0  0
  186.8190  179.0650  147.2150 N   0  0  0  0  0  1  0  0  0  0  0  0
  188.0810  177.6480  143.1970 C   0  0  0  0  0  3  0  0  0  0  0  0
  183.1380  177.4010  138.7120 C   0  0  0  0  0  2  0  0  0  0  0  0
  181.7550  177.5770  138.1090 C   0  0  2  0  0  3  0  0  0  0  0  0
  181.5980  178.8760  137.6550 F   0  0  0  0  0  0  0  0  0  0  0  0
  181.1780  177.7800  140.5180 C   0  0  0  0  0  1  0  0  0  0  0  0
  180.7100  177.2780  139.1660 C   0  0  0  0  0  2  0  0  0  0  0  0
  188.9290  177.1310  145.4940 C   0  0  0  0  0  2  0  0  0  0  0  0
  191.2120  177.8140  142.8560 O   0  0  0  0  0  1  0  0  0  0  0  0
  190.7140  176.8430  143.7230 C   0  0  1  0  0  3  0  0  0  0  0  0
  191.4770  176.9680  145.9530 C   0  0  2  0  0  3  0  0  0  0  0  0
  191.9250  175.7390  145.4560 O   0  0  0  0  0  0  0  0  0  0  0  0
  191.8140  175.8510  144.0590 C   0  0  0  0  0  2  0  0  0  0  0  0
  191.1070  176.8720  147.4250 C   0  0  0  0  0  1  0  0  0  0  0  0
  190.3670  177.4720  145.0430 C   0  0  2  0  0  3  0  0  0  0  0  0
  1 20  1  1  0  0  0
  1  7  1  0  0  0  0
  2  9  2  0  0  0  0
  2 19  1  0  0  0  0
  3  4  1  0  0  0  0
  5 13  1  0  0  0  0
  5 17  1  1  0  0  0
  6  9  1  0  0  0  0
  8  3  1  0  0  0  0
  9 10  1  0  0  0  0
 10  8  1  0  0  0  0
 10 16  2  0  0  0  0
 11 16  1  0  0  0  0
 11 25  1  0  0  0  0
 12  1  1  0  0  0  0
 12 14  1  0  0  0  0
 13  7  1  6  0  0  0
 13  6  1  0  0  0  0
 14  5  1  0  0  0  0
 15  4  1  0  0  0  0
 15 18  1  1  0  0  0
 16 15  1  0  0  0  0
 17  2  1  0  0  0  0
 19 11  2  0  0  0  0
 21 22  1  1  0  0  0
 21 20  1  0  0  0  0
 21 24  1  0  0  0  0
 24 23  1  0  0  0  0
 27 26  1  6  0  0  0
 27 30  1  0  0  0  0
 27 32  1  0  0  0  0
 28 31  1  1  0  0  0
 29 28  1  0  0  0  0
 30 29  1  0  0  0  0
 32 25  1  1  0  0  0
 32 28  1  0  0  0  0
M  END
>  <MODEL>
3

>  <REMARK>
 VINA RESULT:      -8.0      2.655      3.928
  Name = 
  5 active torsions:
  status: ('A' for Active; 'I' for Inactive)
    1  A    between atoms: C_1  and  C_20
    2  A    between atoms: C_1  and  C_24
    3  A    between atoms: C_2  and  C_24
    4  A    between atoms: C_16  and  C_27
    5  A    between atoms: C_27  and  C_32
                            x       y       z     vdW  Elec       q    Type
                         _______ _______ _______ _____ _____    ______ ____

>  <TORSDO>
F 5

$$$$
=
 OpenBabel11052416553D

 32 36  0  0  1  0  0  0  0  0999 V2000
  186.0990  178.3940  145.8920 C   0  0  1  0  0  3  0  0  0  0  0  0
  182.3130  178.7120  142.5930 C   0  0  0  0  0  0  0  0  0  0  0  0
  184.5370  178.4750  138.1780 C   0  0  0  0  0  2  0  0  0  0  0  0
  183.4170  177.6370  137.7620 N   0  0  0  0  0  2  0  0  0  0  0  0
  183.6410  178.6330  144.7030 C   0  0  1  0  0  3  0  0  0  0  0  0
  184.8590  178.7550  142.5560 C   0  0  0  0  0  2  0  0  0  0  0  0
  186.0540  179.3790  144.7080 C   0  0  0  0  0  2  0  0  0  0  0  0
  184.7550  178.3320  139.6780 C   0  0  0  0  0  2  0  0  0  0  0  0
  183.5190  178.6860  141.8500 C   0  0  0  0  0  0  0  0  0  0  0  0
  183.4720  178.4990  140.4540 C   0  0  0  0  0  0  0  0  0  0  0  0
  181.0310  178.4210  140.5520 C   0  0  0  0  0  0  0  0  0  0  0  0
  184.7420  178.2460  146.6200 C   0  0  0  0  0  2  0  0  0  0  0  0
  184.7280  179.3740  143.9390 C   0  0  2  0  0  3  0  0  0  0  0  0
  183.6980  179.0060  146.0500 O   0  0  0  0  0  0  0  0  0  0  0  0
  182.1700  178.1900  138.2980 C   0  0  1  0  0  3  0  0  0  0  0  0
  182.2220  178.3630  139.8010 C   0  0  0  0  0  0  0  0  0  0  0  0
  182.2940  178.9610  144.0800 C   0  0  0  0  0  2  0  0  0  0  0  0
  181.8610  179.4550  137.6470 N   0  0  0  0  0  1  0  0  0  0  0  0
  181.0920  178.5850  141.9360 C   0  0  0  0  0  3  0  0  0  0  0  0
  186.5640  177.0190  145.4290 C   0  0  0  0  0  2  0  0  0  0  0  0
  187.7350  177.1270  144.4670 C   0  0  2  0  0  3  0  0  0  0  0  0
  187.7440  176.0410  143.6090 F   0  0  0  0  0  0  0  0  0  0  0  0
  189.9940  178.1520  144.6400 C   0  0  0  0  0  1  0  0  0  0  0  0
  189.0280  177.1610  145.2590 C   0  0  0  0  0  2  0  0  0  0  0  0
  179.6850  178.2770  139.8890 C   0  0  0  0  0  2  0  0  0  0  0  0
  178.9730  175.3200  141.7310 O   0  0  0  0  0  1  0  0  0  0  0  0
  179.8430  175.9320  140.8300 C   0  0  1  0  0  3  0  0  0  0  0  0
  179.0620  176.1080  138.6080 C   0  0  2  0  0  3  0  0  0  0  0  0
  180.2010  175.2960  138.5580 O   0  0  0  0  0  0  0  0  0  0  0  0
  180.4120  174.8860  139.8870 C   0  0  0  0  0  2  0  0  0  0  0  0
  178.9490  176.9860  137.3720 C   0  0  0  0  0  1  0  0  0  0  0  0
  179.0720  176.8590  139.9320 C   0  0  2  0  0  3  0  0  0  0  0  0
  1 20  1  6  0  0  0
  1 12  1  0  0  0  0
  2 17  1  0  0  0  0
  3  8  1  0  0  0  0
  4  3  1  0  0  0  0
  4 15  1  0  0  0  0
  5 17  1  6  0  0  0
  5 14  1  0  0  0  0
  7  1  1  0  0  0  0
  8 10  1  0  0  0  0
  9  6  1  0  0  0  0
  9  2  2  0  0  0  0
 10  9  1  0  0  0  0
 11 19  2  0  0  0  0
 13  6  1  6  0  0  0
 13  5  1  0  0  0  0
 13  7  1  0  0  0  0
 14 12  1  0  0  0  0
 15 18  1  6  0  0  0
 15 16  1  0  0  0  0
 16 10  2  0  0  0  0
 16 11  1  0  0  0  0
 19  2  1  0  0  0  0
 21 22  1  6  0  0  0
 21 24  1  0  0  0  0
 21 20  1  0  0  0  0
 23 24  1  0  0  0  0
 25 11  1  0  0  0  0
 27 26  1  1  0  0  0
 28 31  1  6  0  0  0
 28 32  1  0  0  0  0
 29 28  1  0  0  0  0
 29 30  1  0  0  0  0
 30 27  1  0  0  0  0
 32 25  1  6  0  0  0
 32 27  1  0  0  0  0
M  END
>  <MODEL>
4

>  <REMARK>
 VINA RESULT:      -7.9      5.006      9.317
  Name = 
  5 active torsions:
  status: ('A' for Active; 'I' for Inactive)
    1  A    between atoms: C_1  and  C_20
    2  A    between atoms: C_1  and  C_24
    3  A    between atoms: C_2  and  C_24
    4  A    between atoms: C_16  and  C_27
    5  A    between atoms: C_27  and  C_32
                            x       y       z     vdW  Elec       q    Type
                         _______ _______ _______ _____ _____    ______ ____

>  <TORSDO>
F 5

$$$$
=
 OpenBabel11052416553D

 32 36  0  0  1  0  0  0  0  0999 V2000
  180.0700  179.5610  140.5230 C   0  0  1  0  0  3  0  0  0  0  0  0
  184.7700  178.4380  141.9250 C   0  0  0  0  0  0  0  0  0  0  0  0
  187.2750  178.1950  137.6630 C   0  0  0  0  0  2  0  0  0  0  0  0
  188.3620  178.8650  138.3700 N   0  0  0  0  0  2  0  0  0  0  0  0
  182.3270  178.9420  141.9490 C   0  0  1  0  0  3  0  0  0  0  0  0
  183.4320  178.6020  139.7640 C   0  0  0  0  0  2  0  0  0  0  0  0
  180.9060  178.4100  139.9310 C   0  0  0  0  0  2  0  0  0  0  0  0
  185.9420  178.5790  138.2900 C   0  0  0  0  0  2  0  0  0  0  0  0
  184.7440  178.4530  140.5080 C   0  0  0  0  0  0  0  0  0  0  0  0
  185.9570  178.4240  139.7900 C   0  0  0  0  0  0  0  0  0  0  0  0
  187.1950  178.3120  141.8950 C   0  0  0  0  0  0  0  0  0  0  0  0
  180.2190  179.7030  142.0560 C   0  0  0  0  0  2  0  0  0  0  0  0
  182.2520  178.1890  140.6300 C   0  0  2  0  0  3  0  0  0  0  0  0
  181.1180  178.7810  142.6340 O   0  0  0  0  0  0  0  0  0  0  0  0
  188.4900  178.2970  139.7150 C   0  0  1  0  0  3  0  0  0  0  0  0
  187.1890  178.3560  140.4860 C   0  0  0  0  0  0  0  0  0  0  0  0
  183.5080  178.4140  142.7480 C   0  0  0  0  0  2  0  0  0  0  0  0
  188.9780  176.9270  139.6360 N   0  0  0  0  0  1  0  0  0  0  0  0
  185.9890  178.3640  142.5950 C   0  0  0  0  0  3  0  0  0  0  0  0
  180.4390  180.8850  139.8660 C   0  0  0  0  0  2  0  0  0  0  0  0
  180.9220  180.6780  138.4400 C   0  0  2  0  0  3  0  0  0  0  0  0
  182.2070  181.1760  138.2990 F   0  0  0  0  0  0  0  0  0  0  0  0
  180.6110  182.7110  137.0430 C   0  0  0  0  0  1  0  0  0  0  0  0
  179.9890  181.4020  137.4900 C   0  0  0  0  0  2  0  0  0  0  0  0
  188.4870  178.2430  142.6670 C   0  0  0  0  0  2  0  0  0  0  0  0
  187.3810  177.3580  145.9280 O   0  0  0  0  0  1  0  0  0  0  0  0
  188.4060  177.9330  145.1780 C   0  0  1  0  0  3  0  0  0  0  0  0
  189.7800  176.4240  143.9900 C   0  0  2  0  0  3  0  0  0  0  0  0
  190.6140  177.0710  144.9080 O   0  0  0  0  0  0  0  0  0  0  0  0
  189.7410  177.6510  145.8450 C   0  0  0  0  0  2  0  0  0  0  0  0
  190.5060  176.1300  142.6870 C   0  0  0  0  0  1  0  0  0  0  0  0
  188.5060  177.2440  143.8450 C   0  0  2  0  0  3  0  0  0  0  0  0
  1 20  1  6  0  0  0
  1 12  1  0  0  0  0
  2 19  1  0  0  0  0
  2 17  1  0  0  0  0
  3  8  1  0  0  0  0
  3  4  1  0  0  0  0
  4 15  1  0  0  0  0
  5 14  1  0  0  0  0
  5 17  1  1  0  0  0
  6  9  1  0  0  0  0
  7  1  1  0  0  0  0
  7 13  1  0  0  0  0
  8 10  1  0  0  0  0
  9  2  2  0  0  0  0
 10 16  2  0  0  0  0
 10  9  1  0  0  0  0
 11 19  2  0  0  0  0
 11 25  1  0  0  0  0
 12 14  1  0  0  0  0
 13  6  1  6  0  0  0
 13  5  1  0  0  0  0
 15 18  1  6  0  0  0
 15 16  1  0  0  0  0
 16 11  1  0  0  0  0
 21 22  1  1  0  0  0
 21 20  1  0  0  0  0
 23 24  1  0  0  0  0
 24 21  1  0  0  0  0
 27 30  1  0  0  0  0
 27 26  1  1  0  0  0
 28 31  1  6  0  0  0
 28 29  1  0  0  0  0
 29 30  1  0  0  0  0
 32 25  1  6  0  0  0
 32 28  1  0  0  0  0
 32 27  1  0  0  0  0
M  END
>  <MODEL>
5

>  <REMARK>
 VINA RESULT:      -7.6      3.944      6.233
  Name = 
  5 active torsions:
  status: ('A' for Active; 'I' for Inactive)
    1  A    between atoms: C_1  and  C_20
    2  A    between atoms: C_1  and  C_24
    3  A    between atoms: C_2  and  C_24
    4  A    between atoms: C_16  and  C_27
    5  A    between atoms: C_27  and  C_32
                            x       y       z     vdW  Elec       q    Type
                         _______ _______ _______ _____ _____    ______ ____

>  <TORSDO>
F 5

$$$$
=
 OpenBabel11052416553D

 32 36  0  0  1  0  0  0  0  0999 V2000
  185.0110  178.8030  145.7860 C   0  0  1  0  0  3  0  0  0  0  0  0
  184.4300  178.4650  140.8000 C   0  0  0  0  0  0  0  0  0  0  0  0
  189.0560  178.5470  139.0390 C   0  0  0  0  0  2  0  0  0  0  0  0
  188.6130  177.5330  138.0870 N   0  0  0  0  0  2  0  0  0  0  0  0
  183.9890  178.6270  143.2490 C   0  0  1  0  0  3  0  0  0  0  0  0
  186.3110  178.9220  142.4560 C   0  0  0  0  0  2  0  0  0  0  0  0
  185.6640  179.7550  144.7650 C   0  0  0  0  0  2  0  0  0  0  0  0
  188.2210  178.4570  140.3090 C   0  0  0  0  0  2  0  0  0  0  0  0
  185.8150  178.6280  141.0540 C   0  0  0  0  0  0  0  0  0  0  0  0
  186.7420  178.4210  140.0120 C   0  0  0  0  0  0  0  0  0  0  0  0
  184.9020  177.9470  138.4750 C   0  0  0  0  0  0  0  0  0  0  0  0
  183.5460  178.4440  145.4410 C   0  0  0  0  0  2  0  0  0  0  0  0
  185.2140  179.5260  143.3180 C   0  0  2  0  0  3  0  0  0  0  0  0
  183.0810  179.0180  144.2390 O   0  0  0  0  0  0  0  0  0  0  0  0
  187.2780  177.8810  137.5910 C   0  0  1  0  0  3  0  0  0  0  0  0
  186.2840  178.0770  138.7170 C   0  0  0  0  0  0  0  0  0  0  0  0
  183.3870  178.7240  141.8560 C   0  0  0  0  0  2  0  0  0  0  0  0
  187.3480  179.0720  136.7570 N   0  0  0  0  0  1  0  0  0  0  0  0
  183.9960  178.1340  139.5190 C   0  0  0  0  0  3  0  0  0  0  0  0
  185.8180  177.5180  145.9140 C   0  0  0  0  0  2  0  0  0  0  0  0
  187.3110  177.8020  145.9280 C   0  0  2  0  0  3  0  0  0  0  0  0
  187.9080  177.2490  144.8080 F   0  0  0  0  0  0  0  0  0  0  0  0
  188.0260  178.2520  148.2660 C   0  0  0  0  0  1  0  0  0  0  0  0
  187.9200  177.2000  147.1790 C   0  0  0  0  0  2  0  0  0  0  0  0
  184.3820  177.5790  137.1090 C   0  0  0  0  0  2  0  0  0  0  0  0
  184.1810  174.1340  137.9680 O   0  0  0  0  0  1  0  0  0  0  0  0
  184.5510  175.0560  136.9900 C   0  0  1  0  0  3  0  0  0  0  0  0
  182.7770  176.0340  135.7770 C   0  0  2  0  0  3  0  0  0  0  0  0
  183.5410  175.3230  134.8450 O   0  0  0  0  0  0  0  0  0  0  0  0
  184.3310  174.4510  135.6150 C   0  0  0  0  0  2  0  0  0  0  0  0
  182.2080  177.3090  135.1740 C   0  0  0  0  0  1  0  0  0  0  0  0
  183.6210  176.2370  137.0280 C   0  0  2  0  0  3  0  0  0  0  0  0
  1 20  1  6  0  0  0
  2  9  1  0  0  0  0
  2 17  1  0  0  0  0
  3  8  1  0  0  0  0
  4  3  1  0  0  0  0
  5 17  1  6  0  0  0
  5 13  1  0  0  0  0
  5 14  1  0  0  0  0
  7  1  1  0  0  0  0
  9  6  1  0  0  0  0
 10  8  1  0  0  0  0
 10  9  2  0  0  0  0
 11 16  2  0  0  0  0
 11 19  1  0  0  0  0
 12  1  1  0  0  0  0
 13  6  1  6  0  0  0
 13  7  1  0  0  0  0
 14 12  1  0  0  0  0
 15 18  1  1  0  0  0
 15  4  1  0  0  0  0
 15 16  1  0  0  0  0
 16 10  1  0  0  0  0
 19  2  2  0  0  0  0
 20 21  1  0  0  0  0
 21 22  1  6  0  0  0
 21 24  1  0  0  0  0
 24 23  1  0  0  0  0
 25 11  1  0  0  0  0
 27 32  1  0  0  0  0
 27 26  1  1  0  0  0
 28 31  1  6  0  0  0
 28 32  1  0  0  0  0
 29 30  1  0  0  0  0
 29 28  1  0  0  0  0
 30 27  1  0  0  0  0
 32 25  1  6  0  0  0
M  END
>  <MODEL>
6

>  <REMARK>
 VINA RESULT:      -7.3      3.827      9.195
  Name = 
  5 active torsions:
  status: ('A' for Active; 'I' for Inactive)
    1  A    between atoms: C_1  and  C_20
    2  A    between atoms: C_1  and  C_24
    3  A    between atoms: C_2  and  C_24
    4  A    between atoms: C_16  and  C_27
    5  A    between atoms: C_27  and  C_32
                            x       y       z     vdW  Elec       q    Type
                         _______ _______ _______ _____ _____    ______ ____

>  <TORSDO>
F 5

$$$$
=
 OpenBabel11052416553D

 32 36  0  0  1  0  0  0  0  0999 V2000
  191.4980  176.7480  143.1320 C   0  0  1  0  0  3  0  0  0  0  0  0
  187.0770  178.0590  141.1170 C   0  0  0  0  0  0  0  0  0  0  0  0
  184.0430  178.4370  145.0100 C   0  0  0  0  0  2  0  0  0  0  0  0
  183.4840  179.6090  144.3430 N   0  0  0  0  0  2  0  0  0  0  0  0
  189.4650  177.4020  141.4130 C   0  0  1  0  0  3  0  0  0  0  0  0
  187.9760  177.3250  143.3850 C   0  0  0  0  0  2  0  0  0  0  0  0
  190.1620  176.0340  143.4180 C   0  0  0  0  0  2  0  0  0  0  0  0
  185.4950  178.2530  144.5910 C   0  0  0  0  0  2  0  0  0  0  0  0
  186.8710  177.8800  142.5080 C   0  0  0  0  0  0  0  0  0  0  0  0
  185.6630  178.3120  143.0930 C   0  0  0  0  0  0  0  0  0  0  0  0
  184.8660  179.0390  140.9000 C   0  0  0  0  0  0  0  0  0  0  0  0
  191.6810  177.1340  141.6450 C   0  0  0  0  0  2  0  0  0  0  0  0
  188.9890  176.5360  142.5690 C   0  0  2  0  0  3  0  0  0  0  0  0
  190.5820  176.8000  140.8240 O   0  0  0  0  0  0  0  0  0  0  0  0
  183.3490  179.3350  142.9100 C   0  0  1  0  0  3  0  0  0  0  0  0
  184.6570  178.8970  142.2860 C   0  0  0  0  0  0  0  0  0  0  0  0
  188.3230  177.5700  140.4240 C   0  0  0  0  0  2  0  0  0  0  0  0
  182.3140  178.3370  142.6860 N   0  0  0  0  0  1  0  0  0  0  0  0
  186.0750  178.6280  140.3360 C   0  0  0  0  0  3  0  0  0  0  0  0
  191.6310  178.0010  143.9880 C   0  0  0  0  0  2  0  0  0  0  0  0
  191.6250  177.6600  145.4680 C   0  0  2  0  0  3  0  0  0  0  0  0
  192.0550  176.3580  145.6570 F   0  0  0  0  0  0  0  0  0  0  0  0
  189.9740  176.8180  147.1260 C   0  0  0  0  0  1  0  0  0  0  0  0
  190.2160  177.8140  146.0080 C   0  0  0  0  0  2  0  0  0  0  0  0
  183.8170  179.6600  140.0130 C   0  0  0  0  0  2  0  0  0  0  0  0
  182.5180  176.3610  139.7450 O   0  0  0  0  0  1  0  0  0  0  0  0
  183.1680  177.3990  139.0790 C   0  0  1  0  0  3  0  0  0  0  0  0
  181.8070  179.2170  138.4340 C   0  0  2  0  0  3  0  0  0  0  0  0
  182.3060  178.6640  137.2490 O   0  0  0  0  0  0  0  0  0  0  0  0
  182.7700  177.3880  137.6130 C   0  0  0  0  0  2  0  0  0  0  0  0
  181.6790  180.7290  138.3320 C   0  0  0  0  0  1  0  0  0  0  0  0
  182.6660  178.7220  139.5880 C   0  0  2  0  0  3  0  0  0  0  0  0
  1  7  1  0  0  0  0
  1 20  1  1  0  0  0
  2  9  1  0  0  0  0
  4  3  1  0  0  0  0
  5 17  1  6  0  0  0
  5 13  1  0  0  0  0
  8  3  1  0  0  0  0
  9 10  2  0  0  0  0
  9  6  1  0  0  0  0
 10  8  1  0  0  0  0
 11 16  2  0  0  0  0
 12  1  1  0  0  0  0
 13  6  1  1  0  0  0
 13  7  1  0  0  0  0
 14  5  1  0  0  0  0
 14 12  1  0  0  0  0
 15 18  1  1  0  0  0
 15  4  1  0  0  0  0
 16 15  1  0  0  0  0
 16 10  1  0  0  0  0
 17  2  1  0  0  0  0
 19 11  1  0  0  0  0
 19  2  2  0  0  0  0
 20 21  1  0  0  0  0
 21 22  1  6  0  0  0
 21 24  1  0  0  0  0
 24 23  1  0  0  0  0
 25 11  1  0  0  0  0
 27 32  1  0  0  0  0
 27 26  1  1  0  0  0
 28 31  1  6  0  0  0
 28 32  1  0  0  0  0
 29 30  1  0  0  0  0
 29 28  1  0  0  0  0
 30 27  1  0  0  0  0
 32 25  1  6  0  0  0
M  END
>  <MODEL>
7

>  <REMARK>
 VINA RESULT:      -7.3      3.541      7.633
  Name = 
  5 active torsions:
  status: ('A' for Active; 'I' for Inactive)
    1  A    between atoms: C_1  and  C_20
    2  A    between atoms: C_1  and  C_24
    3  A    between atoms: C_2  and  C_24
    4  A    between atoms: C_16  and  C_27
    5  A    between atoms: C_27  and  C_32
                            x       y       z     vdW  Elec       q    Type
                         _______ _______ _______ _____ _____    ______ ____

>  <TORSDO>
F 5

$$$$
=
 OpenBabel11052416553D

 32 36  0  0  1  0  0  0  0  0999 V2000
  187.3490  177.5910  146.5710 C   0  0  1  0  0  3  0  0  0  0  0  0
  189.3620  177.0480  141.9920 C   0  0  0  0  0  0  0  0  0  0  0  0
  185.7060  178.3260  138.9090 C   0  0  0  0  0  2  0  0  0  0  0  0
  186.7340  178.9910  138.1140 N   0  0  0  0  0  2  0  0  0  0  0  0
  189.0200  177.0700  144.4630 C   0  0  1  0  0  3  0  0  0  0  0  0
  187.0670  177.4870  143.0070 C   0  0  0  0  0  2  0  0  0  0  0  0
  186.7010  176.7950  145.4220 C   0  0  0  0  0  2  0  0  0  0  0  0
  186.1320  178.2910  140.3710 C   0  0  0  0  0  2  0  0  0  0  0  0
  188.0010  177.4050  141.8160 C   0  0  0  0  0  0  0  0  0  0  0  0
  187.5410  177.7780  140.5370 C   0  0  0  0  0  0  0  0  0  0  0  0
  189.7730  177.3840  139.6220 C   0  0  0  0  0  0  0  0  0  0  0  0
  188.8780  177.3770  146.6810 C   0  0  0  0  0  2  0  0  0  0  0  0
  187.5840  176.6630  144.1760 C   0  0  2  0  0  3  0  0  0  0  0  0
  189.4120  176.5250  145.6910 O   0  0  0  0  0  0  0  0  0  0  0  0
  187.9280  178.1440  138.0560 C   0  0  1  0  0  3  0  0  0  0  0  0
  188.4300  177.7700  139.4350 C   0  0  0  0  0  0  0  0  0  0  0  0
  189.9030  176.5890  143.3220 C   0  0  0  0  0  2  0  0  0  0  0  0
  187.6600  176.9510  137.2680 N   0  0  0  0  0  1  0  0  0  0  0  0
  190.2220  177.0380  140.8970 C   0  0  0  0  0  3  0  0  0  0  0  0
  187.0680  179.0800  146.4180 C   0  0  0  0  0  2  0  0  0  0  0  0
  185.5800  179.3740  146.5090 C   0  0  2  0  0  3  0  0  0  0  0  0
  184.9370  178.3520  147.1880 F   0  0  0  0  0  0  0  0  0  0  0  0
  183.5760  179.0020  145.0860 C   0  0  0  0  0  1  0  0  0  0  0  0
  185.0110  179.4910  145.1090 C   0  0  0  0  0  2  0  0  0  0  0  0
  190.7460  177.3690  138.4720 C   0  0  0  0  0  2  0  0  0  0  0  0
  194.1000  176.3840  139.1240 O   0  0  0  0  0  1  0  0  0  0  0  0
  193.1800  176.7530  138.1440 C   0  0  1  0  0  3  0  0  0  0  0  0
  191.6020  175.1020  137.5440 C   0  0  2  0  0  3  0  0  0  0  0  0
  192.3490  175.3650  136.3900 O   0  0  0  0  0  0  0  0  0  0  0  0
  193.5010  176.0280  136.8490 C   0  0  0  0  0  2  0  0  0  0  0  0
  190.1490  174.8010  137.2100 C   0  0  0  0  0  1  0  0  0  0  0  0
  191.8120  176.2510  138.5190 C   0  0  2  0  0  3  0  0  0  0  0  0
  1 20  1  6  0  0  0
  1 12  1  0  0  0  0
  2 17  1  0  0  0  0
  3  8  1  0  0  0  0
  4  3  1  0  0  0  0
  5 17  1  6  0  0  0
  5 14  1  0  0  0  0
  7  1  1  0  0  0  0
  8 10  1  0  0  0  0
  9  2  1  0  0  0  0
  9  6  1  0  0  0  0
 10  9  2  0  0  0  0
 11 19  1  0  0  0  0
 13  6  1  6  0  0  0
 13  5  1  0  0  0  0
 13  7  1  0  0  0  0
 14 12  1  0  0  0  0
 15 18  1  6  0  0  0
 15  4  1  0  0  0  0
 15 16  1  0  0  0  0
 16 11  2  0  0  0  0
 16 10  1  0  0  0  0
 19  2  2  0  0  0  0
 20 21  1  0  0  0  0
 21 22  1  6  0  0  0
 23 24  1  0  0  0  0
 24 21  1  0  0  0  0
 25 11  1  0  0  0  0
 27 32  1  0  0  0  0
 27 26  1  1  0  0  0
 28 31  1  6  0  0  0
 28 32  1  0  0  0  0
 29 30  1  0  0  0  0
 29 28  1  0  0  0  0
 30 27  1  0  0  0  0
 32 25  1  6  0  0  0
M  END
>  <MODEL>
8

>  <REMARK>
 VINA RESULT:      -7.3      3.069      7.752
  Name = 
  5 active torsions:
  status: ('A' for Active; 'I' for Inactive)
    1  A    between atoms: C_1  and  C_20
    2  A    between atoms: C_1  and  C_24
    3  A    between atoms: C_2  and  C_24
    4  A    between atoms: C_16  and  C_27
    5  A    between atoms: C_27  and  C_32
                            x       y       z     vdW  Elec       q    Type
                         _______ _______ _______ _____ _____    ______ ____

>  <TORSDO>
F 5

$$$$
=
 OpenBabel11052416553D

 32 36  0  0  1  0  0  0  0  0999 V2000
  188.8210  177.3400  146.6880 C   0  0  1  0  0  3  0  0  0  0  0  0
  188.6320  177.5490  141.6640 C   0  0  0  0  0  0  0  0  0  0  0  0
  183.9650  178.8810  140.6870 C   0  0  0  0  0  2  0  0  0  0  0  0
  184.5240  179.7270  139.6370 N   0  0  0  0  0  2  0  0  0  0  0  0
  189.4080  177.2320  144.0130 C   0  0  1  0  0  3  0  0  0  0  0  0
  187.0050  177.6580  143.6210 C   0  0  0  0  0  2  0  0  0  0  0  0
  187.7520  176.6410  145.8250 C   0  0  0  0  0  2  0  0  0  0  0  0
  184.9900  178.7010  141.7990 C   0  0  0  0  0  2  0  0  0  0  0  0
  187.3240  177.8060  142.1470 C   0  0  0  0  0  0  0  0  0  0  0  0
  186.3400  178.2940  141.2630 C   0  0  0  0  0  0  0  0  0  0  0  0
  187.9530  178.2120  139.4290 C   0  0  0  0  0  0  0  0  0  0  0  0
  190.2470  177.2470  146.0940 C   0  0  0  0  0  2  0  0  0  0  0  0
  188.0020  176.7420  144.3160 C   0  0  2  0  0  3  0  0  0  0  0  0
  190.3110  176.5740  144.8550 O   0  0  0  0  0  0  0  0  0  0  0  0
  185.5910  178.9990  138.9440 C   0  0  1  0  0  3  0  0  0  0  0  0
  186.6560  178.5010  139.8990 C   0  0  0  0  0  0  0  0  0  0  0  0
  189.7120  176.9760  142.5450 C   0  0  0  0  0  2  0  0  0  0  0  0
  185.0310  177.8950  138.1790 N   0  0  0  0  0  1  0  0  0  0  0  0
  188.9240  177.7500  140.3180 C   0  0  0  0  0  3  0  0  0  0  0  0
  188.4670  178.8070  146.8960 C   0  0  0  0  0  2  0  0  0  0  0  0
  187.1930  178.9570  147.7090 C   0  0  2  0  0  3  0  0  0  0  0  0
  186.9300  177.7850  148.3990 F   0  0  0  0  0  0  0  0  0  0  0  0
  184.9260  178.2560  146.9680 C   0  0  0  0  0  1  0  0  0  0  0  0
  186.0400  179.2660  146.7750 C   0  0  0  0  0  2  0  0  0  0  0  0
  188.3230  178.4240  137.9830 C   0  0  0  0  0  2  0  0  0  0  0  0
  189.9150  175.2900  137.4510 O   0  0  0  0  0  1  0  0  0  0  0  0
  189.8830  176.6380  137.0970 C   0  0  1  0  0  3  0  0  0  0  0  0
  188.1210  177.2810  135.6630 C   0  0  2  0  0  3  0  0  0  0  0  0
  189.3050  177.5250  134.9590 O   0  0  0  0  0  0  0  0  0  0  0  0
  190.2900  176.7900  135.6420 C   0  0  0  0  0  2  0  0  0  0  0  0
  187.0610  178.3250  135.3490 C   0  0  0  0  0  1  0  0  0  0  0  0
  188.4650  177.1380  137.1380 C   0  0  2  0  0  3  0  0  0  0  0  0
  1 20  1  6  0  0  0
  2  9  1  0  0  0  0
  2 17  1  0  0  0  0
  3  8  1  0  0  0  0
  4  3  1  0  0  0  0
  5 17  1  6  0  0  0
  5 13  1  0  0  0  0
  5 14  1  0  0  0  0
  7  1  1  0  0  0  0
  9  6  1  0  0  0  0
 10  8  1  0  0  0  0
 10  9  2  0  0  0  0
 11 16  2  0  0  0  0
 11 19  1  0  0  0  0
 12  1  1  0  0  0  0
 13  6  1  1  0  0  0
 13  7  1  0  0  0  0
 14 12  1  0  0  0  0
 15 18  1  1  0  0  0
 15  4  1  0  0  0  0
 15 16  1  0  0  0  0
 16 10  1  0  0  0  0
 19  2  2  0  0  0  0
 20 21  1  0  0  0  0
 21 22  1  6  0  0  0
 24 23  1  0  0  0  0
 24 21  1  0  0  0  0
 25 11  1  0  0  0  0
 27 32  1  0  0  0  0
 27 26  1  6  0  0  0
 28 31  1  1  0  0  0
 28 32  1  0  0  0  0
 29 30  1  0  0  0  0
 29 28  1  0  0  0  0
 30 27  1  0  0  0  0
 32 25  1  1  0  0  0
M  END
>  <MODEL>
9

>  <REMARK>
 VINA RESULT:      -7.0      2.734      8.120
  Name = 
  5 active torsions:
  status: ('A' for Active; 'I' for Inactive)
    1  A    between atoms: C_1  and  C_20
    2  A    between atoms: C_1  and  C_24
    3  A    between atoms: C_2  and  C_24
    4  A    between atoms: C_16  and  C_27
    5  A    between atoms: C_27  and  C_32
                            x       y       z     vdW  Elec       q    Type
                         _______ _______ _______ _____ _____    ______ ____

>  <TORSDO>
F 5

$$$$
