=
 OpenBabel11052412363D

 30 34  0  0  1  0  0  0  0  0999 V2000
  182.1790  178.7590  142.3160 C   0  0  0  0  0  0  0  0  0  0  0  0
  179.2840  177.3490  140.3120 C   0  0  0  0  0  2  0  0  0  0  0  0
  182.2330  179.6860  139.3030 N   0  0  0  0  0  2  0  0  0  0  0  0
  183.5630  178.6310  141.9980 C   0  0  0  0  0  0  0  0  0  0  0  0
  181.7800  178.9870  143.6330 C   0  0  0  0  0  3  0  0  0  0  0  0
  188.0390  177.2710  143.0080 C   0  0  0  0  0  2  0  0  0  0  0  0
  184.0810  179.0250  144.3730 C   0  0  0  0  0  0  0  0  0  0  0  0
  185.5390  178.1160  140.4380 C   0  0  0  0  0  2  0  0  0  0  0  0
  184.4740  180.1980  139.0670 O   0  0  0  0  0  0  0  0  0  0  0  0
  182.7150  179.1110  144.6510 C   0  0  0  0  0  3  0  0  0  0  0  0
  184.5120  178.7950  143.0540 C   0  0  0  0  0  0  0  0  0  0  0  0
  179.0470  177.9890  138.9780 C   0  0  0  0  0  3  0  0  0  0  0  0
  186.3400  179.0280  141.3520 C   0  0  2  0  0  3  0  0  0  0  0  0
  188.3610  177.5100  141.5380 C   0  0  0  0  0  2  0  0  0  0  0  0
  180.7430  177.3940  140.7190 C   0  0  0  0  0  2  0  0  0  0  0  0
  181.1850  179.8960  140.2940 C   0  0  2  0  0  3  0  0  0  0  0  0
  179.2770  179.2420  138.7180 N   0  0  0  0  0  0  0  0  0  0  0  0
  181.0710  178.7600  141.3050 C   0  0  2  0  0  3  0  0  0  0  0  0
  183.4320  177.1730  140.1120 O   0  0  0  0  0  1  0  0  0  0  0  0
  183.6070  179.4760  139.6310 C   0  0  0  0  0  0  0  0  0  0  0  0
  184.0250  178.3530  140.5580 C   0  0  1  0  0  0  0  0  0  0  0  0
  187.8430  178.8810  141.0980 C   0  0  0  0  0  2  0  0  0  0  0  0
  186.5320  177.3350  143.2280 C   0  0  0  0  0  2  0  0  0  0  0  0
  179.8850  180.1870  139.6080 C   0  0  0  0  0  0  0  0  0  0  0  0
  179.3900  181.3400  139.7110 O   0  0  0  0  0  0  0  0  0  0  0  0
  185.9950  178.7070  142.8060 C   0  0  2  0  0  3  0  0  0  0  0  0
  185.0290  179.1720  145.3960 O   0  0  0  0  0  0  0  0  0  0  0  0
  185.0710  178.3430  146.5530 C   0  0  0  0  0  2  0  0  0  0  0  0
  186.3770  178.5520  147.2970 C   0  0  0  0  0  2  0  0  0  0  0  0
  187.4410  177.6490  146.7100 C   0  0  0  0  0  1  0  0  0  0  0  0
  1  5  1  0  0  0  0
  2 15  1  0  0  0  0
  3 20  1  0  0  0  0
  4  1  2  0  0  0  0
  4 11  1  0  0  0  0
  5 10  2  0  0  0  0
  6 23  1  0  0  0  0
  7 10  1  0  0  0  0
  7 27  1  0  0  0  0
  8 21  1  0  0  0  0
  9 20  2  0  0  0  0
 11  7  2  0  0  0  0
 12  2  1  0  0  0  0
 13  8  1  6  0  0  0
 13 26  1  0  0  0  0
 14  6  1  0  0  0  0
 16  3  1  6  0  0  0
 16 18  1  0  0  0  0
 17 12  2  0  0  0  0
 17 24  1  0  0  0  0
 18 15  1  6  0  0  0
 18  1  1  0  0  0  0
 20 21  1  0  0  0  0
 21 19  1  6  0  0  0
 21  4  1  0  0  0  0
 22 13  1  0  0  0  0
 22 14  1  0  0  0  0
 24 25  2  0  0  0  0
 24 16  1  0  0  0  0
 26 11  1  0  0  0  0
 26 23  1  6  0  0  0
 27 28  1  0  0  0  0
 28 29  1  0  0  0  0
 30 29  1  0  0  0  0
M  END
>  <MODEL>
1

>  <REMARK>
 VINA RESULT:      -8.4      0.000      0.000
  Name = 
  3 active torsions:
  status: ('A' for Active; 'I' for Inactive)
    1  A    between atoms: O_6  and  C_8
    2  A    between atoms: O_6  and  C_21
    3  A    between atoms: C_9  and  C_21
                            x       y       z     vdW  Elec       q    Type
                         _______ _______ _______ _____ _____    ______ ____

>  <TORSDO>
F 3

$$$$
=
 OpenBabel11052412363D

 30 34  0  0  1  0  0  0  0  0999 V2000
  188.1150  177.7950  142.1360 C   0  0  0  0  0  0  0  0  0  0  0  0
  190.6880  175.2160  143.1930 C   0  0  0  0  0  2  0  0  0  0  0  0
  188.9490  178.0940  145.1620 N   0  0  0  0  0  2  0  0  0  0  0  0
  186.8560  178.0330  142.7620 C   0  0  0  0  0  0  0  0  0  0  0  0
  188.3110  178.1420  140.8000 C   0  0  0  0  0  3  0  0  0  0  0  0
  182.0800  178.3120  142.7080 C   0  0  0  0  0  2  0  0  0  0  0  0
  186.0630  179.0170  140.6480 C   0  0  0  0  0  0  0  0  0  0  0  0
  185.1560  177.8480  144.6790 C   0  0  0  0  0  2  0  0  0  0  0  0
  187.1000  179.2040  145.9940 O   0  0  0  0  0  0  0  0  0  0  0  0
  187.2990  178.7380  140.0600 C   0  0  0  0  0  3  0  0  0  0  0  0
  185.8380  178.6770  141.9950 C   0  0  0  0  0  0  0  0  0  0  0  0
  191.3740  175.4830  144.4980 C   0  0  0  0  0  3  0  0  0  0  0  0
  184.5530  179.1180  144.1040 C   0  0  2  0  0  3  0  0  0  0  0  0
  182.1420  178.3490  144.2300 C   0  0  0  0  0  2  0  0  0  0  0  0
  189.2810  175.7780  143.1610 C   0  0  0  0  0  2  0  0  0  0  0  0
  189.7990  178.1650  143.9800 C   0  0  2  0  0  3  0  0  0  0  0  0
  191.6350  176.6720  144.9560 N   0  0  0  0  0  0  0  0  0  0  0  0
  189.3290  177.2650  142.8420 C   0  0  2  0  0  3  0  0  0  0  0  0
  186.8410  176.2680  144.3680 O   0  0  0  0  0  1  0  0  0  0  0  0
  187.5490  178.3770  145.1530 C   0  0  0  0  0  0  0  0  0  0  0  0
  186.6100  177.6350  144.2260 C   0  0  1  0  0  0  0  0  0  0  0  0
  183.1650  179.3860  144.6940 C   0  0  0  0  0  2  0  0  0  0  0  0
  183.4490  177.9590  142.1380 C   0  0  0  0  0  2  0  0  0  0  0  0
  191.2260  177.9100  144.3610 C   0  0  0  0  0  0  0  0  0  0  0  0
  192.0520  178.8570  144.2820 O   0  0  0  0  0  0  0  0  0  0  0  0
  184.4880  178.9960  142.5810 C   0  0  2  0  0  3  0  0  0  0  0  0
  185.0450  179.6390  139.9110 O   0  0  0  0  0  0  0  0  0  0  0  0
  184.5140  179.1070  138.7020 C   0  0  0  0  0  2  0  0  0  0  0  0
  183.0010  179.0320  138.7850 C   0  0  0  0  0  2  0  0  0  0  0  0
  182.4240  180.4310  138.7290 C   0  0  0  0  0  1  0  0  0  0  0  0
  1  4  1  0  0  0  0
  1 18  1  0  0  0  0
  2 12  1  0  0  0  0
  4 21  1  0  0  0  0
  5  1  2  0  0  0  0
  6 14  1  0  0  0  0
  7 11  1  0  0  0  0
 10  7  2  0  0  0  0
 10  5  1  0  0  0  0
 11 26  1  0  0  0  0
 11  4  2  0  0  0  0
 12 17  2  0  0  0  0
 13  8  1  1  0  0  0
 13 22  1  0  0  0  0
 14 22  1  0  0  0  0
 15  2  1  0  0  0  0
 16 24  1  1  0  0  0
 16  3  1  0  0  0  0
 18 15  1  1  0  0  0
 18 16  1  0  0  0  0
 20  3  1  0  0  0  0
 20  9  2  0  0  0  0
 21 19  1  1  0  0  0
 21  8  1  0  0  0  0
 21 20  1  0  0  0  0
 23  6  1  0  0  0  0
 24 17  1  0  0  0  0
 25 24  2  0  0  0  0
 26 23  1  1  0  0  0
 26 13  1  0  0  0  0
 27  7  1  0  0  0  0
 28 29  1  0  0  0  0
 28 27  1  0  0  0  0
 30 29  1  0  0  0  0
M  END
>  <MODEL>
2

>  <REMARK>
 VINA RESULT:      -6.7      3.424      8.066
  Name = 
  3 active torsions:
  status: ('A' for Active; 'I' for Inactive)
    1  A    between atoms: O_6  and  C_8
    2  A    between atoms: O_6  and  C_21
    3  A    between atoms: C_9  and  C_21
                            x       y       z     vdW  Elec       q    Type
                         _______ _______ _______ _____ _____    ______ ____

>  <TORSDO>
F 3

$$$$
=
 OpenBabel11052412363D

 30 34  0  0  1  0  0  0  0  0999 V2000
  192.3460  176.2140  138.1530 C   0  0  0  0  0  0  0  0  0  0  0  0
  195.3290  175.9070  135.8300 C   0  0  0  0  0  2  0  0  0  0  0  0
  192.2150  173.6260  136.3580 N   0  0  0  0  0  2  0  0  0  0  0  0
  190.9740  176.1990  137.7670 C   0  0  0  0  0  0  0  0  0  0  0  0
  192.7330  176.8280  139.3450 C   0  0  0  0  0  3  0  0  0  0  0  0
  186.6120  178.1530  137.5310 C   0  0  0  0  0  2  0  0  0  0  0  0
  190.4380  177.3920  139.8530 C   0  0  0  0  0  0  0  0  0  0  0  0
  189.0350  175.7530  136.1400 C   0  0  0  0  0  2  0  0  0  0  0  0
  189.9420  173.2100  136.3950 O   0  0  0  0  0  0  0  0  0  0  0  0
  191.7950  177.4160  140.1820 C   0  0  0  0  0  3  0  0  0  0  0  0
  190.0200  176.7800  138.6560 C   0  0  0  0  0  0  0  0  0  0  0  0
  195.5140  174.5660  135.1880 C   0  0  0  0  0  3  0  0  0  0  0  0
  188.1730  175.6520  137.3880 C   0  0  2  0  0  3  0  0  0  0  0  0
  186.2690  177.0740  136.5110 C   0  0  0  0  0  2  0  0  0  0  0  0
  193.8720  176.2090  136.1160 C   0  0  0  0  0  2  0  0  0  0  0  0
  193.2490  174.0130  137.3100 C   0  0  2  0  0  3  0  0  0  0  0  0
  195.1930  173.4370  135.7480 N   0  0  0  0  0  0  0  0  0  0  0  0
  193.4490  175.5220  137.4060 C   0  0  2  0  0  3  0  0  0  0  0  0
  191.2040  176.1650  135.3900 O   0  0  0  0  0  1  0  0  0  0  0  0
  190.8610  174.0740  136.4280 C   0  0  0  0  0  0  0  0  0  0  0  0
  190.5290  175.5520  136.4450 C   0  0  1  0  0  0  0  0  0  0  0  0
  186.6840  175.6980  137.0340 C   0  0  0  0  0  2  0  0  0  0  0  0
  188.1120  178.1510  137.8070 C   0  0  0  0  0  2  0  0  0  0  0  0
  194.5220  173.2840  137.0060 C   0  0  0  0  0  0  0  0  0  0  0  0
  194.9330  172.4160  137.8190 O   0  0  0  0  0  0  0  0  0  0  0  0
  188.5470  176.7830  138.3460 C   0  0  2  0  0  3  0  0  0  0  0  0
  189.4850  177.9660  140.7070 O   0  0  0  0  0  0  0  0  0  0  0  0
  189.5300  177.8490  142.1260 C   0  0  0  0  0  2  0  0  0  0  0  0
  189.1670  176.4370  142.5450 C   0  0  0  0  0  2  0  0  0  0  0  0
  187.9460  176.4770  143.4400 C   0  0  0  0  0  1  0  0  0  0  0  0
  1  5  1  0  0  0  0
  2 15  1  0  0  0  0
  3 20  1  0  0  0  0
  4  1  2  0  0  0  0
  4 11  1  0  0  0  0
  5 10  2  0  0  0  0
  6 23  1  0  0  0  0
  7 10  1  0  0  0  0
  7 27  1  0  0  0  0
  8 21  1  0  0  0  0
  9 20  2  0  0  0  0
 11  7  2  0  0  0  0
 12 17  2  0  0  0  0
 12  2  1  0  0  0  0
 13  8  1  6  0  0  0
 13 26  1  0  0  0  0
 14 22  1  0  0  0  0
 14  6  1  0  0  0  0
 16  3  1  6  0  0  0
 16 18  1  0  0  0  0
 17 24  1  0  0  0  0
 18 15  1  6  0  0  0
 18  1  1  0  0  0  0
 20 21  1  0  0  0  0
 21 19  1  6  0  0  0
 21  4  1  0  0  0  0
 22 13  1  0  0  0  0
 24 16  1  0  0  0  0
 24 25  2  0  0  0  0
 26 23  1  6  0  0  0
 26 11  1  0  0  0  0
 27 28  1  0  0  0  0
 28 29  1  0  0  0  0
 29 30  1  0  0  0  0
M  END
>  <MODEL>
3

>  <REMARK>
 VINA RESULT:      -6.6      6.929     10.684
  Name = 
  3 active torsions:
  status: ('A' for Active; 'I' for Inactive)
    1  A    between atoms: O_6  and  C_8
    2  A    between atoms: O_6  and  C_21
    3  A    between atoms: C_9  and  C_21
                            x       y       z     vdW  Elec       q    Type
                         _______ _______ _______ _____ _____    ______ ____

>  <TORSDO>
F 3

$$$$
=
 OpenBabel11052412363D

 30 34  0  0  1  0  0  0  0  0999 V2000
  187.7610  177.5420  138.4140 C   0  0  0  0  0  0  0  0  0  0  0  0
  190.1810  177.1750  135.5160 C   0  0  0  0  0  2  0  0  0  0  0  0
  187.0330  175.1170  136.5360 N   0  0  0  0  0  2  0  0  0  0  0  0
  186.3440  177.6660  138.3160 C   0  0  0  0  0  0  0  0  0  0  0  0
  188.4320  178.0300  139.5350 C   0  0  0  0  0  3  0  0  0  0  0  0
  182.2260  179.9760  139.0930 C   0  0  0  0  0  2  0  0  0  0  0  0
  186.3480  178.7350  140.5350 C   0  0  0  0  0  0  0  0  0  0  0  0
  184.0870  177.5030  137.0980 C   0  0  0  0  0  2  0  0  0  0  0  0
  184.7840  174.8840  137.0120 O   0  0  0  0  0  0  0  0  0  0  0  0
  187.7400  178.6250  140.5800 C   0  0  0  0  0  3  0  0  0  0  0  0
  185.6450  178.2530  139.4150 C   0  0  0  0  0  0  0  0  0  0  0  0
  190.1070  175.8760  134.7720 C   0  0  0  0  0  3  0  0  0  0  0  0
  183.4850  177.3760  138.4870 C   0  0  2  0  0  3  0  0  0  0  0  0
  181.5870  179.0090  138.1040 C   0  0  0  0  0  2  0  0  0  0  0  0
  188.8440  177.5700  136.1110 C   0  0  0  0  0  2  0  0  0  0  0  0
  188.2670  175.3460  137.2770 C   0  0  2  0  0  3  0  0  0  0  0  0
  189.8000  174.7380  135.3190 N   0  0  0  0  0  0  0  0  0  0  0  0
  188.6230  176.8230  137.4180 C   0  0  2  0  0  3  0  0  0  0  0  0
  186.0930  177.7960  135.9460 O   0  0  0  0  0  1  0  0  0  0  0  0
  185.7680  175.6660  136.9070 C   0  0  0  0  0  0  0  0  0  0  0  0
  185.5870  177.1600  137.0780 C   0  0  1  0  0  0  0  0  0  0  0  0
  181.9670  177.5680  138.4490 C   0  0  0  0  0  2  0  0  0  0  0  0
  183.7430  179.8330  139.0560 C   0  0  0  0  0  2  0  0  0  0  0  0
  189.3800  174.5430  136.6760 C   0  0  0  0  0  0  0  0  0  0  0  0
  189.8610  173.5850  137.3360 O   0  0  0  0  0  0  0  0  0  0  0  0
  184.1460  178.3970  139.4140 C   0  0  2  0  0  3  0  0  0  0  0  0
  185.6420  179.3170  141.5980 O   0  0  0  0  0  0  0  0  0  0  0  0
  185.4340  178.6710  142.8490 C   0  0  0  0  0  2  0  0  0  0  0  0
  183.9530  178.6280  143.1740 C   0  0  0  0  0  2  0  0  0  0  0  0
  183.7450  179.0030  144.6270 C   0  0  0  0  0  1  0  0  0  0  0  0
  1  5  1  0  0  0  0
  2 15  1  0  0  0  0
  3 20  1  0  0  0  0
  4  1  2  0  0  0  0
  4 11  1  0  0  0  0
  5 10  2  0  0  0  0
  7 10  1  0  0  0  0
  7 27  1  0  0  0  0
 11  7  2  0  0  0  0
 12 17  2  0  0  0  0
 12  2  1  0  0  0  0
 13  8  1  6  0  0  0
 13 26  1  0  0  0  0
 14 22  1  0  0  0  0
 14  6  1  0  0  0  0
 16  3  1  6  0  0  0
 16 18  1  0  0  0  0
 17 24  1  0  0  0  0
 18 15  1  6  0  0  0
 18  1  1  0  0  0  0
 20  9  2  0  0  0  0
 20 21  1  0  0  0  0
 21 19  1  6  0  0  0
 21  8  1  0  0  0  0
 21  4  1  0  0  0  0
 22 13  1  0  0  0  0
 23  6  1  0  0  0  0
 24 16  1  0  0  0  0
 24 25  2  0  0  0  0
 26 23  1  6  0  0  0
 26 11  1  0  0  0  0
 27 28  1  0  0  0  0
 28 29  1  0  0  0  0
 29 30  1  0  0  0  0
M  END
>  <MODEL>
4

>  <REMARK>
 VINA RESULT:      -6.3      4.208      7.412
  Name = 
  3 active torsions:
  status: ('A' for Active; 'I' for Inactive)
    1  A    between atoms: O_6  and  C_8
    2  A    between atoms: O_6  and  C_21
    3  A    between atoms: C_9  and  C_21
                            x       y       z     vdW  Elec       q    Type
                         _______ _______ _______ _____ _____    ______ ____

>  <TORSDO>
F 3

$$$$
=
 OpenBabel11052412363D

 30 34  0  0  1  0  0  0  0  0999 V2000
  187.4380  177.9200  139.1470 C   0  0  0  0  0  0  0  0  0  0  0  0
  187.5490  178.9290  135.4930 C   0  0  0  0  0  2  0  0  0  0  0  0
  184.9390  176.8770  137.5320 N   0  0  0  0  0  2  0  0  0  0  0  0
  186.3740  178.1800  140.0600 C   0  0  0  0  0  0  0  0  0  0  0  0
  188.7320  177.7060  139.6210 C   0  0  0  0  0  3  0  0  0  0  0  0
  184.6100  180.0480  144.0970 C   0  0  0  0  0  2  0  0  0  0  0  0
  187.9840  177.9430  141.9070 C   0  0  0  0  0  0  0  0  0  0  0  0
  183.9680  178.8350  140.6790 C   0  0  0  0  0  2  0  0  0  0  0  0
  183.4210  176.5960  139.2520 O   0  0  0  0  0  0  0  0  0  0  0  0
  189.0070  177.7240  140.9820 C   0  0  0  0  0  3  0  0  0  0  0  0
  186.6690  178.1620  141.4570 C   0  0  0  0  0  0  0  0  0  0  0  0
  186.5880  178.2120  134.5940 C   0  0  0  0  0  3  0  0  0  0  0  0
  184.2140  178.0530  141.9580 C   0  0  2  0  0  3  0  0  0  0  0  0
  183.2240  179.7830  143.5230 C   0  0  0  0  0  2  0  0  0  0  0  0
  187.0230  179.0560  136.9080 C   0  0  0  0  0  2  0  0  0  0  0  0
  186.3500  176.5990  137.2920 C   0  0  2  0  0  3  0  0  0  0  0  0
  186.2080  176.9800  134.7650 N   0  0  0  0  0  0  0  0  0  0  0  0
  187.2670  177.7580  137.6650 C   0  0  2  0  0  3  0  0  0  0  0  0
  184.9640  179.5350  138.6910 O   0  0  0  0  0  1  0  0  0  0  0  0
  184.4060  177.2450  138.8050 C   0  0  0  0  0  0  0  0  0  0  0  0
  184.9450  178.4440  139.5580 C   0  0  1  0  0  0  0  0  0  0  0  0
  183.1320  178.3480  143.0010 C   0  0  0  0  0  2  0  0  0  0  0  0
  185.6700  179.8340  143.0220 C   0  0  0  0  0  2  0  0  0  0  0  0
  186.5460  176.1430  135.8780 C   0  0  0  0  0  0  0  0  0  0  0  0
  186.8870  174.9500  135.6680 O   0  0  0  0  0  0  0  0  0  0  0  0
  185.6030  178.3960  142.4950 C   0  0  2  0  0  3  0  0  0  0  0  0
  188.2540  177.9410  143.2840 O   0  0  0  0  0  0  0  0  0  0  0  0
  188.1720  176.7760  144.0980 C   0  0  0  0  0  2  0  0  0  0  0  0
  188.2350  177.1590  145.5650 C   0  0  0  0  0  2  0  0  0  0  0  0
  186.8860  177.6880  146.0050 C   0  0  0  0  0  1  0  0  0  0  0  0
  1  5  2  0  0  0  0
  1  4  1  0  0  0  0
  2 15  1  0  0  0  0
  3 20  1  0  0  0  0
  4 11  2  0  0  0  0
  5 10  1  0  0  0  0
  7 27  1  0  0  0  0
 10  7  2  0  0  0  0
 11  7  1  0  0  0  0
 11 26  1  0  0  0  0
 12 17  2  0  0  0  0
 12  2  1  0  0  0  0
 13  8  1  6  0  0  0
 13 26  1  0  0  0  0
 13 22  1  0  0  0  0
 14  6  1  0  0  0  0
 16 24  1  6  0  0  0
 16  3  1  0  0  0  0
 16 18  1  0  0  0  0
 17 24  1  0  0  0  0
 18 15  1  1  0  0  0
 18  1  1  0  0  0  0
 20  9  2  0  0  0  0
 20 21  1  0  0  0  0
 21 19  1  6  0  0  0
 21  4  1  0  0  0  0
 21  8  1  0  0  0  0
 22 14  1  0  0  0  0
 23  6  1  0  0  0  0
 25 24  2  0  0  0  0
 26 23  1  6  0  0  0
 27 28  1  0  0  0  0
 28 29  1  0  0  0  0
 29 30  1  0  0  0  0
M  END
>  <MODEL>
5

>  <REMARK>
 VINA RESULT:      -5.7      3.031      5.707
  Name = 
  3 active torsions:
  status: ('A' for Active; 'I' for Inactive)
    1  A    between atoms: O_6  and  C_8
    2  A    between atoms: O_6  and  C_21
    3  A    between atoms: C_9  and  C_21
                            x       y       z     vdW  Elec       q    Type
                         _______ _______ _______ _____ _____    ______ ____

>  <TORSDO>
F 3

$$$$
=
 OpenBabel11052412363D

 30 34  0  0  1  0  0  0  0  0999 V2000
  182.7060  177.9710  138.0160 C   0  0  0  0  0  0  0  0  0  0  0  0
  180.1120  180.5470  139.0300 C   0  0  0  0  0  2  0  0  0  0  0  0
  182.8530  178.6880  141.0820 N   0  0  0  0  0  2  0  0  0  0  0  0
  184.1130  178.0670  138.2240 C   0  0  0  0  0  0  0  0  0  0  0  0
  182.2010  177.1630  136.9970 C   0  0  0  0  0  3  0  0  0  0  0  0
  188.6340  178.1630  136.6590 C   0  0  0  0  0  2  0  0  0  0  0  0
  184.4320  176.4700  136.3770 C   0  0  0  0  0  0  0  0  0  0  0  0
  186.2290  179.0460  139.3050 C   0  0  0  0  0  2  0  0  0  0  0  0
  185.0370  178.0890  141.5440 O   0  0  0  0  0  0  0  0  0  0  0  0
  183.0490  176.4270  136.1820 C   0  0  0  0  0  3  0  0  0  0  0  0
  184.9690  177.2780  137.3960 C   0  0  0  0  0  0  0  0  0  0  0  0
  179.8950  180.7010  140.5040 C   0  0  0  0  0  3  0  0  0  0  0  0
  186.8670  177.7060  138.9790 C   0  0  2  0  0  3  0  0  0  0  0  0
  189.0230  178.6580  138.0470 C   0  0  0  0  0  2  0  0  0  0  0  0
  181.5300  180.1210  138.7010 C   0  0  0  0  0  2  0  0  0  0  0  0
  181.7270  178.1400  140.3360 C   0  0  2  0  0  3  0  0  0  0  0  0
  180.0050  179.7320  141.3640 N   0  0  0  0  0  0  0  0  0  0  0  0
  181.6710  178.6180  138.8890 C   0  0  2  0  0  3  0  0  0  0  0  0
  184.2600  180.2800  139.1090 O   0  0  0  0  0  1  0  0  0  0  0  0
  184.2180  178.5310  140.6920 C   0  0  0  0  0  0  0  0  0  0  0  0
  184.6930  178.9720  139.3230 C   0  0  1  0  0  0  0  0  0  0  0  0
  188.3900  177.7720  139.1220 C   0  0  0  0  0  2  0  0  0  0  0  0
  187.1180  178.1860  136.5030 C   0  0  0  0  0  2  0  0  0  0  0  0
  180.4500  178.4000  141.0760 C   0  0  0  0  0  0  0  0  0  0  0  0
  179.8290  177.4240  141.5730 O   0  0  0  0  0  0  0  0  0  0  0  0
  186.4650  177.2920  137.5640 C   0  0  2  0  0  3  0  0  0  0  0  0
  185.2910  175.7110  135.5690 O   0  0  0  0  0  0  0  0  0  0  0  0
  185.3190  174.2880  135.5720 C   0  0  0  0  0  2  0  0  0  0  0  0
  186.0160  173.7820  136.8220 C   0  0  0  0  0  2  0  0  0  0  0  0
  185.0130  173.0650  137.7020 C   0  0  0  0  0  1  0  0  0  0  0  0
  1  4  1  0  0  0  0
  1 18  1  0  0  0  0
  2 12  1  0  0  0  0
  4 21  1  0  0  0  0
  5  1  2  0  0  0  0
  6 14  1  0  0  0  0
  7 11  1  0  0  0  0
  8 21  1  0  0  0  0
 10  7  2  0  0  0  0
 10  5  1  0  0  0  0
 11 26  1  0  0  0  0
 11  4  2  0  0  0  0
 12 17  2  0  0  0  0
 13 22  1  6  0  0  0
 13  8  1  0  0  0  0
 14 22  1  0  0  0  0
 15  2  1  0  0  0  0
 16 24  1  1  0  0  0
 16  3  1  0  0  0  0
 18 15  1  1  0  0  0
 18 16  1  0  0  0  0
 20  3  1  0  0  0  0
 20  9  2  0  0  0  0
 21 19  1  6  0  0  0
 21 20  1  0  0  0  0
 23  6  1  0  0  0  0
 24 17  1  0  0  0  0
 24 25  2  0  0  0  0
 26 23  1  6  0  0  0
 26 13  1  0  0  0  0
 27 28  1  0  0  0  0
 27  7  1  0  0  0  0
 28 29  1  0  0  0  0
 29 30  1  0  0  0  0
M  END
>  <MODEL>
6

>  <REMARK>
 VINA RESULT:      -5.7      3.280      5.797
  Name = 
  3 active torsions:
  status: ('A' for Active; 'I' for Inactive)
    1  A    between atoms: O_6  and  C_8
    2  A    between atoms: O_6  and  C_21
    3  A    between atoms: C_9  and  C_21
                            x       y       z     vdW  Elec       q    Type
                         _______ _______ _______ _____ _____    ______ ____

>  <TORSDO>
F 3

$$$$
=
 OpenBabel11052412363D

 30 34  0  0  1  0  0  0  0  0999 V2000
  181.4850  177.4240  139.3820 C   0  0  0  0  0  0  0  0  0  0  0  0
  179.0420  180.1050  140.4900 C   0  0  0  0  0  2  0  0  0  0  0  0
  182.7120  179.3460  141.5590 N   0  0  0  0  0  2  0  0  0  0  0  0
  182.7980  177.6410  138.8700 C   0  0  0  0  0  0  0  0  0  0  0  0
  180.7960  176.2520  139.0700 C   0  0  0  0  0  3  0  0  0  0  0  0
  186.1530  177.2260  135.4830 C   0  0  0  0  0  2  0  0  0  0  0  0
  182.6730  175.4360  137.7830 C   0  0  0  0  0  0  0  0  0  0  0  0
  184.9060  179.0450  138.4320 C   0  0  0  0  0  2  0  0  0  0  0  0
  184.9670  179.0600  141.1420 O   0  0  0  0  0  0  0  0  0  0  0  0
  181.3760  175.2720  138.2750 C   0  0  0  0  0  3  0  0  0  0  0  0
  183.3910  176.6080  138.0810 C   0  0  0  0  0  0  0  0  0  0  0  0
  179.4170  180.8460  141.7370 C   0  0  0  0  0  3  0  0  0  0  0  0
  185.6280  177.7120  138.3470 C   0  0  2  0  0  3  0  0  0  0  0  0
  186.9560  178.2610  136.2600 C   0  0  0  0  0  2  0  0  0  0  0  0
  180.2580  179.6270  139.7210 C   0  0  0  0  0  2  0  0  0  0  0  0
  181.5260  178.5040  141.6630 C   0  0  2  0  0  3  0  0  0  0  0  0
  180.0740  180.3220  142.7290 N   0  0  0  0  0  0  0  0  0  0  0  0
  180.7830  178.3400  140.3410 C   0  0  2  0  0  3  0  0  0  0  0  0
  182.8130  180.0250  138.7420 O   0  0  0  0  0  1  0  0  0  0  0  0
  183.7980  179.0850  140.6690 C   0  0  0  0  0  0  0  0  0  0  0  0
  183.5660  178.9370  139.1790 C   0  0  1  0  0  0  0  0  0  0  0  0
  187.0240  177.8790  137.7390 C   0  0  0  0  0  2  0  0  0  0  0  0
  184.7380  177.1340  136.0440 C   0  0  0  0  0  2  0  0  0  0  0  0
  180.6380  179.0050  142.7610 C   0  0  0  0  0  0  0  0  0  0  0  0
  180.5000  178.3020  143.7960 O   0  0  0  0  0  0  0  0  0  0  0  0
  184.7840  176.7370  137.5250 C   0  0  2  0  0  3  0  0  0  0  0  0
  183.2700  174.4390  136.9980 O   0  0  0  0  0  0  0  0  0  0  0  0
  182.8400  173.0810  136.9910 C   0  0  0  0  0  2  0  0  0  0  0  0
  184.0220  172.1580  137.2180 C   0  0  0  0  0  2  0  0  0  0  0  0
  185.2370  172.9800  137.5940 C   0  0  0  0  0  1  0  0  0  0  0  0
  1 18  1  0  0  0  0
  2 12  1  0  0  0  0
  4 21  1  0  0  0  0
  4  1  2  0  0  0  0
  5  1  1  0  0  0  0
  6 23  1  0  0  0  0
  6 14  1  0  0  0  0
  7 11  2  0  0  0  0
  7 10  1  0  0  0  0
  8 21  1  0  0  0  0
 10  5  2  0  0  0  0
 11  4  1  0  0  0  0
 12 17  2  0  0  0  0
 13 22  1  6  0  0  0
 13  8  1  0  0  0  0
 14 22  1  0  0  0  0
 15  2  1  0  0  0  0
 16  3  1  6  0  0  0
 16 24  1  0  0  0  0
 17 24  1  0  0  0  0
 18 15  1  6  0  0  0
 18 16  1  0  0  0  0
 20  9  2  0  0  0  0
 20  3  1  0  0  0  0
 21 19  1  6  0  0  0
 21 20  1  0  0  0  0
 24 25  2  0  0  0  0
 26 23  1  6  0  0  0
 26 11  1  0  0  0  0
 26 13  1  0  0  0  0
 27  7  1  0  0  0  0
 28 27  1  0  0  0  0
 28 29  1  0  0  0  0
 29 30  1  0  0  0  0
M  END
>  <MODEL>
7

>  <REMARK>
 VINA RESULT:      -5.6      3.385      5.777
  Name = 
  3 active torsions:
  status: ('A' for Active; 'I' for Inactive)
    1  A    between atoms: O_6  and  C_8
    2  A    between atoms: O_6  and  C_21
    3  A    between atoms: C_9  and  C_21
                            x       y       z     vdW  Elec       q    Type
                         _______ _______ _______ _____ _____    ______ ____

>  <TORSDO>
F 3

$$$$
=
 OpenBabel11052412363D

 30 34  0  0  1  0  0  0  0  0999 V2000
  183.4010  176.8430  138.1730 C   0  0  0  0  0  0  0  0  0  0  0  0
  181.5700  173.7460  136.9720 C   0  0  0  0  0  2  0  0  0  0  0  0
  183.5830  176.4720  135.0470 N   0  0  0  0  0  2  0  0  0  0  0  0
  184.7680  177.1630  137.9220 C   0  0  0  0  0  0  0  0  0  0  0  0
  182.7460  177.3840  139.2790 C   0  0  0  0  0  3  0  0  0  0  0  0
  189.2150  178.1960  139.3560 C   0  0  0  0  0  2  0  0  0  0  0  0
  184.7280  178.6150  139.9100 C   0  0  0  0  0  0  0  0  0  0  0  0
  187.0130  176.9140  136.6960 C   0  0  0  0  0  2  0  0  0  0  0  0
  185.4900  177.6950  134.5940 O   0  0  0  0  0  0  0  0  0  0  0  0
  183.4000  178.2530  140.1420 C   0  0  0  0  0  3  0  0  0  0  0  0
  185.4140  178.0830  138.8020 C   0  0  0  0  0  0  0  0  0  0  0  0
  181.3280  173.6690  135.4950 C   0  0  0  0  0  3  0  0  0  0  0  0
  187.2730  178.3440  137.1380 C   0  0  2  0  0  3  0  0  0  0  0  0
  189.6520  177.9540  137.9170 C   0  0  0  0  0  2  0  0  0  0  0  0
  182.8300  174.5200  137.3060 C   0  0  0  0  0  2  0  0  0  0  0  0
  182.3890  176.6140  135.8720 C   0  0  2  0  0  3  0  0  0  0  0  0
  181.1220  174.7030  134.7340 N   0  0  0  0  0  0  0  0  0  0  0  0
  182.5410  176.0130  137.2650 C   0  0  2  0  0  3  0  0  0  0  0  0
  185.4730  175.1670  136.8170 O   0  0  0  0  0  1  0  0  0  0  0  0
  184.8690  176.9680  135.4170 C   0  0  0  0  0  0  0  0  0  0  0  0
  185.5170  176.5570  136.7240 C   0  0  1  0  0  0  0  0  0  0  0  0
  188.7460  178.7200  136.9510 C   0  0  0  0  0  2  0  0  0  0  0  0
  187.7730  177.7360  139.5470 C   0  0  0  0  0  2  0  0  0  0  0  0
  181.1970  176.0750  135.1420 C   0  0  0  0  0  0  0  0  0  0  0  0
  180.3060  176.8790  134.7600 O   0  0  0  0  0  0  0  0  0  0  0  0
  186.8460  178.5030  138.5970 C   0  0  2  0  0  3  0  0  0  0  0  0
  185.3860  179.5090  140.7680 O   0  0  0  0  0  0  0  0  0  0  0  0
  185.3410  179.4120  142.1870 C   0  0  0  0  0  2  0  0  0  0  0  0
  185.7380  178.0150  142.6280 C   0  0  0  0  0  2  0  0  0  0  0  0
  186.3390  178.0780  144.0160 C   0  0  0  0  0  1  0  0  0  0  0  0
  1  5  1  0  0  0  0
  2 15  1  0  0  0  0
  3 20  1  0  0  0  0
  4  1  2  0  0  0  0
  4 11  1  0  0  0  0
  5 10  2  0  0  0  0
  6 23  1  0  0  0  0
  7 10  1  0  0  0  0
  7 27  1  0  0  0  0
  8 21  1  0  0  0  0
  9 20  2  0  0  0  0
 11  7  2  0  0  0  0
 12  2  1  0  0  0  0
 13  8  1  1  0  0  0
 13 26  1  0  0  0  0
 14  6  1  0  0  0  0
 16  3  1  6  0  0  0
 16 18  1  0  0  0  0
 17 24  1  0  0  0  0
 17 12  2  0  0  0  0
 18 15  1  6  0  0  0
 18  1  1  0  0  0  0
 20 21  1  0  0  0  0
 21 19  1  1  0  0  0
 21  4  1  0  0  0  0
 22 13  1  0  0  0  0
 22 14  1  0  0  0  0
 24 16  1  0  0  0  0
 25 24  2  0  0  0  0
 26 11  1  0  0  0  0
 26 23  1  1  0  0  0
 27 28  1  0  0  0  0
 28 29  1  0  0  0  0
 29 30  1  0  0  0  0
M  END
>  <MODEL>
8

>  <REMARK>
 VINA RESULT:      -5.6      3.908      4.872
  Name = 
  3 active torsions:
  status: ('A' for Active; 'I' for Inactive)
    1  A    between atoms: O_6  and  C_8
    2  A    between atoms: O_6  and  C_21
    3  A    between atoms: C_9  and  C_21
                            x       y       z     vdW  Elec       q    Type
                         _______ _______ _______ _____ _____    ______ ____

>  <TORSDO>
F 3

$$$$
=
 OpenBabel11052412363D

 30 34  0  0  1  0  0  0  0  0999 V2000
  187.4070  177.5060  138.5600 C   0  0  0  0  0  0  0  0  0  0  0  0
  187.7420  174.9400  135.7870 C   0  0  0  0  0  2  0  0  0  0  0  0
  190.3900  177.1490  137.6020 N   0  0  0  0  0  2  0  0  0  0  0  0
  188.1120  177.5020  139.8000 C   0  0  0  0  0  0  0  0  0  0  0  0
  186.1850  178.1680  138.4500 C   0  0  0  0  0  3  0  0  0  0  0  0
  188.2800  177.4490  144.5810 C   0  0  0  0  0  2  0  0  0  0  0  0
  186.3170  178.8940  140.7520 C   0  0  0  0  0  0  0  0  0  0  0  0
  189.9850  176.7560  141.3920 C   0  0  0  0  0  2  0  0  0  0  0  0
  191.5190  177.9010  139.4720 O   0  0  0  0  0  0  0  0  0  0  0  0
  185.6400  178.8470  139.5310 C   0  0  0  0  0  3  0  0  0  0  0  0
  187.5520  178.2340  140.8910 C   0  0  0  0  0  0  0  0  0  0  0  0
  189.0500  174.9430  135.0560 C   0  0  0  0  0  3  0  0  0  0  0  0
  189.7460  178.0790  142.0980 C   0  0  2  0  0  3  0  0  0  0  0  0
  189.7640  177.1340  144.4490 C   0  0  0  0  0  2  0  0  0  0  0  0
  187.8890  175.3930  137.2260 C   0  0  0  0  0  2  0  0  0  0  0  0
  189.2310  177.5540  136.8150 C   0  0  2  0  0  3  0  0  0  0  0  0
  189.7670  176.0080  134.8470 N   0  0  0  0  0  0  0  0  0  0  0  0
  187.9280  176.9130  137.2830 C   0  0  2  0  0  3  0  0  0  0  0  0
  189.2560  175.4140  139.6300 O   0  0  0  0  0  1  0  0  0  0  0  0
  190.4930  177.3270  139.0150 C   0  0  0  0  0  0  0  0  0  0  0  0
  189.4480  176.7570  139.9510 C   0  0  1  0  0  0  0  0  0  0  0  0
  190.4270  178.1040  143.4690 C   0  0  0  0  0  2  0  0  0  0  0  0
  187.5990  177.3350  143.2220 C   0  0  0  0  0  2  0  0  0  0  0  0
  189.4940  177.3180  135.3590 C   0  0  0  0  0  0  0  0  0  0  0  0
  189.6140  178.3130  134.5970 O   0  0  0  0  0  0  0  0  0  0  0  0
  188.2400  178.3110  142.2280 C   0  0  2  0  0  3  0  0  0  0  0  0
  185.7800  179.5970  141.8400 O   0  0  0  0  0  0  0  0  0  0  0  0
  184.6240  179.1740  142.5560 C   0  0  0  0  0  2  0  0  0  0  0  0
  184.6350  179.7580  143.9560 C   0  0  0  0  0  2  0  0  0  0  0  0
  184.5830  178.6340  144.9700 C   0  0  0  0  0  1  0  0  0  0  0  0
  1  4  1  0  0  0  0
  2 15  1  0  0  0  0
  3 20  1  0  0  0  0
  4 21  1  0  0  0  0
  4 11  2  0  0  0  0
  5  1  2  0  0  0  0
  5 10  1  0  0  0  0
  7 11  1  0  0  0  0
  7 27  1  0  0  0  0
 10  7  2  0  0  0  0
 11 26  1  0  0  0  0
 12  2  1  0  0  0  0
 13  8  1  1  0  0  0
 13 26  1  0  0  0  0
 13 22  1  0  0  0  0
 14  6  1  0  0  0  0
 16 24  1  6  0  0  0
 16 18  1  0  0  0  0
 16  3  1  0  0  0  0
 17 12  2  0  0  0  0
 17 24  1  0  0  0  0
 18 15  1  1  0  0  0
 18  1  1  0  0  0  0
 20  9  2  0  0  0  0
 20 21  1  0  0  0  0
 21 19  1  6  0  0  0
 21  8  1  0  0  0  0
 22 14  1  0  0  0  0
 23  6  1  0  0  0  0
 25 24  2  0  0  0  0
 26 23  1  1  0  0  0
 27 28  1  0  0  0  0
 28 29  1  0  0  0  0
 29 30  1  0  0  0  0
M  END
>  <MODEL>
9

>  <REMARK>
 VINA RESULT:      -5.5      4.321      6.821
  Name = 
  3 active torsions:
  status: ('A' for Active; 'I' for Inactive)
    1  A    between atoms: O_6  and  C_8
    2  A    between atoms: O_6  and  C_21
    3  A    between atoms: C_9  and  C_21
                            x       y       z     vdW  Elec       q    Type
                         _______ _______ _______ _____ _____    ______ ____

>  <TORSDO>
F 3

$$$$
