=
 OpenBabel11052414063D

 34 39  0  0  1  0  0  0  0  0999 V2000
  185.0790  178.8400  143.3640 C   0  0  0  0  0  0  0  0  0  0  0  0
  186.8430  177.5130  144.4790 C   0  0  0  0  0  0  0  0  0  0  0  0
  186.9570  178.1260  141.9930 C   0  0  0  0  0  0  0  0  0  0  0  0
  188.6810  177.1200  140.5000 C   0  0  2  0  0  3  0  0  0  0  0  0
  185.3440  178.9780  145.8430 C   0  0  0  0  0  2  0  0  0  0  0  0
  186.2930  177.8760  145.7480 N   0  0  0  0  0  2  0  0  0  0  0  0
  189.3760  178.0170  142.6950 C   0  0  0  0  0  2  0  0  0  0  0  0
  186.3190  178.1730  143.2580 C   0  0  0  0  0  0  0  0  0  0  0  0
  190.4710  176.8340  140.4950 S   0  0  0  0  0  0  0  0  0  0  0  0
  184.3550  178.9160  144.6800 C   0  0  0  0  0  2  0  0  0  0  0  0
  186.2860  178.6270  140.8600 C   0  0  0  0  0  0  0  0  0  0  0  0
  184.4760  179.3400  142.2550 N   0  0  0  0  0  0  0  0  0  0  0  0
  187.6830  176.5770  144.4140 O   0  0  0  0  0  0  0  0  0  0  0  0
  188.3170  178.1630  139.4510 C   0  0  0  0  0  2  0  0  0  0  0  0
  186.8990  178.5010  139.5550 N   0  0  0  0  0  0  0  0  0  0  0  0
  190.6810  177.9370  141.9250 C   0  0  2  0  0  3  0  0  0  0  0  0
  188.2920  177.6170  141.8130 N   0  0  0  0  0  0  0  0  0  0  0  0
  185.0400  179.2410  141.0250 C   0  0  0  0  0  3  0  0  0  0  0  0
  187.1980  177.5400  136.3710 C   0  0  2  0  0  3  0  0  0  0  0  0
  185.8590  177.1180  135.7580 C   0  0  0  0  0  2  0  0  0  0  0  0
  186.1530  178.5950  138.3010 C   0  0  1  0  0  3  0  0  0  0  0  0
  184.6740  177.3740  136.6960 C   0  0  0  0  0  2  0  0  0  0  0  0
  187.0580  178.7710  137.1490 N   0  0  0  0  0  2  0  0  0  0  0  0
  185.1240  177.4640  138.1480 C   0  0  0  0  0  2  0  0  0  0  0  0
  188.2220  177.7400  135.2750 C   0  0  0  0  0  1  0  0  0  0  0  0
  191.8360  177.5040  142.8230 C   0  0  0  0  0  2  0  0  0  0  0  0
  191.4790  176.3380  143.6250 N   0  0  0  0  0  2  0  0  0  0  0  0
  192.8050  174.3040  145.0100 F   0  0  0  0  0  0  0  0  0  0  0  0
  191.5160  176.3200  145.0550 C   0  0  0  0  0  0  0  0  0  0  0  0
  192.1880  175.2830  145.7170 C   0  0  0  0  0  0  0  0  0  0  0  0
  191.5990  176.2550  147.8570 C   0  0  0  0  0  3  0  0  0  0  0  0
  190.9250  177.2890  147.2030 C   0  0  0  0  0  3  0  0  0  0  0  0
  190.8820  177.3220  145.8060 C   0  0  0  0  0  3  0  0  0  0  0  0
  192.2290  175.2530  147.1140 C   0  0  0  0  0  3  0  0  0  0  0  0
  1 10  1  0  0  0  0
  2  6  1  0  0  0  0
  3  8  2  0  0  0  0
  4 14  1  6  0  0  0
  4 17  1  0  0  0  0
  6  5  1  0  0  0  0
  8  1  1  0  0  0  0
  8  2  1  0  0  0  0
  9  4  1  0  0  0  0
  9 16  1  0  0  0  0
 10  5  1  0  0  0  0
 11 18  2  0  0  0  0
 11  3  1  0  0  0  0
 12  1  2  0  0  0  0
 13  2  2  0  0  0  0
 14 15  1  0  0  0  0
 15 11  1  0  0  0  0
 16  7  1  0  0  0  0
 16 26  1  1  0  0  0
 17  3  1  0  0  0  0
 17  7  1  0  0  0  0
 18 12  1  0  0  0  0
 19 25  1  6  0  0  0
 19 23  1  0  0  0  0
 20 19  1  0  0  0  0
 20 22  1  0  0  0  0
 21 24  1  6  0  0  0
 21 15  1  0  0  0  0
 22 24  1  0  0  0  0
 23 21  1  0  0  0  0
 26 27  1  0  0  0  0
 27 29  1  0  0  0  0
 28 30  1  0  0  0  0
 29 30  2  0  0  0  0
 29 33  1  0  0  0  0
 30 34  1  0  0  0  0
 32 31  1  0  0  0  0
 33 32  2  0  0  0  0
 34 31  2  0  0  0  0
M  END
>  <MODEL>
1

>  <REMARK>
 VINA RESULT:      -9.0      0.000      0.000
  Name = 
  4 active torsions:
  status: ('A' for Active; 'I' for Inactive)
    1  A    between atoms: N_3  and  C_13
    2  A    between atoms: N_3  and  C_17
    3  A    between atoms: C_12  and  N_28
    4  A    between atoms: C_17  and  C_29
                            x       y       z     vdW  Elec       q    Type
                         _______ _______ _______ _____ _____    ______ ____

>  <TORSDO>
F 4

$$$$
=
 OpenBabel11052414063D

 34 39  0  0  1  0  0  0  0  0999 V2000
  184.9450  178.8120  142.6840 C   0  0  0  0  0  0  0  0  0  0  0  0
  186.5970  177.5480  144.0210 C   0  0  0  0  0  0  0  0  0  0  0  0
  186.9620  178.0770  141.5400 C   0  0  0  0  0  0  0  0  0  0  0  0
  188.8410  177.0440  140.2700 C   0  0  2  0  0  3  0  0  0  0  0  0
  184.9500  179.0390  145.1710 C   0  0  0  0  0  2  0  0  0  0  0  0
  185.9150  177.9470  145.2130 N   0  0  0  0  0  2  0  0  0  0  0  0
  189.2960  178.0250  142.4910 C   0  0  0  0  0  2  0  0  0  0  0  0
  186.1950  178.1590  142.7300 C   0  0  0  0  0  0  0  0  0  0  0  0
  190.6250  176.7820  140.4590 S   0  0  0  0  0  0  0  0  0  0  0  0
  184.0880  178.9230  143.9150 C   0  0  0  0  0  2  0  0  0  0  0  0
  186.4060  178.5300  140.3270 C   0  0  0  0  0  0  0  0  0  0  0  0
  184.4550  179.2660  141.5020 N   0  0  0  0  0  0  0  0  0  0  0  0
  187.4490  176.6220  144.0760 O   0  0  0  0  0  0  0  0  0  0  0  0
  188.5760  178.0450  139.1520 C   0  0  0  0  0  2  0  0  0  0  0  0
  187.1520  178.3680  139.0980 N   0  0  0  0  0  0  0  0  0  0  0  0
  190.6740  177.9360  141.8630 C   0  0  2  0  0  3  0  0  0  0  0  0
  188.3130  177.5800  141.5160 N   0  0  0  0  0  0  0  0  0  0  0  0
  185.1440  179.1320  140.3410 C   0  0  0  0  0  3  0  0  0  0  0  0
  187.8040  177.3290  135.9910 C   0  0  2  0  0  3  0  0  0  0  0  0
  186.5460  176.8570  135.2550 C   0  0  0  0  0  2  0  0  0  0  0  0
  186.5390  178.4090  137.7700 C   0  0  1  0  0  3  0  0  0  0  0  0
  185.2640  177.1060  136.0580 C   0  0  0  0  0  2  0  0  0  0  0  0
  187.5550  178.5770  136.7140 N   0  0  0  0  0  2  0  0  0  0  0  0
  185.5580  177.2470  137.5450 C   0  0  0  0  0  2  0  0  0  0  0  0
  188.9310  177.5260  135.0020 C   0  0  0  0  0  1  0  0  0  0  0  0
  191.7340  177.5500  142.8900 C   0  0  0  0  0  2  0  0  0  0  0  0
  191.4510  178.1390  144.1950 N   0  0  0  0  0  2  0  0  0  0  0  0
  189.1660  178.5940  145.7380 F   0  0  0  0  0  0  0  0  0  0  0  0
  191.1870  177.3660  145.3700 C   0  0  0  0  0  0  0  0  0  0  0  0
  190.0320  177.6230  146.1220 C   0  0  0  0  0  0  0  0  0  0  0  0
  190.6460  175.8740  147.6810 C   0  0  0  0  0  3  0  0  0  0  0  0
  191.8000  175.6150  146.9380 C   0  0  0  0  0  3  0  0  0  0  0  0
  192.0710  176.3590  145.7870 C   0  0  0  0  0  3  0  0  0  0  0  0
  189.7640  176.8780  147.2740 C   0  0  0  0  0  3  0  0  0  0  0  0
  1  8  1  0  0  0  0
  1 10  1  0  0  0  0
  2 13  2  0  0  0  0
  2  6  1  0  0  0  0
  3  8  2  0  0  0  0
  4 14  1  6  0  0  0
  4  9  1  0  0  0  0
  4 17  1  0  0  0  0
  5  6  1  0  0  0  0
  8  2  1  0  0  0  0
  9 16  1  0  0  0  0
 10  5  1  0  0  0  0
 11 18  2  0  0  0  0
 11  3  1  0  0  0  0
 12  1  2  0  0  0  0
 15 14  1  0  0  0  0
 15 11  1  0  0  0  0
 16  7  1  0  0  0  0
 16 26  1  1  0  0  0
 17  3  1  0  0  0  0
 17  7  1  0  0  0  0
 18 12  1  0  0  0  0
 19 25  1  6  0  0  0
 19 23  1  0  0  0  0
 20 19  1  0  0  0  0
 20 22  1  0  0  0  0
 21 24  1  6  0  0  0
 21 15  1  0  0  0  0
 22 24  1  0  0  0  0
 23 21  1  0  0  0  0
 26 27  1  0  0  0  0
 27 29  1  0  0  0  0
 28 30  1  0  0  0  0
 29 33  2  0  0  0  0
 29 30  1  0  0  0  0
 30 34  2  0  0  0  0
 32 31  2  0  0  0  0
 33 32  1  0  0  0  0
 34 31  1  0  0  0  0
M  END
>  <MODEL>
2

>  <REMARK>
 VINA RESULT:      -9.0      1.215      1.462
  Name = 
  4 active torsions:
  status: ('A' for Active; 'I' for Inactive)
    1  A    between atoms: N_3  and  C_13
    2  A    between atoms: N_3  and  C_17
    3  A    between atoms: C_12  and  N_28
    4  A    between atoms: C_17  and  C_29
                            x       y       z     vdW  Elec       q    Type
                         _______ _______ _______ _____ _____    ______ ____

>  <TORSDO>
F 4

$$$$
=
 OpenBabel11052414063D

 34 39  0  0  1  0  0  0  0  0999 V2000
  187.7840  177.8980  138.5580 C   0  0  0  0  0  0  0  0  0  0  0  0
  188.9120  178.3780  140.7050 C   0  0  0  0  0  0  0  0  0  0  0  0
  186.3630  178.4570  140.4500 C   0  0  0  0  0  0  0  0  0  0  0  0
  184.9180  179.3600  142.2700 C   0  0  2  0  0  3  0  0  0  0  0  0
  190.0900  177.0280  138.9600 C   0  0  0  0  0  2  0  0  0  0  0  0
  190.1230  177.8360  140.1730 N   0  0  0  0  0  2  0  0  0  0  0  0
  186.7040  177.7530  142.8470 C   0  0  0  0  0  2  0  0  0  0  0  0
  187.6590  178.2310  139.9230 C   0  0  0  0  0  0  0  0  0  0  0  0
  184.7160  179.1720  144.0610 S   0  0  0  0  0  0  0  0  0  0  0  0
  189.1360  177.6530  137.9440 C   0  0  0  0  0  2  0  0  0  0  0  0
  185.2550  178.4710  139.5800 C   0  0  0  0  0  0  0  0  0  0  0  0
  186.6890  177.8890  137.7540 N   0  0  0  0  0  0  0  0  0  0  0  0
  188.9500  179.0510  141.7690 O   0  0  0  0  0  0  0  0  0  0  0  0
  183.7140  178.7700  141.5450 C   0  0  0  0  0  2  0  0  0  0  0  0
  183.9430  178.7870  140.1010 N   0  0  0  0  0  0  0  0  0  0  0  0
  185.7910  177.7060  144.0570 C   0  0  2  0  0  3  0  0  0  0  0  0
  186.1140  178.6400  141.8560 N   0  0  0  0  0  0  0  0  0  0  0  0
  185.4500  178.1720  138.2270 C   0  0  0  0  0  3  0  0  0  0  0  0
  180.7970  179.8500  140.4600 C   0  0  2  0  0  3  0  0  0  0  0  0
  180.4350  180.9540  139.4610 C   0  0  0  0  0  2  0  0  0  0  0  0
  182.8270  179.2310  139.2660 C   0  0  1  0  0  3  0  0  0  0  0  0
  181.5460  181.2120  138.4370 C   0  0  0  0  0  2  0  0  0  0  0  0
  181.5350  178.7680  139.8060 N   0  0  0  0  0  2  0  0  0  0  0  0
  182.8960  180.7340  138.9500 C   0  0  0  0  0  2  0  0  0  0  0  0
  179.5380  179.3020  141.0950 C   0  0  0  0  0  1  0  0  0  0  0  0
  186.5850  177.5700  145.3530 C   0  0  0  0  0  2  0  0  0  0  0  0
  187.8730  178.2500  145.2620 N   0  0  0  0  0  2  0  0  0  0  0  0
  188.4480  177.6240  147.9250 F   0  0  0  0  0  0  0  0  0  0  0  0
  189.1160  177.6420  145.6270 C   0  0  0  0  0  0  0  0  0  0  0  0
  189.3720  177.3450  146.9720 C   0  0  0  0  0  0  0  0  0  0  0  0
  191.5460  176.4570  146.3720 C   0  0  0  0  0  3  0  0  0  0  0  0
  191.2980  176.7550  145.0300 C   0  0  0  0  0  3  0  0  0  0  0  0
  190.0870  177.3470  144.6580 C   0  0  0  0  0  3  0  0  0  0  0  0
  190.5840  176.7530  147.3420 C   0  0  0  0  0  3  0  0  0  0  0  0
  1  8  1  0  0  0  0
  2 13  2  0  0  0  0
  3 17  1  0  0  0  0
  4 14  1  6  0  0  0
  4  9  1  0  0  0  0
  5  6  1  0  0  0  0
  6  2  1  0  0  0  0
  7 16  1  0  0  0  0
  8  3  2  0  0  0  0
  8  2  1  0  0  0  0
 10  1  1  0  0  0  0
 10  5  1  0  0  0  0
 11 15  1  0  0  0  0
 11  3  1  0  0  0  0
 12 18  1  0  0  0  0
 12  1  2  0  0  0  0
 15 14  1  0  0  0  0
 16  9  1  0  0  0  0
 16 26  1  1  0  0  0
 17  4  1  0  0  0  0
 17  7  1  0  0  0  0
 18 11  2  0  0  0  0
 19 25  1  6  0  0  0
 20 19  1  0  0  0  0
 21 24  1  1  0  0  0
 21 23  1  0  0  0  0
 21 15  1  0  0  0  0
 22 24  1  0  0  0  0
 22 20  1  0  0  0  0
 23 19  1  0  0  0  0
 27 26  1  0  0  0  0
 27 29  1  0  0  0  0
 29 30  1  0  0  0  0
 30 34  2  0  0  0  0
 30 28  1  0  0  0  0
 31 34  1  0  0  0  0
 32 31  2  0  0  0  0
 33 32  1  0  0  0  0
 33 29  2  0  0  0  0
M  END
>  <MODEL>
3

>  <REMARK>
 VINA RESULT:      -8.9      2.901      5.184
  Name = 
  4 active torsions:
  status: ('A' for Active; 'I' for Inactive)
    1  A    between atoms: N_3  and  C_13
    2  A    between atoms: N_3  and  C_17
    3  A    between atoms: C_12  and  N_28
    4  A    between atoms: C_17  and  C_29
                            x       y       z     vdW  Elec       q    Type
                         _______ _______ _______ _____ _____    ______ ____

>  <TORSDO>
F 4

$$$$
=
 OpenBabel11052414063D

 34 39  0  0  1  0  0  0  0  0999 V2000
  185.0520  178.2660  143.6440 C   0  0  0  0  0  0  0  0  0  0  0  0
  186.1230  178.9890  141.5360 C   0  0  0  0  0  0  0  0  0  0  0  0
  187.4520  177.9250  143.4510 C   0  0  0  0  0  0  0  0  0  0  0  0
  189.9440  177.8840  143.4180 C   0  0  2  0  0  3  0  0  0  0  0  0
  183.6700  178.5040  141.5780 C   0  0  0  0  0  2  0  0  0  0  0  0
  184.8300  179.1130  140.9390 N   0  0  0  0  0  2  0  0  0  0  0  0
  188.7100  177.2180  141.3840 C   0  0  0  0  0  2  0  0  0  0  0  0
  186.2330  178.3670  142.8790 C   0  0  0  0  0  0  0  0  0  0  0  0
  191.2780  177.4480  142.2710 S   0  0  0  0  0  0  0  0  0  0  0  0
  183.7310  178.7250  143.0890 C   0  0  0  0  0  2  0  0  0  0  0  0
  187.4760  177.5200  144.8010 C   0  0  0  0  0  0  0  0  0  0  0  0
  185.1070  177.8400  144.9320 N   0  0  0  0  0  0  0  0  0  0  0  0
  187.1210  179.4960  140.9600 O   0  0  0  0  0  0  0  0  0  0  0  0
  189.8990  176.8870  144.5690 C   0  0  0  0  0  2  0  0  0  0  0  0
  188.7340  177.1510  145.4120 N   0  0  0  0  0  0  0  0  0  0  0  0
  190.0930  176.6400  141.1550 C   0  0  2  0  0  3  0  0  0  0  0  0
  188.6770  177.8330  142.7010 N   0  0  0  0  0  0  0  0  0  0  0  0
  186.2760  177.4800  145.5190 C   0  0  0  0  0  3  0  0  0  0  0  0
  191.2740  176.9630  147.5730 C   0  0  2  0  0  3  0  0  0  0  0  0
  191.0450  177.8220  148.8210 C   0  0  0  0  0  2  0  0  0  0  0  0
  188.9510  177.1190  146.8580 C   0  0  1  0  0  3  0  0  0  0  0  0
  189.6470  178.4490  148.8580 C   0  0  0  0  0  2  0  0  0  0  0  0
  190.0650  176.2200  147.2150 N   0  0  0  0  0  2  0  0  0  0  0  0
  189.0370  178.5290  147.4660 C   0  0  0  0  0  2  0  0  0  0  0  0
  192.4140  175.9990  147.8170 C   0  0  0  0  0  1  0  0  0  0  0  0
  190.5110  176.7510  139.6910 C   0  0  0  0  0  2  0  0  0  0  0  0
  189.7890  177.8220  139.0110 N   0  0  0  0  0  2  0  0  0  0  0  0
  189.0790  179.8480  137.2210 F   0  0  0  0  0  0  0  0  0  0  0  0
  188.8240  177.5920  137.9800 C   0  0  0  0  0  0  0  0  0  0  0  0
  188.4890  178.6320  137.1020 C   0  0  0  0  0  0  0  0  0  0  0  0
  186.9290  177.1750  135.9550 C   0  0  0  0  0  3  0  0  0  0  0  0
  187.2560  176.1360  136.8290 C   0  0  0  0  0  3  0  0  0  0  0  0
  188.1990  176.3430  137.8400 C   0  0  0  0  0  3  0  0  0  0  0  0
  187.5450  178.4220  136.0920 C   0  0  0  0  0  3  0  0  0  0  0  0
  1 12  1  0  0  0  0
  2  8  1  0  0  0  0
  3 11  2  0  0  0  0
  4 14  1  1  0  0  0
  5 10  1  0  0  0  0
  6  2  1  0  0  0  0
  6  5  1  0  0  0  0
  7 17  1  0  0  0  0
  8  3  1  0  0  0  0
  8  1  2  0  0  0  0
  9  4  1  0  0  0  0
 10  1  1  0  0  0  0
 11 15  1  0  0  0  0
 11 18  1  0  0  0  0
 12 18  2  0  0  0  0
 13  2  2  0  0  0  0
 14 15  1  0  0  0  0
 16 26  1  6  0  0  0
 16  7  1  0  0  0  0
 16  9  1  0  0  0  0
 17  4  1  0  0  0  0
 17  3  1  0  0  0  0
 19 25  1  1  0  0  0
 19 20  1  0  0  0  0
 20 22  1  0  0  0  0
 21 15  1  6  0  0  0
 21 23  1  0  0  0  0
 21 24  1  0  0  0  0
 23 19  1  0  0  0  0
 24 22  1  0  0  0  0
 27 26  1  0  0  0  0
 29 27  1  0  0  0  0
 30 28  1  0  0  0  0
 30 29  2  0  0  0  0
 31 34  2  0  0  0  0
 31 32  1  0  0  0  0
 32 33  2  0  0  0  0
 33 29  1  0  0  0  0
 34 30  1  0  0  0  0
M  END
>  <MODEL>
4

>  <REMARK>
 VINA RESULT:      -8.7      2.556      7.744
  Name = 
  4 active torsions:
  status: ('A' for Active; 'I' for Inactive)
    1  A    between atoms: N_3  and  C_13
    2  A    between atoms: N_3  and  C_17
    3  A    between atoms: C_12  and  N_28
    4  A    between atoms: C_17  and  C_29
                            x       y       z     vdW  Elec       q    Type
                         _______ _______ _______ _____ _____    ______ ____

>  <TORSDO>
F 4

$$$$
=
 OpenBabel11052414063D

 34 39  0  0  1  0  0  0  0  0999 V2000
  186.1390  178.5300  140.1820 C   0  0  0  0  0  0  0  0  0  0  0  0
  186.4860  177.8780  142.5410 C   0  0  0  0  0  0  0  0  0  0  0  0
  188.3700  177.7910  140.8060 C   0  0  0  0  0  0  0  0  0  0  0  0
  190.5560  176.7160  141.3350 C   0  0  2  0  0  3  0  0  0  0  0  0
  184.5870  179.3900  141.9390 C   0  0  0  0  0  2  0  0  0  0  0  0
  185.2330  178.4790  142.8760 N   0  0  0  0  0  2  0  0  0  0  0  0
  189.5690  178.2870  142.9670 C   0  0  0  0  0  2  0  0  0  0  0  0
  187.0320  178.0780  141.1760 C   0  0  0  0  0  0  0  0  0  0  0  0
  191.7960  176.7430  142.6570 S   0  0  0  0  0  0  0  0  0  0  0  0
  184.7060  178.8440  140.5170 C   0  0  0  0  0  2  0  0  0  0  0  0
  188.7370  177.8400  139.4460 C   0  0  0  0  0  0  0  0  0  0  0  0
  186.5370  178.5970  138.8850 N   0  0  0  0  0  0  0  0  0  0  0  0
  187.0470  177.1150  143.3710 O   0  0  0  0  0  0  0  0  0  0  0  0
  191.1230  177.3520  140.0720 C   0  0  0  0  0  2  0  0  0  0  0  0
  190.0790  177.4640  139.0560 N   0  0  0  0  0  0  0  0  0  0  0  0
  191.0240  178.2170  143.3890 C   0  0  2  0  0  3  0  0  0  0  0  0
  189.3960  177.4830  141.7680 N   0  0  0  0  0  0  0  0  0  0  0  0
  187.7930  178.2580  138.5020 C   0  0  0  0  0  3  0  0  0  0  0  0
  192.1070  175.3090  137.5070 C   0  0  2  0  0  3  0  0  0  0  0  0
  191.4830  174.7300  136.2330 C   0  0  0  0  0  2  0  0  0  0  0  0
  190.4460  177.0810  137.6930 C   0  0  1  0  0  3  0  0  0  0  0  0
  190.1390  175.3810  135.8860 C   0  0  0  0  0  2  0  0  0  0  0  0
  191.8820  176.7530  137.5960 N   0  0  0  0  0  2  0  0  0  0  0  0
  189.4990  176.0210  137.1090 C   0  0  0  0  0  2  0  0  0  0  0  0
  193.5920  175.0200  137.5260 C   0  0  0  0  0  1  0  0  0  0  0  0
  191.1690  178.2490  144.9080 C   0  0  0  0  0  2  0  0  0  0  0  0
  190.2990  177.2660  145.5470 N   0  0  0  0  0  2  0  0  0  0  0  0
  190.9710  177.5030  148.2490 F   0  0  0  0  0  0  0  0  0  0  0  0
  189.3130  177.6030  146.5270 C   0  0  0  0  0  0  0  0  0  0  0  0
  189.6840  177.7100  147.8740 C   0  0  0  0  0  0  0  0  0  0  0  0
  187.4000  178.2530  148.4720 C   0  0  0  0  0  3  0  0  0  0  0  0
  187.0230  178.1440  147.1310 C   0  0  0  0  0  3  0  0  0  0  0  0
  187.9750  177.8190  146.1610 C   0  0  0  0  0  3  0  0  0  0  0  0
  188.7290  178.0350  148.8420 C   0  0  0  0  0  3  0  0  0  0  0  0
  1 10  1  0  0  0  0
  1  8  1  0  0  0  0
  2  6  1  0  0  0  0
  2 13  2  0  0  0  0
  3  8  2  0  0  0  0
  3 17  1  0  0  0  0
  4 14  1  6  0  0  0
  4 17  1  0  0  0  0
  4  9  1  0  0  0  0
  5  6  1  0  0  0  0
  7 16  1  0  0  0  0
  8  2  1  0  0  0  0
  9 16  1  0  0  0  0
 10  5  1  0  0  0  0
 11  3  1  0  0  0  0
 12  1  2  0  0  0  0
 15 11  1  0  0  0  0
 15 14  1  0  0  0  0
 16 26  1  1  0  0  0
 17  7  1  0  0  0  0
 18 12  1  0  0  0  0
 18 11  2  0  0  0  0
 19 25  1  6  0  0  0
 19 23  1  0  0  0  0
 20 19  1  0  0  0  0
 21 24  1  1  0  0  0
 21 15  1  0  0  0  0
 22 20  1  0  0  0  0
 22 24  1  0  0  0  0
 23 21  1  0  0  0  0
 26 27  1  0  0  0  0
 27 29  1  0  0  0  0
 29 30  1  0  0  0  0
 30 28  1  0  0  0  0
 30 34  2  0  0  0  0
 31 34  1  0  0  0  0
 32 31  2  0  0  0  0
 33 29  2  0  0  0  0
 33 32  1  0  0  0  0
M  END
>  <MODEL>
5

>  <REMARK>
 VINA RESULT:      -8.7      2.637      3.791
  Name = 
  4 active torsions:
  status: ('A' for Active; 'I' for Inactive)
    1  A    between atoms: N_3  and  C_13
    2  A    between atoms: N_3  and  C_17
    3  A    between atoms: C_12  and  N_28
    4  A    between atoms: C_17  and  C_29
                            x       y       z     vdW  Elec       q    Type
                         _______ _______ _______ _____ _____    ______ ____

>  <TORSDO>
F 4

$$$$
=
 OpenBabel11052414063D

 34 39  0  0  1  0  0  0  0  0999 V2000
  192.5750  174.9130  136.8250 C   0  0  0  0  0  0  0  0  0  0  0  0
  193.3310  176.3280  138.7070 C   0  0  0  0  0  0  0  0  0  0  0  0
  190.8790  176.2320  137.9650 C   0  0  0  0  0  0  0  0  0  0  0  0
  189.1960  177.8250  138.8830 C   0  0  2  0  0  3  0  0  0  0  0  0
  194.7070  174.3630  138.0020 C   0  0  0  0  0  2  0  0  0  0  0  0
  194.5780  175.6290  138.7120 N   0  0  0  0  0  2  0  0  0  0  0  0
  190.7380  176.6850  140.4410 C   0  0  0  0  0  2  0  0  0  0  0  0
  192.2310  175.8200  137.8490 C   0  0  0  0  0  0  0  0  0  0  0  0
  188.6660  178.4570  140.4970 S   0  0  0  0  0  0  0  0  0  0  0  0
  193.9950  174.4470  136.6530 C   0  0  0  0  0  2  0  0  0  0  0  0
  189.9480  175.8320  136.9860 C   0  0  0  0  0  0  0  0  0  0  0  0
  191.6430  174.5220  135.9180 N   0  0  0  0  0  0  0  0  0  0  0  0
  193.2230  177.4070  139.3470 O   0  0  0  0  0  0  0  0  0  0  0  0
  188.1050  176.9490  138.2810 C   0  0  0  0  0  2  0  0  0  0  0  0
  188.5880  176.3220  137.0530 N   0  0  0  0  0  0  0  0  0  0  0  0
  189.6220  177.1660  141.3490 C   0  0  2  0  0  3  0  0  0  0  0  0
  190.3960  177.0210  139.0680 N   0  0  0  0  0  0  0  0  0  0  0  0
  190.3610  174.9630  135.9710 C   0  0  0  0  0  3  0  0  0  0  0  0
  185.4030  175.5750  136.3840 C   0  0  2  0  0  3  0  0  0  0  0  0
  184.7750  176.5380  135.3710 C   0  0  0  0  0  2  0  0  0  0  0  0
  187.6720  176.3210  135.9130 C   0  0  1  0  0  3  0  0  0  0  0  0
  185.7920  177.5280  134.7900 C   0  0  0  0  0  2  0  0  0  0  0  0
  186.7470  175.1730  135.9680 N   0  0  0  0  0  2  0  0  0  0  0  0
  186.9980  177.6860  135.7050 C   0  0  0  0  0  2  0  0  0  0  0  0
  184.5260  174.3510  136.5360 C   0  0  0  0  0  1  0  0  0  0  0  0
  190.1610  177.6420  142.6950 C   0  0  0  0  0  2  0  0  0  0  0  0
  189.7190  176.7750  143.7820 N   0  0  0  0  0  2  0  0  0  0  0  0
  190.3010  176.8640  146.5140 F   0  0  0  0  0  0  0  0  0  0  0  0
  188.7230  177.1520  144.7380 C   0  0  0  0  0  0  0  0  0  0  0  0
  189.0490  177.1830  146.1010 C   0  0  0  0  0  0  0  0  0  0  0  0
  186.7900  177.8790  146.6360 C   0  0  0  0  0  3  0  0  0  0  0  0
  186.4580  177.8470  145.2790 C   0  0  0  0  0  3  0  0  0  0  0  0
  187.4210  177.4830  144.3330 C   0  0  0  0  0  3  0  0  0  0  0  0
  188.0840  177.5460  147.0460 C   0  0  0  0  0  3  0  0  0  0  0  0
  1  8  1  0  0  0  0
  2  6  1  0  0  0  0
  2 13  2  0  0  0  0
  3 17  1  0  0  0  0
  4 14  1  1  0  0  0
  4 17  1  0  0  0  0
  4  9  1  0  0  0  0
  5  6  1  0  0  0  0
  7 16  1  0  0  0  0
  8  3  2  0  0  0  0
  8  2  1  0  0  0  0
  9 16  1  0  0  0  0
 10  1  1  0  0  0  0
 10  5  1  0  0  0  0
 11 15  1  0  0  0  0
 11  3  1  0  0  0  0
 12 18  1  0  0  0  0
 12  1  2  0  0  0  0
 15 14  1  0  0  0  0
 16 26  1  1  0  0  0
 17  7  1  0  0  0  0
 18 11  2  0  0  0  0
 19 25  1  6  0  0  0
 20 19  1  0  0  0  0
 21 24  1  1  0  0  0
 21 23  1  0  0  0  0
 21 15  1  0  0  0  0
 22 20  1  0  0  0  0
 22 24  1  0  0  0  0
 23 19  1  0  0  0  0
 26 27  1  0  0  0  0
 27 29  1  0  0  0  0
 29 30  1  0  0  0  0
 30 28  1  0  0  0  0
 30 34  2  0  0  0  0
 31 34  1  0  0  0  0
 32 31  2  0  0  0  0
 33 29  2  0  0  0  0
 33 32  1  0  0  0  0
M  END
>  <MODEL>
6

>  <REMARK>
 VINA RESULT:      -8.6      3.564      6.196
  Name = 
  4 active torsions:
  status: ('A' for Active; 'I' for Inactive)
    1  A    between atoms: N_3  and  C_13
    2  A    between atoms: N_3  and  C_17
    3  A    between atoms: C_12  and  N_28
    4  A    between atoms: C_17  and  C_29
                            x       y       z     vdW  Elec       q    Type
                         _______ _______ _______ _____ _____    ______ ____

>  <TORSDO>
F 4

$$$$
=
 OpenBabel11052414063D

 34 39  0  0  1  0  0  0  0  0999 V2000
  185.7950  178.5920  140.5720 C   0  0  0  0  0  0  0  0  0  0  0  0
  186.3950  177.8570  142.8550 C   0  0  0  0  0  0  0  0  0  0  0  0
  188.0820  177.8450  140.9260 C   0  0  0  0  0  0  0  0  0  0  0  0
  190.3150  176.7650  141.1790 C   0  0  2  0  0  3  0  0  0  0  0  0
  184.4390  179.3780  142.5150 C   0  0  0  0  0  2  0  0  0  0  0  0
  185.1840  178.4380  143.3440 N   0  0  0  0  0  2  0  0  0  0  0  0
  189.5050  178.2700  142.9630 C   0  0  0  0  0  2  0  0  0  0  0  0
  186.7910  178.1090  141.4470 C   0  0  0  0  0  0  0  0  0  0  0  0
  191.6900  176.7530  142.3600 S   0  0  0  0  0  0  0  0  0  0  0  0
  184.4060  178.8840  141.0700 C   0  0  0  0  0  2  0  0  0  0  0  0
  188.3020  177.9450  139.5370 C   0  0  0  0  0  0  0  0  0  0  0  0
  186.0520  178.7070  139.2430 N   0  0  0  0  0  0  0  0  0  0  0  0
  187.0440  177.0690  143.5910 O   0  0  0  0  0  0  0  0  0  0  0  0
  190.7420  177.4490  139.8860 C   0  0  0  0  0  2  0  0  0  0  0  0
  189.5950  177.5910  138.9930 N   0  0  0  0  0  0  0  0  0  0  0  0
  190.9980  178.1950  143.2240 C   0  0  2  0  0  3  0  0  0  0  0  0
  189.2060  177.5090  141.7610 N   0  0  0  0  0  0  0  0  0  0  0  0
  187.2610  178.3900  138.7160 C   0  0  0  0  0  3  0  0  0  0  0  0
  188.2670  175.6410  136.6280 C   0  0  2  0  0  3  0  0  0  0  0  0
  188.2810  176.3030  135.2470 C   0  0  0  0  0  2  0  0  0  0  0  0
  189.8150  177.2600  137.5850 C   0  0  1  0  0  3  0  0  0  0  0  0
  189.0310  177.6400  135.2410 C   0  0  0  0  0  2  0  0  0  0  0  0
  189.5430  175.8340  137.3200 N   0  0  0  0  0  2  0  0  0  0  0  0
  189.1060  178.2410  136.6380 C   0  0  0  0  0  2  0  0  0  0  0  0
  187.9820  174.1620  136.4840 C   0  0  0  0  0  1  0  0  0  0  0  0
  191.3040  178.1730  144.7180 C   0  0  0  0  0  2  0  0  0  0  0  0
  190.4900  177.1820  145.4150 N   0  0  0  0  0  2  0  0  0  0  0  0
  191.3050  177.3100  148.0850 F   0  0  0  0  0  0  0  0  0  0  0  0
  189.5640  177.5110  146.4560 C   0  0  0  0  0  0  0  0  0  0  0  0
  190.0070  177.5630  147.7850 C   0  0  0  0  0  0  0  0  0  0  0  0
  187.7720  178.1440  148.5170 C   0  0  0  0  0  3  0  0  0  0  0  0
  187.3230  178.0910  147.1960 C   0  0  0  0  0  3  0  0  0  0  0  0
  188.2160  177.7740  146.1670 C   0  0  0  0  0  3  0  0  0  0  0  0
  189.1120  177.8800  148.8110 C   0  0  0  0  0  3  0  0  0  0  0  0
  1 10  1  0  0  0  0
  1  8  1  0  0  0  0
  2  6  1  0  0  0  0
  2 13  2  0  0  0  0
  3  8  2  0  0  0  0
  3 17  1  0  0  0  0
  4 14  1  6  0  0  0
  4 17  1  0  0  0  0
  4  9  1  0  0  0  0
  5  6  1  0  0  0  0
  7 16  1  0  0  0  0
  8  2  1  0  0  0  0
  9 16  1  0  0  0  0
 10  5  1  0  0  0  0
 11  3  1  0  0  0  0
 12  1  2  0  0  0  0
 15 11  1  0  0  0  0
 15 14  1  0  0  0  0
 16 26  1  1  0  0  0
 17  7  1  0  0  0  0
 18 12  1  0  0  0  0
 18 11  2  0  0  0  0
 19 25  1  6  0  0  0
 19 23  1  0  0  0  0
 20 19  1  0  0  0  0
 21 24  1  6  0  0  0
 21 15  1  0  0  0  0
 22 20  1  0  0  0  0
 22 24  1  0  0  0  0
 23 21  1  0  0  0  0
 26 27  1  0  0  0  0
 27 29  1  0  0  0  0
 29 30  1  0  0  0  0
 30 28  1  0  0  0  0
 30 34  2  0  0  0  0
 31 34  1  0  0  0  0
 32 31  2  0  0  0  0
 33 29  2  0  0  0  0
 33 32  1  0  0  0  0
M  END
>  <MODEL>
7

>  <REMARK>
 VINA RESULT:      -8.5      2.009      3.036
  Name = 
  4 active torsions:
  status: ('A' for Active; 'I' for Inactive)
    1  A    between atoms: N_3  and  C_13
    2  A    between atoms: N_3  and  C_17
    3  A    between atoms: C_12  and  N_28
    4  A    between atoms: C_17  and  C_29
                            x       y       z     vdW  Elec       q    Type
                         _______ _______ _______ _____ _____    ______ ____

>  <TORSDO>
F 4

$$$$
=
 OpenBabel11052414063D

 34 39  0  0  1  0  0  0  0  0999 V2000
  185.1410  178.2280  143.3750 C   0  0  0  0  0  0  0  0  0  0  0  0
  186.2760  179.0200  141.3260 C   0  0  0  0  0  0  0  0  0  0  0  0
  187.5470  177.8970  143.2470 C   0  0  0  0  0  0  0  0  0  0  0  0
  190.0390  177.8600  143.2910 C   0  0  2  0  0  3  0  0  0  0  0  0
  183.8240  178.5310  141.2750 C   0  0  0  0  0  2  0  0  0  0  0  0
  185.0020  179.1620  140.6930 N   0  0  0  0  0  2  0  0  0  0  0  0
  188.8700  177.2570  141.1990 C   0  0  0  0  0  2  0  0  0  0  0  0
  186.3450  178.3560  142.6510 C   0  0  0  0  0  0  0  0  0  0  0  0
  191.4100  177.4620  142.1740 S   0  0  0  0  0  0  0  0  0  0  0  0
  183.8370  178.7040  142.7930 C   0  0  0  0  0  2  0  0  0  0  0  0
  187.5290  177.4490  144.5830 C   0  0  0  0  0  0  0  0  0  0  0  0
  185.1570  177.7620  144.6500 N   0  0  0  0  0  0  0  0  0  0  0  0
  187.2910  179.5460  140.7980 O   0  0  0  0  0  0  0  0  0  0  0  0
  189.9590  176.8270  144.4080 C   0  0  0  0  0  2  0  0  0  0  0  0
  188.7680  177.0620  145.2220 N   0  0  0  0  0  0  0  0  0  0  0  0
  190.2620  176.6880  140.9950 C   0  0  2  0  0  3  0  0  0  0  0  0
  188.7950  177.8300  142.5340 N   0  0  0  0  0  0  0  0  0  0  0  0
  186.3070  177.3840  145.2620 C   0  0  0  0  0  3  0  0  0  0  0  0
  191.2410  176.8640  147.4580 C   0  0  2  0  0  3  0  0  0  0  0  0
  190.9500  177.6710  148.7270 C   0  0  0  0  0  2  0  0  0  0  0  0
  188.9390  176.9850  146.6730 C   0  0  1  0  0  3  0  0  0  0  0  0
  189.5350  178.2600  148.7390 C   0  0  0  0  0  2  0  0  0  0  0  0
  190.0650  176.1030  147.0340 N   0  0  0  0  0  2  0  0  0  0  0  0
  188.9670  178.3730  147.3320 C   0  0  0  0  0  2  0  0  0  0  0  0
  192.4000  175.9220  147.7060 C   0  0  0  0  0  1  0  0  0  0  0  0
  190.7250  176.8470  139.5500 C   0  0  0  0  0  2  0  0  0  0  0  0
  190.6830  175.5760  138.8340 N   0  0  0  0  0  2  0  0  0  0  0  0
  190.2820  173.3410  137.2040 F   0  0  0  0  0  0  0  0  0  0  0  0
  191.6640  175.1770  137.8730 C   0  0  0  0  0  0  0  0  0  0  0  0
  191.4320  174.0490  137.0740 C   0  0  0  0  0  0  0  0  0  0  0  0
  193.5730  174.3660  135.9850 C   0  0  0  0  0  3  0  0  0  0  0  0
  193.8120  175.4890  136.7810 C   0  0  0  0  0  3  0  0  0  0  0  0
  192.8620  175.8930  137.7230 C   0  0  0  0  0  3  0  0  0  0  0  0
  192.3840  173.6470  136.1320 C   0  0  0  0  0  3  0  0  0  0  0  0
  1 12  1  0  0  0  0
  2  8  1  0  0  0  0
  3 11  2  0  0  0  0
  4 14  1  1  0  0  0
  5 10  1  0  0  0  0
  6  5  1  0  0  0  0
  6  2  1  0  0  0  0
  7 17  1  0  0  0  0
  8  3  1  0  0  0  0
  8  1  2  0  0  0  0
  9  4  1  0  0  0  0
 10  1  1  0  0  0  0
 11 15  1  0  0  0  0
 11 18  1  0  0  0  0
 12 18  2  0  0  0  0
 13  2  2  0  0  0  0
 14 15  1  0  0  0  0
 16 26  1  6  0  0  0
 16  7  1  0  0  0  0
 16  9  1  0  0  0  0
 17  3  1  0  0  0  0
 17  4  1  0  0  0  0
 19 25  1  1  0  0  0
 19 20  1  0  0  0  0
 20 22  1  0  0  0  0
 21 15  1  6  0  0  0
 21 23  1  0  0  0  0
 21 24  1  0  0  0  0
 23 19  1  0  0  0  0
 24 22  1  0  0  0  0
 27 26  1  0  0  0  0
 29 27  1  0  0  0  0
 30 28  1  0  0  0  0
 30 29  2  0  0  0  0
 31 34  2  0  0  0  0
 31 32  1  0  0  0  0
 32 33  2  0  0  0  0
 33 29  1  0  0  0  0
 34 30  1  0  0  0  0
M  END
>  <MODEL>
8

>  <REMARK>
 VINA RESULT:      -8.4      3.279      7.476
  Name = 
  4 active torsions:
  status: ('A' for Active; 'I' for Inactive)
    1  A    between atoms: N_3  and  C_13
    2  A    between atoms: N_3  and  C_17
    3  A    between atoms: C_12  and  N_28
    4  A    between atoms: C_17  and  C_29
                            x       y       z     vdW  Elec       q    Type
                         _______ _______ _______ _____ _____    ______ ____

>  <TORSDO>
F 4

$$$$
=
 OpenBabel11052414063D

 34 39  0  0  1  0  0  0  0  0999 V2000
  186.6500  177.5350  136.0670 C   0  0  0  0  0  0  0  0  0  0  0  0
  188.4250  178.5370  137.4680 C   0  0  0  0  0  0  0  0  0  0  0  0
  186.0480  178.1460  138.3430 C   0  0  0  0  0  0  0  0  0  0  0  0
  185.3190  179.0760  140.5380 C   0  0  2  0  0  3  0  0  0  0  0  0
  189.0460  177.1390  135.4890 C   0  0  0  0  0  2  0  0  0  0  0  0
  189.3960  178.1250  136.5030 N   0  0  0  0  0  2  0  0  0  0  0  0
  187.4900  177.9040  140.3970 C   0  0  0  0  0  2  0  0  0  0  0  0
  187.0270  178.0580  137.3220 C   0  0  0  0  0  0  0  0  0  0  0  0
  185.9190  179.1490  142.2470 S   0  0  0  0  0  0  0  0  0  0  0  0
  187.6470  177.4240  134.9460 C   0  0  0  0  0  2  0  0  0  0  0  0
  184.7070  177.8350  138.0430 C   0  0  0  0  0  0  0  0  0  0  0  0
  185.3530  177.2140  135.8240 N   0  0  0  0  0  0  0  0  0  0  0  0
  188.7480  179.3690  138.3560 O   0  0  0  0  0  0  0  0  0  0  0  0
  184.0860  178.1850  140.4550 C   0  0  0  0  0  2  0  0  0  0  0  0
  183.6910  178.0070  139.0590 N   0  0  0  0  0  0  0  0  0  0  0  0
  187.1900  177.9010  141.8840 C   0  0  2  0  0  3  0  0  0  0  0  0
  186.3660  178.5090  139.6990 N   0  0  0  0  0  0  0  0  0  0  0  0
  184.3890  177.3590  136.7670 C   0  0  0  0  0  3  0  0  0  0  0  0
  180.8220  176.5200  139.9020 C   0  0  2  0  0  3  0  0  0  0  0  0
  179.6620  177.5130  140.0290 C   0  0  0  0  0  2  0  0  0  0  0  0
  182.2630  178.1180  138.7620 C   0  0  1  0  0  3  0  0  0  0  0  0
  180.0510  178.9310  139.5980 C   0  0  0  0  0  2  0  0  0  0  0  0
  181.6210  176.7910  138.7070 N   0  0  0  0  0  2  0  0  0  0  0  0
  181.5570  179.1410  139.6670 C   0  0  0  0  0  2  0  0  0  0  0  0
  180.2820  175.1070  139.8490 C   0  0  0  0  0  1  0  0  0  0  0  0
  188.4550  178.1100  142.7110 C   0  0  0  0  0  2  0  0  0  0  0  0
  188.5830  177.0970  143.7540 N   0  0  0  0  0  2  0  0  0  0  0  0
  190.6100  176.7470  145.6470 F   0  0  0  0  0  0  0  0  0  0  0  0
  188.3520  177.3590  145.1420 C   0  0  0  0  0  0  0  0  0  0  0  0
  189.3900  177.1690  146.0640 C   0  0  0  0  0  0  0  0  0  0  0  0
  187.9260  177.8550  147.8690 C   0  0  0  0  0  3  0  0  0  0  0  0
  186.8870  178.0420  146.9550 C   0  0  0  0  0  3  0  0  0  0  0  0
  187.0970  177.7940  145.5960 C   0  0  0  0  0  3  0  0  0  0  0  0
  189.1770  177.4180  147.4230 C   0  0  0  0  0  3  0  0  0  0  0  0
  1  8  1  0  0  0  0
  2 13  2  0  0  0  0
  3 17  1  0  0  0  0
  4 14  1  1  0  0  0
  4  9  1  0  0  0  0
  5  6  1  0  0  0  0
  6  2  1  0  0  0  0
  7 16  1  0  0  0  0
  8  2  1  0  0  0  0
  8  3  2  0  0  0  0
 10  5  1  0  0  0  0
 10  1  1  0  0  0  0
 11  3  1  0  0  0  0
 11 15  1  0  0  0  0
 12  1  2  0  0  0  0
 12 18  1  0  0  0  0
 15 14  1  0  0  0  0
 16  9  1  0  0  0  0
 16 26  1  1  0  0  0
 17  7  1  0  0  0  0
 17  4  1  0  0  0  0
 18 11  2  0  0  0  0
 19 25  1  6  0  0  0
 19 20  1  0  0  0  0
 21 15  1  1  0  0  0
 21 24  1  0  0  0  0
 22 24  1  0  0  0  0
 22 20  1  0  0  0  0
 23 21  1  0  0  0  0
 23 19  1  0  0  0  0
 26 27  1  0  0  0  0
 27 29  1  0  0  0  0
 28 30  1  0  0  0  0
 29 33  2  0  0  0  0
 29 30  1  0  0  0  0
 30 34  2  0  0  0  0
 32 31  2  0  0  0  0
 33 32  1  0  0  0  0
 34 31  1  0  0  0  0
M  END
>  <MODEL>
9

>  <REMARK>
 VINA RESULT:      -8.3      3.047      5.781
  Name = 
  4 active torsions:
  status: ('A' for Active; 'I' for Inactive)
    1  A    between atoms: N_3  and  C_13
    2  A    between atoms: N_3  and  C_17
    3  A    between atoms: C_12  and  N_28
    4  A    between atoms: C_17  and  C_29
                            x       y       z     vdW  Elec       q    Type
                         _______ _______ _______ _____ _____    ______ ____

>  <TORSDO>
F 4

$$$$
