=
 OpenBabel11052412373D

 30 31  0  0  1  0  0  0  0  0999 V2000
  191.6210  177.0400  140.2830 C   0  0  2  0  0  0  0  0  0  0  0  0
  188.4550  176.8610  138.4560 C   0  0  0  0  0  2  0  0  0  0  0  0
  188.9400  178.1400  139.0500 C   0  0  0  0  0  0  0  0  0  0  0  0
  190.8870  175.9250  139.6910 N   0  0  0  0  0  2  0  0  0  0  0  0
  193.0450  177.2690  139.8160 C   0  0  0  0  0  1  0  0  0  0  0  0
  189.4930  176.2460  137.6990 O   0  0  0  0  0  0  0  0  0  0  0  0
  190.6860  175.8160  138.2820 C   0  0  0  0  0  0  0  0  0  0  0  0
  191.3840  177.3300  141.7630 C   0  0  1  0  0  3  0  0  0  0  0  0
  189.3900  178.1640  140.4060 N   0  0  0  0  0  0  0  0  0  0  0  0
  189.0250  179.1710  138.3350 O   0  0  0  0  0  0  0  0  0  0  0  0
  191.5880  175.3250  137.5570 O   0  0  0  0  0  0  0  0  0  0  0  0
  190.8300  178.2920  140.6760 C   0  0  2  0  0  3  0  0  0  0  0  0
  190.3600  176.5030  142.5190 C   0  0  0  0  0  0  0  0  0  0  0  0
  189.7930  175.5410  142.0210 O   0  0  0  0  0  0  0  0  0  0  0  0
  190.0890  176.8700  143.9500 C   0  0  1  0  0  3  0  0  0  0  0  0
  188.6210  176.6800  144.3400 C   0  0  0  0  0  2  0  0  0  0  0  0
  188.0460  177.9110  145.0200 C   0  0  0  0  0  2  0  0  0  0  0  0
  185.6610  178.5120  145.2290 C   0  0  0  0  0  1  0  0  0  0  0  0
  186.7360  177.5510  145.6930 C   0  0  0  0  0  2  0  0  0  0  0  0
  190.9390  176.1700  144.8110 O   0  0  0  0  0  0  0  0  0  0  0  0
  191.5200  177.1530  145.6140 C   0  0  0  0  0  2  0  0  0  0  0  0
  190.1920  177.0620  147.7210 O   0  0  0  0  0  1  0  0  0  0  0  0
  192.3350  176.2410  147.6560 O   0  0  0  0  0  0  0  0  0  0  0  0
  191.3770  176.7820  147.0480 C   0  0  0  0  0  0  0  0  0  0  0  0
  188.4130  178.5300  141.4310 C   0  0  0  0  0  2  0  0  0  0  0  0
  186.0160  179.0580  141.5820 C   0  0  0  0  0  3  0  0  0  0  0  0
  187.0250  178.5620  140.8760 C   0  0  0  0  0  3  0  0  0  0  0  0
  184.6480  179.1040  141.0540 C   0  0  0  0  0  0  0  0  0  0  0  0
  184.3940  179.6720  139.9570 O   0  0  0  0  0  0  0  0  0  0  0  0
  183.5460  178.4750  141.8270 C   0  0  0  0  0  1  0  0  0  0  0  0
  1  5  1  6  0  0  0
  1 12  1  0  0  0  0
  1  8  1  0  0  0  0
  2  3  1  0  0  0  0
  3  9  1  0  0  0  0
  4  1  1  0  0  0  0
  6  7  1  0  0  0  0
  6  2  1  0  0  0  0
  7  4  1  0  0  0  0
  8 13  1  6  0  0  0
  9 25  1  0  0  0  0
 10  3  2  0  0  0  0
 11  7  2  0  0  0  0
 12  9  1  6  0  0  0
 12  8  1  0  0  0  0
 13 15  1  0  0  0  0
 14 13  2  0  0  0  0
 15 16  1  1  0  0  0
 15 20  1  0  0  0  0
 16 17  1  0  0  0  0
 17 19  1  0  0  0  0
 18 19  1  0  0  0  0
 20 21  1  0  0  0  0
 21 24  1  0  0  0  0
 24 23  2  0  0  0  0
 24 22  1  0  0  0  0
 27 25  1  0  0  0  0
 27 26  2  0  0  0  0
 28 26  1  0  0  0  0
 28 30  1  0  0  0  0
 29 28  2  0  0  0  0
M  END
>  <MODEL>
1

>  <REMARK>
 VINA RESULT:      -6.6      0.000      0.000
  Name = 
  11 active torsions:
  status: ('A' for Active; 'I' for Inactive)
    1  A    between atoms: C_1  and  C_4
    2  A    between atoms: C_1  and  C_22
    3  A    between atoms: C_4  and  C_9
    4  A    between atoms: C_4  and  O_12
    5  A    between atoms: C_7  and  N_23
    6  A    between atoms: C_7  and  C_25
    7  A    between atoms: C_8  and  O_12
    8  A    between atoms: C_8  and  C_30
    9  A    between atoms: C_9  and  C_21
   10  A    between atoms: C_10  and  C_15
   11  A    between atoms: C_17  and  C_21
                            x       y       z     vdW  Elec       q    Type
                         _______ _______ _______ _____ _____    ______ ____

>  <TORSDO>
F 11

$$$$
=
 OpenBabel11052412373D

 30 31  0  0  1  0  0  0  0  0999 V2000
  190.8310  177.2850  141.3670 C   0  0  2  0  0  0  0  0  0  0  0  0
  188.2610  177.0050  138.7750 C   0  0  0  0  0  2  0  0  0  0  0  0
  188.5280  178.2960  139.4720 C   0  0  0  0  0  0  0  0  0  0  0  0
  190.3190  176.1480  140.6060 N   0  0  0  0  0  2  0  0  0  0  0  0
  192.3180  177.5670  141.2880 C   0  0  0  0  0  1  0  0  0  0  0  0
  189.4830  176.4330  138.3180 O   0  0  0  0  0  0  0  0  0  0  0  0
  190.4970  176.0420  139.1940 C   0  0  0  0  0  0  0  0  0  0  0  0
  190.2050  177.5550  142.7320 C   0  0  1  0  0  3  0  0  0  0  0  0
  188.6060  178.3270  140.8990 N   0  0  0  0  0  0  0  0  0  0  0  0
  188.7590  179.3350  138.8020 O   0  0  0  0  0  0  0  0  0  0  0  0
  191.5740  175.5880  138.7310 O   0  0  0  0  0  0  0  0  0  0  0  0
  189.9200  178.5040  141.5350 C   0  0  2  0  0  3  0  0  0  0  0  0
  189.0490  176.6870  143.1960 C   0  0  0  0  0  0  0  0  0  0  0  0
  188.6160  175.7570  142.5310 O   0  0  0  0  0  0  0  0  0  0  0  0
  188.4660  176.9700  144.5510 C   0  0  1  0  0  3  0  0  0  0  0  0
  189.3810  177.8400  145.4160 C   0  0  0  0  0  2  0  0  0  0  0  0
  190.0830  177.0340  146.4970 C   0  0  0  0  0  2  0  0  0  0  0  0
  192.1290  175.7760  147.0630 C   0  0  0  0  0  1  0  0  0  0  0  0
  191.4810  176.6790  146.0340 C   0  0  0  0  0  2  0  0  0  0  0  0
  187.1910  177.5310  144.4350 O   0  0  0  0  0  0  0  0  0  0  0  0
  186.7090  177.5930  145.7430 C   0  0  0  0  0  2  0  0  0  0  0  0
  185.6220  179.3980  147.0740 O   0  0  0  0  0  1  0  0  0  0  0  0
  184.9970  179.0140  144.8980 O   0  0  0  0  0  0  0  0  0  0  0  0
  185.7350  178.7110  145.8700 C   0  0  0  0  0  0  0  0  0  0  0  0
  187.3820  178.6510  141.6310 C   0  0  0  0  0  2  0  0  0  0  0  0
  184.9990  179.0540  141.1740 C   0  0  0  0  0  3  0  0  0  0  0  0
  186.1990  178.7130  140.7180 C   0  0  0  0  0  3  0  0  0  0  0  0
  183.8280  179.1270  140.2940 C   0  0  0  0  0  0  0  0  0  0  0  0
  183.7920  179.9350  139.3270 O   0  0  0  0  0  0  0  0  0  0  0  0
  182.6650  178.2380  140.5520 C   0  0  0  0  0  1  0  0  0  0  0  0
  1  5  1  6  0  0  0
  1 12  1  0  0  0  0
  1  8  1  0  0  0  0
  2  3  1  0  0  0  0
  3  9  1  0  0  0  0
  4  1  1  0  0  0  0
  6  2  1  0  0  0  0
  6  7  1  0  0  0  0
  7  4  1  0  0  0  0
  8 13  1  6  0  0  0
  9 25  1  0  0  0  0
 10  3  2  0  0  0  0
 11  7  2  0  0  0  0
 12  9  1  6  0  0  0
 12  8  1  0  0  0  0
 13 15  1  0  0  0  0
 14 13  2  0  0  0  0
 15 16  1  6  0  0  0
 16 17  1  0  0  0  0
 19 17  1  0  0  0  0
 19 18  1  0  0  0  0
 20 15  1  0  0  0  0
 20 21  1  0  0  0  0
 21 24  1  0  0  0  0
 23 24  2  0  0  0  0
 24 22  1  0  0  0  0
 27 26  2  0  0  0  0
 27 25  1  0  0  0  0
 28 30  1  0  0  0  0
 28 26  1  0  0  0  0
 29 28  2  0  0  0  0
M  END
>  <MODEL>
2

>  <REMARK>
 VINA RESULT:      -6.6      1.785      3.095
  Name = 
  11 active torsions:
  status: ('A' for Active; 'I' for Inactive)
    1  A    between atoms: C_1  and  C_4
    2  A    between atoms: C_1  and  C_22
    3  A    between atoms: C_4  and  C_9
    4  A    between atoms: C_4  and  O_12
    5  A    between atoms: C_7  and  N_23
    6  A    between atoms: C_7  and  C_25
    7  A    between atoms: C_8  and  O_12
    8  A    between atoms: C_8  and  C_30
    9  A    between atoms: C_9  and  C_21
   10  A    between atoms: C_10  and  C_15
   11  A    between atoms: C_17  and  C_21
                            x       y       z     vdW  Elec       q    Type
                         _______ _______ _______ _____ _____    ______ ____

>  <TORSDO>
F 11

$$$$
=
 OpenBabel11052412373D

 30 31  0  0  1  0  0  0  0  0999 V2000
  190.6540  177.3670  141.7470 C   0  0  2  0  0  0  0  0  0  0  0  0
  188.4030  177.0630  138.8770 C   0  0  0  0  0  2  0  0  0  0  0  0
  188.5410  178.3450  139.6280 C   0  0  0  0  0  0  0  0  0  0  0  0
  190.2730  176.2330  140.9100 N   0  0  0  0  0  2  0  0  0  0  0  0
  192.1290  177.7040  141.8430 C   0  0  0  0  0  1  0  0  0  0  0  0
  189.6880  176.5460  138.5480 O   0  0  0  0  0  0  0  0  0  0  0  0
  190.6130  176.1690  139.5240 C   0  0  0  0  0  0  0  0  0  0  0  0
  189.8690  177.5810  143.0390 C   0  0  1  0  0  3  0  0  0  0  0  0
  188.4570  178.3420  141.0540 N   0  0  0  0  0  0  0  0  0  0  0  0
  188.8060  179.4080  139.0100 O   0  0  0  0  0  0  0  0  0  0  0  0
  191.7510  175.7660  139.1760 O   0  0  0  0  0  0  0  0  0  0  0  0
  189.6840  178.5490  141.8380 C   0  0  2  0  0  3  0  0  0  0  0  0
  188.7030  176.6600  143.3510 C   0  0  0  0  0  0  0  0  0  0  0  0
  188.3430  175.7730  142.5910 O   0  0  0  0  0  0  0  0  0  0  0  0
  188.0130  176.8350  144.6740 C   0  0  1  0  0  3  0  0  0  0  0  0
  188.7200  177.8480  145.5780 C   0  0  0  0  0  2  0  0  0  0  0  0
  189.4530  177.1750  146.7260 C   0  0  0  0  0  2  0  0  0  0  0  0
  188.0390  177.7230  148.6730 C   0  0  0  0  0  1  0  0  0  0  0  0
  189.3430  178.0350  147.9690 C   0  0  0  0  0  2  0  0  0  0  0  0
  186.6670  177.1670  144.4910 O   0  0  0  0  0  0  0  0  0  0  0  0
  186.4590  178.2730  145.3180 C   0  0  0  0  0  2  0  0  0  0  0  0
  184.2370  178.5120  144.2150 O   0  0  0  0  0  0  0  0  0  0  0  0
  184.4860  178.9730  146.4510 O   0  0  0  0  0  1  0  0  0  0  0  0
  185.0080  178.5970  145.3700 C   0  0  0  0  0  0  0  0  0  0  0  0
  187.1480  178.6040  141.6510 C   0  0  0  0  0  2  0  0  0  0  0  0
  184.8770  179.1650  140.8910 C   0  0  0  0  0  3  0  0  0  0  0  0
  186.0760  178.6680  140.6100 C   0  0  0  0  0  3  0  0  0  0  0  0
  183.8150  179.2430  139.8830 C   0  0  0  0  0  0  0  0  0  0  0  0
  183.7570  180.2080  139.0730 O   0  0  0  0  0  0  0  0  0  0  0  0
  182.7880  178.1700  139.8210 C   0  0  0  0  0  1  0  0  0  0  0  0
  1 12  1  0  0  0  0
  1  5  1  1  0  0  0
  1  8  1  0  0  0  0
  2  3  1  0  0  0  0
  3  9  1  0  0  0  0
  4  1  1  0  0  0  0
  6  2  1  0  0  0  0
  6  7  1  0  0  0  0
  7  4  1  0  0  0  0
  8 13  1  6  0  0  0
  9 25  1  0  0  0  0
 10  3  2  0  0  0  0
 11  7  2  0  0  0  0
 12  9  1  6  0  0  0
 12  8  1  0  0  0  0
 13 15  1  0  0  0  0
 14 13  2  0  0  0  0
 15 16  1  6  0  0  0
 16 17  1  0  0  0  0
 17 19  1  0  0  0  0
 19 18  1  0  0  0  0
 20 15  1  0  0  0  0
 20 21  1  0  0  0  0
 21 24  1  0  0  0  0
 22 24  2  0  0  0  0
 24 23  1  0  0  0  0
 27 26  2  0  0  0  0
 27 25  1  0  0  0  0
 28 26  1  0  0  0  0
 29 28  2  0  0  0  0
 30 28  1  0  0  0  0
M  END
>  <MODEL>
3

>  <REMARK>
 VINA RESULT:      -6.4      2.059      3.165
  Name = 
  11 active torsions:
  status: ('A' for Active; 'I' for Inactive)
    1  A    between atoms: C_1  and  C_4
    2  A    between atoms: C_1  and  C_22
    3  A    between atoms: C_4  and  C_9
    4  A    between atoms: C_4  and  O_12
    5  A    between atoms: C_7  and  N_23
    6  A    between atoms: C_7  and  C_25
    7  A    between atoms: C_8  and  O_12
    8  A    between atoms: C_8  and  C_30
    9  A    between atoms: C_9  and  C_21
   10  A    between atoms: C_10  and  C_15
   11  A    between atoms: C_17  and  C_21
                            x       y       z     vdW  Elec       q    Type
                         _______ _______ _______ _____ _____    ______ ____

>  <TORSDO>
F 11

$$$$
=
 OpenBabel11052412373D

 30 31  0  0  1  0  0  0  0  0999 V2000
  189.1550  177.6460  146.2940 C   0  0  2  0  0  0  0  0  0  0  0  0
  191.7530  176.5620  143.9550 C   0  0  0  0  0  2  0  0  0  0  0  0
  191.3070  177.9840  144.0200 C   0  0  0  0  0  0  0  0  0  0  0  0
  189.7030  176.3310  145.9710 N   0  0  0  0  0  2  0  0  0  0  0  0
  189.2220  178.0970  147.7400 C   0  0  0  0  0  1  0  0  0  0  0  0
  192.0380  176.0760  145.2630 O   0  0  0  0  0  0  0  0  0  0  0  0
  191.0600  175.9880  146.2550 C   0  0  0  0  0  0  0  0  0  0  0  0
  187.8960  178.0830  145.5500 C   0  0  1  0  0  3  0  0  0  0  0  0
  189.9110  178.2890  143.9980 N   0  0  0  0  0  0  0  0  0  0  0  0
  192.1540  178.9010  144.1720 O   0  0  0  0  0  0  0  0  0  0  0  0
  191.3790  175.5980  147.4070 O   0  0  0  0  0  0  0  0  0  0  0  0
  189.2640  178.7480  145.2370 C   0  0  2  0  0  3  0  0  0  0  0  0
  187.3240  177.1750  144.4760 C   0  0  0  0  0  0  0  0  0  0  0  0
  187.8480  176.1170  144.1620 O   0  0  0  0  0  0  0  0  0  0  0  0
  186.0350  177.5920  143.8270 C   0  0  1  0  0  3  0  0  0  0  0  0
  185.4710  178.8880  144.4140 C   0  0  0  0  0  2  0  0  0  0  0  0
  184.1860  178.6530  145.1900 C   0  0  0  0  0  2  0  0  0  0  0  0
  182.0800  178.6400  143.9030 C   0  0  0  0  0  1  0  0  0  0  0  0
  183.0840  179.5210  144.6170 C   0  0  0  0  0  2  0  0  0  0  0  0
  186.1860  177.6840  142.4400 O   0  0  0  0  0  0  0  0  0  0  0  0
  185.7290  178.9640  142.1170 C   0  0  0  0  0  2  0  0  0  0  0  0
  183.8080  177.8860  140.9520 O   0  0  0  0  0  1  0  0  0  0  0  0
  184.8610  179.7060  140.0290 O   0  0  0  0  0  0  0  0  0  0  0  0
  184.7750  178.8860  140.9790 C   0  0  0  0  0  0  0  0  0  0  0  0
  189.3090  178.5840  142.6990 C   0  0  0  0  0  2  0  0  0  0  0  0
  189.4060  177.7250  140.3960 C   0  0  0  0  0  3  0  0  0  0  0  0
  189.9490  177.7870  141.6070 C   0  0  0  0  0  3  0  0  0  0  0  0
  190.0210  176.9550  139.3100 C   0  0  0  0  0  0  0  0  0  0  0  0
  190.6750  175.9030  139.5480 O   0  0  0  0  0  0  0  0  0  0  0  0
  189.8750  177.4260  137.9080 C   0  0  0  0  0  1  0  0  0  0  0  0
  1  5  1  1  0  0  0
  2  3  1  0  0  0  0
  2  6  1  0  0  0  0
  3 10  2  0  0  0  0
  4  7  1  0  0  0  0
  4  1  1  0  0  0  0
  6  7  1  0  0  0  0
  7 11  2  0  0  0  0
  8 13  1  6  0  0  0
  8  1  1  0  0  0  0
  9  3  1  0  0  0  0
 12  9  1  6  0  0  0
 12  8  1  0  0  0  0
 12  1  1  0  0  0  0
 14 13  2  0  0  0  0
 15 16  1  1  0  0  0
 15 13  1  0  0  0  0
 16 17  1  0  0  0  0
 18 19  1  0  0  0  0
 19 17  1  0  0  0  0
 20 15  1  0  0  0  0
 21 20  1  0  0  0  0
 22 24  1  0  0  0  0
 23 24  2  0  0  0  0
 24 21  1  0  0  0  0
 25  9  1  0  0  0  0
 26 27  2  0  0  0  0
 27 25  1  0  0  0  0
 28 29  2  0  0  0  0
 28 26  1  0  0  0  0
 30 28  1  0  0  0  0
M  END
>  <MODEL>
4

>  <REMARK>
 VINA RESULT:      -5.9      2.198      6.375
  Name = 
  11 active torsions:
  status: ('A' for Active; 'I' for Inactive)
    1  A    between atoms: C_1  and  C_4
    2  A    between atoms: C_1  and  C_22
    3  A    between atoms: C_4  and  C_9
    4  A    between atoms: C_4  and  O_12
    5  A    between atoms: C_7  and  N_23
    6  A    between atoms: C_7  and  C_25
    7  A    between atoms: C_8  and  O_12
    8  A    between atoms: C_8  and  C_30
    9  A    between atoms: C_9  and  C_21
   10  A    between atoms: C_10  and  C_15
   11  A    between atoms: C_17  and  C_21
                            x       y       z     vdW  Elec       q    Type
                         _______ _______ _______ _____ _____    ______ ____

>  <TORSDO>
F 11

$$$$
=
 OpenBabel11052412373D

 30 31  0  0  1  0  0  0  0  0999 V2000
  190.0130  176.3810  143.3350 C   0  0  2  0  0  0  0  0  0  0  0  0
  188.4960  178.4670  145.9330 C   0  0  0  0  0  2  0  0  0  0  0  0
  187.7330  177.3710  145.2680 C   0  0  0  0  0  0  0  0  0  0  0  0
  190.4960  177.5480  144.0680 N   0  0  0  0  0  2  0  0  0  0  0  0
  190.8400  175.1130  143.4130 C   0  0  0  0  0  1  0  0  0  0  0  0
  189.7640  177.9870  146.3680 O   0  0  0  0  0  0  0  0  0  0  0  0
  190.7280  177.5120  145.4770 C   0  0  0  0  0  0  0  0  0  0  0  0
  189.3530  176.6270  141.9810 C   0  0  1  0  0  3  0  0  0  0  0  0
  187.7320  177.2740  143.8420 N   0  0  0  0  0  0  0  0  0  0  0  0
  187.1580  176.4950  145.9640 O   0  0  0  0  0  0  0  0  0  0  0  0
  191.8110  177.0550  145.9220 O   0  0  0  0  0  0  0  0  0  0  0  0
  188.4980  176.1930  143.2030 C   0  0  2  0  0  3  0  0  0  0  0  0
  189.1700  178.0560  141.5010 C   0  0  0  0  0  0  0  0  0  0  0  0
  189.4620  179.0230  142.1880 O   0  0  0  0  0  0  0  0  0  0  0  0
  188.6580  178.2600  140.1040 C   0  0  1  0  0  3  0  0  0  0  0  0
  188.9530  177.0710  139.1880 C   0  0  0  0  0  2  0  0  0  0  0  0
  190.3700  177.1090  138.6390 C   0  0  0  0  0  2  0  0  0  0  0  0
  192.2330  175.7170  137.8110 C   0  0  0  0  0  1  0  0  0  0  0  0
  190.7520  175.7340  138.1300 C   0  0  0  0  0  2  0  0  0  0  0  0
  187.2930  178.5660  140.1170 O   0  0  0  0  0  0  0  0  0  0  0  0
  186.8210  178.1350  138.8760 C   0  0  0  0  0  2  0  0  0  0  0  0
  184.8980  179.6100  139.4570 O   0  0  0  0  0  1  0  0  0  0  0  0
  184.6620  177.9470  137.8910 O   0  0  0  0  0  0  0  0  0  0  0  0
  185.4050  178.5580  138.7010 C   0  0  0  0  0  0  0  0  0  0  0  0
  186.6360  177.9230  143.1250 C   0  0  0  0  0  2  0  0  0  0  0  0
  184.3270  178.6600  143.5480 C   0  0  0  0  0  3  0  0  0  0  0  0
  185.4680  178.1760  144.0250 C   0  0  0  0  0  3  0  0  0  0  0  0
  183.1690  178.9090  144.4130 C   0  0  0  0  0  0  0  0  0  0  0  0
  183.3160  179.1470  145.6430 O   0  0  0  0  0  0  0  0  0  0  0  0
  181.8020  178.8740  143.8300 C   0  0  0  0  0  1  0  0  0  0  0  0
  1  5  1  1  0  0  0
  1  4  1  0  0  0  0
  2  6  1  0  0  0  0
  3  2  1  0  0  0  0
  3 10  2  0  0  0  0
  4  7  1  0  0  0  0
  7 11  2  0  0  0  0
  7  6  1  0  0  0  0
  8 13  1  1  0  0  0
  8 12  1  0  0  0  0
  8  1  1  0  0  0  0
  9  3  1  0  0  0  0
 12  1  1  0  0  0  0
 12  9  1  1  0  0  0
 13 14  2  0  0  0  0
 15 16  1  6  0  0  0
 15 20  1  0  0  0  0
 15 13  1  0  0  0  0
 17 16  1  0  0  0  0
 18 19  1  0  0  0  0
 19 17  1  0  0  0  0
 21 20  1  0  0  0  0
 23 24  2  0  0  0  0
 24 21  1  0  0  0  0
 24 22  1  0  0  0  0
 25  9  1  0  0  0  0
 25 27  1  0  0  0  0
 26 27  2  0  0  0  0
 26 28  1  0  0  0  0
 28 29  2  0  0  0  0
 30 28  1  0  0  0  0
M  END
>  <MODEL>
5

>  <REMARK>
 VINA RESULT:      -5.8      2.364      6.626
  Name = 
  11 active torsions:
  status: ('A' for Active; 'I' for Inactive)
    1  A    between atoms: C_1  and  C_4
    2  A    between atoms: C_1  and  C_22
    3  A    between atoms: C_4  and  C_9
    4  A    between atoms: C_4  and  O_12
    5  A    between atoms: C_7  and  N_23
    6  A    between atoms: C_7  and  C_25
    7  A    between atoms: C_8  and  O_12
    8  A    between atoms: C_8  and  C_30
    9  A    between atoms: C_9  and  C_21
   10  A    between atoms: C_10  and  C_15
   11  A    between atoms: C_17  and  C_21
                            x       y       z     vdW  Elec       q    Type
                         _______ _______ _______ _____ _____    ______ ____

>  <TORSDO>
F 11

$$$$
=
 OpenBabel11052412373D

 30 31  0  0  1  0  0  0  0  0999 V2000
  189.8290  177.0980  140.2350 C   0  0  2  0  0  0  0  0  0  0  0  0
  191.4440  177.1690  143.5190 C   0  0  0  0  0  2  0  0  0  0  0  0
  190.5040  176.0760  143.1360 C   0  0  0  0  0  0  0  0  0  0  0  0
  190.7020  178.0730  140.8820 N   0  0  0  0  0  2  0  0  0  0  0  0
  190.2760  176.5330  138.9010 C   0  0  0  0  0  1  0  0  0  0  0  0
  192.4120  177.3650  142.4920 O   0  0  0  0  0  0  0  0  0  0  0  0
  192.0610  177.7740  141.2040 C   0  0  0  0  0  0  0  0  0  0  0  0
  188.3220  177.3120  140.3610 C   0  0  1  0  0  3  0  0  0  0  0  0
  189.2360  176.4030  142.5640 N   0  0  0  0  0  0  0  0  0  0  0  0
  190.8590  174.8750  143.2470 O   0  0  0  0  0  0  0  0  0  0  0  0
  192.9510  177.8830  140.3250 O   0  0  0  0  0  0  0  0  0  0  0  0
  189.0180  176.1560  141.1300 C   0  0  2  0  0  3  0  0  0  0  0  0
  187.8130  178.4710  141.1990 C   0  0  0  0  0  0  0  0  0  0  0  0
  188.5590  179.2990  141.7010 O   0  0  0  0  0  0  0  0  0  0  0  0
  186.3260  178.6120  141.3600 C   0  0  1  0  0  3  0  0  0  0  0  0
  185.9300  179.1590  142.7330 C   0  0  0  0  0  2  0  0  0  0  0  0
  184.8490  178.3190  143.3930 C   0  0  0  0  0  2  0  0  0  0  0  0
  184.3710  178.6320  145.7940 C   0  0  0  0  0  1  0  0  0  0  0  0
  184.0980  179.1640  144.4030 C   0  0  0  0  0  2  0  0  0  0  0  0
  185.7880  179.3880  140.3280 O   0  0  0  0  0  0  0  0  0  0  0  0
  184.8110  178.5780  139.7470 C   0  0  0  0  0  2  0  0  0  0  0  0
  184.3130  177.5400  137.5370 O   0  0  0  0  0  0  0  0  0  0  0  0
  186.3020  178.6300  137.8930 O   0  0  0  0  0  1  0  0  0  0  0  0
  185.1860  178.2640  138.3420 C   0  0  0  0  0  0  0  0  0  0  0  0
  188.0970  176.5140  143.4740 C   0  0  0  0  0  2  0  0  0  0  0  0
  187.6710  177.1310  145.8160 C   0  0  0  0  0  3  0  0  0  0  0  0
  188.4950  177.1350  144.7750 C   0  0  0  0  0  3  0  0  0  0  0  0
  188.0460  177.7290  147.1020 C   0  0  0  0  0  0  0  0  0  0  0  0
  187.2280  178.4350  147.7530 O   0  0  0  0  0  0  0  0  0  0  0  0
  189.4120  177.5020  147.6430 C   0  0  0  0  0  1  0  0  0  0  0  0
  1  5  1  6  0  0  0
  1  8  1  0  0  0  0
  1  4  1  0  0  0  0
  1 12  1  0  0  0  0
  3 10  2  0  0  0  0
  3  2  1  0  0  0  0
  4  7  1  0  0  0  0
  6  2  1  0  0  0  0
  7  6  1  0  0  0  0
  8 12  1  0  0  0  0
  8 13  1  1  0  0  0
  9  3  1  0  0  0  0
  9 25  1  0  0  0  0
 11  7  2  0  0  0  0
 12  9  1  1  0  0  0
 13 15  1  0  0  0  0
 13 14  2  0  0  0  0
 15 16  1  1  0  0  0
 16 17  1  0  0  0  0
 17 19  1  0  0  0  0
 19 18  1  0  0  0  0
 20 15  1  0  0  0  0
 21 20  1  0  0  0  0
 22 24  2  0  0  0  0
 23 24  1  0  0  0  0
 24 21  1  0  0  0  0
 25 27  1  0  0  0  0
 26 28  1  0  0  0  0
 27 26  2  0  0  0  0
 28 30  1  0  0  0  0
 28 29  2  0  0  0  0
M  END
>  <MODEL>
6

>  <REMARK>
 VINA RESULT:      -5.6      2.080      5.997
  Name = 
  11 active torsions:
  status: ('A' for Active; 'I' for Inactive)
    1  A    between atoms: C_1  and  C_4
    2  A    between atoms: C_1  and  C_22
    3  A    between atoms: C_4  and  C_9
    4  A    between atoms: C_4  and  O_12
    5  A    between atoms: C_7  and  N_23
    6  A    between atoms: C_7  and  C_25
    7  A    between atoms: C_8  and  O_12
    8  A    between atoms: C_8  and  C_30
    9  A    between atoms: C_9  and  C_21
   10  A    between atoms: C_10  and  C_15
   11  A    between atoms: C_17  and  C_21
                            x       y       z     vdW  Elec       q    Type
                         _______ _______ _______ _____ _____    ______ ____

>  <TORSDO>
F 11

$$$$
=
 OpenBabel11052412373D

 30 31  0  0  1  0  0  0  0  0999 V2000
  191.4200  176.0490  145.4000 C   0  0  2  0  0  0  0  0  0  0  0  0
  189.6490  178.0990  147.8620 C   0  0  0  0  0  2  0  0  0  0  0  0
  188.9300  177.1060  147.0120 C   0  0  0  0  0  0  0  0  0  0  0  0
  191.8570  177.1310  146.2780 N   0  0  0  0  0  2  0  0  0  0  0  0
  192.1340  174.7170  145.5210 C   0  0  0  0  0  1  0  0  0  0  0  0
  190.7930  177.4960  148.4580 O   0  0  0  0  0  0  0  0  0  0  0  0
  191.8540  176.9980  147.7000 C   0  0  0  0  0  0  0  0  0  0  0  0
  191.0070  176.4220  143.9780 C   0  0  1  0  0  3  0  0  0  0  0  0
  189.1540  177.0890  145.6010 N   0  0  0  0  0  0  0  0  0  0  0  0
  188.1910  176.2400  147.5470 O   0  0  0  0  0  0  0  0  0  0  0  0
  192.8170  176.4330  148.2770 O   0  0  0  0  0  0  0  0  0  0  0  0
  189.9370  175.9890  145.0190 C   0  0  2  0  0  3  0  0  0  0  0  0
  191.0030  177.8860  143.5740 C   0  0  0  0  0  0  0  0  0  0  0  0
  191.4180  178.7720  144.3070 O   0  0  0  0  0  0  0  0  0  0  0  0
  190.5140  178.2250  142.1950 C   0  0  1  0  0  3  0  0  0  0  0  0
  190.8230  177.1290  141.1730 C   0  0  0  0  0  2  0  0  0  0  0  0
  192.0040  177.4900  140.2870 C   0  0  0  0  0  2  0  0  0  0  0  0
  190.6190  176.9820  138.3070 C   0  0  0  0  0  1  0  0  0  0  0  0
  191.9340  176.6900  139.0010 C   0  0  0  0  0  2  0  0  0  0  0  0
  189.1500  178.5320  142.2150 O   0  0  0  0  0  0  0  0  0  0  0  0
  188.5890  177.7230  141.2250 C   0  0  0  0  0  2  0  0  0  0  0  0
  187.3280  178.5320  139.2340 O   0  0  0  0  0  0  0  0  0  0  0  0
  186.5260  178.9040  141.3530 O   0  0  0  0  0  1  0  0  0  0  0  0
  187.4180  178.4100  140.6160 C   0  0  0  0  0  0  0  0  0  0  0  0
  188.2350  177.8620  144.7660 C   0  0  0  0  0  2  0  0  0  0  0  0
  185.8250  178.3500  144.8300 C   0  0  0  0  0  3  0  0  0  0  0  0
  186.9630  178.1660  145.4900 C   0  0  0  0  0  3  0  0  0  0  0  0
  184.5660  178.6420  145.5210 C   0  0  0  0  0  0  0  0  0  0  0  0
  184.4930  178.6090  146.7800 O   0  0  0  0  0  0  0  0  0  0  0  0
  183.3560  178.9770  144.7240 C   0  0  0  0  0  1  0  0  0  0  0  0
  1  5  1  1  0  0  0
  1  4  1  0  0  0  0
  2  6  1  0  0  0  0
  3 10  2  0  0  0  0
  3  2  1  0  0  0  0
  4  7  1  0  0  0  0
  7 11  2  0  0  0  0
  7  6  1  0  0  0  0
  8 13  1  1  0  0  0
  8 12  1  0  0  0  0
  8  1  1  0  0  0  0
  9  3  1  0  0  0  0
 12  1  1  0  0  0  0
 12  9  1  1  0  0  0
 13 14  2  0  0  0  0
 15 16  1  6  0  0  0
 15 20  1  0  0  0  0
 15 13  1  0  0  0  0
 17 16  1  0  0  0  0
 18 19  1  0  0  0  0
 19 17  1  0  0  0  0
 21 20  1  0  0  0  0
 22 24  2  0  0  0  0
 24 21  1  0  0  0  0
 24 23  1  0  0  0  0
 25 27  1  0  0  0  0
 25  9  1  0  0  0  0
 26 27  2  0  0  0  0
 26 28  1  0  0  0  0
 28 29  2  0  0  0  0
 30 28  1  0  0  0  0
M  END
>  <MODEL>
7

>  <REMARK>
 VINA RESULT:      -5.6      2.481      6.744
  Name = 
  11 active torsions:
  status: ('A' for Active; 'I' for Inactive)
    1  A    between atoms: C_1  and  C_4
    2  A    between atoms: C_1  and  C_22
    3  A    between atoms: C_4  and  C_9
    4  A    between atoms: C_4  and  O_12
    5  A    between atoms: C_7  and  N_23
    6  A    between atoms: C_7  and  C_25
    7  A    between atoms: C_8  and  O_12
    8  A    between atoms: C_8  and  C_30
    9  A    between atoms: C_9  and  C_21
   10  A    between atoms: C_10  and  C_15
   11  A    between atoms: C_17  and  C_21
                            x       y       z     vdW  Elec       q    Type
                         _______ _______ _______ _____ _____    ______ ____

>  <TORSDO>
F 11

$$$$
=
 OpenBabel11052412373D

 30 31  0  0  1  0  0  0  0  0999 V2000
  189.9480  178.2690  144.6950 C   0  0  2  0  0  0  0  0  0  0  0  0
  191.4200  175.2460  143.2470 C   0  0  0  0  0  2  0  0  0  0  0  0
  191.2550  176.4940  142.4460 C   0  0  0  0  0  0  0  0  0  0  0  0
  190.1420  176.9190  145.2190 N   0  0  0  0  0  2  0  0  0  0  0  0
  190.5600  179.4170  145.4740 C   0  0  0  0  0  1  0  0  0  0  0  0
  192.0390  175.5430  144.4950 O   0  0  0  0  0  0  0  0  0  0  0  0
  191.4430  176.3760  145.4440 C   0  0  0  0  0  0  0  0  0  0  0  0
  188.6010  178.5850  144.0500 C   0  0  1  0  0  3  0  0  0  0  0  0
  189.9970  177.1730  142.4470 N   0  0  0  0  0  0  0  0  0  0  0  0
  192.2400  176.9840  141.8360 O   0  0  0  0  0  0  0  0  0  0  0  0
  192.0570  176.6420  146.5070 O   0  0  0  0  0  0  0  0  0  0  0  0
  189.8780  178.4460  143.1750 C   0  0  2  0  0  3  0  0  0  0  0  0
  187.5700  177.4780  143.9220 C   0  0  0  0  0  0  0  0  0  0  0  0
  187.8280  176.3070  144.1580 O   0  0  0  0  0  0  0  0  0  0  0  0
  186.1720  177.8720  143.5400 C   0  0  1  0  0  3  0  0  0  0  0  0
  185.5470  178.8620  144.5260 C   0  0  0  0  0  2  0  0  0  0  0  0
  185.2780  178.2270  145.8810 C   0  0  0  0  0  2  0  0  0  0  0  0
  187.1870  178.1800  147.4440 C   0  0  0  0  0  1  0  0  0  0  0  0
  186.0110  179.0010  146.9570 C   0  0  0  0  0  2  0  0  0  0  0  0
  186.1360  178.3660  142.2330 O   0  0  0  0  0  0  0  0  0  0  0  0
  184.9140  179.0350  142.1390 C   0  0  0  0  0  2  0  0  0  0  0  0
  184.5510  179.7530  139.7800 O   0  0  0  0  0  0  0  0  0  0  0  0
  183.6030  177.8160  140.5700 O   0  0  0  0  0  1  0  0  0  0  0  0
  184.3250  178.8220  140.7890 C   0  0  0  0  0  0  0  0  0  0  0  0
  189.0560  176.8450  141.3780 C   0  0  0  0  0  2  0  0  0  0  0  0
  188.8560  177.3300  138.9750 C   0  0  0  0  0  3  0  0  0  0  0  0
  189.2650  177.7130  140.1790 C   0  0  0  0  0  3  0  0  0  0  0  0
  189.0460  178.1700  137.7880 C   0  0  0  0  0  0  0  0  0  0  0  0
  188.9900  179.4270  137.8660 O   0  0  0  0  0  0  0  0  0  0  0  0
  189.3030  177.5270  136.4730 C   0  0  0  0  0  1  0  0  0  0  0  0
  1  4  1  0  0  0  0
  1  5  1  1  0  0  0
  2  6  1  0  0  0  0
  3  9  1  0  0  0  0
  3  2  1  0  0  0  0
  4  7  1  0  0  0  0
  6  7  1  0  0  0  0
  7 11  2  0  0  0  0
  8 13  1  6  0  0  0
  8  1  1  0  0  0  0
 10  3  2  0  0  0  0
 12  9  1  6  0  0  0
 12  8  1  0  0  0  0
 12  1  1  0  0  0  0
 13 14  2  0  0  0  0
 15 13  1  0  0  0  0
 15 16  1  1  0  0  0
 16 17  1  0  0  0  0
 17 19  1  0  0  0  0
 19 18  1  0  0  0  0
 20 15  1  0  0  0  0
 21 20  1  0  0  0  0
 22 24  2  0  0  0  0
 23 24  1  0  0  0  0
 24 21  1  0  0  0  0
 25  9  1  0  0  0  0
 26 27  2  0  0  0  0
 27 25  1  0  0  0  0
 28 29  2  0  0  0  0
 28 26  1  0  0  0  0
 30 28  1  0  0  0  0
M  END
>  <MODEL>
8

>  <REMARK>
 VINA RESULT:      -5.6      1.983      5.858
  Name = 
  11 active torsions:
  status: ('A' for Active; 'I' for Inactive)
    1  A    between atoms: C_1  and  C_4
    2  A    between atoms: C_1  and  C_22
    3  A    between atoms: C_4  and  C_9
    4  A    between atoms: C_4  and  O_12
    5  A    between atoms: C_7  and  N_23
    6  A    between atoms: C_7  and  C_25
    7  A    between atoms: C_8  and  O_12
    8  A    between atoms: C_8  and  C_30
    9  A    between atoms: C_9  and  C_21
   10  A    between atoms: C_10  and  C_15
   11  A    between atoms: C_17  and  C_21
                            x       y       z     vdW  Elec       q    Type
                         _______ _______ _______ _____ _____    ______ ____

>  <TORSDO>
F 11

$$$$
=
 OpenBabel11052412373D

 30 31  0  0  1  0  0  0  0  0999 V2000
  190.8490  175.7200  143.6960 C   0  0  2  0  0  0  0  0  0  0  0  0
  189.3820  178.2690  145.8740 C   0  0  0  0  0  2  0  0  0  0  0  0
  188.5300  177.3430  145.0740 C   0  0  0  0  0  0  0  0  0  0  0  0
  191.4400  176.7860  144.5010 N   0  0  0  0  0  2  0  0  0  0  0  0
  191.3070  174.3000  143.9680 C   0  0  0  0  0  1  0  0  0  0  0  0
  190.3760  177.5340  146.5810 O   0  0  0  0  0  0  0  0  0  0  0  0
  191.3590  176.7890  145.9270 C   0  0  0  0  0  0  0  0  0  0  0  0
  190.5650  176.0240  142.2270 C   0  0  1  0  0  3  0  0  0  0  0  0
  188.8010  177.1550  143.6840 N   0  0  0  0  0  0  0  0  0  0  0  0
  187.6270  176.6740  145.6400 O   0  0  0  0  0  0  0  0  0  0  0  0
  192.1810  176.1200  146.6020 O   0  0  0  0  0  0  0  0  0  0  0  0
  189.3960  175.8850  143.2410 C   0  0  2  0  0  3  0  0  0  0  0  0
  190.8400  177.4220  141.7000 C   0  0  0  0  0  0  0  0  0  0  0  0
  191.2390  178.3280  142.4160 O   0  0  0  0  0  0  0  0  0  0  0  0
  190.6560  177.6580  140.2290 C   0  0  1  0  0  3  0  0  0  0  0  0
  191.7810  177.0500  139.3880 C   0  0  0  0  0  2  0  0  0  0  0  0
  191.2800  175.9410  138.4780 C   0  0  0  0  0  2  0  0  0  0  0  0
  193.4600  176.3560  137.3970 C   0  0  0  0  0  1  0  0  0  0  0  0
  192.0060  176.0110  137.1500 C   0  0  0  0  0  2  0  0  0  0  0  0
  189.4030  177.2030  139.8060 O   0  0  0  0  0  0  0  0  0  0  0  0
  188.6900  178.3620  139.4970 C   0  0  0  0  0  2  0  0  0  0  0  0
  188.5160  177.5700  137.1410 O   0  0  0  0  0  0  0  0  0  0  0  0
  189.0280  179.7600  137.6010 O   0  0  0  0  0  1  0  0  0  0  0  0
  188.7460  178.6130  138.0320 C   0  0  0  0  0  0  0  0  0  0  0  0
  188.0690  177.9960  142.7370 C   0  0  0  0  0  2  0  0  0  0  0  0
  185.7540  178.7480  142.3820 C   0  0  0  0  0  3  0  0  0  0  0  0
  186.5910  177.8710  142.9260 C   0  0  0  0  0  3  0  0  0  0  0  0
  184.3010  178.6400  142.5490 C   0  0  0  0  0  0  0  0  0  0  0  0
  183.5370  178.5480  141.5510 O   0  0  0  0  0  0  0  0  0  0  0  0
  183.7230  178.6460  143.9190 C   0  0  0  0  0  1  0  0  0  0  0  0
  1  5  1  1  0  0  0
  1  4  1  0  0  0  0
  2  6  1  0  0  0  0
  3 10  2  0  0  0  0
  3  2  1  0  0  0  0
  4  7  1  0  0  0  0
  7  6  1  0  0  0  0
  7 11  2  0  0  0  0
  8 13  1  1  0  0  0
  8 12  1  0  0  0  0
  8  1  1  0  0  0  0
  9  3  1  0  0  0  0
 12  9  1  1  0  0  0
 12  1  1  0  0  0  0
 13 14  2  0  0  0  0
 15 16  1  6  0  0  0
 15 13  1  0  0  0  0
 17 16  1  0  0  0  0
 19 18  1  0  0  0  0
 19 17  1  0  0  0  0
 20 15  1  0  0  0  0
 21 20  1  0  0  0  0
 22 24  2  0  0  0  0
 23 24  1  0  0  0  0
 24 21  1  0  0  0  0
 25 27  1  0  0  0  0
 25  9  1  0  0  0  0
 26 28  1  0  0  0  0
 26 27  2  0  0  0  0
 28 30  1  0  0  0  0
 29 28  2  0  0  0  0
M  END
>  <MODEL>
9

>  <REMARK>
 VINA RESULT:      -5.5      1.947      6.457
  Name = 
  11 active torsions:
  status: ('A' for Active; 'I' for Inactive)
    1  A    between atoms: C_1  and  C_4
    2  A    between atoms: C_1  and  C_22
    3  A    between atoms: C_4  and  C_9
    4  A    between atoms: C_4  and  O_12
    5  A    between atoms: C_7  and  N_23
    6  A    between atoms: C_7  and  C_25
    7  A    between atoms: C_8  and  O_12
    8  A    between atoms: C_8  and  C_30
    9  A    between atoms: C_9  and  C_21
   10  A    between atoms: C_10  and  C_15
   11  A    between atoms: C_17  and  C_21
                            x       y       z     vdW  Elec       q    Type
                         _______ _______ _______ _____ _____    ______ ____

>  <TORSDO>
F 11

$$$$
