=
 OpenBabel11052412473D

 25 28  0  0  1  0  0  0  0  0999 V2000
  187.1160  177.9830  145.6470 C   0  0  0  0  0  0  0  0  0  0  0  0
  188.3730  177.2250  145.3560 C   0  0  1  0  0  3  0  0  0  0  0  0
  187.5370  178.1640  148.0320 C   0  0  0  0  0  3  0  0  0  0  0  0
  186.0310  178.2060  144.9260 C   0  0  0  0  0  0  0  0  0  0  0  0
  183.5360  178.8200  143.8860 C   0  0  0  0  0  3  0  0  0  0  0  0
  188.9020  177.6330  147.7870 C   0  0  0  0  0  3  0  0  0  0  0  0
  185.0400  178.7220  145.7560 C   0  0  0  0  0  0  0  0  0  0  0  0
  183.7810  179.0420  145.2520 C   0  0  0  0  0  3  0  0  0  0  0  0
  190.7180  176.8580  146.3130 C   0  0  0  0  0  0  0  0  0  0  0  0
  191.6060  176.3920  147.4150 C   0  0  0  0  0  1  0  0  0  0  0  0
  189.0750  177.6810  144.1060 C   0  0  0  0  0  3  0  0  0  0  0  0
  184.5380  178.2790  143.0550 C   0  0  0  0  0  3  0  0  0  0  0  0
  186.7330  178.3420  146.9870 C   0  0  0  0  0  0  0  0  0  0  0  0
  185.3920  178.8250  147.0030 N   0  0  0  0  0  0  0  0  0  0  0  0
  191.2210  176.9930  145.0800 C   0  0  0  0  0  3  0  0  0  0  0  0
  185.8030  177.9600  143.5730 C   0  0  0  0  0  3  0  0  0  0  0  0
  190.3960  177.5120  143.9640 C   0  0  0  0  0  0  0  0  0  0  0  0
  189.3130  177.2440  146.5590 C   0  0  0  0  0  0  0  0  0  0  0  0
  191.0480  177.8790  142.6780 C   0  0  0  0  0  2  0  0  0  0  0  0
  190.7950  176.8470  141.6880 N   0  0  0  0  0  2  0  0  0  0  0  0
  190.4040  177.5270  140.4660 C   0  0  0  0  0  2  0  0  0  0  0  0
  188.8940  177.6550  140.4090 C   0  0  0  0  0  2  0  0  0  0  0  0
  188.5400  178.7750  139.6550 O   0  0  0  0  0  0  0  0  0  0  0  0
  189.0000  178.4930  138.3700 C   0  0  0  0  0  2  0  0  0  0  0  0
  188.9790  179.6560  137.6030 O   0  0  0  0  0  1  0  0  0  0  0  0
  1 13  1  0  0  0  0
  2 11  1  6  0  0  0
  2  1  1  0  0  0  0
  2 18  1  0  0  0  0
  4  1  2  0  0  0  0
  4  7  1  0  0  0  0
  5  8  2  0  0  0  0
  6  3  1  0  0  0  0
  7 14  2  0  0  0  0
  8  7  1  0  0  0  0
  9 18  1  0  0  0  0
  9 10  1  0  0  0  0
 12 16  2  0  0  0  0
 12  5  1  0  0  0  0
 13 14  1  0  0  0  0
 13  3  2  0  0  0  0
 15  9  2  0  0  0  0
 16  4  1  0  0  0  0
 17 11  2  0  0  0  0
 17 15  1  0  0  0  0
 18  6  2  0  0  0  0
 19 17  1  0  0  0  0
 20 19  1  0  0  0  0
 21 20  1  0  0  0  0
 22 21  1  0  0  0  0
 23 22  1  0  0  0  0
 24 23  1  0  0  0  0
 25 24  1  0  0  0  0
M  END
>  <MODEL>
1

>  <REMARK>
 VINA RESULT:     -10.4      0.000      0.000
  Name = 
  6 active torsions:
  status: ('A' for Active; 'I' for Inactive)
    1  A    between atoms: O_2  and  C_7
    2  A    between atoms: O_2  and  C_25
    3  A    between atoms: C_6  and  N_15
    4  A    between atoms: C_6  and  C_23
    5  A    between atoms: N_15  and  C_21
    6  A    between atoms: C_21  and  C_25
                            x       y       z     vdW  Elec       q    Type
                         _______ _______ _______ _____ _____    ______ ____

>  <TORSDO>
F 6

$$$$
=
 OpenBabel11052412473D

 25 28  0  0  1  0  0  0  0  0999 V2000
  187.1690  177.9500  145.6680 C   0  0  0  0  0  0  0  0  0  0  0  0
  188.4190  177.1810  145.3730 C   0  0  1  0  0  3  0  0  0  0  0  0
  187.6010  178.1310  148.0510 C   0  0  0  0  0  3  0  0  0  0  0  0
  186.0840  178.1820  144.9510 C   0  0  0  0  0  0  0  0  0  0  0  0
  183.5900  178.8140  143.9190 C   0  0  0  0  0  3  0  0  0  0  0  0
  188.9610  177.5880  147.8020 C   0  0  0  0  0  3  0  0  0  0  0  0
  185.1000  178.7070  145.7840 C   0  0  0  0  0  0  0  0  0  0  0  0
  183.8410  179.0360  145.2850 C   0  0  0  0  0  3  0  0  0  0  0  0
  190.7650  176.7970  146.3220 C   0  0  0  0  0  0  0  0  0  0  0  0
  191.6530  176.3240  147.4210 C   0  0  0  0  0  1  0  0  0  0  0  0
  189.1200  177.6310  144.1200 C   0  0  0  0  0  3  0  0  0  0  0  0
  184.5850  178.2640  143.0860 C   0  0  0  0  0  3  0  0  0  0  0  0
  186.7940  178.3140  147.0090 C   0  0  0  0  0  0  0  0  0  0  0  0
  185.4580  178.8080  147.0290 N   0  0  0  0  0  0  0  0  0  0  0  0
  191.2640  176.9260  145.0870 C   0  0  0  0  0  3  0  0  0  0  0  0
  185.8490  177.9350  143.5990 C   0  0  0  0  0  3  0  0  0  0  0  0
  190.4390  177.4510  143.9740 C   0  0  0  0  0  0  0  0  0  0  0  0
  189.3640  177.1940  146.5720 C   0  0  0  0  0  0  0  0  0  0  0  0
  191.0900  177.8110  142.6850 C   0  0  0  0  0  2  0  0  0  0  0  0
  190.6380  176.9100  141.6390 N   0  0  0  0  0  2  0  0  0  0  0  0
  190.0220  177.7340  140.6150 C   0  0  0  0  0  2  0  0  0  0  0  0
  189.8510  176.9300  139.3400 C   0  0  0  0  0  2  0  0  0  0  0  0
  190.7230  175.8400  139.3460 O   0  0  0  0  0  0  0  0  0  0  0  0
  191.0200  175.6210  138.0010 C   0  0  0  0  0  2  0  0  0  0  0  0
  191.2390  174.2610  137.7890 O   0  0  0  0  0  1  0  0  0  0  0  0
  1 13  1  0  0  0  0
  2 11  1  6  0  0  0
  2  1  1  0  0  0  0
  2 18  1  0  0  0  0
  4  1  2  0  0  0  0
  4  7  1  0  0  0  0
  5  8  2  0  0  0  0
  6  3  1  0  0  0  0
  7 14  2  0  0  0  0
  8  7  1  0  0  0  0
  9 18  1  0  0  0  0
  9 10  1  0  0  0  0
 12 16  2  0  0  0  0
 12  5  1  0  0  0  0
 13 14  1  0  0  0  0
 13  3  2  0  0  0  0
 15  9  2  0  0  0  0
 16  4  1  0  0  0  0
 17 11  2  0  0  0  0
 17 15  1  0  0  0  0
 18  6  2  0  0  0  0
 19 17  1  0  0  0  0
 20 19  1  0  0  0  0
 21 20  1  0  0  0  0
 22 23  1  0  0  0  0
 22 21  1  0  0  0  0
 24 23  1  0  0  0  0
 25 24  1  0  0  0  0
M  END
>  <MODEL>
2

>  <REMARK>
 VINA RESULT:      -9.9      1.510      1.589
  Name = 
  6 active torsions:
  status: ('A' for Active; 'I' for Inactive)
    1  A    between atoms: O_2  and  C_7
    2  A    between atoms: O_2  and  C_25
    3  A    between atoms: C_6  and  N_15
    4  A    between atoms: C_6  and  C_23
    5  A    between atoms: N_15  and  C_21
    6  A    between atoms: C_21  and  C_25
                            x       y       z     vdW  Elec       q    Type
                         _______ _______ _______ _____ _____    ______ ____

>  <TORSDO>
F 6

$$$$
=
 OpenBabel11052412473D

 25 28  0  0  0  0  0  0  0  0999 V2000
  186.9400  177.8200  144.0150 C   0  0  0  0  0  0  0  0  0  0  0  0
  187.9420  177.0360  143.2250 C   0  0  0  0  0  0  0  0  0  0  0  0
  188.1670  177.6670  146.1050 C   0  0  0  0  0  3  0  0  0  0  0  0
  185.7030  178.1960  143.7480 C   0  0  0  0  0  0  0  0  0  0  0  0
  183.0750  179.0800  143.7180 C   0  0  0  0  0  3  0  0  0  0  0  0
  189.3070  177.0950  145.3440 C   0  0  0  0  0  3  0  0  0  0  0  0
  185.1110  178.6560  144.9200 C   0  0  0  0  0  0  0  0  0  0  0  0
  183.7930  179.1090  144.9270 C   0  0  0  0  0  3  0  0  0  0  0  0
  190.4250  176.4170  143.2550 C   0  0  0  0  0  0  0  0  0  0  0  0
  191.5860  175.7610  143.9210 C   0  0  0  0  0  1  0  0  0  0  0  0
  188.2150  177.6100  141.8620 C   0  0  0  0  0  2  0  0  0  0  0  0
  183.6740  178.5950  142.5380 C   0  0  0  0  0  3  0  0  0  0  0  0
  187.0760  178.0240  145.4330 C   0  0  0  0  0  0  0  0  0  0  0  0
  185.8760  178.5760  145.9680 N   0  0  0  0  0  0  0  0  0  0  0  0
  190.4860  176.6810  141.9440 C   0  0  0  0  0  3  0  0  0  0  0  0
  185.0030  178.1400  142.5440 C   0  0  0  0  0  3  0  0  0  0  0  0
  189.3840  177.3860  141.2490 C   0  0  0  0  0  0  0  0  0  0  0  0
  189.2330  176.8460  144.0170 C   0  0  0  0  0  0  0  0  0  0  0  0
  189.5910  177.8790  139.8600 C   0  0  0  0  0  2  0  0  0  0  0  0
  188.4000  178.5760  139.4050 N   0  0  0  0  0  2  0  0  0  0  0  0
  187.9300  177.8730  138.2240 C   0  0  0  0  0  2  0  0  0  0  0  0
  186.4160  177.9420  138.1530 C   0  0  0  0  0  2  0  0  0  0  0  0
  185.9370  178.8470  139.1010 O   0  0  0  0  0  0  0  0  0  0  0  0
  184.5830  178.9860  138.7980 C   0  0  0  0  0  2  0  0  0  0  0  0
  184.1340  180.2310  139.2360 O   0  0  0  0  0  1  0  0  0  0  0  0
  1 13  1  0  0  0  0
  2  1  2  0  0  0  0
  2 18  1  0  0  0  0
  4  1  1  0  0  0  0
  4  7  1  0  0  0  0
  5  8  1  0  0  0  0
  6  3  2  0  0  0  0
  7  8  2  0  0  0  0
  7 14  1  0  0  0  0
  9 10  1  0  0  0  0
  9 18  2  0  0  0  0
 11  2  1  0  0  0  0
 12 16  1  0  0  0  0
 12  5  2  0  0  0  0
 13 14  2  0  0  0  0
 13  3  1  0  0  0  0
 15  9  1  0  0  0  0
 16  4  2  0  0  0  0
 17 11  1  0  0  0  0
 17 15  2  0  0  0  0
 18  6  1  0  0  0  0
 19 17  1  0  0  0  0
 20 19  1  0  0  0  0
 21 20  1  0  0  0  0
 22 21  1  0  0  0  0
 22 23  1  0  0  0  0
 24 23  1  0  0  0  0
 24 25  1  0  0  0  0
M  END
>  <MODEL>
3

>  <REMARK>
 VINA RESULT:      -9.4      1.918      2.693
  Name = 
  6 active torsions:
  status: ('A' for Active; 'I' for Inactive)
    1  A    between atoms: O_2  and  C_7
    2  A    between atoms: O_2  and  C_25
    3  A    between atoms: C_6  and  N_15
    4  A    between atoms: C_6  and  C_23
    5  A    between atoms: N_15  and  C_21
    6  A    between atoms: C_21  and  C_25
                            x       y       z     vdW  Elec       q    Type
                         _______ _______ _______ _____ _____    ______ ____

>  <TORSDO>
F 6

$$$$
=
 OpenBabel11052412473D

 25 28  0  0  1  0  0  0  0  0999 V2000
  187.3060  177.9540  142.5200 C   0  0  0  0  0  0  0  0  0  0  0  0
  186.4880  177.6590  143.7390 C   0  0  1  0  0  3  0  0  0  0  0  0
  185.5410  179.1760  141.3840 C   0  0  0  0  0  3  0  0  0  0  0  0
  188.4580  177.4710  142.0900 C   0  0  0  0  0  0  0  0  0  0  0  0
  190.7320  176.6810  140.7170 C   0  0  0  0  0  3  0  0  0  0  0  0
  184.7580  179.1310  142.6450 C   0  0  0  0  0  3  0  0  0  0  0  0
  188.6430  177.8650  140.7680 C   0  0  0  0  0  0  0  0  0  0  0  0
  189.7820  177.4830  140.0610 C   0  0  0  0  0  3  0  0  0  0  0  0
  184.4760  178.5730  145.0290 C   0  0  0  0  0  0  0  0  0  0  0  0
  183.0280  178.9240  145.0860 C   0  0  0  0  0  1  0  0  0  0  0  0
  187.2480  177.8240  145.0270 C   0  0  0  0  0  3  0  0  0  0  0  0
  190.5300  176.2700  142.0500 C   0  0  0  0  0  3  0  0  0  0  0  0
  186.7550  178.6330  141.3760 C   0  0  0  0  0  0  0  0  0  0  0  0
  187.6600  178.5580  140.2780 N   0  0  0  0  0  0  0  0  0  0  0  0
  185.1530  178.3970  146.1700 C   0  0  0  0  0  3  0  0  0  0  0  0
  189.3780  176.6610  142.7520 C   0  0  0  0  0  3  0  0  0  0  0  0
  186.6060  178.1090  146.1670 C   0  0  0  0  0  0  0  0  0  0  0  0
  185.2020  178.4800  143.7450 C   0  0  0  0  0  0  0  0  0  0  0  0
  187.3680  178.1660  147.4430 C   0  0  0  0  0  2  0  0  0  0  0  0
  188.2070  176.9870  147.5670 N   0  0  0  0  0  2  0  0  0  0  0  0
  189.5730  177.4600  147.7090 C   0  0  0  0  0  2  0  0  0  0  0  0
  190.4130  176.9690  146.5450 C   0  0  0  0  0  2  0  0  0  0  0  0
  191.7680  177.0520  146.8680 O   0  0  0  0  0  0  0  0  0  0  0  0
  192.0650  175.8200  147.4500 C   0  0  0  0  0  2  0  0  0  0  0  0
  193.0380  175.9930  148.4320 O   0  0  0  0  0  1  0  0  0  0  0  0
  1  2  1  0  0  0  0
  2 18  1  0  0  0  0
  2 11  1  1  0  0  0
  3  6  1  0  0  0  0
  4  1  2  0  0  0  0
  4 16  1  0  0  0  0
  5 12  1  0  0  0  0
  6 18  2  0  0  0  0
  7  4  1  0  0  0  0
  8  5  2  0  0  0  0
  8  7  1  0  0  0  0
  9 10  1  0  0  0  0
  9 15  2  0  0  0  0
 11 17  2  0  0  0  0
 12 16  2  0  0  0  0
 13  3  2  0  0  0  0
 13  1  1  0  0  0  0
 14  7  2  0  0  0  0
 14 13  1  0  0  0  0
 17 15  1  0  0  0  0
 17 19  1  0  0  0  0
 18  9  1  0  0  0  0
 19 20  1  0  0  0  0
 20 21  1  0  0  0  0
 22 23  1  0  0  0  0
 22 21  1  0  0  0  0
 23 24  1  0  0  0  0
 24 25  1  0  0  0  0
M  END
>  <MODEL>
4

>  <REMARK>
 VINA RESULT:      -9.4      3.022      6.741
  Name = 
  6 active torsions:
  status: ('A' for Active; 'I' for Inactive)
    1  A    between atoms: O_2  and  C_7
    2  A    between atoms: O_2  and  C_25
    3  A    between atoms: C_6  and  N_15
    4  A    between atoms: C_6  and  C_23
    5  A    between atoms: N_15  and  C_21
    6  A    between atoms: C_21  and  C_25
                            x       y       z     vdW  Elec       q    Type
                         _______ _______ _______ _____ _____    ______ ____

>  <TORSDO>
F 6

$$$$
=
 OpenBabel11052412473D

 25 28  0  0  1  0  0  0  0  0999 V2000
  189.5210  177.4280  143.8860 C   0  0  0  0  0  0  0  0  0  0  0  0
  188.7820  178.1230  144.9860 C   0  0  1  0  0  3  0  0  0  0  0  0
  191.2660  176.5580  145.3350 C   0  0  0  0  0  3  0  0  0  0  0  0
  189.4300  177.5080  142.5710 C   0  0  0  0  0  0  0  0  0  0  0  0
  189.7180  177.4280  139.8150 C   0  0  0  0  0  3  0  0  0  0  0  0
  190.4650  177.0140  146.5000 C   0  0  0  0  0  3  0  0  0  0  0  0
  190.5310  176.8720  142.0050 C   0  0  0  0  0  0  0  0  0  0  0  0
  190.6930  176.8160  140.6220 C   0  0  0  0  0  3  0  0  0  0  0  0
  188.4530  178.0020  147.5210 C   0  0  0  0  0  0  0  0  0  0  0  0
  189.0110  178.0670  148.9020 C   0  0  0  0  0  1  0  0  0  0  0  0
  187.2870  177.9690  144.8970 C   0  0  0  0  0  3  0  0  0  0  0  0
  188.6150  178.0860  140.3940 C   0  0  0  0  0  3  0  0  0  0  0  0
  190.7690  176.7470  144.1160 C   0  0  0  0  0  0  0  0  0  0  0  0
  191.3740  176.3980  142.8740 N   0  0  0  0  0  0  0  0  0  0  0  0
  187.1380  178.1700  147.3390 C   0  0  0  0  0  3  0  0  0  0  0  0
  188.4630  178.1370  141.7890 C   0  0  0  0  0  3  0  0  0  0  0  0
  186.5260  178.0540  145.9950 C   0  0  0  0  0  0  0  0  0  0  0  0
  189.3030  177.6890  146.3540 C   0  0  0  0  0  0  0  0  0  0  0  0
  185.0440  178.0000  145.8650 C   0  0  0  0  0  2  0  0  0  0  0  0
  184.5420  179.2950  145.4390 N   0  0  0  0  0  2  0  0  0  0  0  0
  183.3160  179.0460  144.7020 C   0  0  0  0  0  2  0  0  0  0  0  0
  183.6440  178.4910  143.3290 C   0  0  0  0  0  2  0  0  0  0  0  0
  184.5980  179.2980  142.7060 O   0  0  0  0  0  0  0  0  0  0  0  0
  184.8490  178.6680  141.4890 C   0  0  0  0  0  2  0  0  0  0  0  0
  185.1550  179.6260  140.5240 O   0  0  0  0  0  1  0  0  0  0  0  0
  1 13  1  0  0  0  0
  1  2  1  0  0  0  0
  2 11  1  1  0  0  0
  2 18  1  0  0  0  0
  3  6  1  0  0  0  0
  4  1  2  0  0  0  0
  5 12  1  0  0  0  0
  5  8  2  0  0  0  0
  7  4  1  0  0  0  0
  7 14  2  0  0  0  0
  8  7  1  0  0  0  0
  9 10  1  0  0  0  0
 11 17  2  0  0  0  0
 12 16  2  0  0  0  0
 13  3  2  0  0  0  0
 14 13  1  0  0  0  0
 15  9  2  0  0  0  0
 16  4  1  0  0  0  0
 17 15  1  0  0  0  0
 18  6  2  0  0  0  0
 18  9  1  0  0  0  0
 19 17  1  0  0  0  0
 20 19  1  0  0  0  0
 21 20  1  0  0  0  0
 22 21  1  0  0  0  0
 23 22  1  0  0  0  0
 24 23  1  0  0  0  0
 25 24  1  0  0  0  0
M  END
>  <MODEL>
5

>  <REMARK>
 VINA RESULT:      -8.9      1.584      5.325
  Name = 
  6 active torsions:
  status: ('A' for Active; 'I' for Inactive)
    1  A    between atoms: O_2  and  C_7
    2  A    between atoms: O_2  and  C_25
    3  A    between atoms: C_6  and  N_15
    4  A    between atoms: C_6  and  C_23
    5  A    between atoms: N_15  and  C_21
    6  A    between atoms: C_21  and  C_25
                            x       y       z     vdW  Elec       q    Type
                         _______ _______ _______ _____ _____    ______ ____

>  <TORSDO>
F 6

$$$$
=
 OpenBabel11052412473D

 25 28  0  0  1  0  0  0  0  0999 V2000
  187.6580  177.8970  142.2660 C   0  0  0  0  0  0  0  0  0  0  0  0
  187.3720  177.3540  143.6300 C   0  0  1  0  0  3  0  0  0  0  0  0
  185.5810  179.1460  142.1060 C   0  0  0  0  0  3  0  0  0  0  0  0
  188.5620  177.5760  141.3570 C   0  0  0  0  0  0  0  0  0  0  0  0
  190.1460  177.1850  139.1160 C   0  0  0  0  0  3  0  0  0  0  0  0
  185.3410  178.8440  143.5400 C   0  0  0  0  0  3  0  0  0  0  0  0
  188.2250  178.1850  140.1530 C   0  0  0  0  0  0  0  0  0  0  0  0
  189.0090  178.0060  139.0150 C   0  0  0  0  0  3  0  0  0  0  0  0
  185.9970  177.8990  145.7190 C   0  0  0  0  0  0  0  0  0  0  0  0
  184.6790  178.1260  146.3760 C   0  0  0  0  0  1  0  0  0  0  0  0
  188.5650  177.3710  144.5470 C   0  0  0  0  0  3  0  0  0  0  0  0
  190.4720  176.5550  140.3340 C   0  0  0  0  0  3  0  0  0  0  0  0
  186.7050  178.7040  141.5490 C   0  0  0  0  0  0  0  0  0  0  0  0
  187.1210  178.8710  140.1960 N   0  0  0  0  0  0  0  0  0  0  0  0
  187.0610  177.5980  146.4730 C   0  0  0  0  0  3  0  0  0  0  0  0
  189.6740  176.7430  141.4740 C   0  0  0  0  0  3  0  0  0  0  0  0
  188.4050  177.4240  145.8750 C   0  0  0  0  0  0  0  0  0  0  0  0
  186.1780  178.0640  144.2610 C   0  0  0  0  0  0  0  0  0  0  0  0
  189.5970  177.3370  146.7620 C   0  0  0  0  0  2  0  0  0  0  0  0
  190.7980  177.6310  145.9990 N   0  0  0  0  0  2  0  0  0  0  0  0
  191.5810  176.4090  145.9650 C   0  0  0  0  0  2  0  0  0  0  0  0
  191.8160  175.9080  147.3780 C   0  0  0  0  0  2  0  0  0  0  0  0
  192.3910  176.9190  148.1500 O   0  0  0  0  0  0  0  0  0  0  0  0
  193.1540  176.2420  149.1010 C   0  0  0  0  0  2  0  0  0  0  0  0
  193.9830  177.1460  149.7610 O   0  0  0  0  0  1  0  0  0  0  0  0
  1  2  1  0  0  0  0
  2 18  1  0  0  0  0
  2 11  1  1  0  0  0
  3  6  1  0  0  0  0
  4 16  1  0  0  0  0
  4  1  2  0  0  0  0
  5 12  1  0  0  0  0
  6 18  2  0  0  0  0
  7 14  2  0  0  0  0
  7  4  1  0  0  0  0
  8  5  2  0  0  0  0
  8  7  1  0  0  0  0
  9 10  1  0  0  0  0
  9 15  2  0  0  0  0
 11 17  2  0  0  0  0
 12 16  2  0  0  0  0
 13  3  2  0  0  0  0
 13  1  1  0  0  0  0
 14 13  1  0  0  0  0
 17 15  1  0  0  0  0
 17 19  1  0  0  0  0
 18  9  1  0  0  0  0
 20 19  1  0  0  0  0
 21 20  1  0  0  0  0
 21 22  1  0  0  0  0
 22 23  1  0  0  0  0
 23 24  1  0  0  0  0
 24 25  1  0  0  0  0
M  END
>  <MODEL>
6

>  <REMARK>
 VINA RESULT:      -8.6      3.475      6.600
  Name = 
  6 active torsions:
  status: ('A' for Active; 'I' for Inactive)
    1  A    between atoms: O_2  and  C_7
    2  A    between atoms: O_2  and  C_25
    3  A    between atoms: C_6  and  N_15
    4  A    between atoms: C_6  and  C_23
    5  A    between atoms: N_15  and  C_21
    6  A    between atoms: C_21  and  C_25
                            x       y       z     vdW  Elec       q    Type
                         _______ _______ _______ _____ _____    ______ ____

>  <TORSDO>
F 6

$$$$
=
 OpenBabel11052412473D

 25 28  0  0  1  0  0  0  0  0999 V2000
  186.4000  178.0830  144.5980 C   0  0  0  0  0  0  0  0  0  0  0  0
  187.5750  177.2830  144.1310 C   0  0  1  0  0  3  0  0  0  0  0  0
  187.1920  178.2860  146.8860 C   0  0  0  0  0  3  0  0  0  0  0  0
  185.2230  178.3300  144.0510 C   0  0  0  0  0  0  0  0  0  0  0  0
  182.6150  179.0040  143.3980 C   0  0  0  0  0  3  0  0  0  0  0  0
  188.4870  177.7100  146.4420 C   0  0  0  0  0  3  0  0  0  0  0  0
  184.3880  178.8880  145.0130 C   0  0  0  0  0  0  0  0  0  0  0  0
  183.0750  179.2390  144.7060 C   0  0  0  0  0  3  0  0  0  0  0  0
  190.0290  176.8590  144.7190 C   0  0  0  0  0  0  0  0  0  0  0  0
  191.0640  176.3810  145.6790 C   0  0  0  0  0  1  0  0  0  0  0  0
  188.0860  177.6990  142.7780 C   0  0  0  0  0  3  0  0  0  0  0  0
  183.4600  178.4210  142.4330 C   0  0  0  0  0  3  0  0  0  0  0  0
  186.2400  178.4740  145.9750 C   0  0  0  0  0  0  0  0  0  0  0  0
  184.9330  178.9980  146.1890 N   0  0  0  0  0  0  0  0  0  0  0  0
  190.3370  176.9590  143.4210 C   0  0  0  0  0  3  0  0  0  0  0  0
  184.7810  178.0710  142.7540 C   0  0  0  0  0  3  0  0  0  0  0  0
  189.3640  177.4880  142.4370 C   0  0  0  0  0  0  0  0  0  0  0  0
  188.6900  177.2910  145.1720 C   0  0  0  0  0  0  0  0  0  0  0  0
  189.8180  177.8160  141.0590 C   0  0  0  0  0  2  0  0  0  0  0  0
  188.6850  177.7940  140.1500 N   0  0  0  0  0  2  0  0  0  0  0  0
  189.1710  178.2650  138.8650 C   0  0  0  0  0  2  0  0  0  0  0  0
  189.5840  177.0850  138.0070 C   0  0  0  0  0  2  0  0  0  0  0  0
  190.9610  177.1190  137.7830 O   0  0  0  0  0  0  0  0  0  0  0  0
  191.2710  175.8430  137.3150 C   0  0  0  0  0  2  0  0  0  0  0  0
  190.5930  174.8920  138.0750 O   0  0  0  0  0  1  0  0  0  0  0  0
  1 13  1  0  0  0  0
  2 11  1  6  0  0  0
  2  1  1  0  0  0  0
  2 18  1  0  0  0  0
  4  1  2  0  0  0  0
  4  7  1  0  0  0  0
  5  8  2  0  0  0  0
  6  3  1  0  0  0  0
  7 14  2  0  0  0  0
  8  7  1  0  0  0  0
  9 18  1  0  0  0  0
  9 10  1  0  0  0  0
 12 16  2  0  0  0  0
 12  5  1  0  0  0  0
 13 14  1  0  0  0  0
 13  3  2  0  0  0  0
 15  9  2  0  0  0  0
 16  4  1  0  0  0  0
 17 11  2  0  0  0  0
 17 15  1  0  0  0  0
 18  6  2  0  0  0  0
 19 17  1  0  0  0  0
 20 19  1  0  0  0  0
 21 20  1  0  0  0  0
 22 21  1  0  0  0  0
 23 22  1  0  0  0  0
 24 23  1  0  0  0  0
 24 25  1  0  0  0  0
M  END
>  <MODEL>
7

>  <REMARK>
 VINA RESULT:      -8.6      1.737      2.092
  Name = 
  6 active torsions:
  status: ('A' for Active; 'I' for Inactive)
    1  A    between atoms: O_2  and  C_7
    2  A    between atoms: O_2  and  C_25
    3  A    between atoms: C_6  and  N_15
    4  A    between atoms: C_6  and  C_23
    5  A    between atoms: N_15  and  C_21
    6  A    between atoms: C_21  and  C_25
                            x       y       z     vdW  Elec       q    Type
                         _______ _______ _______ _____ _____    ______ ____

>  <TORSDO>
F 6

$$$$
=
 OpenBabel11052412473D

 25 28  0  0  1  0  0  0  0  0999 V2000
  189.3630  177.4020  144.2100 C   0  0  0  0  0  0  0  0  0  0  0  0
  188.8880  177.0920  142.8250 C   0  0  0  0  0  0  0  0  0  0  0  0
  191.7210  177.1740  143.6700 C   0  0  0  0  0  3  0  0  0  0  0  0
  188.7300  177.4740  145.3670 C   0  0  0  0  0  0  0  0  0  0  0  0
  187.8960  177.6000  148.0080 C   0  0  0  0  0  3  0  0  0  0  0  0
  191.3400  177.0960  142.2370 C   0  0  0  0  0  3  0  0  0  0  0  0
  189.6710  177.5130  146.3920 C   0  0  0  0  0  0  0  0  0  0  0  0
  189.2730  177.5820  147.7260 C   0  0  0  0  0  3  0  0  0  0  0  0
  189.6990  177.1760  140.3990 C   0  0  0  0  0  0  0  0  0  0  0  0
  190.6520  176.7400  139.3390 C   0  0  0  0  0  1  0  0  0  0  0  0
  187.7640  177.9780  142.3630 C   0  0  0  0  0  3  0  0  0  0  0  0
  186.9480  177.5410  146.9660 C   0  0  0  0  0  3  0  0  0  0  0  0
  190.7570  177.3480  144.5700 C   0  0  0  0  0  0  0  0  0  0  0  0
  190.9030  177.4370  145.9840 N   0  0  0  0  0  0  0  0  0  0  0  0
  188.5210  177.7020  140.0440 C   0  0  0  0  0  3  0  0  0  0  0  0
  187.3600  177.4720  145.6260 C   0  0  0  0  0  3  0  0  0  0  0  0
  187.5660  178.2070  141.0580 C   0  0  0  0  0  0  0  0  0  0  0  0
  190.0490  177.1060  141.8340 C   0  0  2  0  0  3  0  0  0  0  0  0
  186.3880  179.0030  140.6230 C   0  0  0  0  0  2  0  0  0  0  0  0
  185.5040  179.2300  141.7540 N   0  0  0  0  0  2  0  0  0  0  0  0
  184.2270  178.6260  141.4140 C   0  0  0  0  0  2  0  0  0  0  0  0
  183.3070  178.6540  142.6200 C   0  0  0  0  0  2  0  0  0  0  0  0
  183.9000  179.3820  143.6530 O   0  0  0  0  0  0  0  0  0  0  0  0
  183.2110  178.9870  144.7990 C   0  0  0  0  0  2  0  0  0  0  0  0
  184.0770  179.0070  145.8910 O   0  0  0  0  0  1  0  0  0  0  0  0
  1 13  1  0  0  0  0
  1  4  1  0  0  0  0
  2  1  2  0  0  0  0
  3 13  1  0  0  0  0
  4 16  2  0  0  0  0
  4  7  1  0  0  0  0
  6  3  2  0  0  0  0
  7  8  2  0  0  0  0
  8  5  1  0  0  0  0
  9 18  1  0  0  0  0
 10  9  1  0  0  0  0
 11  2  1  0  0  0  0
 12  5  2  0  0  0  0
 13 14  2  0  0  0  0
 14  7  1  0  0  0  0
 15  9  2  0  0  0  0
 15 17  1  0  0  0  0
 16 12  1  0  0  0  0
 17 11  2  0  0  0  0
 18  6  1  1  0  0  0
 18  2  1  0  0  0  0
 19 17  1  0  0  0  0
 19 20  1  0  0  0  0
 21 20  1  0  0  0  0
 21 22  1  0  0  0  0
 22 23  1  0  0  0  0
 23 24  1  0  0  0  0
 24 25  1  0  0  0  0
M  END
>  <MODEL>
8

>  <REMARK>
 VINA RESULT:      -8.3      2.676      5.676
  Name = 
  6 active torsions:
  status: ('A' for Active; 'I' for Inactive)
    1  A    between atoms: O_2  and  C_7
    2  A    between atoms: O_2  and  C_25
    3  A    between atoms: C_6  and  N_15
    4  A    between atoms: C_6  and  C_23
    5  A    between atoms: N_15  and  C_21
    6  A    between atoms: C_21  and  C_25
                            x       y       z     vdW  Elec       q    Type
                         _______ _______ _______ _____ _____    ______ ____

>  <TORSDO>
F 6

$$$$
=
 OpenBabel11052412473D

 25 28  0  0  1  0  0  0  0  0999 V2000
  186.1080  178.4120  142.5850 C   0  0  0  0  0  0  0  0  0  0  0  0
  187.5010  178.4650  142.0390 C   0  0  0  0  0  0  0  0  0  0  0  0
  185.0360  178.8020  140.4400 C   0  0  0  0  0  3  0  0  0  0  0  0
  185.6400  178.4450  143.8200 C   0  0  0  0  0  0  0  0  0  0  0  0
  184.1870  178.6220  146.1730 C   0  0  0  0  0  3  0  0  0  0  0  0
  186.3630  178.6290  139.7950 C   0  0  0  0  0  3  0  0  0  0  0  0
  184.2660  178.6550  143.7730 C   0  0  1  0  0  3  0  0  0  0  0  0
  183.5150  178.7420  144.9440 C   0  0  0  0  0  3  0  0  0  0  0  0
  188.7710  178.1110  139.8460 C   0  0  0  0  0  0  0  0  0  0  0  0
  189.0260  178.4820  138.4250 C   0  0  0  0  0  1  0  0  0  0  0  0
  188.4090  177.4080  142.6060 C   0  0  0  0  0  3  0  0  0  0  0  0
  185.5820  178.4290  146.2140 C   0  0  0  0  0  3  0  0  0  0  0  0
  184.9540  178.6620  141.7600 C   0  0  0  0  0  0  0  0  0  0  0  0
  183.7910  178.7980  142.5720 N   0  0  0  0  0  0  0  0  0  0  0  0
  189.6990  177.4190  140.5180 C   0  0  0  0  0  3  0  0  0  0  0  0
  186.3290  178.3430  145.0280 C   0  0  0  0  0  3  0  0  0  0  0  0
  189.4670  176.9720  141.9110 C   0  0  0  0  0  0  0  0  0  0  0  0
  187.4910  178.4260  140.5130 C   0  0  0  0  0  0  0  0  0  0  0  0
  190.4060  176.0020  142.5360 C   0  0  0  0  0  2  0  0  0  0  0  0
  191.4520  176.7190  143.2460 N   0  0  0  0  0  2  0  0  0  0  0  0
  191.6760  176.0060  144.4910 C   0  0  0  0  0  2  0  0  0  0  0  0
  191.5170  176.9540  145.6640 C   0  0  0  0  0  2  0  0  0  0  0  0
  190.1650  177.2350  145.8670 O   0  0  0  0  0  0  0  0  0  0  0  0
  189.9020  176.7750  147.1570 C   0  0  0  0  0  2  0  0  0  0  0  0
  188.7310  177.3630  147.6300 O   0  0  0  0  0  1  0  0  0  0  0  0
  1  4  2  0  0  0  0
  2  1  1  0  0  0  0
  2 11  1  0  0  0  0
  3 13  1  0  0  0  0
  4 16  1  0  0  0  0
  5 12  1  0  0  0  0
  6  3  2  0  0  0  0
  6 18  1  0  0  0  0
  7  4  1  0  0  0  0
  7  8  1  1  0  0  0
  8  5  2  0  0  0  0
  9 18  1  0  0  0  0
  9 15  2  0  0  0  0
 10  9  1  0  0  0  0
 13 14  2  0  0  0  0
 13  1  1  0  0  0  0
 14  7  1  0  0  0  0
 15 17  1  0  0  0  0
 16 12  2  0  0  0  0
 17 19  1  0  0  0  0
 17 11  2  0  0  0  0
 18  2  2  0  0  0  0
 19 20  1  0  0  0  0
 20 21  1  0  0  0  0
 21 22  1  0  0  0  0
 22 23  1  0  0  0  0
 23 24  1  0  0  0  0
 24 25  1  0  0  0  0
M  END
>  <MODEL>
9

>  <REMARK>
 VINA RESULT:      -8.1      2.700      5.448
  Name = 
  6 active torsions:
  status: ('A' for Active; 'I' for Inactive)
    1  A    between atoms: O_2  and  C_7
    2  A    between atoms: O_2  and  C_25
    3  A    between atoms: C_6  and  N_15
    4  A    between atoms: C_6  and  C_23
    5  A    between atoms: N_15  and  C_21
    6  A    between atoms: C_21  and  C_25
                            x       y       z     vdW  Elec       q    Type
                         _______ _______ _______ _____ _____    ______ ____

>  <TORSDO>
F 6

$$$$
