=
 OpenBabel11052414003D

 34 37  0  0  1  0  0  0  0  0999 V2000
  181.5290  178.4790  140.5580 C   0  0  2  0  0  3  0  0  0  0  0  0
  183.8610  178.5140  141.6580 C   0  0  2  0  0  3  0  0  0  0  0  0
  185.0860  177.8460  141.7270 O   0  0  0  0  0  1  0  0  0  0  0  0
  181.1250  179.3530  141.7530 C   0  0  0  0  0  2  0  0  0  0  0  0
  181.0910  178.7610  144.0290 O   0  0  0  0  0  0  0  0  0  0  0  0
  183.2470  178.5800  143.0610 C   0  0  2  0  0  3  0  0  0  0  0  0
  182.9170  177.7940  140.6830 C   0  0  2  0  0  3  0  0  0  0  0  0
  181.7700  178.8920  143.0230 C   0  0  0  0  0  0  0  0  0  0  0  0
  181.9820  180.4700  139.0720 C   0  0  0  0  0  2  0  0  0  0  0  0
  180.6750  178.6920  138.1320 C   0  0  0  0  0  0  0  0  0  0  0  0
  181.3880  181.0920  137.8100 C   0  0  1  0  0  3  0  0  0  0  0  0
  180.7600  179.7640  136.7210 S   0  0  0  0  0  0  0  0  0  0  0  0
  181.3320  179.1940  139.2940 N   0  0  0  0  0  0  0  0  0  0  0  0
  180.2510  182.0200  138.1880 C   0  0  0  0  0  1  0  0  0  0  0  0
  179.5940  177.4600  138.1770 S   0  0  0  0  0  0  0  0  0  0  0  0
  183.1310  176.4560  138.7180 O   0  0  0  0  0  0  0  0  0  0  0  0
  184.5910  178.2710  138.8340 N   0  0  0  0  0  2  0  0  0  0  0  0
  183.5510  177.4510  139.3650 C   0  0  0  0  0  0  0  0  0  0  0  0
  185.2010  178.0210  137.5400 C   0  0  0  0  0  2  0  0  0  0  0  0
  187.4950  177.3400  135.5920 F   0  0  0  0  0  0  0  0  0  0  0  0
  186.6800  178.1700  137.6540 C   0  0  0  0  0  0  0  0  0  0  0  0
  187.4860  178.4590  136.4060 C   0  0  1  0  0  3  0  0  0  0  0  0
  189.5270  177.9700  137.7740 C   0  0  0  0  0  2  0  0  0  0  0  0
  188.7400  178.1390  139.0690 C   0  0  0  0  0  2  0  0  0  0  0  0
  187.2610  177.9650  138.8470 C   0  0  0  0  0  3  0  0  0  0  0  0
  188.9260  178.8790  136.7110 C   0  0  0  0  0  2  0  0  0  0  0  0
  184.0010  179.6140  143.8930 C   0  0  0  0  0  2  0  0  0  0  0  0
  186.9890  177.8600  145.2870 C   0  0  0  0  0  0  0  0  0  0  0  0
  186.6780  177.7540  146.6440 C   0  0  0  0  0  3  0  0  0  0  0  0
  184.9250  178.9580  144.8620 C   0  0  0  0  0  0  0  0  0  0  0  0
  185.4640  178.2650  147.1080 C   0  0  0  0  0  3  0  0  0  0  0  0
  186.1140  178.4550  144.4310 N   0  0  0  0  0  0  0  0  0  0  0  0
  184.5790  178.8720  146.2150 C   0  0  0  0  0  3  0  0  0  0  0  0
  188.2220  177.3470  144.7990 N   0  0  0  0  0  1  0  0  0  0  0  0
  1 13  1  6  0  0  0
  1  7  1  0  0  0  0
  1  4  1  0  0  0  0
  2  3  1  1  0  0  0
  2  6  1  0  0  0  0
  4  8  1  0  0  0  0
  6 27  1  1  0  0  0
  7 18  1  6  0  0  0
  7  2  1  0  0  0  0
  8  6  1  0  0  0  0
  8  5  2  0  0  0  0
  9 13  1  0  0  0  0
 10 15  2  0  0  0  0
 10 13  1  0  0  0  0
 11 14  1  1  0  0  0
 11  9  1  0  0  0  0
 12 11  1  0  0  0  0
 12 10  1  0  0  0  0
 16 18  2  0  0  0  0
 17 18  1  0  0  0  0
 19 21  1  0  0  0  0
 19 17  1  0  0  0  0
 21 25  2  0  0  0  0
 22 20  1  6  0  0  0
 22 26  1  0  0  0  0
 22 21  1  0  0  0  0
 23 24  1  0  0  0  0
 25 24  1  0  0  0  0
 26 23  1  0  0  0  0
 27 30  1  0  0  0  0
 28 29  1  0  0  0  0
 29 31  2  0  0  0  0
 30 33  2  0  0  0  0
 32 30  1  0  0  0  0
 32 28  2  0  0  0  0
 33 31  1  0  0  0  0
 34 28  1  0  0  0  0
M  END
>  <MODEL>
1

>  <REMARK>
 VINA RESULT:      -7.5      0.000      0.000
  Name = 
  6 active torsions:
  status: ('A' for Active; 'I' for Inactive)
    1  A    between atoms: C_3  and  C_13
    2  A    between atoms: C_3  and  N_17
    3  A    between atoms: C_4  and  N_15
    4  A    between atoms: C_12  and  C_28
    5  A    between atoms: C_26  and  C_28
    6  A    between atoms: C_29  and  C_31
                            x       y       z     vdW  Elec       q    Type
                         _______ _______ _______ _____ _____    ______ ____

>  <TORSDO>
F 6

$$$$
=
 OpenBabel11052414003D

 34 37  0  0  1  0  0  0  0  0999 V2000
  190.3770  177.2940  139.7710 C   0  0  2  0  0  3  0  0  0  0  0  0
  188.1170  177.6300  140.9670 C   0  0  2  0  0  3  0  0  0  0  0  0
  187.0270  178.4950  141.0970 O   0  0  0  0  0  1  0  0  0  0  0  0
  190.6730  176.3390  140.9350 C   0  0  0  0  0  2  0  0  0  0  0  0
  190.8960  176.8690  143.2160 O   0  0  0  0  0  0  0  0  0  0  0  0
  188.7660  177.4320  142.3420 C   0  0  2  0  0  3  0  0  0  0  0  0
  189.1310  178.2010  139.9630 C   0  0  2  0  0  3  0  0  0  0  0  0
  190.1650  176.8760  142.2380 C   0  0  0  0  0  0  0  0  0  0  0  0
  189.1800  176.0200  137.9480 C   0  0  0  0  0  2  0  0  0  0  0  0
  191.4990  176.5100  137.5830 C   0  0  0  0  0  0  0  0  0  0  0  0
  189.5530  175.1240  136.7690 C   0  0  1  0  0  3  0  0  0  0  0  0
  191.1290  175.7030  136.0460 S   0  0  0  0  0  0  0  0  0  0  0  0
  190.4010  176.5830  138.4890 N   0  0  0  0  0  0  0  0  0  0  0  0
  189.7060  173.6940  137.2460 C   0  0  0  0  0  1  0  0  0  0  0  0
  193.0540  176.7570  138.0400 S   0  0  0  0  0  0  0  0  0  0  0  0
  189.1360  179.5030  137.9620 O   0  0  0  0  0  0  0  0  0  0  0  0
  187.2540  178.1550  138.2540 N   0  0  0  0  0  2  0  0  0  0  0  0
  188.5140  178.6740  138.6780 C   0  0  0  0  0  0  0  0  0  0  0  0
  186.6360  178.5330  136.9950 C   0  0  0  0  0  2  0  0  0  0  0  0
  184.2970  177.0680  138.3740 F   0  0  0  0  0  0  0  0  0  0  0  0
  185.7410  177.4340  136.5340 C   0  0  0  0  0  0  0  0  0  0  0  0
  184.3120  177.3950  137.0300 C   0  0  1  0  0  3  0  0  0  0  0  0
  184.1800  175.0890  136.0590 C   0  0  0  0  0  2  0  0  0  0  0  0
  185.4170  175.3420  135.2040 C   0  0  0  0  0  2  0  0  0  0  0  0
  186.2530  176.4650  135.7570 C   0  0  0  0  0  3  0  0  0  0  0  0
  183.4390  176.4050  136.2540 C   0  0  0  0  0  2  0  0  0  0  0  0
  187.8800  176.5240  143.1900 C   0  0  0  0  0  2  0  0  0  0  0  0
  185.7540  178.3910  145.6280 C   0  0  0  0  0  0  0  0  0  0  0  0
  186.5780  178.4740  146.7520 C   0  0  0  0  0  3  0  0  0  0  0  0
  187.4390  177.2110  144.4370 C   0  0  0  0  0  0  0  0  0  0  0  0
  187.8540  177.9100  146.7070 C   0  0  0  0  0  3  0  0  0  0  0  0
  186.1970  177.7650  144.5030 N   0  0  0  0  0  0  0  0  0  0  0  0
  188.2910  177.2730  145.5450 C   0  0  0  0  0  3  0  0  0  0  0  0
  184.4510  178.9580  145.6580 N   0  0  0  0  0  1  0  0  0  0  0  0
  1 13  1  6  0  0  0
  1  7  1  0  0  0  0
  1  4  1  0  0  0  0
  2  3  1  1  0  0  0
  2  6  1  0  0  0  0
  4  8  1  0  0  0  0
  6 27  1  1  0  0  0
  7 18  1  6  0  0  0
  7  2  1  0  0  0  0
  8  6  1  0  0  0  0
  8  5  2  0  0  0  0
  9 13  1  0  0  0  0
 10 15  2  0  0  0  0
 10 13  1  0  0  0  0
 11 14  1  1  0  0  0
 11  9  1  0  0  0  0
 12 11  1  0  0  0  0
 12 10  1  0  0  0  0
 16 18  2  0  0  0  0
 17 18  1  0  0  0  0
 19 17  1  0  0  0  0
 21 19  1  0  0  0  0
 21 22  1  0  0  0  0
 22 20  1  1  0  0  0
 23 26  1  0  0  0  0
 24 25  1  0  0  0  0
 24 23  1  0  0  0  0
 25 21  2  0  0  0  0
 26 22  1  0  0  0  0
 27 30  1  0  0  0  0
 28 34  1  0  0  0  0
 28 29  1  0  0  0  0
 30 32  1  0  0  0  0
 30 33  2  0  0  0  0
 31 29  2  0  0  0  0
 32 28  2  0  0  0  0
 33 31  1  0  0  0  0
M  END
>  <MODEL>
2

>  <REMARK>
 VINA RESULT:      -7.4      4.420      6.907
  Name = 
  6 active torsions:
  status: ('A' for Active; 'I' for Inactive)
    1  A    between atoms: C_3  and  C_13
    2  A    between atoms: C_3  and  N_17
    3  A    between atoms: C_4  and  N_15
    4  A    between atoms: C_12  and  C_28
    5  A    between atoms: C_26  and  C_28
    6  A    between atoms: C_29  and  C_31
                            x       y       z     vdW  Elec       q    Type
                         _______ _______ _______ _____ _____    ______ ____

>  <TORSDO>
F 6

$$$$
=
 OpenBabel11052414003D

 34 37  0  0  1  0  0  0  0  0999 V2000
  189.4250  176.5030  136.0650 C   0  0  2  0  0  3  0  0  0  0  0  0
  191.1360  176.1620  137.9640 C   0  0  2  0  0  3  0  0  0  0  0  0
  191.8180  176.8090  138.9970 O   0  0  0  0  0  1  0  0  0  0  0  0
  190.0550  175.2310  135.4810 C   0  0  0  0  0  2  0  0  0  0  0  0
  192.2560  174.9340  134.7080 O   0  0  0  0  0  0  0  0  0  0  0  0
  192.1560  175.5540  136.9940 C   0  0  2  0  0  3  0  0  0  0  0  0
  190.2140  177.1510  137.2350 C   0  0  2  0  0  3  0  0  0  0  0  0
  191.5420  175.2150  135.6580 C   0  0  0  0  0  0  0  0  0  0  0  0
  187.5830  175.2380  137.2430 C   0  0  0  0  0  2  0  0  0  0  0  0
  186.9310  177.1610  135.9660 C   0  0  0  0  0  0  0  0  0  0  0  0
  186.0660  175.0980  137.1360 C   0  0  1  0  0  3  0  0  0  0  0  0
  185.3480  176.6980  136.6200 S   0  0  0  0  0  0  0  0  0  0  0  0
  188.0010  176.3010  136.3500 N   0  0  0  0  0  0  0  0  0  0  0  0
  185.7250  174.0340  136.1130 C   0  0  0  0  0  1  0  0  0  0  0  0
  187.0400  178.2250  134.7240 S   0  0  0  0  0  0  0  0  0  0  0  0
  189.0390  179.1500  137.8050 O   0  0  0  0  0  0  0  0  0  0  0  0
  188.9120  177.4470  139.3950 N   0  0  0  0  0  2  0  0  0  0  0  0
  189.3690  177.9850  138.1540 C   0  0  0  0  0  0  0  0  0  0  0  0
  188.0470  178.1860  140.2970 C   0  0  0  0  0  2  0  0  0  0  0  0
  186.5130  178.6170  142.9400 F   0  0  0  0  0  0  0  0  0  0  0  0
  188.3660  177.8120  141.7040 C   0  0  0  0  0  0  0  0  0  0  0  0
  187.2320  177.4720  142.6470 C   0  0  1  0  0  3  0  0  0  0  0  0
  188.9180  177.5780  144.4970 C   0  0  0  0  0  2  0  0  0  0  0  0
  190.0670  177.4610  143.5020 C   0  0  0  0  0  2  0  0  0  0  0  0
  189.6440  177.8660  142.1150 C   0  0  0  0  0  3  0  0  0  0  0  0
  187.7130  176.8250  143.9490 C   0  0  0  0  0  2  0  0  0  0  0  0
  192.7850  174.3180  137.6330 C   0  0  0  0  0  2  0  0  0  0  0  0
  196.2370  175.3300  136.6310 C   0  0  0  0  0  0  0  0  0  0  0  0
  197.0400  174.5170  137.4330 C   0  0  0  0  0  3  0  0  0  0  0  0
  194.2730  174.3730  137.5650 C   0  0  0  0  0  0  0  0  0  0  0  0
  196.4370  173.6190  138.3150 C   0  0  0  0  0  3  0  0  0  0  0  0
  194.8820  175.2430  136.7130 N   0  0  0  0  0  0  0  0  0  0  0  0
  195.0450  173.5430  138.3850 C   0  0  0  0  0  3  0  0  0  0  0  0
  196.8360  176.2510  135.7290 N   0  0  0  0  0  1  0  0  0  0  0  0
  1  4  1  1  0  0  0
  1 13  1  0  0  0  0
  1  7  1  0  0  0  0
  2  3  1  1  0  0  0
  4  8  1  0  0  0  0
  5  8  2  0  0  0  0
  6 27  1  1  0  0  0
  6  2  1  0  0  0  0
  7  2  1  0  0  0  0
  7 18  1  1  0  0  0
  8  6  1  0  0  0  0
 10 13  1  0  0  0  0
 10 12  1  0  0  0  0
 11 14  1  6  0  0  0
 11  9  1  0  0  0  0
 12 11  1  0  0  0  0
 13  9  1  0  0  0  0
 15 10  2  0  0  0  0
 16 18  2  0  0  0  0
 17 19  1  0  0  0  0
 18 17  1  0  0  0  0
 19 21  1  0  0  0  0
 21 25  2  0  0  0  0
 21 22  1  0  0  0  0
 22 20  1  1  0  0  0
 22 26  1  0  0  0  0
 24 23  1  0  0  0  0
 25 24  1  0  0  0  0
 26 23  1  0  0  0  0
 28 32  2  0  0  0  0
 28 29  1  0  0  0  0
 29 31  2  0  0  0  0
 30 27  1  0  0  0  0
 30 33  2  0  0  0  0
 31 33  1  0  0  0  0
 32 30  1  0  0  0  0
 34 28  1  0  0  0  0
M  END
>  <MODEL>
3

>  <REMARK>
 VINA RESULT:      -7.3      5.622      9.585
  Name = 
  6 active torsions:
  status: ('A' for Active; 'I' for Inactive)
    1  A    between atoms: C_3  and  C_13
    2  A    between atoms: C_3  and  N_17
    3  A    between atoms: C_4  and  N_15
    4  A    between atoms: C_12  and  C_28
    5  A    between atoms: C_26  and  C_28
    6  A    between atoms: C_29  and  C_31
                            x       y       z     vdW  Elec       q    Type
                         _______ _______ _______ _____ _____    ______ ____

>  <TORSDO>
F 6

$$$$
=
 OpenBabel11052414003D

 34 37  0  0  1  0  0  0  0  0999 V2000
  189.5080  177.1260  136.2240 C   0  0  2  0  0  3  0  0  0  0  0  0
  191.0180  176.2790  138.1350 C   0  0  2  0  0  3  0  0  0  0  0  0
  191.6290  176.6460  139.3360 O   0  0  0  0  0  1  0  0  0  0  0  0
  190.1300  175.9690  135.4300 C   0  0  0  0  0  2  0  0  0  0  0  0
  192.3770  175.6990  134.7930 O   0  0  0  0  0  0  0  0  0  0  0  0
  192.0940  175.8240  137.1430 C   0  0  2  0  0  3  0  0  0  0  0  0
  190.2150  177.4590  137.5660 C   0  0  2  0  0  3  0  0  0  0  0  0
  191.5910  175.8180  135.7190 C   0  0  0  0  0  0  0  0  0  0  0  0
  187.1760  178.0830  136.0780 C   0  0  0  0  0  2  0  0  0  0  0  0
  187.3570  175.7360  136.5380 C   0  0  0  0  0  0  0  0  0  0  0  0
  185.7700  177.6990  136.5360 C   0  0  1  0  0  3  0  0  0  0  0  0
  185.5890  175.8820  136.4690 S   0  0  0  0  0  0  0  0  0  0  0  0
  188.0560  176.9630  136.3420 N   0  0  0  0  0  0  0  0  0  0  0  0
  185.5490  178.1810  137.9560 C   0  0  0  0  0  1  0  0  0  0  0  0
  188.0570  174.3970  137.1730 S   0  0  0  0  0  0  0  0  0  0  0  0
  189.0420  179.3510  138.4290 O   0  0  0  0  0  0  0  0  0  0  0  0
  188.7810  177.3870  139.6610 N   0  0  0  0  0  2  0  0  0  0  0  0
  189.3280  178.1330  138.5730 C   0  0  0  0  0  0  0  0  0  0  0  0
  187.8740  177.9720  140.6320 C   0  0  0  0  0  2  0  0  0  0  0  0
  186.5880  178.2840  143.4200 F   0  0  0  0  0  0  0  0  0  0  0  0
  188.4100  177.7500  142.0060 C   0  0  0  0  0  0  0  0  0  0  0  0
  187.4710  177.2710  143.0910 C   0  0  1  0  0  3  0  0  0  0  0  0
  189.3010  177.7970  144.7190 C   0  0  0  0  0  2  0  0  0  0  0  0
  190.3350  177.8270  143.5980 C   0  0  0  0  0  2  0  0  0  0  0  0
  189.6930  178.0600  142.2570 C   0  0  0  0  0  3  0  0  0  0  0  0
  188.2050  176.8050  144.3510 C   0  0  0  0  0  2  0  0  0  0  0  0
  192.6010  174.4430  137.5470 C   0  0  0  0  0  2  0  0  0  0  0  0
  196.1040  174.7500  138.8050 C   0  0  0  0  0  0  0  0  0  0  0  0
  196.8610  174.3240  137.7110 C   0  0  0  0  0  3  0  0  0  0  0  0
  194.0910  174.4060  137.5900 C   0  0  0  0  0  0  0  0  0  0  0  0
  196.2090  173.9330  136.5410 C   0  0  0  0  0  3  0  0  0  0  0  0
  194.7460  174.7810  138.7230 N   0  0  0  0  0  0  0  0  0  0  0  0
  194.8160  173.9720  136.4750 C   0  0  0  0  0  3  0  0  0  0  0  0
  196.7530  175.1490  140.0060 N   0  0  0  0  0  1  0  0  0  0  0  0
  1  4  1  1  0  0  0
  1 13  1  0  0  0  0
  1  7  1  0  0  0  0
  2  3  1  1  0  0  0
  4  8  1  0  0  0  0
  5  8  2  0  0  0  0
  6 27  1  1  0  0  0
  6  2  1  0  0  0  0
  7  2  1  0  0  0  0
  7 18  1  1  0  0  0
  8  6  1  0  0  0  0
  9 13  1  0  0  0  0
  9 11  1  0  0  0  0
 10 15  2  0  0  0  0
 11 14  1  1  0  0  0
 12 11  1  0  0  0  0
 12 10  1  0  0  0  0
 13 10  1  0  0  0  0
 16 18  2  0  0  0  0
 17 19  1  0  0  0  0
 18 17  1  0  0  0  0
 19 21  1  0  0  0  0
 21 25  2  0  0  0  0
 21 22  1  0  0  0  0
 22 20  1  1  0  0  0
 22 26  1  0  0  0  0
 24 23  1  0  0  0  0
 25 24  1  0  0  0  0
 26 23  1  0  0  0  0
 27 30  1  0  0  0  0
 28 34  1  0  0  0  0
 29 28  2  0  0  0  0
 30 32  2  0  0  0  0
 31 29  1  0  0  0  0
 32 28  1  0  0  0  0
 33 31  2  0  0  0  0
 33 30  1  0  0  0  0
M  END
>  <MODEL>
4

>  <REMARK>
 VINA RESULT:      -7.3      5.369      9.345
  Name = 
  6 active torsions:
  status: ('A' for Active; 'I' for Inactive)
    1  A    between atoms: C_3  and  C_13
    2  A    between atoms: C_3  and  N_17
    3  A    between atoms: C_4  and  N_15
    4  A    between atoms: C_12  and  C_28
    5  A    between atoms: C_26  and  C_28
    6  A    between atoms: C_29  and  C_31
                            x       y       z     vdW  Elec       q    Type
                         _______ _______ _______ _____ _____    ______ ____

>  <TORSDO>
F 6

$$$$
=
 OpenBabel11052414003D

 34 37  0  0  1  0  0  0  0  0999 V2000
  184.2150  177.6160  137.4450 C   0  0  2  0  0  3  0  0  0  0  0  0
  186.5680  177.2600  138.4380 C   0  0  2  0  0  3  0  0  0  0  0  0
  187.5940  177.8780  139.1560 O   0  0  0  0  0  1  0  0  0  0  0  0
  184.5890  176.4330  136.5410 C   0  0  0  0  0  2  0  0  0  0  0  0
  186.2820  176.3390  134.9130 O   0  0  0  0  0  0  0  0  0  0  0  0
  187.1160  176.7900  137.0850 C   0  0  2  0  0  3  0  0  0  0  0  0
  185.3960  178.2340  138.2430 C   0  0  2  0  0  3  0  0  0  0  0  0
  186.0150  176.5050  136.0920 C   0  0  0  0  0  0  0  0  0  0  0  0
  183.0090  176.0740  139.0410 C   0  0  0  0  0  2  0  0  0  0  0  0
  181.9450  178.1650  138.5420 C   0  0  0  0  0  0  0  0  0  0  0  0
  181.5880  175.8860  139.5680 C   0  0  1  0  0  3  0  0  0  0  0  0
  180.7770  177.5180  139.7120 S   0  0  0  0  0  0  0  0  0  0  0  0
  183.0440  177.3000  138.2680 N   0  0  0  0  0  0  0  0  0  0  0  0
  180.8040  175.0110  138.6110 C   0  0  0  0  0  1  0  0  0  0  0  0
  181.5500  179.4410  137.5920 S   0  0  0  0  0  0  0  0  0  0  0  0
  184.5550  180.1280  139.4290 O   0  0  0  0  0  0  0  0  0  0  0  0
  185.0260  178.2670  140.7550 N   0  0  0  0  0  2  0  0  0  0  0  0
  184.9790  178.9440  139.4990 C   0  0  0  0  0  0  0  0  0  0  0  0
  184.5830  178.8830  141.9930 C   0  0  0  0  0  2  0  0  0  0  0  0
  185.0640  179.9740  144.8390 F   0  0  0  0  0  0  0  0  0  0  0  0
  185.4220  178.3850  143.1210 C   0  0  0  0  0  0  0  0  0  0  0  0
  184.9590  178.6270  144.5410 C   0  0  1  0  0  3  0  0  0  0  0  0
  187.2380  177.8810  145.2670 C   0  0  0  0  0  2  0  0  0  0  0  0
  187.4940  177.2330  143.9110 C   0  0  0  0  0  2  0  0  0  0  0  0
  186.6030  177.8080  142.8430 C   0  0  0  0  0  3  0  0  0  0  0  0
  185.7470  177.8130  145.5710 C   0  0  0  0  0  2  0  0  0  0  0  0
  187.9920  175.5590  137.2970 C   0  0  0  0  0  2  0  0  0  0  0  0
  191.6250  176.3790  137.5700 C   0  0  0  0  0  0  0  0  0  0  0  0
  192.0540  176.3170  136.2430 C   0  0  0  0  0  3  0  0  0  0  0  0
  189.4070  175.8310  136.9160 C   0  0  0  0  0  0  0  0  0  0  0  0
  191.1330  176.0030  135.2410 C   0  0  0  0  0  3  0  0  0  0  0  0
  190.3220  176.1360  137.8770 N   0  0  0  0  0  0  0  0  0  0  0  0
  189.8010  175.7570  135.5750 C   0  0  0  0  0  3  0  0  0  0  0  0
  192.5510  176.6950  138.6020 N   0  0  0  0  0  1  0  0  0  0  0  0
  1  4  1  1  0  0  0
  1  7  1  0  0  0  0
  1 13  1  0  0  0  0
  2  3  1  6  0  0  0
  5  8  2  0  0  0  0
  6 27  1  1  0  0  0
  6  2  1  0  0  0  0
  7  2  1  0  0  0  0
  7 18  1  1  0  0  0
  8  4  1  0  0  0  0
  8  6  1  0  0  0  0
  9 11  1  0  0  0  0
 10 12  1  0  0  0  0
 11 14  1  6  0  0  0
 11 12  1  0  0  0  0
 13 10  1  0  0  0  0
 13  9  1  0  0  0  0
 15 10  2  0  0  0  0
 16 18  2  0  0  0  0
 17 19  1  0  0  0  0
 18 17  1  0  0  0  0
 19 21  1  0  0  0  0
 21 22  1  0  0  0  0
 22 20  1  1  0  0  0
 22 26  1  0  0  0  0
 23 26  1  0  0  0  0
 24 23  1  0  0  0  0
 25 21  2  0  0  0  0
 25 24  1  0  0  0  0
 28 32  1  0  0  0  0
 28 34  1  0  0  0  0
 29 28  2  0  0  0  0
 30 27  1  0  0  0  0
 30 32  2  0  0  0  0
 31 33  2  0  0  0  0
 31 29  1  0  0  0  0
 33 30  1  0  0  0  0
M  END
>  <MODEL>
5

>  <REMARK>
 VINA RESULT:      -7.2      3.289      7.210
  Name = 
  6 active torsions:
  status: ('A' for Active; 'I' for Inactive)
    1  A    between atoms: C_3  and  C_13
    2  A    between atoms: C_3  and  N_17
    3  A    between atoms: C_4  and  N_15
    4  A    between atoms: C_12  and  C_28
    5  A    between atoms: C_26  and  C_28
    6  A    between atoms: C_29  and  C_31
                            x       y       z     vdW  Elec       q    Type
                         _______ _______ _______ _____ _____    ______ ____

>  <TORSDO>
F 6

$$$$
=
 OpenBabel11052414003D

 34 37  0  0  1  0  0  0  0  0999 V2000
  187.1150  178.5750  139.7140 C   0  0  2  0  0  3  0  0  0  0  0  0
  185.8630  178.0020  141.8940 C   0  0  2  0  0  3  0  0  0  0  0  0
  184.8100  178.3920  142.7250 O   0  0  0  0  0  1  0  0  0  0  0  0
  188.2560  177.7600  140.3390 C   0  0  0  0  0  2  0  0  0  0  0  0
  189.4880  178.2560  142.2800 O   0  0  0  0  0  0  0  0  0  0  0  0
  187.1680  178.0130  142.6980 C   0  0  2  0  0  3  0  0  0  0  0  0
  185.9610  178.9440  140.6840 C   0  0  2  0  0  3  0  0  0  0  0  0
  188.3870  178.0230  141.8080 C   0  0  0  0  0  0  0  0  0  0  0  0
  185.5270  177.0710  138.4520 C   0  0  0  0  0  2  0  0  0  0  0  0
  187.1280  178.2930  137.1480 C   0  0  0  0  0  0  0  0  0  0  0  0
  185.4620  176.3960  137.0830 C   0  0  1  0  0  3  0  0  0  0  0  0
  186.2460  177.4820  135.8380 S   0  0  0  0  0  0  0  0  0  0  0  0
  186.6650  177.9690  138.4570 N   0  0  0  0  0  0  0  0  0  0  0  0
  186.1930  175.0700  137.1340 C   0  0  0  0  0  1  0  0  0  0  0  0
  188.5760  179.0030  136.8610 S   0  0  0  0  0  0  0  0  0  0  0  0
  184.5550  180.1280  139.1590 O   0  0  0  0  0  0  0  0  0  0  0  0
  183.5230  178.3600  140.2780 N   0  0  0  0  0  2  0  0  0  0  0  0
  184.6460  179.1960  140.0020 C   0  0  0  0  0  0  0  0  0  0  0  0
  182.2440  178.5220  139.6080 C   0  0  0  0  0  2  0  0  0  0  0  0
  180.7980  181.2440  139.7390 F   0  0  0  0  0  0  0  0  0  0  0  0
  181.2480  179.0730  140.5700 C   0  0  0  0  0  0  0  0  0  0  0  0
  180.1990  180.0400  140.0650 C   0  0  1  0  0  3  0  0  0  0  0  0
  179.6630  180.5030  142.4680 C   0  0  0  0  0  2  0  0  0  0  0  0
  180.3760  179.2280  142.9070 C   0  0  0  0  0  2  0  0  0  0  0  0
  181.3610  178.7580  141.8710 C   0  0  0  0  0  3  0  0  0  0  0  0
  179.0790  180.2860  141.0790 C   0  0  0  0  0  2  0  0  0  0  0  0
  187.1900  176.8110  143.6380 C   0  0  0  0  0  2  0  0  0  0  0  0
  189.0350  177.3780  146.8360 C   0  0  0  0  0  0  0  0  0  0  0  0
  188.0780  178.0100  147.6330 C   0  0  0  0  0  3  0  0  0  0  0  0
  187.4870  177.2260  145.0390 C   0  0  0  0  0  0  0  0  0  0  0  0
  186.8060  178.2510  147.1120 C   0  0  0  0  0  3  0  0  0  0  0  0
  188.7220  177.0030  145.5650 N   0  0  0  0  0  0  0  0  0  0  0  0
  186.5040  177.8580  145.8070 C   0  0  0  0  0  3  0  0  0  0  0  0
  190.3360  177.1280  147.3500 N   0  0  0  0  0  1  0  0  0  0  0  0
  1 13  1  6  0  0  0
  1  4  1  0  0  0  0
  1  7  1  0  0  0  0
  2  6  1  0  0  0  0
  2  3  1  1  0  0  0
  4  8  1  0  0  0  0
  6 27  1  1  0  0  0
  7 18  1  6  0  0  0
  7  2  1  0  0  0  0
  8  5  2  0  0  0  0
  8  6  1  0  0  0  0
  9 13  1  0  0  0  0
 10 13  1  0  0  0  0
 11 14  1  1  0  0  0
 11  9  1  0  0  0  0
 12 11  1  0  0  0  0
 12 10  1  0  0  0  0
 15 10  2  0  0  0  0
 16 18  2  0  0  0  0
 18 17  1  0  0  0  0
 19 17  1  0  0  0  0
 19 21  1  0  0  0  0
 21 25  2  0  0  0  0
 22 20  1  1  0  0  0
 22 21  1  0  0  0  0
 22 26  1  0  0  0  0
 23 24  1  0  0  0  0
 25 24  1  0  0  0  0
 26 23  1  0  0  0  0
 27 30  1  0  0  0  0
 28 34  1  0  0  0  0
 28 29  1  0  0  0  0
 30 32  1  0  0  0  0
 30 33  2  0  0  0  0
 31 29  2  0  0  0  0
 32 28  2  0  0  0  0
 33 31  1  0  0  0  0
M  END
>  <MODEL>
6

>  <REMARK>
 VINA RESULT:      -6.9      3.003      6.048
  Name = 
  6 active torsions:
  status: ('A' for Active; 'I' for Inactive)
    1  A    between atoms: C_3  and  C_13
    2  A    between atoms: C_3  and  N_17
    3  A    between atoms: C_4  and  N_15
    4  A    between atoms: C_12  and  C_28
    5  A    between atoms: C_26  and  C_28
    6  A    between atoms: C_29  and  C_31
                            x       y       z     vdW  Elec       q    Type
                         _______ _______ _______ _____ _____    ______ ____

>  <TORSDO>
F 6

$$$$
=
 OpenBabel11052414003D

 34 37  0  0  1  0  0  0  0  0999 V2000
  189.4420  176.5060  139.5380 C   0  0  2  0  0  3  0  0  0  0  0  0
  191.3490  177.3400  141.0600 C   0  0  2  0  0  3  0  0  0  0  0  0
  192.7000  177.1700  141.3710 O   0  0  0  0  0  1  0  0  0  0  0  0
  188.5300  177.1000  140.6200 C   0  0  0  0  0  2  0  0  0  0  0  0
  188.3050  176.4100  142.8560 O   0  0  0  0  0  0  0  0  0  0  0  0
  190.5100  177.0950  142.3190 C   0  0  2  0  0  3  0  0  0  0  0  0
  190.9380  176.3780  139.9350 C   0  0  2  0  0  3  0  0  0  0  0  0
  189.0580  176.8400  141.9960 C   0  0  0  0  0  0  0  0  0  0  0  0
  189.2400  178.6140  138.1610 C   0  0  0  0  0  2  0  0  0  0  0  0
  189.1580  176.5320  136.9730 C   0  0  0  0  0  0  0  0  0  0  0  0
  188.7260  179.0110  136.7790 C   0  0  1  0  0  3  0  0  0  0  0  0
  189.0500  177.6520  135.6000 S   0  0  0  0  0  0  0  0  0  0  0  0
  189.2260  177.1670  138.2470 N   0  0  0  0  0  0  0  0  0  0  0  0
  187.2360  179.2800  136.8490 C   0  0  0  0  0  1  0  0  0  0  0  0
  188.7940  174.9450  136.7810 S   0  0  0  0  0  0  0  0  0  0  0  0
  192.5370  177.4100  138.4930 O   0  0  0  0  0  0  0  0  0  0  0  0
  192.0650  175.1790  138.0010 N   0  0  0  0  0  2  0  0  0  0  0  0
  191.8820  176.3690  138.7670 C   0  0  0  0  0  0  0  0  0  0  0  0
  193.0050  175.0950  136.8970 C   0  0  0  0  0  2  0  0  0  0  0  0
  192.8050  172.0460  136.4680 F   0  0  0  0  0  0  0  0  0  0  0  0
  193.9710  173.9890  137.1540 C   0  0  0  0  0  0  0  0  0  0  0  0
  193.9580  172.7790  136.2460 C   0  0  1  0  0  3  0  0  0  0  0  0
  195.4590  171.6750  137.9200 C   0  0  0  0  0  2  0  0  0  0  0  0
  195.8090  173.0210  138.5440 C   0  0  0  0  0  2  0  0  0  0  0  0
  194.7700  174.0650  138.2310 C   0  0  0  0  0  3  0  0  0  0  0  0
  195.1800  171.8770  136.4370 C   0  0  0  0  0  2  0  0  0  0  0  0
  190.6570  178.2850  143.2630 C   0  0  0  0  0  2  0  0  0  0  0  0
  191.3870  176.7520  146.5890 C   0  0  0  0  0  0  0  0  0  0  0  0
  190.2620  177.1000  147.3410 C   0  0  0  0  0  3  0  0  0  0  0  0
  190.5040  177.8690  144.6860 C   0  0  0  0  0  0  0  0  0  0  0  0
  189.2460  177.8480  146.7430 C   0  0  0  0  0  3  0  0  0  0  0  0
  191.4840  177.1410  145.2890 N   0  0  0  0  0  0  0  0  0  0  0  0
  189.3640  178.2370  145.4080 C   0  0  0  0  0  3  0  0  0  0  0  0
  192.4310  175.9930  147.1840 N   0  0  0  0  0  1  0  0  0  0  0  0
  1 13  1  6  0  0  0
  1  7  1  0  0  0  0
  1  4  1  0  0  0  0
  2  3  1  1  0  0  0
  2  6  1  0  0  0  0
  4  8  1  0  0  0  0
  6 27  1  1  0  0  0
  7 18  1  6  0  0  0
  7  2  1  0  0  0  0
  8  6  1  0  0  0  0
  8  5  2  0  0  0  0
  9 13  1  0  0  0  0
 10 13  1  0  0  0  0
 11 14  1  1  0  0  0
 11  9  1  0  0  0  0
 12 11  1  0  0  0  0
 12 10  1  0  0  0  0
 15 10  2  0  0  0  0
 16 18  2  0  0  0  0
 17 18  1  0  0  0  0
 19 21  1  0  0  0  0
 19 17  1  0  0  0  0
 21 25  2  0  0  0  0
 22 26  1  0  0  0  0
 22 20  1  1  0  0  0
 22 21  1  0  0  0  0
 23 24  1  0  0  0  0
 25 24  1  0  0  0  0
 26 23  1  0  0  0  0
 27 30  1  0  0  0  0
 28 34  1  0  0  0  0
 28 29  1  0  0  0  0
 30 32  1  0  0  0  0
 30 33  2  0  0  0  0
 31 29  2  0  0  0  0
 32 28  2  0  0  0  0
 33 31  1  0  0  0  0
M  END
>  <MODEL>
7

>  <REMARK>
 VINA RESULT:      -6.9      5.552      7.654
  Name = 
  6 active torsions:
  status: ('A' for Active; 'I' for Inactive)
    1  A    between atoms: C_3  and  C_13
    2  A    between atoms: C_3  and  N_17
    3  A    between atoms: C_4  and  N_15
    4  A    between atoms: C_12  and  C_28
    5  A    between atoms: C_26  and  C_28
    6  A    between atoms: C_29  and  C_31
                            x       y       z     vdW  Elec       q    Type
                         _______ _______ _______ _____ _____    ______ ____

>  <TORSDO>
F 6

$$$$
=
 OpenBabel11052414003D

 34 37  0  0  1  0  0  0  0  0999 V2000
  189.6440  178.2320  140.3490 C   0  0  2  0  0  3  0  0  0  0  0  0
  188.0100  177.3690  142.1480 C   0  0  2  0  0  3  0  0  0  0  0  0
  186.6840  177.4170  142.5840 O   0  0  0  0  0  1  0  0  0  0  0  0
  190.7220  177.8810  141.3840 C   0  0  0  0  0  2  0  0  0  0  0  0
  191.0660  178.8530  143.4970 O   0  0  0  0  0  0  0  0  0  0  0  0
  188.9260  177.8580  143.2770 C   0  0  2  0  0  3  0  0  0  0  0  0
  188.1880  178.2320  140.8900 C   0  0  2  0  0  3  0  0  0  0  0  0
  190.2970  178.2400  142.7740 C   0  0  0  0  0  0  0  0  0  0  0  0
  190.3160  176.0920  139.1890 C   0  0  0  0  0  2  0  0  0  0  0  0
  189.3940  177.8270  137.8130 C   0  0  0  0  0  0  0  0  0  0  0  0
  190.6500  175.6370  137.7690 C   0  0  1  0  0  3  0  0  0  0  0  0
  189.6230  176.5710  136.5800 S   0  0  0  0  0  0  0  0  0  0  0  0
  189.8210  177.4530  139.1200 N   0  0  0  0  0  0  0  0  0  0  0  0
  192.1160  175.8920  137.4860 C   0  0  0  0  0  1  0  0  0  0  0  0
  189.1090  179.3810  137.3750 S   0  0  0  0  0  0  0  0  0  0  0  0
  187.1930  176.9400  139.1460 O   0  0  0  0  0  0  0  0  0  0  0  0
  186.0860  178.9320  139.6480 N   0  0  0  0  0  2  0  0  0  0  0  0
  187.1450  177.9930  139.8360 C   0  0  0  0  0  0  0  0  0  0  0  0
  185.0190  178.7260  138.6840 C   0  0  0  0  0  2  0  0  0  0  0  0
  183.3130  176.7970  140.3830 F   0  0  0  0  0  0  0  0  0  0  0  0
  183.7020  178.8960  139.3610 C   0  0  0  0  0  0  0  0  0  0  0  0
  183.4370  178.1490  140.6490 C   0  0  1  0  0  3  0  0  0  0  0  0
  181.0390  178.8260  140.3920 C   0  0  0  0  0  2  0  0  0  0  0  0
  181.4190  179.9140  139.3930 C   0  0  0  0  0  2  0  0  0  0  0  0
  182.7600  179.6450  138.7640 C   0  0  0  0  0  3  0  0  0  0  0  0
  182.1850  178.6430  141.3780 C   0  0  0  0  0  2  0  0  0  0  0  0
  189.0210  176.7790  144.3510 C   0  0  0  0  0  2  0  0  0  0  0  0
  186.8760  178.2650  147.0230 C   0  0  0  0  0  0  0  0  0  0  0  0
  187.7160  178.2440  148.1390 C   0  0  0  0  0  3  0  0  0  0  0  0
  188.5790  177.2960  145.6780 C   0  0  0  0  0  0  0  0  0  0  0  0
  189.0100  177.7350  148.0090 C   0  0  0  0  0  3  0  0  0  0  0  0
  187.3210  177.7940  145.8260 N   0  0  0  0  0  0  0  0  0  0  0  0
  189.4480  177.2570  146.7730 C   0  0  0  0  0  3  0  0  0  0  0  0
  185.5550  178.7770  147.1390 N   0  0  0  0  0  1  0  0  0  0  0  0
  1 13  1  6  0  0  0
  1  7  1  0  0  0  0
  1  4  1  0  0  0  0
  2  3  1  1  0  0  0
  2  6  1  0  0  0  0
  4  8  1  0  0  0  0
  6 27  1  1  0  0  0
  7 18  1  6  0  0  0
  7  2  1  0  0  0  0
  8  6  1  0  0  0  0
  8  5  2  0  0  0  0
 10 13  1  0  0  0  0
 11 14  1  6  0  0  0
 11  9  1  0  0  0  0
 12 11  1  0  0  0  0
 12 10  1  0  0  0  0
 13  9  1  0  0  0  0
 15 10  2  0  0  0  0
 16 18  2  0  0  0  0
 17 18  1  0  0  0  0
 19 21  1  0  0  0  0
 19 17  1  0  0  0  0
 21 22  1  0  0  0  0
 22 20  1  6  0  0  0
 22 26  1  0  0  0  0
 23 26  1  0  0  0  0
 24 23  1  0  0  0  0
 25 21  2  0  0  0  0
 25 24  1  0  0  0  0
 27 30  1  0  0  0  0
 28 34  1  0  0  0  0
 28 29  1  0  0  0  0
 30 32  1  0  0  0  0
 30 33  2  0  0  0  0
 31 29  2  0  0  0  0
 32 28  2  0  0  0  0
 33 31  1  0  0  0  0
M  END
>  <MODEL>
8

>  <REMARK>
 VINA RESULT:      -6.9      3.463      6.861
  Name = 
  6 active torsions:
  status: ('A' for Active; 'I' for Inactive)
    1  A    between atoms: C_3  and  C_13
    2  A    between atoms: C_3  and  N_17
    3  A    between atoms: C_4  and  N_15
    4  A    between atoms: C_12  and  C_28
    5  A    between atoms: C_26  and  C_28
    6  A    between atoms: C_29  and  C_31
                            x       y       z     vdW  Elec       q    Type
                         _______ _______ _______ _____ _____    ______ ____

>  <TORSDO>
F 6

$$$$
=
 OpenBabel11052414003D

 34 37  0  0  1  0  0  0  0  0999 V2000
  188.9060  175.0970  137.1470 C   0  0  2  0  0  3  0  0  0  0  0  0
  187.3680  177.1470  137.4300 C   0  0  2  0  0  3  0  0  0  0  0  0
  186.9830  178.1540  138.3190 O   0  0  0  0  0  1  0  0  0  0  0  0
  187.9160  174.7040  136.0410 C   0  0  0  0  0  2  0  0  0  0  0  0
  185.6450  174.1400  136.2690 O   0  0  0  0  0  0  0  0  0  0  0  0
  186.1330  176.3310  137.0320 C   0  0  2  0  0  3  0  0  0  0  0  0
  188.4310  176.2460  138.0770 C   0  0  2  0  0  3  0  0  0  0  0  0
  186.5010  174.9960  136.4320 C   0  0  0  0  0  0  0  0  0  0  0  0
  191.3860  174.6270  137.2150 C   0  0  0  0  0  2  0  0  0  0  0  0
  190.5850  175.9580  135.3860 C   0  0  0  0  0  0  0  0  0  0  0  0
  192.6620  175.2200  136.6180 C   0  0  1  0  0  3  0  0  0  0  0  0
  192.3030  175.8650  134.9470 S   0  0  0  0  0  0  0  0  0  0  0  0
  190.2530  175.2910  136.6020 N   0  0  0  0  0  0  0  0  0  0  0  0
  193.1600  176.3450  137.5030 C   0  0  0  0  0  1  0  0  0  0  0  0
  189.6000  177.0510  134.6660 S   0  0  0  0  0  0  0  0  0  0  0  0
  189.9550  178.0790  138.2210 O   0  0  0  0  0  0  0  0  0  0  0  0
  190.1220  176.5230  139.9510 N   0  0  0  0  0  2  0  0  0  0  0  0
  189.5510  177.0020  138.7340 C   0  0  0  0  0  0  0  0  0  0  0  0
  191.1670  177.2400  140.6600 C   0  0  0  0  0  2  0  0  0  0  0  0
  188.8120  178.7570  141.9540 F   0  0  0  0  0  0  0  0  0  0  0  0
  190.7630  177.4230  142.0840 C   0  0  0  0  0  0  0  0  0  0  0  0
  189.2930  177.5460  142.4190 C   0  0  1  0  0  3  0  0  0  0  0  0
  190.0120  178.2580  144.7100 C   0  0  0  0  0  2  0  0  0  0  0  0
  191.4100  177.6920  144.4830 C   0  0  0  0  0  2  0  0  0  0  0  0
  191.7210  177.5530  143.0170 C   0  0  0  0  0  3  0  0  0  0  0  0
  189.0110  177.4270  143.9180 C   0  0  0  0  0  2  0  0  0  0  0  0
  185.2800  177.1470  136.0640 C   0  0  0  0  0  2  0  0  0  0  0  0
  182.3300  177.2690  138.3510 C   0  0  0  0  0  0  0  0  0  0  0  0
  181.2670  177.4750  137.4690 C   0  0  0  0  0  3  0  0  0  0  0  0
  183.8730  177.2540  136.5430 C   0  0  0  0  0  0  0  0  0  0  0  0
  181.5240  177.5730  136.1000 C   0  0  0  0  0  3  0  0  0  0  0  0
  183.6000  177.1640  137.8740 N   0  0  0  0  0  0  0  0  0  0  0  0
  182.8340  177.4620  135.6300 C   0  0  0  0  0  3  0  0  0  0  0  0
  182.0850  177.1700  139.7470 N   0  0  0  0  0  1  0  0  0  0  0  0
  1  4  1  6  0  0  0
  1  7  1  0  0  0  0
  2  7  1  0  0  0  0
  2  3  1  1  0  0  0
  4  8  1  0  0  0  0
  5  8  2  0  0  0  0
  6 27  1  6  0  0  0
  6  2  1  0  0  0  0
  7 18  1  6  0  0  0
  8  6  1  0  0  0  0
 10 13  1  0  0  0  0
 11  9  1  0  0  0  0
 11 14  1  1  0  0  0
 12 10  1  0  0  0  0
 12 11  1  0  0  0  0
 13  1  1  0  0  0  0
 13  9  1  0  0  0  0
 15 10  2  0  0  0  0
 16 18  2  0  0  0  0
 17 19  1  0  0  0  0
 18 17  1  0  0  0  0
 19 21  1  0  0  0  0
 21 22  1  0  0  0  0
 21 25  2  0  0  0  0
 22 20  1  1  0  0  0
 22 26  1  0  0  0  0
 24 23  1  0  0  0  0
 25 24  1  0  0  0  0
 26 23  1  0  0  0  0
 27 30  1  0  0  0  0
 28 34  1  0  0  0  0
 29 28  2  0  0  0  0
 30 32  2  0  0  0  0
 31 29  1  0  0  0  0
 32 28  1  0  0  0  0
 33 31  2  0  0  0  0
 33 30  1  0  0  0  0
M  END
>  <MODEL>
9

>  <REMARK>
 VINA RESULT:      -6.7      4.563      8.786
  Name = 
  6 active torsions:
  status: ('A' for Active; 'I' for Inactive)
    1  A    between atoms: C_3  and  C_13
    2  A    between atoms: C_3  and  N_17
    3  A    between atoms: C_4  and  N_15
    4  A    between atoms: C_12  and  C_28
    5  A    between atoms: C_26  and  C_28
    6  A    between atoms: C_29  and  C_31
                            x       y       z     vdW  Elec       q    Type
                         _______ _______ _______ _____ _____    ______ ____

>  <TORSDO>
F 6

$$$$
