=
 OpenBabel11052414363D

 32 37  0  0  1  0  0  0  0  0999 V2000
  187.8470  177.9240  141.3200 N   0  0  1  0  0  0  0  0  0  0  0  0
  188.6130  177.4600  139.0910 C   0  0  1  0  0  3  0  0  0  0  0  0
  187.0310  178.9030  142.0550 C   0  0  0  0  0  2  0  0  0  0  0  0
  187.6920  178.2980  139.9040 C   0  0  1  0  0  3  0  0  0  0  0  0
  188.1210  176.7720  137.8500 C   0  0  2  0  0  3  0  0  0  0  0  0
  192.4800  176.4140  137.6710 S   0  0  0  0  0  0  0  0  0  0  0  0
  190.7340  177.3090  139.6920 C   0  0  2  0  0  3  0  0  0  0  0  0
  190.9330  174.4230  137.3250 C   0  0  0  0  0  2  0  0  0  0  0  0
  190.1250  175.3170  138.1390 N   0  0  2  0  0  0  0  0  0  0  0  0
  186.2550  178.0820  139.4250 C   0  0  2  0  0  3  0  0  0  0  0  0
  189.3460  176.1330  137.1760 C   0  0  0  0  0  2  0  0  0  0  0  0
  186.1370  178.3670  137.9070 C   0  0  0  0  0  2  0  0  0  0  0  0
  185.3200  178.9710  140.2310 C   0  0  0  0  0  2  0  0  0  0  0  0
  190.2370  176.9440  141.1230 C   0  0  0  0  0  2  0  0  0  0  0  0
  189.2680  177.9820  141.8030 C   0  0  2  0  0  3  0  0  0  0  0  0
  189.8410  178.1120  138.9690 O   0  0  0  0  0  0  0  0  0  0  0  0
  187.2890  177.7790  137.0380 C   0  0  2  0  0  3  0  0  0  0  0  0
  185.5450  178.7370  141.7250 C   0  0  0  0  0  2  0  0  0  0  0  0
  191.9140  175.1540  136.6190 O   0  0  0  0  0  0  0  0  0  0  0  0
  191.1670  176.0600  138.8570 C   0  0  1  0  0  3  0  0  0  0  0  0
  190.5410  177.3390  145.4810 C   0  0  0  0  0  0  0  0  0  0  0  0
  191.5700  177.2930  146.2130 O   0  0  0  0  0  0  0  0  0  0  0  0
  189.3200  177.6910  143.2840 C   0  0  0  0  0  0  0  0  0  0  0  0
  189.2270  177.2070  146.1160 C   0  0  0  0  0  3  0  0  0  0  0  0
  188.1630  177.5610  143.9530 C   0  0  0  0  0  3  0  0  0  0  0  0
  190.6620  177.5270  143.9840 C   0  0  1  0  0  3  0  0  0  0  0  0
  191.5790  178.6970  143.6650 C   0  0  0  0  0  1  0  0  0  0  0  0
  188.1010  177.3020  145.3950 C   0  0  0  0  0  0  0  0  0  0  0  0
  185.8460  178.2010  145.8740 C   0  0  0  0  0  1  0  0  0  0  0  0
  186.8450  177.2020  145.9900 O   0  0  0  0  0  0  0  0  0  0  0  0
  186.6970  177.1240  135.7980 C   0  0  0  0  0  2  0  0  0  0  0  0
  186.9760  177.9010  134.6640 O   0  0  0  0  0  1  0  0  0  0  0  0
  1 15  1  0  0  0  0
  1  3  1  1  0  0  0
  2 16  1  6  0  0  0
  2  4  1  0  0  0  0
  4  1  1  0  0  0  0
  5  2  1  0  0  0  0
  6 20  1  0  0  0  0
  7 14  1  0  0  0  0
  8  9  1  0  0  0  0
  9 20  1  0  0  0  0
 10  4  1  0  0  0  0
 10 13  1  0  0  0  0
 11  5  1  0  0  0  0
 11  9  1  0  0  0  0
 12 10  1  0  0  0  0
 13 18  1  0  0  0  0
 14 15  1  0  0  0  0
 15 23  1  0  0  0  0
 16  7  1  0  0  0  0
 17  5  1  0  0  0  0
 17 12  1  0  0  0  0
 18  3  1  0  0  0  0
 19  8  1  0  0  0  0
 19  6  1  0  0  0  0
 20  7  1  0  0  0  0
 21 24  1  0  0  0  0
 21 22  2  0  0  0  0
 23 25  2  0  0  0  0
 23 26  1  0  0  0  0
 25 28  1  0  0  0  0
 26 21  1  0  0  0  0
 27 26  1  0  0  0  0
 28 30  1  0  0  0  0
 28 24  2  0  0  0  0
 29 30  1  0  0  0  0
 31 17  1  0  0  0  0
 32 31  1  0  0  0  0
M  END
>  <MODEL>
1

>  <REMARK>
 VINA RESULT:      -9.2      0.000      0.000
  Name = 
  3 active torsions:
  status: ('A' for Active; 'I' for Inactive)
    1  A    between atoms: C_13  and  C_29
    2  A    between atoms: O_15  and  C_26
    3  A    between atoms: C_16  and  C_27
                            x       y       z     vdW  Elec       q    Type
                         _______ _______ _______ _____ _____    ______ ____

>  <TORSDO>
F 3

$$$$
=
 OpenBabel11052414363D

 32 37  0  0  1  0  0  0  0  0999 V2000
  186.9930  177.8160  140.0720 N   0  0  1  0  0  0  0  0  0  0  0  0
  184.9200  178.6760  140.9320 C   0  0  1  0  0  3  0  0  0  0  0  0
  188.4430  177.9290  140.2950 C   0  0  0  0  0  2  0  0  0  0  0  0
  186.3870  178.5970  141.1660 C   0  0  1  0  0  3  0  0  0  0  0  0
  183.9550  178.3870  142.0460 C   0  0  2  0  0  3  0  0  0  0  0  0
  181.5130  180.1920  138.8940 S   0  0  0  0  0  0  0  0  0  0  0  0
  184.1850  179.3030  138.9450 C   0  0  2  0  0  3  0  0  0  0  0  0
  180.8530  178.0280  140.0600 C   0  0  0  0  0  2  0  0  0  0  0  0
  182.2980  178.0460  140.2150 N   0  0  2  0  0  0  0  0  0  0  0  0
  186.6490  177.9470  142.5260 C   0  0  2  0  0  3  0  0  0  0  0  0
  182.5490  178.7100  141.5170 C   0  0  0  0  0  2  0  0  0  0  0  0
  185.9070  178.7130  143.6490 C   0  0  0  0  0  2  0  0  0  0  0  0
  188.1480  177.9040  142.7800 C   0  0  0  0  0  2  0  0  0  0  0  0
  185.1220  178.2220  138.3280 C   0  0  0  0  0  2  0  0  0  0  0  0
  186.6470  178.3320  138.7050 C   0  0  2  0  0  3  0  0  0  0  0  0
  184.6360  179.8110  140.1720 O   0  0  0  0  0  0  0  0  0  0  0  0
  184.4420  179.1190  143.3080 C   0  0  2  0  0  3  0  0  0  0  0  0
  188.8530  177.2370  141.5980 C   0  0  0  0  0  2  0  0  0  0  0  0
  180.3630  179.3410  139.8780 O   0  0  0  0  0  0  0  0  0  0  0  0
  182.6950  178.8380  139.0450 C   0  0  1  0  0  3  0  0  0  0  0  0
  188.9600  177.3360  135.6690 C   0  0  0  0  0  0  0  0  0  0  0  0
  189.7490  177.7910  134.7940 O   0  0  0  0  0  0  0  0  0  0  0  0
  187.3930  177.5450  137.6550 C   0  0  0  0  0  0  0  0  0  0  0  0
  188.8030  175.8840  135.7800 C   0  0  0  0  0  3  0  0  0  0  0  0
  187.3150  176.2040  137.6830 C   0  0  0  0  0  3  0  0  0  0  0  0
  188.1920  178.2700  136.5800 C   0  0  1  0  0  3  0  0  0  0  0  0
  189.1260  179.2920  137.2070 C   0  0  0  0  0  1  0  0  0  0  0  0
  188.0200  175.3450  136.7250 C   0  0  0  0  0  0  0  0  0  0  0  0
  186.6560  173.3330  137.1880 C   0  0  0  0  0  1  0  0  0  0  0  0
  187.8810  173.9650  136.8570 O   0  0  0  0  0  0  0  0  0  0  0  0
  183.5460  178.8100  144.4990 C   0  0  0  0  0  2  0  0  0  0  0  0
  184.2160  179.1100  145.6950 O   0  0  0  0  0  1  0  0  0  0  0  0
  1  3  1  1  0  0  0
  1  4  1  0  0  0  0
  2 16  1  1  0  0  0
  2  4  1  0  0  0  0
  2  5  1  0  0  0  0
  3 18  1  0  0  0  0
  4 10  1  0  0  0  0
  5 17  1  0  0  0  0
  6 20  1  0  0  0  0
  6 19  1  0  0  0  0
  7 20  1  0  0  0  0
  7 16  1  0  0  0  0
  8  9  1  0  0  0  0
  9 11  1  0  0  0  0
 10 13  1  0  0  0  0
 10 12  1  0  0  0  0
 11  5  1  0  0  0  0
 14 15  1  0  0  0  0
 14  7  1  0  0  0  0
 15  1  1  0  0  0  0
 17 12  1  0  0  0  0
 17 31  1  0  0  0  0
 18 13  1  0  0  0  0
 19  8  1  0  0  0  0
 20  9  1  0  0  0  0
 21 24  1  0  0  0  0
 21 26  1  0  0  0  0
 22 21  2  0  0  0  0
 23 25  2  0  0  0  0
 23 15  1  0  0  0  0
 24 28  2  0  0  0  0
 26 27  1  0  0  0  0
 26 23  1  0  0  0  0
 28 30  1  0  0  0  0
 28 25  1  0  0  0  0
 30 29  1  0  0  0  0
 31 32  1  0  0  0  0
M  END
>  <MODEL>
2

>  <REMARK>
 VINA RESULT:      -8.8      3.579      7.876
  Name = 
  3 active torsions:
  status: ('A' for Active; 'I' for Inactive)
    1  A    between atoms: C_13  and  C_29
    2  A    between atoms: O_15  and  C_26
    3  A    between atoms: C_16  and  C_27
                            x       y       z     vdW  Elec       q    Type
                         _______ _______ _______ _____ _____    ______ ____

>  <TORSDO>
F 3

$$$$
=
 OpenBabel11052414363D

 32 37  0  0  1  0  0  0  0  0999 V2000
  187.3650  177.8070  140.5620 N   0  0  1  0  0  0  0  0  0  0  0  0
  185.1860  178.6080  141.1840 C   0  0  1  0  0  3  0  0  0  0  0  0
  188.7760  177.9440  140.9560 C   0  0  0  0  0  2  0  0  0  0  0  0
  186.6170  178.5540  141.5880 C   0  0  1  0  0  3  0  0  0  0  0  0
  184.1040  178.2790  142.1710 C   0  0  2  0  0  3  0  0  0  0  0  0
  182.0100  180.0930  138.7820 S   0  0  0  0  0  0  0  0  0  0  0  0
  184.6770  179.2570  139.1340 C   0  0  2  0  0  3  0  0  0  0  0  0
  181.2660  177.8950  139.8260 C   0  0  0  0  0  2  0  0  0  0  0  0
  182.6820  177.9390  140.1510 N   0  0  2  0  0  0  0  0  0  0  0  0
  186.7310  177.8850  142.9580 C   0  0  2  0  0  3  0  0  0  0  0  0
  182.7620  178.5840  141.4840 C   0  0  0  0  0  2  0  0  0  0  0  0
  185.8450  178.6150  143.9980 C   0  0  0  0  0  2  0  0  0  0  0  0
  188.1900  177.8680  143.3870 C   0  0  0  0  0  2  0  0  0  0  0  0
  185.7040  178.2070  138.6140 C   0  0  0  0  0  2  0  0  0  0  0  0
  187.1710  178.3410  139.1710 C   0  0  2  0  0  3  0  0  0  0  0  0
  184.9690  179.7510  140.4140 O   0  0  0  0  0  0  0  0  0  0  0  0
  184.4210  178.9980  143.4930 C   0  0  2  0  0  3  0  0  0  0  0  0
  189.0440  177.2370  142.2870 C   0  0  0  0  0  2  0  0  0  0  0  0
  180.7720  179.2010  139.6080 O   0  0  0  0  0  0  0  0  0  0  0  0
  183.1970  178.7610  139.0490 C   0  0  1  0  0  3  0  0  0  0  0  0
  188.8370  176.9590  135.8730 C   0  0  0  0  0  0  0  0  0  0  0  0
  188.8250  177.0380  134.6130 O   0  0  0  0  0  0  0  0  0  0  0  0
  188.0530  177.5890  138.2050 C   0  0  0  0  0  0  0  0  0  0  0  0
  189.8720  176.1420  136.5120 C   0  0  0  0  0  3  0  0  0  0  0  0
  189.0360  176.8190  138.6990 C   0  0  0  0  0  3  0  0  0  0  0  0
  187.8050  177.6910  136.7050 C   0  0  1  0  0  3  0  0  0  0  0  0
  187.7100  179.1470  136.2780 C   0  0  0  0  0  1  0  0  0  0  0  0
  189.9640  176.0670  137.8470 C   0  0  0  0  0  0  0  0  0  0  0  0
  191.9920  174.6530  137.7570 C   0  0  0  0  0  1  0  0  0  0  0  0
  190.9580  175.3120  138.4680 O   0  0  0  0  0  0  0  0  0  0  0  0
  183.3980  178.6480  144.5650 C   0  0  0  0  0  2  0  0  0  0  0  0
  183.8860  179.0080  145.8300 O   0  0  0  0  0  1  0  0  0  0  0  0
  1  3  1  1  0  0  0
  1  4  1  0  0  0  0
  2 16  1  1  0  0  0
  2  4  1  0  0  0  0
  2  5  1  0  0  0  0
  3 18  1  0  0  0  0
  4 10  1  0  0  0  0
  5 17  1  0  0  0  0
  6 20  1  0  0  0  0
  6 19  1  0  0  0  0
  7 16  1  0  0  0  0
  8  9  1  0  0  0  0
  9 11  1  0  0  0  0
 10 13  1  0  0  0  0
 10 12  1  0  0  0  0
 11  5  1  0  0  0  0
 14  7  1  0  0  0  0
 14 15  1  0  0  0  0
 15  1  1  0  0  0  0
 17 12  1  0  0  0  0
 17 31  1  0  0  0  0
 18 13  1  0  0  0  0
 19  8  1  0  0  0  0
 20  7  1  0  0  0  0
 20  9  1  0  0  0  0
 21 24  1  0  0  0  0
 21 26  1  0  0  0  0
 22 21  2  0  0  0  0
 23 25  2  0  0  0  0
 23 15  1  0  0  0  0
 24 28  2  0  0  0  0
 26 23  1  0  0  0  0
 27 26  1  0  0  0  0
 28 30  1  0  0  0  0
 28 25  1  0  0  0  0
 29 30  1  0  0  0  0
 31 32  1  0  0  0  0
M  END
>  <MODEL>
3

>  <REMARK>
 VINA RESULT:      -8.2      3.238      7.704
  Name = 
  3 active torsions:
  status: ('A' for Active; 'I' for Inactive)
    1  A    between atoms: C_13  and  C_29
    2  A    between atoms: O_15  and  C_26
    3  A    between atoms: C_16  and  C_27
                            x       y       z     vdW  Elec       q    Type
                         _______ _______ _______ _____ _____    ______ ____

>  <TORSDO>
F 3

$$$$
=
 OpenBabel11052414363D

 32 37  0  0  1  0  0  0  0  0999 V2000
  185.4500  178.3390  144.0640 N   0  0  1  0  0  0  0  0  0  0  0  0
  187.6760  177.6900  144.6970 C   0  0  1  0  0  3  0  0  0  0  0  0
  184.0550  178.1690  144.5000 C   0  0  0  0  0  2  0  0  0  0  0  0
  186.2530  177.7110  145.1280 C   0  0  1  0  0  3  0  0  0  0  0  0
  188.7610  178.1470  145.6300 C   0  0  2  0  0  3  0  0  0  0  0  0
  190.8710  176.1630  142.3480 S   0  0  0  0  0  0  0  0  0  0  0  0
  188.1750  176.9020  142.6940 C   0  0  2  0  0  3  0  0  0  0  0  0
  191.5310  178.4690  143.1970 C   0  0  0  0  0  2  0  0  0  0  0  0
  190.1250  178.3880  143.5570 N   0  0  2  0  0  0  0  0  0  0  0  0
  186.1330  178.4830  146.4440 C   0  0  2  0  0  3  0  0  0  0  0  0
  190.1010  177.8490  144.9390 C   0  0  0  0  0  2  0  0  0  0  0  0
  187.0730  177.8800  147.5180 C   0  0  0  0  0  2  0  0  0  0  0  0
  184.6830  178.4680  146.9040 C   0  0  0  0  0  2  0  0  0  0  0  0
  187.0900  177.8590  142.1170 C   0  0  0  0  0  2  0  0  0  0  0  0
  185.6420  177.7040  142.7160 C   0  0  2  0  0  3  0  0  0  0  0  0
  187.9320  176.5000  144.0160 O   0  0  0  0  0  0  0  0  0  0  0  0
  188.5030  177.5230  147.0120 C   0  0  2  0  0  3  0  0  0  0  0  0
  183.7790  178.9690  145.7770 C   0  0  0  0  0  2  0  0  0  0  0  0
  192.0820  177.1740  143.0720 O   0  0  0  0  0  0  0  0  0  0  0  0
  189.6290  177.4570  142.5360 C   0  0  1  0  0  3  0  0  0  0  0  0
  184.2040  179.6650  139.6100 C   0  0  0  0  0  0  0  0  0  0  0  0
  184.5230  180.2990  138.5650 O   0  0  0  0  0  0  0  0  0  0  0  0
  184.7070  178.3350  141.7130 C   0  0  0  0  0  0  0  0  0  0  0  0
  182.7850  179.4010  139.8600 C   0  0  0  0  0  3  0  0  0  0  0  0
  183.3860  178.1400  141.8570 C   0  0  0  0  0  3  0  0  0  0  0  0
  185.2630  179.1920  140.5840 C   0  0  1  0  0  3  0  0  0  0  0  0
  186.3720  178.4550  139.8490 C   0  0  0  0  0  1  0  0  0  0  0  0
  182.3940  178.6870  140.9250 C   0  0  0  0  0  0  0  0  0  0  0  0
  180.3810  178.7550  142.3620 C   0  0  0  0  0  1  0  0  0  0  0  0
  181.0490  178.4080  141.1610 O   0  0  0  0  0  0  0  0  0  0  0  0
  189.5290  178.0040  148.0290 C   0  0  0  0  0  2  0  0  0  0  0  0
  188.8930  178.3260  149.2370 O   0  0  0  0  0  1  0  0  0  0  0  0
  1  3  1  1  0  0  0
  1  4  1  0  0  0  0
  2 16  1  1  0  0  0
  2  4  1  0  0  0  0
  2  5  1  0  0  0  0
  3 18  1  0  0  0  0
  4 10  1  0  0  0  0
  5 17  1  0  0  0  0
  6 20  1  0  0  0  0
  6 19  1  0  0  0  0
  7 16  1  0  0  0  0
  8  9  1  0  0  0  0
  9 11  1  0  0  0  0
 10 13  1  0  0  0  0
 10 12  1  0  0  0  0
 11  5  1  0  0  0  0
 14  7  1  0  0  0  0
 14 15  1  0  0  0  0
 15  1  1  0  0  0  0
 17 12  1  0  0  0  0
 17 31  1  0  0  0  0
 18 13  1  0  0  0  0
 19  8  1  0  0  0  0
 20  7  1  0  0  0  0
 20  9  1  0  0  0  0
 21 24  1  0  0  0  0
 21 26  1  0  0  0  0
 22 21  2  0  0  0  0
 23 25  2  0  0  0  0
 23 15  1  0  0  0  0
 24 28  2  0  0  0  0
 26 23  1  0  0  0  0
 27 26  1  0  0  0  0
 28 30  1  0  0  0  0
 28 25  1  0  0  0  0
 30 29  1  0  0  0  0
 31 32  1  0  0  0  0
M  END
>  <MODEL>
4

>  <REMARK>
 VINA RESULT:      -8.0      3.229      7.347
  Name = 
  3 active torsions:
  status: ('A' for Active; 'I' for Inactive)
    1  A    between atoms: C_13  and  C_29
    2  A    between atoms: O_15  and  C_26
    3  A    between atoms: C_16  and  C_27
                            x       y       z     vdW  Elec       q    Type
                         _______ _______ _______ _____ _____    ______ ____

>  <TORSDO>
F 3

$$$$
=
 OpenBabel11052414363D

 32 37  0  0  1  0  0  0  0  0999 V2000
  186.1800  178.1240  139.8010 N   0  0  1  0  0  0  0  0  0  0  0  0
  188.5130  177.7920  140.2700 C   0  0  1  0  0  3  0  0  0  0  0  0
  185.3060  178.7480  138.7950 C   0  0  0  0  0  2  0  0  0  0  0  0
  187.5390  178.2530  139.2460 C   0  0  1  0  0  3  0  0  0  0  0  0
  189.6130  176.8390  139.9000 C   0  0  2  0  0  3  0  0  0  0  0  0
  190.6930  178.2990  143.8830 S   0  0  0  0  0  0  0  0  0  0  0  0
  188.3660  178.5950  142.3240 C   0  0  2  0  0  3  0  0  0  0  0  0
  190.6780  175.8230  143.2960 C   0  0  0  0  0  2  0  0  0  0  0  0
  189.7270  176.3810  142.3490 N   0  0  2  0  0  0  0  0  0  0  0  0
  187.7040  177.4140  137.9770 C   0  0  2  0  0  3  0  0  0  0  0  0
  190.5190  176.6980  141.1350 C   0  0  0  0  0  2  0  0  0  0  0  0
  189.1680  177.4680  137.4740 C   0  0  0  0  0  2  0  0  0  0  0  0
  186.7340  177.9150  136.9170 C   0  0  0  0  0  2  0  0  0  0  0  0
  186.8580  178.2050  142.3000 C   0  0  0  0  0  2  0  0  0  0  0  0
  186.0060  178.8140  141.1240 C   0  0  2  0  0  3  0  0  0  0  0  0
  188.8990  178.8770  141.0580 O   0  0  0  0  0  0  0  0  0  0  0  0
  190.2490  177.3220  138.5860 C   0  0  2  0  0  3  0  0  0  0  0  0
  185.3160  177.9490  137.4890 C   0  0  0  0  0  2  0  0  0  0  0  0
  191.5840  176.8180  143.7260 O   0  0  0  0  0  0  0  0  0  0  0  0
  189.2540  177.5580  143.0870 C   0  0  1  0  0  3  0  0  0  0  0  0
  182.7270  178.7280  143.3160 C   0  0  0  0  0  0  0  0  0  0  0  0
  182.2830  178.8300  144.4940 O   0  0  0  0  0  0  0  0  0  0  0  0
  184.5650  178.7240  141.5640 C   0  0  0  0  0  0  0  0  0  0  0  0
  181.7670  178.6140  142.2150 C   0  0  0  0  0  3  0  0  0  0  0  0
  183.6120  178.6250  140.6230 C   0  0  0  0  0  3  0  0  0  0  0  0
  184.2170  178.7220  143.0470 C   0  0  1  0  0  3  0  0  0  0  0  0
  184.8930  179.8850  143.7560 C   0  0  0  0  0  1  0  0  0  0  0  0
  182.1810  178.5560  140.9420 C   0  0  0  0  0  0  0  0  0  0  0  0
  181.5920  178.8620  138.5580 C   0  0  0  0  0  1  0  0  0  0  0  0
  181.2770  178.4720  139.8850 O   0  0  0  0  0  0  0  0  0  0  0  0
  191.3280  176.3580  138.1140 C   0  0  0  0  0  2  0  0  0  0  0  0
  190.8560  175.0380  138.1810 O   0  0  0  0  0  1  0  0  0  0  0  0
  1  3  1  6  0  0  0
  1 15  1  0  0  0  0
  2 16  1  6  0  0  0
  4  1  1  0  0  0  0
  4  2  1  0  0  0  0
  5  2  1  0  0  0  0
  5 11  1  0  0  0  0
  7 20  1  0  0  0  0
  8 19  1  0  0  0  0
  9 20  1  0  0  0  0
  9  8  1  0  0  0  0
 10  4  1  0  0  0  0
 11  9  1  0  0  0  0
 12 10  1  0  0  0  0
 12 17  1  0  0  0  0
 13 18  1  0  0  0  0
 13 10  1  0  0  0  0
 14  7  1  0  0  0  0
 15 23  1  0  0  0  0
 15 14  1  0  0  0  0
 16  7  1  0  0  0  0
 17  5  1  0  0  0  0
 18  3  1  0  0  0  0
 19  6  1  0  0  0  0
 20  6  1  0  0  0  0
 21 22  2  0  0  0  0
 23 26  1  0  0  0  0
 24 21  1  0  0  0  0
 25 28  1  0  0  0  0
 25 23  2  0  0  0  0
 26 21  1  0  0  0  0
 26 27  1  0  0  0  0
 28 24  2  0  0  0  0
 29 30  1  0  0  0  0
 30 28  1  0  0  0  0
 31 32  1  0  0  0  0
 31 17  1  0  0  0  0
M  END
>  <MODEL>
5

>  <REMARK>
 VINA RESULT:      -7.8      2.747      5.511
  Name = 
  3 active torsions:
  status: ('A' for Active; 'I' for Inactive)
    1  A    between atoms: C_13  and  C_29
    2  A    between atoms: O_15  and  C_26
    3  A    between atoms: C_16  and  C_27
                            x       y       z     vdW  Elec       q    Type
                         _______ _______ _______ _____ _____    ______ ____

>  <TORSDO>
F 3

$$$$
=
 OpenBabel11052414363D

 32 37  0  0  1  0  0  0  0  0999 V2000
  185.0420  178.1610  139.8040 N   0  0  1  0  0  0  0  0  0  0  0  0
  186.4770  178.4190  141.7130 C   0  0  1  0  0  3  0  0  0  0  0  0
  184.9640  178.5480  138.3860 C   0  0  0  0  0  2  0  0  0  0  0  0
  186.3700  178.6240  140.2440 C   0  0  1  0  0  3  0  0  0  0  0  0
  187.6960  177.7700  142.3040 C   0  0  2  0  0  3  0  0  0  0  0  0
  185.5530  179.4500  145.7320 S   0  0  0  0  0  0  0  0  0  0  0  0
  184.8540  179.1580  143.0180 C   0  0  2  0  0  3  0  0  0  0  0  0
  186.3930  177.0480  145.6920 C   0  0  0  0  0  2  0  0  0  0  0  0
  186.2330  177.3530  144.2800 N   0  0  2  0  0  0  0  0  0  0  0  0
  187.4900  177.8530  139.5420 C   0  0  2  0  0  3  0  0  0  0  0  0
  187.5540  177.8570  143.8320 C   0  0  0  0  0  2  0  0  0  0  0  0
  188.8730  178.2690  140.1020 C   0  0  0  0  0  2  0  0  0  0  0  0
  187.4020  178.0970  138.0430 C   0  0  0  0  0  2  0  0  0  0  0  0
  183.8530  178.4060  142.0920 C   0  0  0  0  0  2  0  0  0  0  0  0
  183.9070  178.7850  140.5640 C   0  0  2  0  0  3  0  0  0  0  0  0
  186.0300  179.5660  142.3710 O   0  0  0  0  0  0  0  0  0  0  0  0
  188.9400  178.3970  141.6540 C   0  0  2  0  0  3  0  0  0  0  0  0
  185.9900  177.7780  137.5500 C   0  0  0  0  0  2  0  0  0  0  0  0
  186.5770  178.2370  146.4330 O   0  0  0  0  0  0  0  0  0  0  0  0
  185.1810  178.3740  144.3320 C   0  0  1  0  0  3  0  0  0  0  0  0
  180.3160  178.7650  138.9310 C   0  0  0  0  0  0  0  0  0  0  0  0
  179.4020  179.5010  138.4640 O   0  0  0  0  0  0  0  0  0  0  0  0
  182.5900  178.3390  139.9780 C   0  0  0  0  0  0  0  0  0  0  0  0
  180.1690  177.3110  138.8150 C   0  0  0  0  0  3  0  0  0  0  0  0
  182.3680  177.0230  139.8260 C   0  0  0  0  0  3  0  0  0  0  0  0
  181.5350  179.3690  139.5960 C   0  0  1  0  0  3  0  0  0  0  0  0
  182.1410  180.4520  138.7170 C   0  0  0  0  0  1  0  0  0  0  0  0
  181.1330  176.4850  139.2450 C   0  0  0  0  0  0  0  0  0  0  0  0
  179.8410  174.3860  139.4610 C   0  0  0  0  0  1  0  0  0  0  0  0
  181.0160  175.1020  139.1190 O   0  0  0  0  0  0  0  0  0  0  0  0
  190.2140  177.7310  142.1560 C   0  0  0  0  0  2  0  0  0  0  0  0
  190.1740  176.3540  141.8900 O   0  0  0  0  0  1  0  0  0  0  0  0
  1  3  1  6  0  0  0
  1  4  1  0  0  0  0
  1 15  1  0  0  0  0
  2  5  1  0  0  0  0
  2 16  1  1  0  0  0
  4  2  1  0  0  0  0
  5 11  1  0  0  0  0
  6 19  1  0  0  0  0
  7 20  1  0  0  0  0
  8 19  1  0  0  0  0
  9 20  1  0  0  0  0
  9  8  1  0  0  0  0
 10 12  1  0  0  0  0
 10  4  1  0  0  0  0
 11  9  1  0  0  0  0
 12 17  1  0  0  0  0
 13 10  1  0  0  0  0
 14  7  1  0  0  0  0
 15 14  1  0  0  0  0
 16  7  1  0  0  0  0
 17 31  1  0  0  0  0
 17  5  1  0  0  0  0
 18 13  1  0  0  0  0
 18  3  1  0  0  0  0
 20  6  1  0  0  0  0
 21 26  1  0  0  0  0
 22 21  2  0  0  0  0
 23 15  1  0  0  0  0
 24 21  1  0  0  0  0
 24 28  2  0  0  0  0
 25 23  2  0  0  0  0
 26 23  1  0  0  0  0
 27 26  1  0  0  0  0
 28 25  1  0  0  0  0
 30 28  1  0  0  0  0
 30 29  1  0  0  0  0
 32 31  1  0  0  0  0
M  END
>  <MODEL>
6

>  <REMARK>
 VINA RESULT:      -7.7      4.035      7.955
  Name = 
  3 active torsions:
  status: ('A' for Active; 'I' for Inactive)
    1  A    between atoms: C_13  and  C_29
    2  A    between atoms: O_15  and  C_26
    3  A    between atoms: C_16  and  C_27
                            x       y       z     vdW  Elec       q    Type
                         _______ _______ _______ _____ _____    ______ ____

>  <TORSDO>
F 3

$$$$
=
 OpenBabel11052414363D

 32 37  0  0  1  0  0  0  0  0999 V2000
  186.5510  178.1440  142.6410 N   0  0  1  0  0  0  0  0  0  0  0  0
  186.3930  178.2530  140.2460 C   0  0  1  0  0  3  0  0  0  0  0  0
  186.0390  178.8250  143.8410 C   0  0  0  0  0  2  0  0  0  0  0  0
  185.8240  178.7660  141.5200 C   0  0  1  0  0  3  0  0  0  0  0  0
  185.4890  177.7620  139.1520 C   0  0  2  0  0  3  0  0  0  0  0  0
  189.4310  178.0940  137.2770 S   0  0  0  0  0  0  0  0  0  0  0  0
  188.5830  178.3000  139.9560 C   0  0  2  0  0  3  0  0  0  0  0  0
  187.9910  176.0060  137.0640 C   0  0  0  0  0  2  0  0  0  0  0  0
  187.5230  176.5900  138.3110 N   0  0  2  0  0  0  0  0  0  0  0  0
  184.3300  178.4410  141.5760 C   0  0  2  0  0  3  0  0  0  0  0  0
  186.3790  177.4580  137.9360 C   0  0  0  0  0  2  0  0  0  0  0  0
  183.6030  179.0020  140.3290 C   0  0  0  0  0  2  0  0  0  0  0  0
  183.7430  179.0030  142.8620 C   0  0  0  0  0  2  0  0  0  0  0  0
  188.7170  177.5870  141.3350 C   0  0  0  0  0  2  0  0  0  0  0  0
  188.0410  178.3140  142.5570 C   0  0  2  0  0  3  0  0  0  0  0  0
  187.4310  179.0900  139.8360 O   0  0  0  0  0  0  0  0  0  0  0  0
  184.3460  178.7760  138.9790 C   0  0  2  0  0  3  0  0  0  0  0  0
  184.5560  178.5110  144.0590 C   0  0  0  0  0  2  0  0  0  0  0  0
  188.5660  177.0010  136.2420 O   0  0  0  0  0  0  0  0  0  0  0  0
  188.7200  177.3210  138.7440 C   0  0  1  0  0  3  0  0  0  0  0  0
  190.6670  176.8040  145.0840 C   0  0  0  0  0  0  0  0  0  0  0  0
  191.8770  176.4670  145.2190 O   0  0  0  0  0  0  0  0  0  0  0  0
  188.6930  177.7440  143.7930 C   0  0  0  0  0  0  0  0  0  0  0  0
  189.7920  176.7520  146.2580 C   0  0  0  0  0  3  0  0  0  0  0  0
  187.9700  177.6640  144.9210 C   0  0  0  0  0  3  0  0  0  0  0  0
  190.1330  177.2510  143.7390 C   0  0  1  0  0  3  0  0  0  0  0  0
  191.0380  178.3110  143.1300 C   0  0  0  0  0  1  0  0  0  0  0  0
  188.5140  177.1500  146.1830 C   0  0  0  0  0  0  0  0  0  0  0  0
  187.9310  177.8770  148.4740 C   0  0  0  0  0  1  0  0  0  0  0  0
  187.6780  177.1280  147.2980 O   0  0  0  0  0  0  0  0  0  0  0  0
  183.3490  178.3020  137.9310 C   0  0  0  0  0  2  0  0  0  0  0  0
  182.0390  178.4650  138.4060 O   0  0  0  0  0  1  0  0  0  0  0  0
  1  3  1  1  0  0  0
  2 16  1  6  0  0  0
  2  4  1  0  0  0  0
  3 18  1  0  0  0  0
  4 10  1  0  0  0  0
  4  1  1  0  0  0  0
  5  2  1  0  0  0  0
  6 20  1  0  0  0  0
  7 14  1  0  0  0  0
  8  9  1  0  0  0  0
  9 20  1  0  0  0  0
 10 13  1  0  0  0  0
 11  9  1  0  0  0  0
 11  5  1  0  0  0  0
 12 10  1  0  0  0  0
 13 18  1  0  0  0  0
 14 15  1  0  0  0  0
 15  1  1  0  0  0  0
 15 23  1  0  0  0  0
 16  7  1  0  0  0  0
 17  5  1  0  0  0  0
 17 12  1  0  0  0  0
 19  8  1  0  0  0  0
 19  6  1  0  0  0  0
 20  7  1  0  0  0  0
 21 22  2  0  0  0  0
 21 24  1  0  0  0  0
 23 25  2  0  0  0  0
 25 28  1  0  0  0  0
 26 23  1  0  0  0  0
 26 21  1  0  0  0  0
 27 26  1  0  0  0  0
 28 24  2  0  0  0  0
 28 30  1  0  0  0  0
 30 29  1  0  0  0  0
 31 32  1  0  0  0  0
 31 17  1  0  0  0  0
M  END
>  <MODEL>
7

>  <REMARK>
 VINA RESULT:      -7.5      1.993      2.741
  Name = 
  3 active torsions:
  status: ('A' for Active; 'I' for Inactive)
    1  A    between atoms: C_13  and  C_29
    2  A    between atoms: O_15  and  C_26
    3  A    between atoms: C_16  and  C_27
                            x       y       z     vdW  Elec       q    Type
                         _______ _______ _______ _____ _____    ______ ____

>  <TORSDO>
F 3

$$$$
=
 OpenBabel11052414363D

 32 37  0  0  1  0  0  0  0  0999 V2000
  186.6420  178.0460  143.0730 N   0  0  1  0  0  0  0  0  0  0  0  0
  184.4620  178.6100  142.2340 C   0  0  1  0  0  3  0  0  0  0  0  0
  187.5590  178.4000  144.1680 C   0  0  0  0  0  2  0  0  0  0  0  0
  185.4000  178.7780  143.3760 C   0  0  1  0  0  3  0  0  0  0  0  0
  183.0290  178.2320  142.4750 C   0  0  2  0  0  3  0  0  0  0  0  0
  183.1710  179.4510  138.2730 S   0  0  0  0  0  0  0  0  0  0  0  0
  185.1910  179.0030  140.1850 C   0  0  2  0  0  3  0  0  0  0  0  0
  182.0850  177.2770  139.0260 C   0  0  0  0  0  2  0  0  0  0  0  0
  183.0510  177.5320  140.0820 N   0  0  2  0  0  0  0  0  0  0  0  0
  184.7410  178.2530  144.6530 C   0  0  2  0  0  3  0  0  0  0  0  0
  182.3130  178.2980  141.1160 C   0  0  0  0  0  2  0  0  0  0  0  0
  183.3800  178.9520  144.8920 C   0  0  0  0  0  2  0  0  0  0  0  0
  185.6860  178.4640  145.8270 C   0  0  0  0  0  2  0  0  0  0  0  0
  186.3850  178.0530  140.4950 C   0  0  0  0  0  2  0  0  0  0  0  0
  187.2550  178.4250  141.7550 C   0  0  2  0  0  3  0  0  0  0  0  0
  184.6650  179.6420  141.3170 O   0  0  0  0  0  0  0  0  0  0  0  0
  182.4880  179.1000  143.6230 C   0  0  2  0  0  3  0  0  0  0  0  0
  187.0520  177.8550  145.5060 C   0  0  0  0  0  2  0  0  0  0  0  0
  181.7340  178.4820  138.3790 O   0  0  0  0  0  0  0  0  0  0  0  0
  184.0590  178.3130  139.3550 C   0  0  1  0  0  3  0  0  0  0  0  0
  190.4630  176.7620  140.1720 C   0  0  0  0  0  0  0  0  0  0  0  0
  191.0630  176.5330  139.0850 O   0  0  0  0  0  0  0  0  0  0  0  0
  188.5720  177.7110  141.5770 C   0  0  0  0  0  0  0  0  0  0  0  0
  191.1310  176.4080  141.4270 C   0  0  0  0  0  3  0  0  0  0  0  0
  189.2610  177.3530  142.6720 C   0  0  0  0  0  3  0  0  0  0  0  0
  189.0840  177.3880  140.1790 C   0  0  1  0  0  3  0  0  0  0  0  0
  189.0560  178.6280  139.3000 C   0  0  0  0  0  1  0  0  0  0  0  0
  190.5620  176.6780  142.6110 C   0  0  0  0  0  0  0  0  0  0  0  0
  191.1040  177.1750  144.9730 C   0  0  0  0  0  1  0  0  0  0  0  0
  191.1980  176.3680  143.8120 O   0  0  0  0  0  0  0  0  0  0  0  0
  181.0550  178.7180  143.9690 C   0  0  0  0  0  2  0  0  0  0  0  0
  180.1640  179.6650  143.4440 O   0  0  0  0  0  1  0  0  0  0  0  0
  1  4  1  0  0  0  0
  1  3  1  1  0  0  0
  2 16  1  1  0  0  0
  2  5  1  0  0  0  0
  2  4  1  0  0  0  0
  3 18  1  0  0  0  0
  4 10  1  0  0  0  0
  5 17  1  0  0  0  0
  6 19  1  0  0  0  0
  6 20  1  0  0  0  0
  7 14  1  0  0  0  0
  7 16  1  0  0  0  0
  8  9  1  0  0  0  0
  9 11  1  0  0  0  0
 10 12  1  0  0  0  0
 10 13  1  0  0  0  0
 11  5  1  0  0  0  0
 14 15  1  0  0  0  0
 15  1  1  0  0  0  0
 17 31  1  0  0  0  0
 17 12  1  0  0  0  0
 18 13  1  0  0  0  0
 19  8  1  0  0  0  0
 20  9  1  0  0  0  0
 20  7  1  0  0  0  0
 21 26  1  0  0  0  0
 21 24  1  0  0  0  0
 22 21  2  0  0  0  0
 23 15  1  0  0  0  0
 23 25  2  0  0  0  0
 24 28  2  0  0  0  0
 26 23  1  0  0  0  0
 27 26  1  0  0  0  0
 28 25  1  0  0  0  0
 28 30  1  0  0  0  0
 30 29  1  0  0  0  0
 32 31  1  0  0  0  0
M  END
>  <MODEL>
8

>  <REMARK>
 VINA RESULT:      -7.5      3.393      6.462
  Name = 
  3 active torsions:
  status: ('A' for Active; 'I' for Inactive)
    1  A    between atoms: C_13  and  C_29
    2  A    between atoms: O_15  and  C_26
    3  A    between atoms: C_16  and  C_27
                            x       y       z     vdW  Elec       q    Type
                         _______ _______ _______ _____ _____    ______ ____

>  <TORSDO>
F 3

$$$$
=
 OpenBabel11052414363D

 32 37  0  0  1  0  0  0  0  0999 V2000
  188.2970  177.9180  143.1710 N   0  0  1  0  0  0  0  0  0  0  0  0
  189.3740  177.6080  141.0460 C   0  0  1  0  0  3  0  0  0  0  0  0
  188.3290  177.3870  144.5440 C   0  0  0  0  0  2  0  0  0  0  0  0
  189.4230  177.2550  142.4900 C   0  0  1  0  0  3  0  0  0  0  0  0
  190.6130  178.0670  140.3320 C   0  0  2  0  0  3  0  0  0  0  0  0
  187.7190  177.2700  137.1460 S   0  0  0  0  0  0  0  0  0  0  0  0
  187.4700  177.3690  139.9500 C   0  0  2  0  0  3  0  0  0  0  0  0
  189.0540  179.4330  137.2660 C   0  0  0  0  0  2  0  0  0  0  0  0
  189.0230  179.0000  138.6530 N   0  0  2  0  0  0  0  0  0  0  0  0
  190.7660  177.6970  143.0740 C   0  0  2  0  0  3  0  0  0  0  0  0
  190.2520  178.1920  138.8430 C   0  0  0  0  0  2  0  0  0  0  0  0
  191.9390  177.0830  142.2700 C   0  0  0  0  0  2  0  0  0  0  0  0
  190.8300  177.2980  144.5410 C   0  0  0  0  0  2  0  0  0  0  0  0
  186.7880  178.1900  141.0840 C   0  0  0  0  0  2  0  0  0  0  0  0
  186.9630  177.6290  142.5450 C   0  0  2  0  0  3  0  0  0  0  0  0
  188.6070  176.6610  140.3670 O   0  0  0  0  0  0  0  0  0  0  0  0
  191.7690  177.1310  140.7220 C   0  0  2  0  0  3  0  0  0  0  0  0
  189.5990  177.8320  145.2740 C   0  0  0  0  0  2  0  0  0  0  0  0
  188.8770  178.3290  136.4030 O   0  0  0  0  0  0  0  0  0  0  0  0
  187.7780  178.2230  138.6760 C   0  0  1  0  0  3  0  0  0  0  0  0
  183.5930  179.3570  143.6480 C   0  0  0  0  0  0  0  0  0  0  0  0
  182.4830  179.7910  143.2300 O   0  0  0  0  0  0  0  0  0  0  0  0
  185.8630  178.2550  143.3670 C   0  0  0  0  0  0  0  0  0  0  0  0
  183.8380  179.3440  145.0930 C   0  0  0  0  0  3  0  0  0  0  0  0
  185.9970  178.2830  144.7030 C   0  0  0  0  0  3  0  0  0  0  0  0
  184.6470  178.8620  142.6800 C   0  0  1  0  0  3  0  0  0  0  0  0
  184.0430  177.8750  141.6930 C   0  0  0  0  0  1  0  0  0  0  0  0
  184.9770  178.8460  145.5940 C   0  0  0  0  0  0  0  0  0  0  0  0
  186.5000  178.6280  147.5320 C   0  0  0  0  0  1  0  0  0  0  0  0
  185.2120  178.8060  146.9680 O   0  0  0  0  0  0  0  0  0  0  0  0
  193.0770  177.5840  140.0880 C   0  0  0  0  0  2  0  0  0  0  0  0
  193.4260  176.7220  139.0380 O   0  0  0  0  0  1  0  0  0  0  0  0
  1  3  1  1  0  0  0
  2 16  1  6  0  0  0
  2  4  1  0  0  0  0
  3 18  1  0  0  0  0
  4 10  1  0  0  0  0
  4  1  1  0  0  0  0
  5 17  1  0  0  0  0
  5  2  1  0  0  0  0
  6 20  1  0  0  0  0
  7 16  1  0  0  0  0
  7 14  1  0  0  0  0
  8  9  1  0  0  0  0
  9 20  1  0  0  0  0
  9 11  1  0  0  0  0
 10 13  1  0  0  0  0
 11  5  1  0  0  0  0
 12 10  1  0  0  0  0
 13 18  1  0  0  0  0
 14 15  1  0  0  0  0
 15  1  1  0  0  0  0
 15 23  1  0  0  0  0
 17 12  1  0  0  0  0
 19  6  1  0  0  0  0
 19  8  1  0  0  0  0
 20  7  1  0  0  0  0
 21 24  1  0  0  0  0
 22 21  2  0  0  0  0
 23 25  2  0  0  0  0
 24 28  2  0  0  0  0
 25 28  1  0  0  0  0
 26 23  1  0  0  0  0
 26 21  1  0  0  0  0
 27 26  1  0  0  0  0
 28 30  1  0  0  0  0
 30 29  1  0  0  0  0
 31 17  1  0  0  0  0
 32 31  1  0  0  0  0
M  END
>  <MODEL>
9

>  <REMARK>
 VINA RESULT:      -7.2      2.416      5.135
  Name = 
  3 active torsions:
  status: ('A' for Active; 'I' for Inactive)
    1  A    between atoms: C_13  and  C_29
    2  A    between atoms: O_15  and  C_26
    3  A    between atoms: C_16  and  C_27
                            x       y       z     vdW  Elec       q    Type
                         _______ _______ _______ _____ _____    ______ ____

>  <TORSDO>
F 3

$$$$
