=
 OpenBabel11052412503D

 25 27  0  0  0  0  0  0  0  0999 V2000
  190.0450  177.5710  141.2120 C   0  0  0  0  0  0  0  0  0  0  0  0
  188.7770  177.9690  140.9590 C   0  0  0  0  0  0  0  0  0  0  0  0
  190.8720  177.0860  138.8590 C   0  0  0  0  0  3  0  0  0  0  0  0
  189.8300  177.3950  138.1010 C   0  0  0  0  0  3  0  0  0  0  0  0
  188.0940  178.1030  139.7490 C   0  0  0  0  0  0  0  0  0  0  0  0
  187.5680  178.1130  137.3590 C   0  0  0  0  0  1  0  0  0  0  0  0
  187.9320  178.3100  141.9560 N   0  0  0  0  0  0  0  0  0  0  0  0
  190.9700  177.1530  140.2470 O   0  0  0  0  0  0  0  0  0  0  0  0
  186.8400  178.5350  140.0070 N   0  0  0  0  0  2  0  0  0  0  0  0
  186.7840  178.6370  141.3440 C   0  0  0  0  0  0  0  0  0  0  0  0
  188.5100  177.8770  138.4950 C   0  0  0  0  0  0  0  0  0  0  0  0
  190.5490  177.5520  142.6100 C   0  0  0  0  0  0  0  0  0  0  0  0
  191.5760  177.4980  145.1980 C   0  0  0  0  0  3  0  0  0  0  0  0
  190.5870  176.3580  143.3600 C   0  0  0  0  0  0  0  0  0  0  0  0
  191.0890  176.3660  144.6240 N   0  0  0  0  0  0  0  0  0  0  0  0
  191.5700  178.6990  144.4910 C   0  0  0  0  0  3  0  0  0  0  0  0
  190.0740  175.1410  142.8250 N   0  0  0  0  0  1  0  0  0  0  0  0
  191.0600  178.7200  143.1940 C   0  0  0  0  0  3  0  0  0  0  0  0
  185.5840  179.1330  142.0740 C   0  0  0  0  0  2  0  0  0  0  0  0
  185.6570  178.7550  143.4780 N   0  0  0  0  0  2  0  0  0  0  0  0
  184.6510  179.1090  144.4300 C   0  0  0  0  0  0  0  0  0  0  0  0
  183.6710  179.8260  144.0920 O   0  0  0  0  0  0  0  0  0  0  0  0
  184.7820  178.6600  145.8410 C   0  0  0  0  0  2  0  0  0  0  0  0
  186.0760  177.8920  146.0190 C   0  0  0  0  0  2  0  0  0  0  0  0
  186.7550  178.3350  147.2970 C   0  0  0  0  0  1  0  0  0  0  0  0
  1 12  1  0  0  0  0
  2  1  2  0  0  0  0
  2  7  1  0  0  0  0
  3  8  1  0  0  0  0
  4 11  1  0  0  0  0
  4  3  2  0  0  0  0
  5  9  1  0  0  0  0
  5  2  1  0  0  0  0
  6 11  1  0  0  0  0
  8  1  1  0  0  0  0
  9 10  1  0  0  0  0
 10  7  2  0  0  0  0
 10 19  1  0  0  0  0
 11  5  2  0  0  0  0
 12 18  2  0  0  0  0
 12 14  1  0  0  0  0
 14 15  2  0  0  0  0
 15 13  1  0  0  0  0
 16 13  2  0  0  0  0
 17 14  1  0  0  0  0
 18 16  1  0  0  0  0
 19 20  1  0  0  0  0
 20 21  1  0  0  0  0
 21 23  1  0  0  0  0
 22 21  2  0  0  0  0
 23 24  1  0  0  0  0
 24 25  1  0  0  0  0
M  END
>  <MODEL>
1

>  <REMARK>
 VINA RESULT:      -7.9      0.000      0.000
  Name = 
  5 active torsions:
  status: ('A' for Active; 'I' for Inactive)
    1  A    between atoms: C_1  and  C_5
    2  A    between atoms: C_2  and  C_7
    3  A    between atoms: C_2  and  C_21
    4  A    between atoms: C_6  and  N_15
    5  A    between atoms: C_6  and  C_23
                            x       y       z     vdW  Elec       q    Type
                         _______ _______ _______ _____ _____    ______ ____

>  <TORSDO>
F 5

$$$$
=
 OpenBabel11052412503D

 25 27  0  0  0  0  0  0  0  0999 V2000
  187.2690  177.7350  145.4090 C   0  0  0  0  0  0  0  0  0  0  0  0
  188.3120  177.5950  144.5590 C   0  0  0  0  0  0  0  0  0  0  0  0
  188.3690  177.1240  147.6170 C   0  0  0  0  0  3  0  0  0  0  0  0
  189.6260  176.8850  147.2750 C   0  0  0  0  0  3  0  0  0  0  0  0
  189.6380  177.2360  144.8030 C   0  0  0  0  0  0  0  0  0  0  0  0
  191.7050  176.5870  145.9420 C   0  0  0  0  0  1  0  0  0  0  0  0
  188.1720  177.8000  143.2310 N   0  0  0  0  0  0  0  0  0  0  0  0
  187.3120  177.4930  146.7880 O   0  0  0  0  0  0  0  0  0  0  0  0
  190.3080  177.2330  143.6290 N   0  0  0  0  0  2  0  0  0  0  0  0
  189.3870  177.5680  142.7110 C   0  0  0  0  0  0  0  0  0  0  0  0
  190.2510  176.9310  145.9550 C   0  0  0  0  0  0  0  0  0  0  0  0
  185.9460  178.1720  144.8930 C   0  0  0  0  0  0  0  0  0  0  0  0
  183.5050  179.0670  143.8950 C   0  0  0  0  0  3  0  0  0  0  0  0
  185.0530  178.9130  145.6940 C   0  0  0  0  0  0  0  0  0  0  0  0
  183.8650  179.3310  145.1790 N   0  0  0  0  0  0  0  0  0  0  0  0
  184.3600  178.3480  143.0620 C   0  0  0  0  0  3  0  0  0  0  0  0
  185.3620  179.2070  147.0540 N   0  0  0  0  0  1  0  0  0  0  0  0
  185.5830  177.9060  143.5640 C   0  0  0  0  0  3  0  0  0  0  0  0
  189.7000  177.7360  141.2650 C   0  0  0  0  0  2  0  0  0  0  0  0
  188.4990  177.5430  140.4650 N   0  0  0  0  0  2  0  0  0  0  0  0
  188.2690  178.2340  139.2350 C   0  0  0  0  0  0  0  0  0  0  0  0
  189.0880  179.0960  138.8190 O   0  0  0  0  0  0  0  0  0  0  0  0
  187.0300  177.9610  138.4580 C   0  0  0  0  0  2  0  0  0  0  0  0
  187.2010  178.4410  137.0310 C   0  0  0  0  0  2  0  0  0  0  0  0
  187.6370  177.2830  136.1580 C   0  0  0  0  0  1  0  0  0  0  0  0
  1  8  1  0  0  0  0
  2  5  1  0  0  0  0
  2  1  2  0  0  0  0
  4  3  2  0  0  0  0
  5 11  2  0  0  0  0
  6 11  1  0  0  0  0
  7  2  1  0  0  0  0
  8  3  1  0  0  0  0
  9  5  1  0  0  0  0
 10  7  2  0  0  0  0
 10  9  1  0  0  0  0
 11  4  1  0  0  0  0
 12  1  1  0  0  0  0
 12 14  1  0  0  0  0
 13 15  1  0  0  0  0
 14 17  1  0  0  0  0
 15 14  2  0  0  0  0
 16 18  1  0  0  0  0
 16 13  2  0  0  0  0
 18 12  2  0  0  0  0
 19 10  1  0  0  0  0
 20 19  1  0  0  0  0
 21 20  1  0  0  0  0
 22 21  2  0  0  0  0
 23 21  1  0  0  0  0
 24 23  1  0  0  0  0
 25 24  1  0  0  0  0
M  END
>  <MODEL>
2

>  <REMARK>
 VINA RESULT:      -7.7      2.062      7.011
  Name = 
  5 active torsions:
  status: ('A' for Active; 'I' for Inactive)
    1  A    between atoms: C_1  and  C_5
    2  A    between atoms: C_2  and  C_7
    3  A    between atoms: C_2  and  C_21
    4  A    between atoms: C_6  and  N_15
    5  A    between atoms: C_6  and  C_23
                            x       y       z     vdW  Elec       q    Type
                         _______ _______ _______ _____ _____    ______ ____

>  <TORSDO>
F 5

$$$$
=
 OpenBabel11052412503D

 25 27  0  0  0  0  0  0  0  0999 V2000
  187.7510  177.9660  144.4430 C   0  0  0  0  0  0  0  0  0  0  0  0
  186.7420  178.2720  143.5960 C   0  0  0  0  0  0  0  0  0  0  0  0
  186.5470  178.0830  146.6780 C   0  0  0  0  0  3  0  0  0  0  0  0
  185.3010  178.3770  146.3380 C   0  0  0  0  0  3  0  0  0  0  0  0
  185.4000  178.5580  143.8500 C   0  0  0  0  0  0  0  0  0  0  0  0
  183.2750  178.9300  145.0050 C   0  0  0  0  0  1  0  0  0  0  0  0
  186.9420  178.3540  142.2620 N   0  0  0  0  0  0  0  0  0  0  0  0
  187.6450  177.9090  145.8390 O   0  0  0  0  0  0  0  0  0  0  0  0
  184.7800  178.8030  142.6740 N   0  0  0  0  0  2  0  0  0  0  0  0
  185.7460  178.6790  141.7490 C   0  0  0  0  0  0  0  0  0  0  0  0
  184.7340  178.6060  145.0120 C   0  0  0  0  0  0  0  0  0  0  0  0
  189.1020  177.6620  143.9060 C   0  0  0  0  0  0  0  0  0  0  0  0
  191.6110  177.1280  142.8210 C   0  0  0  0  0  3  0  0  0  0  0  0
  189.3770  176.4390  143.2590 C   0  0  0  0  0  0  0  0  0  0  0  0
  190.6150  176.2070  142.7440 N   0  0  0  0  0  0  0  0  0  0  0  0
  191.3820  178.3550  143.4410 C   0  0  0  0  0  3  0  0  0  0  0  0
  188.3830  175.4230  143.1610 N   0  0  0  0  0  1  0  0  0  0  0  0
  190.1240  178.6200  143.9790 C   0  0  0  0  0  3  0  0  0  0  0  0
  185.4960  178.8180  140.2870 C   0  0  0  0  0  2  0  0  0  0  0  0
  186.7350  178.6320  139.5460 N   0  0  0  0  0  2  0  0  0  0  0  0
  186.7790  178.0350  138.2470 C   0  0  0  0  0  0  0  0  0  0  0  0
  185.7300  177.5890  137.7100 O   0  0  0  0  0  0  0  0  0  0  0  0
  188.0810  177.9060  137.5400 C   0  0  0  0  0  2  0  0  0  0  0  0
  189.1730  178.5830  138.3440 C   0  0  0  0  0  2  0  0  0  0  0  0
  189.9810  177.5350  139.0790 C   0  0  0  0  0  1  0  0  0  0  0  0
  1  8  1  0  0  0  0
  2  5  1  0  0  0  0
  2  1  2  0  0  0  0
  4  3  2  0  0  0  0
  5 11  2  0  0  0  0
  6 11  1  0  0  0  0
  7  2  1  0  0  0  0
  8  3  1  0  0  0  0
  9  5  1  0  0  0  0
 10  7  2  0  0  0  0
 10  9  1  0  0  0  0
 11  4  1  0  0  0  0
 12 18  1  0  0  0  0
 12  1  1  0  0  0  0
 13 16  1  0  0  0  0
 14 12  2  0  0  0  0
 15 13  2  0  0  0  0
 15 14  1  0  0  0  0
 16 18  2  0  0  0  0
 17 14  1  0  0  0  0
 19 10  1  0  0  0  0
 20 19  1  0  0  0  0
 21 20  1  0  0  0  0
 22 21  2  0  0  0  0
 23 21  1  0  0  0  0
 23 24  1  0  0  0  0
 24 25  1  0  0  0  0
M  END
>  <MODEL>
3

>  <REMARK>
 VINA RESULT:      -7.7      1.938      5.569
  Name = 
  5 active torsions:
  status: ('A' for Active; 'I' for Inactive)
    1  A    between atoms: C_1  and  C_5
    2  A    between atoms: C_2  and  C_7
    3  A    between atoms: C_2  and  C_21
    4  A    between atoms: C_6  and  N_15
    5  A    between atoms: C_6  and  C_23
                            x       y       z     vdW  Elec       q    Type
                         _______ _______ _______ _____ _____    ______ ____

>  <TORSDO>
F 5

$$$$
=
 OpenBabel11052412503D

 25 27  0  0  0  0  0  0  0  0999 V2000
  189.5490  177.5600  141.9230 C   0  0  0  0  0  0  0  0  0  0  0  0
  188.4560  177.9820  141.2470 C   0  0  0  0  0  0  0  0  0  0  0  0
  191.1300  177.0500  140.0000 C   0  0  0  0  0  3  0  0  0  0  0  0
  190.4220  177.3760  138.9290 C   0  0  0  0  0  3  0  0  0  0  0  0
  188.2360  178.1240  139.8760 C   0  0  0  0  0  0  0  0  0  0  0  0
  188.5700  178.1350  137.4520 C   0  0  0  0  0  1  0  0  0  0  0  0
  187.3240  178.3420  141.8910 N   0  0  0  0  0  0  0  0  0  0  0  0
  190.7420  177.1210  141.3360 O   0  0  0  0  0  0  0  0  0  0  0  0
  186.9790  178.5810  139.6850 N   0  0  0  0  0  2  0  0  0  0  0  0
  186.4650  178.6890  140.9210 C   0  0  0  0  0  0  0  0  0  0  0  0
  189.0550  177.8850  138.8430 C   0  0  0  0  0  0  0  0  0  0  0  0
  189.5370  177.5360  143.4080 C   0  0  0  0  0  0  0  0  0  0  0  0
  189.4660  177.5660  146.1920 C   0  0  0  0  0  3  0  0  0  0  0  0
  190.5340  178.1910  144.1610 C   0  0  0  0  0  0  0  0  0  0  0  0
  190.4740  178.1820  145.5200 N   0  0  0  0  0  0  0  0  0  0  0  0
  188.4530  176.9170  145.4910 C   0  0  0  0  0  3  0  0  0  0  0  0
  191.6290  178.8390  143.5190 N   0  0  0  0  0  1  0  0  0  0  0  0
  188.4900  176.9080  144.0970 C   0  0  0  0  0  3  0  0  0  0  0  0
  185.0960  179.2110  141.1920 C   0  0  0  0  0  2  0  0  0  0  0  0
  184.8890  179.3580  142.6260 N   0  0  0  0  0  2  0  0  0  0  0  0
  183.6710  178.9840  143.2740 C   0  0  0  0  0  0  0  0  0  0  0  0
  182.6910  178.5580  142.6060 O   0  0  0  0  0  0  0  0  0  0  0  0
  183.5450  179.1370  144.7480 C   0  0  0  0  0  2  0  0  0  0  0  0
  184.9200  179.1250  145.3860 C   0  0  0  0  0  2  0  0  0  0  0  0
  184.8860  178.2800  146.6420 C   0  0  0  0  0  1  0  0  0  0  0  0
  1 12  1  0  0  0  0
  2  7  1  0  0  0  0
  2  1  2  0  0  0  0
  3  8  1  0  0  0  0
  4  3  2  0  0  0  0
  5  2  1  0  0  0  0
  6 11  1  0  0  0  0
  8  1  1  0  0  0  0
  9  5  1  0  0  0  0
  9 10  1  0  0  0  0
 10 19  1  0  0  0  0
 10  7  2  0  0  0  0
 11  4  1  0  0  0  0
 11  5  2  0  0  0  0
 12 18  2  0  0  0  0
 12 14  1  0  0  0  0
 14 15  2  0  0  0  0
 15 13  1  0  0  0  0
 16 13  2  0  0  0  0
 17 14  1  0  0  0  0
 18 16  1  0  0  0  0
 19 20  1  0  0  0  0
 20 21  1  0  0  0  0
 21 23  1  0  0  0  0
 22 21  2  0  0  0  0
 23 24  1  0  0  0  0
 24 25  1  0  0  0  0
M  END
>  <MODEL>
4

>  <REMARK>
 VINA RESULT:      -7.7      1.431      1.828
  Name = 
  5 active torsions:
  status: ('A' for Active; 'I' for Inactive)
    1  A    between atoms: C_1  and  C_5
    2  A    between atoms: C_2  and  C_7
    3  A    between atoms: C_2  and  C_21
    4  A    between atoms: C_6  and  N_15
    5  A    between atoms: C_6  and  C_23
                            x       y       z     vdW  Elec       q    Type
                         _______ _______ _______ _____ _____    ______ ____

>  <TORSDO>
F 5

$$$$
=
 OpenBabel11052412503D

 25 27  0  0  0  0  0  0  0  0999 V2000
  188.1900  177.7010  143.3060 C   0  0  0  0  0  0  0  0  0  0  0  0
  186.8640  177.9620  143.3660 C   0  0  0  0  0  0  0  0  0  0  0  0
  188.7640  177.5880  145.7790 C   0  0  0  0  0  3  0  0  0  0  0  0
  187.5960  177.7870  146.3720 C   0  0  0  0  0  3  0  0  0  0  0  0
  186.0180  178.1130  144.4660 C   0  0  0  0  0  0  0  0  0  0  0  0
  185.1800  178.2300  146.7620 C   0  0  0  0  0  1  0  0  0  0  0  0
  186.1280  178.1360  142.2460 N   0  0  0  0  0  0  0  0  0  0  0  0
  189.0360  177.5590  144.4130 O   0  0  0  0  0  0  0  0  0  0  0  0
  184.7680  178.3660  144.0180 N   0  0  0  0  0  2  0  0  0  0  0  0
  184.8830  178.3800  142.6800 C   0  0  0  0  0  0  0  0  0  0  0  0
  186.2870  178.0370  145.7760 C   0  0  0  0  0  0  0  0  0  0  0  0
  188.8560  177.5490  141.9870 C   0  0  0  0  0  0  0  0  0  0  0  0
  190.0350  177.2130  139.4870 C   0  0  0  0  0  3  0  0  0  0  0  0
  189.7510  176.4900  141.7350 C   0  0  0  0  0  0  0  0  0  0  0  0
  190.3160  176.3560  140.5040 N   0  0  0  0  0  0  0  0  0  0  0  0
  189.1470  178.2680  139.6860 C   0  0  0  0  0  3  0  0  0  0  0  0
  190.1030  175.5680  142.7630 N   0  0  0  0  0  1  0  0  0  0  0  0
  188.5550  178.4300  140.9380 C   0  0  0  0  0  3  0  0  0  0  0  0
  183.7240  178.5770  141.7650 C   0  0  0  0  0  2  0  0  0  0  0  0
  183.9890  177.9530  140.4770 N   0  0  0  0  0  2  0  0  0  0  0  0
  184.4060  178.6950  139.3280 C   0  0  0  0  0  0  0  0  0  0  0  0
  184.5070  179.9500  139.3760 O   0  0  0  0  0  0  0  0  0  0  0  0
  184.6870  177.9820  138.0540 C   0  0  0  0  0  2  0  0  0  0  0  0
  186.1430  178.1610  137.6730 C   0  0  0  0  0  2  0  0  0  0  0  0
  186.7170  176.8300  137.2360 C   0  0  0  0  0  1  0  0  0  0  0  0
  1  2  2  0  0  0  0
  1  8  1  0  0  0  0
  2  5  1  0  0  0  0
  3  4  2  0  0  0  0
  5 11  2  0  0  0  0
  7 10  2  0  0  0  0
  7  2  1  0  0  0  0
  8  3  1  0  0  0  0
  9  5  1  0  0  0  0
 10  9  1  0  0  0  0
 11  4  1  0  0  0  0
 11  6  1  0  0  0  0
 12  1  1  0  0  0  0
 13 16  2  0  0  0  0
 13 15  1  0  0  0  0
 14 12  1  0  0  0  0
 14 17  1  0  0  0  0
 15 14  2  0  0  0  0
 16 18  1  0  0  0  0
 18 12  2  0  0  0  0
 19 10  1  0  0  0  0
 20 19  1  0  0  0  0
 21 22  2  0  0  0  0
 21 20  1  0  0  0  0
 23 21  1  0  0  0  0
 24 23  1  0  0  0  0
 25 24  1  0  0  0  0
M  END
>  <MODEL>
5

>  <REMARK>
 VINA RESULT:      -7.6      2.185      5.559
  Name = 
  5 active torsions:
  status: ('A' for Active; 'I' for Inactive)
    1  A    between atoms: C_1  and  C_5
    2  A    between atoms: C_2  and  C_7
    3  A    between atoms: C_2  and  C_21
    4  A    between atoms: C_6  and  N_15
    5  A    between atoms: C_6  and  C_23
                            x       y       z     vdW  Elec       q    Type
                         _______ _______ _______ _____ _____    ______ ____

>  <TORSDO>
F 5

$$$$
=
 OpenBabel11052412503D

 25 27  0  0  0  0  0  0  0  0999 V2000
  185.7290  178.3170  145.2110 C   0  0  0  0  0  0  0  0  0  0  0  0
  186.0850  178.2270  143.9090 C   0  0  0  0  0  0  0  0  0  0  0  0
  183.2540  178.8460  144.9920 C   0  0  0  0  0  3  0  0  0  0  0  0
  183.0570  178.8450  143.6820 C   0  0  0  0  0  3  0  0  0  0  0  0
  185.3220  178.3640  142.7490 C   0  0  0  0  0  0  0  0  0  0  0  0
  183.4350  178.7050  141.2280 C   0  0  0  0  0  1  0  0  0  0  0  0
  187.3610  177.9780  143.5420 N   0  0  0  0  0  0  0  0  0  0  0  0
  184.4450  178.6220  145.6790 O   0  0  0  0  0  0  0  0  0  0  0  0
  186.1270  178.1870  141.6780 N   0  0  0  0  0  2  0  0  0  0  0  0
  187.3440  177.9670  142.2010 C   0  0  0  0  0  0  0  0  0  0  0  0
  184.0140  178.6200  142.6030 C   0  0  0  0  0  0  0  0  0  0  0  0
  186.7430  178.0890  146.2730 C   0  0  0  0  0  0  0  0  0  0  0  0
  188.5870  177.6030  148.3030 C   0  0  0  0  0  3  0  0  0  0  0  0
  186.7720  178.8770  147.4410 C   0  0  0  0  0  0  0  0  0  0  0  0
  187.6890  178.6180  148.4130 N   0  0  0  0  0  0  0  0  0  0  0  0
  188.5880  176.7900  147.1720 C   0  0  0  0  0  3  0  0  0  0  0  0
  185.8720  179.9690  147.6100 N   0  0  0  0  0  1  0  0  0  0  0  0
  187.6600  177.0340  146.1600 C   0  0  0  0  0  3  0  0  0  0  0  0
  188.5450  177.6690  141.3720 C   0  0  0  0  0  2  0  0  0  0  0  0
  189.7580  177.8980  142.1440 N   0  0  0  0  0  2  0  0  0  0  0  0
  190.5340  176.8350  142.7020 C   0  0  0  0  0  0  0  0  0  0  0  0
  190.1570  175.6380  142.5900 O   0  0  0  0  0  0  0  0  0  0  0  0
  191.7780  177.1480  143.4540 C   0  0  0  0  0  2  0  0  0  0  0  0
  191.4330  177.5560  144.8730 C   0  0  0  0  0  2  0  0  0  0  0  0
  191.7280  176.4080  145.8140 C   0  0  0  0  0  1  0  0  0  0  0  0
  1  8  1  0  0  0  0
  1 12  1  0  0  0  0
  2  1  2  0  0  0  0
  3  8  1  0  0  0  0
  4  3  2  0  0  0  0
  5  2  1  0  0  0  0
  6 11  1  0  0  0  0
  7  2  1  0  0  0  0
  9 10  1  0  0  0  0
  9  5  1  0  0  0  0
 10  7  2  0  0  0  0
 11  5  2  0  0  0  0
 11  4  1  0  0  0  0
 12 14  1  0  0  0  0
 13 15  1  0  0  0  0
 14 17  1  0  0  0  0
 14 15  2  0  0  0  0
 16 13  2  0  0  0  0
 18 12  2  0  0  0  0
 18 16  1  0  0  0  0
 19 20  1  0  0  0  0
 19 10  1  0  0  0  0
 20 21  1  0  0  0  0
 21 23  1  0  0  0  0
 22 21  2  0  0  0  0
 23 24  1  0  0  0  0
 24 25  1  0  0  0  0
M  END
>  <MODEL>
6

>  <REMARK>
 VINA RESULT:      -7.5      2.098      5.910
  Name = 
  5 active torsions:
  status: ('A' for Active; 'I' for Inactive)
    1  A    between atoms: C_1  and  C_5
    2  A    between atoms: C_2  and  C_7
    3  A    between atoms: C_2  and  C_21
    4  A    between atoms: C_6  and  N_15
    5  A    between atoms: C_6  and  C_23
                            x       y       z     vdW  Elec       q    Type
                         _______ _______ _______ _____ _____    ______ ____

>  <TORSDO>
F 5

$$$$
=
 OpenBabel11052412503D

 25 27  0  0  0  0  0  0  0  0999 V2000
  187.7610  177.9670  144.5260 C   0  0  0  0  0  0  0  0  0  0  0  0
  186.8000  178.2650  143.6210 C   0  0  0  0  0  0  0  0  0  0  0  0
  186.4380  178.1110  146.6900 C   0  0  0  0  0  3  0  0  0  0  0  0
  185.2130  178.4030  146.2800 C   0  0  0  0  0  3  0  0  0  0  0  0
  185.4470  178.5580  143.7990 C   0  0  0  0  0  0  0  0  0  0  0  0
  183.2640  178.9460  144.8330 C   0  0  0  0  0  1  0  0  0  0  0  0
  187.0720  178.3330  142.3000 N   0  0  0  0  0  0  0  0  0  0  0  0
  187.5800  177.9250  145.9140 O   0  0  0  0  0  0  0  0  0  0  0  0
  184.8930  178.7910  142.5890 N   0  0  0  0  0  2  0  0  0  0  0  0
  185.9070  178.6550  141.7190 C   0  0  0  0  0  0  0  0  0  0  0  0
  184.7190  178.6190  144.9230 C   0  0  0  0  0  0  0  0  0  0  0  0
  189.1380  177.6540  144.0660 C   0  0  0  0  0  0  0  0  0  0  0  0
  191.7030  177.1090  143.1260 C   0  0  0  0  0  3  0  0  0  0  0  0
  189.4310  176.4530  143.3870 C   0  0  0  0  0  0  0  0  0  0  0  0
  190.6960  176.2140  142.9450 N   0  0  0  0  0  0  0  0  0  0  0  0
  191.4580  178.3140  143.7810 C   0  0  0  0  0  3  0  0  0  0  0  0
  188.4260  175.4650  143.1810 N   0  0  0  0  0  1  0  0  0  0  0  0
  190.1720  178.5850  144.2460 C   0  0  0  0  0  3  0  0  0  0  0  0
  185.7370  178.7790  140.2440 C   0  0  0  0  0  2  0  0  0  0  0  0
  184.6380  179.6840  139.9390 N   0  0  0  0  0  2  0  0  0  0  0  0
  183.6510  179.3950  138.9460 C   0  0  0  0  0  0  0  0  0  0  0  0
  183.7310  178.3520  138.2450 O   0  0  0  0  0  0  0  0  0  0  0  0
  182.5400  180.3560  138.7120 C   0  0  0  0  0  2  0  0  0  0  0  0
  181.3070  179.6130  138.2380 C   0  0  0  0  0  2  0  0  0  0  0  0
  180.8890  180.1420  136.8830 C   0  0  0  0  0  1  0  0  0  0  0  0
  1  8  1  0  0  0  0
  2  5  1  0  0  0  0
  2  1  2  0  0  0  0
  4  3  2  0  0  0  0
  5 11  2  0  0  0  0
  6 11  1  0  0  0  0
  7  2  1  0  0  0  0
  8  3  1  0  0  0  0
  9  5  1  0  0  0  0
 10  7  2  0  0  0  0
 10  9  1  0  0  0  0
 11  4  1  0  0  0  0
 12 18  1  0  0  0  0
 12  1  1  0  0  0  0
 13 16  1  0  0  0  0
 14 12  2  0  0  0  0
 15 13  2  0  0  0  0
 15 14  1  0  0  0  0
 16 18  2  0  0  0  0
 17 14  1  0  0  0  0
 19 10  1  0  0  0  0
 20 19  1  0  0  0  0
 21 20  1  0  0  0  0
 22 21  2  0  0  0  0
 23 21  1  0  0  0  0
 24 23  1  0  0  0  0
 25 24  1  0  0  0  0
M  END
>  <MODEL>
7

>  <REMARK>
 VINA RESULT:      -7.5      2.943      5.675
  Name = 
  5 active torsions:
  status: ('A' for Active; 'I' for Inactive)
    1  A    between atoms: C_1  and  C_5
    2  A    between atoms: C_2  and  C_7
    3  A    between atoms: C_2  and  C_21
    4  A    between atoms: C_6  and  N_15
    5  A    between atoms: C_6  and  C_23
                            x       y       z     vdW  Elec       q    Type
                         _______ _______ _______ _____ _____    ______ ____

>  <TORSDO>
F 5

$$$$
=
 OpenBabel11052412503D

 25 27  0  0  0  0  0  0  0  0999 V2000
  189.2480  177.4610  144.3510 C   0  0  0  0  0  0  0  0  0  0  0  0
  188.0920  177.7330  145.0000 C   0  0  0  0  0  0  0  0  0  0  0  0
  190.8160  177.0730  146.3130 C   0  0  0  0  0  3  0  0  0  0  0  0
  190.0280  177.2240  147.3670 C   0  0  0  0  0  3  0  0  0  0  0  0
  187.8090  177.7770  146.3660 C   0  0  0  0  0  0  0  0  0  0  0  0
  188.0410  177.6570  148.7990 C   0  0  0  0  0  1  0  0  0  0  0  0
  186.9610  178.0370  144.3280 N   0  0  0  0  0  0  0  0  0  0  0  0
  190.4760  177.1870  144.9660 O   0  0  0  0  0  0  0  0  0  0  0  0
  186.5050  178.0950  146.5260 N   0  0  0  0  0  2  0  0  0  0  0  0
  186.0370  178.2510  145.2770 C   0  0  0  0  0  0  0  0  0  0  0  0
  188.6070  177.5560  147.4190 C   0  0  0  0  0  0  0  0  0  0  0  0
  189.2750  177.4420  142.8660 C   0  0  0  0  0  0  0  0  0  0  0  0
  189.2490  177.3630  140.0820 C   0  0  0  0  0  3  0  0  0  0  0  0
  189.8800  176.3840  142.1560 C   0  0  0  0  0  0  0  0  0  0  0  0
  189.8550  176.3770  140.7960 N   0  0  0  0  0  0  0  0  0  0  0  0
  188.6290  178.4220  140.7400 C   0  0  0  0  0  3  0  0  0  0  0  0
  190.5490  175.3300  142.8430 N   0  0  0  0  0  1  0  0  0  0  0  0
  188.6400  178.4560  142.1340 C   0  0  0  0  0  3  0  0  0  0  0  0
  184.6120  178.5620  144.9740 C   0  0  0  0  0  2  0  0  0  0  0  0
  184.3450  178.3610  143.5560 N   0  0  0  0  0  2  0  0  0  0  0  0
  183.1480  178.8180  142.9210 C   0  0  0  0  0  0  0  0  0  0  0  0
  182.2380  179.3740  143.5910 O   0  0  0  0  0  0  0  0  0  0  0  0
  182.9610  178.6000  141.4620 C   0  0  0  0  0  2  0  0  0  0  0  0
  184.2920  178.2780  140.8140 C   0  0  0  0  0  2  0  0  0  0  0  0
  184.5430  179.2410  139.6730 C   0  0  0  0  0  1  0  0  0  0  0  0
  1  8  1  0  0  0  0
  1  2  2  0  0  0  0
  2  5  1  0  0  0  0
  3  4  2  0  0  0  0
  4 11  1  0  0  0  0
  5  9  1  0  0  0  0
  5 11  2  0  0  0  0
  7  2  1  0  0  0  0
  7 10  2  0  0  0  0
  8  3  1  0  0  0  0
 10  9  1  0  0  0  0
 11  6  1  0  0  0  0
 12  1  1  0  0  0  0
 13 16  2  0  0  0  0
 13 15  1  0  0  0  0
 14 17  1  0  0  0  0
 14 12  1  0  0  0  0
 15 14  2  0  0  0  0
 16 18  1  0  0  0  0
 18 12  2  0  0  0  0
 19 10  1  0  0  0  0
 20 19  1  0  0  0  0
 21 20  1  0  0  0  0
 21 22  2  0  0  0  0
 23 21  1  0  0  0  0
 24 23  1  0  0  0  0
 25 24  1  0  0  0  0
M  END
>  <MODEL>
8

>  <REMARK>
 VINA RESULT:      -7.4      2.080      5.400
  Name = 
  5 active torsions:
  status: ('A' for Active; 'I' for Inactive)
    1  A    between atoms: C_1  and  C_5
    2  A    between atoms: C_2  and  C_7
    3  A    between atoms: C_2  and  C_21
    4  A    between atoms: C_6  and  N_15
    5  A    between atoms: C_6  and  C_23
                            x       y       z     vdW  Elec       q    Type
                         _______ _______ _______ _____ _____    ______ ____

>  <TORSDO>
F 5

$$$$
=
 OpenBabel11052412503D

 25 27  0  0  0  0  0  0  0  0999 V2000
  187.1630  177.8560  145.0550 C   0  0  0  0  0  0  0  0  0  0  0  0
  188.1010  177.7150  144.0910 C   0  0  0  0  0  0  0  0  0  0  0  0
  188.5300  177.3280  147.1310 C   0  0  0  0  0  3  0  0  0  0  0  0
  189.7430  177.1050  146.6480 C   0  0  0  0  0  3  0  0  0  0  0  0
  189.4550  177.3890  144.1850 C   0  0  0  0  0  0  0  0  0  0  0  0
  191.6560  176.8130  145.0860 C   0  0  0  0  0  1  0  0  0  0  0  0
  187.8010  177.8810  142.7850 N   0  0  0  0  0  0  0  0  0  0  0  0
  187.3740  177.6530  146.4250 O   0  0  0  0  0  0  0  0  0  0  0  0
  189.9820  177.3670  142.9400 N   0  0  0  0  0  2  0  0  0  0  0  0
  188.9510  177.6590  142.1300 C   0  0  0  0  0  0  0  0  0  0  0  0
  190.2060  177.1280  145.2640 C   0  0  0  0  0  0  0  0  0  0  0  0
  185.7790  178.2520  144.6880 C   0  0  0  0  0  0  0  0  0  0  0  0
  183.2150  179.0750  143.9770 C   0  0  0  0  0  3  0  0  0  0  0  0
  184.9090  178.8370  145.6310 C   0  0  0  0  0  0  0  0  0  0  0  0
  183.6600  179.2240  145.2530 N   0  0  0  0  0  0  0  0  0  0  0  0
  184.0440  178.5130  143.0090 C   0  0  0  0  0  3  0  0  0  0  0  0
  185.3060  179.0030  146.9890 N   0  0  0  0  0  1  0  0  0  0  0  0
  185.3290  178.1070  143.3680 C   0  0  0  0  0  3  0  0  0  0  0  0
  189.0880  177.7940  140.6530 C   0  0  0  0  0  2  0  0  0  0  0  0
  190.0110  176.7910  140.1410 N   0  0  0  0  0  2  0  0  0  0  0  0
  190.4660  176.7770  138.7850 C   0  0  0  0  0  0  0  0  0  0  0  0
  190.0310  177.6180  137.9530 O   0  0  0  0  0  0  0  0  0  0  0  0
  191.4320  175.7370  138.3440 C   0  0  0  0  0  2  0  0  0  0  0  0
  192.7650  176.3780  138.0160 C   0  0  0  0  0  2  0  0  0  0  0  0
  193.5180  175.5050  137.0350 C   0  0  0  0  0  1  0  0  0  0  0  0
  1  8  1  0  0  0  0
  2  5  1  0  0  0  0
  2  1  2  0  0  0  0
  4  3  2  0  0  0  0
  5 11  2  0  0  0  0
  6 11  1  0  0  0  0
  7  2  1  0  0  0  0
  8  3  1  0  0  0  0
  9  5  1  0  0  0  0
 10  7  2  0  0  0  0
 10  9  1  0  0  0  0
 11  4  1  0  0  0  0
 12  1  1  0  0  0  0
 12 14  1  0  0  0  0
 13 15  1  0  0  0  0
 14 17  1  0  0  0  0
 15 14  2  0  0  0  0
 16 18  1  0  0  0  0
 16 13  2  0  0  0  0
 18 12  2  0  0  0  0
 19 10  1  0  0  0  0
 20 19  1  0  0  0  0
 21 20  1  0  0  0  0
 22 21  2  0  0  0  0
 23 21  1  0  0  0  0
 24 23  1  0  0  0  0
 25 24  1  0  0  0  0
M  END
>  <MODEL>
9

>  <REMARK>
 VINA RESULT:      -7.2      2.217      7.342
  Name = 
  5 active torsions:
  status: ('A' for Active; 'I' for Inactive)
    1  A    between atoms: C_1  and  C_5
    2  A    between atoms: C_2  and  C_7
    3  A    between atoms: C_2  and  C_21
    4  A    between atoms: C_6  and  N_15
    5  A    between atoms: C_6  and  C_23
                            x       y       z     vdW  Elec       q    Type
                         _______ _______ _______ _____ _____    ______ ____

>  <TORSDO>
F 5

$$$$
