=
 OpenBabel11052415293D

 37 40  0  0  1  0  0  0  0  0999 V2000
  181.3610  175.7510  139.9040 C   0  0  0  0  0  2  0  0  0  0  0  0
  185.0220  178.7560  139.7960 C   0  0  1  0  0  3  0  0  0  0  0  0
  180.3110  175.7680  138.7860 C   0  0  1  0  0  3  0  0  0  0  0  0
  184.5870  176.4550  136.6930 C   0  0  0  0  0  2  0  0  0  0  0  0
  184.6460  177.5140  139.0240 C   0  0  2  0  0  3  0  0  0  0  0  0
  183.9230  178.9490  140.8350 C   0  0  1  0  0  3  0  0  0  0  0  0
  185.1790  177.5510  137.5860 C   0  0  1  0  0  3  0  0  0  0  0  0
  180.5840  174.7650  137.8300 O   0  0  0  0  0  0  0  0  0  0  0  0
  182.6700  178.4010  140.1600 C   0  0  2  0  0  3  0  0  0  0  0  0
  187.4790  178.0910  139.8900 C   0  0  0  0  0  3  0  0  0  0  0  0
  181.7790  175.0860  137.1450 C   0  0  2  0  0  3  0  0  0  0  0  0
  184.3530  175.1280  137.4200 C   0  0  0  0  0  2  0  0  0  0  0  0
  186.4250  178.7790  140.3590 C   0  0  0  0  0  3  0  0  0  0  0  0
  183.1280  177.4240  139.0620 C   0  0  2  0  0  3  0  0  0  0  0  0
  186.7150  177.5230  137.5000 C   0  0  2  0  0  3  0  0  0  0  0  0
  182.9780  175.0530  138.1090 C   0  0  1  0  0  3  0  0  0  0  0  0
  182.7740  175.9550  139.3430 C   0  0  2  0  0  3  0  0  0  0  0  0
  187.4500  177.0780  138.7760 C   0  0  0  0  0  2  0  0  0  0  0  0
  186.4860  179.8120  136.7530 O   0  0  0  0  0  1  0  0  0  0  0  0
  187.3430  178.7010  136.7140 C   0  0  2  0  0  0  0  0  0  0  0  0
  186.3060  178.2320  134.5950 O   0  0  0  0  0  1  0  0  0  0  0  0
  187.5360  178.3020  135.2530 C   0  0  0  0  0  2  0  0  0  0  0  0
  188.6130  179.0340  137.2450 O   0  0  0  0  0  0  0  0  0  0  0  0
  190.3600  177.5830  137.4010 F   0  0  0  0  0  0  0  0  0  0  0  0
  189.6150  178.3550  136.5300 C   0  0  0  0  0  2  0  0  0  0  0  0
  181.6660  176.3150  136.4790 O   0  0  0  0  0  0  0  0  0  0  0  0
  181.2320  175.9850  135.1940 C   0  0  0  0  0  1  0  0  0  0  0  0
  178.9310  175.7800  140.7990 N   0  0  0  0  0  1  0  0  0  0  0  0
  178.9310  175.5220  139.3700 C   0  0  0  0  0  2  0  0  0  0  0  0
  181.8040  179.5480  139.6100 C   0  0  2  0  0  3  0  0  0  0  0  0
  180.4420  179.5500  140.2680 C   0  0  0  0  0  1  0  0  0  0  0  0
  181.6310  179.5290  138.0920 C   0  0  0  0  0  2  0  0  0  0  0  0
  181.1280  180.8670  137.5710 C   0  0  0  0  0  2  0  0  0  0  0  0
  181.7060  182.0050  138.3890 C   0  0  0  0  0  1  0  0  0  0  0  0
  184.1860  178.1540  142.1130 C   0  0  0  0  0  2  0  0  0  0  0  0
  183.9740  179.0300  143.3330 C   0  0  0  0  0  2  0  0  0  0  0  0
  182.4970  179.0780  143.6660 C   0  0  0  0  0  1  0  0  0  0  0  0
  2 13  1  1  0  0  0
  2  6  1  0  0  0  0
  3 29  1  1  0  0  0
  3  1  1  0  0  0  0
  4 12  1  0  0  0  0
  4  7  1  0  0  0  0
  5 14  1  0  0  0  0
  5  2  1  0  0  0  0
  6 35  1  0  0  0  0
  7  5  1  0  0  0  0
  8  3  1  0  0  0  0
  9  6  1  0  0  0  0
 10 13  2  0  0  0  0
 11  8  1  0  0  0  0
 11 16  1  0  0  0  0
 12 16  1  0  0  0  0
 14 17  1  0  0  0  0
 14  9  1  0  0  0  0
 15  7  1  0  0  0  0
 15 18  1  0  0  0  0
 16 17  1  0  0  0  0
 17  1  1  0  0  0  0
 18 10  1  0  0  0  0
 20 19  1  0  0  0  0
 20 23  1  0  0  0  0
 20 15  1  0  0  0  0
 21 22  1  0  0  0  0
 22 20  1  0  0  0  0
 25 23  1  0  0  0  0
 25 24  1  0  0  0  0
 26 11  1  0  0  0  0
 27 26  1  0  0  0  0
 29 28  1  0  0  0  0
 30  9  1  0  0  0  0
 30 31  1  0  0  0  0
 32 30  1  0  0  0  0
 33 32  1  0  0  0  0
 33 34  1  0  0  0  0
 35 36  1  0  0  0  0
 36 37  1  0  0  0  0
M  END
>  <MODEL>
1

>  <REMARK>
 VINA RESULT:      -4.4      0.000      0.000
  Name = 
  11 active torsions:
  status: ('A' for Active; 'I' for Inactive)
    1  A    between atoms: C_3  and  C_32
    2  A    between atoms: C_5  and  C_23
    3  A    between atoms: C_8  and  O_18
    4  A    between atoms: C_8  and  C_19
    5  A    between atoms: C_8  and  C_31
    6  A    between atoms: C_9  and  C_13
    7  A    between atoms: C_9  and  C_16
    8  A    between atoms: O_11  and  C_26
    9  A    between atoms: O_18  and  C_35
   10  A    between atoms: C_20  and  C_21
   11  A    between atoms: C_21  and  C_32
                            x       y       z     vdW  Elec       q    Type
                         _______ _______ _______ _____ _____    ______ ____

>  <TORSDO>
F 11

$$$$
=
 OpenBabel11052415293D

 37 40  0  0  1  0  0  0  0  0999 V2000
  181.1510  178.0660  138.2820 C   0  0  0  0  0  2  0  0  0  0  0  0
  185.1190  176.5130  136.2100 C   0  0  1  0  0  3  0  0  0  0  0  0
  180.8730  177.7530  139.7570 C   0  0  1  0  0  3  0  0  0  0  0  0
  185.5760  178.6950  139.3950 C   0  0  0  0  0  2  0  0  0  0  0  0
  184.8000  177.5920  137.2180 C   0  0  2  0  0  3  0  0  0  0  0  0
  183.7790  175.8960  135.8240 C   0  0  1  0  0  3  0  0  0  0  0  0
  185.9600  177.8210  138.1960 C   0  0  1  0  0  3  0  0  0  0  0  0
  181.2450  178.8410  140.5770 O   0  0  0  0  0  0  0  0  0  0  0  0
  182.9330  176.0180  137.0870 C   0  0  2  0  0  3  0  0  0  0  0  0
  186.8290  177.9750  135.0160 C   0  0  0  0  0  3  0  0  0  0  0  0
  182.6520  178.9890  140.5460 C   0  0  2  0  0  3  0  0  0  0  0  0
  184.5940  179.8180  139.0490 C   0  0  0  0  0  2  0  0  0  0  0  0
  185.9700  176.9420  135.0380 C   0  0  0  0  0  3  0  0  0  0  0  0
  183.5340  177.1520  137.9360 C   0  0  2  0  0  3  0  0  0  0  0  0
  187.2270  178.3800  137.5250 C   0  0  2  0  0  3  0  0  0  0  0  0
  183.1210  179.3780  139.1330 C   0  0  1  0  0  3  0  0  0  0  0  0
  182.6320  178.3920  138.0520 C   0  0  2  0  0  3  0  0  0  0  0  0
  187.0340  178.9780  136.1210 C   0  0  0  0  0  2  0  0  0  0  0  0
  188.1660  176.1810  137.8890 O   0  0  0  0  0  1  0  0  0  0  0  0
  188.5060  177.5350  137.7490 C   0  0  2  0  0  0  0  0  0  0  0  0
  189.2540  176.9400  139.9570 O   0  0  0  0  0  1  0  0  0  0  0  0
  189.2030  177.9840  139.0310 C   0  0  0  0  0  2  0  0  0  0  0  0
  189.4150  177.7110  136.6760 O   0  0  0  0  0  0  0  0  0  0  0  0
  189.5630  176.2080  134.9740 F   0  0  0  0  0  0  0  0  0  0  0  0
  189.9260  176.4630  136.2830 C   0  0  0  0  0  2  0  0  0  0  0  0
  183.2930  177.8360  141.0210 O   0  0  0  0  0  0  0  0  0  0  0  0
  183.7570  178.1830  142.2910 C   0  0  0  0  0  1  0  0  0  0  0  0
  179.1370  177.0460  141.3200 N   0  0  0  0  0  1  0  0  0  0  0  0
  179.3930  177.4760  139.9560 C   0  0  0  0  0  2  0  0  0  0  0  0
  182.8850  174.6760  137.8390 C   0  0  2  0  0  3  0  0  0  0  0  0
  184.0740  173.8150  137.4710 C   0  0  0  0  0  1  0  0  0  0  0  0
  181.5990  173.8800  137.6170 C   0  0  0  0  0  2  0  0  0  0  0  0
  180.4100  174.7970  137.3760 C   0  0  0  0  0  2  0  0  0  0  0  0
  179.1710  173.9850  137.0540 C   0  0  0  0  0  1  0  0  0  0  0  0
  183.0930  176.6600  134.6920 C   0  0  0  0  0  2  0  0  0  0  0  0
  181.6010  176.3900  134.7020 C   0  0  0  0  0  2  0  0  0  0  0  0
  180.8520  177.7020  134.5940 C   0  0  0  0  0  1  0  0  0  0  0  0
  1  3  1  0  0  0  0
  2 13  1  6  0  0  0
  2  5  1  0  0  0  0
  3 29  1  6  0  0  0
  3  8  1  0  0  0  0
  5 14  1  0  0  0  0
  5  7  1  0  0  0  0
  6  2  1  0  0  0  0
  6  9  1  0  0  0  0
  7  4  1  0  0  0  0
  9 30  1  0  0  0  0
  9 14  1  0  0  0  0
 10 13  2  0  0  0  0
 10 18  1  0  0  0  0
 11  8  1  0  0  0  0
 11 26  1  0  0  0  0
 12 16  1  0  0  0  0
 12  4  1  0  0  0  0
 14 17  1  0  0  0  0
 15 20  1  0  0  0  0
 15  7  1  0  0  0  0
 16 11  1  0  0  0  0
 17  1  1  0  0  0  0
 17 16  1  0  0  0  0
 18 15  1  0  0  0  0
 20 19  1  0  0  0  0
 20 22  1  0  0  0  0
 22 21  1  0  0  0  0
 23 20  1  0  0  0  0
 24 25  1  0  0  0  0
 25 23  1  0  0  0  0
 26 27  1  0  0  0  0
 29 28  1  0  0  0  0
 31 30  1  0  0  0  0
 32 30  1  0  0  0  0
 33 32  1  0  0  0  0
 34 33  1  0  0  0  0
 35 36  1  0  0  0  0
 35  6  1  0  0  0  0
 37 36  1  0  0  0  0
M  END
>  <MODEL>
2

>  <REMARK>
 VINA RESULT:      -4.4      2.085      4.971
  Name = 
  11 active torsions:
  status: ('A' for Active; 'I' for Inactive)
    1  A    between atoms: C_3  and  C_32
    2  A    between atoms: C_5  and  C_23
    3  A    between atoms: C_8  and  O_18
    4  A    between atoms: C_8  and  C_19
    5  A    between atoms: C_8  and  C_31
    6  A    between atoms: C_9  and  C_13
    7  A    between atoms: C_9  and  C_16
    8  A    between atoms: O_11  and  C_26
    9  A    between atoms: O_18  and  C_35
   10  A    between atoms: C_20  and  C_21
   11  A    between atoms: C_21  and  C_32
                            x       y       z     vdW  Elec       q    Type
                         _______ _______ _______ _____ _____    ______ ____

>  <TORSDO>
F 11

$$$$
=
 OpenBabel11052415293D

 37 40  0  0  1  0  0  0  0  0999 V2000
  185.5430  177.4170  135.8560 C   0  0  0  0  0  2  0  0  0  0  0  0
  181.1630  176.5430  137.4370 C   0  0  1  0  0  3  0  0  0  0  0  0
  186.7520  176.7370  136.5090 C   0  0  1  0  0  3  0  0  0  0  0  0
  183.2420  173.4540  136.3200 C   0  0  0  0  0  2  0  0  0  0  0  0
  182.1780  175.7620  136.6370 C   0  0  2  0  0  3  0  0  0  0  0  0
  181.7920  177.9090  137.6860 C   0  0  1  0  0  3  0  0  0  0  0  0
  182.0620  174.2520  136.8850 C   0  0  1  0  0  3  0  0  0  0  0  0
  187.1480  175.6020  135.7670 O   0  0  0  0  0  0  0  0  0  0  0  0
  183.2880  177.6210  137.7720 C   0  0  2  0  0  3  0  0  0  0  0  0
  179.2240  175.6960  136.0180 C   0  0  0  0  0  3  0  0  0  0  0  0
  186.1420  174.6120  135.8580 C   0  0  2  0  0  3  0  0  0  0  0  0
  183.7790  174.0030  134.9950 C   0  0  0  0  0  2  0  0  0  0  0  0
  179.7690  176.5950  136.8550 C   0  0  0  0  0  3  0  0  0  0  0  0
  183.5450  176.2970  137.0330 C   0  0  2  0  0  3  0  0  0  0  0  0
  180.7370  173.6490  136.3890 C   0  0  2  0  0  3  0  0  0  0  0  0
  184.8470  175.0960  135.1840 C   0  0  1  0  0  3  0  0  0  0  0  0
  184.3580  176.4500  135.7380 C   0  0  2  0  0  3  0  0  0  0  0  0
  179.9310  174.5160  135.4050 C   0  0  0  0  0  2  0  0  0  0  0  0
  180.7910  172.1260  138.2670 O   0  0  0  0  0  1  0  0  0  0  0  0
  179.9260  172.8890  137.4680 C   0  0  2  0  0  0  0  0  0  0  0  0
  179.5710  170.7510  136.4240 O   0  0  0  0  0  1  0  0  0  0  0  0
  178.9370  171.9380  136.7970 C   0  0  0  0  0  2  0  0  0  0  0  0
  179.1830  173.7950  138.2650 O   0  0  0  0  0  0  0  0  0  0  0  0
  180.4380  174.8160  139.8660 F   0  0  0  0  0  0  0  0  0  0  0  0
  179.6300  173.7280  139.5950 C   0  0  0  0  0  2  0  0  0  0  0  0
  185.9360  174.2210  137.1890 O   0  0  0  0  0  0  0  0  0  0  0  0
  186.6610  173.0380  137.3300 C   0  0  0  0  0  1  0  0  0  0  0  0
  187.4700  179.0090  137.0370 N   0  0  0  0  0  1  0  0  0  0  0  0
  187.9190  177.7080  136.5730 C   0  0  0  0  0  2  0  0  0  0  0  0
  183.7490  177.5810  139.2400 C   0  0  2  0  0  3  0  0  0  0  0  0
  182.5660  177.7140  140.1740 C   0  0  0  0  0  1  0  0  0  0  0  0
  184.7940  178.6380  139.5970 C   0  0  0  0  0  2  0  0  0  0  0  0
  184.7190  179.0220  141.0670 C   0  0  0  0  0  2  0  0  0  0  0  0
  186.0890  178.9240  141.7100 C   0  0  0  0  0  1  0  0  0  0  0  0
  181.5400  178.8840  136.5360 C   0  0  0  0  0  2  0  0  0  0  0  0
  180.7830  180.1000  137.0320 C   0  0  0  0  0  2  0  0  0  0  0  0
  181.5110  180.6950  138.2200 C   0  0  0  0  0  1  0  0  0  0  0  0
  1  3  1  0  0  0  0
  2 13  1  6  0  0  0
  2  6  1  0  0  0  0
  3 29  1  6  0  0  0
  4  7  1  0  0  0  0
  5  7  1  0  0  0  0
  5 14  1  0  0  0  0
  5  2  1  0  0  0  0
  6  9  1  0  0  0  0
  8 11  1  0  0  0  0
  8  3  1  0  0  0  0
  9 30  1  0  0  0  0
 10 13  2  0  0  0  0
 11 26  1  0  0  0  0
 12 16  1  0  0  0  0
 12  4  1  0  0  0  0
 14  9  1  0  0  0  0
 15  7  1  0  0  0  0
 15 20  1  0  0  0  0
 16 17  1  0  0  0  0
 16 11  1  0  0  0  0
 17  1  1  0  0  0  0
 17 14  1  0  0  0  0
 18 10  1  0  0  0  0
 18 15  1  0  0  0  0
 20 23  1  0  0  0  0
 20 19  1  0  0  0  0
 21 22  1  0  0  0  0
 22 20  1  0  0  0  0
 23 25  1  0  0  0  0
 25 24  1  0  0  0  0
 26 27  1  0  0  0  0
 29 28  1  0  0  0  0
 30 32  1  0  0  0  0
 30 31  1  0  0  0  0
 32 33  1  0  0  0  0
 33 34  1  0  0  0  0
 35 36  1  0  0  0  0
 35  6  1  0  0  0  0
 36 37  1  0  0  0  0
M  END
>  <MODEL>
3

>  <REMARK>
 VINA RESULT:      -4.3      3.186      6.988
  Name = 
  11 active torsions:
  status: ('A' for Active; 'I' for Inactive)
    1  A    between atoms: C_3  and  C_32
    2  A    between atoms: C_5  and  C_23
    3  A    between atoms: C_8  and  O_18
    4  A    between atoms: C_8  and  C_19
    5  A    between atoms: C_8  and  C_31
    6  A    between atoms: C_9  and  C_13
    7  A    between atoms: C_9  and  C_16
    8  A    between atoms: O_11  and  C_26
    9  A    between atoms: O_18  and  C_35
   10  A    between atoms: C_20  and  C_21
   11  A    between atoms: C_21  and  C_32
                            x       y       z     vdW  Elec       q    Type
                         _______ _______ _______ _____ _____    ______ ____

>  <TORSDO>
F 11

$$$$
=
 OpenBabel11052415293D

 37 40  0  0  1  0  0  0  0  0999 V2000
  185.0710  175.9210  135.0180 C   0  0  0  0  0  2  0  0  0  0  0  0
  189.0700  175.5220  137.5280 C   0  0  1  0  0  3  0  0  0  0  0  0
  183.7190  175.5750  135.6550 C   0  0  1  0  0  3  0  0  0  0  0  0
  186.3130  177.8150  139.0290 C   0  0  0  0  0  2  0  0  0  0  0  0
  187.9080  176.4870  137.5290 C   0  0  2  0  0  3  0  0  0  0  0  0
  188.7930  174.5390  136.3960 C   0  0  1  0  0  3  0  0  0  0  0  0
  187.6440  177.0610  138.9270 C   0  0  1  0  0  3  0  0  0  0  0  0
  183.0690  176.7420  136.1130 O   0  0  0  0  0  0  0  0  0  0  0  0
  187.2710  174.4420  136.3490 C   0  0  2  0  0  3  0  0  0  0  0  0
  190.7650  177.3850  137.9080 C   0  0  0  0  0  3  0  0  0  0  0  0
  183.7980  177.2860  137.1970 C   0  0  2  0  0  3  0  0  0  0  0  0
  185.9530  178.6020  137.7650 C   0  0  0  0  0  2  0  0  0  0  0  0
  190.4440  176.1500  137.4870 C   0  0  0  0  0  3  0  0  0  0  0  0
  186.7080  175.7200  136.9960 C   0  0  2  0  0  3  0  0  0  0  0  0
  188.7880  177.9430  139.4550 C   0  0  2  0  0  3  0  0  0  0  0  0
  185.1850  177.7610  136.7300 C   0  0  1  0  0  3  0  0  0  0  0  0
  185.9820  176.6520  136.0130 C   0  0  2  0  0  3  0  0  0  0  0  0
  189.8000  178.4290  138.4030 C   0  0  0  0  0  2  0  0  0  0  0  0
  189.6100  176.1230  140.8190 O   0  0  0  0  0  1  0  0  0  0  0  0
  189.3660  177.5060  140.8240 C   0  0  2  0  0  0  0  0  0  0  0  0
  187.9550  176.6290  142.5630 O   0  0  0  0  0  1  0  0  0  0  0  0
  188.3580  177.8060  141.9300 C   0  0  0  0  0  2  0  0  0  0  0  0
  190.5560  178.2190  141.1140 O   0  0  0  0  0  0  0  0  0  0  0  0
  192.5800  177.2720  140.6870 F   0  0  0  0  0  0  0  0  0  0  0  0
  191.5350  177.3300  141.5880 C   0  0  0  0  0  2  0  0  0  0  0  0
  183.8770  176.3750  138.2610 O   0  0  0  0  0  0  0  0  0  0  0  0
  182.7830  176.6780  139.0730 C   0  0  0  0  0  1  0  0  0  0  0  0
  181.5540  174.5310  135.2310 N   0  0  0  0  0  1  0  0  0  0  0  0
  182.8280  174.8900  134.6330 C   0  0  0  0  0  2  0  0  0  0  0  0
  186.7880  173.1600  137.0490 C   0  0  2  0  0  3  0  0  0  0  0  0
  187.1230  171.9400  136.2180 C   0  0  0  0  0  1  0  0  0  0  0  0
  185.2960  173.1510  137.3790 C   0  0  0  0  0  2  0  0  0  0  0  0
  184.5460  172.1240  136.5450 C   0  0  0  0  0  2  0  0  0  0  0  0
  183.1580  171.8920  137.1100 C   0  0  0  0  0  1  0  0  0  0  0  0
  189.2980  175.0490  135.0470 C   0  0  0  0  0  2  0  0  0  0  0  0
  190.5000  174.2420  134.5940 C   0  0  0  0  0  2  0  0  0  0  0  0
  190.5090  172.9080  135.3130 C   0  0  0  0  0  1  0  0  0  0  0  0
  1  3  1  0  0  0  0
  1 17  1  0  0  0  0
  2 13  1  6  0  0  0
  2  5  1  0  0  0  0
  3 29  1  6  0  0  0
  3  8  1  0  0  0  0
  5  7  1  0  0  0  0
  6  2  1  0  0  0  0
  7  4  1  0  0  0  0
  7 15  1  0  0  0  0
  8 11  1  0  0  0  0
  9  6  1  0  0  0  0
  9 14  1  0  0  0  0
  9 30  1  0  0  0  0
 10 18  1  0  0  0  0
 11 26  1  0  0  0  0
 12  4  1  0  0  0  0
 13 10  2  0  0  0  0
 14  5  1  0  0  0  0
 15 20  1  0  0  0  0
 16 11  1  0  0  0  0
 16 12  1  0  0  0  0
 17 16  1  0  0  0  0
 17 14  1  0  0  0  0
 18 15  1  0  0  0  0
 19 20  1  0  0  0  0
 20 23  1  0  0  0  0
 20 22  1  0  0  0  0
 22 21  1  0  0  0  0
 23 25  1  0  0  0  0
 24 25  1  0  0  0  0
 26 27  1  0  0  0  0
 29 28  1  0  0  0  0
 30 32  1  0  0  0  0
 31 30  1  0  0  0  0
 33 34  1  0  0  0  0
 33 32  1  0  0  0  0
 35  6  1  0  0  0  0
 36 35  1  0  0  0  0
 36 37  1  0  0  0  0
M  END
>  <MODEL>
4

>  <REMARK>
 VINA RESULT:      -4.0      3.138      6.532
  Name = 
  11 active torsions:
  status: ('A' for Active; 'I' for Inactive)
    1  A    between atoms: C_3  and  C_32
    2  A    between atoms: C_5  and  C_23
    3  A    between atoms: C_8  and  O_18
    4  A    between atoms: C_8  and  C_19
    5  A    between atoms: C_8  and  C_31
    6  A    between atoms: C_9  and  C_13
    7  A    between atoms: C_9  and  C_16
    8  A    between atoms: O_11  and  C_26
    9  A    between atoms: O_18  and  C_35
   10  A    between atoms: C_20  and  C_21
   11  A    between atoms: C_21  and  C_32
                            x       y       z     vdW  Elec       q    Type
                         _______ _______ _______ _____ _____    ______ ____

>  <TORSDO>
F 11

$$$$
=
 OpenBabel11052415293D

 37 40  0  0  1  0  0  0  0  0999 V2000
  186.2860  178.4980  137.0430 C   0  0  0  0  0  2  0  0  0  0  0  0
  181.7120  177.6380  137.9300 C   0  0  1  0  0  3  0  0  0  0  0  0
  187.3700  177.5550  137.5790 C   0  0  1  0  0  3  0  0  0  0  0  0
  183.6930  174.7930  136.1700 C   0  0  0  0  0  2  0  0  0  0  0  0
  182.7540  177.0140  137.0320 C   0  0  2  0  0  3  0  0  0  0  0  0
  182.3990  178.8180  138.6080 C   0  0  1  0  0  3  0  0  0  0  0  0
  182.5130  175.5120  136.8330 C   0  0  1  0  0  3  0  0  0  0  0  0
  187.7680  176.6350  136.5840 O   0  0  0  0  0  0  0  0  0  0  0  0
  183.8540  178.3790  138.7380 C   0  0  2  0  0  3  0  0  0  0  0  0
  179.8880  177.3970  136.1680 C   0  0  0  0  0  3  0  0  0  0  0  0
  186.6960  175.7560  136.3050 C   0  0  2  0  0  3  0  0  0  0  0  0
  184.4060  175.6310  135.1050 C   0  0  0  0  0  2  0  0  0  0  0  0
  180.3960  177.9770  137.2680 C   0  0  0  0  0  3  0  0  0  0  0  0
  184.1030  177.2900  137.6800 C   0  0  2  0  0  3  0  0  0  0  0  0
  181.2130  175.1950  136.0750 C   0  0  2  0  0  3  0  0  0  0  0  0
  185.5160  176.5260  135.6860 C   0  0  1  0  0  3  0  0  0  0  0  0
  185.0600  177.7160  136.5550 C   0  0  2  0  0  3  0  0  0  0  0  0
  180.5780  176.3700  135.3100 C   0  0  0  0  0  2  0  0  0  0  0  0
  178.9320  174.7470  136.7430 O   0  0  0  0  0  1  0  0  0  0  0  0
  180.2410  174.2470  136.8210 C   0  0  2  0  0  0  0  0  0  0  0  0
  179.7570  174.9210  139.0790 O   0  0  0  0  0  1  0  0  0  0  0  0
  180.6300  174.1650  138.2950 C   0  0  0  0  0  2  0  0  0  0  0  0
  180.3060  172.9390  136.2810 O   0  0  0  0  0  0  0  0  0  0  0  0
  180.2650  170.7570  136.9280 F   0  0  0  0  0  0  0  0  0  0  0  0
  180.6650  172.0290  137.2900 C   0  0  0  0  0  2  0  0  0  0  0  0
  186.3200  175.0370  137.4490 O   0  0  0  0  0  0  0  0  0  0  0  0
  186.8820  173.7720  137.2760 C   0  0  0  0  0  1  0  0  0  0  0  0
  188.5050  178.6670  139.4320 N   0  0  0  0  0  1  0  0  0  0  0  0
  188.5830  178.3580  138.0150 C   0  0  0  0  0  2  0  0  0  0  0  0
  184.1480  177.8950  140.1680 C   0  0  2  0  0  3  0  0  0  0  0  0
  182.8930  177.9330  141.0130 C   0  0  0  0  0  1  0  0  0  0  0  0
  185.2570  178.6740  140.8770 C   0  0  0  0  0  2  0  0  0  0  0  0
  184.9320  178.8940  142.3460 C   0  0  0  0  0  2  0  0  0  0  0  0
  185.8570  178.0720  143.2220 C   0  0  0  0  0  1  0  0  0  0  0  0
  182.3380  180.0890  137.7620 C   0  0  0  0  0  2  0  0  0  0  0  0
  182.0590  181.2940  138.6400 C   0  0  0  0  0  2  0  0  0  0  0  0
  180.6040  181.6900  138.5030 C   0  0  0  0  0  1  0  0  0  0  0  0
  1  3  1  0  0  0  0
  2 13  1  6  0  0  0
  2  6  1  0  0  0  0
  3 29  1  6  0  0  0
  4  7  1  0  0  0  0
  5 14  1  0  0  0  0
  5  2  1  0  0  0  0
  6  9  1  0  0  0  0
  7  5  1  0  0  0  0
  8  3  1  0  0  0  0
  9 30  1  0  0  0  0
 10 13  2  0  0  0  0
 11  8  1  0  0  0  0
 11 26  1  0  0  0  0
 12 16  1  0  0  0  0
 12  4  1  0  0  0  0
 14  9  1  0  0  0  0
 15 20  1  0  0  0  0
 15  7  1  0  0  0  0
 16 11  1  0  0  0  0
 16 17  1  0  0  0  0
 17  1  1  0  0  0  0
 17 14  1  0  0  0  0
 18 15  1  0  0  0  0
 18 10  1  0  0  0  0
 19 20  1  0  0  0  0
 20 22  1  0  0  0  0
 22 21  1  0  0  0  0
 23 20  1  0  0  0  0
 23 25  1  0  0  0  0
 24 25  1  0  0  0  0
 27 26  1  0  0  0  0
 29 28  1  0  0  0  0
 30 32  1  0  0  0  0
 30 31  1  0  0  0  0
 32 33  1  0  0  0  0
 33 34  1  0  0  0  0
 35  6  1  0  0  0  0
 35 36  1  0  0  0  0
 37 36  1  0  0  0  0
M  END
>  <MODEL>
5

>  <REMARK>
 VINA RESULT:      -3.8      3.149      6.698
  Name = 
  11 active torsions:
  status: ('A' for Active; 'I' for Inactive)
    1  A    between atoms: C_3  and  C_32
    2  A    between atoms: C_5  and  C_23
    3  A    between atoms: C_8  and  O_18
    4  A    between atoms: C_8  and  C_19
    5  A    between atoms: C_8  and  C_31
    6  A    between atoms: C_9  and  C_13
    7  A    between atoms: C_9  and  C_16
    8  A    between atoms: O_11  and  C_26
    9  A    between atoms: O_18  and  C_35
   10  A    between atoms: C_20  and  C_21
   11  A    between atoms: C_21  and  C_32
                            x       y       z     vdW  Elec       q    Type
                         _______ _______ _______ _____ _____    ______ ____

>  <TORSDO>
F 11

$$$$
=
 OpenBabel11052415293D

 37 40  0  0  1  0  0  0  0  0999 V2000
  182.9000  174.6490  138.4060 C   0  0  0  0  0  2  0  0  0  0  0  0
  179.4820  177.8440  139.1500 C   0  0  1  0  0  3  0  0  0  0  0  0
  183.5650  174.5320  137.0290 C   0  0  1  0  0  3  0  0  0  0  0  0
  182.8760  179.2210  137.8480 C   0  0  0  0  0  2  0  0  0  0  0  0
  180.9800  177.9150  138.9680 C   0  0  2  0  0  3  0  0  0  0  0  0
  179.1280  176.3620  139.1090 C   0  0  1  0  0  3  0  0  0  0  0  0
  181.4130  179.2290  138.3040 C   0  0  1  0  0  3  0  0  0  0  0  0
  184.7840  175.2440  137.0010 O   0  0  0  0  0  0  0  0  0  0  0  0
  180.1590  175.7570  138.1620 C   0  0  2  0  0  3  0  0  0  0  0  0
  179.5030  179.6320  140.9640 C   0  0  0  0  0  3  0  0  0  0  0  0
  184.5180  176.6290  137.1050 C   0  0  2  0  0  3  0  0  0  0  0  0
  183.8130  178.4610  138.7920 C   0  0  0  0  0  2  0  0  0  0  0  0
  178.9310  178.5850  140.3460 C   0  0  0  0  0  3  0  0  0  0  0  0
  181.3720  176.7040  138.1360 C   0  0  2  0  0  3  0  0  0  0  0  0
  181.1410  180.4720  139.1680 C   0  0  2  0  0  3  0  0  0  0  0  0
  183.8980  176.9570  138.4740 C   0  0  1  0  0  3  0  0  0  0  0  0
  182.6400  176.1150  138.7750 C   0  0  2  0  0  3  0  0  0  0  0  0
  180.8610  180.2060  140.6570 C   0  0  0  0  0  2  0  0  0  0  0  0
  179.4690  182.1990  139.4370 O   0  0  0  0  0  1  0  0  0  0  0  0
  180.2770  181.5610  138.4830 C   0  0  2  0  0  0  0  0  0  0  0  0
  179.9790  180.8990  136.1900 O   0  0  0  0  0  1  0  0  0  0  0  0
  179.3640  180.9170  137.4430 C   0  0  0  0  0  2  0  0  0  0  0  0
  181.0980  182.5040  137.8170 O   0  0  0  0  0  0  0  0  0  0  0  0
  181.0270  184.7510  137.4670 F   0  0  0  0  0  0  0  0  0  0  0  0
  180.3110  183.5750  137.3600 C   0  0  0  0  0  2  0  0  0  0  0  0
  183.7200  177.0720  136.0400 O   0  0  0  0  0  0  0  0  0  0  0  0
  184.6090  177.2550  134.9800 C   0  0  0  0  0  1  0  0  0  0  0  0
  185.2700  172.8010  136.7910 N   0  0  0  0  0  1  0  0  0  0  0  0
  183.8450  173.0720  136.7140 C   0  0  0  0  0  2  0  0  0  0  0  0
  179.5500  175.5360  136.7670 C   0  0  2  0  0  3  0  0  0  0  0  0
  179.0080  174.1290  136.6390 C   0  0  0  0  0  1  0  0  0  0  0  0
  180.5130  175.8110  135.6120 C   0  0  0  0  0  2  0  0  0  0  0  0
  180.2710  177.1820  134.9990 C   0  0  0  0  0  2  0  0  0  0  0  0
  178.9310  177.7330  135.4440 C   0  0  0  0  0  1  0  0  0  0  0  0
  179.2600  175.6950  140.4780 C   0  0  0  0  0  2  0  0  0  0  0  0
  179.0730  174.1960  140.3540 C   0  0  0  0  0  2  0  0  0  0  0  0
  179.3110  173.5460  141.7010 C   0  0  0  0  0  1  0  0  0  0  0  0
  1 17  1  0  0  0  0
  2 13  1  1  0  0  0
  3 29  1  1  0  0  0
  3  1  1  0  0  0  0
  4  7  1  0  0  0  0
  4 12  1  0  0  0  0
  5  2  1  0  0  0  0
  6  2  1  0  0  0  0
  6 35  1  0  0  0  0
  7  5  1  0  0  0  0
  7 15  1  0  0  0  0
  8  3  1  0  0  0  0
  8 11  1  0  0  0  0
  9  6  1  0  0  0  0
 11 16  1  0  0  0  0
 13 10  2  0  0  0  0
 14  9  1  0  0  0  0
 14 17  1  0  0  0  0
 14  5  1  0  0  0  0
 15 18  1  0  0  0  0
 16 17  1  0  0  0  0
 16 12  1  0  0  0  0
 18 10  1  0  0  0  0
 20 15  1  0  0  0  0
 20 19  1  0  0  0  0
 21 22  1  0  0  0  0
 22 20  1  0  0  0  0
 23 20  1  0  0  0  0
 25 24  1  0  0  0  0
 25 23  1  0  0  0  0
 26 11  1  0  0  0  0
 27 26  1  0  0  0  0
 29 28  1  0  0  0  0
 30  9  1  0  0  0  0
 31 30  1  0  0  0  0
 32 30  1  0  0  0  0
 33 34  1  0  0  0  0
 33 32  1  0  0  0  0
 36 35  1  0  0  0  0
 36 37  1  0  0  0  0
M  END
>  <MODEL>
6

>  <REMARK>
 VINA RESULT:      -3.4      3.477      6.147
  Name = 
  11 active torsions:
  status: ('A' for Active; 'I' for Inactive)
    1  A    between atoms: C_3  and  C_32
    2  A    between atoms: C_5  and  C_23
    3  A    between atoms: C_8  and  O_18
    4  A    between atoms: C_8  and  C_19
    5  A    between atoms: C_8  and  C_31
    6  A    between atoms: C_9  and  C_13
    7  A    between atoms: C_9  and  C_16
    8  A    between atoms: O_11  and  C_26
    9  A    between atoms: O_18  and  C_35
   10  A    between atoms: C_20  and  C_21
   11  A    between atoms: C_21  and  C_32
                            x       y       z     vdW  Elec       q    Type
                         _______ _______ _______ _____ _____    ______ ____

>  <TORSDO>
F 11

$$$$
=
 OpenBabel11052415293D

 37 40  0  0  1  0  0  0  0  0999 V2000
  182.0120  173.7650  137.9940 C   0  0  0  0  0  2  0  0  0  0  0  0
  185.0470  177.2220  136.8560 C   0  0  1  0  0  3  0  0  0  0  0  0
  181.5910  172.7280  136.9460 C   0  0  1  0  0  3  0  0  0  0  0  0
  186.2740  173.5820  136.2560 C   0  0  0  0  0  2  0  0  0  0  0  0
  185.1720  175.7360  137.0960 C   0  0  2  0  0  3  0  0  0  0  0  0
  183.5830  177.5620  137.1120 C   0  0  1  0  0  3  0  0  0  0  0  0
  186.2970  175.1150  136.2590 C   0  0  1  0  0  3  0  0  0  0  0  0
  182.3540  171.5470  137.0770 O   0  0  0  0  0  0  0  0  0  0  0  0
  182.8280  176.3040  136.6940 C   0  0  2  0  0  3  0  0  0  0  0  0
  187.2370  177.7150  138.0580 C   0  0  0  0  0  3  0  0  0  0  0  0
  183.6980  171.8190  136.7280 C   0  0  2  0  0  3  0  0  0  0  0  0
  185.8490  172.9700  137.5950 C   0  0  0  0  0  2  0  0  0  0  0  0
  186.0300  178.0920  137.6050 C   0  0  0  0  0  3  0  0  0  0  0  0
  183.8180  175.1280  136.7640 C   0  0  2  0  0  3  0  0  0  0  0  0
  187.6990  175.6160  136.6460 C   0  0  2  0  0  3  0  0  0  0  0  0
  184.3230  172.8100  137.7260 C   0  0  1  0  0  3  0  0  0  0  0  0
  183.5020  174.1080  137.8690 C   0  0  2  0  0  3  0  0  0  0  0  0
  187.8060  176.3220  138.0090 C   0  0  0  0  0  2  0  0  0  0  0  0
  187.6810  177.0430  134.6930 O   0  0  0  0  0  1  0  0  0  0  0  0
  188.5130  176.2320  135.4800 C   0  0  2  0  0  0  0  0  0  0  0  0
  189.4620  174.0250  135.3650 O   0  0  0  0  0  1  0  0  0  0  0  0
  189.0680  175.1200  134.5940 C   0  0  0  0  0  2  0  0  0  0  0  0
  189.6090  176.9800  135.9770 O   0  0  0  0  0  0  0  0  0  0  0  0
  191.8070  176.3970  136.0650 F   0  0  0  0  0  0  0  0  0  0  0  0
  190.7570  176.6940  135.2180 C   0  0  0  0  0  2  0  0  0  0  0  0
  183.7960  172.2660  135.4020 O   0  0  0  0  0  0  0  0  0  0  0  0
  182.9160  171.4550  134.6860 C   0  0  0  0  0  1  0  0  0  0  0  0
  179.8800  170.9980  136.7520 N   0  0  0  0  0  1  0  0  0  0  0  0
  180.1220  172.3810  137.1230 C   0  0  0  0  0  2  0  0  0  0  0  0
  182.2130  176.4810  135.2950 C   0  0  2  0  0  3  0  0  0  0  0  0
  182.2830  177.9290  134.8600 C   0  0  0  0  0  1  0  0  0  0  0  0
  180.7710  175.9880  135.1780 C   0  0  0  0  0  2  0  0  0  0  0  0
  180.0040  176.1940  136.4760 C   0  0  0  0  0  2  0  0  0  0  0  0
  178.9700  177.2900  136.3130 C   0  0  0  0  0  1  0  0  0  0  0  0
  183.3010  177.8420  138.5880 C   0  0  0  0  0  2  0  0  0  0  0  0
  182.0210  178.6410  138.7380 C   0  0  0  0  0  2  0  0  0  0  0  0
  182.1790  179.9790  138.0470 C   0  0  0  0  0  1  0  0  0  0  0  0
  2  5  1  0  0  0  0
  2  6  1  0  0  0  0
  2 13  1  1  0  0  0
  3  8  1  0  0  0  0
  3 29  1  1  0  0  0
  3  1  1  0  0  0  0
  4  7  1  0  0  0  0
  4 12  1  0  0  0  0
  6 35  1  0  0  0  0
  7 15  1  0  0  0  0
  7  5  1  0  0  0  0
  9 14  1  0  0  0  0
  9  6  1  0  0  0  0
 11  8  1  0  0  0  0
 11 16  1  0  0  0  0
 12 16  1  0  0  0  0
 13 10  2  0  0  0  0
 14  5  1  0  0  0  0
 14 17  1  0  0  0  0
 15 18  1  0  0  0  0
 16 17  1  0  0  0  0
 17  1  1  0  0  0  0
 18 10  1  0  0  0  0
 19 20  1  0  0  0  0
 20 23  1  0  0  0  0
 20 15  1  0  0  0  0
 22 21  1  0  0  0  0
 22 20  1  0  0  0  0
 25 23  1  0  0  0  0
 25 24  1  0  0  0  0
 26 11  1  0  0  0  0
 27 26  1  0  0  0  0
 28 29  1  0  0  0  0
 30  9  1  0  0  0  0
 31 30  1  0  0  0  0
 32 30  1  0  0  0  0
 32 33  1  0  0  0  0
 34 33  1  0  0  0  0
 35 36  1  0  0  0  0
 37 36  1  0  0  0  0
M  END
>  <MODEL>
7

>  <REMARK>
 VINA RESULT:      -3.1      2.646      3.922
  Name = 
  11 active torsions:
  status: ('A' for Active; 'I' for Inactive)
    1  A    between atoms: C_3  and  C_32
    2  A    between atoms: C_5  and  C_23
    3  A    between atoms: C_8  and  O_18
    4  A    between atoms: C_8  and  C_19
    5  A    between atoms: C_8  and  C_31
    6  A    between atoms: C_9  and  C_13
    7  A    between atoms: C_9  and  C_16
    8  A    between atoms: O_11  and  C_26
    9  A    between atoms: O_18  and  C_35
   10  A    between atoms: C_20  and  C_21
   11  A    between atoms: C_21  and  C_32
                            x       y       z     vdW  Elec       q    Type
                         _______ _______ _______ _____ _____    ______ ____

>  <TORSDO>
F 11

$$$$
=
 OpenBabel11052415293D

 37 40  0  0  1  0  0  0  0  0999 V2000
  181.0620  179.2840  139.0060 C   0  0  0  0  0  2  0  0  0  0  0  0
  183.7420  176.7080  136.0680 C   0  0  1  0  0  3  0  0  0  0  0  0
  180.9710  178.9190  140.4920 C   0  0  1  0  0  3  0  0  0  0  0  0
  185.5410  178.2210  139.1650 C   0  0  0  0  0  2  0  0  0  0  0  0
  184.0280  177.7080  137.1630 C   0  0  2  0  0  3  0  0  0  0  0  0
  182.2240  176.6390  135.9540 C   0  0  1  0  0  3  0  0  0  0  0  0
  185.3530  177.4110  137.8770 C   0  0  1  0  0  3  0  0  0  0  0  0
  181.8560  179.7110  141.2570 O   0  0  0  0  0  0  0  0  0  0  0  0
  181.7300  176.8980  137.3740 C   0  0  2  0  0  3  0  0  0  0  0  0
  185.6090  177.6190  134.5940 C   0  0  0  0  0  3  0  0  0  0  0  0
  183.1890  179.3690  140.9300 C   0  0  2  0  0  3  0  0  0  0  0  0
  184.9830  179.6450  139.0840 C   0  0  0  0  0  2  0  0  0  0  0  0
  184.4560  176.9490  134.7580 C   0  0  0  0  0  3  0  0  0  0  0  0
  182.8460  177.6520  138.1190 C   0  0  2  0  0  3  0  0  0  0  0  0
  186.5870  177.5730  136.9730 C   0  0  2  0  0  3  0  0  0  0  0  0
  183.4940  179.7310  139.4660 C   0  0  1  0  0  3  0  0  0  0  0  0
  182.4910  179.1040  138.4760 C   0  0  2  0  0  3  0  0  0  0  0  0
  186.3640  178.3570  135.6680 C   0  0  0  0  0  2  0  0  0  0  0  0
  188.3110  176.4030  135.7450 O   0  0  0  0  0  1  0  0  0  0  0  0
  187.4940  176.3200  136.8820 C   0  0  2  0  0  0  0  0  0  0  0  0
  186.8220  174.4590  135.5140 O   0  0  0  0  0  1  0  0  0  0  0  0
  186.6310  175.0660  136.7570 C   0  0  0  0  0  2  0  0  0  0  0  0
  188.2820  176.1890  138.0520 O   0  0  0  0  0  0  0  0  0  0  0  0
  190.2750  176.8490  138.9300 F   0  0  0  0  0  0  0  0  0  0  0  0
  189.6160  176.5210  137.7610 C   0  0  0  0  0  2  0  0  0  0  0  0
  183.4480  178.0190  141.2090 O   0  0  0  0  0  0  0  0  0  0  0  0
  184.0680  178.0260  142.4590 C   0  0  0  0  0  1  0  0  0  0  0  0
  179.5720  179.9200  142.2240 N   0  0  0  0  0  1  0  0  0  0  0  0
  179.5550  179.1480  140.9940 C   0  0  0  0  0  2  0  0  0  0  0  0
  181.3430  175.5790  138.0640 C   0  0  2  0  0  3  0  0  0  0  0  0
  181.9560  175.4990  139.4450 C   0  0  0  0  0  1  0  0  0  0  0  0
  181.7170  174.3250  137.2730 C   0  0  0  0  0  2  0  0  0  0  0  0
  183.1720  173.9410  137.4930 C   0  0  0  0  0  2  0  0  0  0  0  0
  183.4720  172.6050  136.8420 C   0  0  0  0  0  1  0  0  0  0  0  0
  181.6600  177.7160  135.0290 C   0  0  0  0  0  2  0  0  0  0  0  0
  180.3150  178.1980  135.5370 C   0  0  0  0  0  2  0  0  0  0  0  0
  179.2240  177.7190  134.6030 C   0  0  0  0  0  1  0  0  0  0  0  0
  1  3  1  0  0  0  0
  2 13  1  6  0  0  0
  2  5  1  0  0  0  0
  3 29  1  1  0  0  0
  3  8  1  0  0  0  0
  5  7  1  0  0  0  0
  5 14  1  0  0  0  0
  6  2  1  0  0  0  0
  6  9  1  0  0  0  0
  7  4  1  0  0  0  0
  9 30  1  0  0  0  0
  9 14  1  0  0  0  0
 10 13  2  0  0  0  0
 10 18  1  0  0  0  0
 11 26  1  0  0  0  0
 11  8  1  0  0  0  0
 12  4  1  0  0  0  0
 12 16  1  0  0  0  0
 14 17  1  0  0  0  0
 15  7  1  0  0  0  0
 16 11  1  0  0  0  0
 17  1  1  0  0  0  0
 17 16  1  0  0  0  0
 18 15  1  0  0  0  0
 19 20  1  0  0  0  0
 20 15  1  0  0  0  0
 20 23  1  0  0  0  0
 21 22  1  0  0  0  0
 22 20  1  0  0  0  0
 25 23  1  0  0  0  0
 25 24  1  0  0  0  0
 26 27  1  0  0  0  0
 29 28  1  0  0  0  0
 30 31  1  0  0  0  0
 32 33  1  0  0  0  0
 32 30  1  0  0  0  0
 34 33  1  0  0  0  0
 35 36  1  0  0  0  0
 35  6  1  0  0  0  0
 37 36  1  0  0  0  0
M  END
>  <MODEL>
8

>  <REMARK>
 VINA RESULT:      -3.0      2.260      5.074
  Name = 
  11 active torsions:
  status: ('A' for Active; 'I' for Inactive)
    1  A    between atoms: C_3  and  C_32
    2  A    between atoms: C_5  and  C_23
    3  A    between atoms: C_8  and  O_18
    4  A    between atoms: C_8  and  C_19
    5  A    between atoms: C_8  and  C_31
    6  A    between atoms: C_9  and  C_13
    7  A    between atoms: C_9  and  C_16
    8  A    between atoms: O_11  and  C_26
    9  A    between atoms: O_18  and  C_35
   10  A    between atoms: C_20  and  C_21
   11  A    between atoms: C_21  and  C_32
                            x       y       z     vdW  Elec       q    Type
                         _______ _______ _______ _____ _____    ______ ____

>  <TORSDO>
F 11

$$$$
=
 OpenBabel11052415293D

 37 40  0  0  1  0  0  0  0  0999 V2000
  189.7610  175.7620  135.3650 C   0  0  0  0  0  2  0  0  0  0  0  0
  185.7370  177.0760  137.4940 C   0  0  1  0  0  3  0  0  0  0  0  0
  190.4930  174.4910  135.8110 C   0  0  1  0  0  3  0  0  0  0  0  0
  185.7870  173.5080  135.9530 C   0  0  0  0  0  2  0  0  0  0  0  0
  186.1160  175.9820  136.5250 C   0  0  2  0  0  3  0  0  0  0  0  0
  187.0060  177.8910  137.7190 C   0  0  1  0  0  3  0  0  0  0  0  0
  185.2540  174.7270  136.7140 C   0  0  1  0  0  3  0  0  0  0  0  0
  190.1680  173.4050  134.9680 O   0  0  0  0  0  0  0  0  0  0  0  0
  188.1330  176.8720  137.5840 C   0  0  2  0  0  3  0  0  0  0  0  0
  183.5180  177.5050  136.3190 C   0  0  0  0  0  3  0  0  0  0  0  0
  188.8070  173.0650  135.1490 C   0  0  2  0  0  3  0  0  0  0  0  0
  186.4040  173.8510  134.5940 C   0  0  0  0  0  2  0  0  0  0  0  0
  184.5270  177.8980  137.1150 C   0  0  0  0  0  3  0  0  0  0  0  0
  187.5920  175.6950  136.7530 C   0  0  2  0  0  3  0  0  0  0  0  0
  183.7690  174.9460  136.3780 C   0  0  2  0  0  3  0  0  0  0  0  0
  187.8970  174.2150  134.6850 C   0  0  1  0  0  3  0  0  0  0  0  0
  188.2400  175.5570  135.3660 C   0  0  2  0  0  3  0  0  0  0  0  0
  183.4460  176.2070  135.5580 C   0  0  0  0  0  2  0  0  0  0  0  0
  182.6060  173.2000  137.5820 O   0  0  0  0  0  1  0  0  0  0  0  0
  182.7860  174.5910  137.5210 C   0  0  2  0  0  0  0  0  0  0  0  0
  180.6830  174.4590  136.3610 O   0  0  0  0  0  1  0  0  0  0  0  0
  181.4280  175.2340  137.2520 C   0  0  0  0  0  2  0  0  0  0  0  0
  183.2630  175.0840  138.7610 O   0  0  0  0  0  0  0  0  0  0  0  0
  182.8950  176.7960  140.2150 F   0  0  0  0  0  0  0  0  0  0  0  0
  182.2880  175.9110  139.3450 C   0  0  0  0  0  2  0  0  0  0  0  0
  188.5530  172.6870  136.4760 O   0  0  0  0  0  0  0  0  0  0  0  0
  188.2860  171.3190  136.4130 C   0  0  0  0  0  1  0  0  0  0  0  0
  192.5840  173.9580  134.6690 N   0  0  0  0  0  1  0  0  0  0  0  0
  191.9950  174.7150  135.7590 C   0  0  0  0  0  2  0  0  0  0  0  0
  188.6400  176.4360  138.9700 C   0  0  2  0  0  3  0  0  0  0  0  0
  188.1380  177.3790  140.0420 C   0  0  0  0  0  1  0  0  0  0  0  0
  190.1610  176.3210  139.0720 C   0  0  0  0  0  2  0  0  0  0  0  0
  190.6780  176.9030  140.3780 C   0  0  0  0  0  2  0  0  0  0  0  0
  192.0750  177.4620  140.1940 C   0  0  0  0  0  1  0  0  0  0  0  0
  187.1920  178.9800  136.6640 C   0  0  0  0  0  2  0  0  0  0  0  0
  188.6670  179.1920  136.3800 C   0  0  0  0  0  2  0  0  0  0  0  0
  189.3390  179.7570  137.6140 C   0  0  0  0  0  1  0  0  0  0  0  0
  1 17  1  0  0  0  0
  1  3  1  0  0  0  0
  2 13  1  6  0  0  0
  2  6  1  0  0  0  0
  3 29  1  6  0  0  0
  4  7  1  0  0  0  0
  5  7  1  0  0  0  0
  5 14  1  0  0  0  0
  5  2  1  0  0  0  0
  8 11  1  0  0  0  0
  8  3  1  0  0  0  0
  9  6  1  0  0  0  0
  9 30  1  0  0  0  0
 10 13  2  0  0  0  0
 11 26  1  0  0  0  0
 12 16  1  0  0  0  0
 12  4  1  0  0  0  0
 14  9  1  0  0  0  0
 15  7  1  0  0  0  0
 15 20  1  0  0  0  0
 16 11  1  0  0  0  0
 16 17  1  0  0  0  0
 17 14  1  0  0  0  0
 18 10  1  0  0  0  0
 18 15  1  0  0  0  0
 20 19  1  0  0  0  0
 20 23  1  0  0  0  0
 21 22  1  0  0  0  0
 22 20  1  0  0  0  0
 23 25  1  0  0  0  0
 25 24  1  0  0  0  0
 27 26  1  0  0  0  0
 28 29  1  0  0  0  0
 30 32  1  0  0  0  0
 30 31  1  0  0  0  0
 32 33  1  0  0  0  0
 34 33  1  0  0  0  0
 35  6  1  0  0  0  0
 36 35  1  0  0  0  0
 36 37  1  0  0  0  0
M  END
>  <MODEL>
9

>  <REMARK>
 VINA RESULT:      -2.6      4.177      7.782
  Name = 
  11 active torsions:
  status: ('A' for Active; 'I' for Inactive)
    1  A    between atoms: C_3  and  C_32
    2  A    between atoms: C_5  and  C_23
    3  A    between atoms: C_8  and  O_18
    4  A    between atoms: C_8  and  C_19
    5  A    between atoms: C_8  and  C_31
    6  A    between atoms: C_9  and  C_13
    7  A    between atoms: C_9  and  C_16
    8  A    between atoms: O_11  and  C_26
    9  A    between atoms: O_18  and  C_35
   10  A    between atoms: C_20  and  C_21
   11  A    between atoms: C_21  and  C_32
                            x       y       z     vdW  Elec       q    Type
                         _______ _______ _______ _____ _____    ______ ____

>  <TORSDO>
F 11

$$$$
