=
 OpenBabel11052412283D

 30 33  0  0  1  0  0  0  0  0999 V2000
  187.1680  178.0050  143.5740 N   0  0  0  0  0  0  0  0  0  0  0  0
  184.8800  178.5330  143.0860 C   0  0  0  0  0  0  0  0  0  0  0  0
  186.5000  178.2560  147.6920 C   0  0  0  0  0  3  0  0  0  0  0  0
  188.2090  177.7840  144.4200 C   0  0  0  0  0  0  0  0  0  0  0  0
  187.5520  178.0380  148.5840 C   0  0  0  0  0  3  0  0  0  0  0  0
  183.5970  178.8440  143.5410 C   0  0  0  0  0  3  0  0  0  0  0  0
  185.1220  178.4520  141.6170 C   0  0  0  0  0  1  0  0  0  0  0  0
  186.7070  178.1740  146.3050 C   0  0  0  0  0  0  0  0  0  0  0  0
  183.3350  178.9330  144.9090 C   0  0  0  0  0  3  0  0  0  0  0  0
  185.9170  178.3070  144.0100 C   0  0  0  0  0  0  0  0  0  0  0  0
  188.0010  177.8640  145.8150 C   0  0  0  0  0  0  0  0  0  0  0  0
  188.8250  177.7360  148.1010 C   0  0  0  0  0  3  0  0  0  0  0  0
  189.0480  177.6500  146.7260 C   0  0  0  0  0  3  0  0  0  0  0  0
  184.3590  178.7110  145.8320 C   0  0  0  0  0  3  0  0  0  0  0  0
  185.6560  178.3970  145.3970 C   0  0  0  0  0  0  0  0  0  0  0  0
  189.5520  177.4850  143.8010 C   0  0  1  0  0  3  0  0  0  0  0  0
  188.2390  175.9700  142.4630 O   0  0  0  0  0  1  0  0  0  0  0  0
  189.4440  176.6740  142.4950 C   0  0  1  0  0  3  0  0  0  0  0  0
  188.3500  177.4290  140.4150 N   0  0  0  0  0  2  0  0  0  0  0  0
  190.9900  177.0680  140.1960 S   0  0  0  0  0  0  0  0  0  0  0  0
  189.5590  177.5180  141.2180 C   0  0  2  0  0  3  0  0  0  0  0  0
  188.6950  177.8300  139.1160 N   0  0  0  0  0  2  0  0  0  0  0  0
  189.8970  177.0980  138.7570 C   0  0  0  0  0  2  0  0  0  0  0  0
  190.3720  178.7590  143.6100 C   0  0  0  0  0  2  0  0  0  0  0  0
  191.7270  178.6270  144.2870 C   0  0  0  0  0  2  0  0  0  0  0  0
  192.0490  177.1150  146.0770 N   0  0  0  0  0  0  0  0  0  0  0  0
  191.8830  177.2890  144.8290 N   0  0  0  0  0  0  0  0  0  0  0  0
  192.2790  175.6150  148.0360 N   0  0  0  0  0  1  0  0  0  0  0  0
  192.2050  175.8070  146.6260 C   0  0  0  0  0  0  0  0  0  0  0  0
  192.2760  174.8140  145.8570 O   0  0  0  0  0  0  0  0  0  0  0  0
  1 10  2  0  0  0  0
  1  4  1  0  0  0  0
  2  6  2  0  0  0  0
  2 10  1  0  0  0  0
  3  5  2  0  0  0  0
  4 11  2  0  0  0  0
  6  9  1  0  0  0  0
  7  2  1  0  0  0  0
  8  3  1  0  0  0  0
  9 14  2  0  0  0  0
 10 15  1  0  0  0  0
 11  8  1  0  0  0  0
 11 13  1  0  0  0  0
 12  5  1  0  0  0  0
 13 12  2  0  0  0  0
 15 14  1  0  0  0  0
 15  8  2  0  0  0  0
 16 24  1  6  0  0  0
 16  4  1  0  0  0  0
 18 17  1  6  0  0  0
 18 16  1  0  0  0  0
 19 21  1  0  0  0  0
 20 21  1  0  0  0  0
 21 18  1  1  0  0  0
 22 19  1  0  0  0  0
 23 22  1  0  0  0  0
 23 20  1  0  0  0  0
 24 25  1  0  0  0  0
 25 27  1  0  0  0  0
 26 29  1  0  0  0  0
 27 26  2  0  0  0  0
 29 28  1  0  0  0  0
 30 29  2  0  0  0  0
M  END
>  <MODEL>
1

>  <REMARK>
 VINA RESULT:      -9.6      0.000      0.000
  Name = 
  7 active torsions:
  status: ('A' for Active; 'I' for Inactive)
    1  A    between atoms: C_4  and  C_13
    2  A    between atoms: N_7  and  C_15
    3  A    between atoms: C_8  and  C_12
    4  A    between atoms: C_8  and  C_13
    5  A    between atoms: C_13  and  C_27
    6  A    between atoms: N_16  and  C_30
    7  A    between atoms: C_27  and  C_30
                            x       y       z     vdW  Elec       q    Type
                         _______ _______ _______ _____ _____    ______ ____

>  <TORSDO>
F 7

$$$$
=
 OpenBabel11052412283D

 30 33  0  0  1  0  0  0  0  0999 V2000
  186.4060  178.0150  142.6270 N   0  0  0  0  0  0  0  0  0  0  0  0
  184.0890  178.5510  142.3130 C   0  0  0  0  0  0  0  0  0  0  0  0
  186.0460  178.2420  146.7840 C   0  0  0  0  0  3  0  0  0  0  0  0
  187.5060  177.7870  143.3920 C   0  0  0  0  0  0  0  0  0  0  0  0
  187.1600  178.0170  147.5940 C   0  0  0  0  0  3  0  0  0  0  0  0
  182.8440  178.8620  142.8640 C   0  0  0  0  0  3  0  0  0  0  0  0
  184.2210  178.4780  140.8290 C   0  0  0  0  0  1  0  0  0  0  0  0
  186.1490  178.1680  145.3850 C   0  0  0  0  0  0  0  0  0  0  0  0
  182.6850  178.9440  144.2480 C   0  0  0  0  0  3  0  0  0  0  0  0
  185.1910  178.3170  143.1560 C   0  0  0  0  0  0  0  0  0  0  0  0
  187.4020  177.8590  144.7980 C   0  0  0  0  0  0  0  0  0  0  0  0
  188.3930  177.7150  147.0160 C   0  0  0  0  0  3  0  0  0  0  0  0
  188.5130  177.6370  145.6280 C   0  0  0  0  0  3  0  0  0  0  0  0
  183.7740  178.7130  145.0920 C   0  0  0  0  0  3  0  0  0  0  0  0
  185.0340  178.4000  144.5590 C   0  0  0  0  0  0  0  0  0  0  0  0
  188.7990  177.4890  142.6730 C   0  0  1  0  0  3  0  0  0  0  0  0
  188.9090  179.0190  140.8140 O   0  0  0  0  0  1  0  0  0  0  0  0
  188.6960  177.6800  141.1470 C   0  0  1  0  0  3  0  0  0  0  0  0
  190.9700  177.4330  140.2210 N   0  0  0  0  0  2  0  0  0  0  0  0
  189.0420  176.4120  138.6770 S   0  0  0  0  0  0  0  0  0  0  0  0
  189.6630  176.8070  140.3360 C   0  0  2  0  0  3  0  0  0  0  0  0
  191.6170  176.8270  139.1330 N   0  0  0  0  0  2  0  0  0  0  0  0
  190.6750  176.8340  138.0280 C   0  0  0  0  0  2  0  0  0  0  0  0
  189.9600  178.2840  143.2650 C   0  0  0  0  0  2  0  0  0  0  0  0
  191.1890  177.4020  143.4140 C   0  0  0  0  0  2  0  0  0  0  0  0
  191.7150  176.1790  145.3700 N   0  0  0  0  0  0  0  0  0  0  0  0
  191.5690  177.3130  144.8130 N   0  0  0  0  0  0  0  0  0  0  0  0
  191.6910  177.0710  147.6810 N   0  0  0  0  0  1  0  0  0  0  0  0
  192.0870  176.0740  146.7430 C   0  0  0  0  0  0  0  0  0  0  0  0
  192.7690  175.0910  147.1290 O   0  0  0  0  0  0  0  0  0  0  0  0
  1 10  2  0  0  0  0
  1  4  1  0  0  0  0
  2  6  2  0  0  0  0
  2 10  1  0  0  0  0
  3  5  2  0  0  0  0
  4 11  2  0  0  0  0
  6  9  1  0  0  0  0
  7  2  1  0  0  0  0
  8  3  1  0  0  0  0
  9 14  2  0  0  0  0
 10 15  1  0  0  0  0
 11  8  1  0  0  0  0
 11 13  1  0  0  0  0
 12  5  1  0  0  0  0
 13 12  2  0  0  0  0
 15 14  1  0  0  0  0
 15  8  2  0  0  0  0
 16 24  1  1  0  0  0
 16  4  1  0  0  0  0
 18 17  1  1  0  0  0
 18 16  1  0  0  0  0
 19 21  1  0  0  0  0
 20 21  1  0  0  0  0
 21 18  1  6  0  0  0
 22 19  1  0  0  0  0
 23 20  1  0  0  0  0
 23 22  1  0  0  0  0
 24 25  1  0  0  0  0
 25 27  1  0  0  0  0
 26 29  1  0  0  0  0
 27 26  2  0  0  0  0
 29 30  2  0  0  0  0
 29 28  1  0  0  0  0
M  END
>  <MODEL>
2

>  <REMARK>
 VINA RESULT:      -9.3      1.426      1.537
  Name = 
  7 active torsions:
  status: ('A' for Active; 'I' for Inactive)
    1  A    between atoms: C_4  and  C_13
    2  A    between atoms: N_7  and  C_15
    3  A    between atoms: C_8  and  C_12
    4  A    between atoms: C_8  and  C_13
    5  A    between atoms: C_13  and  C_27
    6  A    between atoms: N_16  and  C_30
    7  A    between atoms: C_27  and  C_30
                            x       y       z     vdW  Elec       q    Type
                         _______ _______ _______ _____ _____    ______ ____

>  <TORSDO>
F 7

$$$$
=
 OpenBabel11052412283D

 30 33  0  0  1  0  0  0  0  0999 V2000
  188.7700  177.2890  144.3290 N   0  0  0  0  0  0  0  0  0  0  0  0
  189.6020  177.3590  146.5780 C   0  0  0  0  0  0  0  0  0  0  0  0
  184.9900  178.6060  145.5300 C   0  0  0  0  0  3  0  0  0  0  0  0
  187.8020  177.4410  143.3880 C   0  0  0  0  0  0  0  0  0  0  0  0
  183.9750  178.7680  144.5850 C   0  0  0  0  0  3  0  0  0  0  0  0
  189.3800  177.6220  147.9320 C   0  0  0  0  0  3  0  0  0  0  0  0
  190.9480  176.8810  146.1490 C   0  0  0  0  0  1  0  0  0  0  0  0
  186.2670  178.1650  145.1430 C   0  0  0  0  0  0  0  0  0  0  0  0
  188.1310  178.0670  148.3690 C   0  0  0  0  0  3  0  0  0  0  0  0
  188.5620  177.5440  145.6470 C   0  0  0  0  0  0  0  0  0  0  0  0
  186.5190  177.8860  143.7760 C   0  0  0  0  0  0  0  0  0  0  0  0
  184.2230  178.4910  143.2410 C   0  0  0  0  0  3  0  0  0  0  0  0
  185.4860  178.0530  142.8390 C   0  0  0  0  0  3  0  0  0  0  0  0
  187.0950  178.2510  147.4520 C   0  0  0  0  0  3  0  0  0  0  0  0
  187.2960  177.9930  146.0880 C   0  0  0  0  0  0  0  0  0  0  0  0
  188.1600  177.0970  141.9630 C   0  0  1  0  0  3  0  0  0  0  0  0
  188.5230  179.4190  141.4290 O   0  0  0  0  0  1  0  0  0  0  0  0
  187.8970  178.2540  140.9810 C   0  0  1  0  0  3  0  0  0  0  0  0
  189.0840  179.0970  138.9880 N   0  0  0  0  0  2  0  0  0  0  0  0
  186.9670  177.5630  138.4340 S   0  0  0  0  0  0  0  0  0  0  0  0
  188.3460  177.9730  139.5410 C   0  0  2  0  0  3  0  0  0  0  0  0
  189.0560  178.9560  137.5920 N   0  0  0  0  0  2  0  0  0  0  0  0
  187.6740  178.7060  137.2250 C   0  0  0  0  0  2  0  0  0  0  0  0
  189.5950  176.5840  141.8600 C   0  0  0  0  0  2  0  0  0  0  0  0
  190.5830  177.7100  142.1170 C   0  0  0  0  0  2  0  0  0  0  0  0
  191.9060  177.3550  140.1890 N   0  0  0  0  0  0  0  0  0  0  0  0
  191.8440  177.4240  141.4570 N   0  0  0  0  0  0  0  0  0  0  0  0
  193.1580  176.7770  138.1310 N   0  0  0  0  0  1  0  0  0  0  0  0
  193.1370  177.0750  139.5240 C   0  0  0  0  0  0  0  0  0  0  0  0
  194.2130  177.0920  140.1740 O   0  0  0  0  0  0  0  0  0  0  0  0
  1 10  1  0  0  0  0
  2  6  1  0  0  0  0
  4 11  1  0  0  0  0
  4  1  2  0  0  0  0
  5  3  2  0  0  0  0
  6  9  2  0  0  0  0
  7  2  1  0  0  0  0
  8  3  1  0  0  0  0
  8 15  1  0  0  0  0
 10 15  1  0  0  0  0
 10  2  2  0  0  0  0
 11  8  2  0  0  0  0
 12  5  1  0  0  0  0
 13 12  2  0  0  0  0
 13 11  1  0  0  0  0
 14  9  1  0  0  0  0
 15 14  2  0  0  0  0
 16 24  1  1  0  0  0
 16  4  1  0  0  0  0
 18 17  1  1  0  0  0
 18 16  1  0  0  0  0
 19 21  1  0  0  0  0
 20 21  1  0  0  0  0
 21 18  1  1  0  0  0
 22 19  1  0  0  0  0
 23 22  1  0  0  0  0
 23 20  1  0  0  0  0
 24 25  1  0  0  0  0
 26 27  2  0  0  0  0
 27 25  1  0  0  0  0
 28 29  1  0  0  0  0
 29 30  2  0  0  0  0
 29 26  1  0  0  0  0
M  END
>  <MODEL>
3

>  <REMARK>
 VINA RESULT:      -9.3      2.384      4.668
  Name = 
  7 active torsions:
  status: ('A' for Active; 'I' for Inactive)
    1  A    between atoms: C_4  and  C_13
    2  A    between atoms: N_7  and  C_15
    3  A    between atoms: C_8  and  C_12
    4  A    between atoms: C_8  and  C_13
    5  A    between atoms: C_13  and  C_27
    6  A    between atoms: N_16  and  C_30
    7  A    between atoms: C_27  and  C_30
                            x       y       z     vdW  Elec       q    Type
                         _______ _______ _______ _____ _____    ______ ____

>  <TORSDO>
F 7

$$$$
=
 OpenBabel11052412283D

 30 33  0  0  1  0  0  0  0  0999 V2000
  185.5130  178.1920  142.0260 N   0  0  0  0  0  0  0  0  0  0  0  0
  183.3450  178.5540  141.0660 C   0  0  0  0  0  0  0  0  0  0  0  0
  184.0450  178.7140  145.9040 C   0  0  0  0  0  3  0  0  0  0  0  0
  186.3770  178.0940  143.0700 C   0  0  0  0  0  0  0  0  0  0  0  0
  184.9110  178.6230  146.9950 C   0  0  0  0  0  3  0  0  0  0  0  0
  181.9860  178.8270  141.2400 C   0  0  0  0  0  3  0  0  0  0  0  0
  183.8710  178.3760  139.6830 C   0  0  0  0  0  1  0  0  0  0  0  0
  184.5230  178.5400  144.5930 C   0  0  0  0  0  0  0  0  0  0  0  0
  181.4590  179.0040  142.5210 C   0  0  0  0  0  3  0  0  0  0  0  0
  184.1900  178.4560  142.1870 C   0  0  0  0  0  0  0  0  0  0  0  0
  185.8980  178.2670  144.3880 C   0  0  0  0  0  0  0  0  0  0  0  0
  186.2650  178.3570  146.7910 C   0  0  0  0  0  3  0  0  0  0  0  0
  186.7550  178.1800  145.4970 C   0  0  0  0  0  3  0  0  0  0  0  0
  182.2920  178.9090  143.6380 C   0  0  0  0  0  3  0  0  0  0  0  0
  183.6600  178.6360  143.4860 C   0  0  0  0  0  0  0  0  0  0  0  0
  187.8260  177.8230  142.7470 C   0  0  1  0  0  3  0  0  0  0  0  0
  188.4530  175.5130  143.0330 O   0  0  0  0  0  1  0  0  0  0  0  0
  188.4570  176.7590  143.6650 C   0  0  1  0  0  3  0  0  0  0  0  0
  190.1170  178.5170  144.1600 N   0  0  0  0  0  2  0  0  0  0  0  0
  191.1530  176.3110  143.0630 S   0  0  0  0  0  0  0  0  0  0  0  0
  189.8890  177.0820  144.1130 C   0  0  2  0  0  3  0  0  0  0  0  0
  191.5070  178.7100  144.1280 N   0  0  0  0  0  2  0  0  0  0  0  0
  192.0160  177.8990  143.0360 C   0  0  0  0  0  2  0  0  0  0  0  0
  188.0110  177.4780  141.2710 C   0  0  0  0  0  2  0  0  0  0  0  0
  188.8840  178.5170  140.5870 C   0  0  0  0  0  2  0  0  0  0  0  0
  187.3560  178.2700  138.7980 N   0  0  0  0  0  0  0  0  0  0  0  0
  188.5080  178.6390  139.1890 N   0  0  0  0  0  0  0  0  0  0  0  0
  186.1500  177.3880  136.8210 N   0  0  0  0  0  1  0  0  0  0  0  0
  186.9710  178.3820  137.4290 C   0  0  0  0  0  0  0  0  0  0  0  0
  187.3580  179.3690  136.7520 O   0  0  0  0  0  0  0  0  0  0  0  0
  1 10  2  0  0  0  0
  1  4  1  0  0  0  0
  2  6  2  0  0  0  0
  2 10  1  0  0  0  0
  3  5  2  0  0  0  0
  4 11  2  0  0  0  0
  6  9  1  0  0  0  0
  7  2  1  0  0  0  0
  8  3  1  0  0  0  0
  9 14  2  0  0  0  0
 10 15  1  0  0  0  0
 11  8  1  0  0  0  0
 11 13  1  0  0  0  0
 12  5  1  0  0  0  0
 13 12  2  0  0  0  0
 15 14  1  0  0  0  0
 15  8  2  0  0  0  0
 16 24  1  6  0  0  0
 16  4  1  0  0  0  0
 16 18  1  0  0  0  0
 18 17  1  6  0  0  0
 20 21  1  0  0  0  0
 21 18  1  6  0  0  0
 21 19  1  0  0  0  0
 22 19  1  0  0  0  0
 23 20  1  0  0  0  0
 23 22  1  0  0  0  0
 25 24  1  0  0  0  0
 26 27  2  0  0  0  0
 27 25  1  0  0  0  0
 28 29  1  0  0  0  0
 29 26  1  0  0  0  0
 30 29  2  0  0  0  0
M  END
>  <MODEL>
4

>  <REMARK>
 VINA RESULT:      -9.2      2.135      5.102
  Name = 
  7 active torsions:
  status: ('A' for Active; 'I' for Inactive)
    1  A    between atoms: C_4  and  C_13
    2  A    between atoms: N_7  and  C_15
    3  A    between atoms: C_8  and  C_12
    4  A    between atoms: C_8  and  C_13
    5  A    between atoms: C_13  and  C_27
    6  A    between atoms: N_16  and  C_30
    7  A    between atoms: C_27  and  C_30
                            x       y       z     vdW  Elec       q    Type
                         _______ _______ _______ _____ _____    ______ ____

>  <TORSDO>
F 7

$$$$
=
 OpenBabel11052412283D

 30 33  0  0  1  0  0  0  0  0999 V2000
  188.7950  177.4460  143.5440 N   0  0  0  0  0  0  0  0  0  0  0  0
  190.7430  176.8590  144.8170 C   0  0  0  0  0  0  0  0  0  0  0  0
  186.5180  177.9920  147.0060 C   0  0  0  0  0  3  0  0  0  0  0  0
  187.4930  177.8120  143.4190 C   0  0  0  0  0  0  0  0  0  0  0  0
  185.1770  178.3640  146.9070 C   0  0  0  0  0  3  0  0  0  0  0  0
  191.3480  176.6540  146.0590 C   0  0  0  0  0  3  0  0  0  0  0  0
  191.5510  176.6560  143.5810 C   0  0  0  0  0  1  0  0  0  0  0  0
  187.2990  177.8050  145.8520 C   0  0  0  0  0  0  0  0  0  0  0  0
  190.6190  176.8310  147.2370 C   0  0  0  0  0  3  0  0  0  0  0  0
  189.3910  177.2460  144.7490 C   0  0  0  0  0  0  0  0  0  0  0  0
  186.7090  178.0020  144.5780 C   0  0  0  0  0  0  0  0  0  0  0  0
  184.5970  178.5540  145.6520 C   0  0  0  0  0  3  0  0  0  0  0  0
  185.3570  178.3740  144.4970 C   0  0  0  0  0  3  0  0  0  0  0  0
  189.2780  177.2140  147.1780 C   0  0  0  0  0  3  0  0  0  0  0  0
  188.6500  177.4240  145.9400 C   0  0  0  0  0  0  0  0  0  0  0  0
  186.9510  177.9730  142.0200 C   0  0  1  0  0  3  0  0  0  0  0  0
  185.8920  180.1380  142.0520 O   0  0  0  0  0  1  0  0  0  0  0  0
  185.6320  178.7680  141.9750 C   0  0  1  0  0  3  0  0  0  0  0  0
  184.8460  179.5980  139.7880 N   0  0  0  0  0  2  0  0  0  0  0  0
  183.0340  178.1630  141.1290 S   0  0  0  0  0  0  0  0  0  0  0  0
  184.7730  178.4960  140.7320 C   0  0  2  0  0  3  0  0  0  0  0  0
  183.7310  179.4840  138.9430 N   0  0  0  0  0  2  0  0  0  0  0  0
  182.5740  179.2980  139.8000 C   0  0  0  0  0  2  0  0  0  0  0  0
  188.0000  178.5670  141.0830 C   0  0  0  0  0  2  0  0  0  0  0  0
  188.0560  177.7830  139.7810 C   0  0  0  0  0  2  0  0  0  0  0  0
  190.3290  177.2010  140.0780 N   0  0  0  0  0  0  0  0  0  0  0  0
  189.4290  177.6830  139.3200 N   0  0  0  0  0  0  0  0  0  0  0  0
  191.9950  176.5370  138.3680 N   0  0  0  0  0  1  0  0  0  0  0  0
  191.6840  177.0960  139.6410 C   0  0  0  0  0  0  0  0  0  0  0  0
  192.6110  177.5030  140.3860 O   0  0  0  0  0  0  0  0  0  0  0  0
  1 10  1  0  0  0  0
  2  6  1  0  0  0  0
  4  1  2  0  0  0  0
  4 11  1  0  0  0  0
  5  3  1  0  0  0  0
  6  9  2  0  0  0  0
  7  2  1  0  0  0  0
  8 15  1  0  0  0  0
  8  3  2  0  0  0  0
 10  2  2  0  0  0  0
 10 15  1  0  0  0  0
 11  8  1  0  0  0  0
 12  5  2  0  0  0  0
 13 11  2  0  0  0  0
 13 12  1  0  0  0  0
 14  9  1  0  0  0  0
 15 14  2  0  0  0  0
 16 24  1  6  0  0  0
 16  4  1  0  0  0  0
 18 16  1  0  0  0  0
 18 17  1  6  0  0  0
 19 21  1  0  0  0  0
 21 20  1  0  0  0  0
 21 18  1  1  0  0  0
 22 19  1  0  0  0  0
 22 23  1  0  0  0  0
 23 20  1  0  0  0  0
 25 24  1  0  0  0  0
 27 25  1  0  0  0  0
 27 26  2  0  0  0  0
 28 29  1  0  0  0  0
 29 26  1  0  0  0  0
 29 30  2  0  0  0  0
M  END
>  <MODEL>
5

>  <REMARK>
 VINA RESULT:      -9.2      2.823      5.437
  Name = 
  7 active torsions:
  status: ('A' for Active; 'I' for Inactive)
    1  A    between atoms: C_4  and  C_13
    2  A    between atoms: N_7  and  C_15
    3  A    between atoms: C_8  and  C_12
    4  A    between atoms: C_8  and  C_13
    5  A    between atoms: C_13  and  C_27
    6  A    between atoms: N_16  and  C_30
    7  A    between atoms: C_27  and  C_30
                            x       y       z     vdW  Elec       q    Type
                         _______ _______ _______ _____ _____    ______ ____

>  <TORSDO>
F 7

$$$$
=
 OpenBabel11052412283D

 30 33  0  0  1  0  0  0  0  0999 V2000
  188.9430  177.4020  143.6390 N   0  0  0  0  0  0  0  0  0  0  0  0
  190.8650  176.7710  144.9290 C   0  0  0  0  0  0  0  0  0  0  0  0
  186.6520  178.0150  147.0800 C   0  0  0  0  0  3  0  0  0  0  0  0
  187.6520  177.8000  143.5020 C   0  0  0  0  0  0  0  0  0  0  0  0
  185.3210  178.4200  146.9680 C   0  0  0  0  0  3  0  0  0  0  0  0
  191.4540  176.5550  146.1770 C   0  0  0  0  0  3  0  0  0  0  0  0
  191.6780  176.5440  143.7000 C   0  0  0  0  0  1  0  0  0  0  0  0
  187.4370  177.8060  145.9330 C   0  0  0  0  0  0  0  0  0  0  0  0
  190.7210  176.7530  147.3480 C   0  0  0  0  0  3  0  0  0  0  0  0
  189.5240  177.1910  144.8490 C   0  0  0  0  0  0  0  0  0  0  0  0
  186.8630  178.0120  144.6540 C   0  0  0  0  0  0  0  0  0  0  0  0
  184.7560  178.6210  145.7090 C   0  0  0  0  0  3  0  0  0  0  0  0
  185.5210  178.4180  144.5600 C   0  0  0  0  0  3  0  0  0  0  0  0
  189.3900  177.1690  147.2770 C   0  0  0  0  0  3  0  0  0  0  0  0
  188.7780  177.3910  146.0340 C   0  0  0  0  0  0  0  0  0  0  0  0
  187.1250  177.9700  142.0980 C   0  0  1  0  0  3  0  0  0  0  0  0
  186.0520  180.1280  142.0340 O   0  0  0  0  0  1  0  0  0  0  0  0
  185.8000  178.7540  142.0440 C   0  0  1  0  0  3  0  0  0  0  0  0
  185.0590  179.3780  139.7740 N   0  0  0  0  0  2  0  0  0  0  0  0
  183.1530  178.2640  141.2800 S   0  0  0  0  0  0  0  0  0  0  0  0
  184.9090  178.4050  140.8440 C   0  0  2  0  0  3  0  0  0  0  0  0
  183.9300  179.2540  138.9500 N   0  0  0  0  0  2  0  0  0  0  0  0
  182.7710  179.2660  139.8250 C   0  0  0  0  0  2  0  0  0  0  0  0
  188.1810  178.5820  141.1800 C   0  0  0  0  0  2  0  0  0  0  0  0
  188.8510  177.5030  140.3450 C   0  0  0  0  0  2  0  0  0  0  0  0
  188.6120  178.5760  138.2510 N   0  0  0  0  0  0  0  0  0  0  0  0
  188.3690  177.5610  138.9770 N   0  0  0  0  0  0  0  0  0  0  0  0
  188.7590  177.8750  135.8790 N   0  0  0  0  0  1  0  0  0  0  0  0
  188.1450  178.6500  136.9050 C   0  0  0  0  0  0  0  0  0  0  0  0
  187.1810  179.4060  136.6220 O   0  0  0  0  0  0  0  0  0  0  0  0
  1 10  1  0  0  0  0
  2  6  1  0  0  0  0
  4  1  2  0  0  0  0
  4 11  1  0  0  0  0
  5  3  1  0  0  0  0
  6  9  2  0  0  0  0
  7  2  1  0  0  0  0
  8 15  1  0  0  0  0
  8  3  2  0  0  0  0
 10  2  2  0  0  0  0
 10 15  1  0  0  0  0
 11  8  1  0  0  0  0
 12  5  2  0  0  0  0
 13 11  2  0  0  0  0
 13 12  1  0  0  0  0
 14  9  1  0  0  0  0
 15 14  2  0  0  0  0
 16 24  1  6  0  0  0
 16  4  1  0  0  0  0
 18 17  1  6  0  0  0
 18 16  1  0  0  0  0
 19 21  1  0  0  0  0
 21 20  1  0  0  0  0
 21 18  1  1  0  0  0
 22 19  1  0  0  0  0
 22 23  1  0  0  0  0
 23 20  1  0  0  0  0
 25 24  1  0  0  0  0
 26 27  2  0  0  0  0
 27 25  1  0  0  0  0
 28 29  1  0  0  0  0
 29 26  1  0  0  0  0
 30 29  2  0  0  0  0
M  END
>  <MODEL>
6

>  <REMARK>
 VINA RESULT:      -9.1      3.026      6.197
  Name = 
  7 active torsions:
  status: ('A' for Active; 'I' for Inactive)
    1  A    between atoms: C_4  and  C_13
    2  A    between atoms: N_7  and  C_15
    3  A    between atoms: C_8  and  C_12
    4  A    between atoms: C_8  and  C_13
    5  A    between atoms: C_13  and  C_27
    6  A    between atoms: N_16  and  C_30
    7  A    between atoms: C_27  and  C_30
                            x       y       z     vdW  Elec       q    Type
                         _______ _______ _______ _____ _____    ______ ____

>  <TORSDO>
F 7

$$$$
=
 OpenBabel11052412283D

 30 33  0  0  1  0  0  0  0  0999 V2000
  187.0140  177.8810  143.0760 N   0  0  0  0  0  0  0  0  0  0  0  0
  184.9560  178.4530  144.1670 C   0  0  0  0  0  0  0  0  0  0  0  0
  188.9580  177.2940  146.7290 C   0  0  0  0  0  3  0  0  0  0  0  0
  188.3230  177.5160  143.0680 C   0  0  0  0  0  0  0  0  0  0  0  0
  190.3030  176.9230  146.7510 C   0  0  0  0  0  3  0  0  0  0  0  0
  184.2370  178.6430  145.3500 C   0  0  0  0  0  3  0  0  0  0  0  0
  184.2660  178.6700  142.8630 C   0  0  0  0  0  1  0  0  0  0  0  0
  188.2890  177.4940  145.5090 C   0  0  0  0  0  0  0  0  0  0  0  0
  184.8520  178.4530  146.5880 C   0  0  0  0  0  3  0  0  0  0  0  0
  186.3080  178.0670  144.2220 C   0  0  0  0  0  0  0  0  0  0  0  0
  188.9960  177.3130  144.2930 C   0  0  0  0  0  0  0  0  0  0  0  0
  190.9990  176.7480  145.5540 C   0  0  0  0  0  3  0  0  0  0  0  0
  190.3490  176.9410  144.3350 C   0  0  0  0  0  3  0  0  0  0  0  0
  186.1940  178.0700  146.6510 C   0  0  0  0  0  3  0  0  0  0  0  0
  186.9340  177.8740  145.4750 C   0  0  0  0  0  0  0  0  0  0  0  0
  188.9940  177.3710  141.7240 C   0  0  1  0  0  3  0  0  0  0  0  0
  187.5190  179.0090  140.7470 O   0  0  0  0  0  1  0  0  0  0  0  0
  188.0680  177.7400  140.5490 C   0  0  1  0  0  3  0  0  0  0  0  0
  188.9660  179.0460  138.6570 N   0  0  0  0  0  2  0  0  0  0  0  0
  187.8290  176.7340  137.9480 S   0  0  0  0  0  0  0  0  0  0  0  0
  188.7500  177.7050  139.1740 C   0  0  2  0  0  3  0  0  0  0  0  0
  189.1570  178.9230  137.2720 N   0  0  0  0  0  2  0  0  0  0  0  0
  188.0800  178.0850  136.7750 C   0  0  0  0  0  2  0  0  0  0  0  0
  190.3080  178.1470  141.6730 C   0  0  0  0  0  2  0  0  0  0  0  0
  191.4720  177.2050  141.4080 C   0  0  0  0  0  2  0  0  0  0  0  0
  191.9320  176.3940  139.2350 N   0  0  0  0  0  0  0  0  0  0  0  0
  191.9460  177.3720  140.0460 N   0  0  0  0  0  0  0  0  0  0  0  0
  191.5190  176.3120  136.7930 N   0  0  0  0  0  1  0  0  0  0  0  0
  192.3950  176.5410  137.8930 C   0  0  0  0  0  0  0  0  0  0  0  0
  193.5880  176.8780  137.6800 O   0  0  0  0  0  0  0  0  0  0  0  0
  1 10  1  0  0  0  0
  2 10  2  0  0  0  0
  2  6  1  0  0  0  0
  3  5  1  0  0  0  0
  4  1  2  0  0  0  0
  4 11  1  0  0  0  0
  6  9  2  0  0  0  0
  7  2  1  0  0  0  0
  8  3  2  0  0  0  0
  9 14  1  0  0  0  0
 10 15  1  0  0  0  0
 11 13  2  0  0  0  0
 11  8  1  0  0  0  0
 12  5  2  0  0  0  0
 13 12  1  0  0  0  0
 15  8  1  0  0  0  0
 15 14  2  0  0  0  0
 16 24  1  1  0  0  0
 16  4  1  0  0  0  0
 18 17  1  1  0  0  0
 18 16  1  0  0  0  0
 19 21  1  0  0  0  0
 20 21  1  0  0  0  0
 21 18  1  1  0  0  0
 22 19  1  0  0  0  0
 23 22  1  0  0  0  0
 23 20  1  0  0  0  0
 25 24  1  0  0  0  0
 26 27  2  0  0  0  0
 27 25  1  0  0  0  0
 28 29  1  0  0  0  0
 29 26  1  0  0  0  0
 30 29  2  0  0  0  0
M  END
>  <MODEL>
7

>  <REMARK>
 VINA RESULT:      -8.9      2.897      4.058
  Name = 
  7 active torsions:
  status: ('A' for Active; 'I' for Inactive)
    1  A    between atoms: C_4  and  C_13
    2  A    between atoms: N_7  and  C_15
    3  A    between atoms: C_8  and  C_12
    4  A    between atoms: C_8  and  C_13
    5  A    between atoms: C_13  and  C_27
    6  A    between atoms: N_16  and  C_30
    7  A    between atoms: C_27  and  C_30
                            x       y       z     vdW  Elec       q    Type
                         _______ _______ _______ _____ _____    ______ ____

>  <TORSDO>
F 7

$$$$
=
 OpenBabel11052412283D

 30 33  0  0  1  0  0  0  0  0999 V2000
  186.8770  178.0470  144.2110 N   0  0  0  0  0  0  0  0  0  0  0  0
  186.4350  178.3060  146.5540 C   0  0  0  0  0  0  0  0  0  0  0  0
  190.7460  176.6490  144.9470 C   0  0  0  0  0  3  0  0  0  0  0  0
  187.6660  177.7190  143.1540 C   0  0  0  0  0  0  0  0  0  0  0  0
  191.5790  176.3080  143.8800 C   0  0  0  0  0  3  0  0  0  0  0  0
  186.8700  178.1960  147.8770 C   0  0  0  0  0  3  0  0  0  0  0  0
  185.0570  178.8120  146.2890 C   0  0  0  0  0  1  0  0  0  0  0  0
  189.4420  177.1190  144.7170 C   0  0  0  0  0  0  0  0  0  0  0  0
  188.1540  177.7300  148.1610 C   0  0  0  0  0  3  0  0  0  0  0  0
  187.2930  177.9430  145.5000 C   0  0  0  0  0  0  0  0  0  0  0  0
  188.9760  177.2440  143.3840 C   0  0  0  0  0  0  0  0  0  0  0  0
  191.1210  176.4340  142.5690 C   0  0  0  0  0  3  0  0  0  0  0  0
  189.8280  176.8990  142.3230 C   0  0  0  0  0  3  0  0  0  0  0  0
  189.0130  177.3690  147.1210 C   0  0  0  0  0  3  0  0  0  0  0  0
  188.5960  177.4710  145.7850 C   0  0  0  0  0  0  0  0  0  0  0  0
  187.0870  177.9090  141.7730 C   0  0  1  0  0  3  0  0  0  0  0  0
  185.8820  179.9790  142.0460 O   0  0  0  0  0  1  0  0  0  0  0  0
  185.7180  178.6170  141.7880 C   0  0  1  0  0  3  0  0  0  0  0  0
  184.7710  179.7170  139.7920 N   0  0  0  0  0  2  0  0  0  0  0  0
  183.2620  177.7400  140.7720 S   0  0  0  0  0  0  0  0  0  0  0  0
  184.9090  178.4520  140.4950 C   0  0  2  0  0  3  0  0  0  0  0  0
  183.6860  179.5780  138.9140 N   0  0  0  0  0  2  0  0  0  0  0  0
  182.5900  179.0190  139.6870 C   0  0  0  0  0  2  0  0  0  0  0  0
  188.0770  178.6140  140.8480 C   0  0  0  0  0  2  0  0  0  0  0  0
  187.9210  178.1140  139.4210 C   0  0  0  0  0  2  0  0  0  0  0  0
  190.1100  177.3830  138.9000 N   0  0  0  0  0  0  0  0  0  0  0  0
  188.9010  177.0770  139.1490 N   0  0  0  0  0  0  0  0  0  0  0  0
  192.4690  176.7060  138.5650 N   0  0  0  0  0  1  0  0  0  0  0  0
  191.0850  176.3770  138.6290 C   0  0  0  0  0  0  0  0  0  0  0  0
  190.7180  175.1880  138.4470 O   0  0  0  0  0  0  0  0  0  0  0  0
  1 10  1  0  0  0  0
  2  6  1  0  0  0  0
  4 11  1  0  0  0  0
  4  1  2  0  0  0  0
  5  3  2  0  0  0  0
  6  9  2  0  0  0  0
  7  2  1  0  0  0  0
  8  3  1  0  0  0  0
  8 15  1  0  0  0  0
 10 15  1  0  0  0  0
 10  2  2  0  0  0  0
 11  8  2  0  0  0  0
 12  5  1  0  0  0  0
 13 12  2  0  0  0  0
 13 11  1  0  0  0  0
 14  9  1  0  0  0  0
 15 14  2  0  0  0  0
 16 24  1  6  0  0  0
 16 18  1  0  0  0  0
 16  4  1  0  0  0  0
 18 17  1  6  0  0  0
 19 21  1  0  0  0  0
 21 20  1  0  0  0  0
 21 18  1  1  0  0  0
 22 23  1  0  0  0  0
 22 19  1  0  0  0  0
 23 20  1  0  0  0  0
 25 24  1  0  0  0  0
 26 27  2  0  0  0  0
 27 25  1  0  0  0  0
 28 29  1  0  0  0  0
 29 26  1  0  0  0  0
 30 29  2  0  0  0  0
M  END
>  <MODEL>
8

>  <REMARK>
 VINA RESULT:      -8.8      3.136      5.444
  Name = 
  7 active torsions:
  status: ('A' for Active; 'I' for Inactive)
    1  A    between atoms: C_4  and  C_13
    2  A    between atoms: N_7  and  C_15
    3  A    between atoms: C_8  and  C_12
    4  A    between atoms: C_8  and  C_13
    5  A    between atoms: C_13  and  C_27
    6  A    between atoms: N_16  and  C_30
    7  A    between atoms: C_27  and  C_30
                            x       y       z     vdW  Elec       q    Type
                         _______ _______ _______ _____ _____    ______ ____

>  <TORSDO>
F 7

$$$$
=
 OpenBabel11052412283D

 30 33  0  0  1  0  0  0  0  0999 V2000
  185.4680  178.2500  142.2270 N   0  0  0  0  0  0  0  0  0  0  0  0
  183.2410  178.6250  141.4190 C   0  0  0  0  0  0  0  0  0  0  0  0
  184.2440  178.6280  146.2050 C   0  0  0  0  0  3  0  0  0  0  0  0
  186.3970  178.1240  143.2120 C   0  0  0  0  0  0  0  0  0  0  0  0
  185.1770  178.5080  147.2370 C   0  0  0  0  0  3  0  0  0  0  0  0
  181.8940  178.8800  141.6870 C   0  0  0  0  0  3  0  0  0  0  0  0
  183.6810  178.4980  139.9990 C   0  0  0  0  0  1  0  0  0  0  0  0
  184.6390  178.5020  144.8620 C   0  0  0  0  0  0  0  0  0  0  0  0
  181.4480  179.0090  143.0030 C   0  0  0  0  0  3  0  0  0  0  0  0
  184.1560  178.4960  142.4800 C   0  0  0  0  0  0  0  0  0  0  0  0
  186.0010  178.2480  144.5620 C   0  0  0  0  0  0  0  0  0  0  0  0
  186.5180  178.2600  146.9390 C   0  0  0  0  0  3  0  0  0  0  0  0
  186.9260  178.1320  145.6120 C   0  0  0  0  0  3  0  0  0  0  0  0
  182.3500  178.8840  144.0620 C   0  0  0  0  0  3  0  0  0  0  0  0
  183.7080  178.6280  143.8150 C   0  0  0  0  0  0  0  0  0  0  0  0
  187.8240  177.8770  142.7890 C   0  0  1  0  0  3  0  0  0  0  0  0
  188.6310  175.6060  142.8430 O   0  0  0  0  0  1  0  0  0  0  0  0
  188.5100  176.7670  143.6090 C   0  0  1  0  0  3  0  0  0  0  0  0
  190.0710  178.5910  144.1830 N   0  0  0  0  0  2  0  0  0  0  0  0
  191.2560  176.3990  143.2160 S   0  0  0  0  0  0  0  0  0  0  0  0
  189.8940  177.1490  144.1530 C   0  0  2  0  0  3  0  0  0  0  0  0
  191.4520  178.8300  144.2470 N   0  0  0  0  0  2  0  0  0  0  0  0
  192.0670  178.0150  143.2150 C   0  0  0  0  0  2  0  0  0  0  0  0
  187.9220  177.6130  141.2890 C   0  0  0  0  0  2  0  0  0  0  0  0
  189.0680  178.4060  140.6810 C   0  0  0  0  0  2  0  0  0  0  0  0
  190.4800  176.7840  139.6970 N   0  0  0  0  0  0  0  0  0  0  0  0
  189.6100  177.6970  139.5360 N   0  0  0  0  0  0  0  0  0  0  0  0
  191.9950  176.6900  137.7390 N   0  0  0  0  0  1  0  0  0  0  0  0
  191.0230  176.0780  138.5830 C   0  0  0  0  0  0  0  0  0  0  0  0
  190.6420  174.9040  138.3430 O   0  0  0  0  0  0  0  0  0  0  0  0
  1 10  2  0  0  0  0
  1  4  1  0  0  0  0
  2  6  2  0  0  0  0
  2 10  1  0  0  0  0
  3  5  2  0  0  0  0
  4 11  2  0  0  0  0
  6  9  1  0  0  0  0
  7  2  1  0  0  0  0
  8  3  1  0  0  0  0
  9 14  2  0  0  0  0
 10 15  1  0  0  0  0
 11  8  1  0  0  0  0
 11 13  1  0  0  0  0
 12  5  1  0  0  0  0
 13 12  2  0  0  0  0
 15 14  1  0  0  0  0
 15  8  2  0  0  0  0
 16 24  1  6  0  0  0
 16  4  1  0  0  0  0
 16 18  1  0  0  0  0
 18 17  1  6  0  0  0
 19 22  1  0  0  0  0
 20 21  1  0  0  0  0
 21 18  1  6  0  0  0
 21 19  1  0  0  0  0
 23 20  1  0  0  0  0
 23 22  1  0  0  0  0
 25 24  1  0  0  0  0
 27 26  2  0  0  0  0
 27 25  1  0  0  0  0
 28 29  1  0  0  0  0
 29 26  1  0  0  0  0
 30 29  2  0  0  0  0
M  END
>  <MODEL>
9

>  <REMARK>
 VINA RESULT:      -8.8      2.054      4.237
  Name = 
  7 active torsions:
  status: ('A' for Active; 'I' for Inactive)
    1  A    between atoms: C_4  and  C_13
    2  A    between atoms: N_7  and  C_15
    3  A    between atoms: C_8  and  C_12
    4  A    between atoms: C_8  and  C_13
    5  A    between atoms: C_13  and  C_27
    6  A    between atoms: N_16  and  C_30
    7  A    between atoms: C_27  and  C_30
                            x       y       z     vdW  Elec       q    Type
                         _______ _______ _______ _____ _____    ______ ____

>  <TORSDO>
F 7

$$$$
