=
 OpenBabel11052413333D

 28 31  0  0  1  0  0  0  0  0999 V2000
  187.8480  177.5580  146.7510 C   0  0  0  0  0  0  0  0  0  0  0  0
  188.8940  177.1930  142.0140 C   0  0  0  0  0  2  0  0  0  0  0  0
  184.0460  179.3680  144.4200 O   0  0  0  0  0  0  0  0  0  0  0  0
  187.1520  178.9230  141.4330 C   0  0  2  0  0  3  0  0  0  0  0  0
  186.6920  177.0900  143.1630 C   0  0  1  0  0  3  0  0  0  0  0  0
  188.5850  178.3810  139.7830 C   0  0  2  0  0  3  0  0  0  0  0  0
  187.7350  178.0430  142.5580 C   0  0  1  0  0  3  0  0  0  0  0  0
  185.7220  179.3660  141.7240 C   0  0  0  0  0  2  0  0  0  0  0  0
  187.2420  178.2580  140.2000 O   0  0  0  0  0  0  0  0  0  0  0  0
  185.9480  178.5420  145.5790 C   0  0  0  0  0  0  0  0  0  0  0  0
  187.1350  176.5650  144.5320 C   0  0  0  0  0  2  0  0  0  0  0  0
  184.8890  178.2620  141.9920 O   0  0  0  0  0  0  0  0  0  0  0  0
  186.6130  179.3910  147.7520 C   0  0  0  0  0  3  0  0  0  0  0  0
  185.0450  178.5980  144.4130 C   0  0  0  0  0  0  0  0  0  0  0  0
  185.7710  179.4360  146.6420 C   0  0  0  0  0  3  0  0  0  0  0  0
  188.7740  177.6490  138.4710 C   0  0  0  0  0  1  0  0  0  0  0  0
  189.5950  177.8480  140.8200 C   0  0  0  0  0  2  0  0  0  0  0  0
  185.2740  177.6890  143.2270 C   0  0  2  0  0  3  0  0  0  0  0  0
  187.6420  178.4520  147.8090 C   0  0  0  0  0  3  0  0  0  0  0  0
  186.9970  177.5970  145.6260 C   0  0  0  0  0  0  0  0  0  0  0  0
  188.9450  176.5360  146.8600 C   0  0  0  0  0  2  0  0  0  0  0  0
  190.2050  177.1230  147.4330 C   0  0  0  0  0  3  0  0  0  0  0  0
  191.4220  176.9270  146.9120 C   0  0  0  0  0  3  0  0  0  0  0  0
  191.6560  176.0780  145.7040 C   0  0  0  0  0  2  0  0  0  0  0  0
  191.2530  176.8210  144.4440 C   0  0  0  0  0  2  0  0  0  0  0  0
  192.0050  178.1370  144.3490 C   0  0  0  0  0  2  0  0  0  0  0  0
  189.8510  179.0650  144.7370 F   0  0  0  0  0  0  0  0  0  0  0  0
  191.0390  179.2690  144.0560 C   0  0  0  0  0  2  0  0  0  0  0  0
  1 21  1  0  0  0  0
  1 19  1  0  0  0  0
  4  8  1  1  0  0  0
  4  7  1  0  0  0  0
  5 18  1  0  0  0  0
  5 11  1  1  0  0  0
  6 16  1  6  0  0  0
  6  9  1  0  0  0  0
  6 17  1  0  0  0  0
  7  2  1  6  0  0  0
  7  5  1  0  0  0  0
  8 12  1  0  0  0  0
  9  4  1  0  0  0  0
 10 20  1  0  0  0  0
 10 15  2  0  0  0  0
 11 20  1  0  0  0  0
 13 19  2  0  0  0  0
 14  3  2  0  0  0  0
 14 10  1  0  0  0  0
 15 13  1  0  0  0  0
 17  2  1  0  0  0  0
 18 12  1  6  0  0  0
 18 14  1  0  0  0  0
 20  1  2  0  0  0  0
 21 22  1  0  0  0  0
 23 22  2  0  0  0  0
 24 23  1  0  0  0  0
 25 24  1  0  0  0  0
 26 25  1  0  0  0  0
 28 26  1  0  0  0  0
 28 27  1  0  0  0  0
M  END
>  <MODEL>
1

>  <REMARK>
 VINA RESULT:      -8.2      0.000      0.000
  Name = 
  6 active torsions:
  status: ('A' for Active; 'I' for Inactive)
    1  A    between atoms: C_1  and  C_2
    2  A    between atoms: C_2  and  C_3
    3  A    between atoms: C_6  and  C_7
    4  A    between atoms: C_6  and  C_11
    5  A    between atoms: C_7  and  C_28
    6  A    between atoms: C_8  and  C_11
                            x       y       z     vdW  Elec       q    Type
                         _______ _______ _______ _____ _____    ______ ____

>  <TORSDO>
F 6

$$$$
=
 OpenBabel11052413333D

 28 31  0  0  1  0  0  0  0  0999 V2000
  190.0540  177.4390  142.6580 C   0  0  0  0  0  0  0  0  0  0  0  0
  185.2310  178.0690  142.6090 C   0  0  0  0  0  2  0  0  0  0  0  0
  188.7550  178.0130  147.2570 O   0  0  0  0  0  0  0  0  0  0  0  0
  185.2810  179.1030  144.9100 C   0  0  2  0  0  3  0  0  0  0  0  0
  186.6760  177.0300  144.3450 C   0  0  1  0  0  3  0  0  0  0  0  0
  183.3500  179.3300  143.7750 C   0  0  2  0  0  3  0  0  0  0  0  0
  186.1070  178.3640  143.8370 C   0  0  1  0  0  3  0  0  0  0  0  0
  185.8760  178.9560  146.3060 C   0  0  0  0  0  2  0  0  0  0  0  0
  183.9450  178.6760  144.8750 O   0  0  0  0  0  0  0  0  0  0  0  0
  189.4130  177.8000  144.9840 C   0  0  0  0  0  0  0  0  0  0  0  0
  187.8290  176.5370  143.4660 C   0  0  0  0  0  2  0  0  0  0  0  0
  186.0570  177.6000  146.6440 O   0  0  0  0  0  0  0  0  0  0  0  0
  191.5750  178.5580  144.1840 C   0  0  0  0  0  3  0  0  0  0  0  0
  188.4400  177.6680  146.0860 C   0  0  0  0  0  0  0  0  0  0  0  0
  190.6430  178.4290  145.2130 C   0  0  0  0  0  3  0  0  0  0  0  0
  181.9080  178.8850  143.6440 C   0  0  0  0  0  1  0  0  0  0  0  0
  184.0900  179.0770  142.4440 C   0  0  0  0  0  2  0  0  0  0  0  0
  187.0800  177.0590  145.8310 C   0  0  2  0  0  3  0  0  0  0  0  0
  191.2850  178.0590  142.9150 C   0  0  0  0  0  3  0  0  0  0  0  0
  189.1090  177.3040  143.6980 C   0  0  0  0  0  0  0  0  0  0  0  0
  189.7880  176.8820  141.2890 C   0  0  0  0  0  2  0  0  0  0  0  0
  190.9830  177.0160  140.3850 C   0  0  0  0  0  3  0  0  0  0  0  0
  190.9470  176.7960  139.0650 C   0  0  0  0  0  3  0  0  0  0  0  0
  189.7030  176.3720  138.3500 C   0  0  0  0  0  2  0  0  0  0  0  0
  189.3020  177.4090  137.3190 C   0  0  0  0  0  2  0  0  0  0  0  0
  188.5610  178.5540  137.9870 C   0  0  0  0  0  2  0  0  0  0  0  0
  187.2570  178.4720  139.9730 F   0  0  0  0  0  0  0  0  0  0  0  0
  187.3040  178.0380  138.6600 C   0  0  0  0  0  2  0  0  0  0  0  0
  1 19  2  0  0  0  0
  1 20  1  0  0  0  0
  4  8  1  1  0  0  0
  5 11  1  6  0  0  0
  5 18  1  0  0  0  0
  6 16  1  6  0  0  0
  6  9  1  0  0  0  0
  7  2  1  6  0  0  0
  7  5  1  0  0  0  0
  7  4  1  0  0  0  0
  8 12  1  0  0  0  0
  9  4  1  0  0  0  0
 10 15  1  0  0  0  0
 10 14  1  0  0  0  0
 11 20  1  0  0  0  0
 13 15  2  0  0  0  0
 14  3  2  0  0  0  0
 17  2  1  0  0  0  0
 17  6  1  0  0  0  0
 18 14  1  6  0  0  0
 18 12  1  0  0  0  0
 19 13  1  0  0  0  0
 20 10  2  0  0  0  0
 21  1  1  0  0  0  0
 22 21  1  0  0  0  0
 23 22  2  0  0  0  0
 24 23  1  0  0  0  0
 25 26  1  0  0  0  0
 25 24  1  0  0  0  0
 26 28  1  0  0  0  0
 28 27  1  0  0  0  0
M  END
>  <MODEL>
2

>  <REMARK>
 VINA RESULT:      -8.1      2.158      5.528
  Name = 
  6 active torsions:
  status: ('A' for Active; 'I' for Inactive)
    1  A    between atoms: C_1  and  C_2
    2  A    between atoms: C_2  and  C_3
    3  A    between atoms: C_6  and  C_7
    4  A    between atoms: C_6  and  C_11
    5  A    between atoms: C_7  and  C_28
    6  A    between atoms: C_8  and  C_11
                            x       y       z     vdW  Elec       q    Type
                         _______ _______ _______ _____ _____    ______ ____

>  <TORSDO>
F 6

$$$$
=
 OpenBabel11052413333D

 28 31  0  0  1  0  0  0  0  0999 V2000
  189.9300  177.4670  142.5720 C   0  0  0  0  0  0  0  0  0  0  0  0
  185.1030  178.0470  142.7140 C   0  0  0  0  0  2  0  0  0  0  0  0
  188.8170  178.0930  147.2120 O   0  0  0  0  0  0  0  0  0  0  0  0
  185.2370  179.1140  144.9970 C   0  0  2  0  0  3  0  0  0  0  0  0
  186.6290  177.0470  144.4030 C   0  0  1  0  0  3  0  0  0  0  0  0
  183.2580  179.3040  143.9400 C   0  0  2  0  0  3  0  0  0  0  0  0
  186.0260  178.3680  143.9010 C   0  0  1  0  0  3  0  0  0  0  0  0
  185.8910  178.9920  146.3690 C   0  0  0  0  0  2  0  0  0  0  0  0
  183.9050  178.6720  145.0230 O   0  0  0  0  0  0  0  0  0  0  0  0
  189.3820  177.8540  144.9170 C   0  0  0  0  0  0  0  0  0  0  0  0
  187.7500  176.5540  143.4830 C   0  0  0  0  0  2  0  0  0  0  0  0
  186.1000  177.6430  146.7180 O   0  0  0  0  0  0  0  0  0  0  0  0
  191.5010  178.6230  144.0170 C   0  0  0  0  0  3  0  0  0  0  0  0
  188.4570  177.7280  146.0600 C   0  0  0  0  0  0  0  0  0  0  0  0
  190.6140  178.4990  145.0860 C   0  0  0  0  0  3  0  0  0  0  0  0
  181.8170  178.8430  143.8750 C   0  0  0  0  0  1  0  0  0  0  0  0
  183.9450  179.0400  142.5830 C   0  0  0  0  0  2  0  0  0  0  0  0
  187.0950  177.1020  145.8700 C   0  0  2  0  0  3  0  0  0  0  0  0
  191.1640  178.1030  142.7680 C   0  0  0  0  0  3  0  0  0  0  0  0
  189.0310  177.3370  143.6510 C   0  0  0  0  0  0  0  0  0  0  0  0
  189.6140  176.8880  141.2220 C   0  0  0  0  0  2  0  0  0  0  0  0
  189.0370  177.9180  140.2890 C   0  0  0  0  0  3  0  0  0  0  0  0
  188.9120  177.7400  138.9690 C   0  0  0  0  0  3  0  0  0  0  0  0
  189.3570  176.4900  138.2760 C   0  0  0  0  0  2  0  0  0  0  0  0
  190.6590  176.7280  137.5350 C   0  0  0  0  0  2  0  0  0  0  0  0
  191.7520  175.8340  138.0950 C   0  0  0  0  0  2  0  0  0  0  0  0
  192.6200  177.2370  139.8070 F   0  0  0  0  0  0  0  0  0  0  0  0
  192.9170  176.6770  138.5760 C   0  0  0  0  0  2  0  0  0  0  0  0
  1 19  2  0  0  0  0
  1 20  1  0  0  0  0
  4  9  1  0  0  0  0
  4  8  1  1  0  0  0
  5 11  1  6  0  0  0
  5 18  1  0  0  0  0
  6 16  1  6  0  0  0
  6  9  1  0  0  0  0
  7  2  1  6  0  0  0
  7  5  1  0  0  0  0
  7  4  1  0  0  0  0
  8 12  1  0  0  0  0
 10 15  1  0  0  0  0
 10 14  1  0  0  0  0
 11 20  1  0  0  0  0
 13 15  2  0  0  0  0
 14  3  2  0  0  0  0
 17  2  1  0  0  0  0
 17  6  1  0  0  0  0
 18 14  1  6  0  0  0
 18 12  1  0  0  0  0
 19 13  1  0  0  0  0
 20 10  2  0  0  0  0
 21  1  1  0  0  0  0
 22 21  1  0  0  0  0
 23 22  2  0  0  0  0
 24 23  1  0  0  0  0
 25 26  1  0  0  0  0
 25 24  1  0  0  0  0
 26 28  1  0  0  0  0
 28 27  1  0  0  0  0
M  END
>  <MODEL>
3

>  <REMARK>
 VINA RESULT:      -8.1      2.379      5.575
  Name = 
  6 active torsions:
  status: ('A' for Active; 'I' for Inactive)
    1  A    between atoms: C_1  and  C_2
    2  A    between atoms: C_2  and  C_3
    3  A    between atoms: C_6  and  C_7
    4  A    between atoms: C_6  and  C_11
    5  A    between atoms: C_7  and  C_28
    6  A    between atoms: C_8  and  C_11
                            x       y       z     vdW  Elec       q    Type
                         _______ _______ _______ _____ _____    ______ ____

>  <TORSDO>
F 6

$$$$
=
 OpenBabel11052413333D

 28 31  0  0  1  0  0  0  0  0999 V2000
  187.6480  177.6130  146.6900 C   0  0  0  0  0  0  0  0  0  0  0  0
  188.7520  177.2970  141.9630 C   0  0  0  0  0  2  0  0  0  0  0  0
  183.8630  179.4220  144.3310 O   0  0  0  0  0  0  0  0  0  0  0  0
  187.0060  179.0220  141.3770 C   0  0  2  0  0  3  0  0  0  0  0  0
  186.5370  177.1710  143.0840 C   0  0  1  0  0  3  0  0  0  0  0  0
  188.4620  178.5040  139.7380 C   0  0  2  0  0  3  0  0  0  0  0  0
  187.5810  178.1350  142.5000 C   0  0  1  0  0  3  0  0  0  0  0  0
  185.5700  179.4550  141.6540 C   0  0  0  0  0  2  0  0  0  0  0  0
  187.1150  178.3700  140.1390 O   0  0  0  0  0  0  0  0  0  0  0  0
  185.7560  178.5960  145.5040 C   0  0  0  0  0  0  0  0  0  0  0  0
  186.9670  176.6360  144.4540 C   0  0  0  0  0  2  0  0  0  0  0  0
  184.7410  178.3430  141.9040 O   0  0  0  0  0  0  0  0  0  0  0  0
  186.3900  179.4300  147.6930 C   0  0  0  0  0  3  0  0  0  0  0  0
  184.8660  178.6580  144.3280 C   0  0  0  0  0  0  0  0  0  0  0  0
  185.5610  179.4800  146.5730 C   0  0  0  0  0  3  0  0  0  0  0  0
  188.6700  177.7850  138.4220 C   0  0  0  0  0  1  0  0  0  0  0  0
  189.4630  177.9670  140.7830 C   0  0  0  0  0  2  0  0  0  0  0  0
  185.1150  177.7620  143.1370 C   0  0  2  0  0  3  0  0  0  0  0  0
  187.4250  178.4970  147.7540 C   0  0  0  0  0  3  0  0  0  0  0  0
  186.8100  177.6570  145.5550 C   0  0  0  0  0  0  0  0  0  0  0  0
  188.7500  176.5970  146.8030 C   0  0  0  0  0  2  0  0  0  0  0  0
  189.8490  177.0590  147.7190 C   0  0  0  0  0  3  0  0  0  0  0  0
  191.1460  177.0580  147.3860 C   0  0  0  0  0  3  0  0  0  0  0  0
  191.6390  176.5730  146.0600 C   0  0  0  0  0  2  0  0  0  0  0  0
  191.4200  177.6290  144.9920 C   0  0  0  0  0  2  0  0  0  0  0  0
  191.7320  177.0590  143.6200 C   0  0  0  0  0  2  0  0  0  0  0  0
  190.5010  175.0770  143.1650 F   0  0  0  0  0  0  0  0  0  0  0  0
  191.7030  175.5430  143.6670 C   0  0  0  0  0  2  0  0  0  0  0  0
  1 21  1  0  0  0  0
  1 19  1  0  0  0  0
  4  8  1  1  0  0  0
  4  7  1  0  0  0  0
  5 18  1  0  0  0  0
  5 11  1  1  0  0  0
  6 16  1  6  0  0  0
  6  9  1  0  0  0  0
  6 17  1  0  0  0  0
  7  2  1  6  0  0  0
  7  5  1  0  0  0  0
  8 12  1  0  0  0  0
  9  4  1  0  0  0  0
 10 20  1  0  0  0  0
 10 15  2  0  0  0  0
 11 20  1  0  0  0  0
 13 19  2  0  0  0  0
 14  3  2  0  0  0  0
 14 10  1  0  0  0  0
 15 13  1  0  0  0  0
 17  2  1  0  0  0  0
 18 12  1  6  0  0  0
 18 14  1  0  0  0  0
 20  1  2  0  0  0  0
 21 22  1  0  0  0  0
 23 22  2  0  0  0  0
 24 23  1  0  0  0  0
 25 24  1  0  0  0  0
 26 28  1  0  0  0  0
 26 25  1  0  0  0  0
 27 28  1  0  0  0  0
M  END
>  <MODEL>
4

>  <REMARK>
 VINA RESULT:      -7.6      0.968      1.161
  Name = 
  6 active torsions:
  status: ('A' for Active; 'I' for Inactive)
    1  A    between atoms: C_1  and  C_2
    2  A    between atoms: C_2  and  C_3
    3  A    between atoms: C_6  and  C_7
    4  A    between atoms: C_6  and  C_11
    5  A    between atoms: C_7  and  C_28
    6  A    between atoms: C_8  and  C_11
                            x       y       z     vdW  Elec       q    Type
                         _______ _______ _______ _____ _____    ______ ____

>  <TORSDO>
F 6

$$$$
=
 OpenBabel11052413333D

 28 31  0  0  1  0  0  0  0  0999 V2000
  186.4660  177.5310  144.8650 C   0  0  0  0  0  0  0  0  0  0  0  0
  182.1070  178.5720  142.9730 C   0  0  0  0  0  2  0  0  0  0  0  0
  187.2620  178.6270  140.2460 O   0  0  0  0  0  0  0  0  0  0  0  0
  182.9680  178.2080  140.6300 C   0  0  2  0  0  3  0  0  0  0  0  0
  184.3460  179.4720  142.3800 C   0  0  1  0  0  3  0  0  0  0  0  0
  180.7310  178.3620  140.8400 C   0  0  2  0  0  3  0  0  0  0  0  0
  183.3590  178.3240  142.1180 C   0  0  1  0  0  3  0  0  0  0  0  0
  184.1380  178.4990  139.6960 C   0  0  0  0  0  2  0  0  0  0  0  0
  181.8700  179.0360  140.3500 O   0  0  0  0  0  0  0  0  0  0  0  0
  186.8690  178.0160  142.5080 C   0  0  0  0  0  0  0  0  0  0  0  0
  185.0610  179.3040  143.7250 C   0  0  0  0  0  2  0  0  0  0  0  0
  184.7160  179.7530  139.9760 O   0  0  0  0  0  0  0  0  0  0  0  0
  188.2500  176.3960  143.6730 C   0  0  0  0  0  3  0  0  0  0  0  0
  186.5350  178.7460  141.2690 C   0  0  0  0  0  0  0  0  0  0  0  0
  187.9190  177.0900  142.5090 C   0  0  0  0  0  3  0  0  0  0  0  0
  179.5020  179.2170  140.6110 C   0  0  0  0  0  1  0  0  0  0  0  0
  180.8360  178.0010  142.3370 C   0  0  0  0  0  2  0  0  0  0  0  0
  185.3550  179.6900  141.2360 C   0  0  2  0  0  3  0  0  0  0  0  0
  187.5310  176.6210  144.8460 C   0  0  0  0  0  3  0  0  0  0  0  0
  186.1290  178.2380  143.6900 C   0  0  0  0  0  0  0  0  0  0  0  0
  185.7340  177.7740  146.1540 C   0  0  0  0  0  2  0  0  0  0  0  0
  186.2290  179.0080  146.8580 C   0  0  0  0  0  3  0  0  0  0  0  0
  187.1900  178.9990  147.7900 C   0  0  0  0  0  3  0  0  0  0  0  0
  187.8630  177.7430  148.2440 C   0  0  0  0  0  2  0  0  0  0  0  0
  189.3680  177.8610  148.0910 C   0  0  0  0  0  2  0  0  0  0  0  0
  189.8910  176.7550  147.1910 C   0  0  0  0  0  2  0  0  0  0  0  0
  191.6810  175.2770  147.7040 F   0  0  0  0  0  0  0  0  0  0  0  0
  191.3860  176.5910  147.3850 C   0  0  0  0  0  2  0  0  0  0  0  0
  1 21  1  0  0  0  0
  3 14  2  0  0  0  0
  4  8  1  6  0  0  0
  4  7  1  0  0  0  0
  5 11  1  1  0  0  0
  6 16  1  1  0  0  0
  6 17  1  0  0  0  0
  7  5  1  0  0  0  0
  7  2  1  1  0  0  0
  8 12  1  0  0  0  0
  9  4  1  0  0  0  0
  9  6  1  0  0  0  0
 10 15  2  0  0  0  0
 10 20  1  0  0  0  0
 13 19  2  0  0  0  0
 14 10  1  0  0  0  0
 15 13  1  0  0  0  0
 17  2  1  0  0  0  0
 18 12  1  6  0  0  0
 18 14  1  0  0  0  0
 18  5  1  0  0  0  0
 19  1  1  0  0  0  0
 20 11  1  0  0  0  0
 20  1  2  0  0  0  0
 21 22  1  0  0  0  0
 22 23  2  0  0  0  0
 23 24  1  0  0  0  0
 25 24  1  0  0  0  0
 26 28  1  0  0  0  0
 26 25  1  0  0  0  0
 28 27  1  0  0  0  0
M  END
>  <MODEL>
5

>  <REMARK>
 VINA RESULT:      -7.0      2.545      4.936
  Name = 
  6 active torsions:
  status: ('A' for Active; 'I' for Inactive)
    1  A    between atoms: C_1  and  C_2
    2  A    between atoms: C_2  and  C_3
    3  A    between atoms: C_6  and  C_7
    4  A    between atoms: C_6  and  C_11
    5  A    between atoms: C_7  and  C_28
    6  A    between atoms: C_8  and  C_11
                            x       y       z     vdW  Elec       q    Type
                         _______ _______ _______ _____ _____    ______ ____

>  <TORSDO>
F 6

$$$$
=
 OpenBabel11052413333D

 28 31  0  0  1  0  0  0  0  0999 V2000
  186.0510  178.1970  143.0340 C   0  0  0  0  0  0  0  0  0  0  0  0
  189.2310  176.8270  146.4500 C   0  0  0  0  0  2  0  0  0  0  0  0
  190.1500  177.2320  140.7040 O   0  0  0  0  0  0  0  0  0  0  0  0
  191.1770  177.2920  144.9120 C   0  0  2  0  0  3  0  0  0  0  0  0
  189.0580  176.1220  144.0730 C   0  0  1  0  0  3  0  0  0  0  0  0
  191.6970  176.9520  147.0770 C   0  0  2  0  0  3  0  0  0  0  0  0
  189.6410  177.1880  145.0140 C   0  0  1  0  0  3  0  0  0  0  0  0
  191.6790  177.1110  143.4840 C   0  0  0  0  0  2  0  0  0  0  0  0
  191.7850  176.3800  145.7890 O   0  0  0  0  0  0  0  0  0  0  0  0
  188.1450  177.7780  141.8550 C   0  0  0  0  0  0  0  0  0  0  0  0
  187.5580  176.3300  143.8470 C   0  0  0  0  0  2  0  0  0  0  0  0
  191.2110  175.9050  142.9270 O   0  0  0  0  0  0  0  0  0  0  0  0
  186.6190  179.4900  141.0610 C   0  0  0  0  0  3  0  0  0  0  0  0
  189.4150  177.0400  141.7100 C   0  0  0  0  0  0  0  0  0  0  0  0
  187.8170  178.7870  140.9400 C   0  0  0  0  0  3  0  0  0  0  0  0
  192.2980  176.0020  148.0920 C   0  0  0  0  0  1  0  0  0  0  0  0
  190.2520  177.3000  147.4900 C   0  0  0  0  0  2  0  0  0  0  0  0
  189.8130  176.0030  142.7350 C   0  0  2  0  0  3  0  0  0  0  0  0
  185.7370  179.1910  142.0990 C   0  0  0  0  0  3  0  0  0  0  0  0
  187.2610  177.4800  142.9150 C   0  0  0  0  0  0  0  0  0  0  0  0
  185.0620  177.8770  144.1200 C   0  0  0  0  0  2  0  0  0  0  0  0
  184.4890  179.1200  144.7420 C   0  0  0  0  0  3  0  0  0  0  0  0
  183.1910  179.4460  144.6950 C   0  0  0  0  0  3  0  0  0  0  0  0
  182.1720  178.6060  143.9920 C   0  0  0  0  0  2  0  0  0  0  0  0
  181.5460  179.3780  142.8460 C   0  0  0  0  0  2  0  0  0  0  0  0
  181.3010  178.4550  141.6650 C   0  0  0  0  0  2  0  0  0  0  0  0
  183.3230  177.4170  140.9690 F   0  0  0  0  0  0  0  0  0  0  0  0
  182.4870  178.4920  140.7210 C   0  0  0  0  0  2  0  0  0  0  0  0
  1 21  1  0  0  0  0
  2 17  1  0  0  0  0
  3 14  2  0  0  0  0
  4  8  1  6  0  0  0
  4  7  1  0  0  0  0
  4  9  1  0  0  0  0
  5 11  1  6  0  0  0
  5  7  1  0  0  0  0
  6 17  1  0  0  0  0
  6 16  1  1  0  0  0
  7  2  1  1  0  0  0
  9  6  1  0  0  0  0
 10 20  2  0  0  0  0
 12  8  1  0  0  0  0
 13 19  1  0  0  0  0
 14 10  1  0  0  0  0
 15 13  2  0  0  0  0
 15 10  1  0  0  0  0
 18 14  1  6  0  0  0
 18 12  1  0  0  0  0
 18  5  1  0  0  0  0
 19  1  2  0  0  0  0
 20  1  1  0  0  0  0
 20 11  1  0  0  0  0
 21 22  1  0  0  0  0
 23 22  2  0  0  0  0
 24 23  1  0  0  0  0
 25 24  1  0  0  0  0
 26 25  1  0  0  0  0
 28 27  1  0  0  0  0
 28 26  1  0  0  0  0
M  END
>  <MODEL>
6

>  <REMARK>
 VINA RESULT:      -7.0      2.889      6.866
  Name = 
  6 active torsions:
  status: ('A' for Active; 'I' for Inactive)
    1  A    between atoms: C_1  and  C_2
    2  A    between atoms: C_2  and  C_3
    3  A    between atoms: C_6  and  C_7
    4  A    between atoms: C_6  and  C_11
    5  A    between atoms: C_7  and  C_28
    6  A    between atoms: C_8  and  C_11
                            x       y       z     vdW  Elec       q    Type
                         _______ _______ _______ _____ _____    ______ ____

>  <TORSDO>
F 6

$$$$
=
 OpenBabel11052413333D

 28 31  0  0  1  0  0  0  0  0999 V2000
  187.9390  177.6720  146.6230 C   0  0  0  0  0  0  0  0  0  0  0  0
  189.0030  177.4080  141.8840 C   0  0  0  0  0  2  0  0  0  0  0  0
  183.9970  179.1720  144.3030 O   0  0  0  0  0  0  0  0  0  0  0  0
  187.1240  178.9920  141.3100 C   0  0  2  0  0  3  0  0  0  0  0  0
  186.8190  177.1220  143.0350 C   0  0  1  0  0  3  0  0  0  0  0  0
  188.5930  178.5740  139.6560 C   0  0  2  0  0  3  0  0  0  0  0  0
  187.7790  178.1590  142.4320 C   0  0  1  0  0  3  0  0  0  0  0  0
  185.6630  179.3160  141.6040 C   0  0  0  0  0  2  0  0  0  0  0  0
  187.2660  178.3410  140.0750 O   0  0  0  0  0  0  0  0  0  0  0  0
  185.9620  178.5010  145.4570 C   0  0  0  0  0  0  0  0  0  0  0  0
  187.3050  176.6310  144.4020 C   0  0  0  0  0  2  0  0  0  0  0  0
  184.9240  178.1460  141.8710 O   0  0  0  0  0  0  0  0  0  0  0  0
  186.5590  179.3960  147.6320 C   0  0  0  0  0  3  0  0  0  0  0  0
  185.0550  178.4870  144.2920 C   0  0  0  0  0  0  0  0  0  0  0  0
  185.7140  179.3740  146.5230 C   0  0  0  0  0  3  0  0  0  0  0  0
  188.8390  177.8640  138.3410 C   0  0  0  0  0  1  0  0  0  0  0  0
  189.6460  178.1220  140.6900 C   0  0  0  0  0  2  0  0  0  0  0  0
  185.3570  177.6040  143.1030 C   0  0  2  0  0  3  0  0  0  0  0  0
  187.6620  178.5440  147.6840 C   0  0  0  0  0  3  0  0  0  0  0  0
  187.0850  177.6450  145.4990 C   0  0  0  0  0  0  0  0  0  0  0  0
  189.1150  176.7440  146.7270 C   0  0  0  0  0  2  0  0  0  0  0  0
  190.2360  177.1510  145.8110 C   0  0  0  0  0  3  0  0  0  0  0  0
  191.5010  176.7360  145.9510 C   0  0  0  0  0  3  0  0  0  0  0  0
  191.9360  175.8290  147.0590 C   0  0  0  0  0  2  0  0  0  0  0  0
  192.2640  176.6300  148.3040 C   0  0  0  0  0  2  0  0  0  0  0  0
  193.3700  175.9480  149.0900 C   0  0  0  0  0  2  0  0  0  0  0  0
  193.2500  178.1010  150.0890 F   0  0  0  0  0  0  0  0  0  0  0  0
  193.9340  176.8990  150.1280 C   0  0  0  0  0  2  0  0  0  0  0  0
  1 21  1  0  0  0  0
  1 19  1  0  0  0  0
  4  8  1  1  0  0  0
  4  7  1  0  0  0  0
  5 18  1  0  0  0  0
  5 11  1  1  0  0  0
  6 16  1  6  0  0  0
  6  9  1  0  0  0  0
  6 17  1  0  0  0  0
  7  2  1  6  0  0  0
  7  5  1  0  0  0  0
  8 12  1  0  0  0  0
  9  4  1  0  0  0  0
 10 20  1  0  0  0  0
 10 15  2  0  0  0  0
 11 20  1  0  0  0  0
 13 19  2  0  0  0  0
 14  3  2  0  0  0  0
 14 10  1  0  0  0  0
 15 13  1  0  0  0  0
 17  2  1  0  0  0  0
 18 12  1  6  0  0  0
 18 14  1  0  0  0  0
 20  1  2  0  0  0  0
 22 23  2  0  0  0  0
 22 21  1  0  0  0  0
 23 24  1  0  0  0  0
 24 25  1  0  0  0  0
 25 26  1  0  0  0  0
 26 28  1  0  0  0  0
 27 28  1  0  0  0  0
M  END
>  <MODEL>
7

>  <REMARK>
 VINA RESULT:      -6.9      1.642      2.264
  Name = 
  6 active torsions:
  status: ('A' for Active; 'I' for Inactive)
    1  A    between atoms: C_1  and  C_2
    2  A    between atoms: C_2  and  C_3
    3  A    between atoms: C_6  and  C_7
    4  A    between atoms: C_6  and  C_11
    5  A    between atoms: C_7  and  C_28
    6  A    between atoms: C_8  and  C_11
                            x       y       z     vdW  Elec       q    Type
                         _______ _______ _______ _____ _____    ______ ____

>  <TORSDO>
F 6

$$$$
=
 OpenBabel11052413333D

 28 31  0  0  1  0  0  0  0  0999 V2000
  189.2880  177.2710  146.4170 C   0  0  0  0  0  0  0  0  0  0  0  0
  187.1280  177.8520  142.0970 C   0  0  0  0  0  2  0  0  0  0  0  0
  184.8390  178.8430  147.3700 O   0  0  0  0  0  0  0  0  0  0  0  0
  185.3820  179.3700  143.1050 C   0  0  2  0  0  3  0  0  0  0  0  0
  186.1400  177.2300  144.2920 C   0  0  1  0  0  3  0  0  0  0  0  0
  185.4670  179.3300  140.8550 C   0  0  2  0  0  3  0  0  0  0  0  0
  186.5560  178.4160  143.4080 C   0  0  1  0  0  3  0  0  0  0  0  0
  184.4470  179.5390  144.2970 C   0  0  0  0  0  2  0  0  0  0  0  0
  184.6870  178.9390  141.9650 O   0  0  0  0  0  0  0  0  0  0  0  0
  187.0590  178.1350  146.9050 C   0  0  0  0  0  0  0  0  0  0  0  0
  187.3520  176.5600  144.9450 C   0  0  0  0  0  2  0  0  0  0  0  0
  183.9850  178.2920  144.7640 O   0  0  0  0  0  0  0  0  0  0  0  0
  188.9300  178.7070  148.3410 C   0  0  0  0  0  3  0  0  0  0  0  0
  185.6230  178.2460  146.5830 C   0  0  0  0  0  0  0  0  0  0  0  0
  187.5770  178.8050  148.0210 C   0  0  0  0  0  3  0  0  0  0  0  0
  184.7990  178.8610  139.5790 C   0  0  0  0  0  1  0  0  0  0  0  0
  186.9120  178.7930  140.9080 C   0  0  0  0  0  2  0  0  0  0  0  0
  185.0690  177.5900  145.3400 C   0  0  2  0  0  3  0  0  0  0  0  0
  189.7800  177.9380  147.5460 C   0  0  0  0  0  3  0  0  0  0  0  0
  187.9180  177.3650  146.0900 C   0  0  0  0  0  0  0  0  0  0  0  0
  190.2240  176.4230  145.6030 C   0  0  0  0  0  2  0  0  0  0  0  0
  191.4930  177.1550  145.2620 C   0  0  0  0  0  3  0  0  0  0  0  0
  191.6430  177.9180  144.1720 C   0  0  0  0  0  3  0  0  0  0  0  0
  190.5560  178.1060  143.1620 C   0  0  0  0  0  2  0  0  0  0  0  0
  190.6020  177.0040  142.1200 C   0  0  0  0  0  2  0  0  0  0  0  0
  191.4490  177.4370  140.9360 C   0  0  0  0  0  2  0  0  0  0  0  0
  189.9410  178.2620  139.2940 F   0  0  0  0  0  0  0  0  0  0  0  0
  190.7090  177.1650  139.6400 C   0  0  0  0  0  2  0  0  0  0  0  0
  1 19  1  0  0  0  0
  4  7  1  0  0  0  0
  4  8  1  1  0  0  0
  5 11  1  1  0  0  0
  5 18  1  0  0  0  0
  6 16  1  6  0  0  0
  6 17  1  0  0  0  0
  6  9  1  0  0  0  0
  7  2  1  6  0  0  0
  7  5  1  0  0  0  0
  8 12  1  0  0  0  0
  9  4  1  0  0  0  0
 10 15  2  0  0  0  0
 11 20  1  0  0  0  0
 14 10  1  0  0  0  0
 14  3  2  0  0  0  0
 15 13  1  0  0  0  0
 17  2  1  0  0  0  0
 18 12  1  6  0  0  0
 18 14  1  0  0  0  0
 19 13  2  0  0  0  0
 20  1  2  0  0  0  0
 20 10  1  0  0  0  0
 21  1  1  0  0  0  0
 22 21  1  0  0  0  0
 23 22  2  0  0  0  0
 24 23  1  0  0  0  0
 25 24  1  0  0  0  0
 26 25  1  0  0  0  0
 27 28  1  0  0  0  0
 28 26  1  0  0  0  0
M  END
>  <MODEL>
8

>  <REMARK>
 VINA RESULT:      -6.7      1.686      2.829
  Name = 
  6 active torsions:
  status: ('A' for Active; 'I' for Inactive)
    1  A    between atoms: C_1  and  C_2
    2  A    between atoms: C_2  and  C_3
    3  A    between atoms: C_6  and  C_7
    4  A    between atoms: C_6  and  C_11
    5  A    between atoms: C_7  and  C_28
    6  A    between atoms: C_8  and  C_11
                            x       y       z     vdW  Elec       q    Type
                         _______ _______ _______ _____ _____    ______ ____

>  <TORSDO>
F 6

$$$$
=
 OpenBabel11052413333D

 28 31  0  0  1  0  0  0  0  0999 V2000
  187.4430  178.0900  146.1080 C   0  0  0  0  0  0  0  0  0  0  0  0
  188.5370  177.9780  141.3690 C   0  0  0  0  0  2  0  0  0  0  0  0
  192.0520  176.7250  145.8530 O   0  0  0  0  0  0  0  0  0  0  0  0
  190.5330  176.4970  141.8020 C   0  0  2  0  0  3  0  0  0  0  0  0
  189.9910  178.4880  143.3190 C   0  0  1  0  0  3  0  0  0  0  0  0
  189.9150  176.7050  139.6460 C   0  0  2  0  0  3  0  0  0  0  0  0
  189.4260  177.3510  142.4540 C   0  0  1  0  0  3  0  0  0  0  0  0
  191.7310  176.2950  142.7230 C   0  0  0  0  0  2  0  0  0  0  0  0
  190.9190  177.0570  140.5740 O   0  0  0  0  0  0  0  0  0  0  0  0
  189.7580  177.3290  145.9830 C   0  0  0  0  0  0  0  0  0  0  0  0
  188.9410  179.0300  144.2950 C   0  0  0  0  0  2  0  0  0  0  0  0
  192.2390  177.5280  143.1790 O   0  0  0  0  0  0  0  0  0  0  0  0
  188.3070  176.5340  147.7590 C   0  0  0  0  0  3  0  0  0  0  0  0
  191.0800  177.3320  145.3270 C   0  0  0  0  0  0  0  0  0  0  0  0
  189.5480  176.5440  147.1240 C   0  0  0  0  0  3  0  0  0  0  0  0
  190.2400  177.3120  138.2980 C   0  0  0  0  0  1  0  0  0  0  0  0
  188.5020  177.1470  140.0830 C   0  0  0  0  0  2  0  0  0  0  0  0
  191.2940  178.1160  144.0520 C   0  0  2  0  0  3  0  0  0  0  0  0
  187.2610  177.3080  147.2560 C   0  0  0  0  0  3  0  0  0  0  0  0
  188.6990  178.1050  145.4640 C   0  0  0  0  0  0  0  0  0  0  0  0
  186.3060  178.9380  145.6140 C   0  0  0  0  0  2  0  0  0  0  0  0
  184.9740  178.4310  146.0960 C   0  0  0  0  0  3  0  0  0  0  0  0
  183.8100  178.7110  145.4990 C   0  0  0  0  0  3  0  0  0  0  0  0
  183.7120  179.5830  144.2870 C   0  0  0  0  0  2  0  0  0  0  0  0
  182.7390  178.9940  143.2840 C   0  0  0  0  0  2  0  0  0  0  0  0
  183.4740  178.5820  142.0200 C   0  0  0  0  0  2  0  0  0  0  0  0
  185.6770  177.8710  142.5580 F   0  0  0  0  0  0  0  0  0  0  0  0
  184.9390  178.9580  142.1250 C   0  0  0  0  0  2  0  0  0  0  0  0
  1 19  1  0  0  0  0
  4  7  1  0  0  0  0
  4  8  1  1  0  0  0
  5 18  1  0  0  0  0
  5 11  1  1  0  0  0
  6 16  1  6  0  0  0
  6 17  1  0  0  0  0
  6  9  1  0  0  0  0
  7  2  1  6  0  0  0
  7  5  1  0  0  0  0
  8 12  1  0  0  0  0
  9  4  1  0  0  0  0
 10 15  2  0  0  0  0
 11 20  1  0  0  0  0
 14  3  2  0  0  0  0
 14 10  1  0  0  0  0
 15 13  1  0  0  0  0
 17  2  1  0  0  0  0
 18 12  1  6  0  0  0
 18 14  1  0  0  0  0
 19 13  2  0  0  0  0
 20 10  1  0  0  0  0
 20  1  2  0  0  0  0
 21 22  1  0  0  0  0
 21  1  1  0  0  0  0
 23 22  2  0  0  0  0
 24 23  1  0  0  0  0
 25 24  1  0  0  0  0
 26 28  1  0  0  0  0
 26 25  1  0  0  0  0
 28 27  1  0  0  0  0
M  END
>  <MODEL>
9

>  <REMARK>
 VINA RESULT:      -6.7      2.636      5.289
  Name = 
  6 active torsions:
  status: ('A' for Active; 'I' for Inactive)
    1  A    between atoms: C_1  and  C_2
    2  A    between atoms: C_2  and  C_3
    3  A    between atoms: C_6  and  C_7
    4  A    between atoms: C_6  and  C_11
    5  A    between atoms: C_7  and  C_28
    6  A    between atoms: C_8  and  C_11
                            x       y       z     vdW  Elec       q    Type
                         _______ _______ _______ _____ _____    ______ ____

>  <TORSDO>
F 6

$$$$
