=
 OpenBabel11052412363D

 30 33  0  0  1  0  0  0  0  0999 V2000
  188.6180  177.9180  145.8740 C   0  0  0  0  0  0  0  0  0  0  0  0
  186.2740  177.8370  146.4810 C   0  0  0  0  0  3  0  0  0  0  0  0
  185.0470  179.1120  142.6370 O   0  0  0  0  0  0  0  0  0  0  0  0
  188.0190  176.5520  142.8350 C   0  0  0  0  0  2  0  0  0  0  0  0
  189.5960  178.6210  145.1010 N   0  0  0  0  0  0  0  0  0  0  0  0
  191.3550  175.8480  143.8360 C   0  0  1  0  0  3  0  0  0  0  0  0
  190.9090  176.7020  144.8780 O   0  0  0  0  0  0  0  0  0  0  0  0
  191.6330  178.8700  143.8470 C   0  0  0  0  0  1  0  0  0  0  0  0
  188.0910  178.5040  140.4690 C   0  0  2  0  0  3  0  0  0  0  0  0
  185.8860  179.0800  141.5320 C   0  0  0  0  0  0  0  0  0  0  0  0
  190.6790  178.0620  144.6590 C   0  0  0  0  0  0  0  0  0  0  0  0
  189.4050  176.3420  142.4140 N   0  0  0  0  0  0  0  0  0  0  0  0
  184.8110  177.8780  146.1650 C   0  0  0  0  0  2  0  0  0  0  0  0
  189.5730  178.3620  140.8310 C   0  0  0  0  0  2  0  0  0  0  0  0
  192.1430  174.7020  144.4340 C   0  0  0  0  0  1  0  0  0  0  0  0
  188.9810  177.2310  146.8690 O   0  0  0  0  0  0  0  0  0  0  0  0
  185.4790  178.7360  143.9100 C   0  0  0  0  0  0  0  0  0  0  0  0
  184.5360  178.9160  145.0800 C   0  0  1  0  0  3  0  0  0  0  0  0
  190.1500  175.2840  143.0880 C   0  0  0  0  0  2  0  0  0  0  0  0
  187.1890  178.0010  145.5160 C   0  0  0  0  0  0  0  0  0  0  0  0
  187.6850  178.0360  142.9520 C   0  0  1  0  0  3  0  0  0  0  0  0
  185.4760  179.5470  140.4370 O   0  0  0  0  0  0  0  0  0  0  0  0
  187.2090  178.5360  141.6510 N   0  0  0  0  0  0  0  0  0  0  0  0
  190.8600  176.3840  140.5860 O   0  0  0  0  0  0  0  0  0  0  0  0
  183.0860  178.8030  144.6460 C   0  0  0  0  0  1  0  0  0  0  0  0
  186.7400  178.2920  144.1160 C   0  0  0  0  0  0  0  0  0  0  0  0
  189.9650  176.9730  141.2470 C   0  0  0  0  0  0  0  0  0  0  0  0
  187.6660  177.4820  139.4020 C   0  0  2  0  0  3  0  0  0  0  0  0
  188.7740  177.2590  138.3940 C   0  0  0  0  0  1  0  0  0  0  0  0
  186.4920  177.8650  138.7480 O   0  0  0  0  0  1  0  0  0  0  0  0
  1 16  2  0  0  0  0
  3 17  1  0  0  0  0
  5  1  1  0  0  0  0
  6 15  1  1  0  0  0
  6  7  1  0  0  0  0
  8 11  1  0  0  0  0
  9 28  1  6  0  0  0
  9 14  1  0  0  0  0
  9 23  1  0  0  0  0
 10 23  1  0  0  0  0
 10  3  1  0  0  0  0
 11  7  1  0  0  0  0
 11  5  2  0  0  0  0
 12  4  1  0  0  0  0
 12 19  1  0  0  0  0
 13  2  1  0  0  0  0
 14 27  1  0  0  0  0
 17 26  2  0  0  0  0
 17 18  1  0  0  0  0
 18 25  1  6  0  0  0
 18 13  1  0  0  0  0
 19  6  1  0  0  0  0
 20  1  1  0  0  0  0
 20  2  2  0  0  0  0
 21  4  1  6  0  0  0
 21 26  1  0  0  0  0
 22 10  2  0  0  0  0
 23 21  1  0  0  0  0
 24 27  2  0  0  0  0
 26 20  1  0  0  0  0
 27 12  1  0  0  0  0
 28 29  1  6  0  0  0
 30 28  1  0  0  0  0
M  END
>  <MODEL>
1

>  <REMARK>
 VINA RESULT:     -10.2      0.000      0.000
  Name = 
  1 active torsions:
  status: ('A' for Active; 'I' for Inactive)
    1  A    between atoms: C_7  and  C_10
                            x       y       z     vdW  Elec       q    Type
                         _______ _______ _______ _____ _____    ______ ____

>  <TORSDO>
F 1

$$$$
