=
 OpenBabel11052414373D

 32 36  0  0  1  0  0  0  0  0999 V2000
  187.7170  177.8560  143.4280 N   0  0  0  0  0  0  0  0  0  0  0  0
  189.2460  177.6680  141.1260 C   0  0  0  0  0  0  0  0  0  0  0  0
  186.7910  177.1010  144.2730 C   0  0  0  0  0  2  0  0  0  0  0  0
  187.2130  178.6050  142.2630 C   0  0  1  0  0  3  0  0  0  0  0  0
  187.4180  178.3950  139.7730 N   0  0  0  0  0  0  0  0  0  0  0  0
  191.9490  176.5560  138.8290 C   0  0  0  0  0  3  0  0  0  0  0  0
  187.9440  178.1770  141.0100 C   0  0  0  0  0  0  0  0  0  0  0  0
  190.0410  177.2990  137.5320 C   0  0  0  0  0  3  0  0  0  0  0  0
  189.3520  177.5940  138.7110 C   0  0  0  0  0  0  0  0  0  0  0  0
  185.6810  178.5040  142.1530 C   0  0  1  0  0  3  0  0  0  0  0  0
  188.0960  178.1040  138.6610 N   0  0  0  0  0  0  0  0  0  0  0  0
  185.0380  178.8060  143.5090 C   0  0  0  0  0  2  0  0  0  0  0  0
  189.8240  177.4580  142.4230 N   0  0  0  0  0  0  0  0  0  0  0  0
  189.1260  177.5670  143.5150 C   0  0  0  0  0  0  0  0  0  0  0  0
  189.9630  177.3680  139.9620 C   0  0  0  0  0  0  0  0  0  0  0  0
  185.5900  177.9580  144.6620 C   0  0  0  0  0  2  0  0  0  0  0  0
  191.3380  176.7800  137.5910 C   0  0  0  0  0  3  0  0  0  0  0  0
  191.2640  176.8480  140.0120 C   0  0  0  0  0  3  0  0  0  0  0  0
  191.4960  176.2640  146.2040 C   0  0  0  0  0  0  0  0  0  0  0  0
  192.6210  175.4610  146.3460 O   0  0  0  0  0  1  0  0  0  0  0  0
  189.7750  177.2970  144.8190 C   0  0  0  0  0  0  0  0  0  0  0  0
  190.9370  176.8590  147.3360 C   0  0  0  0  0  3  0  0  0  0  0  0
  189.2230  177.8720  145.9720 C   0  0  0  0  0  3  0  0  0  0  0  0
  190.9180  176.4710  144.9390 C   0  0  0  0  0  0  0  0  0  0  0  0
  191.4930  175.7580  143.7560 C   0  0  0  0  0  1  0  0  0  0  0  0
  189.7950  177.6630  147.2280 C   0  0  0  0  0  0  0  0  0  0  0  0
  187.8870  177.9750  148.7700 C   0  0  0  0  0  1  0  0  0  0  0  0
  189.2120  178.2640  148.3460 O   0  0  0  0  0  0  0  0  0  0  0  0
  185.1800  179.4600  141.1780 N   0  0  0  0  0  2  0  0  0  0  0  0
  183.9550  178.9070  140.6260 C   0  0  0  0  0  2  0  0  0  0  0  0
  183.8750  179.2360  139.1500 C   0  0  0  0  0  2  0  0  0  0  0  0
  184.3040  180.5460  138.9420 O   0  0  0  0  0  1  0  0  0  0  0  0
  1 14  1  0  0  0  0
  1  3  1  0  0  0  0
  2 13  1  0  0  0  0
  3 16  1  0  0  0  0
  4  7  1  6  0  0  0
  4  1  1  0  0  0  0
  5  7  2  0  0  0  0
  6 18  2  0  0  0  0
  7  2  1  0  0  0  0
  8 17  2  0  0  0  0
  8  9  1  0  0  0  0
  9 15  1  0  0  0  0
 10 29  1  6  0  0  0
 10  4  1  0  0  0  0
 10 12  1  0  0  0  0
 11  9  2  0  0  0  0
 11  5  1  0  0  0  0
 12 16  1  0  0  0  0
 13 14  2  0  0  0  0
 14 21  1  0  0  0  0
 15 18  1  0  0  0  0
 15  2  2  0  0  0  0
 17  6  1  0  0  0  0
 19 20  1  0  0  0  0
 19 22  1  0  0  0  0
 21 24  1  0  0  0  0
 21 23  2  0  0  0  0
 23 26  1  0  0  0  0
 24 19  2  0  0  0  0
 25 24  1  0  0  0  0
 26 22  2  0  0  0  0
 26 28  1  0  0  0  0
 28 27  1  0  0  0  0
 30 29  1  0  0  0  0
 31 30  1  0  0  0  0
 32 31  1  0  0  0  0
M  END
>  <MODEL>
1

>  <REMARK>
 VINA RESULT:     -10.1      0.000      0.000
  Name = 
  5 active torsions:
  status: ('A' for Active; 'I' for Inactive)
    1  A    between atoms: C_13  and  C_18
    2  A    between atoms: C_14  and  N_29
    3  A    between atoms: O_15  and  C_26
    4  A    between atoms: C_16  and  C_27
    5  A    between atoms: C_18  and  N_29
                            x       y       z     vdW  Elec       q    Type
                         _______ _______ _______ _____ _____    ______ ____

>  <TORSDO>
F 5

$$$$
=
 OpenBabel11052414373D

 32 36  0  0  1  0  0  0  0  0999 V2000
  188.8900  177.7990  142.9920 N   0  0  0  0  0  0  0  0  0  0  0  0
  186.1360  178.0750  142.8770 C   0  0  0  0  0  0  0  0  0  0  0  0
  190.1340  178.5680  143.0300 C   0  0  0  0  0  2  0  0  0  0  0  0
  188.2680  177.4640  141.6990 C   0  0  1  0  0  3  0  0  0  0  0  0
  186.1750  178.1340  140.4920 N   0  0  0  0  0  0  0  0  0  0  0  0
  182.6810  178.9280  143.9500 C   0  0  0  0  0  3  0  0  0  0  0  0
  186.8350  177.9480  141.6680 C   0  0  0  0  0  0  0  0  0  0  0  0
  182.8120  178.9800  141.5300 C   0  0  0  0  0  3  0  0  0  0  0  0
  184.1620  178.6270  141.5950 C   0  0  0  0  0  0  0  0  0  0  0  0
  189.1190  177.9690  140.5200 C   0  0  1  0  0  3  0  0  0  0  0  0
  184.8840  178.4720  140.4560 N   0  0  0  0  0  0  0  0  0  0  0  0
  190.5800  177.5600  140.7180 C   0  0  0  0  0  2  0  0  0  0  0  0
  186.8120  177.8560  144.1250 N   0  0  0  0  0  0  0  0  0  0  0  0
  188.1020  177.6990  144.1930 C   0  0  0  0  0  0  0  0  0  0  0  0
  184.7810  178.4230  142.8450 C   0  0  0  0  0  0  0  0  0  0  0  0
  191.1660  177.9790  142.0720 C   0  0  0  0  0  2  0  0  0  0  0  0
  182.0720  179.1310  142.7070 C   0  0  0  0  0  3  0  0  0  0  0  0
  184.0320  178.5750  144.0210 C   0  0  0  0  0  3  0  0  0  0  0  0
  188.7120  177.5670  147.9550 C   0  0  0  0  0  0  0  0  0  0  0  0
  188.0580  177.8080  149.1590 O   0  0  0  0  0  1  0  0  0  0  0  0
  188.7380  177.5160  145.5180 C   0  0  0  0  0  0  0  0  0  0  0  0
  190.0350  177.1260  147.9770 C   0  0  0  0  0  3  0  0  0  0  0  0
  190.0720  177.0870  145.5640 C   0  0  0  0  0  3  0  0  0  0  0  0
  188.0550  177.7720  146.7300 C   0  0  0  0  0  0  0  0  0  0  0  0
  186.6620  178.3200  146.7380 C   0  0  0  0  0  1  0  0  0  0  0  0
  190.7250  176.8870  146.7810 C   0  0  0  0  0  0  0  0  0  0  0  0
  192.6100  175.6650  147.8180 C   0  0  0  0  0  1  0  0  0  0  0  0
  192.0530  176.4520  146.7740 O   0  0  0  0  0  0  0  0  0  0  0  0
  188.6420  177.3970  139.2700 N   0  0  0  0  0  2  0  0  0  0  0  0
  189.6700  177.6320  138.2720 C   0  0  0  0  0  2  0  0  0  0  0  0
  189.0900  178.4430  137.1320 C   0  0  0  0  0  2  0  0  0  0  0  0
  188.9530  179.7720  137.5320 O   0  0  0  0  0  1  0  0  0  0  0  0
  1  3  1  0  0  0  0
  1 14  1  0  0  0  0
  2 13  1  0  0  0  0
  4  7  1  1  0  0  0
  4  1  1  0  0  0  0
  5  7  1  0  0  0  0
  6 18  1  0  0  0  0
  7  2  2  0  0  0  0
  8  9  2  0  0  0  0
  8 17  1  0  0  0  0
  9 15  1  0  0  0  0
 10 29  1  6  0  0  0
 10 12  1  0  0  0  0
 10  4  1  0  0  0  0
 11  5  2  0  0  0  0
 11  9  1  0  0  0  0
 12 16  1  0  0  0  0
 13 14  2  0  0  0  0
 14 21  1  0  0  0  0
 15  2  1  0  0  0  0
 15 18  2  0  0  0  0
 16  3  1  0  0  0  0
 17  6  2  0  0  0  0
 19 22  1  0  0  0  0
 19 20  1  0  0  0  0
 21 23  2  0  0  0  0
 21 24  1  0  0  0  0
 23 26  1  0  0  0  0
 24 25  1  0  0  0  0
 24 19  2  0  0  0  0
 26 22  2  0  0  0  0
 28 26  1  0  0  0  0
 28 27  1  0  0  0  0
 30 29  1  0  0  0  0
 31 32  1  0  0  0  0
 31 30  1  0  0  0  0
M  END
>  <MODEL>
2

>  <REMARK>
 VINA RESULT:      -9.5      1.635      5.211
  Name = 
  5 active torsions:
  status: ('A' for Active; 'I' for Inactive)
    1  A    between atoms: C_13  and  C_18
    2  A    between atoms: C_14  and  N_29
    3  A    between atoms: O_15  and  C_26
    4  A    between atoms: C_16  and  C_27
    5  A    between atoms: C_18  and  N_29
                            x       y       z     vdW  Elec       q    Type
                         _______ _______ _______ _____ _____    ______ ____

>  <TORSDO>
F 5

$$$$
=
 OpenBabel11052414373D

 32 36  0  0  1  0  0  0  0  0999 V2000
  189.5940  177.7390  142.6280 N   0  0  0  0  0  0  0  0  0  0  0  0
  186.8940  178.0740  142.1070 C   0  0  0  0  0  0  0  0  0  0  0  0
  190.8310  178.4800  142.8750 C   0  0  0  0  0  2  0  0  0  0  0  0
  189.1690  177.4470  141.2470 C   0  0  1  0  0  3  0  0  0  0  0  0
  187.2940  178.1900  139.7570 N   0  0  0  0  0  0  0  0  0  0  0  0
  183.3310  178.9720  142.6690 C   0  0  0  0  0  3  0  0  0  0  0  0
  187.7660  177.9610  141.0140 C   0  0  0  0  0  0  0  0  0  0  0  0
  183.8280  179.0790  140.2980 C   0  0  0  0  0  3  0  0  0  0  0  0
  185.1460  178.6980  140.5570 C   0  0  0  0  0  0  0  0  0  0  0  0
  190.1970  177.9630  140.2240 C   0  0  1  0  0  3  0  0  0  0  0  0
  186.0300  178.5550  139.5360 N   0  0  0  0  0  0  0  0  0  0  0  0
  191.6040  177.5190  140.6290 C   0  0  0  0  0  2  0  0  0  0  0  0
  187.3700  177.8110  143.4360 N   0  0  0  0  0  0  0  0  0  0  0  0
  188.6310  177.6260  143.6940 C   0  0  0  0  0  0  0  0  0  0  0  0
  185.5650  178.4510  141.8800 C   0  0  0  0  0  0  0  0  0  0  0  0
  191.9860  177.8940  142.0680 C   0  0  0  0  0  2  0  0  0  0  0  0
  182.9210  179.2170  141.3540 C   0  0  0  0  0  3  0  0  0  0  0  0
  184.6490  178.5900  142.9330 C   0  0  0  0  0  3  0  0  0  0  0  0
  188.6430  177.3270  147.4950 C   0  0  0  0  0  0  0  0  0  0  0  0
  187.7990  177.4880  148.5880 O   0  0  0  0  0  1  0  0  0  0  0  0
  189.0570  177.3980  145.0940 C   0  0  0  0  0  0  0  0  0  0  0  0
  189.9630  176.9280  147.7090 C   0  0  0  0  0  3  0  0  0  0  0  0
  190.3820  177.0090  145.3330 C   0  0  0  0  0  3  0  0  0  0  0  0
  188.1800  177.5720  146.1910 C   0  0  0  0  0  0  0  0  0  0  0  0
  186.7840  178.0740  146.0000 C   0  0  0  0  0  1  0  0  0  0  0  0
  190.8420  176.7700  146.6290 C   0  0  0  0  0  0  0  0  0  0  0  0
  192.6110  175.6830  147.9740 C   0  0  0  0  0  1  0  0  0  0  0  0
  192.1700  176.3780  146.8160 O   0  0  0  0  0  0  0  0  0  0  0  0
  189.9050  177.4320  138.9020 N   0  0  0  0  0  2  0  0  0  0  0  0
  191.0650  176.6660  138.4820 C   0  0  0  0  0  2  0  0  0  0  0  0
  190.6210  175.5310  137.5840 C   0  0  0  0  0  2  0  0  0  0  0  0
  191.2680  174.3570  137.9660 O   0  0  0  0  0  1  0  0  0  0  0  0
  1  3  1  0  0  0  0
  1 14  1  0  0  0  0
  2 13  1  0  0  0  0
  4  7  1  6  0  0  0
  4  1  1  0  0  0  0
  5  7  1  0  0  0  0
  6 18  1  0  0  0  0
  7  2  2  0  0  0  0
  8  9  2  0  0  0  0
  8 17  1  0  0  0  0
  9 15  1  0  0  0  0
 10 29  1  6  0  0  0
 10 12  1  0  0  0  0
 10  4  1  0  0  0  0
 11  5  2  0  0  0  0
 11  9  1  0  0  0  0
 12 16  1  0  0  0  0
 13 14  2  0  0  0  0
 14 21  1  0  0  0  0
 15  2  1  0  0  0  0
 15 18  2  0  0  0  0
 16  3  1  0  0  0  0
 17  6  2  0  0  0  0
 19 22  1  0  0  0  0
 19 20  1  0  0  0  0
 21 23  2  0  0  0  0
 21 24  1  0  0  0  0
 23 26  1  0  0  0  0
 24 19  2  0  0  0  0
 25 24  1  0  0  0  0
 26 28  1  0  0  0  0
 26 22  2  0  0  0  0
 28 27  1  0  0  0  0
 30 29  1  0  0  0  0
 31 32  1  0  0  0  0
 31 30  1  0  0  0  0
M  END
>  <MODEL>
3

>  <REMARK>
 VINA RESULT:      -9.3      2.011      5.270
  Name = 
  5 active torsions:
  status: ('A' for Active; 'I' for Inactive)
    1  A    between atoms: C_13  and  C_18
    2  A    between atoms: C_14  and  N_29
    3  A    between atoms: O_15  and  C_26
    4  A    between atoms: C_16  and  C_27
    5  A    between atoms: C_18  and  N_29
                            x       y       z     vdW  Elec       q    Type
                         _______ _______ _______ _____ _____    ______ ____

>  <TORSDO>
F 5

$$$$
=
 OpenBabel11052414373D

 32 36  0  0  1  0  0  0  0  0999 V2000
  186.4740  178.2320  142.1940 N   0  0  0  0  0  0  0  0  0  0  0  0
  187.3050  177.8760  144.8120 C   0  0  0  0  0  0  0  0  0  0  0  0
  186.2830  179.2530  141.1630 C   0  0  0  0  0  2  0  0  0  0  0  0
  185.4060  177.9600  143.1720 C   0  0  1  0  0  3  0  0  0  0  0  0
  185.1070  178.3010  145.6380 N   0  0  0  0  0  0  0  0  0  0  0  0
  189.5820  177.7330  147.7460 C   0  0  0  0  0  3  0  0  0  0  0  0
  185.9400  178.0970  144.5800 C   0  0  0  0  0  0  0  0  0  0  0  0
  187.3210  178.1780  148.4990 C   0  0  0  0  0  3  0  0  0  0  0  0
  186.8730  178.1420  147.1760 C   0  0  0  0  0  0  0  0  0  0  0  0
  184.1600  178.8200  142.8940 C   0  0  1  0  0  3  0  0  0  0  0  0
  185.5600  178.3320  146.8930 N   0  0  0  0  0  0  0  0  0  0  0  0
  183.7870  178.7360  141.4130 C   0  0  0  0  0  2  0  0  0  0  0  0
  188.1920  177.6330  143.7090 N   0  0  0  0  0  0  0  0  0  0  0  0
  187.8100  177.7710  142.4730 C   0  0  0  0  0  0  0  0  0  0  0  0
  187.7840  177.9010  146.1270 C   0  0  0  0  0  0  0  0  0  0  0  0
  184.9420  179.0710  140.4590 C   0  0  0  0  0  2  0  0  0  0  0  0
  188.6750  177.9740  148.7830 C   0  0  0  0  0  3  0  0  0  0  0  0
  189.1400  177.6970  146.4210 C   0  0  0  0  0  3  0  0  0  0  0  0
  191.0600  177.2940  140.5360 C   0  0  0  0  0  0  0  0  0  0  0  0
  192.4360  177.2700  140.7360 O   0  0  0  0  0  1  0  0  0  0  0  0
  188.7880  177.5430  141.3840 C   0  0  0  0  0  0  0  0  0  0  0  0
  190.5550  177.0910  139.2510 C   0  0  0  0  0  3  0  0  0  0  0  0
  188.3040  177.3510  140.0830 C   0  0  0  0  0  3  0  0  0  0  0  0
  190.1850  177.5280  141.6110 C   0  0  0  0  0  0  0  0  0  0  0  0
  190.7590  177.8200  142.9620 C   0  0  0  0  0  1  0  0  0  0  0  0
  189.1750  177.1220  139.0160 C   0  0  0  0  0  0  0  0  0  0  0  0
  187.2560  177.0460  137.4570 C   0  0  0  0  0  1  0  0  0  0  0  0
  188.6440  176.9300  137.7380 O   0  0  0  0  0  0  0  0  0  0  0  0
  183.0330  178.3490  143.6850 N   0  0  0  0  0  2  0  0  0  0  0  0
  181.8440  179.0020  143.1680 C   0  0  0  0  0  2  0  0  0  0  0  0
  180.6490  178.6190  144.0160 C   0  0  0  0  0  2  0  0  0  0  0  0
  179.7410  177.9010  143.2400 O   0  0  0  0  0  1  0  0  0  0  0  0
  1 14  1  0  0  0  0
  1  4  1  0  0  0  0
  2 15  1  0  0  0  0
  3  1  1  0  0  0  0
  4  7  1  1  0  0  0
  5 11  2  0  0  0  0
  6 17  1  0  0  0  0
  7  2  2  0  0  0  0
  7  5  1  0  0  0  0
  8 17  2  0  0  0  0
  9  8  1  0  0  0  0
 10  4  1  0  0  0  0
 10 29  1  1  0  0  0
 11  9  1  0  0  0  0
 12 10  1  0  0  0  0
 13  2  1  0  0  0  0
 14 13  2  0  0  0  0
 15 18  1  0  0  0  0
 15  9  2  0  0  0  0
 16  3  1  0  0  0  0
 16 12  1  0  0  0  0
 18  6  2  0  0  0  0
 19 20  1  0  0  0  0
 19 24  1  0  0  0  0
 21 24  2  0  0  0  0
 21 14  1  0  0  0  0
 22 19  2  0  0  0  0
 23 21  1  0  0  0  0
 24 25  1  0  0  0  0
 26 22  1  0  0  0  0
 26 23  2  0  0  0  0
 27 28  1  0  0  0  0
 28 26  1  0  0  0  0
 30 29  1  0  0  0  0
 30 31  1  0  0  0  0
 32 31  1  0  0  0  0
M  END
>  <MODEL>
4

>  <REMARK>
 VINA RESULT:      -9.1      2.613      6.467
  Name = 
  5 active torsions:
  status: ('A' for Active; 'I' for Inactive)
    1  A    between atoms: C_13  and  C_18
    2  A    between atoms: C_14  and  N_29
    3  A    between atoms: O_15  and  C_26
    4  A    between atoms: C_16  and  C_27
    5  A    between atoms: C_18  and  N_29
                            x       y       z     vdW  Elec       q    Type
                         _______ _______ _______ _____ _____    ______ ____

>  <TORSDO>
F 5

$$$$
=
 OpenBabel11052414373D

 32 36  0  0  1  0  0  0  0  0999 V2000
  188.0420  177.7240  141.5140 N   0  0  0  0  0  0  0  0  0  0  0  0
  189.2990  177.0460  143.8880 C   0  0  0  0  0  0  0  0  0  0  0  0
  187.8050  178.8440  140.6040 C   0  0  0  0  0  2  0  0  0  0  0  0
  187.1520  177.5090  142.6700 C   0  0  1  0  0  3  0  0  0  0  0  0
  187.3810  177.6770  145.1610 N   0  0  0  0  0  0  0  0  0  0  0  0
  192.0500  176.3670  146.2930 C   0  0  0  0  0  3  0  0  0  0  0  0
  187.9590  177.4580  143.9480 C   0  0  0  0  0  0  0  0  0  0  0  0
  190.0600  177.0320  147.5080 C   0  0  0  0  0  3  0  0  0  0  0  0
  189.3680  177.1650  146.3020 C   0  0  0  0  0  0  0  0  0  0  0  0
  186.0110  178.5420  142.6970 C   0  0  1  0  0  3  0  0  0  0  0  0
  188.0650  177.5440  146.2990 N   0  0  0  0  0  0  0  0  0  0  0  0
  185.3540  178.6310  141.3180 C   0  0  0  0  0  2  0  0  0  0  0  0
  189.9150  176.7860  142.6170 N   0  0  0  0  0  0  0  0  0  0  0  0
  189.3270  177.0750  141.4930 C   0  0  0  0  0  0  0  0  0  0  0  0
  190.0180  176.8990  145.0800 C   0  0  0  0  0  0  0  0  0  0  0  0
  186.3410  178.8940  140.1740 C   0  0  0  0  0  2  0  0  0  0  0  0
  191.4000  176.6340  147.5030 C   0  0  0  0  0  3  0  0  0  0  0  0
  191.3620  176.4990  145.0840 C   0  0  0  0  0  3  0  0  0  0  0  0
  192.0470  176.7370  138.8420 C   0  0  0  0  0  0  0  0  0  0  0  0
  193.4160  176.9190  138.6780 O   0  0  0  0  0  1  0  0  0  0  0  0
  190.0370  176.8160  140.2190 C   0  0  0  0  0  0  0  0  0  0  0  0
  191.2870  176.2850  137.7630 C   0  0  0  0  0  3  0  0  0  0  0  0
  189.2910  176.3750  139.1180 C   0  0  0  0  0  3  0  0  0  0  0  0
  191.4310  177.0120  140.0750 C   0  0  0  0  0  0  0  0  0  0  0  0
  192.2600  177.5700  141.1890 C   0  0  0  0  0  1  0  0  0  0  0  0
  189.9040  176.1050  137.8930 C   0  0  0  0  0  0  0  0  0  0  0  0
  187.7060  175.8140  136.7960 C   0  0  0  0  0  1  0  0  0  0  0  0
  189.1180  175.6610  136.8260 O   0  0  0  0  0  0  0  0  0  0  0  0
  185.0000  178.1530  143.6690 N   0  0  0  0  0  2  0  0  0  0  0  0
  183.8260  178.9680  143.4150 C   0  0  0  0  0  2  0  0  0  0  0  0
  182.9600  179.0050  144.6570 C   0  0  0  0  0  2  0  0  0  0  0  0
  183.7720  178.9950  145.7890 O   0  0  0  0  0  1  0  0  0  0  0  0
  1  4  1  0  0  0  0
  2  7  2  0  0  0  0
  2 15  1  0  0  0  0
  3  1  1  0  0  0  0
  4 10  1  0  0  0  0
  4  7  1  1  0  0  0
  5 11  2  0  0  0  0
  6 17  1  0  0  0  0
  7  5  1  0  0  0  0
  9  8  1  0  0  0  0
 10 29  1  1  0  0  0
 11  9  1  0  0  0  0
 12 10  1  0  0  0  0
 13  2  1  0  0  0  0
 14  1  1  0  0  0  0
 14 13  2  0  0  0  0
 15 18  1  0  0  0  0
 15  9  2  0  0  0  0
 16  3  1  0  0  0  0
 16 12  1  0  0  0  0
 17  8  2  0  0  0  0
 18  6  2  0  0  0  0
 19 24  1  0  0  0  0
 20 19  1  0  0  0  0
 21 14  1  0  0  0  0
 22 26  1  0  0  0  0
 22 19  2  0  0  0  0
 23 21  1  0  0  0  0
 24 21  2  0  0  0  0
 24 25  1  0  0  0  0
 26 23  2  0  0  0  0
 27 28  1  0  0  0  0
 28 26  1  0  0  0  0
 30 29  1  0  0  0  0
 30 31  1  0  0  0  0
 31 32  1  0  0  0  0
M  END
>  <MODEL>
5

>  <REMARK>
 VINA RESULT:      -9.1      2.549      6.401
  Name = 
  5 active torsions:
  status: ('A' for Active; 'I' for Inactive)
    1  A    between atoms: C_13  and  C_18
    2  A    between atoms: C_14  and  N_29
    3  A    between atoms: O_15  and  C_26
    4  A    between atoms: C_16  and  C_27
    5  A    between atoms: C_18  and  N_29
                            x       y       z     vdW  Elec       q    Type
                         _______ _______ _______ _____ _____    ______ ____

>  <TORSDO>
F 5

$$$$
=
 OpenBabel11052414373D

 32 36  0  0  1  0  0  0  0  0999 V2000
  186.1060  178.1830  144.3740 N   0  0  0  0  0  0  0  0  0  0  0  0
  187.9510  177.6640  142.3750 C   0  0  0  0  0  0  0  0  0  0  0  0
  185.6010  179.2470  145.2420 C   0  0  0  0  0  2  0  0  0  0  0  0
  187.2820  177.3930  144.7800 C   0  0  1  0  0  3  0  0  0  0  0  0
  189.6460  177.1620  143.9780 N   0  0  0  0  0  0  0  0  0  0  0  0
  189.5820  177.7750  139.0360 C   0  0  0  0  0  3  0  0  0  0  0  0
  188.3440  177.4470  143.7040 C   0  0  0  0  0  0  0  0  0  0  0  0
  191.2440  177.2830  140.7320 C   0  0  0  0  0  3  0  0  0  0  0  0
  190.2550  177.3370  141.7170 C   0  0  0  0  0  0  0  0  0  0  0  0
  187.7870  177.8150  146.1720 C   0  0  1  0  0  3  0  0  0  0  0  0
  190.5730  177.1180  143.0180 N   0  0  0  0  0  0  0  0  0  0  0  0
  186.6170  177.8780  147.1550 C   0  0  0  0  0  2  0  0  0  0  0  0
  186.5760  177.9390  142.0670 N   0  0  0  0  0  0  0  0  0  0  0  0
  185.6920  178.1600  142.9950 C   0  0  0  0  0  0  0  0  0  0  0  0
  188.9180  177.6120  141.3640 C   0  0  0  0  0  0  0  0  0  0  0  0
  185.4480  178.7510  146.6770 C   0  0  0  0  0  2  0  0  0  0  0  0
  190.9070  177.5030  139.3930 C   0  0  0  0  0  3  0  0  0  0  0  0
  188.5890  177.8300  140.0190 C   0  0  0  0  0  3  0  0  0  0  0  0
  182.5810  179.0030  140.9560 C   0  0  0  0  0  0  0  0  0  0  0  0
  182.1880  179.2390  139.6440 O   0  0  0  0  0  1  0  0  0  0  0  0
  184.2980  178.4770  142.6050 C   0  0  0  0  0  0  0  0  0  0  0  0
  181.6260  179.0600  141.9720 C   0  0  0  0  0  3  0  0  0  0  0  0
  183.3250  178.5530  143.6110 C   0  0  0  0  0  3  0  0  0  0  0  0
  183.9230  178.7180  141.2620 C   0  0  0  0  0  0  0  0  0  0  0  0
  184.9370  178.7420  140.1620 C   0  0  0  0  0  1  0  0  0  0  0  0
  181.9930  178.8400  143.3060 C   0  0  0  0  0  0  0  0  0  0  0  0
  179.6770  178.6280  144.1500 C   0  0  0  0  0  1  0  0  0  0  0  0
  181.0590  178.8980  144.3440 O   0  0  0  0  0  0  0  0  0  0  0  0
  188.7610  176.8560  146.6690 N   0  0  0  0  0  2  0  0  0  0  0  0
  189.6250  177.5640  147.5960 C   0  0  0  0  0  2  0  0  0  0  0  0
  190.9650  176.8620  147.6720 C   0  0  0  0  0  2  0  0  0  0  0  0
  191.6950  177.1280  146.5140 O   0  0  0  0  0  1  0  0  0  0  0  0
  1  4  1  0  0  0  0
  1  3  1  0  0  0  0
  2  7  1  0  0  0  0
  3 16  1  0  0  0  0
  4  7  1  6  0  0  0
  4 10  1  0  0  0  0
  6 17  1  0  0  0  0
  6 18  2  0  0  0  0
  7  5  2  0  0  0  0
  8  9  1  0  0  0  0
  9 11  2  0  0  0  0
 10 29  1  1  0  0  0
 10 12  1  0  0  0  0
 11  5  1  0  0  0  0
 13  2  1  0  0  0  0
 13 14  2  0  0  0  0
 14  1  1  0  0  0  0
 15  9  1  0  0  0  0
 15  2  2  0  0  0  0
 16 12  1  0  0  0  0
 17  8  2  0  0  0  0
 18 15  1  0  0  0  0
 19 24  2  0  0  0  0
 19 22  1  0  0  0  0
 20 19  1  0  0  0  0
 21 14  1  0  0  0  0
 21 23  2  0  0  0  0
 22 26  2  0  0  0  0
 24 21  1  0  0  0  0
 25 24  1  0  0  0  0
 26 23  1  0  0  0  0
 26 28  1  0  0  0  0
 27 28  1  0  0  0  0
 29 30  1  0  0  0  0
 30 31  1  0  0  0  0
 32 31  1  0  0  0  0
M  END
>  <MODEL>
6

>  <REMARK>
 VINA RESULT:      -9.1      2.175      6.699
  Name = 
  5 active torsions:
  status: ('A' for Active; 'I' for Inactive)
    1  A    between atoms: C_13  and  C_18
    2  A    between atoms: C_14  and  N_29
    3  A    between atoms: O_15  and  C_26
    4  A    between atoms: C_16  and  C_27
    5  A    between atoms: C_18  and  N_29
                            x       y       z     vdW  Elec       q    Type
                         _______ _______ _______ _____ _____    ______ ____

>  <TORSDO>
F 5

$$$$
=
 OpenBabel11052414373D

 32 36  0  0  1  0  0  0  0  0999 V2000
  189.3680  177.2350  142.7540 N   0  0  0  0  0  0  0  0  0  0  0  0
  186.7830  178.1840  143.0510 C   0  0  0  0  0  0  0  0  0  0  0  0
  190.1550  176.0030  142.7020 C   0  0  0  0  0  2  0  0  0  0  0  0
  189.0640  177.8640  144.0520 C   0  0  1  0  0  3  0  0  0  0  0  0
  186.9990  178.2200  145.4280 N   0  0  0  0  0  0  0  0  0  0  0  0
  183.2180  178.8650  142.2520 C   0  0  0  0  0  3  0  0  0  0  0  0
  187.5710  178.0500  144.2050 C   0  0  0  0  0  0  0  0  0  0  0  0
  183.5220  178.8690  144.6570 C   0  0  0  0  0  3  0  0  0  0  0  0
  184.8820  178.5990  144.4860 C   0  0  0  0  0  0  0  0  0  0  0  0
  189.7150  177.0930  145.2150 C   0  0  1  0  0  3  0  0  0  0  0  0
  185.6960  178.4760  145.5650 N   0  0  0  0  0  0  0  0  0  0  0  0
  191.1870  176.8190  144.9000 C   0  0  0  0  0  2  0  0  0  0  0  0
  187.3780  178.0340  141.7530 N   0  0  0  0  0  0  0  0  0  0  0  0
  188.5990  177.6140  141.5970 C   0  0  0  0  0  0  0  0  0  0  0  0
  185.4180  178.4600  143.1900 C   0  0  0  0  0  0  0  0  0  0  0  0
  191.4180  176.1280  143.5500 C   0  0  0  0  0  2  0  0  0  0  0  0
  182.6910  179.0020  143.5410 C   0  0  0  0  0  3  0  0  0  0  0  0
  184.5770  178.5950  142.0760 C   0  0  0  0  0  3  0  0  0  0  0  0
  188.9600  177.6040  137.8010 C   0  0  0  0  0  0  0  0  0  0  0  0
  188.2450  177.9280  136.6530 O   0  0  0  0  0  1  0  0  0  0  0  0
  189.1360  177.4440  140.2270 C   0  0  0  0  0  0  0  0  0  0  0  0
  190.2530  177.0940  137.6760 C   0  0  0  0  0  3  0  0  0  0  0  0
  190.4270  176.9200  140.0770 C   0  0  0  0  0  3  0  0  0  0  0  0
  188.3880  177.7770  139.0730 C   0  0  0  0  0  0  0  0  0  0  0  0
  186.9720  178.2520  139.1720 C   0  0  0  0  0  1  0  0  0  0  0  0
  190.9930  176.7450  138.8130 C   0  0  0  0  0  0  0  0  0  0  0  0
  193.0980  176.3940  137.5620 C   0  0  0  0  0  1  0  0  0  0  0  0
  192.2860  176.2260  138.7160 O   0  0  0  0  0  0  0  0  0  0  0  0
  189.6380  177.8690  146.4420 N   0  0  0  0  0  2  0  0  0  0  0  0
  189.6210  176.9260  147.5460 C   0  0  0  0  0  2  0  0  0  0  0  0
  188.3060  177.0420  148.2870 C   0  0  0  0  0  2  0  0  0  0  0  0
  188.1420  178.3510  148.7380 O   0  0  0  0  0  1  0  0  0  0  0  0
  1  4  1  0  0  0  0
  2 15  2  0  0  0  0
  2  7  1  0  0  0  0
  3  1  1  0  0  0  0
  3 16  1  0  0  0  0
  4  7  1  1  0  0  0
  4 10  1  0  0  0  0
  5 11  1  0  0  0  0
  6 17  1  0  0  0  0
  7  5  2  0  0  0  0
  9  8  1  0  0  0  0
  9 11  2  0  0  0  0
 10 29  1  1  0  0  0
 12 10  1  0  0  0  0
 13  2  1  0  0  0  0
 14 13  2  0  0  0  0
 14  1  1  0  0  0  0
 15  9  1  0  0  0  0
 16 12  1  0  0  0  0
 17  8  2  0  0  0  0
 18  6  2  0  0  0  0
 18 15  1  0  0  0  0
 19 24  1  0  0  0  0
 20 19  1  0  0  0  0
 21 14  1  0  0  0  0
 22 19  2  0  0  0  0
 22 26  1  0  0  0  0
 23 21  1  0  0  0  0
 24 25  1  0  0  0  0
 24 21  2  0  0  0  0
 26 23  2  0  0  0  0
 27 28  1  0  0  0  0
 28 26  1  0  0  0  0
 29 30  1  0  0  0  0
 30 31  1  0  0  0  0
 31 32  1  0  0  0  0
M  END
>  <MODEL>
7

>  <REMARK>
 VINA RESULT:      -9.0      2.188      7.558
  Name = 
  5 active torsions:
  status: ('A' for Active; 'I' for Inactive)
    1  A    between atoms: C_13  and  C_18
    2  A    between atoms: C_14  and  N_29
    3  A    between atoms: O_15  and  C_26
    4  A    between atoms: C_16  and  C_27
    5  A    between atoms: C_18  and  N_29
                            x       y       z     vdW  Elec       q    Type
                         _______ _______ _______ _____ _____    ______ ____

>  <TORSDO>
F 5

$$$$
=
 OpenBabel11052414373D

 32 36  0  0  1  0  0  0  0  0999 V2000
  190.1600  177.5360  142.5340 N   0  0  0  0  0  0  0  0  0  0  0  0
  187.4140  177.8820  142.4400 C   0  0  0  0  0  0  0  0  0  0  0  0
  191.4220  178.2720  142.6190 C   0  0  0  0  0  2  0  0  0  0  0  0
  189.5310  177.2980  141.2220 C   0  0  1  0  0  3  0  0  0  0  0  0
  187.4540  178.0920  140.0630 N   0  0  0  0  0  0  0  0  0  0  0  0
  183.9790  178.7440  143.5690 C   0  0  0  0  0  3  0  0  0  0  0  0
  188.1090  177.8160  141.2240 C   0  0  0  0  0  0  0  0  0  0  0  0
  184.1110  178.9470  141.1570 C   0  0  0  0  0  3  0  0  0  0  0  0
  185.4530  178.5600  141.1980 C   0  0  0  0  0  0  0  0  0  0  0  0
  190.3930  177.8580  140.0770 C   0  0  1  0  0  3  0  0  0  0  0  0
  186.1720  178.4610  140.0510 N   0  0  0  0  0  0  0  0  0  0  0  0
  191.8450  177.4040  140.2470 C   0  0  0  0  0  2  0  0  0  0  0  0
  188.0840  177.5680  143.6710 N   0  0  0  0  0  0  0  0  0  0  0  0
  189.3690  177.3770  143.7270 C   0  0  0  0  0  0  0  0  0  0  0  0
  186.0660  178.2620  142.4310 C   0  0  0  0  0  0  0  0  0  0  0  0
  192.4400  177.7220  141.6250 C   0  0  0  0  0  2  0  0  0  0  0  0
  183.3750  179.0390  142.3420 C   0  0  0  0  0  3  0  0  0  0  0  0
  185.3210  178.3560  143.6150 C   0  0  0  0  0  3  0  0  0  0  0  0
  191.6610  175.9970  146.4440 C   0  0  0  0  0  0  0  0  0  0  0  0
  192.7420  175.1370  146.6030 O   0  0  0  0  0  1  0  0  0  0  0  0
  190.0010  177.0960  145.0360 C   0  0  0  0  0  0  0  0  0  0  0  0
  191.1330  176.6400  147.5640 C   0  0  0  0  0  3  0  0  0  0  0  0
  189.4790  177.7200  146.1780 C   0  0  0  0  0  3  0  0  0  0  0  0
  191.0980  176.2130  145.1740 C   0  0  0  0  0  0  0  0  0  0  0  0
  191.6360  175.4490  144.0050 C   0  0  0  0  0  1  0  0  0  0  0  0
  190.0360  177.5020  147.4390 C   0  0  0  0  0  0  0  0  0  0  0  0
  188.0870  178.1700  148.8080 C   0  0  0  0  0  1  0  0  0  0  0  0
  189.4840  178.1520  148.5450 O   0  0  0  0  0  0  0  0  0  0  0  0
  189.9040  177.3780  138.7940 N   0  0  0  0  0  2  0  0  0  0  0  0
  190.6000  176.1370  138.5070 C   0  0  0  0  0  2  0  0  0  0  0  0
  189.7840  175.3160  137.5290 C   0  0  0  0  0  2  0  0  0  0  0  0
  190.2510  174.0020  137.5240 O   0  0  0  0  0  1  0  0  0  0  0  0
  1  3  1  0  0  0  0
  1 14  1  0  0  0  0
  2 13  1  0  0  0  0
  4  7  1  1  0  0  0
  4  1  1  0  0  0  0
  5  7  1  0  0  0  0
  6 18  1  0  0  0  0
  7  2  2  0  0  0  0
  8  9  2  0  0  0  0
  8 17  1  0  0  0  0
  9 15  1  0  0  0  0
 10 29  1  6  0  0  0
 10 12  1  0  0  0  0
 10  4  1  0  0  0  0
 11  5  2  0  0  0  0
 11  9  1  0  0  0  0
 12 16  1  0  0  0  0
 13 14  2  0  0  0  0
 14 21  1  0  0  0  0
 15  2  1  0  0  0  0
 15 18  2  0  0  0  0
 16  3  1  0  0  0  0
 17  6  2  0  0  0  0
 19 20  1  0  0  0  0
 19 22  1  0  0  0  0
 21 24  1  0  0  0  0
 21 23  2  0  0  0  0
 23 26  1  0  0  0  0
 24 19  2  0  0  0  0
 25 24  1  0  0  0  0
 26 22  2  0  0  0  0
 26 28  1  0  0  0  0
 28 27  1  0  0  0  0
 30 29  1  0  0  0  0
 31 30  1  0  0  0  0
 32 31  1  0  0  0  0
M  END
>  <MODEL>
8

>  <REMARK>
 VINA RESULT:      -9.0      1.882      4.840
  Name = 
  5 active torsions:
  status: ('A' for Active; 'I' for Inactive)
    1  A    between atoms: C_13  and  C_18
    2  A    between atoms: C_14  and  N_29
    3  A    between atoms: O_15  and  C_26
    4  A    between atoms: C_16  and  C_27
    5  A    between atoms: C_18  and  N_29
                            x       y       z     vdW  Elec       q    Type
                         _______ _______ _______ _____ _____    ______ ____

>  <TORSDO>
F 5

$$$$
=
 OpenBabel11052414373D

 32 36  0  0  1  0  0  0  0  0999 V2000
  189.7700  176.8790  142.9030 N   0  0  0  0  0  0  0  0  0  0  0  0
  187.2010  177.9120  142.8300 C   0  0  0  0  0  0  0  0  0  0  0  0
  190.5160  175.6260  143.0200 C   0  0  0  0  0  2  0  0  0  0  0  0
  189.3360  177.5970  144.1140 C   0  0  1  0  0  3  0  0  0  0  0  0
  187.1350  178.0940  145.2080 N   0  0  0  0  0  0  0  0  0  0  0  0
  183.7800  178.6330  141.5680 C   0  0  0  0  0  3  0  0  0  0  0  0
  187.8420  177.8310  144.0750 C   0  0  0  0  0  0  0  0  0  0  0  0
  183.7980  178.7830  143.9880 C   0  0  0  0  0  3  0  0  0  0  0  0
  185.1580  178.4670  143.9980 C   0  0  0  0  0  0  0  0  0  0  0  0
  189.8180  176.8850  145.3910 C   0  0  1  0  0  3  0  0  0  0  0  0
  185.8350  178.3920  145.1720 N   0  0  0  0  0  0  0  0  0  0  0  0
  191.3080  176.5540  145.2730 C   0  0  0  0  0  2  0  0  0  0  0  0
  187.9400  177.6640  141.6230 N   0  0  0  0  0  0  0  0  0  0  0  0
  189.1560  177.2030  141.6410 C   0  0  0  0  0  0  0  0  0  0  0  0
  185.8390  178.2310  142.7860 C   0  0  0  0  0  0  0  0  0  0  0  0
  191.6730  175.7720  144.0040 C   0  0  0  0  0  2  0  0  0  0  0  0
  183.1090  178.8650  142.7740 C   0  0  0  0  0  3  0  0  0  0  0  0
  185.1410  178.3170  141.5730 C   0  0  0  0  0  3  0  0  0  0  0  0
  191.8230  176.8900  138.9340 C   0  0  0  0  0  0  0  0  0  0  0  0
  193.1790  177.1220  138.7300 O   0  0  0  0  0  1  0  0  0  0  0  0
  189.8450  176.9330  140.3580 C   0  0  0  0  0  0  0  0  0  0  0  0
  191.0570  176.3740  137.8880 C   0  0  0  0  0  3  0  0  0  0  0  0
  189.0920  176.4260  139.2900 C   0  0  0  0  0  3  0  0  0  0  0  0
  191.2260  177.1800  140.1730 C   0  0  0  0  0  0  0  0  0  0  0  0
  192.0570  177.8060  141.2480 C   0  0  0  0  0  1  0  0  0  0  0  0
  189.6860  176.1430  138.0590 C   0  0  0  0  0  0  0  0  0  0  0  0
  188.0150  176.4450  136.2590 C   0  0  0  0  0  1  0  0  0  0  0  0
  188.8940  175.6330  137.0270 O   0  0  0  0  0  0  0  0  0  0  0  0
  189.6230  177.7400  146.5510 N   0  0  0  0  0  2  0  0  0  0  0  0
  189.4200  176.8690  147.6960 C   0  0  0  0  0  2  0  0  0  0  0  0
  188.1220  177.2340  148.3830 C   0  0  0  0  0  2  0  0  0  0  0  0
  188.0150  178.6210  148.4670 O   0  0  0  0  0  1  0  0  0  0  0  0
  1  3  1  0  0  0  0
  1  4  1  0  0  0  0
  2  7  1  0  0  0  0
  3 16  1  0  0  0  0
  4  7  1  1  0  0  0
  4 10  1  0  0  0  0
  6 18  2  0  0  0  0
  6 17  1  0  0  0  0
  7  5  2  0  0  0  0
  8  9  1  0  0  0  0
  9 11  2  0  0  0  0
 10 29  1  1  0  0  0
 11  5  1  0  0  0  0
 12 10  1  0  0  0  0
 13 14  2  0  0  0  0
 13  2  1  0  0  0  0
 14  1  1  0  0  0  0
 15  2  2  0  0  0  0
 15  9  1  0  0  0  0
 16 12  1  0  0  0  0
 17  8  2  0  0  0  0
 18 15  1  0  0  0  0
 19 24  1  0  0  0  0
 20 19  1  0  0  0  0
 21 14  1  0  0  0  0
 22 26  1  0  0  0  0
 22 19  2  0  0  0  0
 23 21  1  0  0  0  0
 24 21  2  0  0  0  0
 24 25  1  0  0  0  0
 26 23  2  0  0  0  0
 27 28  1  0  0  0  0
 28 26  1  0  0  0  0
 29 30  1  0  0  0  0
 30 31  1  0  0  0  0
 31 32  1  0  0  0  0
M  END
>  <MODEL>
9

>  <REMARK>
 VINA RESULT:      -8.9      2.300      7.212
  Name = 
  5 active torsions:
  status: ('A' for Active; 'I' for Inactive)
    1  A    between atoms: C_13  and  C_18
    2  A    between atoms: C_14  and  N_29
    3  A    between atoms: O_15  and  C_26
    4  A    between atoms: C_16  and  C_27
    5  A    between atoms: C_18  and  N_29
                            x       y       z     vdW  Elec       q    Type
                         _______ _______ _______ _____ _____    ______ ____

>  <TORSDO>
F 5

$$$$
