=
 OpenBabel11052416063D

 43 49  0  0  1  0  0  0  0  0999 V2000
  186.6110  177.8960  146.7930 C   0  0  0  0  0  0  0  0  0  0  0  0
  185.4590  178.6620  142.4920 C   0  0  0  0  0  0  0  0  0  0  0  0
  187.6660  178.0460  140.9000 C   0  0  0  0  0  0  0  0  0  0  0  0
  185.0930  178.6040  144.5720 C   0  0  0  0  0  0  0  0  0  0  0  0
  188.6010  177.3560  145.3370 C   0  0  0  0  0  1  0  0  0  0  0  0
  187.3270  177.5550  147.8930 F   0  0  0  0  0  0  0  0  0  0  0  0
  186.3990  178.1800  144.4190 C   0  0  0  0  0  0  0  0  0  0  0  0
  185.2760  178.3300  146.9450 C   0  0  0  0  0  3  0  0  0  0  0  0
  187.1930  177.8180  145.5110 C   0  0  0  0  0  0  0  0  0  0  0  0
  187.7540  177.9060  142.3010 C   0  0  0  0  0  3  0  0  0  0  0  0
  186.6330  178.2220  143.0630 C   0  0  0  0  0  0  0  0  0  0  0  0
  184.5410  178.8890  143.4100 O   0  0  0  0  0  0  0  0  0  0  0  0
  185.3420  178.8220  141.1110 C   0  0  0  0  0  0  0  0  0  0  0  0
  186.4570  178.5020  140.3160 C   0  0  0  0  0  3  0  0  0  0  0  0
  184.5000  178.6920  145.8280 C   0  0  0  0  0  3  0  0  0  0  0  0
  188.7900  177.7140  140.0710 N   0  0  0  0  0  0  0  0  0  0  0  0
  188.9580  178.2140  138.7210 C   0  0  0  0  0  2  0  0  0  0  0  0
  189.8960  176.8860  140.5140 C   0  0  0  0  0  2  0  0  0  0  0  0
  190.3390  177.7590  138.2780 C   0  0  1  0  0  3  0  0  0  0  0  0
  190.8190  176.7530  139.3160 C   0  0  0  0  0  2  0  0  0  0  0  0
  190.2760  177.0900  136.9150 C   0  0  0  0  0  2  0  0  0  0  0  0
  191.0640  175.7900  136.9090 C   0  0  2  0  0  3  0  0  0  0  0  0
  191.8320  173.8150  135.1840 S   0  0  0  0  0  0  0  0  0  0  0  0
  192.5020  176.0520  136.5270 C   0  0  0  0  0  2  0  0  0  0  0  0
  190.4900  174.8430  135.8700 C   0  0  1  0  0  3  0  0  0  0  0  0
  193.0920  174.7180  136.1330 C   0  0  0  0  0  2  0  0  0  0  0  0
  188.0350  174.1990  136.1000 N   0  0  0  0  0  0  0  0  0  0  0  0
  189.4060  173.9980  136.4730 C   0  0  0  0  0  0  0  0  0  0  0  0
  185.8980  174.3290  137.2710 C   0  0  0  0  0  2  0  0  0  0  0  0
  186.5920  176.1130  135.6520 C   0  0  0  0  0  2  0  0  0  0  0  0
  185.4190  175.2940  136.1880 C   0  0  0  0  0  2  0  0  0  0  0  0
  187.6600  175.1820  135.0870 C   0  0  0  0  0  2  0  0  0  0  0  0
  186.9740  173.4030  136.7110 C   0  0  0  0  0  2  0  0  0  0  0  0
  189.6990  173.1470  137.3580 O   0  0  0  0  0  0  0  0  0  0  0  0
  184.0610  179.2710  140.4880 C   0  0  0  0  0  2  0  0  0  0  0  0
  182.7450  177.3440  137.4990 C   0  0  0  0  0  3  0  0  0  0  0  0
  182.3160  176.1540  138.0980 C   0  0  0  0  0  0  0  0  0  0  0  0
  183.0370  177.0000  140.2580 C   0  0  0  0  0  3  0  0  0  0  0  0
  183.3180  178.3580  138.2740 C   0  0  0  0  0  3  0  0  0  0  0  0
  183.4690  178.1850  139.6550 C   0  0  0  0  0  0  0  0  0  0  0  0
  182.4670  175.9860  139.4850 C   0  0  0  0  0  3  0  0  0  0  0  0
  182.1950  173.8640  137.2170 C   0  0  0  0  0  2  0  0  0  0  0  0
  181.7270  175.1060  137.2540 C   0  0  0  0  0  3  0  0  0  0  0  0
  1  8  1  0  0  0  0
  1  6  1  0  0  0  0
  2 11  1  0  0  0  0
  2 12  1  0  0  0  0
  3 10  1  0  0  0  0
  4 15  1  0  0  0  0
  5  9  1  0  0  0  0
  7  4  2  0  0  0  0
  7  9  1  0  0  0  0
  9  1  2  0  0  0  0
 10 11  2  0  0  0  0
 11  7  1  0  0  0  0
 12  4  1  0  0  0  0
 13  2  2  0  0  0  0
 14  3  2  0  0  0  0
 14 13  1  0  0  0  0
 15  8  2  0  0  0  0
 16 18  1  0  0  0  0
 16  3  1  0  0  0  0
 17 16  1  0  0  0  0
 19 21  1  6  0  0  0
 19 17  1  0  0  0  0
 19 20  1  0  0  0  0
 20 18  1  0  0  0  0
 22 21  1  6  0  0  0
 23 25  1  0  0  0  0
 23 26  1  0  0  0  0
 24 22  1  0  0  0  0
 25 28  1  1  0  0  0
 25 22  1  0  0  0  0
 26 24  1  0  0  0  0
 27 28  1  0  0  0  0
 27 33  1  0  0  0  0
 28 34  2  0  0  0  0
 30 31  1  0  0  0  0
 31 29  1  0  0  0  0
 32 30  1  0  0  0  0
 32 27  1  0  0  0  0
 33 29  1  0  0  0  0
 35 13  1  0  0  0  0
 36 37  2  0  0  0  0
 36 39  1  0  0  0  0
 37 41  1  0  0  0  0
 39 40  2  0  0  0  0
 40 38  1  0  0  0  0
 40 35  1  0  0  0  0
 41 38  2  0  0  0  0
 42 43  2  0  0  0  0
 43 37  1  0  0  0  0
M  END
>  <MODEL>
1

>  <REMARK>
 VINA RESULT:      -9.1      0.000      0.000
  Name = 
  7 active torsions:
  status: ('A' for Active; 'I' for Inactive)
    1  A    between atoms: C_1  and  C_34
    2  A    between atoms: C_1  and  C_35
    3  A    between atoms: N_2  and  C_13
    4  A    between atoms: C_3  and  C_4
    5  A    between atoms: C_3  and  C_12
    6  A    between atoms: C_14  and  C_22
    7  A    between atoms: C_19  and  C_37
                            x       y       z     vdW  Elec       q    Type
                         _______ _______ _______ _____ _____    ______ ____

>  <TORSDO>
F 7

$$$$
=
 OpenBabel11052416063D

 43 49  0  0  1  0  0  0  0  0999 V2000
  189.7290  177.3120  147.4000 C   0  0  0  0  0  0  0  0  0  0  0  0
  186.8490  178.0380  143.9960 C   0  0  0  0  0  0  0  0  0  0  0  0
  188.2710  177.7750  141.6100 C   0  0  0  0  0  0  0  0  0  0  0  0
  187.3700  177.8700  146.0370 C   0  0  0  0  0  0  0  0  0  0  0  0
  191.0020  177.0900  145.2320 C   0  0  0  0  0  1  0  0  0  0  0  0
  190.8640  177.0400  148.0910 F   0  0  0  0  0  0  0  0  0  0  0  0
  188.5390  177.6340  145.3400 C   0  0  0  0  0  0  0  0  0  0  0  0
  188.5320  177.5560  148.1080 C   0  0  0  0  0  3  0  0  0  0  0  0
  189.7440  177.3510  145.9910 C   0  0  0  0  0  0  0  0  0  0  0  0
  188.9370  177.6080  142.8430 C   0  0  0  0  0  3  0  0  0  0  0  0
  188.1950  177.7460  144.0120 C   0  0  0  0  0  0  0  0  0  0  0  0
  186.3640  178.1110  145.2200 O   0  0  0  0  0  0  0  0  0  0  0  0
  186.1620  178.2210  142.7960 C   0  0  0  0  0  0  0  0  0  0  0  0
  186.8860  178.0790  141.5980 C   0  0  0  0  0  3  0  0  0  0  0  0
  187.3330  177.8400  147.4280 C   0  0  0  0  0  3  0  0  0  0  0  0
  188.9900  177.6240  140.3770 N   0  0  0  0  0  0  0  0  0  0  0  0
  189.9590  176.5710  140.1440 C   0  0  0  0  0  2  0  0  0  0  0  0
  188.7850  178.4750  139.2200 C   0  0  0  0  0  2  0  0  0  0  0  0
  190.3470  176.6800  138.6800 C   0  0  1  0  0  3  0  0  0  0  0  0
  189.7780  178.0000  138.1750 C   0  0  0  0  0  2  0  0  0  0  0  0
  191.8590  176.6860  138.5210 C   0  0  0  0  0  2  0  0  0  0  0  0
  192.3510  175.3700  137.9400 C   0  0  2  0  0  3  0  0  0  0  0  0
  193.0400  174.2680  135.5360 S   0  0  0  0  0  0  0  0  0  0  0  0
  193.8590  175.3660  137.8560 C   0  0  0  0  0  2  0  0  0  0  0  0
  191.8230  175.1980  136.5270 C   0  0  1  0  0  3  0  0  0  0  0  0
  194.2340  174.2530  136.9060 C   0  0  0  0  0  2  0  0  0  0  0  0
  189.4310  174.9500  135.6820 N   0  0  0  0  0  0  0  0  0  0  0  0
  190.4900  174.5090  136.5460 C   0  0  0  0  0  0  0  0  0  0  0  0
  187.0360  175.3610  135.9100 C   0  0  0  0  0  2  0  0  0  0  0  0
  188.5540  177.0940  134.9200 C   0  0  0  0  0  2  0  0  0  0  0  0
  187.1720  176.4480  134.8450 C   0  0  0  0  0  2  0  0  0  0  0  0
  189.6340  176.0340  134.7250 C   0  0  0  0  0  2  0  0  0  0  0  0
  188.1220  174.3050  135.7230 C   0  0  0  0  0  2  0  0  0  0  0  0
  190.2830  173.5760  137.3690 O   0  0  0  0  0  0  0  0  0  0  0  0
  184.6970  178.5090  142.7750 C   0  0  0  0  0  2  0  0  0  0  0  0
  182.7640  177.3360  139.7310 C   0  0  0  0  0  3  0  0  0  0  0  0
  183.1890  178.2500  138.7590 C   0  0  0  0  0  0  0  0  0  0  0  0
  184.5920  179.3380  140.4160 C   0  0  0  0  0  3  0  0  0  0  0  0
  183.2500  177.4230  141.0400 C   0  0  0  0  0  3  0  0  0  0  0  0
  184.1610  178.4260  141.3860 C   0  0  0  0  0  0  0  0  0  0  0  0
  184.1060  179.2550  139.1100 C   0  0  0  0  0  3  0  0  0  0  0  0
  183.0870  177.2340  136.5240 C   0  0  0  0  0  2  0  0  0  0  0  0
  182.6520  178.1370  137.3960 C   0  0  0  0  0  3  0  0  0  0  0  0
  1  6  1  0  0  0  0
  1  8  1  0  0  0  0
  2 11  1  0  0  0  0
  2 12  1  0  0  0  0
  3 10  1  0  0  0  0
  4 15  1  0  0  0  0
  5  9  1  0  0  0  0
  7  9  1  0  0  0  0
  7  4  2  0  0  0  0
  9  1  2  0  0  0  0
 10 11  2  0  0  0  0
 11  7  1  0  0  0  0
 12  4  1  0  0  0  0
 13  2  2  0  0  0  0
 14  3  2  0  0  0  0
 14 13  1  0  0  0  0
 15  8  2  0  0  0  0
 16  3  1  0  0  0  0
 17 16  1  0  0  0  0
 18 16  1  0  0  0  0
 19 21  1  1  0  0  0
 19 17  1  0  0  0  0
 20 19  1  0  0  0  0
 20 18  1  0  0  0  0
 22 21  1  6  0  0  0
 23 25  1  0  0  0  0
 23 26  1  0  0  0  0
 24 22  1  0  0  0  0
 25 28  1  1  0  0  0
 25 22  1  0  0  0  0
 26 24  1  0  0  0  0
 27 33  1  0  0  0  0
 27 28  1  0  0  0  0
 28 34  2  0  0  0  0
 31 30  1  0  0  0  0
 31 29  1  0  0  0  0
 32 30  1  0  0  0  0
 32 27  1  0  0  0  0
 33 29  1  0  0  0  0
 35 13  1  0  0  0  0
 36 39  1  0  0  0  0
 37 41  1  0  0  0  0
 37 36  2  0  0  0  0
 38 40  1  0  0  0  0
 39 40  2  0  0  0  0
 40 35  1  0  0  0  0
 41 38  2  0  0  0  0
 42 43  2  0  0  0  0
 43 37  1  0  0  0  0
M  END
>  <MODEL>
2

>  <REMARK>
 VINA RESULT:      -9.0      1.531      2.332
  Name = 
  7 active torsions:
  status: ('A' for Active; 'I' for Inactive)
    1  A    between atoms: C_1  and  C_34
    2  A    between atoms: C_1  and  C_35
    3  A    between atoms: N_2  and  C_13
    4  A    between atoms: C_3  and  C_4
    5  A    between atoms: C_3  and  C_12
    6  A    between atoms: C_14  and  C_22
    7  A    between atoms: C_19  and  C_37
                            x       y       z     vdW  Elec       q    Type
                         _______ _______ _______ _____ _____    ______ ____

>  <TORSDO>
F 7

$$$$
=
 OpenBabel11052416063D

 43 49  0  0  1  0  0  0  0  0999 V2000
  188.8740  177.5360  147.3250 C   0  0  0  0  0  0  0  0  0  0  0  0
  186.3560  178.2860  143.6490 C   0  0  0  0  0  0  0  0  0  0  0  0
  187.9820  177.9020  141.4140 C   0  0  0  0  0  0  0  0  0  0  0  0
  186.6780  178.1520  145.7330 C   0  0  0  0  0  0  0  0  0  0  0  0
  190.3320  177.2060  145.2910 C   0  0  0  0  0  1  0  0  0  0  0  0
  189.9270  177.2370  148.1250 F   0  0  0  0  0  0  0  0  0  0  0  0
  187.8950  177.8500  145.1550 C   0  0  0  0  0  0  0  0  0  0  0  0
  187.6270  177.8470  147.9110 C   0  0  0  0  0  3  0  0  0  0  0  0
  189.0220  177.5370  145.9220 C   0  0  0  0  0  0  0  0  0  0  0  0
  188.5230  177.7420  142.7080 C   0  0  0  0  0  3  0  0  0  0  0  0
  187.6810  177.9410  143.7980 C   0  0  0  0  0  0  0  0  0  0  0  0
  185.7640  178.4110  144.8200 O   0  0  0  0  0  0  0  0  0  0  0  0
  185.7930  178.4640  142.3850 C   0  0  0  0  0  0  0  0  0  0  0  0
  186.6190  178.2610  141.2650 C   0  0  0  0  0  3  0  0  0  0  0  0
  186.5110  178.1610  147.1140 C   0  0  0  0  0  3  0  0  0  0  0  0
  188.8060  177.6890  140.2570 N   0  0  0  0  0  0  0  0  0  0  0  0
  188.4390  178.1310  138.9270 C   0  0  0  0  0  2  0  0  0  0  0  0
  190.1100  177.0560  140.3080 C   0  0  0  0  0  2  0  0  0  0  0  0
  189.6480  177.8550  138.0490 C   0  0  1  0  0  3  0  0  0  0  0  0
  190.5950  176.9890  138.8710 C   0  0  0  0  0  2  0  0  0  0  0  0
  189.2420  177.1080  136.7890 C   0  0  0  0  0  2  0  0  0  0  0  0
  190.1570  175.9180  136.5430 C   0  0  2  0  0  3  0  0  0  0  0  0
  190.7170  174.0730  134.6070 S   0  0  0  0  0  0  0  0  0  0  0  0
  191.4160  176.3650  135.8380 C   0  0  0  0  0  2  0  0  0  0  0  0
  189.4680  174.9150  135.6360 C   0  0  1  0  0  3  0  0  0  0  0  0
  192.0500  175.1210  135.2610 C   0  0  0  0  0  2  0  0  0  0  0  0
  187.2670  173.7670  136.2150 N   0  0  0  0  0  0  0  0  0  0  0  0
  188.6740  173.9340  136.4470 C   0  0  0  0  0  0  0  0  0  0  0  0
  185.2710  173.5620  137.6050 C   0  0  0  0  0  2  0  0  0  0  0  0
  185.3750  175.2280  135.7340 C   0  0  0  0  0  2  0  0  0  0  0  0
  184.4840  174.2420  136.4860 C   0  0  0  0  0  2  0  0  0  0  0  0
  186.5810  174.4980  135.1530 C   0  0  0  0  0  2  0  0  0  0  0  0
  186.4850  172.8390  137.0270 C   0  0  0  0  0  2  0  0  0  0  0  0
  189.2380  173.2960  137.3780 O   0  0  0  0  0  0  0  0  0  0  0  0
  184.3500  178.8100  142.2200 C   0  0  0  0  0  2  0  0  0  0  0  0
  183.4400  179.0280  138.5450 C   0  0  0  0  0  3  0  0  0  0  0  0
  182.9260  177.7480  138.3070 C   0  0  0  0  0  0  0  0  0  0  0  0
  183.3520  177.1600  140.6250 C   0  0  0  0  0  3  0  0  0  0  0  0
  183.9090  179.3730  139.8170 C   0  0  0  0  0  3  0  0  0  0  0  0
  183.8700  178.4390  140.8580 C   0  0  0  0  0  0  0  0  0  0  0  0
  182.8870  176.8130  139.3550 C   0  0  0  0  0  3  0  0  0  0  0  0
  181.4610  176.5560  136.7340 C   0  0  0  0  0  2  0  0  0  0  0  0
  182.4510  177.4140  136.9570 C   0  0  0  0  0  3  0  0  0  0  0  0
  1  8  1  0  0  0  0
  1  6  1  0  0  0  0
  2 11  1  0  0  0  0
  2 12  1  0  0  0  0
  3 10  1  0  0  0  0
  4 15  1  0  0  0  0
  5  9  1  0  0  0  0
  7  4  2  0  0  0  0
  7  9  1  0  0  0  0
  9  1  2  0  0  0  0
 10 11  2  0  0  0  0
 11  7  1  0  0  0  0
 12  4  1  0  0  0  0
 13  2  2  0  0  0  0
 14  3  2  0  0  0  0
 14 13  1  0  0  0  0
 15  8  2  0  0  0  0
 16 18  1  0  0  0  0
 16  3  1  0  0  0  0
 17 16  1  0  0  0  0
 19 21  1  6  0  0  0
 19 20  1  0  0  0  0
 19 17  1  0  0  0  0
 20 18  1  0  0  0  0
 22 21  1  6  0  0  0
 23 26  1  0  0  0  0
 23 25  1  0  0  0  0
 24 22  1  0  0  0  0
 25 28  1  1  0  0  0
 25 22  1  0  0  0  0
 26 24  1  0  0  0  0
 27 28  1  0  0  0  0
 27 33  1  0  0  0  0
 28 34  2  0  0  0  0
 30 31  1  0  0  0  0
 31 29  1  0  0  0  0
 32 30  1  0  0  0  0
 32 27  1  0  0  0  0
 33 29  1  0  0  0  0
 35 13  1  0  0  0  0
 36 39  1  0  0  0  0
 37 36  2  0  0  0  0
 37 41  1  0  0  0  0
 38 40  1  0  0  0  0
 39 40  2  0  0  0  0
 40 35  1  0  0  0  0
 41 38  2  0  0  0  0
 42 43  2  0  0  0  0
 43 37  1  0  0  0  0
M  END
>  <MODEL>
3

>  <REMARK>
 VINA RESULT:      -8.9      1.166      1.532
  Name = 
  7 active torsions:
  status: ('A' for Active; 'I' for Inactive)
    1  A    between atoms: C_1  and  C_34
    2  A    between atoms: C_1  and  C_35
    3  A    between atoms: N_2  and  C_13
    4  A    between atoms: C_3  and  C_4
    5  A    between atoms: C_3  and  C_12
    6  A    between atoms: C_14  and  C_22
    7  A    between atoms: C_19  and  C_37
                            x       y       z     vdW  Elec       q    Type
                         _______ _______ _______ _____ _____    ______ ____

>  <TORSDO>
F 7

$$$$
=
 OpenBabel11052416063D

 43 49  0  0  1  0  0  0  0  0999 V2000
  188.4060  177.4750  147.5040 C   0  0  0  0  0  0  0  0  0  0  0  0
  188.6690  177.7870  143.0050 C   0  0  0  0  0  0  0  0  0  0  0  0
  186.0950  178.2560  142.0350 C   0  0  0  0  0  0  0  0  0  0  0  0
  189.4770  177.5150  144.9380 C   0  0  0  0  0  0  0  0  0  0  0  0
  186.0830  177.8880  146.6070 C   0  0  0  0  0  1  0  0  0  0  0  0
  187.9110  177.4530  148.7670 F   0  0  0  0  0  0  0  0  0  0  0  0
  188.1220  177.6980  145.1310 C   0  0  0  0  0  0  0  0  0  0  0  0
  189.7910  177.2870  147.3020 C   0  0  0  0  0  3  0  0  0  0  0  0
  187.5470  177.6830  146.4060 C   0  0  0  0  0  0  0  0  0  0  0  0
  186.3020  178.1050  143.4230 C   0  0  0  0  0  3  0  0  0  0  0  0
  187.6000  177.8720  143.8690 C   0  0  0  0  0  0  0  0  0  0  0  0
  189.7920  177.5710  143.6600 O   0  0  0  0  0  0  0  0  0  0  0  0
  188.4970  177.9210  141.6270 C   0  0  0  0  0  0  0  0  0  0  0  0
  187.1980  178.1650  141.1480 C   0  0  0  0  0  3  0  0  0  0  0  0
  190.3420  177.3050  146.0080 C   0  0  0  0  0  3  0  0  0  0  0  0
  184.7770  178.5160  141.5280 N   0  0  0  0  0  0  0  0  0  0  0  0
  184.4800  178.6500  140.1150 C   0  0  0  0  0  2  0  0  0  0  0  0
  183.6010  178.6220  142.3700 C   0  0  0  0  0  2  0  0  0  0  0  0
  182.9680  178.7510  140.0170 C   0  0  1  0  0  3  0  0  0  0  0  0
  182.4500  178.9520  141.4350 C   0  0  0  0  0  2  0  0  0  0  0  0
  182.5600  179.9350  139.1550 C   0  0  0  0  0  2  0  0  0  0  0  0
  181.3190  179.6120  138.3380 C   0  0  2  0  0  3  0  0  0  0  0  0
  180.2740  180.0570  135.8530 S   0  0  0  0  0  0  0  0  0  0  0  0
  181.5430  178.3630  137.5190 C   0  0  0  0  0  2  0  0  0  0  0  0
  181.0340  180.7410  137.3640 C   0  0  1  0  0  3  0  0  0  0  0  0
  180.4750  178.3530  136.4500 C   0  0  0  0  0  2  0  0  0  0  0  0
  179.8890  183.0180  137.3370 N   0  0  0  0  0  0  0  0  0  0  0  0
  180.1510  181.7730  138.0020 C   0  0  0  0  0  0  0  0  0  0  0  0
  179.8070  185.3700  137.9830 C   0  0  0  0  0  2  0  0  0  0  0  0
  181.1750  184.6190  136.0210 C   0  0  0  0  0  2  0  0  0  0  0  0
  180.2750  185.7230  136.5720 C   0  0  0  0  0  2  0  0  0  0  0  0
  180.4200  183.2930  136.0040 C   0  0  0  0  0  2  0  0  0  0  0  0
  179.0600  184.0400  137.9710 C   0  0  0  0  0  2  0  0  0  0  0  0
  179.6860  181.5670  139.1570 O   0  0  0  0  0  0  0  0  0  0  0  0
  189.6590  177.8570  140.6900 C   0  0  0  0  0  2  0  0  0  0  0  0
  188.4960  176.5530  137.3250 C   0  0  0  0  0  3  0  0  0  0  0  0
  188.3590  177.7400  136.5960 C   0  0  0  0  0  0  0  0  0  0  0  0
  189.0630  179.0030  138.5470 C   0  0  0  0  0  3  0  0  0  0  0  0
  188.9140  176.5900  138.6600 C   0  0  0  0  0  3  0  0  0  0  0  0
  189.1940  177.8150  139.2740 C   0  0  0  0  0  0  0  0  0  0  0  0
  188.6430  178.9680  137.2160 C   0  0  0  0  0  3  0  0  0  0  0  0
  186.6290  177.7460  134.8500 C   0  0  0  0  0  2  0  0  0  0  0  0
  187.9090  177.6670  135.1990 C   0  0  0  0  0  3  0  0  0  0  0  0
  1  6  1  0  0  0  0
  2 12  1  0  0  0  0
  2 11  1  0  0  0  0
  3 10  1  0  0  0  0
  4  7  2  0  0  0  0
  4 15  1  0  0  0  0
  7  9  1  0  0  0  0
  8  1  1  0  0  0  0
  9  5  1  0  0  0  0
  9  1  2  0  0  0  0
 10 11  2  0  0  0  0
 11  7  1  0  0  0  0
 12  4  1  0  0  0  0
 13  2  2  0  0  0  0
 14 13  1  0  0  0  0
 14  3  2  0  0  0  0
 15  8  2  0  0  0  0
 16  3  1  0  0  0  0
 16 18  1  0  0  0  0
 17 16  1  0  0  0  0
 19 21  1  6  0  0  0
 19 17  1  0  0  0  0
 19 20  1  0  0  0  0
 20 18  1  0  0  0  0
 22 21  1  6  0  0  0
 23 26  1  0  0  0  0
 23 25  1  0  0  0  0
 24 22  1  0  0  0  0
 25 28  1  1  0  0  0
 25 22  1  0  0  0  0
 26 24  1  0  0  0  0
 27 33  1  0  0  0  0
 27 28  1  0  0  0  0
 28 34  2  0  0  0  0
 30 31  1  0  0  0  0
 31 29  1  0  0  0  0
 32 30  1  0  0  0  0
 32 27  1  0  0  0  0
 33 29  1  0  0  0  0
 35 13  1  0  0  0  0
 36 39  1  0  0  0  0
 37 41  1  0  0  0  0
 37 36  2  0  0  0  0
 38 40  1  0  0  0  0
 39 40  2  0  0  0  0
 40 35  1  0  0  0  0
 41 38  2  0  0  0  0
 42 43  2  0  0  0  0
 43 37  1  0  0  0  0
M  END
>  <MODEL>
4

>  <REMARK>
 VINA RESULT:      -8.8      4.194      7.907
  Name = 
  7 active torsions:
  status: ('A' for Active; 'I' for Inactive)
    1  A    between atoms: C_1  and  C_34
    2  A    between atoms: C_1  and  C_35
    3  A    between atoms: N_2  and  C_13
    4  A    between atoms: C_3  and  C_4
    5  A    between atoms: C_3  and  C_12
    6  A    between atoms: C_14  and  C_22
    7  A    between atoms: C_19  and  C_37
                            x       y       z     vdW  Elec       q    Type
                         _______ _______ _______ _____ _____    ______ ____

>  <TORSDO>
F 7

$$$$
=
 OpenBabel11052416063D

 43 49  0  0  1  0  0  0  0  0999 V2000
  190.3510  176.9460  146.3490 C   0  0  0  0  0  0  0  0  0  0  0  0
  188.9650  178.0650  142.1970 C   0  0  0  0  0  0  0  0  0  0  0  0
  186.1840  178.2910  142.2630 C   0  0  0  0  0  0  0  0  0  0  0  0
  190.4290  177.5920  143.6450 C   0  0  0  0  0  0  0  0  0  0  0  0
  187.8340  177.1430  146.3860 C   0  0  0  0  0  1  0  0  0  0  0  0
  190.3420  176.6300  147.6680 F   0  0  0  0  0  0  0  0  0  0  0  0
  189.2210  177.5280  144.3120 C   0  0  0  0  0  0  0  0  0  0  0  0
  191.5830  177.0110  145.6620 C   0  0  0  0  0  3  0  0  0  0  0  0
  189.1420  177.2050  145.6700 C   0  0  0  0  0  0  0  0  0  0  0  0
  186.8850  177.9370  143.4350 C   0  0  0  0  0  3  0  0  0  0  0  0
  188.2710  177.8340  143.3640 C   0  0  0  0  0  0  0  0  0  0  0  0
  190.2620  177.9160  142.3780 O   0  0  0  0  0  0  0  0  0  0  0  0
  188.3030  178.4060  141.0180 C   0  0  0  0  0  0  0  0  0  0  0  0
  186.9020  178.5250  141.0620 C   0  0  0  0  0  3  0  0  0  0  0  0
  191.6330  177.3370  144.2940 C   0  0  0  0  0  3  0  0  0  0  0  0
  184.7550  178.4280  142.2910 N   0  0  0  0  0  0  0  0  0  0  0  0
  183.8980  178.0500  141.1850 C   0  0  0  0  0  2  0  0  0  0  0  0
  184.0190  178.9110  143.4430 C   0  0  0  0  0  2  0  0  0  0  0  0
  182.4740  178.2030  141.6930 C   0  0  1  0  0  3  0  0  0  0  0  0
  182.5610  178.9450  143.0200 C   0  0  0  0  0  2  0  0  0  0  0  0
  181.6350  179.0090  140.7150 C   0  0  0  0  0  2  0  0  0  0  0  0
  180.5570  178.1450  140.0810 C   0  0  2  0  0  3  0  0  0  0  0  0
  180.0930  175.5410  139.3970 S   0  0  0  0  0  0  0  0  0  0  0  0
  179.6740  177.5440  141.1490 C   0  0  0  0  0  2  0  0  0  0  0  0
  181.1940  176.9930  139.3260 C   0  0  1  0  0  3  0  0  0  0  0  0
  178.9310  176.4010  140.4990 C   0  0  0  0  0  2  0  0  0  0  0  0
  182.4060  176.6300  137.1130 N   0  0  0  0  0  0  0  0  0  0  0  0
  181.4850  177.3910  137.9090 C   0  0  0  0  0  0  0  0  0  0  0  0
  184.2310  177.1370  135.5750 C   0  0  0  0  0  2  0  0  0  0  0  0
  184.5520  175.5280  137.4710 C   0  0  0  0  0  2  0  0  0  0  0  0
  184.8980  175.8350  136.0150 C   0  0  0  0  0  2  0  0  0  0  0  0
  183.0390  175.4210  137.6330 C   0  0  0  0  0  2  0  0  0  0  0  0
  182.7180  177.0360  135.7460 C   0  0  0  0  0  2  0  0  0  0  0  0
  180.9600  178.4370  137.4360 O   0  0  0  0  0  0  0  0  0  0  0  0
  189.0550  178.6850  139.7570 C   0  0  0  0  0  2  0  0  0  0  0  0
  190.6910  175.5930  138.2950 C   0  0  0  0  0  3  0  0  0  0  0  0
  189.6690  175.0930  137.4790 C   0  0  0  0  0  0  0  0  0  0  0  0
  188.2430  176.9370  138.1610 C   0  0  0  0  0  3  0  0  0  0  0  0
  190.4910  176.7590  139.0410 C   0  0  0  0  0  3  0  0  0  0  0  0
  189.2650  177.4310  138.9790 C   0  0  0  0  0  0  0  0  0  0  0  0
  188.4400  175.7720  137.4180 C   0  0  0  0  0  3  0  0  0  0  0  0
  188.9260  173.1330  136.1970 C   0  0  0  0  0  2  0  0  0  0  0  0
  189.9090  173.8610  136.7160 C   0  0  0  0  0  3  0  0  0  0  0  0
  1  6  1  0  0  0  0
  2 12  1  0  0  0  0
  2 11  1  0  0  0  0
  3 16  1  0  0  0  0
  3 10  1  0  0  0  0
  4 15  2  0  0  0  0
  4  7  1  0  0  0  0
  7  9  2  0  0  0  0
  8  1  2  0  0  0  0
  9  1  1  0  0  0  0
  9  5  1  0  0  0  0
 11 10  2  0  0  0  0
 11  7  1  0  0  0  0
 12  4  1  0  0  0  0
 13 14  1  0  0  0  0
 13  2  2  0  0  0  0
 14  3  2  0  0  0  0
 15  8  1  0  0  0  0
 16 18  1  0  0  0  0
 17 19  1  0  0  0  0
 17 16  1  0  0  0  0
 19 21  1  6  0  0  0
 19 20  1  0  0  0  0
 20 18  1  0  0  0  0
 22 21  1  1  0  0  0
 22 24  1  0  0  0  0
 23 26  1  0  0  0  0
 25 28  1  6  0  0  0
 25 23  1  0  0  0  0
 25 22  1  0  0  0  0
 26 24  1  0  0  0  0
 27 32  1  0  0  0  0
 27 28  1  0  0  0  0
 29 33  1  0  0  0  0
 29 31  1  0  0  0  0
 30 32  1  0  0  0  0
 31 30  1  0  0  0  0
 33 27  1  0  0  0  0
 34 28  2  0  0  0  0
 35 13  1  0  0  0  0
 36 39  1  0  0  0  0
 37 36  2  0  0  0  0
 38 40  1  0  0  0  0
 40 39  2  0  0  0  0
 40 35  1  0  0  0  0
 41 37  1  0  0  0  0
 41 38  2  0  0  0  0
 42 43  2  0  0  0  0
 43 37  1  0  0  0  0
M  END
>  <MODEL>
5

>  <REMARK>
 VINA RESULT:      -8.8      3.197      7.009
  Name = 
  7 active torsions:
  status: ('A' for Active; 'I' for Inactive)
    1  A    between atoms: C_1  and  C_34
    2  A    between atoms: C_1  and  C_35
    3  A    between atoms: N_2  and  C_13
    4  A    between atoms: C_3  and  C_4
    5  A    between atoms: C_3  and  C_12
    6  A    between atoms: C_14  and  C_22
    7  A    between atoms: C_19  and  C_37
                            x       y       z     vdW  Elec       q    Type
                         _______ _______ _______ _____ _____    ______ ____

>  <TORSDO>
F 7

$$$$
=
 OpenBabel11052416063D

 43 49  0  0  1  0  0  0  0  0999 V2000
  189.4910  177.0280  146.8770 C   0  0  0  0  0  0  0  0  0  0  0  0
  185.7620  178.5340  144.8180 C   0  0  0  0  0  0  0  0  0  0  0  0
  186.2170  178.4430  142.0660 C   0  0  0  0  0  0  0  0  0  0  0  0
  186.9220  178.0300  146.5100 C   0  0  0  0  0  0  0  0  0  0  0  0
  189.8880  176.9650  144.3850 C   0  0  0  0  0  1  0  0  0  0  0  0
  190.7380  176.5380  147.0850 F   0  0  0  0  0  0  0  0  0  0  0  0
  187.7280  177.7610  145.4210 C   0  0  0  0  0  0  0  0  0  0  0  0
  188.6630  177.3050  147.9870 C   0  0  0  0  0  3  0  0  0  0  0  0
  189.0250  177.2590  145.5660 C   0  0  0  0  0  0  0  0  0  0  0  0
  187.2330  178.0340  142.9560 C   0  0  0  0  0  3  0  0  0  0  0  0
  186.9690  178.0930  144.3220 C   0  0  0  0  0  0  0  0  0  0  0  0
  185.7460  178.4910  146.1350 O   0  0  0  0  0  0  0  0  0  0  0  0
  184.7410  178.9550  143.9660 C   0  0  0  0  0  0  0  0  0  0  0  0
  184.9770  178.8990  142.5810 C   0  0  0  0  0  3  0  0  0  0  0  0
  187.3630  177.8130  147.8120 C   0  0  0  0  0  3  0  0  0  0  0  0
  186.4350  178.3830  140.6480 N   0  0  0  0  0  0  0  0  0  0  0  0
  187.6820  177.9470  140.0520 C   0  0  0  0  0  2  0  0  0  0  0  0
  185.4150  178.7030  139.6670 C   0  0  0  0  0  2  0  0  0  0  0  0
  187.4260  177.8790  138.5560 C   0  0  1  0  0  3  0  0  0  0  0  0
  186.0850  178.5590  138.3120 C   0  0  0  0  0  2  0  0  0  0  0  0
  188.5140  178.6120  137.7880 C   0  0  0  0  0  2  0  0  0  0  0  0
  188.9270  177.8310  136.5500 C   0  0  2  0  0  3  0  0  0  0  0  0
  189.0700  175.2550  135.6510 S   0  0  0  0  0  0  0  0  0  0  0  0
  187.7300  177.5920  135.6600 C   0  0  0  0  0  2  0  0  0  0  0  0
  189.4640  176.4700  136.9530 C   0  0  1  0  0  3  0  0  0  0  0  0
  188.1160  176.4830  134.7090 C   0  0  0  0  0  2  0  0  0  0  0  0
  191.4530  176.5050  138.5460 N   0  0  0  0  0  0  0  0  0  0  0  0
  190.9410  176.5430  137.2050 C   0  0  0  0  0  0  0  0  0  0  0  0
  193.1480  177.7210  139.8130 C   0  0  0  0  0  2  0  0  0  0  0  0
  190.8200  177.4520  140.7020 C   0  0  0  0  0  2  0  0  0  0  0  0
  192.3030  177.4960  141.0650 C   0  0  0  0  0  2  0  0  0  0  0  0
  190.5650  176.3360  139.6930 C   0  0  0  0  0  2  0  0  0  0  0  0
  192.8880  176.6120  138.7970 C   0  0  0  0  0  2  0  0  0  0  0  0
  191.7320  176.6980  136.2340 O   0  0  0  0  0  0  0  0  0  0  0  0
  183.4210  179.4060  144.5000 C   0  0  0  0  0  2  0  0  0  0  0  0
  181.4540  178.6280  141.3530 C   0  0  0  0  0  3  0  0  0  0  0  0
  180.2130  178.2550  141.8820 C   0  0  0  0  0  0  0  0  0  0  0  0
  181.0740  178.6260  144.1230 C   0  0  0  0  0  3  0  0  0  0  0  0
  182.5010  178.9980  142.2040 C   0  0  0  0  0  3  0  0  0  0  0  0
  182.3140  178.9930  143.5910 C   0  0  0  0  0  0  0  0  0  0  0  0
  180.0280  178.2530  143.2750 C   0  0  0  0  0  3  0  0  0  0  0  0
  179.2120  176.7870  140.1840 C   0  0  0  0  0  2  0  0  0  0  0  0
  179.1380  177.8630  140.9610 C   0  0  0  0  0  3  0  0  0  0  0  0
  1  6  1  0  0  0  0
  1  8  1  0  0  0  0
  2 12  1  0  0  0  0
  3 14  2  0  0  0  0
  3 10  1  0  0  0  0
  4 15  1  0  0  0  0
  5  9  1  0  0  0  0
  7  9  1  0  0  0  0
  7  4  2  0  0  0  0
  9  1  2  0  0  0  0
 10 11  2  0  0  0  0
 11  2  1  0  0  0  0
 11  7  1  0  0  0  0
 12  4  1  0  0  0  0
 13 35  1  0  0  0  0
 13  2  2  0  0  0  0
 14 13  1  0  0  0  0
 15  8  2  0  0  0  0
 16  3  1  0  0  0  0
 17 16  1  0  0  0  0
 18 16  1  0  0  0  0
 19 21  1  6  0  0  0
 19 17  1  0  0  0  0
 20 19  1  0  0  0  0
 20 18  1  0  0  0  0
 22 25  1  0  0  0  0
 22 21  1  1  0  0  0
 23 25  1  0  0  0  0
 24 22  1  0  0  0  0
 25 28  1  6  0  0  0
 26 23  1  0  0  0  0
 26 24  1  0  0  0  0
 27 33  1  0  0  0  0
 27 32  1  0  0  0  0
 28 27  1  0  0  0  0
 29 31  1  0  0  0  0
 30 31  1  0  0  0  0
 32 30  1  0  0  0  0
 33 29  1  0  0  0  0
 34 28  2  0  0  0  0
 36 37  2  0  0  0  0
 36 39  1  0  0  0  0
 37 41  1  0  0  0  0
 39 40  2  0  0  0  0
 40 38  1  0  0  0  0
 40 35  1  0  0  0  0
 41 38  2  0  0  0  0
 42 43  2  0  0  0  0
 43 37  1  0  0  0  0
M  END
>  <MODEL>
6

>  <REMARK>
 VINA RESULT:      -8.7      2.520      4.239
  Name = 
  7 active torsions:
  status: ('A' for Active; 'I' for Inactive)
    1  A    between atoms: C_1  and  C_34
    2  A    between atoms: C_1  and  C_35
    3  A    between atoms: N_2  and  C_13
    4  A    between atoms: C_3  and  C_4
    5  A    between atoms: C_3  and  C_12
    6  A    between atoms: C_14  and  C_22
    7  A    between atoms: C_19  and  C_37
                            x       y       z     vdW  Elec       q    Type
                         _______ _______ _______ _____ _____    ______ ____

>  <TORSDO>
F 7

$$$$
=
 OpenBabel11052416063D

 43 49  0  0  1  0  0  0  0  0999 V2000
  189.4280  177.0460  147.2290 C   0  0  0  0  0  0  0  0  0  0  0  0
  189.8370  177.3800  142.7420 C   0  0  0  0  0  0  0  0  0  0  0  0
  187.3310  178.0420  141.7080 C   0  0  0  0  0  0  0  0  0  0  0  0
  190.5700  177.0330  144.6930 C   0  0  0  0  0  0  0  0  0  0  0  0
  187.1660  177.6330  146.2740 C   0  0  0  0  0  1  0  0  0  0  0  0
  188.8980  177.0480  148.4770 F   0  0  0  0  0  0  0  0  0  0  0  0
  189.2260  177.3110  144.8510 C   0  0  0  0  0  0  0  0  0  0  0  0
  190.8010  176.7610  147.0620 C   0  0  0  0  0  3  0  0  0  0  0  0
  188.6170  177.3260  146.1100 C   0  0  0  0  0  0  0  0  0  0  0  0
  187.4880  177.8630  143.0990 C   0  0  0  0  0  3  0  0  0  0  0  0
  188.7530  177.5340  143.5780 C   0  0  0  0  0  0  0  0  0  0  0  0
  190.9230  177.0780  143.4240 O   0  0  0  0  0  0  0  0  0  0  0  0
  189.7130  177.5390  141.3610 C   0  0  0  0  0  0  0  0  0  0  0  0
  188.4480  177.8800  140.8510 C   0  0  0  0  0  3  0  0  0  0  0  0
  191.3880  176.7510  145.7830 C   0  0  0  0  0  3  0  0  0  0  0  0
  186.0500  178.4010  141.1690 N   0  0  0  0  0  0  0  0  0  0  0  0
  184.8750  178.6210  141.9870 C   0  0  0  0  0  2  0  0  0  0  0  0
  185.8110  178.6290  139.7560 C   0  0  0  0  0  2  0  0  0  0  0  0
  183.8010  179.1340  141.0440 C   0  0  1  0  0  3  0  0  0  0  0  0
  184.3270  178.9270  139.6290 C   0  0  0  0  0  2  0  0  0  0  0  0
  182.5070  178.3570  141.2220 C   0  0  0  0  0  2  0  0  0  0  0  0
  181.5370  179.1110  142.1180 C   0  0  2  0  0  3  0  0  0  0  0  0
  178.9310  179.0140  142.9330 S   0  0  0  0  0  0  0  0  0  0  0  0
  181.5140  178.4960  143.4980 C   0  0  0  0  0  2  0  0  0  0  0  0
  180.1300  179.0090  141.5580 C   0  0  1  0  0  3  0  0  0  0  0  0
  180.2600  179.0020  144.1730 C   0  0  0  0  0  2  0  0  0  0  0  0
  179.8860  179.8940  139.1810 N   0  0  0  0  0  0  0  0  0  0  0  0
  179.8650  180.1300  140.5970 C   0  0  0  0  0  0  0  0  0  0  0  0
  180.8020  181.0300  137.2250 C   0  0  0  0  0  2  0  0  0  0  0  0
  181.2490  178.5970  137.6290 C   0  0  0  0  0  2  0  0  0  0  0  0
  180.9700  179.6610  136.5700 C   0  0  0  0  0  2  0  0  0  0  0  0
  180.1040  178.5560  138.6370 C   0  0  0  0  0  2  0  0  0  0  0  0
  179.6650  180.9900  138.2410 C   0  0  0  0  0  2  0  0  0  0  0  0
  179.6830  181.2980  141.0370 O   0  0  0  0  0  0  0  0  0  0  0  0
  190.8930  177.4000  140.4550 C   0  0  0  0  0  2  0  0  0  0  0  0
  190.3200  175.7020  137.1130 C   0  0  0  0  0  3  0  0  0  0  0  0
  189.6650  176.7100  136.3950 C   0  0  0  0  0  0  0  0  0  0  0  0
  189.8050  178.1640  138.3350 C   0  0  0  0  0  3  0  0  0  0  0  0
  190.7150  175.9240  138.4370 C   0  0  0  0  0  3  0  0  0  0  0  0
  190.4550  177.1540  139.0520 C   0  0  0  0  0  0  0  0  0  0  0  0
  189.4070  177.9440  137.0150 C   0  0  0  0  0  3  0  0  0  0  0  0
  188.3860  175.4880  134.6890 C   0  0  0  0  0  2  0  0  0  0  0  0
  189.2550  176.4410  135.0100 C   0  0  0  0  0  3  0  0  0  0  0  0
  1  6  1  0  0  0  0
  2 12  1  0  0  0  0
  2 11  1  0  0  0  0
  3 10  1  0  0  0  0
  4  7  2  0  0  0  0
  4 15  1  0  0  0  0
  7  9  1  0  0  0  0
  8  1  1  0  0  0  0
  9  5  1  0  0  0  0
  9  1  2  0  0  0  0
 10 11  2  0  0  0  0
 11  7  1  0  0  0  0
 12  4  1  0  0  0  0
 13  2  2  0  0  0  0
 14 13  1  0  0  0  0
 14  3  2  0  0  0  0
 15  8  2  0  0  0  0
 16  3  1  0  0  0  0
 16 17  1  0  0  0  0
 18 16  1  0  0  0  0
 19 21  1  6  0  0  0
 19 17  1  0  0  0  0
 20 18  1  0  0  0  0
 20 19  1  0  0  0  0
 22 21  1  6  0  0  0
 22 24  1  0  0  0  0
 23 26  1  0  0  0  0
 24 26  1  0  0  0  0
 25 28  1  6  0  0  0
 25 22  1  0  0  0  0
 25 23  1  0  0  0  0
 27 28  1  0  0  0  0
 28 34  2  0  0  0  0
 29 33  1  0  0  0  0
 30 32  1  0  0  0  0
 31 29  1  0  0  0  0
 31 30  1  0  0  0  0
 32 27  1  0  0  0  0
 33 27  1  0  0  0  0
 35 13  1  0  0  0  0
 36 39  1  0  0  0  0
 37 41  1  0  0  0  0
 37 36  2  0  0  0  0
 38 40  1  0  0  0  0
 39 40  2  0  0  0  0
 40 35  1  0  0  0  0
 41 38  2  0  0  0  0
 42 43  2  0  0  0  0
 43 37  1  0  0  0  0
M  END
>  <MODEL>
7

>  <REMARK>
 VINA RESULT:      -8.6      3.791      7.946
  Name = 
  7 active torsions:
  status: ('A' for Active; 'I' for Inactive)
    1  A    between atoms: C_1  and  C_34
    2  A    between atoms: C_1  and  C_35
    3  A    between atoms: N_2  and  C_13
    4  A    between atoms: C_3  and  C_4
    5  A    between atoms: C_3  and  C_12
    6  A    between atoms: C_14  and  C_22
    7  A    between atoms: C_19  and  C_37
                            x       y       z     vdW  Elec       q    Type
                         _______ _______ _______ _____ _____    ______ ____

>  <TORSDO>
F 7

$$$$
=
 OpenBabel11052416063D

 43 49  0  0  1  0  0  0  0  0999 V2000
  191.7060  176.2220  136.1650 C   0  0  0  0  0  0  0  0  0  0  0  0
  190.9150  177.4450  140.4420 C   0  0  0  0  0  0  0  0  0  0  0  0
  188.2140  178.1160  140.6470 C   0  0  0  0  0  0  0  0  0  0  0  0
  192.1400  176.7740  138.8560 C   0  0  0  0  0  0  0  0  0  0  0  0
  189.2680  176.8450  136.3680 C   0  0  0  0  0  1  0  0  0  0  0  0
  191.5220  175.9430  134.8510 F   0  0  0  0  0  0  0  0  0  0  0  0
  190.8840  176.9380  138.3050 C   0  0  0  0  0  0  0  0  0  0  0  0
  192.9880  176.0570  136.7340 C   0  0  0  0  0  3  0  0  0  0  0  0
  190.6280  176.6720  136.9560 C   0  0  0  0  0  0  0  0  0  0  0  0
  188.7400  177.7040  139.4040 C   0  0  0  0  0  3  0  0  0  0  0  0
  190.0910  177.3770  139.3400 C   0  0  0  0  0  0  0  0  0  0  0  0
  192.1450  177.0810  140.1380 O   0  0  0  0  0  0  0  0  0  0  0  0
  190.4310  177.8590  141.6830 C   0  0  0  0  0  0  0  0  0  0  0  0
  189.0670  178.1880  141.7780 C   0  0  0  0  0  3  0  0  0  0  0  0
  193.2180  176.3350  138.0940 C   0  0  0  0  0  3  0  0  0  0  0  0
  186.8220  178.4460  140.7670 N   0  0  0  0  0  0  0  0  0  0  0  0
  186.1310  178.5300  142.0380 C   0  0  0  0  0  2  0  0  0  0  0  0
  185.9770  178.7770  139.6360 C   0  0  0  0  0  2  0  0  0  0  0  0
  184.7430  179.0590  141.7220 C   0  0  1  0  0  3  0  0  0  0  0  0
  184.5880  179.0000  140.2080 C   0  0  0  0  0  2  0  0  0  0  0  0
  183.6740  178.1970  142.3750 C   0  0  0  0  0  2  0  0  0  0  0  0
  182.3650  178.9600  142.5080 C   0  0  2  0  0  3  0  0  0  0  0  0
  179.6730  178.5020  142.5850 S   0  0  0  0  0  0  0  0  0  0  0  0
  181.9350  179.0110  143.9550 C   0  0  0  0  0  2  0  0  0  0  0  0
  181.2690  178.2440  141.7400 C   0  0  1  0  0  3  0  0  0  0  0  0
  180.4720  179.3870  143.9560 C   0  0  0  0  0  2  0  0  0  0  0  0
  181.4600  177.8190  139.2340 N   0  0  0  0  0  0  0  0  0  0  0  0
  181.2220  178.7280  140.3210 C   0  0  0  0  0  0  0  0  0  0  0  0
  182.7380  177.8650  137.1560 C   0  0  0  0  0  2  0  0  0  0  0  0
  182.9870  175.9730  138.7820 C   0  0  0  0  0  2  0  0  0  0  0  0
  182.9390  176.3580  137.3050 C   0  0  0  0  0  2  0  0  0  0  0  0
  181.6940  176.3970  139.4710 C   0  0  0  0  0  2  0  0  0  0  0  0
  181.4500  178.2940  137.8530 C   0  0  0  0  0  2  0  0  0  0  0  0
  181.0310  179.9520  140.0860 O   0  0  0  0  0  0  0  0  0  0  0  0
  191.3150  177.9070  142.8850 C   0  0  0  0  0  2  0  0  0  0  0  0
  188.4050  177.6880  145.3060 C   0  0  0  0  0  3  0  0  0  0  0  0
  189.0520  177.3120  146.4890 C   0  0  0  0  0  0  0  0  0  0  0  0
  191.1770  177.3160  145.3130 C   0  0  0  0  0  3  0  0  0  0  0  0
  189.1400  177.8760  144.1310 C   0  0  0  0  0  3  0  0  0  0  0  0
  190.5260  177.6870  144.1310 C   0  0  0  0  0  0  0  0  0  0  0  0
  190.4440  177.1240  146.4860 C   0  0  0  0  0  3  0  0  0  0  0  0
  188.3120  177.9290  148.7500 C   0  0  0  0  0  2  0  0  0  0  0  0
  188.2490  177.1120  147.7040 C   0  0  0  0  0  3  0  0  0  0  0  0
  1  8  2  0  0  0  0
  1  9  1  0  0  0  0
  2 13  1  0  0  0  0
  3 16  1  0  0  0  0
  3 14  1  0  0  0  0
  4 12  1  0  0  0  0
  5  9  1  0  0  0  0
  6  1  1  0  0  0  0
  7  4  1  0  0  0  0
  7 11  1  0  0  0  0
  8 15  1  0  0  0  0
  9  7  2  0  0  0  0
 10  3  2  0  0  0  0
 11 10  1  0  0  0  0
 11  2  2  0  0  0  0
 12  2  1  0  0  0  0
 13 14  2  0  0  0  0
 13 35  1  0  0  0  0
 15  4  2  0  0  0  0
 16 17  1  0  0  0  0
 18 20  1  0  0  0  0
 18 16  1  0  0  0  0
 19 17  1  0  0  0  0
 19 21  1  1  0  0  0
 20 19  1  0  0  0  0
 22 21  1  1  0  0  0
 22 24  1  0  0  0  0
 23 26  1  0  0  0  0
 24 26  1  0  0  0  0
 25 28  1  6  0  0  0
 25 22  1  0  0  0  0
 25 23  1  0  0  0  0
 27 32  1  0  0  0  0
 27 28  1  0  0  0  0
 29 31  1  0  0  0  0
 29 33  1  0  0  0  0
 30 32  1  0  0  0  0
 31 30  1  0  0  0  0
 33 27  1  0  0  0  0
 34 28  2  0  0  0  0
 35 40  1  0  0  0  0
 36 37  1  0  0  0  0
 37 43  1  0  0  0  0
 38 41  1  0  0  0  0
 39 40  1  0  0  0  0
 39 36  2  0  0  0  0
 40 38  2  0  0  0  0
 41 37  2  0  0  0  0
 43 42  2  0  0  0  0
M  END
>  <MODEL>
8

>  <REMARK>
 VINA RESULT:      -8.3      3.894      9.220
  Name = 
  7 active torsions:
  status: ('A' for Active; 'I' for Inactive)
    1  A    between atoms: C_1  and  C_34
    2  A    between atoms: C_1  and  C_35
    3  A    between atoms: N_2  and  C_13
    4  A    between atoms: C_3  and  C_4
    5  A    between atoms: C_3  and  C_12
    6  A    between atoms: C_14  and  C_22
    7  A    between atoms: C_19  and  C_37
                            x       y       z     vdW  Elec       q    Type
                         _______ _______ _______ _____ _____    ______ ____

>  <TORSDO>
F 7

$$$$
=
 OpenBabel11052416063D

 43 49  0  0  1  0  0  0  0  0999 V2000
  183.3050  178.7550  144.6760 C   0  0  0  0  0  0  0  0  0  0  0  0
  182.3070  178.7580  140.2700 C   0  0  0  0  0  0  0  0  0  0  0  0
  184.6880  178.4000  138.8600 C   0  0  0  0  0  0  0  0  0  0  0  0
  181.8260  178.8790  142.3240 C   0  0  0  0  0  0  0  0  0  0  0  0
  185.4510  178.4450  143.3830 C   0  0  0  0  0  1  0  0  0  0  0  0
  184.0010  178.6950  145.8390 F   0  0  0  0  0  0  0  0  0  0  0  0
  183.1960  178.7050  142.2790 C   0  0  0  0  0  0  0  0  0  0  0  0
  181.9050  178.9340  144.7180 C   0  0  0  0  0  3  0  0  0  0  0  0
  183.9730  178.6390  143.4390 C   0  0  0  0  0  0  0  0  0  0  0  0
  184.7110  178.4500  140.2700 C   0  0  0  0  0  3  0  0  0  0  0  0
  183.5040  178.6290  140.9390 C   0  0  0  0  0  0  0  0  0  0  0  0
  181.3060  178.9090  141.1140 O   0  0  0  0  0  0  0  0  0  0  0  0
  182.2500  178.7250  138.8770 C   0  0  0  0  0  0  0  0  0  0  0  0
  183.4540  178.5370  138.1750 C   0  0  0  0  0  3  0  0  0  0  0  0
  181.1480  178.9990  143.5330 C   0  0  0  0  0  3  0  0  0  0  0  0
  185.9060  178.1980  138.1260 N   0  0  0  0  0  0  0  0  0  0  0  0
  187.1700  177.8750  138.7560 C   0  0  0  0  0  2  0  0  0  0  0  0
  185.9860  178.2470  136.6790 C   0  0  0  0  0  2  0  0  0  0  0  0
  188.1380  177.5880  137.6210 C   0  0  1  0  0  3  0  0  0  0  0  0
  187.4500  178.0360  136.3370 C   0  0  0  0  0  2  0  0  0  0  0  0
  189.4300  178.3680  137.8020 C   0  0  0  0  0  2  0  0  0  0  0  0
  190.6410  177.4770  137.5730 C   0  0  2  0  0  3  0  0  0  0  0  0
  191.4460  174.8960  137.9690 S   0  0  0  0  0  0  0  0  0  0  0  0
  190.5150  176.7530  136.2530 C   0  0  0  0  0  2  0  0  0  0  0  0
  190.7170  176.4190  138.6590 C   0  0  1  0  0  3  0  0  0  0  0  0
  191.4980  175.6070  136.2960 C   0  0  0  0  0  2  0  0  0  0  0  0
  190.9220  176.9720  141.1390 N   0  0  0  0  0  0  0  0  0  0  0  0
  191.5080  176.9240  139.8290 C   0  0  0  0  0  0  0  0  0  0  0  0
  190.8600  178.5760  142.9770 C   0  0  0  0  0  2  0  0  0  0  0  0
  188.7500  177.5630  142.0770 C   0  0  0  0  0  2  0  0  0  0  0  0
  189.4760  178.0370  143.3350 C   0  0  0  0  0  2  0  0  0  0  0  0
  189.5690  176.4790  141.3830 C   0  0  0  0  0  2  0  0  0  0  0  0
  191.6780  177.4970  142.2730 C   0  0  0  0  0  2  0  0  0  0  0  0
  192.6770  177.3650  139.6470 O   0  0  0  0  0  0  0  0  0  0  0  0
  180.9500  178.8360  138.1500 C   0  0  0  0  0  2  0  0  0  0  0  0
  180.6770  181.4170  135.3850 C   0  0  0  0  0  3  0  0  0  0  0  0
  180.7050  182.6120  136.1130 C   0  0  0  0  0  0  0  0  0  0  0  0
  180.8830  181.3370  138.1730 C   0  0  0  0  0  3  0  0  0  0  0  0
  180.7510  180.1870  136.0470 C   0  0  0  0  0  3  0  0  0  0  0  0
  180.8500  180.1450  137.4420 C   0  0  0  0  0  0  0  0  0  0  0  0
  180.8060  182.5660  137.5130 C   0  0  0  0  0  3  0  0  0  0  0  0
  180.8090  185.0640  135.9740 C   0  0  0  0  0  2  0  0  0  0  0  0
  180.6150  183.8870  135.3880 C   0  0  0  0  0  3  0  0  0  0  0  0
  1  8  1  0  0  0  0
  1  6  1  0  0  0  0
  2 11  1  0  0  0  0
  2 12  1  0  0  0  0
  3 10  1  0  0  0  0
  4 15  1  0  0  0  0
  5  9  1  0  0  0  0
  7  4  2  0  0  0  0
  7  9  1  0  0  0  0
  9  1  2  0  0  0  0
 10 11  2  0  0  0  0
 11  7  1  0  0  0  0
 12  4  1  0  0  0  0
 13  2  2  0  0  0  0
 14  3  2  0  0  0  0
 14 13  1  0  0  0  0
 15  8  2  0  0  0  0
 16 17  1  0  0  0  0
 16  3  1  0  0  0  0
 18 16  1  0  0  0  0
 19 21  1  1  0  0  0
 19 17  1  0  0  0  0
 20 18  1  0  0  0  0
 20 19  1  0  0  0  0
 22 21  1  1  0  0  0
 22 25  1  0  0  0  0
 23 25  1  0  0  0  0
 24 26  1  0  0  0  0
 24 22  1  0  0  0  0
 25 28  1  1  0  0  0
 26 23  1  0  0  0  0
 27 32  1  0  0  0  0
 27 33  1  0  0  0  0
 28 27  1  0  0  0  0
 29 31  1  0  0  0  0
 30 31  1  0  0  0  0
 32 30  1  0  0  0  0
 33 29  1  0  0  0  0
 34 28  2  0  0  0  0
 35 13  1  0  0  0  0
 36 39  2  0  0  0  0
 36 37  1  0  0  0  0
 37 41  2  0  0  0  0
 39 40  1  0  0  0  0
 40 35  1  0  0  0  0
 40 38  2  0  0  0  0
 41 38  1  0  0  0  0
 43 42  2  0  0  0  0
 43 37  1  0  0  0  0
M  END
>  <MODEL>
9

>  <REMARK>
 VINA RESULT:      -8.2      3.100      5.181
  Name = 
  7 active torsions:
  status: ('A' for Active; 'I' for Inactive)
    1  A    between atoms: C_1  and  C_34
    2  A    between atoms: C_1  and  C_35
    3  A    between atoms: N_2  and  C_13
    4  A    between atoms: C_3  and  C_4
    5  A    between atoms: C_3  and  C_12
    6  A    between atoms: C_14  and  C_22
    7  A    between atoms: C_19  and  C_37
                            x       y       z     vdW  Elec       q    Type
                         _______ _______ _______ _____ _____    ______ ____

>  <TORSDO>
F 7

$$$$
