=
 OpenBabel11052416413D

 43 46  0  0  1  0  0  0  0  0999 V2000
  189.6460  176.1120  136.4170 N   0  0  0  0  0  0  0  0  0  0  0  0
  190.7450  175.5950  138.5490 C   0  0  0  0  0  3  0  0  0  0  0  0
  190.1140  176.6430  139.0980 C   0  0  0  0  0  0  0  0  0  0  0  0
  190.7500  175.3900  137.0580 C   0  0  2  0  0  3  0  0  0  0  0  0
  189.1440  177.3190  137.0190 C   0  0  0  0  0  0  0  0  0  0  0  0
  189.3700  177.5540  138.2760 N   0  0  0  0  0  0  0  0  0  0  0  0
  194.5380  176.5920  135.4790 C   0  0  0  0  0  0  0  0  0  0  0  0
  192.3050  175.7780  135.0990 C   0  0  0  0  0  3  0  0  0  0  0  0
  194.2870  176.6340  136.8160 N   0  0  0  0  0  0  0  0  0  0  0  0
  195.7490  176.9690  135.0050 F   0  0  0  0  0  0  0  0  0  0  0  0
  192.0640  175.8210  136.4780 C   0  0  0  0  0  0  0  0  0  0  0  0
  193.5460  176.1650  134.5940 C   0  0  0  0  0  3  0  0  0  0  0  0
  193.0830  176.2590  137.3290 C   0  0  0  0  0  3  0  0  0  0  0  0
  190.2570  176.9430  140.5590 C   0  0  1  0  0  3  0  0  0  0  0  0
  191.6870  177.3250  140.9010 C   0  0  0  0  0  1  0  0  0  0  0  0
  189.3500  178.0160  140.9460 N   0  0  0  0  0  2  0  0  0  0  0  0
  188.2150  177.7980  141.7870 C   0  0  0  0  0  0  0  0  0  0  0  0
  188.0440  176.6890  142.3600 O   0  0  0  0  0  0  0  0  0  0  0  0
  187.1890  178.8660  141.9390 C   0  0  0  0  0  2  0  0  0  0  0  0
  185.9730  178.3210  142.6830 C   0  0  2  0  0  3  0  0  0  0  0  0
  184.9770  179.3670  140.6020 C   0  0  0  0  0  1  0  0  0  0  0  0
  184.6960  178.8320  141.9930 C   0  0  0  0  0  3  0  0  0  0  0  0
  183.5730  177.8060  141.9640 C   0  0  0  0  0  1  0  0  0  0  0  0
  186.0750  178.6320  144.1880 C   0  0  1  0  0  3  0  0  0  0  0  0
  184.8050  179.2850  144.7170 C   0  0  0  0  0  1  0  0  0  0  0  0
  186.3320  177.3450  144.9710 C   0  0  0  0  0  2  0  0  0  0  0  0
  187.3450  177.5530  146.0450 C   0  0  0  0  0  0  0  0  0  0  0  0
  189.6300  177.3750  146.8330 C   0  0  0  0  0  3  0  0  0  0  0  0
  187.9160  178.2750  148.2880 C   0  0  0  0  0  3  0  0  0  0  0  0
  189.2490  177.9160  148.0640 C   0  0  0  0  0  3  0  0  0  0  0  0
  186.9640  178.0930  147.2790 C   0  0  0  0  0  3  0  0  0  0  0  0
  188.6790  177.1920  145.8240 C   0  0  0  0  0  3  0  0  0  0  0  0
  189.2150  175.6880  135.0910 C   0  0  0  0  0  2  0  0  0  0  0  0
  188.7650  174.2390  135.1270 C   0  0  0  0  0  1  0  0  0  0  0  0
  188.2690  178.5500  136.0500 S   0  0  0  0  0  0  0  0  0  0  0  0
  184.7590  177.3250  137.7090 C   0  0  0  0  0  3  0  0  0  0  0  0
  184.1950  176.5320  136.7050 C   0  0  0  0  0  0  0  0  0  0  0  0
  186.1450  176.9360  135.3120 C   0  0  0  0  0  3  0  0  0  0  0  0
  186.0060  177.9260  137.5170 C   0  0  0  0  0  3  0  0  0  0  0  0
  186.6970  177.7370  136.3160 C   0  0  0  0  0  0  0  0  0  0  0  0
  184.8990  176.3340  135.5040 C   0  0  0  0  0  3  0  0  0  0  0  0
  182.6640  175.1060  138.0250 C   0  0  0  0  0  1  0  0  0  0  0  0
  182.9400  175.9570  136.9200 O   0  0  0  0  0  0  0  0  0  0  0  0
  1  5  1  0  0  0  0
  1  4  1  0  0  0  0
  2  3  2  0  0  0  0
  3 14  1  0  0  0  0
  4 11  1  6  0  0  0
  4  2  1  0  0  0  0
  5  6  2  0  0  0  0
  6  3  1  0  0  0  0
  7  9  1  0  0  0  0
  8 11  2  0  0  0  0
  9 13  2  0  0  0  0
 10  7  1  0  0  0  0
 11 13  1  0  0  0  0
 12  8  1  0  0  0  0
 12  7  2  0  0  0  0
 14 15  1  6  0  0  0
 14 16  1  0  0  0  0
 16 17  1  0  0  0  0
 17 19  1  0  0  0  0
 17 18  2  0  0  0  0
 20 19  1  6  0  0  0
 20 24  1  0  0  0  0
 21 22  1  0  0  0  0
 22 20  1  0  0  0  0
 23 22  1  0  0  0  0
 24 25  1  1  0  0  0
 24 26  1  0  0  0  0
 26 27  1  0  0  0  0
 27 31  1  0  0  0  0
 28 30  2  0  0  0  0
 30 29  1  0  0  0  0
 31 29  2  0  0  0  0
 32 27  2  0  0  0  0
 32 28  1  0  0  0  0
 33 34  1  0  0  0  0
 33  1  1  0  0  0  0
 35 40  1  0  0  0  0
 35  5  1  0  0  0  0
 37 43  1  0  0  0  0
 37 36  2  0  0  0  0
 38 41  2  0  0  0  0
 38 40  1  0  0  0  0
 39 36  1  0  0  0  0
 40 39  2  0  0  0  0
 41 37  1  0  0  0  0
 43 42  1  0  0  0  0
M  END
>  <MODEL>
1

>  <REMARK>
 VINA RESULT:      -7.8      0.000      0.000
  Name = 
  13 active torsions:
  status: ('A' for Active; 'I' for Inactive)
    1  A    between atoms: S_1  and  C_34
    2  A    between atoms: S_1  and  C_35
    3  A    between atoms: C_2  and  N_6
    4  A    between atoms: C_2  and  C_27
    5  A    between atoms: C_3  and  C_4
    6  A    between atoms: C_3  and  C_12
    7  A    between atoms: C_4  and  C_15
    8  A    between atoms: C_4  and  C_22
    9  A    between atoms: N_8  and  C_33
   10  A    between atoms: C_11  and  C_14
   11  A    between atoms: C_14  and  C_22
   12  A    between atoms: C_19  and  O_37
   13  A    between atoms: C_21  and  C_30
                            x       y       z     vdW  Elec       q    Type
                         _______ _______ _______ _____ _____    ______ ____

>  <TORSDO>
F 13

$$$$
=
 OpenBabel11052416413D

 43 46  0  0  1  0  0  0  0  0999 V2000
  186.7550  177.7030  135.8670 N   0  0  0  0  0  0  0  0  0  0  0  0
  184.7470  177.1130  137.1480 C   0  0  0  0  0  3  0  0  0  0  0  0
  185.1470  177.9520  138.1130 C   0  0  0  0  0  0  0  0  0  0  0  0
  185.6720  176.7270  136.0250 C   0  0  2  0  0  3  0  0  0  0  0  0
  187.2130  178.4460  137.0130 C   0  0  0  0  0  0  0  0  0  0  0  0
  186.4490  178.5540  138.0570 N   0  0  0  0  0  0  0  0  0  0  0  0
  187.2390  172.7930  136.6240 C   0  0  0  0  0  0  0  0  0  0  0  0
  187.4180  175.1670  136.9850 C   0  0  0  0  0  3  0  0  0  0  0  0
  186.0860  172.9940  135.9300 N   0  0  0  0  0  0  0  0  0  0  0  0
  187.7190  171.5390  136.7910 F   0  0  0  0  0  0  0  0  0  0  0  0
  186.2330  175.3560  136.2630 C   0  0  0  0  0  0  0  0  0  0  0  0
  187.9250  173.8800  137.1690 C   0  0  0  0  0  3  0  0  0  0  0  0
  185.5750  174.2410  135.7380 C   0  0  0  0  0  3  0  0  0  0  0  0
  184.2920  178.1970  139.3190 C   0  0  1  0  0  3  0  0  0  0  0  0
  183.2240  177.1260  139.4580 C   0  0  0  0  0  1  0  0  0  0  0  0
  185.1130  178.2380  140.5220 N   0  0  0  0  0  2  0  0  0  0  0  0
  184.6560  178.8180  141.7460 C   0  0  0  0  0  0  0  0  0  0  0  0
  183.4550  179.1770  141.8780 O   0  0  0  0  0  0  0  0  0  0  0  0
  185.6180  179.0610  142.8550 C   0  0  0  0  0  2  0  0  0  0  0  0
  185.3180  178.1250  144.0220 C   0  0  2  0  0  3  0  0  0  0  0  0
  183.0980  178.9310  144.9370 C   0  0  0  0  0  1  0  0  0  0  0  0
  184.6020  178.9200  145.1290 C   0  0  0  0  0  3  0  0  0  0  0  0
  184.9680  178.4640  146.5340 C   0  0  0  0  0  1  0  0  0  0  0  0
  186.5950  177.3860  144.4660 C   0  0  1  0  0  3  0  0  0  0  0  0
  187.0450  176.3650  143.4310 C   0  0  0  0  0  1  0  0  0  0  0  0
  187.7260  178.3890  144.6950 C   0  0  0  0  0  2  0  0  0  0  0  0
  188.7830  177.8260  145.5840 C   0  0  0  0  0  0  0  0  0  0  0  0
  189.4330  176.8200  147.6900 C   0  0  0  0  0  3  0  0  0  0  0  0
  191.1070  177.2800  146.0020 C   0  0  0  0  0  3  0  0  0  0  0  0
  190.7650  176.7900  147.2670 C   0  0  0  0  0  3  0  0  0  0  0  0
  190.1170  177.7970  145.1600 C   0  0  0  0  0  3  0  0  0  0  0  0
  188.4420  177.3390  146.8500 C   0  0  0  0  0  3  0  0  0  0  0  0
  187.4620  177.7580  134.5950 C   0  0  0  0  0  2  0  0  0  0  0  0
  188.8980  177.3030  134.7750 C   0  0  0  0  0  1  0  0  0  0  0  0
  188.8550  179.1670  137.0610 S   0  0  0  0  0  0  0  0  0  0  0  0
  190.6220  176.5250  139.6060 C   0  0  0  0  0  3  0  0  0  0  0  0
  190.0370  176.8350  140.8380 C   0  0  0  0  0  0  0  0  0  0  0  0
  188.6930  178.5440  139.7530 C   0  0  0  0  0  3  0  0  0  0  0  0
  190.2510  177.2240  138.4530 C   0  0  0  0  0  3  0  0  0  0  0  0
  189.2900  178.2380  138.5270 C   0  0  0  0  0  0  0  0  0  0  0  0
  189.0620  177.8450  140.9050 C   0  0  0  0  0  3  0  0  0  0  0  0
  191.7110  176.3150  142.5830 C   0  0  0  0  0  1  0  0  0  0  0  0
  190.4400  176.1300  141.9750 O   0  0  0  0  0  0  0  0  0  0  0  0
  1  4  1  0  0  0  0
  1  5  1  0  0  0  0
  2  3  2  0  0  0  0
  3 14  1  0  0  0  0
  4 11  1  1  0  0  0
  4  2  1  0  0  0  0
  5 35  1  0  0  0  0
  5  6  2  0  0  0  0
  6  3  1  0  0  0  0
  7 10  1  0  0  0  0
  7 12  1  0  0  0  0
  8 12  2  0  0  0  0
  9  7  2  0  0  0  0
 11  8  1  0  0  0  0
 13  9  1  0  0  0  0
 13 11  2  0  0  0  0
 14 15  1  1  0  0  0
 14 16  1  0  0  0  0
 16 17  1  0  0  0  0
 17 18  2  0  0  0  0
 17 19  1  0  0  0  0
 20 19  1  6  0  0  0
 20 24  1  0  0  0  0
 20 22  1  0  0  0  0
 21 22  1  0  0  0  0
 22 23  1  0  0  0  0
 24 25  1  6  0  0  0
 24 26  1  0  0  0  0
 26 27  1  0  0  0  0
 27 32  1  0  0  0  0
 29 30  2  0  0  0  0
 30 28  1  0  0  0  0
 31 27  2  0  0  0  0
 31 29  1  0  0  0  0
 32 28  2  0  0  0  0
 33 34  1  0  0  0  0
 33  1  1  0  0  0  0
 35 40  1  0  0  0  0
 36 37  1  0  0  0  0
 37 41  2  0  0  0  0
 37 43  1  0  0  0  0
 38 41  1  0  0  0  0
 39 40  1  0  0  0  0
 39 36  2  0  0  0  0
 40 38  2  0  0  0  0
 43 42  1  0  0  0  0
M  END
>  <MODEL>
2

>  <REMARK>
 VINA RESULT:      -7.7      2.961      5.358
  Name = 
  13 active torsions:
  status: ('A' for Active; 'I' for Inactive)
    1  A    between atoms: S_1  and  C_34
    2  A    between atoms: S_1  and  C_35
    3  A    between atoms: C_2  and  N_6
    4  A    between atoms: C_2  and  C_27
    5  A    between atoms: C_3  and  C_4
    6  A    between atoms: C_3  and  C_12
    7  A    between atoms: C_4  and  C_15
    8  A    between atoms: C_4  and  C_22
    9  A    between atoms: N_8  and  C_33
   10  A    between atoms: C_11  and  C_14
   11  A    between atoms: C_14  and  C_22
   12  A    between atoms: C_19  and  O_37
   13  A    between atoms: C_21  and  C_30
                            x       y       z     vdW  Elec       q    Type
                         _______ _______ _______ _____ _____    ______ ____

>  <TORSDO>
F 13

$$$$
=
 OpenBabel11052416413D

 43 46  0  0  1  0  0  0  0  0999 V2000
  189.3260  176.8930  136.4680 N   0  0  0  0  0  0  0  0  0  0  0  0
  189.1670  177.7050  138.7780 C   0  0  0  0  0  3  0  0  0  0  0  0
  190.0130  176.7340  139.1500 C   0  0  0  0  0  0  0  0  0  0  0  0
  188.5470  177.7070  137.4070 C   0  0  2  0  0  3  0  0  0  0  0  0
  190.0840  175.7730  136.9620 C   0  0  0  0  0  0  0  0  0  0  0  0
  190.3990  175.7130  138.2200 N   0  0  0  0  0  0  0  0  0  0  0  0
  184.5410  176.2260  137.6280 C   0  0  0  0  0  0  0  0  0  0  0  0
  186.0780  178.0680  137.8320 C   0  0  0  0  0  3  0  0  0  0  0  0
  185.5740  175.4130  137.2790 N   0  0  0  0  0  0  0  0  0  0  0  0
  183.2840  175.7300  137.7000 F   0  0  0  0  0  0  0  0  0  0  0  0
  187.1310  177.2160  137.4760 C   0  0  0  0  0  0  0  0  0  0  0  0
  184.7750  177.5730  137.9080 C   0  0  0  0  0  3  0  0  0  0  0  0
  186.8530  175.8750  137.1990 C   0  0  0  0  0  3  0  0  0  0  0  0
  190.4900  176.6360  140.5670 C   0  0  1  0  0  3  0  0  0  0  0  0
  191.5940  177.6410  140.8440 C   0  0  0  0  0  1  0  0  0  0  0  0
  189.3820  176.8490  141.4890 N   0  0  0  0  0  2  0  0  0  0  0  0
  189.2790  176.1650  142.7410 C   0  0  0  0  0  0  0  0  0  0  0  0
  190.2350  175.4630  143.1690 O   0  0  0  0  0  0  0  0  0  0  0  0
  188.0120  176.2270  143.5180 C   0  0  0  0  0  2  0  0  0  0  0  0
  187.7470  177.6600  143.9720 C   0  0  2  0  0  3  0  0  0  0  0  0
  188.9620  176.8300  146.0330 C   0  0  0  0  0  1  0  0  0  0  0  0
  188.7190  178.0100  145.1130 C   0  0  0  0  0  3  0  0  0  0  0  0
  190.0330  178.6010  144.6280 C   0  0  0  0  0  1  0  0  0  0  0  0
  186.2540  177.8580  144.2980 C   0  0  1  0  0  3  0  0  0  0  0  0
  186.0130  177.9650  145.7970 C   0  0  0  0  0  1  0  0  0  0  0  0
  185.7360  179.1270  143.6230 C   0  0  0  0  0  2  0  0  0  0  0  0
  184.4050  178.9030  142.9880 C   0  0  0  0  0  0  0  0  0  0  0  0
  183.0830  178.2730  141.0570 C   0  0  0  0  0  3  0  0  0  0  0  0
  181.9840  178.9370  143.1120 C   0  0  0  0  0  3  0  0  0  0  0  0
  181.9100  178.5050  141.7830 C   0  0  0  0  0  3  0  0  0  0  0  0
  183.2300  179.1360  143.7140 C   0  0  0  0  0  3  0  0  0  0  0  0
  184.3290  178.4740  141.6590 C   0  0  0  0  0  3  0  0  0  0  0  0
  189.1610  177.1290  135.0400 C   0  0  0  0  0  2  0  0  0  0  0  0
  188.0770  178.1650  134.8040 C   0  0  0  0  0  1  0  0  0  0  0  0
  190.5440  174.4120  135.8860 S   0  0  0  0  0  0  0  0  0  0  0  0
  194.4430  174.0360  136.9970 C   0  0  0  0  0  3  0  0  0  0  0  0
  195.0410  175.1710  136.4390 C   0  0  0  0  0  0  0  0  0  0  0  0
  192.8780  175.8680  135.5790 C   0  0  0  0  0  3  0  0  0  0  0  0
  193.0720  173.8120  136.8420 C   0  0  0  0  0  3  0  0  0  0  0  0
  192.2890  174.7260  136.1280 C   0  0  0  0  0  0  0  0  0  0  0  0
  194.2480  176.0930  135.7340 C   0  0  0  0  0  3  0  0  0  0  0  0
  197.2730  175.7080  135.5170 C   0  0  0  0  0  1  0  0  0  0  0  0
  196.4170  175.3580  136.5970 O   0  0  0  0  0  0  0  0  0  0  0  0
  1  5  1  0  0  0  0
  1  4  1  0  0  0  0
  2  3  2  0  0  0  0
  3 14  1  0  0  0  0
  4 11  1  1  0  0  0
  4  2  1  0  0  0  0
  5  6  2  0  0  0  0
  6  3  1  0  0  0  0
  7 10  1  0  0  0  0
  7 12  1  0  0  0  0
  8 12  2  0  0  0  0
  9  7  2  0  0  0  0
 11  8  1  0  0  0  0
 13  9  1  0  0  0  0
 13 11  2  0  0  0  0
 14 15  1  1  0  0  0
 14 16  1  0  0  0  0
 16 17  1  0  0  0  0
 17 18  2  0  0  0  0
 17 19  1  0  0  0  0
 20 19  1  1  0  0  0
 20 24  1  0  0  0  0
 20 22  1  0  0  0  0
 22 21  1  0  0  0  0
 23 22  1  0  0  0  0
 24 25  1  1  0  0  0
 26 24  1  0  0  0  0
 27 26  1  0  0  0  0
 27 31  1  0  0  0  0
 28 32  1  0  0  0  0
 28 30  2  0  0  0  0
 29 31  2  0  0  0  0
 30 29  1  0  0  0  0
 32 27  2  0  0  0  0
 33  1  1  0  0  0  0
 34 33  1  0  0  0  0
 35 40  1  0  0  0  0
 35  5  1  0  0  0  0
 37 43  1  0  0  0  0
 37 36  2  0  0  0  0
 38 41  2  0  0  0  0
 38 40  1  0  0  0  0
 39 36  1  0  0  0  0
 40 39  2  0  0  0  0
 41 37  1  0  0  0  0
 42 43  1  0  0  0  0
M  END
>  <MODEL>
3

>  <REMARK>
 VINA RESULT:      -7.5      3.062      6.777
  Name = 
  13 active torsions:
  status: ('A' for Active; 'I' for Inactive)
    1  A    between atoms: S_1  and  C_34
    2  A    between atoms: S_1  and  C_35
    3  A    between atoms: C_2  and  N_6
    4  A    between atoms: C_2  and  C_27
    5  A    between atoms: C_3  and  C_4
    6  A    between atoms: C_3  and  C_12
    7  A    between atoms: C_4  and  C_15
    8  A    between atoms: C_4  and  C_22
    9  A    between atoms: N_8  and  C_33
   10  A    between atoms: C_11  and  C_14
   11  A    between atoms: C_14  and  C_22
   12  A    between atoms: C_19  and  O_37
   13  A    between atoms: C_21  and  C_30
                            x       y       z     vdW  Elec       q    Type
                         _______ _______ _______ _____ _____    ______ ____

>  <TORSDO>
F 13

$$$$
=
 OpenBabel11052416413D

 43 46  0  0  1  0  0  0  0  0999 V2000
  190.6430  177.3750  141.3770 N   0  0  0  0  0  0  0  0  0  0  0  0
  189.5770  178.4150  139.4260 C   0  0  0  0  0  3  0  0  0  0  0  0
  188.3840  178.0460  139.9140 C   0  0  0  0  0  0  0  0  0  0  0  0
  190.8530  177.8770  140.0150 C   0  0  2  0  0  3  0  0  0  0  0  0
  189.3520  176.8580  141.7500 C   0  0  0  0  0  0  0  0  0  0  0  0
  188.3040  177.1810  141.0550 N   0  0  0  0  0  0  0  0  0  0  0  0
  192.3740  174.7880  137.4780 C   0  0  0  0  0  0  0  0  0  0  0  0
  192.7760  176.7500  138.8130 C   0  0  0  0  0  3  0  0  0  0  0  0
  191.0550  174.8420  137.8090 N   0  0  0  0  0  0  0  0  0  0  0  0
  192.8280  173.8060  136.6640 F   0  0  0  0  0  0  0  0  0  0  0  0
  191.4140  176.7950  139.1400 C   0  0  0  0  0  0  0  0  0  0  0  0
  193.2610  175.7430  137.9790 C   0  0  0  0  0  3  0  0  0  0  0  0
  190.5610  175.8170  138.6210 C   0  0  0  0  0  3  0  0  0  0  0  0
  187.1170  178.4410  139.2180 C   0  0  1  0  0  3  0  0  0  0  0  0
  187.0180  177.7880  137.8500 C   0  0  0  0  0  1  0  0  0  0  0  0
  185.9610  178.0780  140.0270 N   0  0  0  0  0  2  0  0  0  0  0  0
  184.7900  178.8940  140.1050 C   0  0  0  0  0  0  0  0  0  0  0  0
  184.6490  179.8890  139.3440 O   0  0  0  0  0  0  0  0  0  0  0  0
  183.7550  178.6080  141.1350 C   0  0  0  0  0  2  0  0  0  0  0  0
  182.3760  178.5380  140.4860 C   0  0  2  0  0  3  0  0  0  0  0  0
  181.9120  178.9980  142.9330 C   0  0  0  0  0  1  0  0  0  0  0  0
  181.3010  178.7190  141.5730 C   0  0  0  0  0  3  0  0  0  0  0  0
  180.2560  179.7660  141.2220 C   0  0  0  0  0  1  0  0  0  0  0  0
  182.2410  177.2590  139.6370 C   0  0  1  0  0  3  0  0  0  0  0  0
  180.9960  176.4650  140.0070 C   0  0  0  0  0  1  0  0  0  0  0  0
  182.1740  177.6210  138.1540 C   0  0  0  0  0  2  0  0  0  0  0  0
  183.1500  176.8270  137.3530 C   0  0  0  0  0  0  0  0  0  0  0  0
  184.6370  174.9240  137.1500 C   0  0  0  0  0  3  0  0  0  0  0  0
  184.4410  176.5070  135.3270 C   0  0  0  0  0  3  0  0  0  0  0  0
  185.0010  175.3450  135.8670 C   0  0  0  0  0  3  0  0  0  0  0  0
  183.5160  177.2480  136.0690 C   0  0  0  0  0  3  0  0  0  0  0  0
  183.7130  175.6650  137.8940 C   0  0  0  0  0  3  0  0  0  0  0  0
  191.7970  177.2440  142.2560 C   0  0  0  0  0  2  0  0  0  0  0  0
  191.6890  178.2260  143.4090 C   0  0  0  0  0  1  0  0  0  0  0  0
  189.1670  175.7090  143.1160 S   0  0  0  0  0  0  0  0  0  0  0  0
  185.8950  177.9490  144.0400 C   0  0  0  0  0  3  0  0  0  0  0  0
  186.1960  178.4360  145.3160 C   0  0  0  0  0  0  0  0  0  0  0  0
  188.3380  177.2910  145.2310 C   0  0  0  0  0  3  0  0  0  0  0  0
  186.8050  177.1320  143.3640 C   0  0  0  0  0  3  0  0  0  0  0  0
  188.0250  176.7980  143.9610 C   0  0  0  0  0  0  0  0  0  0  0  0
  187.4290  178.1090  145.9070 C   0  0  0  0  0  3  0  0  0  0  0  0
  183.8570  179.0570  145.8280 C   0  0  0  0  0  1  0  0  0  0  0  0
  185.2590  179.2380  145.9740 O   0  0  0  0  0  0  0  0  0  0  0  0
  1  5  1  0  0  0  0
  1 33  1  0  0  0  0
  2  3  2  0  0  0  0
  2  4  1  0  0  0  0
  3  6  1  0  0  0  0
  4 11  1  6  0  0  0
  4  1  1  0  0  0  0
  5 35  1  0  0  0  0
  6  5  2  0  0  0  0
  7  9  2  0  0  0  0
  7 12  1  0  0  0  0
  8 11  1  0  0  0  0
  9 13  1  0  0  0  0
 10  7  1  0  0  0  0
 12  8  2  0  0  0  0
 13 11  2  0  0  0  0
 14 15  1  6  0  0  0
 14  3  1  0  0  0  0
 14 16  1  0  0  0  0
 16 17  1  0  0  0  0
 17 19  1  0  0  0  0
 18 17  2  0  0  0  0
 20 19  1  1  0  0  0
 20 22  1  0  0  0  0
 22 21  1  0  0  0  0
 23 22  1  0  0  0  0
 24 25  1  1  0  0  0
 24 20  1  0  0  0  0
 26 24  1  0  0  0  0
 27 32  1  0  0  0  0
 27 26  1  0  0  0  0
 28 32  2  0  0  0  0
 29 30  2  0  0  0  0
 29 31  1  0  0  0  0
 30 28  1  0  0  0  0
 31 27  2  0  0  0  0
 33 34  1  0  0  0  0
 35 40  1  0  0  0  0
 36 37  1  0  0  0  0
 37 41  2  0  0  0  0
 37 43  1  0  0  0  0
 38 41  1  0  0  0  0
 39 40  1  0  0  0  0
 39 36  2  0  0  0  0
 40 38  2  0  0  0  0
 42 43  1  0  0  0  0
M  END
>  <MODEL>
4

>  <REMARK>
 VINA RESULT:      -7.5      2.579      7.047
  Name = 
  13 active torsions:
  status: ('A' for Active; 'I' for Inactive)
    1  A    between atoms: S_1  and  C_34
    2  A    between atoms: S_1  and  C_35
    3  A    between atoms: C_2  and  N_6
    4  A    between atoms: C_2  and  C_27
    5  A    between atoms: C_3  and  C_4
    6  A    between atoms: C_3  and  C_12
    7  A    between atoms: C_4  and  C_15
    8  A    between atoms: C_4  and  C_22
    9  A    between atoms: N_8  and  C_33
   10  A    between atoms: C_11  and  C_14
   11  A    between atoms: C_14  and  C_22
   12  A    between atoms: C_19  and  O_37
   13  A    between atoms: C_21  and  C_30
                            x       y       z     vdW  Elec       q    Type
                         _______ _______ _______ _____ _____    ______ ____

>  <TORSDO>
F 13

$$$$
=
 OpenBabel11052416413D

 43 46  0  0  1  0  0  0  0  0999 V2000
  189.7760  177.5210  140.5330 N   0  0  0  0  0  0  0  0  0  0  0  0
  187.6780  178.5740  139.8180 C   0  0  0  0  0  3  0  0  0  0  0  0
  187.1420  178.2510  141.0040 C   0  0  0  0  0  0  0  0  0  0  0  0
  189.0000  178.0000  139.3840 C   0  0  2  0  0  3  0  0  0  0  0  0
  189.0880  177.0520  141.7070 C   0  0  0  0  0  0  0  0  0  0  0  0
  187.8550  177.4020  141.9140 N   0  0  0  0  0  0  0  0  0  0  0  0
  188.3360  174.8880  136.5270 C   0  0  0  0  0  0  0  0  0  0  0  0
  189.7890  175.9510  138.1250 C   0  0  0  0  0  3  0  0  0  0  0  0
  187.3700  175.8030  136.8080 N   0  0  0  0  0  0  0  0  0  0  0  0
  188.1040  173.9180  135.6110 F   0  0  0  0  0  0  0  0  0  0  0  0
  188.7860  176.8890  138.3980 C   0  0  0  0  0  0  0  0  0  0  0  0
  189.5650  174.9430  137.1860 C   0  0  0  0  0  3  0  0  0  0  0  0
  187.5680  176.7950  137.7200 C   0  0  0  0  0  3  0  0  0  0  0  0
  185.7510  178.6820  141.3580 C   0  0  1  0  0  3  0  0  0  0  0  0
  185.7460  179.5370  142.6120 C   0  0  0  0  0  1  0  0  0  0  0  0
  185.1530  179.4180  140.2520 N   0  0  0  0  0  2  0  0  0  0  0  0
  183.7660  179.3120  139.9180 C   0  0  0  0  0  0  0  0  0  0  0  0
  182.9690  178.6950  140.6740 O   0  0  0  0  0  0  0  0  0  0  0  0
  183.2680  179.8800  138.6360 C   0  0  0  0  0  2  0  0  0  0  0  0
  181.8220  179.4530  138.4020 C   0  0  2  0  0  3  0  0  0  0  0  0
  182.2920  177.2420  137.2590 C   0  0  0  0  0  1  0  0  0  0  0  0
  181.7440  178.6460  137.0930 C   0  0  0  0  0  3  0  0  0  0  0  0
  180.3510  178.6170  136.4820 C   0  0  0  0  0  1  0  0  0  0  0  0
  180.8780  180.6680  138.4800 C   0  0  1  0  0  3  0  0  0  0  0  0
  180.0740  180.6760  139.7730 C   0  0  0  0  0  1  0  0  0  0  0  0
  181.6860  181.9630  138.3940 C   0  0  0  0  0  2  0  0  0  0  0  0
  181.2410  182.8090  137.2500 C   0  0  0  0  0  0  0  0  0  0  0  0
  181.0110  184.9920  136.2230 C   0  0  0  0  0  3  0  0  0  0  0  0
  180.1860  183.0230  135.0780 C   0  0  0  0  0  3  0  0  0  0  0  0
  180.3850  184.4070  135.1170 C   0  0  0  0  0  3  0  0  0  0  0  0
  180.6130  182.2240  136.1430 C   0  0  0  0  0  3  0  0  0  0  0  0
  181.4370  184.1940  137.2890 C   0  0  0  0  0  3  0  0  0  0  0  0
  191.2160  177.3610  140.3810 C   0  0  0  0  0  2  0  0  0  0  0  0
  191.9250  177.7800  141.6550 C   0  0  0  0  0  1  0  0  0  0  0  0
  189.8750  175.9260  142.8610 S   0  0  0  0  0  0  0  0  0  0  0  0
  187.0300  177.2750  145.4420 C   0  0  0  0  0  3  0  0  0  0  0  0
  187.7830  177.8110  146.4910 C   0  0  0  0  0  0  0  0  0  0  0  0
  189.8220  177.2340  145.3000 C   0  0  0  0  0  3  0  0  0  0  0  0
  187.6650  176.7160  144.3300 C   0  0  0  0  0  3  0  0  0  0  0  0
  189.0620  176.6900  144.2610 C   0  0  0  0  0  0  0  0  0  0  0  0
  189.1870  177.7940  146.4120 C   0  0  0  0  0  3  0  0  0  0  0  0
  185.9010  179.0720  147.4830 C   0  0  0  0  0  1  0  0  0  0  0  0
  187.1190  178.3490  147.5970 O   0  0  0  0  0  0  0  0  0  0  0  0
  1  5  1  0  0  0  0
  2  3  2  0  0  0  0
  3 14  1  0  0  0  0
  3  6  1  0  0  0  0
  4 11  1  6  0  0  0
  4  2  1  0  0  0  0
  4  1  1  0  0  0  0
  5  6  2  0  0  0  0
  5 35  1  0  0  0  0
  7  9  2  0  0  0  0
  7 12  1  0  0  0  0
  8 11  1  0  0  0  0
  9 13  1  0  0  0  0
 10  7  1  0  0  0  0
 12  8  2  0  0  0  0
 13 11  2  0  0  0  0
 14 15  1  1  0  0  0
 16 14  1  0  0  0  0
 17 16  1  0  0  0  0
 17 18  2  0  0  0  0
 19 17  1  0  0  0  0
 20 24  1  0  0  0  0
 20 19  1  6  0  0  0
 22 21  1  0  0  0  0
 22 20  1  0  0  0  0
 23 22  1  0  0  0  0
 24 25  1  1  0  0  0
 26 24  1  0  0  0  0
 27 32  1  0  0  0  0
 27 26  1  0  0  0  0
 28 32  2  0  0  0  0
 29 30  2  0  0  0  0
 29 31  1  0  0  0  0
 30 28  1  0  0  0  0
 31 27  2  0  0  0  0
 33  1  1  0  0  0  0
 33 34  1  0  0  0  0
 35 40  1  0  0  0  0
 36 37  1  0  0  0  0
 37 43  1  0  0  0  0
 38 41  1  0  0  0  0
 39 36  2  0  0  0  0
 40 39  1  0  0  0  0
 40 38  2  0  0  0  0
 41 37  2  0  0  0  0
 42 43  1  0  0  0  0
M  END
>  <MODEL>
5

>  <REMARK>
 VINA RESULT:      -7.3      4.037      8.493
  Name = 
  13 active torsions:
  status: ('A' for Active; 'I' for Inactive)
    1  A    between atoms: S_1  and  C_34
    2  A    between atoms: S_1  and  C_35
    3  A    between atoms: C_2  and  N_6
    4  A    between atoms: C_2  and  C_27
    5  A    between atoms: C_3  and  C_4
    6  A    between atoms: C_3  and  C_12
    7  A    between atoms: C_4  and  C_15
    8  A    between atoms: C_4  and  C_22
    9  A    between atoms: N_8  and  C_33
   10  A    between atoms: C_11  and  C_14
   11  A    between atoms: C_14  and  C_22
   12  A    between atoms: C_19  and  O_37
   13  A    between atoms: C_21  and  C_30
                            x       y       z     vdW  Elec       q    Type
                         _______ _______ _______ _____ _____    ______ ____

>  <TORSDO>
F 13

$$$$
=
 OpenBabel11052416413D

 43 46  0  0  1  0  0  0  0  0999 V2000
  190.8900  174.7130  136.2690 N   0  0  0  0  0  0  0  0  0  0  0  0
  191.6050  175.7380  138.3810 C   0  0  0  0  0  3  0  0  0  0  0  0
  190.6130  176.6310  138.2530 C   0  0  0  0  0  0  0  0  0  0  0  0
  191.9830  174.8340  137.2390 C   0  0  2  0  0  3  0  0  0  0  0  0
  189.9640  175.8040  136.1050 C   0  0  0  0  0  0  0  0  0  0  0  0
  189.8450  176.6940  137.0430 N   0  0  0  0  0  0  0  0  0  0  0  0
  195.5690  176.2030  135.3540 C   0  0  0  0  0  0  0  0  0  0  0  0
  193.1680  176.0370  135.3530 C   0  0  0  0  0  3  0  0  0  0  0  0
  195.6080  175.5280  136.5340 N   0  0  0  0  0  0  0  0  0  0  0  0
  196.7200  176.6170  134.7720 F   0  0  0  0  0  0  0  0  0  0  0  0
  193.2260  175.3380  136.5660 C   0  0  0  0  0  0  0  0  0  0  0  0
  194.3440  176.4730  134.7420 C   0  0  0  0  0  3  0  0  0  0  0  0
  194.4730  175.0920  137.1460 C   0  0  0  0  0  3  0  0  0  0  0  0
  190.3550  177.6460  139.3240 C   0  0  1  0  0  3  0  0  0  0  0  0
  189.1660  178.5230  138.9720 C   0  0  0  0  0  1  0  0  0  0  0  0
  190.1230  176.9860  140.6020 N   0  0  0  0  0  2  0  0  0  0  0  0
  190.9520  177.2100  141.7460 C   0  0  0  0  0  0  0  0  0  0  0  0
  191.8260  178.1170  141.7370 O   0  0  0  0  0  0  0  0  0  0  0  0
  190.8270  176.3250  142.9360 C   0  0  0  0  0  2  0  0  0  0  0  0
  190.2360  177.1050  144.1070 C   0  0  2  0  0  3  0  0  0  0  0  0
  191.8260  175.4490  145.1770 C   0  0  0  0  0  1  0  0  0  0  0  0
  190.7820  176.5220  145.4230 C   0  0  0  0  0  3  0  0  0  0  0  0
  191.3050  177.5800  146.3830 C   0  0  0  0  0  1  0  0  0  0  0  0
  188.6990  177.1580  144.0020 C   0  0  1  0  0  3  0  0  0  0  0  0
  188.1420  175.9460  143.2690 C   0  0  0  0  0  1  0  0  0  0  0  0
  188.0820  177.2190  145.3990 C   0  0  0  0  0  2  0  0  0  0  0  0
  186.7070  177.7940  145.3630 C   0  0  0  0  0  0  0  0  0  0  0  0
  184.8090  178.6120  144.0960 C   0  0  0  0  0  3  0  0  0  0  0  0
  184.7470  178.6320  146.5170 C   0  0  0  0  0  3  0  0  0  0  0  0
  184.1350  178.8970  145.2880 C   0  0  0  0  0  3  0  0  0  0  0  0
  186.0320  178.0810  146.5550 C   0  0  0  0  0  3  0  0  0  0  0  0
  186.0950  178.0620  144.1330 C   0  0  0  0  0  3  0  0  0  0  0  0
  190.8820  173.5680  135.3680 C   0  0  0  0  0  2  0  0  0  0  0  0
  189.7980  172.5880  135.7780 C   0  0  0  0  0  1  0  0  0  0  0  0
  189.0190  176.0050  134.5940 S   0  0  0  0  0  0  0  0  0  0  0  0
  185.7750  174.6260  136.6320 C   0  0  0  0  0  3  0  0  0  0  0  0
  185.0730  175.7970  136.9370 C   0  0  0  0  0  0  0  0  0  0  0  0
  186.7630  177.0960  135.7700 C   0  0  0  0  0  3  0  0  0  0  0  0
  186.9670  174.6870  135.9050 C   0  0  0  0  0  3  0  0  0  0  0  0
  187.4650  175.9230  135.4780 C   0  0  0  0  0  0  0  0  0  0  0  0
  185.5700  177.0350  136.4960 C   0  0  0  0  0  3  0  0  0  0  0  0
  183.2550  176.8390  138.2520 C   0  0  0  0  0  1  0  0  0  0  0  0
  183.8920  175.7050  137.6790 O   0  0  0  0  0  0  0  0  0  0  0  0
  1  4  1  0  0  0  0
  3  2  2  0  0  0  0
  3 14  1  0  0  0  0
  4 11  1  6  0  0  0
  4  2  1  0  0  0  0
  5  1  1  0  0  0  0
  5  6  2  0  0  0  0
  6  3  1  0  0  0  0
  7  9  1  0  0  0  0
  8 11  2  0  0  0  0
  9 13  2  0  0  0  0
 10  7  1  0  0  0  0
 11 13  1  0  0  0  0
 12  8  1  0  0  0  0
 12  7  2  0  0  0  0
 14 15  1  6  0  0  0
 14 16  1  0  0  0  0
 16 17  1  0  0  0  0
 17 19  1  0  0  0  0
 18 17  2  0  0  0  0
 20 19  1  6  0  0  0
 20 22  1  0  0  0  0
 21 22  1  0  0  0  0
 22 23  1  0  0  0  0
 24 25  1  1  0  0  0
 24 20  1  0  0  0  0
 24 26  1  0  0  0  0
 27 26  1  0  0  0  0
 27 31  1  0  0  0  0
 28 32  1  0  0  0  0
 28 30  2  0  0  0  0
 29 31  2  0  0  0  0
 30 29  1  0  0  0  0
 32 27  2  0  0  0  0
 33 34  1  0  0  0  0
 33  1  1  0  0  0  0
 35 40  1  0  0  0  0
 35  5  1  0  0  0  0
 36 37  1  0  0  0  0
 37 43  1  0  0  0  0
 38 41  1  0  0  0  0
 39 36  2  0  0  0  0
 40 38  2  0  0  0  0
 40 39  1  0  0  0  0
 41 37  2  0  0  0  0
 43 42  1  0  0  0  0
M  END
>  <MODEL>
6

>  <REMARK>
 VINA RESULT:      -7.3      1.746      3.450
  Name = 
  13 active torsions:
  status: ('A' for Active; 'I' for Inactive)
    1  A    between atoms: S_1  and  C_34
    2  A    between atoms: S_1  and  C_35
    3  A    between atoms: C_2  and  N_6
    4  A    between atoms: C_2  and  C_27
    5  A    between atoms: C_3  and  C_4
    6  A    between atoms: C_3  and  C_12
    7  A    between atoms: C_4  and  C_15
    8  A    between atoms: C_4  and  C_22
    9  A    between atoms: N_8  and  C_33
   10  A    between atoms: C_11  and  C_14
   11  A    between atoms: C_14  and  C_22
   12  A    between atoms: C_19  and  O_37
   13  A    between atoms: C_21  and  C_30
                            x       y       z     vdW  Elec       q    Type
                         _______ _______ _______ _____ _____    ______ ____

>  <TORSDO>
F 13

$$$$
=
 OpenBabel11052416413D

 43 46  0  0  1  0  0  0  0  0999 V2000
  190.0860  174.8390  136.4190 N   0  0  0  0  0  0  0  0  0  0  0  0
  190.7190  175.4930  138.6980 C   0  0  0  0  0  3  0  0  0  0  0  0
  189.9200  176.5630  138.5850 C   0  0  0  0  0  0  0  0  0  0  0  0
  191.0640  174.6550  137.4970 C   0  0  2  0  0  3  0  0  0  0  0  0
  189.3900  176.0940  136.3010 C   0  0  0  0  0  0  0  0  0  0  0  0
  189.3200  176.8900  137.3240 N   0  0  0  0  0  0  0  0  0  0  0  0
  195.0020  175.6670  136.1700 C   0  0  0  0  0  0  0  0  0  0  0  0
  193.3320  173.9850  136.5920 C   0  0  0  0  0  3  0  0  0  0  0  0
  194.1270  176.6260  136.5750 N   0  0  0  0  0  0  0  0  0  0  0  0
  196.2460  176.0120  135.7630 F   0  0  0  0  0  0  0  0  0  0  0  0
  192.4450  174.9850  137.0110 C   0  0  0  0  0  0  0  0  0  0  0  0
  194.6170  174.3250  136.1670 C   0  0  0  0  0  3  0  0  0  0  0  0
  192.8690  176.3170  136.9940 C   0  0  0  0  0  3  0  0  0  0  0  0
  189.7200  177.4940  139.7420 C   0  0  1  0  0  3  0  0  0  0  0  0
  188.8730  178.6900  139.3420 C   0  0  0  0  0  1  0  0  0  0  0  0
  189.0930  176.7920  140.8540 N   0  0  0  0  0  2  0  0  0  0  0  0
  188.8890  177.4010  142.1320 C   0  0  0  0  0  0  0  0  0  0  0  0
  189.1020  178.6320  142.2980 O   0  0  0  0  0  0  0  0  0  0  0  0
  188.4830  176.5650  143.2950 C   0  0  0  0  0  2  0  0  0  0  0  0
  188.3440  177.4350  144.5400 C   0  0  2  0  0  3  0  0  0  0  0  0
  190.7670  176.8360  144.9730 C   0  0  0  0  0  1  0  0  0  0  0  0
  189.3860  176.9880  145.5820 C   0  0  0  0  0  3  0  0  0  0  0  0
  189.4300  177.8770  146.8140 C   0  0  0  0  0  1  0  0  0  0  0  0
  186.8850  177.4440  145.0350 C   0  0  1  0  0  3  0  0  0  0  0  0
  186.7870  177.0800  146.5100 C   0  0  0  0  0  1  0  0  0  0  0  0
  186.2700  178.8270  144.8250 C   0  0  0  0  0  2  0  0  0  0  0  0
  185.0780  178.7650  143.9320 C   0  0  0  0  0  0  0  0  0  0  0  0
  182.6890  179.0030  143.6060 C   0  0  0  0  0  3  0  0  0  0  0  0
  184.1000  178.3190  141.7590 C   0  0  0  0  0  3  0  0  0  0  0  0
  182.8330  178.6270  142.2670 C   0  0  0  0  0  3  0  0  0  0  0  0
  185.2220  178.3880  142.5910 C   0  0  0  0  0  3  0  0  0  0  0  0
  183.8100  179.0710  144.4380 C   0  0  0  0  0  3  0  0  0  0  0  0
  189.9840  173.8130  135.3900 C   0  0  0  0  0  2  0  0  0  0  0  0
  189.0780  172.6900  135.8600 C   0  0  0  0  0  1  0  0  0  0  0  0
  188.6750  176.6200  134.7410 S   0  0  0  0  0  0  0  0  0  0  0  0
  185.0060  177.1290  136.4300 C   0  0  0  0  0  3  0  0  0  0  0  0
  184.3730  175.9060  136.1850 C   0  0  0  0  0  0  0  0  0  0  0  0
  186.3890  175.0990  135.0940 C   0  0  0  0  0  3  0  0  0  0  0  0
  186.3200  177.3410  136.0050 C   0  0  0  0  0  3  0  0  0  0  0  0
  187.0110  176.3280  135.3320 C   0  0  0  0  0  0  0  0  0  0  0  0
  185.0760  174.8860  135.5190 C   0  0  0  0  0  3  0  0  0  0  0  0
  182.6810  174.7620  137.5810 C   0  0  0  0  0  1  0  0  0  0  0  0
  183.0530  175.7290  136.6080 O   0  0  0  0  0  0  0  0  0  0  0  0
  1  4  1  0  0  0  0
  3  2  2  0  0  0  0
  3 14  1  0  0  0  0
  4 11  1  6  0  0  0
  4  2  1  0  0  0  0
  5  1  1  0  0  0  0
  5  6  2  0  0  0  0
  6  3  1  0  0  0  0
  7  9  1  0  0  0  0
  8 11  2  0  0  0  0
  9 13  2  0  0  0  0
 10  7  1  0  0  0  0
 12  7  2  0  0  0  0
 12  8  1  0  0  0  0
 13 11  1  0  0  0  0
 14 15  1  6  0  0  0
 14 16  1  0  0  0  0
 16 17  1  0  0  0  0
 17 18  2  0  0  0  0
 17 19  1  0  0  0  0
 20 19  1  6  0  0  0
 20 24  1  0  0  0  0
 20 22  1  0  0  0  0
 21 22  1  0  0  0  0
 22 23  1  0  0  0  0
 24 25  1  1  0  0  0
 26 24  1  0  0  0  0
 27 32  1  0  0  0  0
 27 26  1  0  0  0  0
 28 32  2  0  0  0  0
 29 30  2  0  0  0  0
 29 31  1  0  0  0  0
 30 28  1  0  0  0  0
 31 27  2  0  0  0  0
 33 34  1  0  0  0  0
 33  1  1  0  0  0  0
 35 40  1  0  0  0  0
 35  5  1  0  0  0  0
 37 36  1  0  0  0  0
 37 43  1  0  0  0  0
 38 40  2  0  0  0  0
 38 41  1  0  0  0  0
 39 36  2  0  0  0  0
 40 39  1  0  0  0  0
 41 37  2  0  0  0  0
 43 42  1  0  0  0  0
M  END
>  <MODEL>
7

>  <REMARK>
 VINA RESULT:      -7.0      1.346      3.485
  Name = 
  13 active torsions:
  status: ('A' for Active; 'I' for Inactive)
    1  A    between atoms: S_1  and  C_34
    2  A    between atoms: S_1  and  C_35
    3  A    between atoms: C_2  and  N_6
    4  A    between atoms: C_2  and  C_27
    5  A    between atoms: C_3  and  C_4
    6  A    between atoms: C_3  and  C_12
    7  A    between atoms: C_4  and  C_15
    8  A    between atoms: C_4  and  C_22
    9  A    between atoms: N_8  and  C_33
   10  A    between atoms: C_11  and  C_14
   11  A    between atoms: C_14  and  C_22
   12  A    between atoms: C_19  and  O_37
   13  A    between atoms: C_21  and  C_30
                            x       y       z     vdW  Elec       q    Type
                         _______ _______ _______ _____ _____    ______ ____

>  <TORSDO>
F 13

$$$$
=
 OpenBabel11052416413D

 43 46  0  0  1  0  0  0  0  0999 V2000
  188.3500  176.8260  142.9160 N   0  0  0  0  0  0  0  0  0  0  0  0
  186.0880  177.0780  143.8320 C   0  0  0  0  0  3  0  0  0  0  0  0
  185.8650  178.0570  142.9430 C   0  0  0  0  0  0  0  0  0  0  0  0
  187.4740  176.5380  144.0570 C   0  0  2  0  0  3  0  0  0  0  0  0
  188.1080  177.9960  142.1140 C   0  0  0  0  0  0  0  0  0  0  0  0
  186.9390  178.5620  142.1370 N   0  0  0  0  0  0  0  0  0  0  0  0
  189.0540  178.1340  147.6960 C   0  0  0  0  0  0  0  0  0  0  0  0
  189.4300  177.0500  145.5800 C   0  0  0  0  0  3  0  0  0  0  0  0
  187.7220  178.1850  147.4250 N   0  0  0  0  0  0  0  0  0  0  0  0
  189.5280  178.6380  148.8600 F   0  0  0  0  0  0  0  0  0  0  0  0
  188.0550  177.1050  145.3180 C   0  0  0  0  0  0  0  0  0  0  0  0
  189.9350  177.5670  146.7730 C   0  0  0  0  0  3  0  0  0  0  0  0
  187.2090  177.6860  146.2670 C   0  0  0  0  0  3  0  0  0  0  0  0
  184.5220  178.7130  142.8470 C   0  0  1  0  0  3  0  0  0  0  0  0
  184.3380  179.7460  143.9440 C   0  0  0  0  0  1  0  0  0  0  0  0
  184.3570  179.3390  141.5420 N   0  0  0  0  0  2  0  0  0  0  0  0
  183.2820  179.0070  140.6590 C   0  0  0  0  0  0  0  0  0  0  0  0
  182.3380  178.2680  141.0470 O   0  0  0  0  0  0  0  0  0  0  0  0
  183.3070  179.4840  139.2490 C   0  0  0  0  0  2  0  0  0  0  0  0
  182.1560  178.8600  138.4660 C   0  0  2  0  0  3  0  0  0  0  0  0
  183.2060  176.7750  137.4840 C   0  0  0  0  0  1  0  0  0  0  0  0
  182.7190  178.1840  137.2030 C   0  0  0  0  0  3  0  0  0  0  0  0
  181.7550  178.2010  136.0270 C   0  0  0  0  0  1  0  0  0  0  0  0
  181.0460  179.8990  138.2140 C   0  0  1  0  0  3  0  0  0  0  0  0
  179.8160  179.6300  139.0700 C   0  0  0  0  0  1  0  0  0  0  0  0
  181.5650  181.3030  138.5230 C   0  0  0  0  0  2  0  0  0  0  0  0
  181.2470  182.2570  137.4220 C   0  0  0  0  0  0  0  0  0  0  0  0
  180.4440  182.6690  135.1730 C   0  0  0  0  0  3  0  0  0  0  0  0
  181.1850  184.5180  136.5510 C   0  0  0  0  0  3  0  0  0  0  0  0
  180.6690  184.0390  135.3420 C   0  0  0  0  0  3  0  0  0  0  0  0
  181.4740  183.6280  137.5900 C   0  0  0  0  0  3  0  0  0  0  0  0
  180.7330  181.7790  136.2110 C   0  0  0  0  0  3  0  0  0  0  0  0
  189.5510  176.0200  142.7410 C   0  0  0  0  0  2  0  0  0  0  0  0
  190.7770  176.9130  142.6930 C   0  0  0  0  0  1  0  0  0  0  0  0
  189.4130  178.7420  141.1340 S   0  0  0  0  0  0  0  0  0  0  0  0
  189.1740  176.2660  137.9100 C   0  0  0  0  0  3  0  0  0  0  0  0
  187.9300  176.5870  137.3570 C   0  0  0  0  0  0  0  0  0  0  0  0
  187.6090  178.2610  139.0890 C   0  0  0  0  0  3  0  0  0  0  0  0
  189.6330  176.9320  139.0500 C   0  0  0  0  0  3  0  0  0  0  0  0
  188.8480  177.9260  139.6440 C   0  0  0  0  0  0  0  0  0  0  0  0
  187.1510  177.5960  137.9490 C   0  0  0  0  0  3  0  0  0  0  0  0
  186.5020  174.8750  136.2870 C   0  0  0  0  0  1  0  0  0  0  0  0
  187.4920  175.8930  136.2260 O   0  0  0  0  0  0  0  0  0  0  0  0
  1  4  1  0  0  0  0
  2  4  1  0  0  0  0
  3  2  2  0  0  0  0
  4 11  1  1  0  0  0
  5  6  2  0  0  0  0
  5  1  1  0  0  0  0
  6  3  1  0  0  0  0
  7 10  1  0  0  0  0
  8 12  1  0  0  0  0
  9  7  1  0  0  0  0
 11  8  2  0  0  0  0
 11 13  1  0  0  0  0
 12  7  2  0  0  0  0
 13  9  2  0  0  0  0
 14  3  1  0  0  0  0
 14 15  1  1  0  0  0
 16 14  1  0  0  0  0
 17 18  2  0  0  0  0
 17 16  1  0  0  0  0
 19 17  1  0  0  0  0
 20 19  1  6  0  0  0
 22 21  1  0  0  0  0
 22 20  1  0  0  0  0
 23 22  1  0  0  0  0
 24 20  1  0  0  0  0
 24 26  1  0  0  0  0
 24 25  1  1  0  0  0
 27 31  1  0  0  0  0
 27 26  1  0  0  0  0
 28 30  2  0  0  0  0
 28 32  1  0  0  0  0
 29 31  2  0  0  0  0
 30 29  1  0  0  0  0
 32 27  2  0  0  0  0
 33  1  1  0  0  0  0
 34 33  1  0  0  0  0
 35  5  1  0  0  0  0
 36 39  1  0  0  0  0
 37 36  2  0  0  0  0
 37 41  1  0  0  0  0
 38 40  1  0  0  0  0
 39 40  2  0  0  0  0
 40 35  1  0  0  0  0
 41 38  2  0  0  0  0
 43 42  1  0  0  0  0
 43 37  1  0  0  0  0
M  END
>  <MODEL>
8

>  <REMARK>
 VINA RESULT:      -7.0      4.357      8.828
  Name = 
  13 active torsions:
  status: ('A' for Active; 'I' for Inactive)
    1  A    between atoms: S_1  and  C_34
    2  A    between atoms: S_1  and  C_35
    3  A    between atoms: C_2  and  N_6
    4  A    between atoms: C_2  and  C_27
    5  A    between atoms: C_3  and  C_4
    6  A    between atoms: C_3  and  C_12
    7  A    between atoms: C_4  and  C_15
    8  A    between atoms: C_4  and  C_22
    9  A    between atoms: N_8  and  C_33
   10  A    between atoms: C_11  and  C_14
   11  A    between atoms: C_14  and  C_22
   12  A    between atoms: C_19  and  O_37
   13  A    between atoms: C_21  and  C_30
                            x       y       z     vdW  Elec       q    Type
                         _______ _______ _______ _____ _____    ______ ____

>  <TORSDO>
F 13

$$$$
=
 OpenBabel11052416413D

 43 46  0  0  1  0  0  0  0  0999 V2000
  185.8520  177.3470  135.9230 N   0  0  0  0  0  0  0  0  0  0  0  0
  186.1390  178.2630  138.1810 C   0  0  0  0  0  3  0  0  0  0  0  0
  187.2460  177.5180  138.3140 C   0  0  0  0  0  0  0  0  0  0  0  0
  185.1920  178.0420  137.0330 C   0  0  2  0  0  3  0  0  0  0  0  0
  186.9410  176.4460  136.1980 C   0  0  0  0  0  0  0  0  0  0  0  0
  187.5840  176.5380  137.3220 N   0  0  0  0  0  0  0  0  0  0  0  0
  181.7160  175.8830  138.2770 C   0  0  0  0  0  0  0  0  0  0  0  0
  184.1120  176.0030  138.0730 C   0  0  0  0  0  3  0  0  0  0  0  0
  181.6140  177.1190  137.7160 N   0  0  0  0  0  0  0  0  0  0  0  0
  180.6000  175.2160  138.6530 F   0  0  0  0  0  0  0  0  0  0  0  0
  183.9890  177.2720  137.4920 C   0  0  0  0  0  0  0  0  0  0  0  0
  182.9710  175.3030  138.4680 C   0  0  0  0  0  3  0  0  0  0  0  0
  182.7140  177.8180  137.3220 C   0  0  0  0  0  3  0  0  0  0  0  0
  188.0920  177.6170  139.5470 C   0  0  1  0  0  3  0  0  0  0  0  0
  189.5040  178.0640  139.2070 C   0  0  0  0  0  1  0  0  0  0  0  0
  187.4930  178.5450  140.4980 N   0  0  0  0  0  2  0  0  0  0  0  0
  187.3620  178.2430  141.8890 C   0  0  0  0  0  0  0  0  0  0  0  0
  187.9100  177.2180  142.3780 O   0  0  0  0  0  0  0  0  0  0  0  0
  186.5210  179.1080  142.7590 C   0  0  0  0  0  2  0  0  0  0  0  0
  185.5350  178.2530  143.5510 C   0  0  2  0  0  3  0  0  0  0  0  0
  183.7500  180.0430  143.4030 C   0  0  0  0  0  1  0  0  0  0  0  0
  184.1030  178.5990  143.1050 C   0  0  0  0  0  3  0  0  0  0  0  0
  183.8250  178.2600  141.6490 C   0  0  0  0  0  1  0  0  0  0  0  0
  185.8000  178.3820  145.0630 C   0  0  1  0  0  3  0  0  0  0  0  0
  184.5170  178.6440  145.8410 C   0  0  0  0  0  1  0  0  0  0  0  0
  186.4450  177.1010  145.5920 C   0  0  0  0  0  2  0  0  0  0  0  0
  187.6910  177.3920  146.3570 C   0  0  0  0  0  0  0  0  0  0  0  0
  190.1110  177.4530  146.4760 C   0  0  0  0  0  3  0  0  0  0  0  0
  188.7880  178.1110  148.3950 C   0  0  0  0  0  3  0  0  0  0  0  0
  190.0350  177.9130  147.7940 C   0  0  0  0  0  3  0  0  0  0  0  0
  187.6160  177.8510  147.6770 C   0  0  0  0  0  3  0  0  0  0  0  0
  188.9400  177.1920  145.7580 C   0  0  0  0  0  3  0  0  0  0  0  0
  185.2650  177.4450  134.5940 C   0  0  0  0  0  2  0  0  0  0  0  0
  183.8690  176.8510  134.5940 C   0  0  0  0  0  1  0  0  0  0  0  0
  187.3840  175.1410  135.0490 S   0  0  0  0  0  0  0  0  0  0  0  0
  185.3420  172.6950  137.5830 C   0  0  0  0  0  3  0  0  0  0  0  0
  184.2000  172.3600  136.8470 C   0  0  0  0  0  0  0  0  0  0  0  0
  185.0260  173.6920  134.9900 C   0  0  0  0  0  3  0  0  0  0  0  0
  186.3180  173.5280  137.0310 C   0  0  0  0  0  3  0  0  0  0  0  0
  186.1590  174.0320  135.7360 C   0  0  0  0  0  0  0  0  0  0  0  0
  184.0500  172.8570  135.5410 C   0  0  0  0  0  3  0  0  0  0  0  0
  181.8450  171.6740  137.1640 C   0  0  0  0  0  1  0  0  0  0  0  0
  183.2340  171.5370  137.4330 O   0  0  0  0  0  0  0  0  0  0  0  0
  1  5  1  0  0  0  0
  1  4  1  0  0  0  0
  2  3  2  0  0  0  0
  3 14  1  0  0  0  0
  4 11  1  1  0  0  0
  4  2  1  0  0  0  0
  5  6  2  0  0  0  0
  6  3  1  0  0  0  0
  7 12  1  0  0  0  0
  7 10  1  0  0  0  0
  8 12  2  0  0  0  0
  9  7  2  0  0  0  0
 11  8  1  0  0  0  0
 13 11  2  0  0  0  0
 13  9  1  0  0  0  0
 14 15  1  6  0  0  0
 14 16  1  0  0  0  0
 16 17  1  0  0  0  0
 17 18  2  0  0  0  0
 17 19  1  0  0  0  0
 20 19  1  6  0  0  0
 20 24  1  0  0  0  0
 22 21  1  0  0  0  0
 22 20  1  0  0  0  0
 23 22  1  0  0  0  0
 24 26  1  0  0  0  0
 24 25  1  1  0  0  0
 26 27  1  0  0  0  0
 27 31  1  0  0  0  0
 28 30  2  0  0  0  0
 30 29  1  0  0  0  0
 31 29  2  0  0  0  0
 32 27  2  0  0  0  0
 32 28  1  0  0  0  0
 33 34  1  0  0  0  0
 33  1  1  0  0  0  0
 35 40  1  0  0  0  0
 35  5  1  0  0  0  0
 37 43  1  0  0  0  0
 37 36  2  0  0  0  0
 38 41  2  0  0  0  0
 38 40  1  0  0  0  0
 39 36  1  0  0  0  0
 40 39  2  0  0  0  0
 41 37  1  0  0  0  0
 42 43  1  0  0  0  0
M  END
>  <MODEL>
9

>  <REMARK>
 VINA RESULT:      -6.9      3.629      5.497
  Name = 
  13 active torsions:
  status: ('A' for Active; 'I' for Inactive)
    1  A    between atoms: S_1  and  C_34
    2  A    between atoms: S_1  and  C_35
    3  A    between atoms: C_2  and  N_6
    4  A    between atoms: C_2  and  C_27
    5  A    between atoms: C_3  and  C_4
    6  A    between atoms: C_3  and  C_12
    7  A    between atoms: C_4  and  C_15
    8  A    between atoms: C_4  and  C_22
    9  A    between atoms: N_8  and  C_33
   10  A    between atoms: C_11  and  C_14
   11  A    between atoms: C_14  and  C_22
   12  A    between atoms: C_19  and  O_37
   13  A    between atoms: C_21  and  C_30
                            x       y       z     vdW  Elec       q    Type
                         _______ _______ _______ _____ _____    ______ ____

>  <TORSDO>
F 13

$$$$
