=
 OpenBabel11052413293D

 28 31  0  0  1  0  0  0  0  0999 V2000
  187.1960  177.7620  145.5640 C   0  0  0  0  0  0  0  0  0  0  0  0
  182.8820  178.5230  143.5090 C   0  0  0  0  0  1  0  0  0  0  0  0
  186.4010  178.7950  142.0210 C   0  0  2  0  0  3  0  0  0  0  0  0
  184.3190  179.4710  141.0610 F   0  0  0  0  0  0  0  0  0  0  0  0
  185.1400  178.6150  144.5860 C   0  0  0  0  0  0  0  0  0  0  0  0
  187.0050  177.8480  143.0490 C   0  0  0  0  0  2  0  0  0  0  0  0
  185.4400  178.5050  146.9840 C   0  0  0  0  0  3  0  0  0  0  0  0
  184.3020  179.0590  143.4040 C   0  0  1  0  0  3  0  0  0  0  0  0
  184.6570  178.8390  145.8810 C   0  0  0  0  0  3  0  0  0  0  0  0
  184.8790  178.6670  142.0400 C   0  0  2  0  0  3  0  0  0  0  0  0
  186.6780  177.9770  146.8040 N   0  0  0  0  0  0  0  0  0  0  0  0
  186.4440  178.0980  144.4220 C   0  0  0  0  0  0  0  0  0  0  0  0
  189.4020  178.0580  144.6920 O   0  0  0  0  0  0  0  0  0  0  0  0
  188.5720  177.1880  145.4330 C   0  0  1  0  0  3  0  0  0  0  0  0
  190.5670  177.3610  144.2690 C   0  0  0  0  0  0  0  0  0  0  0  0
  190.7070  176.9310  146.7570 C   0  0  0  0  0  2  0  0  0  0  0  0
  191.2090  176.5050  145.3810 C   0  0  0  0  0  2  0  0  0  0  0  0
  189.1790  176.8940  146.8100 C   0  0  0  0  0  2  0  0  0  0  0  0
  190.2470  176.4760  143.0750 C   0  0  0  0  0  1  0  0  0  0  0  0
  191.5890  178.3860  143.8240 C   0  0  0  0  0  1  0  0  0  0  0  0
  186.1290  178.2310  139.5740 C   0  0  0  0  0  3  0  0  0  0  0  0
  188.3620  178.5310  140.4700 C   0  0  0  0  0  0  0  0  0  0  0  0
  188.0550  177.9860  138.1290 C   0  0  0  0  0  0  0  0  0  0  0  0
  186.9710  178.5150  140.6610 C   0  0  0  0  0  0  0  0  0  0  0  0
  188.8990  178.2670  139.2060 C   0  0  0  0  0  3  0  0  0  0  0  0
  189.1970  178.8010  141.5040 F   0  0  0  0  0  0  0  0  0  0  0  0
  188.5790  177.7320  136.9070 F   0  0  0  0  0  0  0  0  0  0  0  0
  186.6700  177.9670  138.3130 C   0  0  0  0  0  3  0  0  0  0  0  0
  1 11  1  0  0  0  0
  3 24  1  6  0  0  0
  3 10  1  0  0  0  0
  3  6  1  0  0  0  0
  5  9  2  0  0  0  0
  6 12  1  0  0  0  0
  8  2  1  1  0  0  0
  8  5  1  0  0  0  0
  9  7  1  0  0  0  0
 10  4  1  6  0  0  0
 10  8  1  0  0  0  0
 11  7  2  0  0  0  0
 12  5  1  0  0  0  0
 12  1  2  0  0  0  0
 13 14  1  0  0  0  0
 14  1  1  1  0  0  0
 14 18  1  0  0  0  0
 15 13  1  0  0  0  0
 15 17  1  0  0  0  0
 16 18  1  0  0  0  0
 17 16  1  0  0  0  0
 19 15  1  0  0  0  0
 20 15  1  0  0  0  0
 21 24  1  0  0  0  0
 22 24  2  0  0  0  0
 22 26  1  0  0  0  0
 23 28  1  0  0  0  0
 23 25  2  0  0  0  0
 25 22  1  0  0  0  0
 27 23  1  0  0  0  0
 28 21  2  0  0  0  0
M  END
>  <MODEL>
1

>  <REMARK>
 VINA RESULT:     -10.6      0.000      0.000
  Name = 
  2 active torsions:
  status: ('A' for Active; 'I' for Inactive)
    1  A    between atoms: C_1  and  C_3
    2  A    between atoms: C_10  and  C_13
                            x       y       z     vdW  Elec       q    Type
                         _______ _______ _______ _____ _____    ______ ____

>  <TORSDO>
F 2

$$$$
=
 OpenBabel11052413293D

 28 31  0  0  1  0  0  0  0  0999 V2000
  186.5740  178.1290  142.6460 C   0  0  0  0  0  0  0  0  0  0  0  0
  190.3870  176.5900  140.0940 C   0  0  0  0  0  1  0  0  0  0  0  0
  190.1000  177.4520  143.8160 C   0  0  2  0  0  3  0  0  0  0  0  0
  192.0660  176.9890  142.5390 F   0  0  0  0  0  0  0  0  0  0  0  0
  188.6310  177.8220  141.3850 C   0  0  0  0  0  0  0  0  0  0  0  0
  188.5960  177.2120  143.8450 C   0  0  0  0  0  2  0  0  0  0  0  0
  186.6380  178.7120  140.3420 C   0  0  0  0  0  3  0  0  0  0  0  0
  190.1060  177.4900  141.2880 C   0  0  1  0  0  3  0  0  0  0  0  0
  187.9760  178.3320  140.2570 C   0  0  0  0  0  3  0  0  0  0  0  0
  190.6890  176.8390  142.5460 C   0  0  2  0  0  3  0  0  0  0  0  0
  185.9720  178.6010  141.5200 N   0  0  0  0  0  0  0  0  0  0  0  0
  187.9300  177.7490  142.6090 C   0  0  0  0  0  0  0  0  0  0  0  0
  186.3690  178.8600  144.9120 O   0  0  0  0  0  0  0  0  0  0  0  0
  185.7890  178.0430  143.9170 C   0  0  1  0  0  3  0  0  0  0  0  0
  185.8500  178.5020  146.1860 C   0  0  0  0  0  0  0  0  0  0  0  0
  183.6810  178.9530  144.9670 C   0  0  0  0  0  2  0  0  0  0  0  0
  184.3180  178.3100  146.1940 C   0  0  0  0  0  2  0  0  0  0  0  0
  184.3220  178.4220  143.6840 C   0  0  0  0  0  2  0  0  0  0  0  0
  186.5180  177.2330  146.6890 C   0  0  0  0  0  1  0  0  0  0  0  0
  186.1830  179.6160  147.1580 C   0  0  0  0  0  1  0  0  0  0  0  0
  191.6960  175.8740  144.9750 C   0  0  0  0  0  3  0  0  0  0  0  0
  190.3720  177.4010  146.3150 C   0  0  0  0  0  0  0  0  0  0  0  0
  191.9140  175.8690  147.3850 C   0  0  0  0  0  0  0  0  0  0  0  0
  190.7380  176.8980  145.0560 C   0  0  0  0  0  0  0  0  0  0  0  0
  190.9610  176.8860  147.4740 C   0  0  0  0  0  3  0  0  0  0  0  0
  189.4470  178.3890  146.4200 F   0  0  0  0  0  0  0  0  0  0  0  0
  192.4820  175.3730  148.5100 F   0  0  0  0  0  0  0  0  0  0  0  0
  192.2810  175.3620  146.1350 C   0  0  0  0  0  3  0  0  0  0  0  0
  3  6  1  0  0  0  0
  3 24  1  1  0  0  0
  5 12  2  0  0  0  0
  7 11  1  0  0  0  0
  8  2  1  6  0  0  0
  8  5  1  0  0  0  0
  8 10  1  0  0  0  0
  9  7  2  0  0  0  0
  9  5  1  0  0  0  0
 10  4  1  1  0  0  0
 10  3  1  0  0  0  0
 11  1  2  0  0  0  0
 12  1  1  0  0  0  0
 12  6  1  0  0  0  0
 13 15  1  0  0  0  0
 14  1  1  6  0  0  0
 14 13  1  0  0  0  0
 15 17  1  0  0  0  0
 15 19  1  0  0  0  0
 15 20  1  0  0  0  0
 16 17  1  0  0  0  0
 18 14  1  0  0  0  0
 18 16  1  0  0  0  0
 21 24  2  0  0  0  0
 21 28  1  0  0  0  0
 22 26  1  0  0  0  0
 22 25  2  0  0  0  0
 23 25  1  0  0  0  0
 23 27  1  0  0  0  0
 24 22  1  0  0  0  0
 28 23  2  0  0  0  0
M  END
>  <MODEL>
2

>  <REMARK>
 VINA RESULT:     -10.6      2.581      6.699
  Name = 
  2 active torsions:
  status: ('A' for Active; 'I' for Inactive)
    1  A    between atoms: C_1  and  C_3
    2  A    between atoms: C_10  and  C_13
                            x       y       z     vdW  Elec       q    Type
                         _______ _______ _______ _____ _____    ______ ____

>  <TORSDO>
F 2

$$$$
=
 OpenBabel11052413293D

 28 31  0  0  1  0  0  0  0  0999 V2000
  186.6030  178.4750  141.0780 C   0  0  0  0  0  0  0  0  0  0  0  0
  182.8240  179.7460  143.8200 C   0  0  0  0  0  1  0  0  0  0  0  0
  186.0700  177.9490  144.7790 C   0  0  2  0  0  3  0  0  0  0  0  0
  184.1050  178.2870  146.0980 F   0  0  0  0  0  0  0  0  0  0  0  0
  184.5870  178.6410  142.4280 C   0  0  0  0  0  0  0  0  0  0  0  0
  186.8360  178.5150  143.5910 C   0  0  0  0  0  2  0  0  0  0  0  0
  184.4810  178.5760  140.0120 C   0  0  0  0  0  3  0  0  0  0  0  0
  183.8610  178.6340  143.7570 C   0  0  1  0  0  3  0  0  0  0  0  0
  183.8370  178.6410  141.2450 C   0  0  0  0  0  3  0  0  0  0  0  0
  184.7800  178.7440  144.9780 C   0  0  2  0  0  3  0  0  0  0  0  0
  185.8360  178.4980  139.9550 N   0  0  0  0  0  0  0  0  0  0  0  0
  185.9930  178.5240  142.3460 C   0  0  0  0  0  0  0  0  0  0  0  0
  188.5780  177.2700  141.6790 O   0  0  0  0  0  0  0  0  0  0  0  0
  188.0910  178.3750  140.9480 C   0  0  1  0  0  3  0  0  0  0  0  0
  189.9840  177.3910  141.8480 C   0  0  0  0  0  0  0  0  0  0  0  0
  189.8520  177.5680  139.3290 C   0  0  0  0  0  2  0  0  0  0  0  0
  190.7260  177.8020  140.5590 C   0  0  0  0  0  2  0  0  0  0  0  0
  188.5100  178.2850  139.4760 C   0  0  0  0  0  2  0  0  0  0  0  0
  190.2980  178.3930  142.9480 C   0  0  0  0  0  1  0  0  0  0  0  0
  190.5220  176.0430  142.2830 C   0  0  0  0  0  1  0  0  0  0  0  0
  186.5430  178.6770  147.1510 C   0  0  0  0  0  3  0  0  0  0  0  0
  188.1480  177.2580  146.0140 C   0  0  0  0  0  0  0  0  0  0  0  0
  188.5620  177.9820  148.2890 C   0  0  0  0  0  0  0  0  0  0  0  0
  186.9330  177.9620  146.0070 C   0  0  0  0  0  0  0  0  0  0  0  0
  188.9580  177.2700  147.1540 C   0  0  0  0  0  3  0  0  0  0  0  0
  188.5480  176.5620  144.9200 F   0  0  0  0  0  0  0  0  0  0  0  0
  189.3500  177.9900  149.3910 F   0  0  0  0  0  0  0  0  0  0  0  0
  187.3550  178.6860  148.2880 C   0  0  0  0  0  3  0  0  0  0  0  0
  1 12  1  0  0  0  0
  3 10  1  0  0  0  0
  3 24  1  1  0  0  0
  5  8  1  0  0  0  0
  6  3  1  0  0  0  0
  7  9  2  0  0  0  0
  8  2  1  6  0  0  0
  8 10  1  0  0  0  0
  9  5  1  0  0  0  0
 10  4  1  1  0  0  0
 11  7  1  0  0  0  0
 11  1  2  0  0  0  0
 12  5  2  0  0  0  0
 12  6  1  0  0  0  0
 13 15  1  0  0  0  0
 14  1  1  6  0  0  0
 14 13  1  0  0  0  0
 15 20  1  0  0  0  0
 15 19  1  0  0  0  0
 16 18  1  0  0  0  0
 16 17  1  0  0  0  0
 17 15  1  0  0  0  0
 18 14  1  0  0  0  0
 21 28  1  0  0  0  0
 22 25  2  0  0  0  0
 23 27  1  0  0  0  0
 24 22  1  0  0  0  0
 24 21  2  0  0  0  0
 25 23  1  0  0  0  0
 26 22  1  0  0  0  0
 28 23  2  0  0  0  0
M  END
>  <MODEL>
3

>  <REMARK>
 VINA RESULT:     -10.4      2.694      5.814
  Name = 
  2 active torsions:
  status: ('A' for Active; 'I' for Inactive)
    1  A    between atoms: C_1  and  C_3
    2  A    between atoms: C_10  and  C_13
                            x       y       z     vdW  Elec       q    Type
                         _______ _______ _______ _____ _____    ______ ____

>  <TORSDO>
F 2

$$$$
=
 OpenBabel11052413293D

 28 31  0  0  1  0  0  0  0  0999 V2000
  187.9850  178.1170  139.3890 C   0  0  0  0  0  0  0  0  0  0  0  0
  183.4140  179.7020  139.3040 C   0  0  0  0  0  1  0  0  0  0  0  0
  185.3980  178.0580  142.1390 C   0  0  2  0  0  3  0  0  0  0  0  0
  183.0610  178.5480  142.0430 F   0  0  0  0  0  0  0  0  0  0  0  0
  185.5760  178.4410  139.3060 C   0  0  0  0  0  0  0  0  0  0  0  0
  186.7430  178.4740  141.5560 C   0  0  0  0  0  2  0  0  0  0  0  0
  186.8650  178.0710  137.2930 C   0  0  0  0  0  3  0  0  0  0  0  0
  184.2220  178.5960  139.9670 C   0  0  1  0  0  3  0  0  0  0  0  0
  185.6380  178.2870  137.9150 C   0  0  0  0  0  3  0  0  0  0  0  0
  184.2830  178.8650  141.4740 C   0  0  2  0  0  3  0  0  0  0  0  0
  188.0000  177.9940  138.0330 N   0  0  0  0  0  0  0  0  0  0  0  0
  186.7640  178.3210  140.0610 C   0  0  0  0  0  0  0  0  0  0  0  0
  189.1780  177.0020  141.1340 O   0  0  0  0  0  0  0  0  0  0  0  0
  189.2690  178.0100  140.1500 C   0  0  1  0  0  3  0  0  0  0  0  0
  190.2390  177.1490  142.0690 C   0  0  0  0  0  0  0  0  0  0  0  0
  191.5840  177.0240  139.9310 C   0  0  0  0  0  2  0  0  0  0  0  0
  191.6090  177.4080  141.4080 C   0  0  0  0  0  2  0  0  0  0  0  0
  190.4480  177.7470  139.2050 C   0  0  0  0  0  2  0  0  0  0  0  0
  189.9300  178.2760  143.0410 C   0  0  0  0  0  1  0  0  0  0  0  0
  190.3420  175.8660  142.8660 C   0  0  0  0  0  1  0  0  0  0  0  0
  184.5040  179.1090  144.2550 C   0  0  0  0  0  3  0  0  0  0  0  0
  186.3210  177.5110  144.4130 C   0  0  0  0  0  0  0  0  0  0  0  0
  185.4340  178.5460  146.4160 C   0  0  0  0  0  0  0  0  0  0  0  0
  185.4040  178.2310  143.6300 C   0  0  0  0  0  0  0  0  0  0  0  0
  186.3330  177.6710  145.8020 C   0  0  0  0  0  3  0  0  0  0  0  0
  187.2020  176.6580  143.8330 F   0  0  0  0  0  0  0  0  0  0  0  0
  185.4490  178.6970  147.7620 F   0  0  0  0  0  0  0  0  0  0  0  0
  184.5190  179.2660  145.6430 C   0  0  0  0  0  3  0  0  0  0  0  0
  1 12  1  0  0  0  0
  3 24  1  1  0  0  0
  5  8  1  0  0  0  0
  5 12  2  0  0  0  0
  6  3  1  0  0  0  0
  7  9  2  0  0  0  0
  7 11  1  0  0  0  0
  8  2  1  6  0  0  0
  8 10  1  0  0  0  0
  9  5  1  0  0  0  0
 10  4  1  1  0  0  0
 10  3  1  0  0  0  0
 11  1  2  0  0  0  0
 12  6  1  0  0  0  0
 13 15  1  0  0  0  0
 14  1  1  6  0  0  0
 14 13  1  0  0  0  0
 15 20  1  0  0  0  0
 15 19  1  0  0  0  0
 16 17  1  0  0  0  0
 17 15  1  0  0  0  0
 18 16  1  0  0  0  0
 18 14  1  0  0  0  0
 21 28  1  0  0  0  0
 22 25  2  0  0  0  0
 23 27  1  0  0  0  0
 24 21  2  0  0  0  0
 24 22  1  0  0  0  0
 25 23  1  0  0  0  0
 26 22  1  0  0  0  0
 28 23  2  0  0  0  0
M  END
>  <MODEL>
4

>  <REMARK>
 VINA RESULT:      -9.7      2.817      5.782
  Name = 
  2 active torsions:
  status: ('A' for Active; 'I' for Inactive)
    1  A    between atoms: C_1  and  C_3
    2  A    between atoms: C_10  and  C_13
                            x       y       z     vdW  Elec       q    Type
                         _______ _______ _______ _____ _____    ______ ____

>  <TORSDO>
F 2

$$$$
=
 OpenBabel11052413293D

 28 31  0  0  1  0  0  0  0  0999 V2000
  184.7870  178.5440  144.4710 C   0  0  0  0  0  0  0  0  0  0  0  0
  189.1680  178.3260  146.5160 C   0  0  0  0  0  1  0  0  0  0  0  0
  188.0510  177.3700  142.9780 C   0  0  2  0  0  3  0  0  0  0  0  0
  190.1530  176.9640  144.0400 F   0  0  0  0  0  0  0  0  0  0  0  0
  186.8950  177.9570  145.5320 C   0  0  0  0  0  0  0  0  0  0  0  0
  186.8360  178.2870  143.0190 C   0  0  0  0  0  2  0  0  0  0  0  0
  184.8650  178.2110  146.8230 C   0  0  0  0  0  3  0  0  0  0  0  0
  188.3570  177.5610  145.4800 C   0  0  1  0  0  3  0  0  0  0  0  0
  186.2260  177.9200  146.7620 C   0  0  0  0  0  3  0  0  0  0  0  0
  189.0110  177.7440  144.1070 C   0  0  2  0  0  3  0  0  0  0  0  0
  184.1830  178.5160  145.6900 N   0  0  0  0  0  0  0  0  0  0  0  0
  186.1590  178.2420  144.3610 C   0  0  0  0  0  0  0  0  0  0  0  0
  184.0420  177.8240  142.3170 O   0  0  0  0  0  0  0  0  0  0  0  0
  183.9770  178.8760  143.2570 C   0  0  1  0  0  3  0  0  0  0  0  0
  183.5850  178.2850  141.0520 C   0  0  0  0  0  0  0  0  0  0  0  0
  181.5790  178.8980  142.4660 C   0  0  0  0  0  2  0  0  0  0  0  0
  182.2890  179.1190  141.1330 C   0  0  0  0  0  2  0  0  0  0  0  0
  182.5230  179.1850  143.6340 C   0  0  0  0  0  2  0  0  0  0  0  0
  184.6680  179.1050  140.3690 C   0  0  0  0  0  1  0  0  0  0  0  0
  183.3050  177.0750  140.1860 C   0  0  0  0  0  1  0  0  0  0  0  0
  188.3270  178.4170  140.6960 C   0  0  0  0  0  3  0  0  0  0  0  0
  189.7200  176.5260  141.2980 C   0  0  0  0  0  0  0  0  0  0  0  0
  189.9490  177.5600  139.1190 C   0  0  0  0  0  0  0  0  0  0  0  0
  188.7110  177.4430  141.6320 C   0  0  0  0  0  0  0  0  0  0  0  0
  190.3360  176.5870  140.0440 C   0  0  0  0  0  3  0  0  0  0  0  0
  190.1070  175.5740  142.1840 F   0  0  0  0  0  0  0  0  0  0  0  0
  190.5490  177.6160  137.9060 F   0  0  0  0  0  0  0  0  0  0  0  0
  188.9450  178.4750  139.4440 C   0  0  0  0  0  3  0  0  0  0  0  0
  1 11  1  0  0  0  0
  3 24  1  6  0  0  0
  3  6  1  0  0  0  0
  3 10  1  0  0  0  0
  5  9  2  0  0  0  0
  6 12  1  0  0  0  0
  8  5  1  0  0  0  0
  8  2  1  1  0  0  0
  9  7  1  0  0  0  0
 10  4  1  1  0  0  0
 10  8  1  0  0  0  0
 11  7  2  0  0  0  0
 12  1  2  0  0  0  0
 12  5  1  0  0  0  0
 13 14  1  0  0  0  0
 14 18  1  0  0  0  0
 14  1  1  1  0  0  0
 15 17  1  0  0  0  0
 15 13  1  0  0  0  0
 16 18  1  0  0  0  0
 17 16  1  0  0  0  0
 19 15  1  0  0  0  0
 20 15  1  0  0  0  0
 21 24  1  0  0  0  0
 22 24  2  0  0  0  0
 22 26  1  0  0  0  0
 23 28  1  0  0  0  0
 23 25  2  0  0  0  0
 25 22  1  0  0  0  0
 27 23  1  0  0  0  0
 28 21  2  0  0  0  0
M  END
>  <MODEL>
5

>  <REMARK>
 VINA RESULT:      -9.7      2.366      5.163
  Name = 
  2 active torsions:
  status: ('A' for Active; 'I' for Inactive)
    1  A    between atoms: C_1  and  C_3
    2  A    between atoms: C_10  and  C_13
                            x       y       z     vdW  Elec       q    Type
                         _______ _______ _______ _____ _____    ______ ____

>  <TORSDO>
F 2

$$$$
=
 OpenBabel11052413293D

 28 31  0  0  1  0  0  0  0  0999 V2000
  186.7750  178.3880  139.8930 C   0  0  0  0  0  0  0  0  0  0  0  0
  184.5010  179.3990  144.0430 C   0  0  0  0  0  1  0  0  0  0  0  0
  187.6490  177.3100  143.4050 C   0  0  2  0  0  3  0  0  0  0  0  0
  186.3910  177.5340  145.4250 F   0  0  0  0  0  0  0  0  0  0  0  0
  185.4620  178.4410  141.9400 C   0  0  0  0  0  0  0  0  0  0  0  0
  187.9570  178.0170  142.0920 C   0  0  0  0  0  2  0  0  0  0  0  0
  184.4310  178.7640  139.7760 C   0  0  0  0  0  3  0  0  0  0  0  0
  185.3060  178.2600  143.4360 C   0  0  1  0  0  3  0  0  0  0  0  0
  184.3200  178.6660  141.1610 C   0  0  0  0  0  3  0  0  0  0  0  0
  186.6290  178.1280  144.1970 C   0  0  2  0  0  3  0  0  0  0  0  0
  185.6420  178.6280  139.1780 N   0  0  0  0  0  0  0  0  0  0  0  0
  186.7070  178.2660  141.2940 C   0  0  0  0  0  0  0  0  0  0  0  0
  188.3510  176.8710  138.9300 O   0  0  0  0  0  0  0  0  0  0  0  0
  188.0780  178.2340  139.1740 C   0  0  1  0  0  3  0  0  0  0  0  0
  189.7210  176.7110  138.5850 C   0  0  0  0  0  0  0  0  0  0  0  0
  189.0540  178.4290  136.8530 C   0  0  0  0  0  2  0  0  0  0  0  0
  190.2230  177.7540  137.5640 C   0  0  0  0  0  2  0  0  0  0  0  0
  188.0820  179.0360  137.8660 C   0  0  0  0  0  2  0  0  0  0  0  0
  190.5880  176.7720  139.8320 C   0  0  0  0  0  1  0  0  0  0  0  0
  189.8920  175.3380  137.9680 C   0  0  0  0  0  1  0  0  0  0  0  0
  189.1160  177.7120  145.4220 C   0  0  0  0  0  3  0  0  0  0  0  0
  189.9100  176.2420  143.6640 C   0  0  0  0  0  0  0  0  0  0  0  0
  191.2850  176.6580  145.6150 C   0  0  0  0  0  0  0  0  0  0  0  0
  188.9130  177.0850  144.1820 C   0  0  0  0  0  0  0  0  0  0  0  0
  191.0920  176.0310  144.3820 C   0  0  0  0  0  3  0  0  0  0  0  0
  189.7400  175.6270  142.4670 F   0  0  0  0  0  0  0  0  0  0  0  0
  192.4300  176.4500  146.3070 F   0  0  0  0  0  0  0  0  0  0  0  0
  190.2970  177.4980  146.1360 C   0  0  0  0  0  3  0  0  0  0  0  0
  1 12  1  0  0  0  0
  3 24  1  1  0  0  0
  3 10  1  0  0  0  0
  5  8  1  0  0  0  0
  6  3  1  0  0  0  0
  7  9  2  0  0  0  0
  8  2  1  1  0  0  0
  8 10  1  0  0  0  0
  9  5  1  0  0  0  0
 10  4  1  1  0  0  0
 11  7  1  0  0  0  0
 11  1  2  0  0  0  0
 12  5  2  0  0  0  0
 12  6  1  0  0  0  0
 13 14  1  0  0  0  0
 14  1  1  6  0  0  0
 15 13  1  0  0  0  0
 15 19  1  0  0  0  0
 16 17  1  0  0  0  0
 16 18  1  0  0  0  0
 17 15  1  0  0  0  0
 18 14  1  0  0  0  0
 20 15  1  0  0  0  0
 21 28  1  0  0  0  0
 22 24  1  0  0  0  0
 22 25  2  0  0  0  0
 23 28  2  0  0  0  0
 23 27  1  0  0  0  0
 24 21  2  0  0  0  0
 25 23  1  0  0  0  0
 26 22  1  0  0  0  0
M  END
>  <MODEL>
6

>  <REMARK>
 VINA RESULT:      -9.5      2.770      6.057
  Name = 
  2 active torsions:
  status: ('A' for Active; 'I' for Inactive)
    1  A    between atoms: C_1  and  C_3
    2  A    between atoms: C_10  and  C_13
                            x       y       z     vdW  Elec       q    Type
                         _______ _______ _______ _____ _____    ______ ____

>  <TORSDO>
F 2

$$$$
=
 OpenBabel11052413293D

 28 31  0  0  1  0  0  0  0  0999 V2000
  187.0160  178.0840  146.0910 C   0  0  0  0  0  0  0  0  0  0  0  0
  191.6850  176.9520  146.6710 C   0  0  0  0  0  1  0  0  0  0  0  0
  189.5010  176.8590  143.5250 C   0  0  2  0  0  3  0  0  0  0  0  0
  191.7130  176.0070  143.8320 F   0  0  0  0  0  0  0  0  0  0  0  0
  189.2020  177.0550  146.3670 C   0  0  0  0  0  0  0  0  0  0  0  0
  188.5170  177.8850  144.0720 C   0  0  0  0  0  2  0  0  0  0  0  0
  187.6750  177.2800  148.2290 C   0  0  0  0  0  3  0  0  0  0  0  0
  190.5050  176.5090  145.8190 C   0  0  1  0  0  3  0  0  0  0  0  0
  188.8980  176.8510  147.7190 C   0  0  0  0  0  3  0  0  0  0  0  0
  190.7810  176.8850  144.3590 C   0  0  2  0  0  3  0  0  0  0  0  0
  186.7710  177.8830  147.4150 N   0  0  0  0  0  0  0  0  0  0  0  0
  188.2340  177.6520  145.5300 C   0  0  0  0  0  0  0  0  0  0  0  0
  185.7410  177.9900  144.0720 O   0  0  0  0  0  0  0  0  0  0  0  0
  185.9740  178.7430  145.2430 C   0  0  1  0  0  3  0  0  0  0  0  0
  185.0390  178.7860  143.1250 C   0  0  0  0  0  0  0  0  0  0  0  0
  183.4670  179.0030  145.0930 C   0  0  0  0  0  2  0  0  0  0  0  0
  183.8630  179.5760  143.7360 C   0  0  0  0  0  2  0  0  0  0  0  0
  184.6740  178.9490  146.0300 C   0  0  0  0  0  2  0  0  0  0  0  0
  185.9930  179.7520  142.4410 C   0  0  0  0  0  1  0  0  0  0  0  0
  184.4770  177.8630  142.0630 C   0  0  0  0  0  1  0  0  0  0  0  0
  191.0870  177.2530  141.5990 C   0  0  0  0  0  3  0  0  0  0  0  0
  188.7000  177.2470  141.1740 C   0  0  0  0  0  0  0  0  0  0  0  0
  190.2580  177.6240  139.3570 C   0  0  0  0  0  0  0  0  0  0  0  0
  189.7720  177.1230  142.0730 C   0  0  0  0  0  0  0  0  0  0  0  0
  188.9460  177.4960  139.8200 C   0  0  0  0  0  3  0  0  0  0  0  0
  187.4200  177.1270  141.6070 F   0  0  0  0  0  0  0  0  0  0  0  0
  190.4910  177.8650  138.0450 F   0  0  0  0  0  0  0  0  0  0  0  0
  191.3290  177.5030  140.2460 C   0  0  0  0  0  3  0  0  0  0  0  0
  1 11  1  0  0  0  0
  3 24  1  6  0  0  0
  3  6  1  0  0  0  0
  3 10  1  0  0  0  0
  5  9  2  0  0  0  0
  6 12  1  0  0  0  0
  8  5  1  0  0  0  0
  8  2  1  1  0  0  0
  9  7  1  0  0  0  0
 10  4  1  6  0  0  0
 10  8  1  0  0  0  0
 11  7  2  0  0  0  0
 12  1  2  0  0  0  0
 12  5  1  0  0  0  0
 13 14  1  0  0  0  0
 14 18  1  0  0  0  0
 14  1  1  1  0  0  0
 15 17  1  0  0  0  0
 15 13  1  0  0  0  0
 16 18  1  0  0  0  0
 17 16  1  0  0  0  0
 19 15  1  0  0  0  0
 20 15  1  0  0  0  0
 21 24  1  0  0  0  0
 22 26  1  0  0  0  0
 22 24  2  0  0  0  0
 23 25  2  0  0  0  0
 23 28  1  0  0  0  0
 25 22  1  0  0  0  0
 27 23  1  0  0  0  0
 28 21  2  0  0  0  0
M  END
>  <MODEL>
7

>  <REMARK>
 VINA RESULT:      -9.4      1.769      5.060
  Name = 
  2 active torsions:
  status: ('A' for Active; 'I' for Inactive)
    1  A    between atoms: C_1  and  C_3
    2  A    between atoms: C_10  and  C_13
                            x       y       z     vdW  Elec       q    Type
                         _______ _______ _______ _____ _____    ______ ____

>  <TORSDO>
F 2

$$$$
=
 OpenBabel11052413293D

 28 31  0  0  1  0  0  0  0  0999 V2000
  183.1050  178.7480  141.9650 C   0  0  0  0  0  0  0  0  0  0  0  0
  185.5800  179.3420  146.0800 C   0  0  0  0  0  1  0  0  0  0  0  0
  186.6220  177.6560  142.8010 C   0  0  2  0  0  3  0  0  0  0  0  0
  187.7590  177.6610  144.9030 F   0  0  0  0  0  0  0  0  0  0  0  0
  184.2440  178.5760  144.1070 C   0  0  0  0  0  0  0  0  0  0  0  0
  185.6100  178.4400  141.9750 C   0  0  0  0  0  2  0  0  0  0  0  0
  181.8450  178.8540  143.9770 C   0  0  0  0  0  3  0  0  0  0  0  0
  185.4750  178.3250  144.9530 C   0  0  1  0  0  3  0  0  0  0  0  0
  183.0000  178.6950  144.7390 C   0  0  0  0  0  3  0  0  0  0  0  0
  186.7900  178.3220  144.1660 C   0  0  2  0  0  3  0  0  0  0  0  0
  181.9210  178.8800  142.6220 N   0  0  0  0  0  0  0  0  0  0  0  0
  184.2960  178.5700  142.6950 C   0  0  0  0  0  0  0  0  0  0  0  0
  183.3860  177.4840  139.9560 O   0  0  0  0  0  0  0  0  0  0  0  0
  183.1210  178.7720  140.4680 C   0  0  1  0  0  3  0  0  0  0  0  0
  183.7530  177.5800  138.5860 C   0  0  0  0  0  0  0  0  0  0  0  0
  181.5320  178.7870  138.5060 C   0  0  0  0  0  2  0  0  0  0  0  0
  182.8420  178.5220  137.7700 C   0  0  0  0  0  2  0  0  0  0  0  0
  181.8010  179.3220  139.9130 C   0  0  0  0  0  2  0  0  0  0  0  0
  185.1950  178.0440  138.4590 C   0  0  0  0  0  1  0  0  0  0  0  0
  183.6560  176.1970  137.9760 C   0  0  0  0  0  1  0  0  0  0  0  0
  188.2460  178.4600  141.0420 C   0  0  0  0  0  3  0  0  0  0  0  0
  188.8320  176.5310  142.3890 C   0  0  0  0  0  0  0  0  0  0  0  0
  190.3590  177.3350  140.6880 C   0  0  0  0  0  0  0  0  0  0  0  0
  187.9240  177.5510  142.0630 C   0  0  0  0  0  0  0  0  0  0  0  0
  190.0450  176.4260  141.7010 C   0  0  0  0  0  3  0  0  0  0  0  0
  188.5430  175.6380  143.3690 F   0  0  0  0  0  0  0  0  0  0  0  0
  191.5350  177.2300  140.0250 F   0  0  0  0  0  0  0  0  0  0  0  0
  189.4590  178.3520  140.3580 C   0  0  0  0  0  3  0  0  0  0  0  0
  1 11  2  0  0  0  0
  1 12  1  0  0  0  0
  3 24  1  6  0  0  0
  3 10  1  0  0  0  0
  5  9  1  0  0  0  0
  5  8  1  0  0  0  0
  6 12  1  0  0  0  0
  6  3  1  0  0  0  0
  7  9  2  0  0  0  0
  8  2  1  1  0  0  0
 10  4  1  1  0  0  0
 10  8  1  0  0  0  0
 11  7  1  0  0  0  0
 12  5  2  0  0  0  0
 13 14  1  0  0  0  0
 14  1  1  1  0  0  0
 15 13  1  0  0  0  0
 16 18  1  0  0  0  0
 17 16  1  0  0  0  0
 17 15  1  0  0  0  0
 18 14  1  0  0  0  0
 19 15  1  0  0  0  0
 20 15  1  0  0  0  0
 21 24  1  0  0  0  0
 22 26  1  0  0  0  0
 23 25  2  0  0  0  0
 24 22  2  0  0  0  0
 25 22  1  0  0  0  0
 27 23  1  0  0  0  0
 28 23  1  0  0  0  0
 28 21  2  0  0  0  0
M  END
>  <MODEL>
8

>  <REMARK>
 VINA RESULT:      -9.3      3.055      5.967
  Name = 
  2 active torsions:
  status: ('A' for Active; 'I' for Inactive)
    1  A    between atoms: C_1  and  C_3
    2  A    between atoms: C_10  and  C_13
                            x       y       z     vdW  Elec       q    Type
                         _______ _______ _______ _____ _____    ______ ____

>  <TORSDO>
F 2

$$$$
=
 OpenBabel11052413293D

 28 31  0  0  1  0  0  0  0  0999 V2000
  183.8100  178.3910  142.5830 C   0  0  0  0  0  0  0  0  0  0  0  0
  185.6550  179.6080  146.8880 C   0  0  0  0  0  1  0  0  0  0  0  0
  187.1600  177.4890  144.0730 C   0  0  2  0  0  3  0  0  0  0  0  0
  187.9760  177.8140  146.2960 F   0  0  0  0  0  0  0  0  0  0  0  0
  184.6200  178.5460  144.8710 C   0  0  0  0  0  0  0  0  0  0  0  0
  186.2850  178.1300  143.0040 C   0  0  0  0  0  2  0  0  0  0  0  0
  182.2670  178.7620  144.3530 C   0  0  0  0  0  3  0  0  0  0  0  0
  185.7120  178.4400  145.9150 C   0  0  1  0  0  3  0  0  0  0  0  0
  183.2970  178.7330  145.2900 C   0  0  0  0  0  3  0  0  0  0  0  0
  187.1290  178.3460  145.3380 C   0  0  2  0  0  3  0  0  0  0  0  0
  182.5420  178.5950  143.0330 N   0  0  0  0  0  0  0  0  0  0  0  0
  184.8800  178.3390  143.4970 C   0  0  0  0  0  0  0  0  0  0  0  0
  182.8200  178.1920  140.4160 O   0  0  0  0  0  0  0  0  0  0  0  0
  184.0460  178.2020  141.1170 C   0  0  1  0  0  3  0  0  0  0  0  0
  183.0190  177.6600  139.1130 C   0  0  0  0  0  0  0  0  0  0  0  0
  184.7420  179.5120  139.0740 C   0  0  0  0  0  2  0  0  0  0  0  0
  184.2670  178.2260  138.4020 C   0  0  0  0  0  2  0  0  0  0  0  0
  184.9830  179.2840  140.5660 C   0  0  0  0  0  2  0  0  0  0  0  0
  183.1210  176.1450  139.1730 C   0  0  0  0  0  1  0  0  0  0  0  0
  181.8080  178.0100  138.2740 C   0  0  0  0  0  1  0  0  0  0  0  0
  189.4410  178.3900  143.4650 C   0  0  0  0  0  3  0  0  0  0  0  0
  188.9870  176.0280  143.1520 C   0  0  0  0  0  0  0  0  0  0  0  0
  191.1600  176.9350  142.5790 C   0  0  0  0  0  0  0  0  0  0  0  0
  188.5570  177.3020  143.5560 C   0  0  0  0  0  0  0  0  0  0  0  0
  190.2860  175.8490  142.6660 C   0  0  0  0  0  3  0  0  0  0  0  0
  188.1510  174.9620  143.2280 F   0  0  0  0  0  0  0  0  0  0  0  0
  192.4170  176.7570  142.1080 F   0  0  0  0  0  0  0  0  0  0  0  0
  190.7370  178.2060  142.9780 C   0  0  0  0  0  3  0  0  0  0  0  0
  1 11  2  0  0  0  0
  1 12  1  0  0  0  0
  3 24  1  6  0  0  0
  3 10  1  0  0  0  0
  5  9  1  0  0  0  0
  5  8  1  0  0  0  0
  6 12  1  0  0  0  0
  6  3  1  0  0  0  0
  7  9  2  0  0  0  0
  8  2  1  1  0  0  0
 10  8  1  0  0  0  0
 10  4  1  1  0  0  0
 11  7  1  0  0  0  0
 12  5  2  0  0  0  0
 13 14  1  0  0  0  0
 14  1  1  1  0  0  0
 15 19  1  0  0  0  0
 15 13  1  0  0  0  0
 16 18  1  0  0  0  0
 17 16  1  0  0  0  0
 17 15  1  0  0  0  0
 18 14  1  0  0  0  0
 20 15  1  0  0  0  0
 21 24  1  0  0  0  0
 22 26  1  0  0  0  0
 22 24  2  0  0  0  0
 23 25  2  0  0  0  0
 23 28  1  0  0  0  0
 25 22  1  0  0  0  0
 27 23  1  0  0  0  0
 28 21  2  0  0  0  0
M  END
>  <MODEL>
9

>  <REMARK>
 VINA RESULT:      -9.0      3.246      6.021
  Name = 
  2 active torsions:
  status: ('A' for Active; 'I' for Inactive)
    1  A    between atoms: C_1  and  C_3
    2  A    between atoms: C_10  and  C_13
                            x       y       z     vdW  Elec       q    Type
                         _______ _______ _______ _____ _____    ______ ____

>  <TORSDO>
F 2

$$$$
