=
 OpenBabel11052415463D

 34 37  0  0  1  0  0  0  0  0999 V2000
  187.9230  178.0680  142.4370 C   0  0  2  0  0  3  0  0  0  0  0  0
  186.4380  177.8310  142.6990 C   0  0  0  0  0  2  0  0  0  0  0  0
  185.6130  178.5300  141.7100 C   0  0  0  0  0  0  0  0  0  0  0  0
  184.9360  179.1060  140.8960 C   0  0  0  0  0  3  0  0  0  0  0  0
  188.3130  177.4260  141.1110 C   0  0  0  0  0  2  0  0  0  0  0  0
  188.7300  178.4950  140.1180 C   0  0  0  0  0  2  0  0  0  0  0  0
  189.9710  178.0580  139.3580 C   0  0  0  0  0  2  0  0  0  0  0  0
  188.9470  177.8940  136.5210 C   0  0  0  0  0  2  0  0  0  0  0  0
  191.7480  175.8910  137.7480 C   0  0  2  0  0  0  0  0  0  0  0  0
  190.8960  175.9540  139.0090 C   0  0  0  0  0  2  0  0  0  0  0  0
  189.7390  176.7710  138.7090 N   0  0  0  0  0  0  0  0  0  0  0  0
  191.0740  176.5530  136.7070 O   0  0  0  0  0  0  0  0  0  0  0  0
  189.8550  176.9430  137.2710 C   0  0  0  0  0  0  0  0  0  0  0  0
  191.9410  174.5550  137.3910 O   0  0  0  0  0  1  0  0  0  0  0  0
  188.6620  176.3960  136.5220 C   0  0  0  0  0  2  0  0  0  0  0  0
  193.0740  176.5420  138.0060 C   0  0  0  0  0  0  0  0  0  0  0  0
  193.8910  176.7220  137.0630 O   0  0  0  0  0  0  0  0  0  0  0  0
  193.3860  177.0050  139.2780 O   0  0  0  0  0  1  0  0  0  0  0  0
  188.7690  177.4920  143.5770 C   0  0  1  0  0  3  0  0  0  0  0  0
  190.6270  178.9670  143.2010 O   0  0  0  0  0  0  0  0  0  0  0  0
  191.1200  178.2300  144.2930 C   0  0  1  0  0  3  0  0  0  0  0  0
  189.6730  178.5810  144.1630 C   0  0  2  0  0  3  0  0  0  0  0  0
  192.1570  174.5590  144.3000 N   0  0  0  0  0  1  0  0  0  0  0  0
  191.8960  175.8760  144.7720 C   0  0  0  0  0  0  0  0  0  0  0  0
  192.0810  176.1520  145.9870 O   0  0  0  0  0  0  0  0  0  0  0  0
  191.4280  176.8710  143.8630 N   0  0  0  0  0  2  0  0  0  0  0  0
  187.9250  176.9990  144.6120 O   0  0  0  0  0  0  0  0  0  0  0  0
  189.0100  177.0050  146.7360 C   0  0  0  0  0  3  0  0  0  0  0  0
  188.1180  178.1640  148.6610 C   0  0  0  0  0  3  0  0  0  0  0  0
  189.1070  177.3690  148.0810 C   0  0  0  0  0  3  0  0  0  0  0  0
  186.9250  178.2370  146.5460 C   0  0  0  0  0  0  0  0  0  0  0  0
  187.9310  177.4270  145.9500 C   0  0  0  0  0  0  0  0  0  0  0  0
  187.0340  178.5940  147.8940 C   0  0  0  0  0  3  0  0  0  0  0  0
  185.7310  178.7400  145.8110 C   0  0  0  0  0  1  0  0  0  0  0  0
  1  5  1  6  0  0  0
  1  2  1  0  0  0  0
  1 19  1  0  0  0  0
  3  2  1  0  0  0  0
  4  3  3  0  0  0  0
  6  5  1  0  0  0  0
  7  6  1  0  0  0  0
  8 15  1  0  0  0  0
  8 13  1  0  0  0  0
  9 14  1  6  0  0  0
  9 16  1  0  0  0  0
  9 10  1  0  0  0  0
 11 10  1  0  0  0  0
 11  7  1  0  0  0  0
 12 13  1  0  0  0  0
 12  9  1  0  0  0  0
 13 11  1  0  0  0  0
 15 13  1  0  0  0  0
 16 18  1  0  0  0  0
 17 16  2  0  0  0  0
 19 27  1  1  0  0  0
 20 22  1  0  0  0  0
 20 21  1  0  0  0  0
 21 26  1  6  0  0  0
 22 19  1  6  0  0  0
 22 21  1  0  0  0  0
 23 24  1  0  0  0  0
 24 25  2  0  0  0  0
 26 24  1  0  0  0  0
 27 32  1  0  0  0  0
 28 30  1  0  0  0  0
 30 29  2  0  0  0  0
 31 33  2  0  0  0  0
 32 31  1  0  0  0  0
 32 28  2  0  0  0  0
 33 29  1  0  0  0  0
 34 31  1  0  0  0  0
M  END
>  <MODEL>
1

>  <REMARK>
 VINA RESULT:      -7.6      0.000      0.000
  Name = 
  12 active torsions:
  status: ('A' for Active; 'I' for Inactive)
    1  A    between atoms: O_1  and  C_20
    2  A    between atoms: O_1  and  C_34
    3  A    between atoms: C_4  and  N_16
    4  A    between atoms: C_4  and  C_31
    5  A    between atoms: C_5  and  C_18
    6  A    between atoms: C_5  and  C_33
    7  A    between atoms: C_5  and  C_34
    8  A    between atoms: C_7  and  C_11
    9  A    between atoms: C_8  and  C_18
   10  A    between atoms: C_23  and  N_27
   11  A    between atoms: C_31  and  C_33
   12  A    between atoms: C_32  and  C_34
                            x       y       z     vdW  Elec       q    Type
                         _______ _______ _______ _____ _____    ______ ____

>  <TORSDO>
F 12

$$$$
=
 OpenBabel11052415463D

 34 37  0  0  1  0  0  0  0  0999 V2000
  187.5270  178.2470  142.4750 C   0  0  2  0  0  3  0  0  0  0  0  0
  187.1500  177.0660  143.3650 C   0  0  0  0  0  2  0  0  0  0  0  0
  187.5560  177.3050  144.7520 C   0  0  0  0  0  0  0  0  0  0  0  0
  187.8910  177.5030  145.8930 C   0  0  0  0  0  3  0  0  0  0  0  0
  186.2610  178.8820  141.9090 C   0  0  0  0  0  2  0  0  0  0  0  0
  185.0500  178.0460  142.2800 C   0  0  0  0  0  2  0  0  0  0  0  0
  183.7880  178.8910  142.2310 C   0  0  0  0  0  2  0  0  0  0  0  0
  180.8920  179.3680  142.9450 C   0  0  0  0  0  2  0  0  0  0  0  0
  182.0890  179.1780  139.4970 C   0  0  2  0  0  0  0  0  0  0  0  0
  183.0240  178.1730  140.1560 C   0  0  0  0  0  2  0  0  0  0  0  0
  182.7130  178.1570  141.5700 N   0  0  0  0  0  0  0  0  0  0  0  0
  181.1860  179.6630  140.4590 O   0  0  0  0  0  0  0  0  0  0  0  0
  181.4990  178.9530  141.6220 C   0  0  0  0  0  0  0  0  0  0  0  0
  181.3770  178.5430  138.4780 O   0  0  0  0  0  1  0  0  0  0  0  0
  180.3220  178.1830  142.1740 C   0  0  0  0  0  2  0  0  0  0  0  0
  182.8930  180.3070  138.9230 C   0  0  0  0  0  0  0  0  0  0  0  0
  182.3170  181.3180  138.4370 O   0  0  0  0  0  0  0  0  0  0  0  0
  184.2810  180.2730  138.9780 O   0  0  0  0  0  1  0  0  0  0  0  0
  188.4480  177.7930  141.3390 C   0  0  1  0  0  3  0  0  0  0  0  0
  187.2850  177.8400  139.2380 O   0  0  0  0  0  0  0  0  0  0  0  0
  188.6090  177.9730  138.7840 C   0  0  1  0  0  3  0  0  0  0  0  0
  188.1450  178.5880  140.0650 C   0  0  2  0  0  3  0  0  0  0  0  0
  190.9740  175.0210  138.2900 N   0  0  0  0  0  1  0  0  0  0  0  0
  190.2990  176.2490  138.0440 C   0  0  0  0  0  0  0  0  0  0  0  0
  190.5740  176.9180  137.0130 O   0  0  0  0  0  0  0  0  0  0  0  0
  189.3160  176.7110  138.9690 N   0  0  0  0  0  2  0  0  0  0  0  0
  189.8090  178.0100  141.6960 O   0  0  0  0  0  0  0  0  0  0  0  0
  190.6030  176.0420  142.7850 C   0  0  0  0  0  3  0  0  0  0  0  0
  191.7520  176.0940  144.9110 C   0  0  0  0  0  3  0  0  0  0  0  0
  191.2390  175.3730  143.8320 C   0  0  0  0  0  3  0  0  0  0  0  0
  190.9970  178.1670  143.8940 C   0  0  0  0  0  0  0  0  0  0  0  0
  190.4720  177.4370  142.7940 C   0  0  0  0  0  0  0  0  0  0  0  0
  191.6300  177.4840  144.9380 C   0  0  0  0  0  3  0  0  0  0  0  0
  190.9110  179.6490  144.0160 C   0  0  0  0  0  1  0  0  0  0  0  0
  1  5  1  6  0  0  0
  1  2  1  0  0  0  0
  2  3  1  0  0  0  0
  3  4  3  0  0  0  0
  5  6  1  0  0  0  0
  7  6  1  0  0  0  0
  9 14  1  6  0  0  0
  9 10  1  0  0  0  0
  9 12  1  0  0  0  0
 10 11  1  0  0  0  0
 11 13  1  0  0  0  0
 11  7  1  0  0  0  0
 12 13  1  0  0  0  0
 13 15  1  0  0  0  0
 13  8  1  0  0  0  0
 15  8  1  0  0  0  0
 16 18  1  0  0  0  0
 16  9  1  0  0  0  0
 17 16  2  0  0  0  0
 19 27  1  1  0  0  0
 19  1  1  0  0  0  0
 20 22  1  0  0  0  0
 21 26  1  1  0  0  0
 21 20  1  0  0  0  0
 21 22  1  0  0  0  0
 22 19  1  1  0  0  0
 24 23  1  0  0  0  0
 24 26  1  0  0  0  0
 25 24  2  0  0  0  0
 27 32  1  0  0  0  0
 28 32  2  0  0  0  0
 28 30  1  0  0  0  0
 29 33  1  0  0  0  0
 30 29  2  0  0  0  0
 31 34  1  0  0  0  0
 31 33  2  0  0  0  0
 32 31  1  0  0  0  0
M  END
>  <MODEL>
2

>  <REMARK>
 VINA RESULT:      -7.5      3.817      7.204
  Name = 
  12 active torsions:
  status: ('A' for Active; 'I' for Inactive)
    1  A    between atoms: O_1  and  C_20
    2  A    between atoms: O_1  and  C_34
    3  A    between atoms: C_4  and  N_16
    4  A    between atoms: C_4  and  C_31
    5  A    between atoms: C_5  and  C_18
    6  A    between atoms: C_5  and  C_33
    7  A    between atoms: C_5  and  C_34
    8  A    between atoms: C_7  and  C_11
    9  A    between atoms: C_8  and  C_18
   10  A    between atoms: C_23  and  N_27
   11  A    between atoms: C_31  and  C_33
   12  A    between atoms: C_32  and  C_34
                            x       y       z     vdW  Elec       q    Type
                         _______ _______ _______ _____ _____    ______ ____

>  <TORSDO>
F 12

$$$$
=
 OpenBabel11052415463D

 34 37  0  0  1  0  0  0  0  0999 V2000
  189.2880  177.2080  141.7210 C   0  0  2  0  0  3  0  0  0  0  0  0
  190.6590  177.0960  141.0600 C   0  0  0  0  0  2  0  0  0  0  0  0
  190.5460  176.5340  139.7110 C   0  0  0  0  0  0  0  0  0  0  0  0
  190.4530  176.0740  138.6010 C   0  0  0  0  0  3  0  0  0  0  0  0
  188.6890  178.5770  141.4180 C   0  0  0  0  0  2  0  0  0  0  0  0
  188.1720  178.6150  139.9920 C   0  0  0  0  0  2  0  0  0  0  0  0
  186.7210  178.1670  139.9420 C   0  0  0  0  0  2  0  0  0  0  0  0
  187.0210  176.7140  137.3110 C   0  0  0  0  0  2  0  0  0  0  0  0
  183.8080  177.9270  138.5630 C   0  0  2  0  0  0  0  0  0  0  0  0
  184.7280  179.0160  139.0990 C   0  0  0  0  0  2  0  0  0  0  0  0
  186.0810  178.6600  138.7270 N   0  0  0  0  0  0  0  0  0  0  0  0
  184.5690  177.0160  137.8100 O   0  0  0  0  0  0  0  0  0  0  0  0
  185.8630  177.5430  137.8240 C   0  0  0  0  0  0  0  0  0  0  0  0
  182.8410  178.5070  137.7400 O   0  0  0  0  0  1  0  0  0  0  0  0
  186.4050  177.8010  136.4370 C   0  0  0  0  0  2  0  0  0  0  0  0
  183.1410  177.2260  139.7090 C   0  0  0  0  0  0  0  0  0  0  0  0
  182.6900  176.0570  139.5670 O   0  0  0  0  0  0  0  0  0  0  0  0
  183.0710  177.8390  140.9540 O   0  0  0  0  0  1  0  0  0  0  0  0
  189.4020  176.9990  143.2340 C   0  0  1  0  0  3  0  0  0  0  0  0
  191.0500  178.7070  143.5990 O   0  0  0  0  0  0  0  0  0  0  0  0
  190.8450  178.2820  144.9240 C   0  0  1  0  0  3  0  0  0  0  0  0
  189.7340  178.3250  143.9250 C   0  0  2  0  0  3  0  0  0  0  0  0
  192.3380  175.1430  146.4970 N   0  0  0  0  0  1  0  0  0  0  0  0
  191.8120  176.4600  146.3810 C   0  0  0  0  0  0  0  0  0  0  0  0
  191.7040  177.1820  147.4070 O   0  0  0  0  0  0  0  0  0  0  0  0
  191.4130  176.9500  145.1020 N   0  0  0  0  0  2  0  0  0  0  0  0
  188.1680  176.5140  143.7550 O   0  0  0  0  0  0  0  0  0  0  0  0
  186.1870  177.8220  143.5270 C   0  0  0  0  0  3  0  0  0  0  0  0
  185.1020  178.8960  145.4010 C   0  0  0  0  0  3  0  0  0  0  0  0
  185.1580  178.6170  144.0350 C   0  0  0  0  0  3  0  0  0  0  0  0
  187.1120  177.5790  145.7600 C   0  0  0  0  0  0  0  0  0  0  0  0
  187.1730  177.2930  144.3690 C   0  0  0  0  0  0  0  0  0  0  0  0
  186.0750  178.3780  146.2560 C   0  0  0  0  0  3  0  0  0  0  0  0
  188.1060  177.0770  146.7490 C   0  0  0  0  0  1  0  0  0  0  0  0
  1  2  1  6  0  0  0
  1 19  1  0  0  0  0
  3  2  1  0  0  0  0
  4  3  3  0  0  0  0
  5  1  1  0  0  0  0
  6  5  1  0  0  0  0
  7  6  1  0  0  0  0
  8 13  1  0  0  0  0
  9 14  1  6  0  0  0
  9 10  1  0  0  0  0
  9 16  1  0  0  0  0
 11 10  1  0  0  0  0
 11  7  1  0  0  0  0
 12 13  1  0  0  0  0
 12  9  1  0  0  0  0
 13 11  1  0  0  0  0
 15  8  1  0  0  0  0
 15 13  1  0  0  0  0
 16 18  1  0  0  0  0
 17 16  2  0  0  0  0
 19 27  1  1  0  0  0
 20 22  1  0  0  0  0
 20 21  1  0  0  0  0
 21 26  1  6  0  0  0
 22 19  1  6  0  0  0
 22 21  1  0  0  0  0
 24 23  1  0  0  0  0
 24 25  2  0  0  0  0
 26 24  1  0  0  0  0
 27 32  1  0  0  0  0
 28 30  2  0  0  0  0
 28 32  1  0  0  0  0
 29 33  2  0  0  0  0
 30 29  1  0  0  0  0
 31 33  1  0  0  0  0
 31 34  1  0  0  0  0
 32 31  2  0  0  0  0
M  END
>  <MODEL>
3

>  <REMARK>
 VINA RESULT:      -7.3      2.989      5.052
  Name = 
  12 active torsions:
  status: ('A' for Active; 'I' for Inactive)
    1  A    between atoms: O_1  and  C_20
    2  A    between atoms: O_1  and  C_34
    3  A    between atoms: C_4  and  N_16
    4  A    between atoms: C_4  and  C_31
    5  A    between atoms: C_5  and  C_18
    6  A    between atoms: C_5  and  C_33
    7  A    between atoms: C_5  and  C_34
    8  A    between atoms: C_7  and  C_11
    9  A    between atoms: C_8  and  C_18
   10  A    between atoms: C_23  and  N_27
   11  A    between atoms: C_31  and  C_33
   12  A    between atoms: C_32  and  C_34
                            x       y       z     vdW  Elec       q    Type
                         _______ _______ _______ _____ _____    ______ ____

>  <TORSDO>
F 12

$$$$
=
 OpenBabel11052415463D

 34 37  0  0  1  0  0  0  0  0999 V2000
  185.3070  178.1570  142.8300 C   0  0  2  0  0  3  0  0  0  0  0  0
  184.6680  179.2620  143.6670 C   0  0  0  0  0  2  0  0  0  0  0  0
  184.8090  178.9820  145.0990 C   0  0  0  0  0  0  0  0  0  0  0  0
  184.9260  178.7520  146.2760 C   0  0  0  0  0  3  0  0  0  0  0  0
  186.8250  178.2790  142.8990 C   0  0  0  0  0  2  0  0  0  0  0  0
  187.4420  176.9250  143.1950 C   0  0  0  0  0  2  0  0  0  0  0  0
  187.6670  176.7600  144.6890 C   0  0  0  0  0  2  0  0  0  0  0  0
  188.5840  176.7980  147.5670 C   0  0  0  0  0  2  0  0  0  0  0  0
  190.8640  177.2300  144.7410 C   0  0  2  0  0  0  0  0  0  0  0  0
  189.6210  177.9130  144.1850 C   0  0  0  0  0  2  0  0  0  0  0  0
  188.5780  177.7890  145.1800 N   0  0  0  0  0  0  0  0  0  0  0  0
  190.6040  176.8110  146.0580 O   0  0  0  0  0  0  0  0  0  0  0  0
  189.3080  177.2640  146.3210 C   0  0  0  0  0  0  0  0  0  0  0  0
  191.9230  178.1390  144.7510 O   0  0  0  0  0  1  0  0  0  0  0  0
  189.2390  178.1750  147.5250 C   0  0  0  0  0  2  0  0  0  0  0  0
  191.2170  176.0530  143.8810 C   0  0  0  0  0  0  0  0  0  0  0  0
  192.0740  175.2140  144.2680 O   0  0  0  0  0  1  0  0  0  0  0  0
  190.5550  175.8480  142.6760 O   0  0  0  0  0  0  0  0  0  0  0  0
  184.8320  178.2410  141.3760 C   0  0  1  0  0  3  0  0  0  0  0  0
  182.5220  178.3260  142.0270 O   0  0  0  0  0  0  0  0  0  0  0  0
  182.3780  178.3050  140.6280 C   0  0  1  0  0  3  0  0  0  0  0  0
  183.5120  179.0140  141.2970 C   0  0  2  0  0  3  0  0  0  0  0  0
  182.7610  175.2560  138.3680 N   0  0  0  0  0  1  0  0  0  0  0  0
  182.3610  176.5450  138.8180 C   0  0  0  0  0  0  0  0  0  0  0  0
  181.6790  177.2860  138.0620 O   0  0  0  0  0  0  0  0  0  0  0  0
  182.7370  176.9860  140.1210 N   0  0  0  0  0  2  0  0  0  0  0  0
  185.8010  178.9190  140.5830 O   0  0  0  0  0  0  0  0  0  0  0  0
  185.4130  178.2630  138.3220 C   0  0  0  0  0  3  0  0  0  0  0  0
  187.1830  177.5340  136.8470 C   0  0  0  0  0  3  0  0  0  0  0  0
  185.8330  177.8040  137.0720 C   0  0  0  0  0  3  0  0  0  0  0  0
  187.7030  178.1870  139.1280 C   0  0  0  0  0  0  0  0  0  0  0  0
  186.3280  178.4630  139.3630 C   0  0  0  0  0  0  0  0  0  0  0  0
  188.1110  177.7260  137.8710 C   0  0  0  0  0  3  0  0  0  0  0  0
  188.7650  178.3560  140.1590 C   0  0  0  0  0  1  0  0  0  0  0  0
  1  5  1  6  0  0  0
  1  2  1  0  0  0  0
  2  3  1  0  0  0  0
  3  4  3  0  0  0  0
  5  6  1  0  0  0  0
  6  7  1  0  0  0  0
  7 11  1  0  0  0  0
  9 14  1  1  0  0  0
  9 12  1  0  0  0  0
 10  9  1  0  0  0  0
 10 11  1  0  0  0  0
 11 13  1  0  0  0  0
 12 13  1  0  0  0  0
 13 15  1  0  0  0  0
 13  8  1  0  0  0  0
 15  8  1  0  0  0  0
 16 17  1  0  0  0  0
 16  9  1  0  0  0  0
 18 16  2  0  0  0  0
 19 27  1  6  0  0  0
 19  1  1  0  0  0  0
 21 26  1  6  0  0  0
 21 22  1  0  0  0  0
 21 20  1  0  0  0  0
 22 19  1  6  0  0  0
 22 20  1  0  0  0  0
 23 24  1  0  0  0  0
 24 26  1  0  0  0  0
 25 24  2  0  0  0  0
 28 32  1  0  0  0  0
 29 30  1  0  0  0  0
 29 33  2  0  0  0  0
 30 28  2  0  0  0  0
 31 32  2  0  0  0  0
 31 34  1  0  0  0  0
 32 27  1  0  0  0  0
 33 31  1  0  0  0  0
M  END
>  <MODEL>
4

>  <REMARK>
 VINA RESULT:      -7.2      3.231      8.054
  Name = 
  12 active torsions:
  status: ('A' for Active; 'I' for Inactive)
    1  A    between atoms: O_1  and  C_20
    2  A    between atoms: O_1  and  C_34
    3  A    between atoms: C_4  and  N_16
    4  A    between atoms: C_4  and  C_31
    5  A    between atoms: C_5  and  C_18
    6  A    between atoms: C_5  and  C_33
    7  A    between atoms: C_5  and  C_34
    8  A    between atoms: C_7  and  C_11
    9  A    between atoms: C_8  and  C_18
   10  A    between atoms: C_23  and  N_27
   11  A    between atoms: C_31  and  C_33
   12  A    between atoms: C_32  and  C_34
                            x       y       z     vdW  Elec       q    Type
                         _______ _______ _______ _____ _____    ______ ____

>  <TORSDO>
F 12

$$$$
=
 OpenBabel11052415463D

 34 37  0  0  1  0  0  0  0  0999 V2000
  187.2770  178.3080  142.4700 C   0  0  2  0  0  3  0  0  0  0  0  0
  186.9350  177.1410  143.3910 C   0  0  0  0  0  2  0  0  0  0  0  0
  187.4540  177.3710  144.7420 C   0  0  0  0  0  0  0  0  0  0  0  0
  187.8810  177.5610  145.8540 C   0  0  0  0  0  3  0  0  0  0  0  0
  185.9970  178.8570  141.8480 C   0  0  0  0  0  2  0  0  0  0  0  0
  184.7860  178.2520  142.5330 C   0  0  0  0  0  2  0  0  0  0  0  0
  183.7510  177.8290  141.5040 C   0  0  0  0  0  2  0  0  0  0  0  0
  183.9530  178.8380  138.6640 C   0  0  0  0  0  2  0  0  0  0  0  0
  180.7650  178.3700  140.3920 C   0  0  2  0  0  0  0  0  0  0  0  0
  181.6400  178.7990  141.5630 C   0  0  0  0  0  2  0  0  0  0  0  0
  182.9820  178.9850  141.0540 N   0  0  0  0  0  0  0  0  0  0  0  0
  181.5310  178.4020  139.2130 O   0  0  0  0  0  0  0  0  0  0  0  0
  182.7790  178.8840  139.6190 C   0  0  0  0  0  0  0  0  0  0  0  0
  179.6950  179.2580  140.2680 O   0  0  0  0  0  1  0  0  0  0  0  0
  183.1890  180.1400  138.8840 C   0  0  0  0  0  2  0  0  0  0  0  0
  180.2460  176.9840  140.6360 C   0  0  0  0  0  0  0  0  0  0  0  0
  180.6950  176.0080  139.9760 O   0  0  0  0  0  0  0  0  0  0  0  0
  179.3080  176.7580  141.6370 O   0  0  0  0  0  1  0  0  0  0  0  0
  188.2520  177.8630  141.3750 C   0  0  1  0  0  3  0  0  0  0  0  0
  187.2000  177.7660  139.2180 O   0  0  0  0  0  0  0  0  0  0  0  0
  188.5310  178.0030  138.8280 C   0  0  1  0  0  3  0  0  0  0  0  0
  187.9500  178.6030  140.0690 C   0  0  2  0  0  3  0  0  0  0  0  0
  191.0750  175.1830  138.4640 N   0  0  0  0  0  1  0  0  0  0  0  0
  190.3070  176.3390  138.1530 C   0  0  0  0  0  0  0  0  0  0  0  0
  190.4930  176.9380  137.0600 O   0  0  0  0  0  0  0  0  0  0  0  0
  189.3310  176.8100  139.0810 N   0  0  0  0  0  2  0  0  0  0  0  0
  189.5900  178.1560  141.7630 O   0  0  0  0  0  0  0  0  0  0  0  0
  190.3860  176.1030  142.6800 C   0  0  0  0  0  3  0  0  0  0  0  0
  191.7070  175.9940  144.7010 C   0  0  0  0  0  3  0  0  0  0  0  0
  191.0760  175.3540  143.6350 C   0  0  0  0  0  3  0  0  0  0  0  0
  190.9620  178.1470  143.8580 C   0  0  0  0  0  0  0  0  0  0  0  0
  190.3160  177.4980  142.7710 C   0  0  0  0  0  0  0  0  0  0  0  0
  191.6490  177.3850  144.8090 C   0  0  0  0  0  3  0  0  0  0  0  0
  190.9510  179.6230  144.0610 C   0  0  0  0  0  1  0  0  0  0  0  0
  1  5  1  6  0  0  0
  1  2  1  0  0  0  0
  2  3  1  0  0  0  0
  3  4  3  0  0  0  0
  5  6  1  0  0  0  0
  7  6  1  0  0  0  0
  8 15  1  0  0  0  0
  8 13  1  0  0  0  0
  9 14  1  6  0  0  0
  9 16  1  0  0  0  0
  9 10  1  0  0  0  0
 11  7  1  0  0  0  0
 11 10  1  0  0  0  0
 12 13  1  0  0  0  0
 12  9  1  0  0  0  0
 13 11  1  0  0  0  0
 15 13  1  0  0  0  0
 16 18  1  0  0  0  0
 17 16  2  0  0  0  0
 19 27  1  1  0  0  0
 19  1  1  0  0  0  0
 20 22  1  0  0  0  0
 21 26  1  1  0  0  0
 21 20  1  0  0  0  0
 21 22  1  0  0  0  0
 22 19  1  1  0  0  0
 24 23  1  0  0  0  0
 24 26  1  0  0  0  0
 25 24  2  0  0  0  0
 27 32  1  0  0  0  0
 28 32  2  0  0  0  0
 28 30  1  0  0  0  0
 29 33  1  0  0  0  0
 30 29  2  0  0  0  0
 31 34  1  0  0  0  0
 31 33  2  0  0  0  0
 32 31  1  0  0  0  0
M  END
>  <MODEL>
5

>  <REMARK>
 VINA RESULT:      -7.1      3.884      7.418
  Name = 
  12 active torsions:
  status: ('A' for Active; 'I' for Inactive)
    1  A    between atoms: O_1  and  C_20
    2  A    between atoms: O_1  and  C_34
    3  A    between atoms: C_4  and  N_16
    4  A    between atoms: C_4  and  C_31
    5  A    between atoms: C_5  and  C_18
    6  A    between atoms: C_5  and  C_33
    7  A    between atoms: C_5  and  C_34
    8  A    between atoms: C_7  and  C_11
    9  A    between atoms: C_8  and  C_18
   10  A    between atoms: C_23  and  N_27
   11  A    between atoms: C_31  and  C_33
   12  A    between atoms: C_32  and  C_34
                            x       y       z     vdW  Elec       q    Type
                         _______ _______ _______ _____ _____    ______ ____

>  <TORSDO>
F 12

$$$$
=
 OpenBabel11052415463D

 34 37  0  0  1  0  0  0  0  0999 V2000
  186.0820  178.3700  142.6470 C   0  0  2  0  0  3  0  0  0  0  0  0
  185.7110  178.2090  144.1190 C   0  0  0  0  0  2  0  0  0  0  0  0
  184.3240  178.6190  144.3570 C   0  0  0  0  0  0  0  0  0  0  0  0
  183.1830  178.9550  144.5530 C   0  0  0  0  0  3  0  0  0  0  0  0
  184.9000  177.9580  141.7770 C   0  0  0  0  0  2  0  0  0  0  0  0
  184.7230  178.9450  140.6390 C   0  0  0  0  0  2  0  0  0  0  0  0
  183.6310  178.4740  139.6930 C   0  0  0  0  0  2  0  0  0  0  0  0
  181.0070  179.3680  140.8940 C   0  0  0  0  0  2  0  0  0  0  0  0
  181.3340  176.3730  138.8230 C   0  0  2  0  0  0  0  0  0  0  0  0
  182.6860  176.3570  139.5250 C   0  0  0  0  0  2  0  0  0  0  0  0
  182.7470  177.5300  140.3710 N   0  0  0  0  0  0  0  0  0  0  0  0
  180.5790  177.4540  139.3100 O   0  0  0  0  0  0  0  0  0  0  0  0
  181.3840  178.0280  140.2980 C   0  0  0  0  0  0  0  0  0  0  0  0
  180.6600  175.1820  139.0960 O   0  0  0  0  0  1  0  0  0  0  0  0
  180.7100  178.0770  141.6490 C   0  0  0  0  0  2  0  0  0  0  0  0
  181.5410  176.5090  137.3430 C   0  0  0  0  0  0  0  0  0  0  0  0
  181.2510  175.5570  136.5690 O   0  0  0  0  0  0  0  0  0  0  0  0
  181.9970  177.7080  136.8110 O   0  0  0  0  0  1  0  0  0  0  0  0
  187.3140  177.5250  142.3070 C   0  0  1  0  0  3  0  0  0  0  0  0
  188.0230  179.4290  141.0270 O   0  0  0  0  0  0  0  0  0  0  0  0
  188.8450  178.4370  140.4610 C   0  0  1  0  0  3  0  0  0  0  0  0
  188.4820  178.4330  141.9120 C   0  0  2  0  0  3  0  0  0  0  0  0
  186.8490  176.9220  137.5850 N   0  0  0  0  0  1  0  0  0  0  0  0
  187.6220  177.8550  138.3300 C   0  0  0  0  0  0  0  0  0  0  0  0
  187.9380  178.9590  137.8120 O   0  0  0  0  0  0  0  0  0  0  0  0
  188.0310  177.5320  139.6580 N   0  0  0  0  0  2  0  0  0  0  0  0
  187.7040  176.7520  143.4380 O   0  0  0  0  0  0  0  0  0  0  0  0
  189.9650  176.0360  143.1820 C   0  0  0  0  0  3  0  0  0  0  0  0
  191.6550  176.4040  144.8700 C   0  0  0  0  0  3  0  0  0  0  0  0
  191.2820  175.9000  143.6240 C   0  0  0  0  0  3  0  0  0  0  0  0
  189.3860  177.1880  145.2400 C   0  0  0  0  0  0  0  0  0  0  0  0
  189.0010  176.6760  143.9720 C   0  0  0  0  0  0  0  0  0  0  0  0
  190.7100  177.0450  145.6720 C   0  0  0  0  0  3  0  0  0  0  0  0
  188.4490  177.8820  146.1670 C   0  0  0  0  0  1  0  0  0  0  0  0
  1  5  1  6  0  0  0
  1  2  1  0  0  0  0
  2  3  1  0  0  0  0
  3  4  3  0  0  0  0
  6  5  1  0  0  0  0
  7 11  1  0  0  0  0
  7  6  1  0  0  0  0
  8 15  1  0  0  0  0
  9 14  1  1  0  0  0
  9 12  1  0  0  0  0
  9 10  1  0  0  0  0
 10 11  1  0  0  0  0
 12 13  1  0  0  0  0
 13 11  1  0  0  0  0
 13  8  1  0  0  0  0
 13 15  1  0  0  0  0
 16  9  1  0  0  0  0
 17 16  2  0  0  0  0
 18 16  1  0  0  0  0
 19  1  1  0  0  0  0
 19 27  1  1  0  0  0
 20 22  1  0  0  0  0
 21 26  1  6  0  0  0
 21 20  1  0  0  0  0
 21 22  1  0  0  0  0
 22 19  1  6  0  0  0
 23 24  1  0  0  0  0
 24 26  1  0  0  0  0
 25 24  2  0  0  0  0
 27 32  1  0  0  0  0
 28 30  2  0  0  0  0
 28 32  1  0  0  0  0
 29 33  2  0  0  0  0
 30 29  1  0  0  0  0
 31 33  1  0  0  0  0
 31 34  1  0  0  0  0
 32 31  2  0  0  0  0
M  END
>  <MODEL>
6

>  <REMARK>
 VINA RESULT:      -7.0      4.218      7.052
  Name = 
  12 active torsions:
  status: ('A' for Active; 'I' for Inactive)
    1  A    between atoms: O_1  and  C_20
    2  A    between atoms: O_1  and  C_34
    3  A    between atoms: C_4  and  N_16
    4  A    between atoms: C_4  and  C_31
    5  A    between atoms: C_5  and  C_18
    6  A    between atoms: C_5  and  C_33
    7  A    between atoms: C_5  and  C_34
    8  A    between atoms: C_7  and  C_11
    9  A    between atoms: C_8  and  C_18
   10  A    between atoms: C_23  and  N_27
   11  A    between atoms: C_31  and  C_33
   12  A    between atoms: C_32  and  C_34
                            x       y       z     vdW  Elec       q    Type
                         _______ _______ _______ _____ _____    ______ ____

>  <TORSDO>
F 12

$$$$
=
 OpenBabel11052415463D

 34 37  0  0  1  0  0  0  0  0999 V2000
  185.9660  178.4130  142.6680 C   0  0  2  0  0  3  0  0  0  0  0  0
  185.6440  178.2510  144.1510 C   0  0  0  0  0  2  0  0  0  0  0  0
  184.2660  178.6630  144.4350 C   0  0  0  0  0  0  0  0  0  0  0  0
  183.1330  179.0020  144.6680 C   0  0  0  0  0  3  0  0  0  0  0  0
  184.7680  177.9710  141.8360 C   0  0  0  0  0  2  0  0  0  0  0  0
  184.7360  178.7320  140.5240 C   0  0  0  0  0  2  0  0  0  0  0  0
  184.1130  177.8790  139.4310 C   0  0  0  0  0  2  0  0  0  0  0  0
  182.3380  176.6910  137.2950 C   0  0  0  0  0  2  0  0  0  0  0  0
  181.3610  179.5700  139.3240 C   0  0  2  0  0  0  0  0  0  0  0  0
  182.8590  179.8240  139.2100 C   0  0  0  0  0  2  0  0  0  0  0  0
  183.4270  178.7250  138.4590 N   0  0  0  0  0  0  0  0  0  0  0  0
  181.0340  178.4240  138.5800 O   0  0  0  0  0  0  0  0  0  0  0  0
  182.2390  178.0320  137.9900 C   0  0  0  0  0  0  0  0  0  0  0  0
  180.6700  180.6670  138.8060 O   0  0  0  0  0  1  0  0  0  0  0  0
  182.1600  177.9690  136.4820 C   0  0  0  0  0  2  0  0  0  0  0  0
  180.9940  179.3770  140.7650 C   0  0  0  0  0  0  0  0  0  0  0  0
  181.2990  178.3100  141.3640 O   0  0  0  0  0  0  0  0  0  0  0  0
  180.3670  180.3990  141.4680 O   0  0  0  0  0  1  0  0  0  0  0  0
  187.2060  177.5940  142.2940 C   0  0  1  0  0  3  0  0  0  0  0  0
  187.9300  179.4620  140.9700 O   0  0  0  0  0  0  0  0  0  0  0  0
  188.8230  178.4780  140.5090 C   0  0  1  0  0  3  0  0  0  0  0  0
  188.3640  178.5280  141.9310 C   0  0  2  0  0  3  0  0  0  0  0  0
  187.0680  176.7560  137.5930 N   0  0  0  0  0  1  0  0  0  0  0  0
  187.7530  177.7540  138.3400 C   0  0  0  0  0  0  0  0  0  0  0  0
  188.0470  178.8510  137.7950 O   0  0  0  0  0  0  0  0  0  0  0  0
  188.1000  177.5030  139.7000 N   0  0  0  0  0  2  0  0  0  0  0  0
  187.6060  176.7830  143.3940 O   0  0  0  0  0  0  0  0  0  0  0  0
  189.8800  176.1070  143.1470 C   0  0  0  0  0  3  0  0  0  0  0  0
  191.5500  176.4730  144.8560 C   0  0  0  0  0  3  0  0  0  0  0  0
  191.1960  175.9850  143.5980 C   0  0  0  0  0  3  0  0  0  0  0  0
  189.2650  177.2150  145.2190 C   0  0  0  0  0  0  0  0  0  0  0  0
  188.9000  176.7180  143.9380 C   0  0  0  0  0  0  0  0  0  0  0  0
  190.5870  177.0850  145.6600 C   0  0  0  0  0  3  0  0  0  0  0  0
  188.3090  177.8780  146.1490 C   0  0  0  0  0  1  0  0  0  0  0  0
  1  5  1  6  0  0  0
  1  2  1  0  0  0  0
  2  3  1  0  0  0  0
  3  4  3  0  0  0  0
  6  5  1  0  0  0  0
  7  6  1  0  0  0  0
  8 13  1  0  0  0  0
  9 14  1  6  0  0  0
  9 16  1  0  0  0  0
 10  9  1  0  0  0  0
 11 10  1  0  0  0  0
 11  7  1  0  0  0  0
 12  9  1  0  0  0  0
 13 11  1  0  0  0  0
 13 12  1  0  0  0  0
 15  8  1  0  0  0  0
 15 13  1  0  0  0  0
 16 17  2  0  0  0  0
 16 18  1  0  0  0  0
 19  1  1  0  0  0  0
 19 27  1  1  0  0  0
 20 22  1  0  0  0  0
 21 26  1  6  0  0  0
 21 20  1  0  0  0  0
 21 22  1  0  0  0  0
 22 19  1  6  0  0  0
 23 24  1  0  0  0  0
 24 26  1  0  0  0  0
 25 24  2  0  0  0  0
 27 32  1  0  0  0  0
 28 30  2  0  0  0  0
 28 32  1  0  0  0  0
 29 33  2  0  0  0  0
 30 29  1  0  0  0  0
 31 33  1  0  0  0  0
 31 34  1  0  0  0  0
 32 31  2  0  0  0  0
M  END
>  <MODEL>
7

>  <REMARK>
 VINA RESULT:      -7.0      4.045      7.090
  Name = 
  12 active torsions:
  status: ('A' for Active; 'I' for Inactive)
    1  A    between atoms: O_1  and  C_20
    2  A    between atoms: O_1  and  C_34
    3  A    between atoms: C_4  and  N_16
    4  A    between atoms: C_4  and  C_31
    5  A    between atoms: C_5  and  C_18
    6  A    between atoms: C_5  and  C_33
    7  A    between atoms: C_5  and  C_34
    8  A    between atoms: C_7  and  C_11
    9  A    between atoms: C_8  and  C_18
   10  A    between atoms: C_23  and  N_27
   11  A    between atoms: C_31  and  C_33
   12  A    between atoms: C_32  and  C_34
                            x       y       z     vdW  Elec       q    Type
                         _______ _______ _______ _____ _____    ______ ____

>  <TORSDO>
F 12

$$$$
=
 OpenBabel11052415463D

 34 37  0  0  1  0  0  0  0  0999 V2000
  189.1960  177.9880  142.3680 C   0  0  2  0  0  3  0  0  0  0  0  0
  189.8400  179.3680  142.4750 C   0  0  0  0  0  2  0  0  0  0  0  0
  190.8900  179.3770  143.4970 C   0  0  0  0  0  0  0  0  0  0  0  0
  191.7550  179.3860  144.3380 C   0  0  0  0  0  3  0  0  0  0  0  0
  188.4690  177.8700  141.0330 C   0  0  0  0  0  2  0  0  0  0  0  0
  189.4250  178.1620  139.8920 C   0  0  0  0  0  2  0  0  0  0  0  0
  189.7140  176.8950  139.1040 C   0  0  0  0  0  2  0  0  0  0  0  0
  189.8530  174.6920  137.0430 C   0  0  0  0  0  2  0  0  0  0  0  0
  187.6530  177.5930  136.7150 C   0  0  2  0  0  0  0  0  0  0  0  0
  188.8380  178.2380  137.4220 C   0  0  0  0  0  2  0  0  0  0  0  0
  189.8080  177.1950  137.6790 N   0  0  0  0  0  0  0  0  0  0  0  0
  187.9510  176.2420  136.4650 O   0  0  0  0  0  0  0  0  0  0  0  0
  189.2600  176.0800  136.9270 C   0  0  0  0  0  0  0  0  0  0  0  0
  187.4310  178.2460  135.5020 O   0  0  0  0  0  1  0  0  0  0  0  0
  190.2020  175.5820  135.8550 C   0  0  0  0  0  2  0  0  0  0  0  0
  186.4320  177.7050  137.5790 C   0  0  0  0  0  0  0  0  0  0  0  0
  186.3340  178.6320  138.4280 O   0  0  0  0  0  1  0  0  0  0  0  0
  185.3740  176.8200  137.4080 O   0  0  0  0  0  0  0  0  0  0  0  0
  188.2210  177.7570  143.5270 C   0  0  1  0  0  3  0  0  0  0  0  0
  186.1380  178.7210  142.8210 O   0  0  0  0  0  0  0  0  0  0  0  0
  185.6830  177.9080  143.8750 C   0  0  1  0  0  3  0  0  0  0  0  0
  186.8130  177.4960  142.9860 C   0  0  2  0  0  3  0  0  0  0  0  0
  185.6880  179.5100  147.3370 N   0  0  0  0  0  1  0  0  0  0  0  0
  185.2030  178.9970  146.1020 C   0  0  0  0  0  0  0  0  0  0  0  0
  183.9670  179.0120  145.8610 O   0  0  0  0  0  0  0  0  0  0  0  0
  186.1230  178.4700  145.1470 N   0  0  0  0  0  2  0  0  0  0  0  0
  188.6300  176.6280  144.2920 O   0  0  0  0  0  0  0  0  0  0  0  0
  189.1130  177.1290  146.5740 C   0  0  0  0  0  3  0  0  0  0  0  0
  191.2890  176.7670  147.5620 C   0  0  0  0  0  3  0  0  0  0  0  0
  189.9650  177.1910  147.6780 C   0  0  0  0  0  3  0  0  0  0  0  0
  190.9140  176.2090  145.2280 C   0  0  0  0  0  0  0  0  0  0  0  0
  189.5650  176.6410  145.3410 C   0  0  0  0  0  0  0  0  0  0  0  0
  191.7580  176.2790  146.3420 C   0  0  0  0  0  3  0  0  0  0  0  0
  191.5070  175.6790  143.9690 C   0  0  0  0  0  1  0  0  0  0  0  0
  1  5  1  6  0  0  0
  1  2  1  0  0  0  0
  1 19  1  0  0  0  0
  2  3  1  0  0  0  0
  3  4  3  0  0  0  0
  6  5  1  0  0  0  0
  7  6  1  0  0  0  0
  9 14  1  6  0  0  0
  9 10  1  0  0  0  0
  9 16  1  0  0  0  0
 10 11  1  0  0  0  0
 11  7  1  0  0  0  0
 12  9  1  0  0  0  0
 12 13  1  0  0  0  0
 13  8  1  0  0  0  0
 13 11  1  0  0  0  0
 15 13  1  0  0  0  0
 15  8  1  0  0  0  0
 16 17  1  0  0  0  0
 18 16  2  0  0  0  0
 19 27  1  6  0  0  0
 20 22  1  0  0  0  0
 20 21  1  0  0  0  0
 21 26  1  1  0  0  0
 22 19  1  1  0  0  0
 22 21  1  0  0  0  0
 24 23  1  0  0  0  0
 25 24  2  0  0  0  0
 26 24  1  0  0  0  0
 27 32  1  0  0  0  0
 28 30  1  0  0  0  0
 29 30  2  0  0  0  0
 31 32  1  0  0  0  0
 31 33  2  0  0  0  0
 32 28  2  0  0  0  0
 33 29  1  0  0  0  0
 34 31  1  0  0  0  0
M  END
>  <MODEL>
8

>  <REMARK>
 VINA RESULT:      -6.9      2.877      4.844
  Name = 
  12 active torsions:
  status: ('A' for Active; 'I' for Inactive)
    1  A    between atoms: O_1  and  C_20
    2  A    between atoms: O_1  and  C_34
    3  A    between atoms: C_4  and  N_16
    4  A    between atoms: C_4  and  C_31
    5  A    between atoms: C_5  and  C_18
    6  A    between atoms: C_5  and  C_33
    7  A    between atoms: C_5  and  C_34
    8  A    between atoms: C_7  and  C_11
    9  A    between atoms: C_8  and  C_18
   10  A    between atoms: C_23  and  N_27
   11  A    between atoms: C_31  and  C_33
   12  A    between atoms: C_32  and  C_34
                            x       y       z     vdW  Elec       q    Type
                         _______ _______ _______ _____ _____    ______ ____

>  <TORSDO>
F 12

$$$$
=
 OpenBabel11052415463D

 34 37  0  0  1  0  0  0  0  0999 V2000
  186.8970  178.8220  141.3010 C   0  0  2  0  0  3  0  0  0  0  0  0
  186.1050  178.0250  140.2670 C   0  0  0  0  0  2  0  0  0  0  0  0
  185.0690  178.8560  139.6470 C   0  0  0  0  0  0  0  0  0  0  0  0
  184.2180  179.5400  139.1360 C   0  0  0  0  0  3  0  0  0  0  0  0
  188.3880  178.6850  141.0150 C   0  0  0  0  0  2  0  0  0  0  0  0
  188.6260  178.6120  139.5180 C   0  0  0  0  0  2  0  0  0  0  0  0
  189.5990  177.4930  139.1890 C   0  0  0  0  0  2  0  0  0  0  0  0
  191.1590  175.2900  137.8320 C   0  0  0  0  0  2  0  0  0  0  0  0
  188.4700  177.1370  136.1820 C   0  0  2  0  0  0  0  0  0  0  0  0
  189.0490  178.2410  137.0590 C   0  0  0  0  0  2  0  0  0  0  0  0
  190.1210  177.6570  137.8360 N   0  0  0  0  0  0  0  0  0  0  0  0
  189.2350  175.9700  136.3510 O   0  0  0  0  0  0  0  0  0  0  0  0
  190.2600  176.3460  137.2240 C   0  0  0  0  0  0  0  0  0  0  0  0
  188.5290  177.5350  134.8450 O   0  0  0  0  0  1  0  0  0  0  0  0
  191.6370  176.1180  136.6440 C   0  0  0  0  0  2  0  0  0  0  0  0
  187.0440  176.8850  136.5720 C   0  0  0  0  0  0  0  0  0  0  0  0
  186.1350  177.6850  136.2210 O   0  0  0  0  0  0  0  0  0  0  0  0
  186.7060  175.7330  137.2720 O   0  0  0  0  0  1  0  0  0  0  0  0
  186.5790  178.3310  142.7170 C   0  0  1  0  0  3  0  0  0  0  0  0
  184.3090  179.1090  142.8100 O   0  0  0  0  0  0  0  0  0  0  0  0
  184.3820  178.4270  144.0380 C   0  0  1  0  0  3  0  0  0  0  0  0
  185.1010  177.9440  142.8200 C   0  0  2  0  0  3  0  0  0  0  0  0
  186.0180  179.7480  147.2210 N   0  0  0  0  0  1  0  0  0  0  0  0
  185.1430  179.0130  146.3730 C   0  0  0  0  0  0  0  0  0  0  0  0
  184.2950  178.2310  146.8780 O   0  0  0  0  0  0  0  0  0  0  0  0
  185.2340  179.1700  144.9580 N   0  0  0  0  0  2  0  0  0  0  0  0
  187.3690  177.1890  143.0280 O   0  0  0  0  0  0  0  0  0  0  0  0
  188.0930  177.6610  145.2510 C   0  0  0  0  0  3  0  0  0  0  0  0
  190.3160  177.1390  146.0450 C   0  0  0  0  0  3  0  0  0  0  0  0
  189.0430  177.6630  146.2740 C   0  0  0  0  0  3  0  0  0  0  0  0
  189.6910  176.6020  143.7600 C   0  0  0  0  0  0  0  0  0  0  0  0
  188.3940  177.1350  143.9880 C   0  0  0  0  0  0  0  0  0  0  0  0
  190.6350  176.6120  144.7930 C   0  0  0  0  0  3  0  0  0  0  0  0
  190.1260  176.0230  142.4580 C   0  0  0  0  0  1  0  0  0  0  0  0
  1  2  1  6  0  0  0
  1 19  1  0  0  0  0
  3  2  1  0  0  0  0
  4  3  3  0  0  0  0
  5  1  1  0  0  0  0
  6  5  1  0  0  0  0
  7  6  1  0  0  0  0
  9 14  1  6  0  0  0
  9 12  1  0  0  0  0
  9 16  1  0  0  0  0
  9 10  1  0  0  0  0
 10 11  1  0  0  0  0
 11  7  1  0  0  0  0
 12 13  1  0  0  0  0
 13  8  1  0  0  0  0
 13 11  1  0  0  0  0
 15 13  1  0  0  0  0
 15  8  1  0  0  0  0
 16 18  1  0  0  0  0
 17 16  2  0  0  0  0
 19 27  1  6  0  0  0
 20 22  1  0  0  0  0
 20 21  1  0  0  0  0
 21 26  1  1  0  0  0
 22 19  1  1  0  0  0
 22 21  1  0  0  0  0
 24 25  2  0  0  0  0
 24 23  1  0  0  0  0
 26 24  1  0  0  0  0
 27 32  1  0  0  0  0
 28 30  1  0  0  0  0
 29 30  2  0  0  0  0
 31 32  1  0  0  0  0
 31 33  2  0  0  0  0
 32 28  2  0  0  0  0
 33 29  1  0  0  0  0
 34 31  1  0  0  0  0
M  END
>  <MODEL>
9

>  <REMARK>
 VINA RESULT:      -6.7      2.744      4.598
  Name = 
  12 active torsions:
  status: ('A' for Active; 'I' for Inactive)
    1  A    between atoms: O_1  and  C_20
    2  A    between atoms: O_1  and  C_34
    3  A    between atoms: C_4  and  N_16
    4  A    between atoms: C_4  and  C_31
    5  A    between atoms: C_5  and  C_18
    6  A    between atoms: C_5  and  C_33
    7  A    between atoms: C_5  and  C_34
    8  A    between atoms: C_7  and  C_11
    9  A    between atoms: C_8  and  C_18
   10  A    between atoms: C_23  and  N_27
   11  A    between atoms: C_31  and  C_33
   12  A    between atoms: C_32  and  C_34
                            x       y       z     vdW  Elec       q    Type
                         _______ _______ _______ _____ _____    ______ ____

>  <TORSDO>
F 12

$$$$
