=
 OpenBabel11052413143D

 31 35  0  0  1  0  0  0  0  0999 V2000
  183.6380  179.0030  144.5470 C   0  0  0  0  0  0  0  0  0  0  0  0
  186.6720  178.6760  142.3470 N   0  0  0  0  0  0  0  0  0  0  0  0
  187.6930  177.9520  143.0720 C   0  0  0  0  0  0  0  0  0  0  0  0
  184.0570  177.3540  138.0000 O   0  0  0  0  0  0  0  0  0  0  0  0
  185.2240  177.7080  137.6750 C   0  0  0  0  0  0  0  0  0  0  0  0
  188.6860  177.1270  145.1310 C   0  0  0  0  0  0  0  0  0  0  0  0
  185.3080  178.7410  142.8070 C   0  0  0  0  0  0  0  0  0  0  0  0
  182.6220  178.8030  143.6070 C   0  0  0  0  0  3  0  0  0  0  0  0
  187.6840  177.8440  144.4710 C   0  0  0  0  0  3  0  0  0  0  0  0
  185.8310  178.4730  140.0330 C   0  0  0  0  0  0  0  0  0  0  0  0
  183.3230  179.2220  145.8470 F   0  0  0  0  0  0  0  0  0  0  0  0
  188.6880  177.4240  140.8620 C   0  0  0  0  0  2  0  0  0  0  0  0
  188.6680  177.0190  146.6120 C   0  0  0  0  0  1  0  0  0  0  0  0
  184.6190  178.3180  140.4890 N   0  0  0  0  0  0  0  0  0  0  0  0
  186.8980  179.0530  140.9350 C   0  0  2  0  0  3  0  0  0  0  0  0
  186.1250  178.2490  138.6470 N   0  0  0  0  0  2  0  0  0  0  0  0
  184.9780  178.9690  144.1500 C   0  0  0  0  0  3  0  0  0  0  0  0
  189.7010  176.5070  144.3960 C   0  0  0  0  0  3  0  0  0  0  0  0
  184.2820  178.5570  141.8630 C   0  0  0  0  0  0  0  0  0  0  0  0
  182.9440  178.5780  142.2660 C   0  0  0  0  0  3  0  0  0  0  0  0
  188.2630  178.7640  140.4640 N   0  0  0  0  0  2  0  0  0  0  0  0
  188.7210  177.3360  142.3480 C   0  0  0  0  0  0  0  0  0  0  0  0
  189.7170  176.6070  143.0020 C   0  0  0  0  0  3  0  0  0  0  0  0
  187.1610  175.0260  135.8390 C   0  0  1  0  0  3  0  0  0  0  0  0
  185.0460  176.3540  135.5650 C   0  0  0  0  0  2  0  0  0  0  0  0
  187.9120  178.6810  136.7900 C   0  0  0  0  0  1  0  0  0  0  0  0
  187.7330  173.7170  136.3400 C   0  0  0  0  0  1  0  0  0  0  0  0
  185.6490  175.0330  136.0480 C   0  0  0  0  0  2  0  0  0  0  0  0
  187.2290  177.5100  136.1050 C   0  0  2  0  0  3  0  0  0  0  0  0
  185.6970  177.5560  136.2560 C   0  0  2  0  0  3  0  0  0  0  0  0
  187.8070  176.1840  136.5950 C   0  0  0  0  0  2  0  0  0  0  0  0
  1 11  1  0  0  0  0
  2  7  1  0  0  0  0
  2  3  1  0  0  0  0
  3  9  1  0  0  0  0
  5  4  2  0  0  0  0
  5 16  1  0  0  0  0
  6 13  1  0  0  0  0
  7 17  2  0  0  0  0
  8  1  2  0  0  0  0
  9  6  2  0  0  0  0
 10 14  2  0  0  0  0
 12 22  1  0  0  0  0
 14 19  1  0  0  0  0
 15 10  1  6  0  0  0
 15  2  1  0  0  0  0
 16 10  1  0  0  0  0
 17  1  1  0  0  0  0
 18  6  1  0  0  0  0
 19 20  2  0  0  0  0
 19  7  1  0  0  0  0
 20  8  1  0  0  0  0
 21 12  1  0  0  0  0
 21 15  1  0  0  0  0
 22 23  1  0  0  0  0
 22  3  2  0  0  0  0
 23 18  2  0  0  0  0
 24 28  1  0  0  0  0
 24 27  1  1  0  0  0
 24 31  1  0  0  0  0
 25 28  1  0  0  0  0
 25 30  1  0  0  0  0
 29 30  1  0  0  0  0
 29 31  1  0  0  0  0
 29 26  1  1  0  0  0
 30  5  1  1  0  0  0
M  END
>  <MODEL>
1

>  <REMARK>
 VINA RESULT:      -9.5      0.000      0.000
  Name = 
  1 active torsions:
  status: ('A' for Active; 'I' for Inactive)
    1  A    between atoms: C_9  and  C_22
                            x       y       z     vdW  Elec       q    Type
                         _______ _______ _______ _____ _____    ______ ____

>  <TORSDO>
F 1

$$$$
=
 OpenBabel11052413143D

 31 35  0  0  1  0  0  0  0  0999 V2000
  180.7060  178.7290  143.2600 C   0  0  0  0  0  0  0  0  0  0  0  0
  184.2860  178.9670  142.1270 N   0  0  0  0  0  0  0  0  0  0  0  0
  185.1440  178.5780  143.2230 C   0  0  0  0  0  0  0  0  0  0  0  0
  183.5380  176.6850  137.4670 O   0  0  0  0  0  0  0  0  0  0  0  0
  184.6490  177.2830  137.4480 C   0  0  0  0  0  0  0  0  0  0  0  0
  185.5690  178.1970  145.5850 C   0  0  0  0  0  0  0  0  0  0  0  0
  182.8630  178.7370  142.1500 C   0  0  0  0  0  0  0  0  0  0  0  0
  180.1110  178.2090  142.1050 C   0  0  0  0  0  3  0  0  0  0  0  0
  184.7080  178.5900  144.5560 C   0  0  0  0  0  3  0  0  0  0  0  0
  184.2950  178.3700  139.7300 C   0  0  0  0  0  0  0  0  0  0  0  0
  179.9510  178.9750  144.3580 F   0  0  0  0  0  0  0  0  0  0  0  0
  186.8840  178.1230  141.5140 C   0  0  0  0  0  2  0  0  0  0  0  0
  185.0970  178.2140  146.9940 C   0  0  0  0  0  1  0  0  0  0  0  0
  183.0600  177.9640  139.8280 N   0  0  0  0  0  0  0  0  0  0  0  0
  184.8710  179.2670  140.8020 C   0  0  2  0  0  3  0  0  0  0  0  0
  185.0580  178.1080  138.5440 N   0  0  0  0  0  2  0  0  0  0  0  0
  182.0790  178.9900  143.2830 C   0  0  0  0  0  3  0  0  0  0  0  0
  186.8710  177.7830  145.2880 C   0  0  0  0  0  3  0  0  0  0  0  0
  182.2570  178.2280  140.9870 C   0  0  0  0  0  0  0  0  0  0  0  0
  180.8860  177.9570  140.9710 C   0  0  0  0  0  3  0  0  0  0  0  0
  186.3440  179.2810  140.8050 N   0  0  0  0  0  2  0  0  0  0  0  0
  186.4540  178.1720  142.9390 C   0  0  0  0  0  0  0  0  0  0  0  0
  187.3130  177.7660  143.9630 C   0  0  0  0  0  3  0  0  0  0  0  0
  186.6120  174.3790  136.0240 C   0  0  1  0  0  3  0  0  0  0  0  0
  185.0190  176.1530  135.2330 C   0  0  0  0  0  2  0  0  0  0  0  0
  187.6020  177.7050  137.6920 C   0  0  0  0  0  1  0  0  0  0  0  0
  186.7170  172.9440  136.4980 C   0  0  0  0  0  1  0  0  0  0  0  0
  185.1560  174.7010  135.6990 C   0  0  0  0  0  2  0  0  0  0  0  0
  187.0200  176.7630  136.6530 C   0  0  2  0  0  3  0  0  0  0  0  0
  185.5740  177.1320  136.2720 C   0  0  2  0  0  3  0  0  0  0  0  0
  187.1310  175.3120  137.1150 C   0  0  0  0  0  2  0  0  0  0  0  0
  1 17  1  0  0  0  0
  1 11  1  0  0  0  0
  2  7  1  0  0  0  0
  2  3  1  0  0  0  0
  3  9  1  0  0  0  0
  5  4  2  0  0  0  0
  5 16  1  0  0  0  0
  6 13  1  0  0  0  0
  7 17  2  0  0  0  0
  8  1  2  0  0  0  0
  9  6  2  0  0  0  0
 10 14  2  0  0  0  0
 12 22  1  0  0  0  0
 14 19  1  0  0  0  0
 15 10  1  6  0  0  0
 15 21  1  0  0  0  0
 15  2  1  0  0  0  0
 16 10  1  0  0  0  0
 18  6  1  0  0  0  0
 19  7  1  0  0  0  0
 20 19  2  0  0  0  0
 20  8  1  0  0  0  0
 21 12  1  0  0  0  0
 22  3  2  0  0  0  0
 22 23  1  0  0  0  0
 23 18  2  0  0  0  0
 24 27  1  1  0  0  0
 24 31  1  0  0  0  0
 25 28  1  0  0  0  0
 25 30  1  0  0  0  0
 28 24  1  0  0  0  0
 29 31  1  0  0  0  0
 29 26  1  1  0  0  0
 30 29  1  0  0  0  0
 30  5  1  1  0  0  0
M  END
>  <MODEL>
2

>  <REMARK>
 VINA RESULT:      -9.3      1.565      2.272
  Name = 
  1 active torsions:
  status: ('A' for Active; 'I' for Inactive)
    1  A    between atoms: C_9  and  C_22
                            x       y       z     vdW  Elec       q    Type
                         _______ _______ _______ _____ _____    ______ ____

>  <TORSDO>
F 1

$$$$
=
 OpenBabel11052413143D

 31 35  0  0  1  0  0  0  0  0999 V2000
  185.1040  178.7800  145.9660 C   0  0  0  0  0  0  0  0  0  0  0  0
  187.0790  178.6270  142.7680 N   0  0  0  0  0  0  0  0  0  0  0  0
  188.2870  177.8710  143.0070 C   0  0  0  0  0  0  0  0  0  0  0  0
  182.9990  177.5480  139.6560 O   0  0  0  0  0  0  0  0  0  0  0  0
  183.9610  177.9350  138.9380 C   0  0  0  0  0  0  0  0  0  0  0  0
  189.9740  176.9300  144.4830 C   0  0  0  0  0  0  0  0  0  0  0  0
  185.9900  178.6470  143.7110 C   0  0  0  0  0  0  0  0  0  0  0  0
  183.8050  178.6280  145.4680 C   0  0  0  0  0  3  0  0  0  0  0  0
  188.8060  177.6760  144.2960 C   0  0  0  0  0  3  0  0  0  0  0  0
  185.4240  178.5590  140.9340 C   0  0  0  0  0  0  0  0  0  0  0  0
  185.3050  178.9150  147.2990 F   0  0  0  0  0  0  0  0  0  0  0  0
  188.3680  177.4930  140.5560 C   0  0  0  0  0  2  0  0  0  0  0  0
  190.5150  176.7300  145.8510 C   0  0  0  0  0  1  0  0  0  0  0  0
  184.4720  178.3620  141.8030 N   0  0  0  0  0  0  0  0  0  0  0  0
  186.7590  179.0930  141.4010 C   0  0  2  0  0  3  0  0  0  0  0  0
  185.1700  178.4250  139.5290 N   0  0  0  0  0  2  0  0  0  0  0  0
  186.1930  178.7870  145.0910 C   0  0  0  0  0  3  0  0  0  0  0  0
  190.6280  176.3690  143.3820 C   0  0  0  0  0  3  0  0  0  0  0  0
  184.6810  178.5100  143.2150 C   0  0  0  0  0  0  0  0  0  0  0  0
  183.5950  178.4900  144.0930 C   0  0  0  0  0  3  0  0  0  0  0  0
  187.8420  178.8510  140.4330 N   0  0  0  0  0  2  0  0  0  0  0  0
  188.9580  177.3130  141.9120 C   0  0  0  0  0  0  0  0  0  0  0  0
  190.1180  176.5560  142.0950 C   0  0  0  0  0  3  0  0  0  0  0  0
  182.6580  175.3490  136.5020 C   0  0  1  0  0  3  0  0  0  0  0  0
  182.4060  177.8040  136.9670 C   0  0  0  0  0  2  0  0  0  0  0  0
  186.1510  176.7900  137.2470 C   0  0  0  0  0  1  0  0  0  0  0  0
  182.0580  173.9820  136.7570 C   0  0  0  0  0  1  0  0  0  0  0  0
  181.8100  176.4130  137.1940 C   0  0  0  0  0  2  0  0  0  0  0  0
  184.7010  176.7590  136.7940 C   0  0  2  0  0  3  0  0  0  0  0  0
  183.8610  177.8780  137.4380 C   0  0  2  0  0  3  0  0  0  0  0  0
  184.0880  175.3810  137.0350 C   0  0  0  0  0  2  0  0  0  0  0  0
  1 11  1  0  0  0  0
  2  3  1  0  0  0  0
  2  7  1  0  0  0  0
  3  9  1  0  0  0  0
  5 16  1  0  0  0  0
  5  4  2  0  0  0  0
  6 13  1  0  0  0  0
  7 17  1  0  0  0  0
  8  1  1  0  0  0  0
  9  6  2  0  0  0  0
 10 15  1  0  0  0  0
 10 14  2  0  0  0  0
 12 22  1  0  0  0  0
 14 19  1  0  0  0  0
 15 21  1  6  0  0  0
 15  2  1  0  0  0  0
 16 10  1  0  0  0  0
 17  1  2  0  0  0  0
 18  6  1  0  0  0  0
 19  7  2  0  0  0  0
 19 20  1  0  0  0  0
 20  8  2  0  0  0  0
 21 12  1  0  0  0  0
 22 23  1  0  0  0  0
 22  3  2  0  0  0  0
 23 18  2  0  0  0  0
 24 27  1  1  0  0  0
 24 31  1  0  0  0  0
 24 28  1  0  0  0  0
 25 28  1  0  0  0  0
 25 30  1  0  0  0  0
 29 31  1  0  0  0  0
 29 26  1  1  0  0  0
 29 30  1  0  0  0  0
 30  5  1  1  0  0  0
M  END
>  <MODEL>
3

>  <REMARK>
 VINA RESULT:      -9.0      1.673      2.303
  Name = 
  1 active torsions:
  status: ('A' for Active; 'I' for Inactive)
    1  A    between atoms: C_9  and  C_22
                            x       y       z     vdW  Elec       q    Type
                         _______ _______ _______ _____ _____    ______ ____

>  <TORSDO>
F 1

$$$$
=
 OpenBabel11052413143D

 31 35  0  0  1  0  0  0  0  0999 V2000
  189.4060  177.5510  141.7430 C   0  0  0  0  0  0  0  0  0  0  0  0
  185.8180  177.8140  142.8430 N   0  0  0  0  0  0  0  0  0  0  0  0
  185.7890  178.1410  144.2510 C   0  0  0  0  0  0  0  0  0  0  0  0
  184.1810  180.5960  138.7120 O   0  0  0  0  0  0  0  0  0  0  0  0
  183.1720  180.1170  139.3000 C   0  0  0  0  0  0  0  0  0  0  0  0
  186.8190  178.2530  146.4500 C   0  0  0  0  0  0  0  0  0  0  0  0
  187.0260  177.8990  142.0630 C   0  0  0  0  0  0  0  0  0  0  0  0
  189.3280  178.1560  140.4840 C   0  0  0  0  0  3  0  0  0  0  0  0
  186.8860  177.9130  145.0950 C   0  0  0  0  0  3  0  0  0  0  0  0
  184.5650  178.7140  140.9130 C   0  0  0  0  0  0  0  0  0  0  0  0
  190.5960  177.0930  142.2010 F   0  0  0  0  0  0  0  0  0  0  0  0
  183.4870  178.9810  143.8650 C   0  0  0  0  0  2  0  0  0  0  0  0
  187.9860  178.0070  147.3350 C   0  0  0  0  0  1  0  0  0  0  0  0
  185.6900  178.9820  140.3100 N   0  0  0  0  0  0  0  0  0  0  0  0
  184.5550  177.7480  142.0760 C   0  0  2  0  0  3  0  0  0  0  0  0
  183.3220  179.2020  140.3900 N   0  0  0  0  0  2  0  0  0  0  0  0
  188.2590  177.4260  142.5320 C   0  0  0  0  0  3  0  0  0  0  0  0
  185.6550  178.8270  146.9690 C   0  0  0  0  0  3  0  0  0  0  0  0
  186.9500  178.4920  140.7900 C   0  0  0  0  0  0  0  0  0  0  0  0
  188.1020  178.6280  140.0090 C   0  0  0  0  0  3  0  0  0  0  0  0
  183.3530  177.8780  142.9170 N   0  0  0  0  0  2  0  0  0  0  0  0
  184.6250  178.7070  144.7860 C   0  0  0  0  0  0  0  0  0  0  0  0
  184.5570  179.0590  146.1360 C   0  0  0  0  0  3  0  0  0  0  0  0
  179.7340  178.6690  139.9320 C   0  0  1  0  0  3  0  0  0  0  0  0
  180.9050  180.8870  140.0660 C   0  0  0  0  0  2  0  0  0  0  0  0
  181.9300  179.0520  136.7920 C   0  0  0  0  0  1  0  0  0  0  0  0
  179.3190  177.4490  140.7280 C   0  0  0  0  0  1  0  0  0  0  0  0
  180.4580  179.6510  140.8490 C   0  0  0  0  0  2  0  0  0  0  0  0
  181.0820  179.4640  137.9840 C   0  0  2  0  0  3  0  0  0  0  0  0
  181.7850  180.5090  138.8700 C   0  0  2  0  0  3  0  0  0  0  0  0
  180.6470  178.2400  138.7870 C   0  0  0  0  0  2  0  0  0  0  0  0
  1 11  1  0  0  0  0
  1 17  1  0  0  0  0
  2  3  1  0  0  0  0
  3 22  2  0  0  0  0
  3  9  1  0  0  0  0
  4  5  2  0  0  0  0
  5 16  1  0  0  0  0
  6 18  1  0  0  0  0
  6 13  1  0  0  0  0
  7 17  2  0  0  0  0
  7  2  1  0  0  0  0
  8  1  2  0  0  0  0
  9  6  2  0  0  0  0
 12 22  1  0  0  0  0
 14 19  1  0  0  0  0
 14 10  2  0  0  0  0
 15 10  1  6  0  0  0
 15  2  1  0  0  0  0
 15 21  1  0  0  0  0
 16 10  1  0  0  0  0
 19  7  1  0  0  0  0
 20  8  1  0  0  0  0
 20 19  2  0  0  0  0
 21 12  1  0  0  0  0
 22 23  1  0  0  0  0
 23 18  2  0  0  0  0
 24 27  1  1  0  0  0
 24 28  1  0  0  0  0
 25 28  1  0  0  0  0
 29 26  1  6  0  0  0
 29 31  1  0  0  0  0
 29 30  1  0  0  0  0
 30  5  1  1  0  0  0
 30 25  1  0  0  0  0
 31 24  1  0  0  0  0
M  END
>  <MODEL>
4

>  <REMARK>
 VINA RESULT:      -8.9      3.189      5.532
  Name = 
  1 active torsions:
  status: ('A' for Active; 'I' for Inactive)
    1  A    between atoms: C_9  and  C_22
                            x       y       z     vdW  Elec       q    Type
                         _______ _______ _______ _____ _____    ______ ____

>  <TORSDO>
F 1

$$$$
=
 OpenBabel11052413143D

 31 35  0  0  1  0  0  0  0  0999 V2000
  186.3270  178.3200  146.9210 C   0  0  0  0  0  0  0  0  0  0  0  0
  187.5840  178.4450  143.3770 N   0  0  0  0  0  0  0  0  0  0  0  0
  188.7790  177.6370  143.2820 C   0  0  0  0  0  0  0  0  0  0  0  0
  182.9000  177.7990  141.1130 O   0  0  0  0  0  0  0  0  0  0  0  0
  183.7080  178.2320  140.2470 C   0  0  0  0  0  0  0  0  0  0  0  0
  190.6890  176.5060  144.2710 C   0  0  0  0  0  0  0  0  0  0  0  0
  186.7180  178.3970  144.5280 C   0  0  0  0  0  0  0  0  0  0  0  0
  184.9480  178.2540  146.6970 C   0  0  0  0  0  3  0  0  0  0  0  0
  189.5440  177.2970  144.4070 C   0  0  0  0  0  3  0  0  0  0  0  0
  185.5820  178.6090  141.9380 C   0  0  0  0  0  0  0  0  0  0  0  0
  186.8080  178.3110  148.1880 F   0  0  0  0  0  0  0  0  0  0  0  0
  188.3300  177.5110  140.8460 C   0  0  0  0  0  2  0  0  0  0  0  0
  191.4930  176.1520  145.4690 C   0  0  0  0  0  1  0  0  0  0  0  0
  184.8240  178.3480  142.9660 N   0  0  0  0  0  0  0  0  0  0  0  0
  187.0090  179.0580  142.1600 C   0  0  2  0  0  3  0  0  0  0  0  0
  185.0350  178.6270  140.6130 N   0  0  0  0  0  2  0  0  0  0  0  0
  187.2100  178.3890  145.8400 C   0  0  0  0  0  3  0  0  0  0  0  0
  191.0730  176.0440  143.0080 C   0  0  0  0  0  3  0  0  0  0  0  0
  185.3290  178.3460  144.3090 C   0  0  0  0  0  0  0  0  0  0  0  0
  184.4500  178.2640  145.3920 C   0  0  0  0  0  3  0  0  0  0  0  0
  187.8540  178.8880  140.9660 N   0  0  0  0  0  2  0  0  0  0  0  0
  189.1800  177.1770  142.0220 C   0  0  0  0  0  0  0  0  0  0  0  0
  190.3160  176.3760  141.8820 C   0  0  0  0  0  3  0  0  0  0  0  0
  180.3680  178.5650  138.5020 C   0  0  1  0  0  3  0  0  0  0  0  0
  182.6220  179.6730  138.4970 C   0  0  0  0  0  2  0  0  0  0  0  0
  183.0560  175.8100  138.6150 C   0  0  0  0  0  1  0  0  0  0  0  0
  178.9680  178.6300  139.0750 C   0  0  0  0  0  1  0  0  0  0  0  0
  181.1950  179.7250  139.0480 C   0  0  0  0  0  2  0  0  0  0  0  0
  182.4260  177.1590  138.3160 C   0  0  2  0  0  3  0  0  0  0  0  0
  183.2960  178.3330  138.8040 C   0  0  2  0  0  3  0  0  0  0  0  0
  181.0080  177.2320  138.8800 C   0  0  0  0  0  2  0  0  0  0  0  0
  1 11  1  0  0  0  0
  2  7  1  0  0  0  0
  3  2  1  0  0  0  0
  3  9  1  0  0  0  0
  5 16  1  0  0  0  0
  5  4  2  0  0  0  0
  6  9  2  0  0  0  0
  6 13  1  0  0  0  0
  7 17  1  0  0  0  0
  8  1  1  0  0  0  0
 10 15  1  0  0  0  0
 10 14  2  0  0  0  0
 12 21  1  0  0  0  0
 12 22  1  0  0  0  0
 14 19  1  0  0  0  0
 15 21  1  6  0  0  0
 15  2  1  0  0  0  0
 16 10  1  0  0  0  0
 17  1  2  0  0  0  0
 18  6  1  0  0  0  0
 19  7  2  0  0  0  0
 19 20  1  0  0  0  0
 20  8  2  0  0  0  0
 22  3  2  0  0  0  0
 23 22  1  0  0  0  0
 23 18  2  0  0  0  0
 24 31  1  0  0  0  0
 24 28  1  0  0  0  0
 24 27  1  1  0  0  0
 25 30  1  0  0  0  0
 25 28  1  0  0  0  0
 29 26  1  1  0  0  0
 29 30  1  0  0  0  0
 29 31  1  0  0  0  0
 30  5  1  1  0  0  0
M  END
>  <MODEL>
5

>  <REMARK>
 VINA RESULT:      -8.8      2.750      4.114
  Name = 
  1 active torsions:
  status: ('A' for Active; 'I' for Inactive)
    1  A    between atoms: C_9  and  C_22
                            x       y       z     vdW  Elec       q    Type
                         _______ _______ _______ _____ _____    ______ ____

>  <TORSDO>
F 1

$$$$
=
 OpenBabel11052413143D

 31 35  0  0  1  0  0  0  0  0999 V2000
  184.4460  178.6300  144.4060 C   0  0  0  0  0  0  0  0  0  0  0  0
  188.1320  178.5700  143.6540 N   0  0  0  0  0  0  0  0  0  0  0  0
  188.8140  177.9010  144.7380 C   0  0  0  0  0  0  0  0  0  0  0  0
  187.6410  177.1810  138.6220 O   0  0  0  0  0  0  0  0  0  0  0  0
  188.8090  177.6220  138.8050 C   0  0  0  0  0  0  0  0  0  0  0  0
  188.9300  177.0940  147.0280 C   0  0  0  0  0  0  0  0  0  0  0  0
  186.6980  178.5290  143.5100 C   0  0  0  0  0  0  0  0  0  0  0  0
  183.9250  178.3840  143.1320 C   0  0  0  0  0  3  0  0  0  0  0  0
  188.2380  177.7570  146.0100 C   0  0  0  0  0  3  0  0  0  0  0  0
  188.3340  178.3680  141.2000 C   0  0  0  0  0  0  0  0  0  0  0  0
  183.6090  178.7940  145.4590 F   0  0  0  0  0  0  0  0  0  0  0  0
  190.6660  177.4990  143.1380 C   0  0  0  0  0  2  0  0  0  0  0  0
  188.3130  176.9480  148.3710 C   0  0  0  0  0  1  0  0  0  0  0  0
  187.0570  178.1180  141.1160 N   0  0  0  0  0  0  0  0  0  0  0  0
  188.8900  178.9970  142.4570 C   0  0  2  0  0  3  0  0  0  0  0  0
  189.1880  178.2000  140.0590 N   0  0  0  0  0  2  0  0  0  0  0  0
  185.8290  178.7000  144.5960 C   0  0  0  0  0  3  0  0  0  0  0  0
  190.2010  176.5660  146.7800 C   0  0  0  0  0  3  0  0  0  0  0  0
  186.1690  178.2980  142.2280 C   0  0  0  0  0  0  0  0  0  0  0  0
  184.7860  178.2160  142.0440 C   0  0  0  0  0  3  0  0  0  0  0  0
  190.3450  178.8170  142.5930 N   0  0  0  0  0  2  0  0  0  0  0  0
  190.0910  177.3760  144.5060 C   0  0  0  0  0  0  0  0  0  0  0  0
  190.7810  176.7020  145.5160 C   0  0  0  0  0  3  0  0  0  0  0  0
  189.6800  174.9840  136.2360 C   0  0  1  0  0  3  0  0  0  0  0  0
  189.1800  177.4450  136.3250 C   0  0  0  0  0  2  0  0  0  0  0  0
  191.5340  176.4720  139.2660 C   0  0  0  0  0  1  0  0  0  0  0  0
  189.0760  173.6160  135.9970 C   0  0  0  0  0  1  0  0  0  0  0  0
  188.6000  176.0510  136.0720 C   0  0  0  0  0  2  0  0  0  0  0  0
  190.8720  176.4190  137.9000 C   0  0  2  0  0  3  0  0  0  0  0  0
  189.8330  177.5400  137.7080 C   0  0  2  0  0  3  0  0  0  0  0  0
  190.2700  175.0390  137.6430 C   0  0  0  0  0  2  0  0  0  0  0  0
  1 17  1  0  0  0  0
  1 11  1  0  0  0  0
  2  3  1  0  0  0  0
  3  9  1  0  0  0  0
  4  5  2  0  0  0  0
  5 16  1  0  0  0  0
  6 13  1  0  0  0  0
  7  2  1  0  0  0  0
  7 17  2  0  0  0  0
  8  1  2  0  0  0  0
  9  6  2  0  0  0  0
 12 22  1  0  0  0  0
 14 10  2  0  0  0  0
 14 19  1  0  0  0  0
 15 10  1  6  0  0  0
 15 21  1  0  0  0  0
 15  2  1  0  0  0  0
 16 10  1  0  0  0  0
 18  6  1  0  0  0  0
 19  7  1  0  0  0  0
 20 19  2  0  0  0  0
 20  8  1  0  0  0  0
 21 12  1  0  0  0  0
 22  3  2  0  0  0  0
 22 23  1  0  0  0  0
 23 18  2  0  0  0  0
 24 27  1  1  0  0  0
 24 31  1  0  0  0  0
 25 30  1  0  0  0  0
 28 24  1  0  0  0  0
 28 25  1  0  0  0  0
 29 26  1  1  0  0  0
 30 29  1  0  0  0  0
 30  5  1  1  0  0  0
 31 29  1  0  0  0  0
M  END
>  <MODEL>
6

>  <REMARK>
 VINA RESULT:      -8.7      1.931      2.754
  Name = 
  1 active torsions:
  status: ('A' for Active; 'I' for Inactive)
    1  A    between atoms: C_9  and  C_22
                            x       y       z     vdW  Elec       q    Type
                         _______ _______ _______ _____ _____    ______ ____

>  <TORSDO>
F 1

$$$$
=
 OpenBabel11052413143D

 31 35  0  0  1  0  0  0  0  0999 V2000
  190.9160  176.7850  142.7530 C   0  0  0  0  0  0  0  0  0  0  0  0
  189.7620  177.8340  139.3300 N   0  0  0  0  0  0  0  0  0  0  0  0
  190.4850  177.0660  138.3420 C   0  0  0  0  0  0  0  0  0  0  0  0
  184.6440  177.8780  140.4670 O   0  0  0  0  0  0  0  0  0  0  0  0
  184.8230  178.5160  139.3930 C   0  0  0  0  0  0  0  0  0  0  0  0
  192.3630  175.6870  137.6500 C   0  0  0  0  0  0  0  0  0  0  0  0
  189.7800  177.4920  140.7300 C   0  0  0  0  0  0  0  0  0  0  0  0
  189.7000  176.7980  143.4440 C   0  0  0  0  0  3  0  0  0  0  0  0
  191.7010  176.4280  138.6340 C   0  0  0  0  0  3  0  0  0  0  0  0
  187.3680  178.4030  139.5500 C   0  0  0  0  0  0  0  0  0  0  0  0
  192.0560  176.4320  143.3960 F   0  0  0  0  0  0  0  0  0  0  0  0
  188.6370  177.6010  136.7770 C   0  0  0  0  0  2  0  0  0  0  0  0
  193.6500  175.0160  137.9690 C   0  0  0  0  0  1  0  0  0  0  0  0
  187.3570  177.8870  140.7480 N   0  0  0  0  0  0  0  0  0  0  0  0
  188.6870  178.7570  138.9040 C   0  0  2  0  0  3  0  0  0  0  0  0
  186.1430  178.7810  138.9070 N   0  0  0  0  0  2  0  0  0  0  0  0
  190.9560  177.1280  141.3990 C   0  0  0  0  0  3  0  0  0  0  0  0
  191.8130  175.5740  136.3700 C   0  0  0  0  0  3  0  0  0  0  0  0
  188.5620  177.5200  141.4330 C   0  0  0  0  0  0  0  0  0  0  0  0
  188.5240  177.1630  142.7840 C   0  0  0  0  0  3  0  0  0  0  0  0
  188.5880  178.9020  137.4410 N   0  0  0  0  0  2  0  0  0  0  0  0
  189.9490  176.9540  137.0540 C   0  0  0  0  0  0  0  0  0  0  0  0
  190.6020  176.2040  136.0720 C   0  0  0  0  0  3  0  0  0  0  0  0
  181.1190  177.7440  139.4600 C   0  0  1  0  0  3  0  0  0  0  0  0
  182.6330  179.7480  139.4680 C   0  0  0  0  0  2  0  0  0  0  0  0
  183.9250  177.1330  136.8950 C   0  0  0  0  0  1  0  0  0  0  0  0
  180.3350  176.7930  140.3400 C   0  0  0  0  0  1  0  0  0  0  0  0
  181.8180  178.7840  140.3320 C   0  0  0  0  0  2  0  0  0  0  0  0
  182.9500  177.9050  137.7670 C   0  0  2  0  0  3  0  0  0  0  0  0
  183.6460  179.0030  138.5940 C   0  0  2  0  0  3  0  0  0  0  0  0
  182.1450  176.9550  138.6510 C   0  0  0  0  0  2  0  0  0  0  0  0
  1 11  1  0  0  0  0
  1  8  1  0  0  0  0
  2  7  1  0  0  0  0
  3  9  1  0  0  0  0
  3  2  1  0  0  0  0
  5  4  2  0  0  0  0
  6 13  1  0  0  0  0
  6  9  2  0  0  0  0
  7 17  1  0  0  0  0
  7 19  2  0  0  0  0
 10 14  2  0  0  0  0
 12 22  1  0  0  0  0
 12 21  1  0  0  0  0
 14 19  1  0  0  0  0
 15 21  1  6  0  0  0
 15  2  1  0  0  0  0
 15 10  1  0  0  0  0
 16  5  1  0  0  0  0
 16 10  1  0  0  0  0
 17  1  2  0  0  0  0
 18  6  1  0  0  0  0
 19 20  1  0  0  0  0
 20  8  2  0  0  0  0
 22  3  2  0  0  0  0
 23 18  2  0  0  0  0
 23 22  1  0  0  0  0
 24 28  1  0  0  0  0
 24 27  1  1  0  0  0
 25 28  1  0  0  0  0
 29 26  1  1  0  0  0
 29 30  1  0  0  0  0
 29 31  1  0  0  0  0
 30  5  1  1  0  0  0
 30 25  1  0  0  0  0
 31 24  1  0  0  0  0
M  END
>  <MODEL>
7

>  <REMARK>
 VINA RESULT:      -8.4      3.151      6.001
  Name = 
  1 active torsions:
  status: ('A' for Active; 'I' for Inactive)
    1  A    between atoms: C_9  and  C_22
                            x       y       z     vdW  Elec       q    Type
                         _______ _______ _______ _____ _____    ______ ____

>  <TORSDO>
F 1

$$$$
=
 OpenBabel11052413143D

 31 35  0  0  1  0  0  0  0  0999 V2000
  187.1610  176.3910  135.8460 C   0  0  0  0  0  0  0  0  0  0  0  0
  185.7300  178.1410  138.8530 N   0  0  0  0  0  0  0  0  0  0  0  0
  184.3490  177.7450  139.0040 C   0  0  0  0  0  0  0  0  0  0  0  0
  189.8400  177.2820  141.9930 O   0  0  0  0  0  0  0  0  0  0  0  0
  189.1280  178.1910  142.5020 C   0  0  0  0  0  0  0  0  0  0  0  0
  182.2730  176.8240  138.1390 C   0  0  0  0  0  0  0  0  0  0  0  0
  186.6300  177.4550  137.9600 C   0  0  0  0  0  0  0  0  0  0  0  0
  188.4410  176.0820  136.3190 C   0  0  0  0  0  3  0  0  0  0  0  0
  183.6050  177.2020  137.9450 C   0  0  0  0  0  3  0  0  0  0  0  0
  187.5780  178.3450  140.4800 C   0  0  0  0  0  0  0  0  0  0  0  0
  186.7960  176.0230  134.5940 F   0  0  0  0  0  0  0  0  0  0  0  0
  184.5560  178.4410  141.3760 C   0  0  0  0  0  2  0  0  0  0  0  0
  181.4940  176.2510  137.0110 C   0  0  0  0  0  1  0  0  0  0  0  0
  188.3040  177.5410  139.7540 N   0  0  0  0  0  0  0  0  0  0  0  0
  186.3650  179.0090  139.8700 C   0  0  2  0  0  3  0  0  0  0  0  0
  188.0050  178.7280  141.7950 N   0  0  0  0  0  2  0  0  0  0  0  0
  186.2570  177.0740  136.6640 C   0  0  0  0  0  3  0  0  0  0  0  0
  181.6770  176.9790  139.3930 C   0  0  0  0  0  3  0  0  0  0  0  0
  187.9230  177.1560  138.4260 C   0  0  0  0  0  0  0  0  0  0  0  0
  188.8200  176.4620  137.6090 C   0  0  0  0  0  3  0  0  0  0  0  0
  185.4180  179.5110  140.8800 N   0  0  0  0  0  2  0  0  0  0  0  0
  183.7370  177.9050  140.2540 C   0  0  0  0  0  0  0  0  0  0  0  0
  182.4110  177.5160  140.4540 C   0  0  0  0  0  3  0  0  0  0  0  0
  191.2370  176.9260  145.3780 C   0  0  1  0  0  3  0  0  0  0  0  0
  190.9340  179.0290  144.0370 C   0  0  0  0  0  2  0  0  0  0  0  0
  187.4600  177.4990  144.8890 C   0  0  0  0  0  1  0  0  0  0  0  0
  192.0550  175.6580  145.5060 C   0  0  0  0  0  1  0  0  0  0  0  0
  191.7550  177.7480  144.2010 C   0  0  0  0  0  2  0  0  0  0  0  0
  188.9350  177.8350  145.0240 C   0  0  2  0  0  3  0  0  0  0  0  0
  189.4420  178.7240  143.8730 C   0  0  2  0  0  3  0  0  0  0  0  0
  189.7700  176.5630  145.1660 C   0  0  0  0  0  2  0  0  0  0  0  0
  1  8  2  0  0  0  0
  1 17  1  0  0  0  0
  2  3  1  0  0  0  0
  2 15  1  0  0  0  0
  3 22  1  0  0  0  0
  4  5  2  0  0  0  0
  6 18  2  0  0  0  0
  7 19  1  0  0  0  0
  7  2  1  0  0  0  0
  8 20  1  0  0  0  0
  9  6  1  0  0  0  0
  9  3  2  0  0  0  0
 10 16  1  0  0  0  0
 11  1  1  0  0  0  0
 13  6  1  0  0  0  0
 14 10  2  0  0  0  0
 15 10  1  1  0  0  0
 15 21  1  0  0  0  0
 16  5  1  0  0  0  0
 17  7  2  0  0  0  0
 18 23  1  0  0  0  0
 19 14  1  0  0  0  0
 20 19  2  0  0  0  0
 21 12  1  0  0  0  0
 22 23  2  0  0  0  0
 22 12  1  0  0  0  0
 24 27  1  6  0  0  0
 25 28  1  0  0  0  0
 28 24  1  0  0  0  0
 29 26  1  6  0  0  0
 29 31  1  0  0  0  0
 30  5  1  6  0  0  0
 30 25  1  0  0  0  0
 30 29  1  0  0  0  0
 31 24  1  0  0  0  0
M  END
>  <MODEL>
8

>  <REMARK>
 VINA RESULT:      -8.3      3.107      7.871
  Name = 
  1 active torsions:
  status: ('A' for Active; 'I' for Inactive)
    1  A    between atoms: C_9  and  C_22
                            x       y       z     vdW  Elec       q    Type
                         _______ _______ _______ _____ _____    ______ ____

>  <TORSDO>
F 1

$$$$
=
 OpenBabel11052413143D

 31 35  0  0  1  0  0  0  0  0999 V2000
  189.7610  174.3800  135.7840 C   0  0  0  0  0  0  0  0  0  0  0  0
  187.7740  177.0490  137.5390 N   0  0  0  0  0  0  0  0  0  0  0  0
  186.3780  176.8810  137.2060 C   0  0  0  0  0  0  0  0  0  0  0  0
  190.2070  176.5910  142.1610 O   0  0  0  0  0  0  0  0  0  0  0  0
  189.5780  177.6840  142.1440 C   0  0  0  0  0  0  0  0  0  0  0  0
  184.5970  176.0170  135.7950 C   0  0  0  0  0  0  0  0  0  0  0  0
  188.7590  176.0400  137.2420 C   0  0  0  0  0  0  0  0  0  0  0  0
  190.6880  174.0590  136.7810 C   0  0  0  0  0  3  0  0  0  0  0  0
  185.9600  176.1630  136.0750 C   0  0  0  0  0  3  0  0  0  0  0  0
  188.9210  177.4650  139.6880 C   0  0  0  0  0  0  0  0  0  0  0  0
  189.7930  173.7290  134.5950 F   0  0  0  0  0  0  0  0  0  0  0  0
  185.8760  178.1700  139.2650 C   0  0  0  0  0  2  0  0  0  0  0  0
  184.1650  175.2570  134.5950 C   0  0  0  0  0  1  0  0  0  0  0  0
  189.6630  176.4100  139.4940 N   0  0  0  0  0  0  0  0  0  0  0  0
  188.1790  178.0780  138.5220 C   0  0  2  0  0  3  0  0  0  0  0  0
  188.9250  178.1390  140.9540 N   0  0  0  0  0  2  0  0  0  0  0  0
  188.7970  175.3660  136.0140 C   0  0  0  0  0  3  0  0  0  0  0  0
  183.6440  176.5830  136.6460 C   0  0  0  0  0  3  0  0  0  0  0  0
  189.7040  175.7250  138.2350 C   0  0  0  0  0  0  0  0  0  0  0  0
  190.6580  174.7290  138.0060 C   0  0  0  0  0  3  0  0  0  0  0  0
  187.0700  178.9500  138.9440 N   0  0  0  0  0  2  0  0  0  0  0  0
  185.4140  177.4510  138.0460 C   0  0  0  0  0  0  0  0  0  0  0  0
  184.0520  177.2970  137.7760 C   0  0  0  0  0  3  0  0  0  0  0  0
  190.8790  177.2850  145.6750 C   0  0  1  0  0  3  0  0  0  0  0  0
  190.8740  179.0060  143.8450 C   0  0  0  0  0  2  0  0  0  0  0  0
  187.3550  177.3710  144.1250 C   0  0  0  0  0  1  0  0  0  0  0  0
  191.6760  176.1610  146.3020 C   0  0  0  0  0  1  0  0  0  0  0  0
  191.6650  177.8770  144.5090 C   0  0  0  0  0  2  0  0  0  0  0  0
  188.7270  177.8690  144.5460 C   0  0  2  0  0  3  0  0  0  0  0  0
  189.4920  178.5310  143.3850 C   0  0  2  0  0  3  0  0  0  0  0  0
  189.5360  176.7450  145.1900 C   0  0  0  0  0  2  0  0  0  0  0  0
  1 17  2  0  0  0  0
  1  8  1  0  0  0  0
  2 15  1  0  0  0  0
  3  2  1  0  0  0  0
  3 22  1  0  0  0  0
  5  4  2  0  0  0  0
  6  9  1  0  0  0  0
  6 18  2  0  0  0  0
  7  2  1  0  0  0  0
  7 19  2  0  0  0  0
  8 20  2  0  0  0  0
  9  3  2  0  0  0  0
 10 16  1  0  0  0  0
 11  1  1  0  0  0  0
 13  6  1  0  0  0  0
 14 10  2  0  0  0  0
 15 21  1  1  0  0  0
 15 10  1  0  0  0  0
 16  5  1  0  0  0  0
 17  7  1  0  0  0  0
 18 23  1  0  0  0  0
 19 14  1  0  0  0  0
 20 19  1  0  0  0  0
 21 12  1  0  0  0  0
 22 12  1  0  0  0  0
 23 22  2  0  0  0  0
 24 27  1  6  0  0  0
 25 28  1  0  0  0  0
 28 24  1  0  0  0  0
 29 26  1  6  0  0  0
 29 31  1  0  0  0  0
 30  5  1  6  0  0  0
 30 25  1  0  0  0  0
 30 29  1  0  0  0  0
 31 24  1  0  0  0  0
M  END
>  <MODEL>
9

>  <REMARK>
 VINA RESULT:      -8.2      3.553      8.541
  Name = 
  1 active torsions:
  status: ('A' for Active; 'I' for Inactive)
    1  A    between atoms: C_9  and  C_22
                            x       y       z     vdW  Elec       q    Type
                         _______ _______ _______ _____ _____    ______ ____

>  <TORSDO>
F 1

$$$$
