=
 OpenBabel11052412493D

 25 28  0  0  1  0  0  0  0  0999 V2000
  189.3290  176.9210  144.5190 C   0  0  0  0  0  0  0  0  0  0  0  0
  188.4020  177.3470  145.4870 C   0  0  0  0  0  0  0  0  0  0  0  0
  191.0450  176.8000  146.2070 C   0  0  0  0  0  3  0  0  0  0  0  0
  189.0460  176.6930  143.0670 C   0  0  2  0  0  3  0  0  0  0  0  0
  189.7980  177.5450  140.3680 C   0  0  0  0  0  2  0  0  0  0  0  0
  190.1540  177.2500  147.1310 N   0  0  0  0  0  0  0  0  0  0  0  0
  190.4090  176.4750  142.4650 C   0  0  0  0  0  0  0  0  0  0  0  0
  190.7170  176.8700  141.2730 N   0  0  0  0  0  0  0  0  0  0  0  0
  187.9140  177.9830  147.8290 C   0  0  0  0  0  0  0  0  0  0  0  0
  188.2930  178.1540  149.0170 O   0  0  0  0  0  0  0  0  0  0  0  0
  186.9580  177.5990  145.1250 C   0  0  0  0  0  2  0  0  0  0  0  0
  188.3640  177.6320  140.9040 C   0  0  0  0  0  2  0  0  0  0  0  0
  190.6330  176.6210  144.8900 C   0  0  0  0  0  0  0  0  0  0  0  0
  191.6810  175.9490  143.6100 S   0  0  0  0  0  0  0  0  0  0  0  0
  186.5560  178.2470  147.4710 N   0  0  0  0  0  0  0  0  0  0  0  0
  188.3840  177.8910  142.4000 C   0  0  0  0  0  2  0  0  0  0  0  0
  186.0950  178.0780  146.2660 C   0  0  0  0  0  0  0  0  0  0  0  0
  188.8560  177.5170  146.8070 C   0  0  0  0  0  0  0  0  0  0  0  0
  184.6670  178.3950  145.9800 C   0  0  0  0  0  2  0  0  0  0  0  0
  184.5700  179.5310  144.9780 C   0  0  0  0  0  2  0  0  0  0  0  0
  184.1760  178.9880  143.6520 C   0  0  0  0  0  3  0  0  0  0  0  0
  184.8960  179.2780  142.5760 C   0  0  0  0  0  3  0  0  0  0  0  0
  184.5450  178.7660  141.2480 C   0  0  0  0  0  0  0  0  0  0  0  0
  185.1120  179.3710  140.0930 N   0  0  0  0  0  1  0  0  0  0  0  0
  183.7490  177.7980  141.1180 O   0  0  0  0  0  0  0  0  0  0  0  0
  1 13  2  0  0  0  0
  1  2  1  0  0  0  0
  2 18  2  0  0  0  0
  3  6  2  0  0  0  0
  4 16  1  6  0  0  0
  4  1  1  0  0  0  0
  5 12  1  0  0  0  0
  5  8  1  0  0  0  0
  7  4  1  0  0  0  0
  7 14  1  0  0  0  0
  8  7  2  0  0  0  0
  9 10  2  0  0  0  0
 11  2  1  0  0  0  0
 11 17  1  0  0  0  0
 12 16  1  0  0  0  0
 13  3  1  0  0  0  0
 14 13  1  0  0  0  0
 15  9  1  0  0  0  0
 17 15  2  0  0  0  0
 18  6  1  0  0  0  0
 18  9  1  0  0  0  0
 19 17  1  0  0  0  0
 20 19  1  0  0  0  0
 21 20  1  0  0  0  0
 22 21  2  0  0  0  0
 23 22  1  0  0  0  0
 24 23  1  0  0  0  0
 25 23  2  0  0  0  0
M  END
>  <MODEL>
1

>  <REMARK>
 VINA RESULT:      -9.5      0.000      0.000
  Name = 
  4 active torsions:
  status: ('A' for Active; 'I' for Inactive)
    1  A    between atoms: C_2  and  C_25
    2  A    between atoms: C_6  and  C_15
    3  A    between atoms: C_6  and  C_23
    4  A    between atoms: C_15  and  C_21
                            x       y       z     vdW  Elec       q    Type
                         _______ _______ _______ _____ _____    ______ ____

>  <TORSDO>
F 4

$$$$
=
 OpenBabel11052412493D

 25 28  0  0  1  0  0  0  0  0999 V2000
  186.1180  178.1560  143.1360 C   0  0  0  0  0  0  0  0  0  0  0  0
  187.2240  177.9180  142.2990 C   0  0  0  0  0  0  0  0  0  0  0  0
  184.9690  179.2430  141.3160 C   0  0  0  0  0  3  0  0  0  0  0  0
  185.9900  177.7420  144.5680 C   0  0  2  0  0  3  0  0  0  0  0  0
  185.5990  178.7690  147.2820 C   0  0  0  0  0  2  0  0  0  0  0  0
  186.0570  179.0450  140.5240 N   0  0  0  0  0  0  0  0  0  0  0  0
  184.7370  178.4350  145.0320 C   0  0  0  0  0  0  0  0  0  0  0  0
  184.5940  178.8870  146.2350 N   0  0  0  0  0  0  0  0  0  0  0  0
  188.3170  178.1790  140.0940 C   0  0  0  0  0  0  0  0  0  0  0  0
  188.3000  178.6010  138.9080 O   0  0  0  0  0  0  0  0  0  0  0  0
  188.4300  177.1600  142.7990 C   0  0  0  0  0  2  0  0  0  0  0  0
  186.8130  177.9280  146.8730 C   0  0  0  0  0  2  0  0  0  0  0  0
  184.9890  178.7880  142.6310 C   0  0  0  0  0  0  0  0  0  0  0  0
  183.5920  178.9040  143.7370 S   0  0  0  0  0  0  0  0  0  0  0  0
  189.4660  177.4860  140.5840 N   0  0  0  0  0  0  0  0  0  0  0  0
  187.1670  178.1980  145.4210 C   0  0  0  0  0  2  0  0  0  0  0  0
  189.5440  177.0110  141.7940 C   0  0  0  0  0  0  0  0  0  0  0  0
  187.1670  178.3940  140.9770 C   0  0  0  0  0  0  0  0  0  0  0  0
  190.7890  176.3160  142.2250 C   0  0  0  0  0  2  0  0  0  0  0  0
  191.5740  177.1890  143.1860 C   0  0  0  0  0  2  0  0  0  0  0  0
  191.5210  176.5970  144.5490 C   0  0  0  0  0  3  0  0  0  0  0  0
  190.9920  177.2860  145.5510 C   0  0  0  0  0  3  0  0  0  0  0  0
  190.9180  176.7420  146.9110 C   0  0  0  0  0  0  0  0  0  0  0  0
  192.1170  176.5410  147.6490 N   0  0  0  0  0  1  0  0  0  0  0  0
  189.8090  176.4510  147.4320 O   0  0  0  0  0  0  0  0  0  0  0  0
  1  4  1  0  0  0  0
  2 11  1  0  0  0  0
  2  1  2  0  0  0  0
  3 13  2  0  0  0  0
  4  7  1  0  0  0  0
  4 16  1  1  0  0  0
  6 18  2  0  0  0  0
  6  3  1  0  0  0  0
  7  8  2  0  0  0  0
  8  5  1  0  0  0  0
  9 15  1  0  0  0  0
  9 18  1  0  0  0  0
 10  9  2  0  0  0  0
 12  5  1  0  0  0  0
 13  1  1  0  0  0  0
 13 14  1  0  0  0  0
 14  7  1  0  0  0  0
 15 17  2  0  0  0  0
 16 12  1  0  0  0  0
 17 19  1  0  0  0  0
 17 11  1  0  0  0  0
 18  2  1  0  0  0  0
 19 20  1  0  0  0  0
 20 21  1  0  0  0  0
 21 22  2  0  0  0  0
 22 23  1  0  0  0  0
 23 25  2  0  0  0  0
 23 24  1  0  0  0  0
M  END
>  <MODEL>
2

>  <REMARK>
 VINA RESULT:      -9.4      2.425      7.211
  Name = 
  4 active torsions:
  status: ('A' for Active; 'I' for Inactive)
    1  A    between atoms: C_2  and  C_25
    2  A    between atoms: C_6  and  C_15
    3  A    between atoms: C_6  and  C_23
    4  A    between atoms: C_15  and  C_21
                            x       y       z     vdW  Elec       q    Type
                         _______ _______ _______ _____ _____    ______ ____

>  <TORSDO>
F 4

$$$$
=
 OpenBabel11052412493D

 25 28  0  0  1  0  0  0  0  0999 V2000
  189.1240  177.0380  144.3840 C   0  0  0  0  0  0  0  0  0  0  0  0
  188.1790  177.4950  145.3210 C   0  0  0  0  0  0  0  0  0  0  0  0
  190.7790  176.8680  146.1290 C   0  0  0  0  0  3  0  0  0  0  0  0
  188.8820  176.8160  142.9240 C   0  0  2  0  0  3  0  0  0  0  0  0
  189.7490  177.6390  140.2510 C   0  0  0  0  0  2  0  0  0  0  0  0
  189.8720  177.3470  147.0220 N   0  0  0  0  0  0  0  0  0  0  0  0
  190.2570  176.5550  142.3680 C   0  0  0  0  0  0  0  0  0  0  0  0
  190.6160  176.9380  141.1870 N   0  0  0  0  0  0  0  0  0  0  0  0
  187.6340  178.1500  147.6450 C   0  0  0  0  0  0  0  0  0  0  0  0
  187.9780  178.3120  148.8450 O   0  0  0  0  0  0  0  0  0  0  0  0
  186.7560  177.7910  144.9110 C   0  0  0  0  0  2  0  0  0  0  0  0
  188.3020  177.7710  140.7390 C   0  0  0  0  0  2  0  0  0  0  0  0
  190.4050  176.6990  144.7990 C   0  0  0  0  0  0  0  0  0  0  0  0
  191.4730  175.9920  143.5560 S   0  0  0  0  0  0  0  0  0  0  0  0
  186.2970  178.4550  147.2420 N   0  0  0  0  0  0  0  0  0  0  0  0
  188.2800  178.0330  142.2350 C   0  0  0  0  0  2  0  0  0  0  0  0
  185.8710  178.2990  146.0220 C   0  0  0  0  0  0  0  0  0  0  0  0
  188.5940  177.6540  146.6550 C   0  0  0  0  0  0  0  0  0  0  0  0
  184.4640  178.6590  145.6890 C   0  0  0  0  0  2  0  0  0  0  0  0
  184.2750  178.7060  144.1840 C   0  0  0  0  0  2  0  0  0  0  0  0
  182.9620  179.3270  143.8700 C   0  0  0  0  0  3  0  0  0  0  0  0
  181.8610  178.5860  143.8700 C   0  0  0  0  0  3  0  0  0  0  0  0
  180.5450  179.1550  143.5660 C   0  0  0  0  0  0  0  0  0  0  0  0
  179.3720  178.4620  143.9740 N   0  0  0  0  0  1  0  0  0  0  0  0
  180.4400  180.2490  142.9480 O   0  0  0  0  0  0  0  0  0  0  0  0
  1 13  2  0  0  0  0
  1  2  1  0  0  0  0
  2 18  2  0  0  0  0
  3  6  2  0  0  0  0
  4 16  1  6  0  0  0
  4  1  1  0  0  0  0
  5 12  1  0  0  0  0
  5  8  1  0  0  0  0
  7  4  1  0  0  0  0
  7 14  1  0  0  0  0
  8  7  2  0  0  0  0
  9 10  2  0  0  0  0
 11  2  1  0  0  0  0
 11 17  1  0  0  0  0
 12 16  1  0  0  0  0
 13  3  1  0  0  0  0
 14 13  1  0  0  0  0
 15  9  1  0  0  0  0
 17 15  2  0  0  0  0
 18  6  1  0  0  0  0
 18  9  1  0  0  0  0
 19 17  1  0  0  0  0
 20 19  1  0  0  0  0
 21 20  1  0  0  0  0
 22 21  2  0  0  0  0
 23 22  1  0  0  0  0
 23 24  1  0  0  0  0
 25 23  2  0  0  0  0
M  END
>  <MODEL>
3

>  <REMARK>
 VINA RESULT:      -9.3      1.915      2.067
  Name = 
  4 active torsions:
  status: ('A' for Active; 'I' for Inactive)
    1  A    between atoms: C_2  and  C_25
    2  A    between atoms: C_6  and  C_15
    3  A    between atoms: C_6  and  C_23
    4  A    between atoms: C_15  and  C_21
                            x       y       z     vdW  Elec       q    Type
                         _______ _______ _______ _____ _____    ______ ____

>  <TORSDO>
F 4

$$$$
=
 OpenBabel11052412493D

 25 28  0  0  1  0  0  0  0  0999 V2000
  187.5570  178.0720  145.4960 C   0  0  0  0  0  0  0  0  0  0  0  0
  188.8900  177.6830  145.2710 C   0  0  0  0  0  0  0  0  0  0  0  0
  187.7500  177.4170  147.8080 C   0  0  0  0  0  3  0  0  0  0  0  0
  186.6280  178.6640  144.4830 C   0  0  2  0  0  3  0  0  0  0  0  0
  184.0680  178.2520  143.1230 C   0  0  0  0  0  2  0  0  0  0  0  0
  189.0260  177.0070  147.5750 N   0  0  0  0  0  0  0  0  0  0  0  0
  185.2930  178.6730  145.1810 C   0  0  0  0  0  0  0  0  0  0  0  0
  184.1780  178.4790  144.5570 N   0  0  0  0  0  0  0  0  0  0  0  0
  190.9920  176.6990  146.1310 C   0  0  0  0  0  0  0  0  0  0  0  0
  191.6580  176.1940  147.0720 O   0  0  0  0  0  0  0  0  0  0  0  0
  189.5370  177.8670  143.9200 C   0  0  0  0  0  2  0  0  0  0  0  0
  185.3990  178.3980  142.3760 C   0  0  0  0  0  2  0  0  0  0  0  0
  187.0070  177.9650  146.7670 C   0  0  0  0  0  0  0  0  0  0  0  0
  185.3610  178.6240  146.9690 S   0  0  0  0  0  0  0  0  0  0  0  0
  191.5870  176.8500  144.8410 N   0  0  0  0  0  0  0  0  0  0  0  0
  186.5300  177.8290  143.2130 C   0  0  0  0  0  2  0  0  0  0  0  0
  190.9610  177.3760  143.8290 C   0  0  0  0  0  0  0  0  0  0  0  0
  189.6090  177.1320  146.3470 C   0  0  0  0  0  0  0  0  0  0  0  0
  191.6550  177.4790  142.5140 C   0  0  0  0  0  2  0  0  0  0  0  0
  190.9480  176.6250  141.4780 C   0  0  0  0  0  2  0  0  0  0  0  0
  190.3390  177.5040  140.4460 C   0  0  0  0  0  3  0  0  0  0  0  0
  189.0250  177.5000  140.2620 C   0  0  0  0  0  3  0  0  0  0  0  0
  188.3810  178.3490  139.2560 C   0  0  0  0  0  0  0  0  0  0  0  0
  186.9760  178.2530  139.0560 N   0  0  0  0  0  1  0  0  0  0  0  0
  189.0550  179.1610  138.5680 O   0  0  0  0  0  0  0  0  0  0  0  0
  1 13  1  0  0  0  0
  2  1  2  0  0  0  0
  2 18  1  0  0  0  0
  4 16  1  6  0  0  0
  4  7  1  0  0  0  0
  4  1  1  0  0  0  0
  5  8  1  0  0  0  0
  6  3  1  0  0  0  0
  7 14  1  0  0  0  0
  8  7  2  0  0  0  0
  9 18  1  0  0  0  0
  9 10  2  0  0  0  0
 11  2  1  0  0  0  0
 12  5  1  0  0  0  0
 12 16  1  0  0  0  0
 13 14  1  0  0  0  0
 13  3  2  0  0  0  0
 15  9  1  0  0  0  0
 17 11  1  0  0  0  0
 17 15  2  0  0  0  0
 18  6  2  0  0  0  0
 19 17  1  0  0  0  0
 20 19  1  0  0  0  0
 21 20  1  0  0  0  0
 22 21  2  0  0  0  0
 23 22  1  0  0  0  0
 24 23  1  0  0  0  0
 25 23  2  0  0  0  0
M  END
>  <MODEL>
4

>  <REMARK>
 VINA RESULT:      -8.8      2.577      5.010
  Name = 
  4 active torsions:
  status: ('A' for Active; 'I' for Inactive)
    1  A    between atoms: C_2  and  C_25
    2  A    between atoms: C_6  and  C_15
    3  A    between atoms: C_6  and  C_23
    4  A    between atoms: C_15  and  C_21
                            x       y       z     vdW  Elec       q    Type
                         _______ _______ _______ _____ _____    ______ ____

>  <TORSDO>
F 4

$$$$
=
 OpenBabel11052412493D

 25 28  0  0  1  0  0  0  0  0999 V2000
  186.4990  178.1030  144.5760 C   0  0  0  0  0  0  0  0  0  0  0  0
  186.6580  178.2450  143.1850 C   0  0  0  0  0  0  0  0  0  0  0  0
  184.3710  179.2290  144.4510 C   0  0  0  0  0  3  0  0  0  0  0  0
  187.4550  177.4320  145.5100 C   0  0  2  0  0  3  0  0  0  0  0  0
  189.1350  177.8750  147.8680 C   0  0  0  0  0  2  0  0  0  0  0  0
  184.5490  179.3970  143.1130 N   0  0  0  0  0  0  0  0  0  0  0  0
  186.9170  177.7640  146.8770 C   0  0  0  0  0  0  0  0  0  0  0  0
  187.6820  177.9640  147.8990 N   0  0  0  0  0  0  0  0  0  0  0  0
  185.8090  179.0990  141.0230 C   0  0  0  0  0  0  0  0  0  0  0  0
  184.9310  179.7070  140.3560 O   0  0  0  0  0  0  0  0  0  0  0  0
  187.8640  177.6740  142.4790 C   0  0  0  0  0  2  0  0  0  0  0  0
  189.6890  177.3830  146.5260 C   0  0  0  0  0  2  0  0  0  0  0  0
  185.3450  178.5690  145.1930 C   0  0  0  0  0  0  0  0  0  0  0  0
  185.1820  178.2050  146.9330 S   0  0  0  0  0  0  0  0  0  0  0  0
  186.9680  178.5810  140.3670 N   0  0  0  0  0  0  0  0  0  0  0  0
  188.8760  177.9650  145.3830 C   0  0  0  0  0  2  0  0  0  0  0  0
  187.9060  177.9310  140.9930 C   0  0  0  0  0  0  0  0  0  0  0  0
  185.6540  178.9200  142.4690 C   0  0  0  0  0  0  0  0  0  0  0  0
  189.0880  177.4420  140.2290 C   0  0  0  0  0  2  0  0  0  0  0  0
  190.3330  177.4930  141.0960 C   0  0  0  0  0  2  0  0  0  0  0  0
  191.5380  177.3310  140.2410 C   0  0  0  0  0  3  0  0  0  0  0  0
  191.4620  176.6370  139.1130 C   0  0  0  0  0  3  0  0  0  0  0  0
  192.6250  176.4500  138.2390 C   0  0  0  0  0  0  0  0  0  0  0  0
  192.4330  176.3480  136.8330 N   0  0  0  0  0  1  0  0  0  0  0  0
  193.7880  176.3790  138.7170 O   0  0  0  0  0  0  0  0  0  0  0  0
  1 13  1  0  0  0  0
  1  4  1  0  0  0  0
  2  1  2  0  0  0  0
  3 13  2  0  0  0  0
  4 16  1  1  0  0  0
  4  7  1  0  0  0  0
  5  8  1  0  0  0  0
  6  3  1  0  0  0  0
  7 14  1  0  0  0  0
  7  8  2  0  0  0  0
  9 18  1  0  0  0  0
 10  9  2  0  0  0  0
 11  2  1  0  0  0  0
 12  5  1  0  0  0  0
 13 14  1  0  0  0  0
 15 17  2  0  0  0  0
 15  9  1  0  0  0  0
 16 12  1  0  0  0  0
 17 11  1  0  0  0  0
 18  6  2  0  0  0  0
 18  2  1  0  0  0  0
 19 17  1  0  0  0  0
 19 20  1  0  0  0  0
 21 20  1  0  0  0  0
 22 21  2  0  0  0  0
 23 25  2  0  0  0  0
 23 22  1  0  0  0  0
 24 23  1  0  0  0  0
M  END
>  <MODEL>
5

>  <REMARK>
 VINA RESULT:      -8.6      3.145      6.842
  Name = 
  4 active torsions:
  status: ('A' for Active; 'I' for Inactive)
    1  A    between atoms: C_2  and  C_25
    2  A    between atoms: C_6  and  C_15
    3  A    between atoms: C_6  and  C_23
    4  A    between atoms: C_15  and  C_21
                            x       y       z     vdW  Elec       q    Type
                         _______ _______ _______ _____ _____    ______ ____

>  <TORSDO>
F 4

$$$$
=
 OpenBabel11052412493D

 25 28  0  0  1  0  0  0  0  0999 V2000
  189.5440  177.6400  143.7450 C   0  0  0  0  0  0  0  0  0  0  0  0
  188.8820  177.8560  142.5230 C   0  0  0  0  0  0  0  0  0  0  0  0
  191.4560  176.7700  142.5620 C   0  0  0  0  0  3  0  0  0  0  0  0
  189.0100  177.9590  145.1060 C   0  0  2  0  0  3  0  0  0  0  0  0
  188.3050  176.7720  147.6890 C   0  0  0  0  0  2  0  0  0  0  0  0
  190.7950  176.9450  141.3860 N   0  0  0  0  0  0  0  0  0  0  0  0
  190.0060  177.3260  146.0410 C   0  0  0  0  0  0  0  0  0  0  0  0
  189.6660  176.8010  147.1720 N   0  0  0  0  0  0  0  0  0  0  0  0
  188.8620  177.6750  140.0550 C   0  0  0  0  0  0  0  0  0  0  0  0
  189.4210  177.3400  138.9780 O   0  0  0  0  0  0  0  0  0  0  0  0
  187.5110  178.4880  142.4810 C   0  0  0  0  0  2  0  0  0  0  0  0
  187.3070  177.5510  146.8250 C   0  0  0  0  0  2  0  0  0  0  0  0
  190.8350  177.1280  143.7550 C   0  0  0  0  0  0  0  0  0  0  0  0
  191.6320  177.0340  145.3490 S   0  0  0  0  0  0  0  0  0  0  0  0
  187.5530  178.2470  140.0260 N   0  0  0  0  0  0  0  0  0  0  0  0
  187.6320  177.3600  145.3540 C   0  0  0  0  0  2  0  0  0  0  0  0
  186.9220  178.6280  141.0990 C   0  0  0  0  0  0  0  0  0  0  0  0
  189.5410  177.4800  141.3380 C   0  0  0  0  0  0  0  0  0  0  0  0
  185.5520  179.1990  140.9760 C   0  0  0  0  0  2  0  0  0  0  0  0
  184.5130  178.0940  141.0340 C   0  0  0  0  0  2  0  0  0  0  0  0
  183.6670  178.2740  142.2420 C   0  0  0  0  0  3  0  0  0  0  0  0
  184.2050  178.7220  143.3690 C   0  0  0  0  0  3  0  0  0  0  0  0
  183.4090  178.9140  144.5850 C   0  0  0  0  0  0  0  0  0  0  0  0
  184.0650  179.0030  145.8440 N   0  0  0  0  0  1  0  0  0  0  0  0
  182.1530  179.0020  144.5290 O   0  0  0  0  0  0  0  0  0  0  0  0
  1 13  1  0  0  0  0
  1  4  1  0  0  0  0
  2  1  2  0  0  0  0
  3 13  2  0  0  0  0
  4 16  1  6  0  0  0
  4  7  1  0  0  0  0
  6  3  1  0  0  0  0
  7  8  2  0  0  0  0
  8  5  1  0  0  0  0
  9 18  1  0  0  0  0
 10  9  2  0  0  0  0
 11  2  1  0  0  0  0
 12  5  1  0  0  0  0
 13 14  1  0  0  0  0
 14  7  1  0  0  0  0
 15  9  1  0  0  0  0
 15 17  2  0  0  0  0
 16 12  1  0  0  0  0
 17 11  1  0  0  0  0
 18  6  2  0  0  0  0
 18  2  1  0  0  0  0
 19 20  1  0  0  0  0
 19 17  1  0  0  0  0
 20 21  1  0  0  0  0
 21 22  2  0  0  0  0
 22 23  1  0  0  0  0
 23 24  1  0  0  0  0
 25 23  2  0  0  0  0
M  END
>  <MODEL>
6

>  <REMARK>
 VINA RESULT:      -8.4      2.180      4.972
  Name = 
  4 active torsions:
  status: ('A' for Active; 'I' for Inactive)
    1  A    between atoms: C_2  and  C_25
    2  A    between atoms: C_6  and  C_15
    3  A    between atoms: C_6  and  C_23
    4  A    between atoms: C_15  and  C_21
                            x       y       z     vdW  Elec       q    Type
                         _______ _______ _______ _____ _____    ______ ____

>  <TORSDO>
F 4

$$$$
=
 OpenBabel11052412493D

 25 28  0  0  1  0  0  0  0  0999 V2000
  188.7710  177.3730  144.9440 C   0  0  0  0  0  0  0  0  0  0  0  0
  187.4280  177.7750  145.0650 C   0  0  0  0  0  0  0  0  0  0  0  0
  189.0990  177.7450  147.3040 C   0  0  0  0  0  3  0  0  0  0  0  0
  189.4450  176.9150  143.6890 C   0  0  2  0  0  3  0  0  0  0  0  0
  191.6520  177.5090  141.8600 C   0  0  0  0  0  2  0  0  0  0  0  0
  187.8110  178.1700  147.4060 N   0  0  0  0  0  0  0  0  0  0  0  0
  190.8990  176.8340  144.0720 C   0  0  0  0  0  0  0  0  0  0  0  0
  191.8540  177.1110  143.2460 N   0  0  0  0  0  0  0  0  0  0  0  0
  185.5830  178.6310  146.4760 C   0  0  0  0  0  0  0  0  0  0  0  0
  185.1480  179.0150  147.5930 O   0  0  0  0  0  0  0  0  0  0  0  0
  186.4980  177.7500  143.8760 C   0  0  0  0  0  2  0  0  0  0  0  0
  190.1880  177.4420  141.4110 C   0  0  0  0  0  2  0  0  0  0  0  0
  189.5870  177.3320  146.0670 C   0  0  0  0  0  0  0  0  0  0  0  0
  191.2260  176.6670  145.8240 S   0  0  0  0  0  0  0  0  0  0  0  0
  184.7170  178.6310  145.3390 N   0  0  0  0  0  0  0  0  0  0  0  0
  189.2780  177.8970  142.5380 C   0  0  0  0  0  2  0  0  0  0  0  0
  185.0970  178.2350  144.1590 C   0  0  0  0  0  0  0  0  0  0  0  0
  186.9720  178.1870  146.3300 C   0  0  0  0  0  0  0  0  0  0  0  0
  184.1310  178.2860  143.0260 C   0  0  0  0  0  2  0  0  0  0  0  0
  184.5490  179.3450  142.0240 C   0  0  0  0  0  2  0  0  0  0  0  0
  185.1650  178.6900  140.8400 C   0  0  0  0  0  3  0  0  0  0  0  0
  184.7220  178.9720  139.6210 C   0  0  0  0  0  3  0  0  0  0  0  0
  185.2990  178.3510  138.4250 C   0  0  0  0  0  0  0  0  0  0  0  0
  184.4640  177.5860  137.5630 N   0  0  0  0  0  1  0  0  0  0  0  0
  186.5210  178.4840  138.1510 O   0  0  0  0  0  0  0  0  0  0  0  0
  1  2  2  0  0  0  0
  1 13  1  0  0  0  0
  2 18  1  0  0  0  0
  3  6  1  0  0  0  0
  4 16  1  6  0  0  0
  4  7  1  0  0  0  0
  4  1  1  0  0  0  0
  5  8  1  0  0  0  0
  7 14  1  0  0  0  0
  8  7  2  0  0  0  0
  9 10  2  0  0  0  0
 11 17  1  0  0  0  0
 11  2  1  0  0  0  0
 12  5  1  0  0  0  0
 12 16  1  0  0  0  0
 13  3  2  0  0  0  0
 14 13  1  0  0  0  0
 15  9  1  0  0  0  0
 17 15  2  0  0  0  0
 18  9  1  0  0  0  0
 18  6  2  0  0  0  0
 19 17  1  0  0  0  0
 20 19  1  0  0  0  0
 21 20  1  0  0  0  0
 22 21  2  0  0  0  0
 23 22  1  0  0  0  0
 24 23  1  0  0  0  0
 25 23  2  0  0  0  0
M  END
>  <MODEL>
7

>  <REMARK>
 VINA RESULT:      -8.3      1.864      2.474
  Name = 
  4 active torsions:
  status: ('A' for Active; 'I' for Inactive)
    1  A    between atoms: C_2  and  C_25
    2  A    between atoms: C_6  and  C_15
    3  A    between atoms: C_6  and  C_23
    4  A    between atoms: C_15  and  C_21
                            x       y       z     vdW  Elec       q    Type
                         _______ _______ _______ _____ _____    ______ ____

>  <TORSDO>
F 4

$$$$
=
 OpenBabel11052412493D

 25 28  0  0  1  0  0  0  0  0999 V2000
  188.6840  177.1550  143.7890 C   0  0  0  0  0  0  0  0  0  0  0  0
  187.4910  177.6470  144.3480 C   0  0  0  0  0  0  0  0  0  0  0  0
  189.7050  177.1330  145.9730 C   0  0  0  0  0  3  0  0  0  0  0  0
  188.9160  176.8360  142.3450 C   0  0  2  0  0  3  0  0  0  0  0  0
  190.5800  177.5090  140.0310 C   0  0  0  0  0  2  0  0  0  0  0  0
  188.5610  177.6470  146.5010 N   0  0  0  0  0  0  0  0  0  0  0  0
  190.3970  176.5730  142.2690 C   0  0  0  0  0  0  0  0  0  0  0  0
  191.1090  176.8890  141.2380 N   0  0  0  0  0  0  0  0  0  0  0  0
  186.2390  178.4350  146.3320 C   0  0  0  0  0  0  0  0  0  0  0  0
  186.1860  178.6800  147.5660 O   0  0  0  0  0  0  0  0  0  0  0  0
  186.2690  177.8830  143.4920 C   0  0  0  0  0  2  0  0  0  0  0  0
  189.0520  177.6370  140.0300 C   0  0  0  0  0  2  0  0  0  0  0  0
  189.7700  176.8730  144.6080 C   0  0  0  0  0  0  0  0  0  0  0  0
  191.1770  176.1140  143.8140 S   0  0  0  0  0  0  0  0  0  0  0  0
  185.0970  178.6820  145.5100 N   0  0  0  0  0  0  0  0  0  0  0  0
  188.5590  177.9920  141.4210 C   0  0  0  0  0  2  0  0  0  0  0  0
  185.0770  178.4390  144.2320 C   0  0  0  0  0  0  0  0  0  0  0  0
  187.4630  177.9000  145.7310 C   0  0  0  0  0  0  0  0  0  0  0  0
  183.8470  178.7450  143.4490 C   0  0  0  0  0  2  0  0  0  0  0  0
  182.6570  178.8990  144.3780 C   0  0  0  0  0  2  0  0  0  0  0  0
  181.4090  178.9790  143.5740 C   0  0  0  0  0  3  0  0  0  0  0  0
  181.4210  178.6280  142.2950 C   0  0  0  0  0  3  0  0  0  0  0  0
  180.2150  178.6910  141.4630 C   0  0  0  0  0  0  0  0  0  0  0  0
  179.0760  177.9190  141.8240 N   0  0  0  0  0  1  0  0  0  0  0  0
  180.1750  179.4190  140.4360 O   0  0  0  0  0  0  0  0  0  0  0  0
  1  2  2  0  0  0  0
  1 13  1  0  0  0  0
  2 18  1  0  0  0  0
  3  6  1  0  0  0  0
  4 16  1  6  0  0  0
  4  1  1  0  0  0  0
  5  8  1  0  0  0  0
  7  4  1  0  0  0  0
  7 14  1  0  0  0  0
  8  7  2  0  0  0  0
  9 10  2  0  0  0  0
 11 17  1  0  0  0  0
 11  2  1  0  0  0  0
 12  5  1  0  0  0  0
 12 16  1  0  0  0  0
 13  3  2  0  0  0  0
 14 13  1  0  0  0  0
 15  9  1  0  0  0  0
 17 15  2  0  0  0  0
 18  9  1  0  0  0  0
 18  6  2  0  0  0  0
 19 17  1  0  0  0  0
 19 20  1  0  0  0  0
 21 20  1  0  0  0  0
 22 21  2  0  0  0  0
 23 24  1  0  0  0  0
 23 22  1  0  0  0  0
 25 23  2  0  0  0  0
M  END
>  <MODEL>
8

>  <REMARK>
 VINA RESULT:      -8.2      2.232      2.460
  Name = 
  4 active torsions:
  status: ('A' for Active; 'I' for Inactive)
    1  A    between atoms: C_2  and  C_25
    2  A    between atoms: C_6  and  C_15
    3  A    between atoms: C_6  and  C_23
    4  A    between atoms: C_15  and  C_21
                            x       y       z     vdW  Elec       q    Type
                         _______ _______ _______ _____ _____    ______ ____

>  <TORSDO>
F 4

$$$$
=
 OpenBabel11052412493D

 25 28  0  0  1  0  0  0  0  0999 V2000
  185.6990  178.6550  141.6920 C   0  0  0  0  0  0  0  0  0  0  0  0
  185.0830  178.7220  142.9550 C   0  0  0  0  0  0  0  0  0  0  0  0
  183.5340  178.6460  140.6300 C   0  0  0  0  0  3  0  0  0  0  0  0
  187.1720  178.6390  141.4280 C   0  0  2  0  0  3  0  0  0  0  0  0
  189.3240  177.0570  140.2280 C   0  0  0  0  0  2  0  0  0  0  0  0
  182.9450  178.6710  141.8560 N   0  0  0  0  0  0  0  0  0  0  0  0
  187.2710  178.3320  139.9570 C   0  0  0  0  0  0  0  0  0  0  0  0
  188.2280  177.6230  139.4550 N   0  0  0  0  0  0  0  0  0  0  0  0
  183.0130  178.7620  144.3110 C   0  0  0  0  0  0  0  0  0  0  0  0
  181.7570  178.7490  144.3910 O   0  0  0  0  0  0  0  0  0  0  0  0
  185.9050  178.8150  144.2180 C   0  0  0  0  0  2  0  0  0  0  0  0
  189.3250  177.4920  141.6980 C   0  0  0  0  0  2  0  0  0  0  0  0
  184.9230  178.6490  140.5400 C   0  0  0  0  0  0  0  0  0  0  0  0
  185.8110  178.7120  138.9930 S   0  0  0  0  0  0  0  0  0  0  0  0
  183.7990  178.8200  145.5030 N   0  0  0  0  0  0  0  0  0  0  0  0
  187.9000  177.5620  142.2210 C   0  0  0  0  0  2  0  0  0  0  0  0
  185.1000  178.8510  145.4940 C   0  0  0  0  0  0  0  0  0  0  0  0
  183.6770  178.7160  143.0060 C   0  0  0  0  0  0  0  0  0  0  0  0
  185.8390  178.8940  146.7870 C   0  0  0  0  0  2  0  0  0  0  0  0
  186.7640  177.6980  146.9050 C   0  0  0  0  0  2  0  0  0  0  0  0
  188.1350  178.0890  146.4840 C   0  0  0  0  0  3  0  0  0  0  0  0
  188.9210  177.2050  145.8820 C   0  0  0  0  0  3  0  0  0  0  0  0
  190.2800  177.5460  145.4500 C   0  0  0  0  0  0  0  0  0  0  0  0
  191.3600  176.6880  145.7970 N   0  0  0  0  0  1  0  0  0  0  0  0
  190.5020  178.5870  144.7760 O   0  0  0  0  0  0  0  0  0  0  0  0
  1  2  1  0  0  0  0
  2 18  2  0  0  0  0
  2 11  1  0  0  0  0
  3  6  2  0  0  0  0
  4  1  1  0  0  0  0
  4 16  1  1  0  0  0
  5 12  1  0  0  0  0
  6 18  1  0  0  0  0
  7  4  1  0  0  0  0
  8  7  2  0  0  0  0
  8  5  1  0  0  0  0
  9 10  2  0  0  0  0
  9 15  1  0  0  0  0
 11 17  1  0  0  0  0
 12 16  1  0  0  0  0
 13  3  1  0  0  0  0
 13  1  2  0  0  0  0
 14  7  1  0  0  0  0
 14 13  1  0  0  0  0
 17 15  2  0  0  0  0
 17 19  1  0  0  0  0
 18  9  1  0  0  0  0
 19 20  1  0  0  0  0
 21 20  1  0  0  0  0
 22 21  2  0  0  0  0
 23 24  1  0  0  0  0
 23 22  1  0  0  0  0
 25 23  2  0  0  0  0
M  END
>  <MODEL>
9

>  <REMARK>
 VINA RESULT:      -8.1      2.528      5.655
  Name = 
  4 active torsions:
  status: ('A' for Active; 'I' for Inactive)
    1  A    between atoms: C_2  and  C_25
    2  A    between atoms: C_6  and  C_15
    3  A    between atoms: C_6  and  C_23
    4  A    between atoms: C_15  and  C_21
                            x       y       z     vdW  Elec       q    Type
                         _______ _______ _______ _____ _____    ______ ____

>  <TORSDO>
F 4

$$$$
