=
 OpenBabel11052416013D

 34 39  0  0  1  0  0  0  0  0999 V2000
  188.6300  178.1030  143.5380 C   0  0  0  0  0  0  0  0  0  0  0  0
  188.8830  177.2700  145.8980 C   0  0  0  0  0  0  0  0  0  0  0  0
  186.4230  177.7690  145.6780 C   0  0  0  0  0  3  0  0  0  0  0  0
  188.2860  178.3480  141.2770 C   0  0  2  0  0  3  0  0  0  0  0  0
  189.2590  178.1900  142.3050 O   0  0  0  0  0  0  0  0  0  0  0  0
  186.9430  178.0570  141.9490 C   0  0  2  0  0  3  0  0  0  0  0  0
  184.8430  178.7330  142.4340 C   0  0  0  0  0  2  0  0  0  0  0  0
  186.0270  179.1100  141.7590 O   0  0  0  0  0  0  0  0  0  0  0  0
  186.2930  178.1750  144.4110 C   0  0  0  0  0  0  0  0  0  0  0  0
  187.3270  178.0030  143.3850 C   0  0  0  0  0  0  0  0  0  0  0  0
  185.0150  178.8300  143.9660 C   0  0  0  0  0  2  0  0  0  0  0  0
  189.9010  176.5210  146.6520 C   0  0  0  0  0  3  0  0  0  0  0  0
  191.2080  176.7100  146.4420 C   0  0  0  0  0  0  0  0  0  0  0  0
  191.6660  177.6850  145.4350 C   0  0  0  0  0  3  0  0  0  0  0  0
  187.6090  177.1200  146.2760 C   0  0  0  0  0  3  0  0  0  0  0  0
  190.8090  178.4020  144.7050 C   0  0  0  0  0  3  0  0  0  0  0  0
  189.3130  178.2890  144.8610 C   0  0  1  0  0  3  0  0  0  0  0  0
  192.2000  175.9370  147.2060 C   0  0  0  0  0  0  0  0  0  0  0  0
  192.6250  174.8310  146.7760 O   0  0  0  0  0  0  0  0  0  0  0  0
  192.6820  176.4240  148.4160 O   0  0  0  0  0  1  0  0  0  0  0  0
  188.5570  177.4640  140.0520 C   0  0  0  0  0  2  0  0  0  0  0  0
  188.2220  176.9770  137.6290 N   0  0  0  0  0  0  0  0  0  0  0  0
  186.6330  178.3280  138.7780 O   0  0  0  0  0  0  0  0  0  0  0  0
  185.2050  176.3830  135.3900 C   0  0  1  0  0  3  0  0  0  0  0  0
  184.2220  176.8340  136.4020 N   0  0  0  0  0  0  0  0  0  0  0  0
  186.5670  175.9970  136.0150 C   0  0  1  0  0  3  0  0  0  0  0  0
  183.1610  177.3460  135.7340 O   0  0  0  0  0  1  0  0  0  0  0  0
  187.0240  177.1720  136.8600 C   0  0  1  0  0  3  0  0  0  0  0  0
  184.6550  175.2090  134.5940 C   0  0  0  0  0  1  0  0  0  0  0  0
  184.7630  177.9330  137.2170 C   0  0  0  0  0  2  0  0  0  0  0  0
  186.0140  177.4370  137.9050 C   0  0  2  0  0  3  0  0  0  0  0  0
  186.4490  174.8590  136.7920 F   0  0  0  0  0  0  0  0  0  0  0  0
  188.0010  177.9510  138.7060 C   0  0  1  0  0  3  0  0  0  0  0  0
  189.3270  177.4740  136.8280 C   0  0  0  0  0  1  0  0  0  0  0  0
  1 17  1  0  0  0  0
  2 15  2  0  0  0  0
  2 12  1  0  0  0  0
  3 15  1  0  0  0  0
  4 21  1  6  0  0  0
  4  6  1  0  0  0  0
  4  5  1  0  0  0  0
  5  1  1  0  0  0  0
  6  8  1  1  0  0  0
  6 10  1  0  0  0  0
  7 11  1  0  0  0  0
  8  7  1  0  0  0  0
  9  3  2  0  0  0  0
 10  1  2  0  0  0  0
 10  9  1  0  0  0  0
 11  9  1  0  0  0  0
 13 12  2  0  0  0  0
 13 18  1  0  0  0  0
 14 13  1  0  0  0  0
 16 14  2  0  0  0  0
 17 16  1  6  0  0  0
 17  2  1  0  0  0  0
 18 20  1  0  0  0  0
 19 18  2  0  0  0  0
 22 33  1  0  0  0  0
 24 29  1  1  0  0  0
 24 26  1  0  0  0  0
 24 25  1  0  0  0  0
 25 30  1  0  0  0  0
 26 32  1  1  0  0  0
 26 28  1  0  0  0  0
 27 25  1  0  0  0  0
 28 22  1  1  0  0  0
 28 31  1  0  0  0  0
 31 30  1  6  0  0  0
 31 23  1  0  0  0  0
 33 23  1  0  0  0  0
 33 21  1  1  0  0  0
 34 22  1  0  0  0  0
M  END
>  <MODEL>
1

>  <REMARK>
 VINA RESULT:      -9.9      0.000      0.000
  Name = 
  3 active torsions:
  status: ('A' for Active; 'I' for Inactive)
    1  A    between atoms: C_3  and  C_25
    2  A    between atoms: C_8  and  C_18
    3  A    between atoms: C_18  and  C_30
                            x       y       z     vdW  Elec       q    Type
                         _______ _______ _______ _____ _____    ______ ____

>  <TORSDO>
F 3

$$$$
=
 OpenBabel11052416013D

 34 39  0  0  1  0  0  0  0  0999 V2000
  188.5210  178.0520  143.8360 C   0  0  0  0  0  0  0  0  0  0  0  0
  188.8790  177.1610  146.1610 C   0  0  0  0  0  0  0  0  0  0  0  0
  186.4060  177.6360  146.0550 C   0  0  0  0  0  3  0  0  0  0  0  0
  188.0820  178.3520  141.5980 C   0  0  2  0  0  3  0  0  0  0  0  0
  189.0970  178.1790  142.5820 O   0  0  0  0  0  0  0  0  0  0  0  0
  186.7700  178.0280  142.3170 C   0  0  2  0  0  3  0  0  0  0  0  0
  184.6840  178.6650  142.9050 C   0  0  0  0  0  2  0  0  0  0  0  0
  185.8360  179.0740  142.1930 O   0  0  0  0  0  0  0  0  0  0  0  0
  186.2200  178.0730  144.8060 C   0  0  0  0  0  0  0  0  0  0  0  0
  187.2130  177.9400  143.7340 C   0  0  0  0  0  0  0  0  0  0  0  0
  184.9180  178.7240  144.4310 C   0  0  0  0  0  2  0  0  0  0  0  0
  189.9350  176.4060  146.8530 C   0  0  0  0  0  3  0  0  0  0  0  0
  191.2300  176.6160  146.5960 C   0  0  0  0  0  0  0  0  0  0  0  0
  191.6360  177.6230  145.5960 C   0  0  0  0  0  3  0  0  0  0  0  0
  187.6230  176.9860  146.5870 C   0  0  0  0  0  3  0  0  0  0  0  0
  190.7420  178.3480  144.9220 C   0  0  0  0  0  3  0  0  0  0  0  0
  189.2550  178.2120  145.1350 C   0  0  1  0  0  3  0  0  0  0  0  0
  192.2620  175.8350  147.2980 C   0  0  0  0  0  0  0  0  0  0  0  0
  192.7150  174.7710  146.7980 O   0  0  0  0  0  0  0  0  0  0  0  0
  192.7500  176.2700  148.5250 O   0  0  0  0  0  1  0  0  0  0  0  0
  188.3110  177.5040  140.3410 C   0  0  0  0  0  2  0  0  0  0  0  0
  190.6390  176.7760  139.8200 N   0  0  0  0  0  0  0  0  0  0  0  0
  189.3650  177.8960  138.1480 O   0  0  0  0  0  0  0  0  0  0  0  0
  192.4250  175.4620  136.7300 C   0  0  1  0  0  3  0  0  0  0  0  0
  191.3190  175.8010  135.8060 N   0  0  0  0  0  0  0  0  0  0  0  0
  191.9660  175.3850  138.2050 C   0  0  1  0  0  3  0  0  0  0  0  0
  191.8670  176.0550  134.5940 O   0  0  0  0  0  1  0  0  0  0  0  0
  191.2530  176.6860  138.5240 C   0  0  1  0  0  3  0  0  0  0  0  0
  193.0780  174.1490  136.3250 C   0  0  0  0  0  1  0  0  0  0  0  0
  190.6430  177.0410  136.2170 C   0  0  0  0  0  2  0  0  0  0  0  0
  190.1000  176.8400  137.6140 C   0  0  2  0  0  3  0  0  0  0  0  0
  191.1200  174.3090  138.4030 F   0  0  0  0  0  0  0  0  0  0  0  0
  189.5960  177.7740  139.5450 C   0  0  1  0  0  3  0  0  0  0  0  0
  191.6040  177.4050  140.7050 C   0  0  0  0  0  1  0  0  0  0  0  0
  1 17  1  0  0  0  0
  2 15  2  0  0  0  0
  2 12  1  0  0  0  0
  3 15  1  0  0  0  0
  4 21  1  6  0  0  0
  4  6  1  0  0  0  0
  4  5  1  0  0  0  0
  5  1  1  0  0  0  0
  6  8  1  1  0  0  0
  6 10  1  0  0  0  0
  7 11  1  0  0  0  0
  8  7  1  0  0  0  0
  9  3  2  0  0  0  0
 10  1  2  0  0  0  0
 10  9  1  0  0  0  0
 11  9  1  0  0  0  0
 13 12  2  0  0  0  0
 13 18  1  0  0  0  0
 14 13  1  0  0  0  0
 16 14  2  0  0  0  0
 17 16  1  6  0  0  0
 17  2  1  0  0  0  0
 18 20  1  0  0  0  0
 19 18  2  0  0  0  0
 22 34  1  0  0  0  0
 23 33  1  0  0  0  0
 24 29  1  6  0  0  0
 24 26  1  0  0  0  0
 25 30  1  0  0  0  0
 25 24  1  0  0  0  0
 26 32  1  6  0  0  0
 26 28  1  0  0  0  0
 27 25  1  0  0  0  0
 28 22  1  1  0  0  0
 31 30  1  6  0  0  0
 31 23  1  0  0  0  0
 31 28  1  0  0  0  0
 33 22  1  0  0  0  0
 33 21  1  1  0  0  0
M  END
>  <MODEL>
2

>  <REMARK>
 VINA RESULT:      -9.9      2.854      3.591
  Name = 
  3 active torsions:
  status: ('A' for Active; 'I' for Inactive)
    1  A    between atoms: C_3  and  C_25
    2  A    between atoms: C_8  and  C_18
    3  A    between atoms: C_18  and  C_30
                            x       y       z     vdW  Elec       q    Type
                         _______ _______ _______ _____ _____    ______ ____

>  <TORSDO>
F 3

$$$$
=
 OpenBabel11052416013D

 34 39  0  0  1  0  0  0  0  0999 V2000
  185.8970  178.4030  141.6500 C   0  0  0  0  0  0  0  0  0  0  0  0
  188.1980  177.6590  142.3420 C   0  0  0  0  0  0  0  0  0  0  0  0
  186.9630  177.9560  144.5180 C   0  0  0  0  0  3  0  0  0  0  0  0
  183.6830  178.5570  141.0450 C   0  0  2  0  0  3  0  0  0  0  0  0
  185.0270  178.5050  140.5750 O   0  0  0  0  0  0  0  0  0  0  0  0
  183.7630  178.1800  142.5270 C   0  0  2  0  0  3  0  0  0  0  0  0
  183.3070  178.7010  144.6770 C   0  0  0  0  0  2  0  0  0  0  0  0
  183.1550  179.1520  143.3450 O   0  0  0  0  0  0  0  0  0  0  0  0
  185.7330  178.3150  144.1390 C   0  0  0  0  0  0  0  0  0  0  0  0
  185.2310  178.1960  142.7650 C   0  0  2  0  0  3  0  0  0  0  0  0
  184.7670  178.8540  145.1570 C   0  0  0  0  0  2  0  0  0  0  0  0
  189.3440  177.0150  141.6810 C   0  0  0  0  0  3  0  0  0  0  0  0
  189.6770  177.3000  140.4180 C   0  0  0  0  0  0  0  0  0  0  0  0
  188.8900  178.2800  139.6450 C   0  0  0  0  0  3  0  0  0  0  0  0
  188.0310  177.4200  143.6470 C   0  0  0  0  0  3  0  0  0  0  0  0
  187.8330  178.9060  140.1670 C   0  0  0  0  0  3  0  0  0  0  0  0
  187.3710  178.6790  141.5850 C   0  0  0  0  0  0  0  0  0  0  0  0
  190.8230  176.6290  139.7840 C   0  0  0  0  0  0  0  0  0  0  0  0
  190.6520  175.6240  139.0430 O   0  0  0  0  0  0  0  0  0  0  0  0
  192.1130  177.1030  139.9960 O   0  0  0  0  0  1  0  0  0  0  0  0
  182.7290  177.6640  140.2420 C   0  0  0  0  0  2  0  0  0  0  0  0
  181.3720  179.7470  140.0410 N   0  0  0  0  0  0  0  0  0  0  0  0
  181.3740  178.1780  138.2490 O   0  0  0  0  0  0  0  0  0  0  0  0
  180.4360  182.0900  137.1960 C   0  0  1  0  0  3  0  0  0  0  0  0
  180.9200  181.1790  136.1330 N   0  0  0  0  0  0  0  0  0  0  0  0
  181.0410  181.7630  138.5810 C   0  0  1  0  0  3  0  0  0  0  0  0
  180.1720  181.4120  135.0280 O   0  0  0  0  0  1  0  0  0  0  0  0
  180.7850  180.2900  138.8470 C   0  0  1  0  0  3  0  0  0  0  0  0
  180.7330  183.5380  136.8350 C   0  0  0  0  0  1  0  0  0  0  0  0
  180.6890  179.7710  136.4940 C   0  0  0  0  0  2  0  0  0  0  0  0
  181.4250  179.4890  137.7850 C   0  0  2  0  0  3  0  0  0  0  0  0
  182.3970  182.0290  138.6040 F   0  0  0  0  0  0  0  0  0  0  0  0
  181.4760  178.3320  139.6580 C   0  0  1  0  0  3  0  0  0  0  0  0
  180.3670  179.8300  141.0860 C   0  0  0  0  0  1  0  0  0  0  0  0
  2 15  2  0  0  0  0
  4 21  1  6  0  0  0
  4  6  1  0  0  0  0
  5  4  1  0  0  0  0
  5  1  1  0  0  0  0
  6 10  1  0  0  0  0
  6  8  1  1  0  0  0
  7 11  1  0  0  0  0
  8  7  1  0  0  0  0
  9  3  2  0  0  0  0
  9 11  1  0  0  0  0
 10  1  1  6  0  0  0
 10  9  1  0  0  0  0
 12  2  1  0  0  0  0
 13 12  2  0  0  0  0
 14 16  2  0  0  0  0
 14 13  1  0  0  0  0
 15  3  1  0  0  0  0
 16 17  1  0  0  0  0
 17  1  2  0  0  0  0
 17  2  1  0  0  0  0
 18 20  1  0  0  0  0
 18 13  1  0  0  0  0
 19 18  2  0  0  0  0
 22 34  1  0  0  0  0
 23 33  1  0  0  0  0
 24 29  1  6  0  0  0
 24 26  1  0  0  0  0
 25 30  1  0  0  0  0
 25 24  1  0  0  0  0
 26 32  1  6  0  0  0
 26 28  1  0  0  0  0
 27 25  1  0  0  0  0
 28 22  1  1  0  0  0
 31 30  1  6  0  0  0
 31 23  1  0  0  0  0
 31 28  1  0  0  0  0
 33 22  1  0  0  0  0
 33 21  1  6  0  0  0
M  END
>  <MODEL>
3

>  <REMARK>
 VINA RESULT:      -9.2      4.092      5.862
  Name = 
  3 active torsions:
  status: ('A' for Active; 'I' for Inactive)
    1  A    between atoms: C_3  and  C_25
    2  A    between atoms: C_8  and  C_18
    3  A    between atoms: C_18  and  C_30
                            x       y       z     vdW  Elec       q    Type
                         _______ _______ _______ _____ _____    ______ ____

>  <TORSDO>
F 3

$$$$
=
 OpenBabel11052416013D

 34 39  0  0  1  0  0  0  0  0999 V2000
  188.3790  178.3180  141.9810 C   0  0  0  0  0  0  0  0  0  0  0  0
  188.5640  177.3770  144.3070 C   0  0  0  0  0  0  0  0  0  0  0  0
  186.1080  177.8730  144.0330 C   0  0  0  0  0  3  0  0  0  0  0  0
  188.1050  178.6670  139.7240 C   0  0  2  0  0  3  0  0  0  0  0  0
  189.0460  178.4670  140.7750 O   0  0  0  0  0  0  0  0  0  0  0  0
  186.7430  178.3380  140.3400 C   0  0  2  0  0  3  0  0  0  0  0  0
  184.6240  178.9780  140.7890 C   0  0  0  0  0  2  0  0  0  0  0  0
  185.8260  179.3930  140.1700 O   0  0  0  0  0  0  0  0  0  0  0  0
  186.0150  178.3360  142.7830 C   0  0  0  0  0  0  0  0  0  0  0  0
  187.0820  178.2180  141.7830 C   0  0  0  0  0  0  0  0  0  0  0  0
  184.7470  179.0040  142.3280 C   0  0  0  0  0  2  0  0  0  0  0  0
  189.5630  176.6010  145.0570 C   0  0  0  0  0  3  0  0  0  0  0  0
  190.8750  176.8070  144.8980 C   0  0  0  0  0  0  0  0  0  0  0  0
  191.3580  177.8300  143.9520 C   0  0  0  0  0  3  0  0  0  0  0  0
  187.2800  177.2030  144.6370 C   0  0  0  0  0  3  0  0  0  0  0  0
  190.5180  178.5750  143.2300 C   0  0  0  0  0  3  0  0  0  0  0  0
  189.0190  178.4460  143.3330 C   0  0  1  0  0  3  0  0  0  0  0  0
  191.8480  176.0040  145.6560 C   0  0  0  0  0  0  0  0  0  0  0  0
  192.3260  174.9440  145.1700 O   0  0  0  0  0  0  0  0  0  0  0  0
  192.2530  176.4120  146.9220 O   0  0  0  0  0  1  0  0  0  0  0  0
  188.4200  177.8440  138.4690 C   0  0  0  0  0  2  0  0  0  0  0  0
  189.5180  175.8740  137.4020 N   0  0  0  0  0  0  0  0  0  0  0  0
  190.6570  177.0510  139.1310 O   0  0  0  0  0  0  0  0  0  0  0  0
  193.0930  174.9410  136.5020 C   0  0  1  0  0  3  0  0  0  0  0  0
  193.6990  176.0480  137.2780 N   0  0  0  0  0  0  0  0  0  0  0  0
  191.6010  175.1880  136.1790 C   0  0  1  0  0  3  0  0  0  0  0  0
  194.9220  175.6330  137.6870 O   0  0  0  0  0  1  0  0  0  0  0  0
  190.9020  175.4970  137.4910 C   0  0  1  0  0  3  0  0  0  0  0  0
  193.8660  174.7060  135.2130 C   0  0  0  0  0  1  0  0  0  0  0  0
  192.9300  176.3220  138.5020 C   0  0  0  0  0  2  0  0  0  0  0  0
  191.5200  176.6920  138.0980 C   0  0  2  0  0  3  0  0  0  0  0  0
  191.4540  176.2410  135.2950 F   0  0  0  0  0  0  0  0  0  0  0  0
  189.3840  176.6600  138.6370 C   0  0  1  0  0  3  0  0  0  0  0  0
  188.7340  174.6650  137.5830 C   0  0  0  0  0  1  0  0  0  0  0  0
  1 17  1  0  0  0  0
  2 15  2  0  0  0  0
  2 12  1  0  0  0  0
  3 15  1  0  0  0  0
  4 21  1  6  0  0  0
  4  6  1  0  0  0  0
  4  5  1  0  0  0  0
  5  1  1  0  0  0  0
  6  8  1  1  0  0  0
  6 10  1  0  0  0  0
  7 11  1  0  0  0  0
  8  7  1  0  0  0  0
  9  3  2  0  0  0  0
 10  1  2  0  0  0  0
 10  9  1  0  0  0  0
 11  9  1  0  0  0  0
 13 12  2  0  0  0  0
 13 18  1  0  0  0  0
 14 13  1  0  0  0  0
 16 14  2  0  0  0  0
 17 16  1  6  0  0  0
 17  2  1  0  0  0  0
 18 20  1  0  0  0  0
 19 18  2  0  0  0  0
 22 34  1  0  0  0  0
 22 33  1  0  0  0  0
 24 29  1  6  0  0  0
 24 25  1  0  0  0  0
 25 27  1  0  0  0  0
 25 30  1  0  0  0  0
 26 32  1  6  0  0  0
 26 24  1  0  0  0  0
 26 28  1  0  0  0  0
 28 22  1  6  0  0  0
 28 31  1  0  0  0  0
 31 30  1  1  0  0  0
 31 23  1  0  0  0  0
 33 21  1  6  0  0  0
 33 23  1  0  0  0  0
M  END
>  <MODEL>
4

>  <REMARK>
 VINA RESULT:      -9.1      2.837      4.374
  Name = 
  3 active torsions:
  status: ('A' for Active; 'I' for Inactive)
    1  A    between atoms: C_3  and  C_25
    2  A    between atoms: C_8  and  C_18
    3  A    between atoms: C_18  and  C_30
                            x       y       z     vdW  Elec       q    Type
                         _______ _______ _______ _____ _____    ______ ____

>  <TORSDO>
F 3

$$$$
=
 OpenBabel11052416013D

 34 39  0  0  1  0  0  0  0  0999 V2000
  186.9310  178.5920  140.6010 C   0  0  0  0  0  0  0  0  0  0  0  0
  184.4390  178.5210  140.9380 C   0  0  0  0  0  0  0  0  0  0  0  0
  184.7420  178.1010  138.4720 C   0  0  0  0  0  3  0  0  0  0  0  0
  189.1700  178.1240  140.3610 C   0  0  2  0  0  3  0  0  0  0  0  0
  188.1530  178.5670  141.2550 O   0  0  0  0  0  0  0  0  0  0  0  0
  188.4230  177.5850  139.1390 C   0  0  2  0  0  3  0  0  0  0  0  0
  188.0980  177.6240  136.9050 C   0  0  0  0  0  2  0  0  0  0  0  0
  188.8680  178.1880  137.9480 O   0  0  0  0  0  0  0  0  0  0  0  0
  186.0680  178.1030  138.3100 C   0  0  0  0  0  0  0  0  0  0  0  0
  187.0300  178.0290  139.4150 C   0  0  0  0  0  0  0  0  0  0  0  0
  186.6490  178.1590  136.9240 C   0  0  0  0  0  2  0  0  0  0  0  0
  183.5320  178.3730  142.0860 C   0  0  0  0  0  3  0  0  0  0  0  0
  183.8050  178.9260  143.2720 C   0  0  0  0  0  0  0  0  0  0  0  0
  185.0430  179.7070  143.4610 C   0  0  0  0  0  3  0  0  0  0  0  0
  184.0130  178.0580  139.7580 C   0  0  0  0  0  3  0  0  0  0  0  0
  185.9210  179.8860  142.4730 C   0  0  0  0  0  3  0  0  0  0  0  0
  185.7160  179.3260  141.0880 C   0  0  1  0  0  3  0  0  0  0  0  0
  182.8810  178.7480  144.4040 C   0  0  0  0  0  0  0  0  0  0  0  0
  181.6770  178.4320  144.2090 O   0  0  0  0  0  0  0  0  0  0  0  0
  183.3320  178.9270  145.7080 O   0  0  0  0  0  1  0  0  0  0  0  0
  190.1220  177.1000  140.9920 C   0  0  0  0  0  2  0  0  0  0  0  0
  190.4640  176.6760  143.4260 N   0  0  0  0  0  0  0  0  0  0  0  0
  188.2580  176.6240  142.5320 O   0  0  0  0  0  0  0  0  0  0  0  0
  188.5180  177.4550  146.5990 C   0  0  1  0  0  3  0  0  0  0  0  0
  187.2880  177.8630  145.8810 N   0  0  0  0  0  0  0  0  0  0  0  0
  189.7740  177.4940  145.6970 C   0  0  1  0  0  3  0  0  0  0  0  0
  186.2370  177.5840  146.6880 O   0  0  0  0  0  1  0  0  0  0  0  0
  189.4640  176.6740  144.4570 C   0  0  1  0  0  3  0  0  0  0  0  0
  188.7370  178.3290  147.8240 C   0  0  0  0  0  1  0  0  0  0  0  0
  187.0920  177.0610  144.6630 C   0  0  0  0  0  2  0  0  0  0  0  0
  188.2970  177.2600  143.7700 C   0  0  2  0  0  3  0  0  0  0  0  0
  190.0920  178.7940  145.3490 F   0  0  0  0  0  0  0  0  0  0  0  0
  189.6290  176.3780  142.2540 C   0  0  1  0  0  3  0  0  0  0  0  0
  191.3090  175.5150  143.6500 C   0  0  0  0  0  1  0  0  0  0  0  0
  1 17  1  0  0  0  0
  1  5  1  0  0  0  0
  2 17  1  0  0  0  0
  2 12  1  0  0  0  0
  3 15  1  0  0  0  0
  4 21  1  1  0  0  0
  4  5  1  0  0  0  0
  6  8  1  6  0  0  0
  6 10  1  0  0  0  0
  6  4  1  0  0  0  0
  7 11  1  0  0  0  0
  7  8  1  0  0  0  0
  9  3  2  0  0  0  0
  9 10  1  0  0  0  0
 10  1  2  0  0  0  0
 11  9  1  0  0  0  0
 12 13  2  0  0  0  0
 13 14  1  0  0  0  0
 13 18  1  0  0  0  0
 15  2  2  0  0  0  0
 16 14  2  0  0  0  0
 17 16  1  1  0  0  0
 18 20  1  0  0  0  0
 19 18  2  0  0  0  0
 22 34  1  0  0  0  0
 23 31  1  0  0  0  0
 24 29  1  1  0  0  0
 25 24  1  0  0  0  0
 25 27  1  0  0  0  0
 26 32  1  6  0  0  0
 26 24  1  0  0  0  0
 28 22  1  6  0  0  0
 28 26  1  0  0  0  0
 30 25  1  0  0  0  0
 31 28  1  0  0  0  0
 31 30  1  1  0  0  0
 33 21  1  6  0  0  0
 33 23  1  0  0  0  0
 33 22  1  0  0  0  0
M  END
>  <MODEL>
5

>  <REMARK>
 VINA RESULT:      -9.0      3.608      7.708
  Name = 
  3 active torsions:
  status: ('A' for Active; 'I' for Inactive)
    1  A    between atoms: C_3  and  C_25
    2  A    between atoms: C_8  and  C_18
    3  A    between atoms: C_18  and  C_30
                            x       y       z     vdW  Elec       q    Type
                         _______ _______ _______ _____ _____    ______ ____

>  <TORSDO>
F 3

$$$$
=
 OpenBabel11052416013D

 34 39  0  0  1  0  0  0  0  0999 V2000
  187.9280  177.6210  142.7570 C   0  0  0  0  0  0  0  0  0  0  0  0
  189.6110  177.6000  144.6270 C   0  0  0  0  0  0  0  0  0  0  0  0
  191.0070  177.4300  142.5360 C   0  0  0  0  0  3  0  0  0  0  0  0
  186.4870  178.1690  141.0500 C   0  0  2  0  0  3  0  0  0  0  0  0
  186.6050  177.8880  142.4410 O   0  0  0  0  0  0  0  0  0  0  0  0
  187.9250  178.3440  140.5540 C   0  0  2  0  0  3  0  0  0  0  0  0
  189.5540  177.7430  139.1100 C   0  0  0  0  0  2  0  0  0  0  0  0
  188.2050  177.5030  139.4610 O   0  0  0  0  0  0  0  0  0  0  0  0
  190.1080  177.4800  141.5480 C   0  0  0  0  0  0  0  0  0  0  0  0
  188.7100  177.8850  141.7320 C   0  0  0  0  0  0  0  0  0  0  0  0
  190.5210  177.1300  140.1460 C   0  0  0  0  0  2  0  0  0  0  0  0
  189.6110  177.9590  146.0530 C   0  0  0  0  0  3  0  0  0  0  0  0
  188.5490  177.7300  146.8340 C   0  0  0  0  0  0  0  0  0  0  0  0
  187.3360  177.1050  146.2740 C   0  0  0  0  0  3  0  0  0  0  0  0
  190.7640  177.7330  143.9620 C   0  0  0  0  0  3  0  0  0  0  0  0
  187.2520  176.7520  144.9900 C   0  0  0  0  0  3  0  0  0  0  0  0
  188.3870  176.9450  144.0160 C   0  0  1  0  0  3  0  0  0  0  0  0
  188.5780  178.1130  148.2550 C   0  0  0  0  0  0  0  0  0  0  0  0
  187.5560  177.9770  148.9790 O   0  0  0  0  0  1  0  0  0  0  0  0
  189.7430  178.6280  148.8150 O   0  0  0  0  0  0  0  0  0  0  0  0
  185.5910  179.3790  140.7540 C   0  0  0  0  0  2  0  0  0  0  0  0
  184.5770  177.8750  139.0420 N   0  0  0  0  0  0  0  0  0  0  0  0
  183.2570  179.6100  139.9990 O   0  0  0  0  0  0  0  0  0  0  0  0
  181.1270  176.3820  138.4690 C   0  0  1  0  0  3  0  0  0  0  0  0
  180.4620  177.2430  139.4740 N   0  0  0  0  0  0  0  0  0  0  0  0
  182.6570  176.2990  138.6760 C   0  0  1  0  0  3  0  0  0  0  0  0
  179.1800  177.4180  139.0730 O   0  0  0  0  0  1  0  0  0  0  0  0
  183.1820  177.7220  138.7360 C   0  0  1  0  0  3  0  0  0  0  0  0
  180.5290  174.9830  138.4830 C   0  0  0  0  0  1  0  0  0  0  0  0
  181.0660  178.5840  139.5100 C   0  0  0  0  0  2  0  0  0  0  0  0
  182.5310  178.4300  139.8550 C   0  0  2  0  0  3  0  0  0  0  0  0
  182.9620  175.6230  139.8430 F   0  0  0  0  0  0  0  0  0  0  0  0
  184.5710  179.2270  139.6170 C   0  0  1  0  0  3  0  0  0  0  0  0
  185.2850  177.9570  137.7760 C   0  0  0  0  0  1  0  0  0  0  0  0
  1 17  1  0  0  0  0
  2 12  1  0  0  0  0
  3 15  1  0  0  0  0
  4 21  1  1  0  0  0
  4  5  1  0  0  0  0
  5  1  1  0  0  0  0
  6  8  1  6  0  0  0
  6  4  1  0  0  0  0
  6 10  1  0  0  0  0
  7  8  1  0  0  0  0
  7 11  1  0  0  0  0
  9 10  1  0  0  0  0
  9  3  2  0  0  0  0
 10  1  2  0  0  0  0
 11  9  1  0  0  0  0
 12 13  2  0  0  0  0
 13 18  1  0  0  0  0
 14 13  1  0  0  0  0
 15  2  2  0  0  0  0
 16 14  2  0  0  0  0
 17  2  1  0  0  0  0
 17 16  1  1  0  0  0
 18 20  2  0  0  0  0
 18 19  1  0  0  0  0
 22 33  1  0  0  0  0
 24 29  1  1  0  0  0
 24 26  1  0  0  0  0
 24 25  1  0  0  0  0
 25 30  1  0  0  0  0
 26 28  1  0  0  0  0
 26 32  1  1  0  0  0
 27 25  1  0  0  0  0
 28 22  1  1  0  0  0
 28 31  1  0  0  0  0
 31 30  1  6  0  0  0
 31 23  1  0  0  0  0
 33 23  1  0  0  0  0
 33 21  1  1  0  0  0
 34 22  1  0  0  0  0
M  END
>  <MODEL>
6

>  <REMARK>
 VINA RESULT:      -8.9      2.847      4.174
  Name = 
  3 active torsions:
  status: ('A' for Active; 'I' for Inactive)
    1  A    between atoms: C_3  and  C_25
    2  A    between atoms: C_8  and  C_18
    3  A    between atoms: C_18  and  C_30
                            x       y       z     vdW  Elec       q    Type
                         _______ _______ _______ _____ _____    ______ ____

>  <TORSDO>
F 3

$$$$
=
 OpenBabel11052416013D

 34 39  0  0  1  0  0  0  0  0999 V2000
  188.9940  177.3730  142.1890 C   0  0  0  0  0  0  0  0  0  0  0  0
  189.3500  177.7400  144.6520 C   0  0  0  0  0  0  0  0  0  0  0  0
  191.6800  177.5450  143.7130 C   0  0  0  0  0  3  0  0  0  0  0  0
  188.7230  177.5730  139.9140 C   0  0  2  0  0  3  0  0  0  0  0  0
  188.0590  177.4430  141.1680 O   0  0  0  0  0  0  0  0  0  0  0  0
  190.1820  177.8760  140.2630 C   0  0  2  0  0  3  0  0  0  0  0  0
  192.3670  177.3460  140.0480 C   0  0  0  0  0  2  0  0  0  0  0  0
  191.0650  176.9750  139.6380 O   0  0  0  0  0  0  0  0  0  0  0  0
  191.4810  177.3880  142.4010 C   0  0  0  0  0  0  0  0  0  0  0  0
  190.2000  177.6330  141.7300 C   0  0  0  0  0  0  0  0  0  0  0  0
  192.6230  176.9600  141.5210 C   0  0  0  0  0  2  0  0  0  0  0  0
  188.5380  178.2320  145.7760 C   0  0  0  0  0  3  0  0  0  0  0  0
  187.2350  177.9490  145.8760 C   0  0  0  0  0  0  0  0  0  0  0  0
  186.5710  177.1280  144.8460 C   0  0  0  0  0  3  0  0  0  0  0  0
  190.6690  177.9510  144.7130 C   0  0  0  0  0  3  0  0  0  0  0  0
  187.2340  176.6460  143.7930 C   0  0  0  0  0  3  0  0  0  0  0  0
  188.7080  176.8840  143.5790 C   0  0  1  0  0  3  0  0  0  0  0  0
  186.4480  178.4670  147.0080 C   0  0  0  0  0  0  0  0  0  0  0  0
  187.0080  178.7730  148.0940 O   0  0  0  0  0  1  0  0  0  0  0  0
  185.0720  178.6260  146.8850 O   0  0  0  0  0  0  0  0  0  0  0  0
  188.0840  178.6280  139.0020 C   0  0  0  0  0  2  0  0  0  0  0  0
  188.2450  176.8470  137.2620 N   0  0  0  0  0  0  0  0  0  0  0  0
  186.3610  178.3030  137.2700 O   0  0  0  0  0  0  0  0  0  0  0  0
  185.7570  174.6100  135.4550 C   0  0  1  0  0  3  0  0  0  0  0  0
  184.5680  175.3590  135.9240 N   0  0  0  0  0  0  0  0  0  0  0  0
  187.0080  174.8740  136.3260 C   0  0  1  0  0  3  0  0  0  0  0  0
  183.6090  175.2290  134.9780 O   0  0  0  0  0  1  0  0  0  0  0  0
  187.1980  176.3780  136.3990 C   0  0  1  0  0  3  0  0  0  0  0  0
  185.4670  173.1180  135.4120 C   0  0  0  0  0  1  0  0  0  0  0  0
  184.8520  176.8000  136.0240 C   0  0  0  0  0  2  0  0  0  0  0  0
  185.9940  176.9880  136.9980 C   0  0  2  0  0  3  0  0  0  0  0  0
  186.8480  174.3450  137.5940 F   0  0  0  0  0  0  0  0  0  0  0  0
  187.7460  178.1950  137.5680 C   0  0  1  0  0  3  0  0  0  0  0  0
  189.4330  177.0120  136.4410 C   0  0  0  0  0  1  0  0  0  0  0  0
  1 17  1  0  0  0  0
  2 15  2  0  0  0  0
  2 12  1  0  0  0  0
  3 15  1  0  0  0  0
  4 21  1  6  0  0  0
  4  6  1  0  0  0  0
  4  5  1  0  0  0  0
  5  1  1  0  0  0  0
  6  8  1  6  0  0  0
  6 10  1  0  0  0  0
  7 11  1  0  0  0  0
  8  7  1  0  0  0  0
  9  3  2  0  0  0  0
 10  1  2  0  0  0  0
 10  9  1  0  0  0  0
 11  9  1  0  0  0  0
 12 13  2  0  0  0  0
 13 18  1  0  0  0  0
 14 13  1  0  0  0  0
 16 14  2  0  0  0  0
 17 16  1  1  0  0  0
 17  2  1  0  0  0  0
 18 19  1  0  0  0  0
 20 18  2  0  0  0  0
 22 33  1  0  0  0  0
 23 33  1  0  0  0  0
 24 29  1  1  0  0  0
 24 25  1  0  0  0  0
 24 26  1  0  0  0  0
 25 30  1  0  0  0  0
 26 28  1  0  0  0  0
 26 32  1  1  0  0  0
 27 25  1  0  0  0  0
 28 31  1  0  0  0  0
 28 22  1  1  0  0  0
 31 30  1  6  0  0  0
 31 23  1  0  0  0  0
 33 21  1  1  0  0  0
 34 22  1  0  0  0  0
M  END
>  <MODEL>
7

>  <REMARK>
 VINA RESULT:      -8.9      2.268      3.954
  Name = 
  3 active torsions:
  status: ('A' for Active; 'I' for Inactive)
    1  A    between atoms: C_3  and  C_25
    2  A    between atoms: C_8  and  C_18
    3  A    between atoms: C_18  and  C_30
                            x       y       z     vdW  Elec       q    Type
                         _______ _______ _______ _____ _____    ______ ____

>  <TORSDO>
F 3

$$$$
=
 OpenBabel11052416013D

 34 39  0  0  1  0  0  0  0  0999 V2000
  183.7180  178.2110  141.3380 C   0  0  0  0  0  0  0  0  0  0  0  0
  184.8250  178.4090  143.5880 C   0  0  0  0  0  0  0  0  0  0  0  0
  182.4510  179.1470  144.0000 C   0  0  0  0  0  3  0  0  0  0  0  0
  182.5670  177.5420  139.4620 C   0  0  2  0  0  3  0  0  0  0  0  0
  183.8500  177.6780  140.0650 O   0  0  0  0  0  0  0  0  0  0  0  0
  181.5660  177.7710  140.5970 C   0  0  2  0  0  3  0  0  0  0  0  0
  179.7840  178.9040  141.3970 C   0  0  0  0  0  2  0  0  0  0  0  0
  180.6350  178.7770  140.2750 O   0  0  0  0  0  0  0  0  0  0  0  0
  181.8630  179.0030  142.8090 C   0  0  0  0  0  0  0  0  0  0  0  0
  182.4500  178.2600  141.6880 C   0  0  0  0  0  0  0  0  0  0  0  0
  180.5050  179.6020  142.5720 C   0  0  0  0  0  2  0  0  0  0  0  0
  186.0550  177.8950  144.2100 C   0  0  0  0  0  3  0  0  0  0  0  0
  187.1930  177.7740  143.5180 C   0  0  0  0  0  0  0  0  0  0  0  0
  187.2420  178.1560  142.0930 C   0  0  0  0  0  3  0  0  0  0  0  0
  183.7800  178.6300  144.3920 C   0  0  0  0  0  3  0  0  0  0  0  0
  186.1700  178.6270  141.4530 C   0  0  0  0  0  3  0  0  0  0  0  0
  184.8360  178.8230  142.1300 C   0  0  1  0  0  3  0  0  0  0  0  0
  188.4040  177.2450  144.1680 C   0  0  0  0  0  0  0  0  0  0  0  0
  189.1160  176.3780  143.5940 O   0  0  0  0  0  0  0  0  0  0  0  0
  188.7750  177.7020  145.4270 O   0  0  0  0  0  1  0  0  0  0  0  0
  182.3780  176.1980  138.7470 C   0  0  0  0  0  2  0  0  0  0  0  0
  183.8280  177.1820  136.9720 N   0  0  0  0  0  0  0  0  0  0  0  0
  184.2480  174.9620  137.7250 O   0  0  0  0  0  0  0  0  0  0  0  0
  187.5090  176.9270  136.0500 C   0  0  1  0  0  3  0  0  0  0  0  0
  187.7730  175.7790  136.9490 N   0  0  0  0  0  0  0  0  0  0  0  0
  186.2250  177.7000  136.4320 C   0  0  1  0  0  3  0  0  0  0  0  0
  188.7780  175.0570  136.3990 O   0  0  0  0  0  1  0  0  0  0  0  0
  185.0970  176.6870  136.5130 C   0  0  1  0  0  3  0  0  0  0  0  0
  188.6960  177.8780  136.0330 C   0  0  0  0  0  1  0  0  0  0  0  0
  186.6110  174.8790  137.0170 C   0  0  0  0  0  2  0  0  0  0  0  0
  185.4310  175.6720  137.5310 C   0  0  2  0  0  3  0  0  0  0  0  0
  186.3810  178.3460  137.6450 F   0  0  0  0  0  0  0  0  0  0  0  0
  183.2440  175.9430  137.5050 C   0  0  1  0  0  3  0  0  0  0  0  0
  183.0590  177.5390  135.7930 C   0  0  0  0  0  1  0  0  0  0  0  0
  1 10  2  0  0  0  0
  1 17  1  0  0  0  0
  2 12  1  0  0  0  0
  2 15  2  0  0  0  0
  3 15  1  0  0  0  0
  4 21  1  1  0  0  0
  4  5  1  0  0  0  0
  4  6  1  0  0  0  0
  5  1  1  0  0  0  0
  6  8  1  6  0  0  0
  6 10  1  0  0  0  0
  7 11  1  0  0  0  0
  8  7  1  0  0  0  0
  9  3  2  0  0  0  0
 10  9  1  0  0  0  0
 11  9  1  0  0  0  0
 13 18  1  0  0  0  0
 13 12  2  0  0  0  0
 14 13  1  0  0  0  0
 16 14  2  0  0  0  0
 17 16  1  6  0  0  0
 17  2  1  0  0  0  0
 18 20  1  0  0  0  0
 19 18  2  0  0  0  0
 22 33  1  0  0  0  0
 24 29  1  1  0  0  0
 24 26  1  0  0  0  0
 24 25  1  0  0  0  0
 25 30  1  0  0  0  0
 26 28  1  0  0  0  0
 26 32  1  1  0  0  0
 27 25  1  0  0  0  0
 28 22  1  1  0  0  0
 28 31  1  0  0  0  0
 31 30  1  6  0  0  0
 31 23  1  0  0  0  0
 33 23  1  0  0  0  0
 33 21  1  1  0  0  0
 34 22  1  0  0  0  0
M  END
>  <MODEL>
8

>  <REMARK>
 VINA RESULT:      -8.9      2.632      4.875
  Name = 
  3 active torsions:
  status: ('A' for Active; 'I' for Inactive)
    1  A    between atoms: C_3  and  C_25
    2  A    between atoms: C_8  and  C_18
    3  A    between atoms: C_18  and  C_30
                            x       y       z     vdW  Elec       q    Type
                         _______ _______ _______ _____ _____    ______ ____

>  <TORSDO>
F 3

$$$$
=
 OpenBabel11052416013D

 34 39  0  0  1  0  0  0  0  0999 V2000
  187.1090  178.2530  142.1710 C   0  0  0  0  0  0  0  0  0  0  0  0
  189.3270  177.0670  142.1840 C   0  0  0  0  0  0  0  0  0  0  0  0
  188.6430  177.1270  144.6080 C   0  0  0  0  0  3  0  0  0  0  0  0
  184.8840  178.8350  142.1330 C   0  0  2  0  0  3  0  0  0  0  0  0
  186.0690  178.6790  141.3580 O   0  0  0  0  0  0  0  0  0  0  0  0
  185.1970  178.1800  143.4800 C   0  0  2  0  0  3  0  0  0  0  0  0
  185.2970  178.3490  145.7300 C   0  0  0  0  0  2  0  0  0  0  0  0
  184.9590  179.0590  144.5540 O   0  0  0  0  0  0  0  0  0  0  0  0
  187.4480  177.7240  144.5860 C   0  0  0  0  0  0  0  0  0  0  0  0
  186.6600  177.9390  143.3670 C   0  0  2  0  0  3  0  0  0  0  0  0
  186.8280  178.1960  145.8720 C   0  0  0  0  0  2  0  0  0  0  0  0
  190.1750  176.4000  141.1840 C   0  0  0  0  0  3  0  0  0  0  0  0
  190.2870  176.8660  139.9360 C   0  0  0  0  0  0  0  0  0  0  0  0
  189.5500  178.0760  139.5250 C   0  0  0  0  0  3  0  0  0  0  0  0
  189.3910  176.6140  143.4410 C   0  0  0  0  0  3  0  0  0  0  0  0
  188.7560  178.7390  140.3690 C   0  0  0  0  0  3  0  0  0  0  0  0
  188.5620  178.3200  141.8050 C   0  0  0  0  0  0  0  0  0  0  0  0
  191.1350  176.1670  138.9560 C   0  0  0  0  0  0  0  0  0  0  0  0
  190.7090  175.1520  138.3430 O   0  0  0  0  0  0  0  0  0  0  0  0
  192.4220  176.6260  138.6960 O   0  0  0  0  0  1  0  0  0  0  0  0
  183.6380  178.2560  141.4500 C   0  0  0  0  0  2  0  0  0  0  0  0
  183.6360  177.7960  138.9990 N   0  0  0  0  0  0  0  0  0  0  0  0
  181.9670  179.2240  139.9200 O   0  0  0  0  0  0  0  0  0  0  0  0
  180.9520  177.3680  136.3380 C   0  0  1  0  0  3  0  0  0  0  0  0
  179.8550  177.8650  137.2010 N   0  0  0  0  0  0  0  0  0  0  0  0
  182.1870  176.9100  137.1500 C   0  0  1  0  0  3  0  0  0  0  0  0
  178.9310  178.4350  136.3920 O   0  0  0  0  0  1  0  0  0  0  0  0
  182.5740  178.0570  138.0660 C   0  0  1  0  0  3  0  0  0  0  0  0
  180.4640  176.2280  135.4570 C   0  0  0  0  0  1  0  0  0  0  0  0
  180.3270  178.9320  138.0990 C   0  0  0  0  0  2  0  0  0  0  0  0
  181.4380  178.3690  138.9560 C   0  0  2  0  0  3  0  0  0  0  0  0
  181.8990  175.7770  137.8890 F   0  0  0  0  0  0  0  0  0  0  0  0
  183.3100  178.7770  140.0440 C   0  0  1  0  0  3  0  0  0  0  0  0
  184.8700  178.2390  138.3730 C   0  0  0  0  0  1  0  0  0  0  0  0
  2 15  2  0  0  0  0
  4 21  1  6  0  0  0
  4  6  1  0  0  0  0
  5  4  1  0  0  0  0
  5  1  1  0  0  0  0
  6  8  1  1  0  0  0
  7 11  1  0  0  0  0
  8  7  1  0  0  0  0
  9  3  2  0  0  0  0
  9 11  1  0  0  0  0
 10  1  1  1  0  0  0
 10  6  1  0  0  0  0
 10  9  1  0  0  0  0
 12  2  1  0  0  0  0
 13 12  2  0  0  0  0
 14 13  1  0  0  0  0
 14 16  2  0  0  0  0
 15  3  1  0  0  0  0
 16 17  1  0  0  0  0
 17  1  2  0  0  0  0
 17  2  1  0  0  0  0
 18 13  1  0  0  0  0
 19 18  2  0  0  0  0
 20 18  1  0  0  0  0
 22 33  1  0  0  0  0
 23 33  1  0  0  0  0
 24 29  1  1  0  0  0
 24 26  1  0  0  0  0
 24 25  1  0  0  0  0
 25 30  1  0  0  0  0
 26 32  1  1  0  0  0
 26 28  1  0  0  0  0
 27 25  1  0  0  0  0
 28 31  1  0  0  0  0
 28 22  1  1  0  0  0
 31 30  1  6  0  0  0
 31 23  1  0  0  0  0
 33 21  1  1  0  0  0
 34 22  1  0  0  0  0
M  END
>  <MODEL>
9

>  <REMARK>
 VINA RESULT:      -8.8      3.311      4.824
  Name = 
  3 active torsions:
  status: ('A' for Active; 'I' for Inactive)
    1  A    between atoms: C_3  and  C_25
    2  A    between atoms: C_8  and  C_18
    3  A    between atoms: C_18  and  C_30
                            x       y       z     vdW  Elec       q    Type
                         _______ _______ _______ _____ _____    ______ ____

>  <TORSDO>
F 3

$$$$
