=
 OpenBabel11052415143D

 37 43  0  0  1  0  0  0  0  0999 V2000
  189.4080  176.2130  140.8540 C   0  0  0  0  0  2  0  0  0  0  0  0
  191.5950  174.9910  145.7750 C   0  0  0  0  0  2  0  0  0  0  0  0
  188.2620  177.8450  145.0910 C   0  0  0  0  0  0  0  0  0  0  0  0
  190.5720  176.8270  140.0610 C   0  0  2  0  0  3  0  0  0  0  0  0
  186.1970  178.8410  142.1770 N   0  0  0  0  0  0  0  0  0  0  0  0
  190.2920  177.0590  146.1800 C   0  0  0  0  0  0  0  0  0  0  0  0
  187.7760  177.9160  143.7870 C   0  0  0  0  0  0  0  0  0  0  0  0
  189.5290  177.2930  145.0160 C   0  0  0  0  0  0  0  0  0  0  0  0
  186.4330  178.3330  143.3520 C   0  0  0  0  0  0  0  0  0  0  0  0
  189.7260  177.3990  147.4160 C   0  0  0  0  0  3  0  0  0  0  0  0
  190.2860  178.1910  139.3950 C   0  0  0  0  0  2  0  0  0  0  0  0
  189.8500  177.0220  143.7290 N   0  0  0  0  0  0  0  0  0  0  0  0
  191.2220  175.0020  143.5720 C   0  0  0  0  0  2  0  0  0  0  0  0
  186.4000  178.8080  146.4840 N   0  0  0  0  0  2  0  0  0  0  0  0
  188.4450  177.9660  147.4900 C   0  0  0  0  0  3  0  0  0  0  0  0
  191.1100  176.4810  143.2250 C   0  0  0  0  0  2  0  0  0  0  0  0
  188.8070  178.6010  139.4050 C   0  0  2  0  0  3  0  0  0  0  0  0
  187.0540  179.0160  141.0370 C   0  0  0  0  0  3  0  0  0  0  0  0
  187.6930  178.2090  146.3320 C   0  0  0  0  0  0  0  0  0  0  0  0
  188.7780  177.3990  142.9820 C   0  0  0  0  0  0  0  0  0  0  0  0
  191.6600  176.4590  146.1760 C   0  0  0  0  0  2  0  0  0  0  0  0
  185.3270  178.2940  144.3670 C   0  0  1  0  0  3  0  0  0  0  0  0
  192.2210  174.8190  144.5350 O   0  0  0  0  0  0  0  0  0  0  0  0
  188.1660  178.3350  140.7440 C   0  0  0  0  0  0  0  0  0  0  0  0
  188.6830  177.2680  141.5550 N   0  0  0  0  0  0  0  0  0  0  0  0
  185.5740  179.3520  145.4190 C   0  0  0  0  0  2  0  0  0  0  0  0
  182.7660  178.7290  144.6780 C   0  0  0  0  0  2  0  0  0  0  0  0
  183.9470  178.3940  143.7850 C   0  0  0  0  0  0  0  0  0  0  0  0
  183.8090  178.2510  142.4640 C   0  0  0  0  0  3  0  0  0  0  0  0
  182.3800  178.2450  140.5810 O   0  0  0  0  0  0  0  0  0  0  0  0
  181.3060  178.5800  142.6590 C   0  0  0  0  0  3  0  0  0  0  0  0
  182.4910  178.3560  141.8290 C   0  0  0  0  0  0  0  0  0  0  0  0
  181.4290  178.7390  143.9780 C   0  0  0  0  0  3  0  0  0  0  0  0
  188.0740  177.9030  138.3000 C   0  0  0  0  0  3  0  0  0  0  0  0
  187.3510  178.5290  137.5410 O   0  0  0  0  0  0  0  0  0  0  0  0
  191.6430  176.5810  138.0560 C   0  0  0  0  0  1  0  0  0  0  0  0
  191.2370  175.9100  139.2200 O   0  0  0  0  0  0  0  0  0  0  0  0
  1 25  1  0  0  0  0
  2 21  1  0  0  0  0
  3 19  1  0  0  0  0
  4 37  1  6  0  0  0
  4  1  1  0  0  0  0
  5  9  2  0  0  0  0
  6 10  2  0  0  0  0
  7  3  1  0  0  0  0
  8  3  2  0  0  0  0
  8  6  1  0  0  0  0
  9  7  1  0  0  0  0
  9 22  1  0  0  0  0
 10 15  1  0  0  0  0
 11 17  1  0  0  0  0
 11  4  1  0  0  0  0
 12  8  1  0  0  0  0
 13 23  1  0  0  0  0
 16 13  1  0  0  0  0
 16 12  1  0  0  0  0
 17 34  1  6  0  0  0
 17 24  1  0  0  0  0
 18  5  1  0  0  0  0
 19 14  1  0  0  0  0
 19 15  2  0  0  0  0
 20 12  1  0  0  0  0
 20  7  2  0  0  0  0
 21  6  1  0  0  0  0
 22 28  1  6  0  0  0
 22 26  1  0  0  0  0
 23  2  1  0  0  0  0
 24 18  2  0  0  0  0
 24 25  1  0  0  0  0
 25 20  1  0  0  0  0
 26 14  1  0  0  0  0
 28 27  1  0  0  0  0
 29 28  2  0  0  0  0
 30 32  2  0  0  0  0
 31 33  2  0  0  0  0
 32 29  1  0  0  0  0
 32 31  1  0  0  0  0
 33 27  1  0  0  0  0
 35 34  2  0  0  0  0
 36 37  1  0  0  0  0
M  END
>  <MODEL>
1

>  <REMARK>
 VINA RESULT:      -9.5      0.000      0.000
  Name = 
  3 active torsions:
  status: ('A' for Active; 'I' for Inactive)
    1  A    between atoms: C_5  and  O_23
    2  A    between atoms: C_6  and  C_31
    3  A    between atoms: C_11  and  C_26
                            x       y       z     vdW  Elec       q    Type
                         _______ _______ _______ _____ _____    ______ ____

>  <TORSDO>
F 3

$$$$
=
 OpenBabel11052415143D

 37 43  0  0  1  0  0  0  0  0999 V2000
  188.6520  176.8260  143.6850 C   0  0  0  0  0  2  0  0  0  0  0  0
  183.7840  178.0500  141.3840 C   0  0  0  0  0  2  0  0  0  0  0  0
  187.6810  177.9870  139.2540 C   0  0  0  0  0  0  0  0  0  0  0  0
  188.8490  177.9080  144.7590 C   0  0  2  0  0  3  0  0  0  0  0  0
  191.1440  176.9790  140.1160 N   0  0  0  0  0  0  0  0  0  0  0  0
  185.4570  178.8490  139.7400 C   0  0  0  0  0  0  0  0  0  0  0  0
  188.7720  177.5310  139.9900 C   0  0  0  0  0  0  0  0  0  0  0  0
  186.7110  178.3620  140.1680 C   0  0  0  0  0  0  0  0  0  0  0  0
  190.0110  176.9260  139.4750 C   0  0  0  0  0  0  0  0  0  0  0  0
  185.2220  178.9380  138.3620 C   0  0  0  0  0  3  0  0  0  0  0  0
  190.2000  178.6560  144.7190 C   0  0  0  0  0  2  0  0  0  0  0  0
  187.1520  178.1620  141.4320 N   0  0  0  0  0  0  0  0  0  0  0  0
  185.3200  177.4810  142.9040 C   0  0  0  0  0  2  0  0  0  0  0  0
  188.4220  177.7470  136.8600 N   0  0  0  0  0  2  0  0  0  0  0  0
  186.2080  178.5650  137.4380 C   0  0  0  0  0  3  0  0  0  0  0  0
  186.4510  178.4760  142.6740 C   0  0  0  0  0  2  0  0  0  0  0  0
  191.2430  178.0280  143.7820 C   0  0  2  0  0  3  0  0  0  0  0  0
  191.4620  177.4800  141.4240 C   0  0  0  0  0  3  0  0  0  0  0  0
  187.4580  178.0930  137.8630 C   0  0  0  0  0  0  0  0  0  0  0  0
  188.4070  177.6520  141.3210 C   0  0  0  0  0  0  0  0  0  0  0  0
  184.3620  179.2640  140.6680 C   0  0  0  0  0  2  0  0  0  0  0  0
  189.9830  176.3500  138.0890 C   0  0  1  0  0  3  0  0  0  0  0  0
  184.0870  178.1260  142.7480 O   0  0  0  0  0  0  0  0  0  0  0  0
  190.6330  177.6260  142.4630 C   0  0  0  0  0  0  0  0  0  0  0  0
  189.2420  177.2720  142.4270 N   0  0  0  0  0  0  0  0  0  0  0  0
  189.8310  177.4700  137.0830 C   0  0  0  0  0  2  0  0  0  0  0  0
  190.9120  174.1030  137.1210 C   0  0  0  0  0  2  0  0  0  0  0  0
  191.1470  175.4590  137.7630 C   0  0  0  0  0  0  0  0  0  0  0  0
  192.3790  175.9250  137.9870 C   0  0  0  0  0  3  0  0  0  0  0  0
  194.7130  175.5740  137.8670 O   0  0  0  0  0  0  0  0  0  0  0  0
  193.3840  173.7580  137.1460 C   0  0  0  0  0  3  0  0  0  0  0  0
  193.5590  175.1130  137.6730 C   0  0  0  0  0  0  0  0  0  0  0  0
  192.1610  173.2850  136.9020 C   0  0  0  0  0  3  0  0  0  0  0  0
  191.9020  176.8630  144.4570 C   0  0  0  0  0  3  0  0  0  0  0  0
  191.8230  176.7190  145.6660 O   0  0  0  0  0  0  0  0  0  0  0  0
  187.1070  177.8400  146.2360 C   0  0  0  0  0  1  0  0  0  0  0  0
  188.4580  177.5060  146.0530 O   0  0  0  0  0  0  0  0  0  0  0  0
  1  4  1  0  0  0  0
  2 23  1  0  0  0  0
  3  7  1  0  0  0  0
  3  8  1  0  0  0  0
  4 37  1  1  0  0  0
  5 18  1  0  0  0  0
  6  8  2  0  0  0  0
  6 21  1  0  0  0  0
  7 20  2  0  0  0  0
  8 12  1  0  0  0  0
  9  7  1  0  0  0  0
  9  5  2  0  0  0  0
 10  6  1  0  0  0  0
 11  4  1  0  0  0  0
 12 16  1  0  0  0  0
 14 26  1  0  0  0  0
 14 19  1  0  0  0  0
 15 19  1  0  0  0  0
 15 10  2  0  0  0  0
 16 13  1  0  0  0  0
 17 34  1  1  0  0  0
 17 11  1  0  0  0  0
 18 24  2  0  0  0  0
 19  3  2  0  0  0  0
 20 12  1  0  0  0  0
 20 25  1  0  0  0  0
 21  2  1  0  0  0  0
 22 28  1  6  0  0  0
 22  9  1  0  0  0  0
 23 13  1  0  0  0  0
 24 17  1  0  0  0  0
 25 24  1  0  0  0  0
 25  1  1  0  0  0  0
 26 22  1  0  0  0  0
 27 28  1  0  0  0  0
 28 29  2  0  0  0  0
 31 32  1  0  0  0  0
 32 30  2  0  0  0  0
 32 29  1  0  0  0  0
 33 27  1  0  0  0  0
 33 31  2  0  0  0  0
 34 35  2  0  0  0  0
 37 36  1  0  0  0  0
M  END
>  <MODEL>
2

>  <REMARK>
 VINA RESULT:      -9.2      2.266      8.314
  Name = 
  3 active torsions:
  status: ('A' for Active; 'I' for Inactive)
    1  A    between atoms: C_5  and  O_23
    2  A    between atoms: C_6  and  C_31
    3  A    between atoms: C_11  and  C_26
                            x       y       z     vdW  Elec       q    Type
                         _______ _______ _______ _____ _____    ______ ____

>  <TORSDO>
F 3

$$$$
=
 OpenBabel11052415143D

 37 43  0  0  1  0  0  0  0  0999 V2000
  187.3480  175.8450  137.2940 C   0  0  0  0  0  2  0  0  0  0  0  0
  192.5780  174.3620  136.3170 C   0  0  0  0  0  2  0  0  0  0  0  0
  191.2420  177.0220  139.6140 C   0  0  0  0  0  0  0  0  0  0  0  0
  186.9250  176.6050  136.0270 C   0  0  2  0  0  3  0  0  0  0  0  0
  187.9640  178.1160  140.9580 N   0  0  0  0  0  0  0  0  0  0  0  0
  192.7650  176.2910  137.8620 C   0  0  0  0  0  0  0  0  0  0  0  0
  189.8640  177.1700  139.7590 C   0  0  0  0  0  0  0  0  0  0  0  0
  191.4610  176.5690  138.3250 C   0  0  0  0  0  0  0  0  0  0  0  0
  189.1250  177.5270  140.9810 C   0  0  0  0  0  0  0  0  0  0  0  0
  193.8320  176.4830  138.7490 C   0  0  0  0  0  3  0  0  0  0  0  0
  186.2980  177.9980  136.2580 C   0  0  0  0  0  2  0  0  0  0  0  0
  190.2860  176.4330  137.6660 N   0  0  0  0  0  0  0  0  0  0  0  0
  190.3580  174.5360  136.1220 C   0  0  0  0  0  2  0  0  0  0  0  0
  192.1660  177.7270  141.8460 N   0  0  0  0  0  2  0  0  0  0  0  0
  193.6090  176.9490  140.0530 C   0  0  0  0  0  3  0  0  0  0  0  0
  190.0910  176.0280  136.2760 C   0  0  0  0  0  2  0  0  0  0  0  0
  185.9520  178.3000  137.7230 C   0  0  2  0  0  3  0  0  0  0  0  0
  187.0990  178.4490  139.8610 C   0  0  0  0  0  3  0  0  0  0  0  0
  192.3150  177.2370  140.5080 C   0  0  0  0  0  0  0  0  0  0  0  0
  189.3140  176.7960  138.5450 C   0  0  0  0  0  0  0  0  0  0  0  0
  193.0760  175.7910  136.4880 C   0  0  0  0  0  2  0  0  0  0  0  0
  189.8150  177.3230  142.2990 C   0  0  1  0  0  3  0  0  0  0  0  0
  191.5330  174.3420  135.3860 O   0  0  0  0  0  0  0  0  0  0  0  0
  187.0600  177.8750  138.6540 C   0  0  0  0  0  0  0  0  0  0  0  0
  187.9050  176.7820  138.2640 N   0  0  0  0  0  0  0  0  0  0  0  0
  190.9610  178.3010  142.4220 C   0  0  0  0  0  2  0  0  0  0  0  0
  187.4410  176.9890  143.3500 C   0  0  0  0  0  2  0  0  0  0  0  0
  188.9030  177.3740  143.4910 C   0  0  0  0  0  0  0  0  0  0  0  0
  189.4330  177.6950  144.6750 C   0  0  0  0  0  3  0  0  0  0  0  0
  189.1180  178.0250  146.9940 O   0  0  0  0  0  0  0  0  0  0  0  0
  187.1650  177.4800  145.7810 C   0  0  0  0  0  3  0  0  0  0  0  0
  188.6020  177.7450  145.8820 C   0  0  0  0  0  0  0  0  0  0  0  0
  186.6240  177.1430  144.6100 C   0  0  0  0  0  3  0  0  0  0  0  0
  184.6510  177.6490  138.0880 C   0  0  0  0  0  3  0  0  0  0  0  0
  183.7510  177.5600  137.2690 O   0  0  0  0  0  0  0  0  0  0  0  0
  185.5590  174.7890  135.7820 C   0  0  0  0  0  1  0  0  0  0  0  0
  186.2270  175.8130  135.0920 O   0  0  0  0  0  0  0  0  0  0  0  0
  1 25  1  0  0  0  0
  2 21  1  0  0  0  0
  3  7  1  0  0  0  0
  3 19  1  0  0  0  0
  4 37  1  1  0  0  0
  4 11  1  0  0  0  0
  4  1  1  0  0  0  0
  5  9  2  0  0  0  0
  6  8  1  0  0  0  0
  6 10  2  0  0  0  0
  7  9  1  0  0  0  0
  8  3  2  0  0  0  0
  9 22  1  0  0  0  0
 10 15  1  0  0  0  0
 11 17  1  0  0  0  0
 12  8  1  0  0  0  0
 12 20  1  0  0  0  0
 13 16  1  0  0  0  0
 14 26  1  0  0  0  0
 15 19  2  0  0  0  0
 16 12  1  0  0  0  0
 17 34  1  1  0  0  0
 17 24  1  0  0  0  0
 18  5  1  0  0  0  0
 19 14  1  0  0  0  0
 20  7  2  0  0  0  0
 21  6  1  0  0  0  0
 22 26  1  0  0  0  0
 22 28  1  1  0  0  0
 23 13  1  0  0  0  0
 23  2  1  0  0  0  0
 24 18  2  0  0  0  0
 25 20  1  0  0  0  0
 25 24  1  0  0  0  0
 27 28  1  0  0  0  0
 27 33  1  0  0  0  0
 28 29  2  0  0  0  0
 29 32  1  0  0  0  0
 31 32  1  0  0  0  0
 32 30  2  0  0  0  0
 33 31  2  0  0  0  0
 35 34  2  0  0  0  0
 37 36  1  0  0  0  0
M  END
>  <MODEL>
3

>  <REMARK>
 VINA RESULT:      -8.9      2.913      6.395
  Name = 
  3 active torsions:
  status: ('A' for Active; 'I' for Inactive)
    1  A    between atoms: C_5  and  O_23
    2  A    between atoms: C_6  and  C_31
    3  A    between atoms: C_11  and  C_26
                            x       y       z     vdW  Elec       q    Type
                         _______ _______ _______ _____ _____    ______ ____

>  <TORSDO>
F 3

$$$$
=
 OpenBabel11052415143D

 37 43  0  0  1  0  0  0  0  0999 V2000
  188.6890  176.8780  139.0350 C   0  0  0  0  0  2  0  0  0  0  0  0
  189.8450  176.4510  144.4190 C   0  0  0  0  0  2  0  0  0  0  0  0
  186.1250  178.1920  142.7270 C   0  0  0  0  0  0  0  0  0  0  0  0
  189.7950  177.7890  138.4790 C   0  0  2  0  0  3  0  0  0  0  0  0
  184.6510  178.4810  139.3380 N   0  0  0  0  0  0  0  0  0  0  0  0
  187.9600  178.0560  144.3220 C   0  0  0  0  0  0  0  0  0  0  0  0
  185.9770  178.0910  141.3460 C   0  0  0  0  0  0  0  0  0  0  0  0
  187.4740  178.0320  142.9970 C   0  0  0  0  0  0  0  0  0  0  0  0
  184.7210  178.0880  140.5770 C   0  0  0  0  0  0  0  0  0  0  0  0
  187.0350  178.2420  145.3580 C   0  0  0  0  0  3  0  0  0  0  0  0
  189.3140  178.9960  137.6440 C   0  0  0  0  0  2  0  0  0  0  0  0
  188.1650  177.8400  141.8480 N   0  0  0  0  0  0  0  0  0  0  0  0
  190.0390  176.3070  142.1970 C   0  0  0  0  0  2  0  0  0  0  0  0
  183.7850  178.5980  143.5610 N   0  0  0  0  0  2  0  0  0  0  0  0
  185.6700  178.4120  145.0830 C   0  0  0  0  0  3  0  0  0  0  0  0
  189.6090  177.6810  141.7000 C   0  0  0  0  0  2  0  0  0  0  0  0
  187.8240  178.9560  137.2750 C   0  0  2  0  0  3  0  0  0  0  0  0
  185.6780  178.8750  138.4150 C   0  0  0  0  0  3  0  0  0  0  0  0
  185.1900  178.4000  143.7660 C   0  0  0  0  0  0  0  0  0  0  0  0
  187.2490  177.8730  140.8440 C   0  0  0  0  0  0  0  0  0  0  0  0
  189.3980  177.8820  144.6880 C   0  0  0  0  0  2  0  0  0  0  0  0
  183.4550  177.7490  141.3100 C   0  0  1  0  0  3  0  0  0  0  0  0
  190.7800  176.4440  143.3770 O   0  0  0  0  0  0  0  0  0  0  0  0
  186.9730  178.5420  138.4500 C   0  0  0  0  0  0  0  0  0  0  0  0
  187.5500  177.6900  139.4510 N   0  0  0  0  0  0  0  0  0  0  0  0
  183.1300  178.8550  142.2890 C   0  0  0  0  0  2  0  0  0  0  0  0
  182.2440  176.1090  139.6690 C   0  0  0  0  0  2  0  0  0  0  0  0
  182.2900  177.4290  140.4190 C   0  0  0  0  0  0  0  0  0  0  0  0
  181.2780  178.3000  140.3680 C   0  0  0  0  0  3  0  0  0  0  0  0
  179.1460  178.8560  139.5150 O   0  0  0  0  0  0  0  0  0  0  0  0
  180.0530  176.8270  138.7120 C   0  0  0  0  0  3  0  0  0  0  0  0
  180.1020  178.0390  139.5330 C   0  0  0  0  0  0  0  0  0  0  0  0
  181.0480  175.9410  138.7630 C   0  0  0  0  0  3  0  0  0  0  0  0
  187.6100  178.0510  136.0990 C   0  0  0  0  0  3  0  0  0  0  0  0
  188.5170  177.8290  135.3140 O   0  0  0  0  0  0  0  0  0  0  0  0
  190.6160  175.7120  137.9930 C   0  0  0  0  0  1  0  0  0  0  0  0
  190.8740  177.0890  137.9010 O   0  0  0  0  0  0  0  0  0  0  0  0
  1 25  1  0  0  0  0
  2 21  1  0  0  0  0
  3  8  2  0  0  0  0
  3 19  1  0  0  0  0
  4 37  1  6  0  0  0
  4  1  1  0  0  0  0
  5  9  2  0  0  0  0
  6 21  1  0  0  0  0
  6 10  2  0  0  0  0
  7  3  1  0  0  0  0
  8  6  1  0  0  0  0
  9 22  1  0  0  0  0
  9  7  1  0  0  0  0
 11  4  1  0  0  0  0
 12  8  1  0  0  0  0
 13 23  1  0  0  0  0
 14 19  1  0  0  0  0
 15 10  1  0  0  0  0
 16 12  1  0  0  0  0
 16 13  1  0  0  0  0
 17 34  1  6  0  0  0
 17 11  1  0  0  0  0
 17 24  1  0  0  0  0
 18 24  2  0  0  0  0
 18  5  1  0  0  0  0
 19 15  2  0  0  0  0
 20  7  2  0  0  0  0
 20 12  1  0  0  0  0
 22 28  1  6  0  0  0
 22 26  1  0  0  0  0
 23  2  1  0  0  0  0
 24 25  1  0  0  0  0
 25 20  1  0  0  0  0
 26 14  1  0  0  0  0
 27 28  1  0  0  0  0
 29 28  2  0  0  0  0
 30 32  2  0  0  0  0
 31 33  2  0  0  0  0
 31 32  1  0  0  0  0
 32 29  1  0  0  0  0
 33 27  1  0  0  0  0
 35 34  2  0  0  0  0
 37 36  1  0  0  0  0
M  END
>  <MODEL>
4

>  <REMARK>
 VINA RESULT:      -8.6      2.078      3.221
  Name = 
  3 active torsions:
  status: ('A' for Active; 'I' for Inactive)
    1  A    between atoms: C_5  and  O_23
    2  A    between atoms: C_6  and  C_31
    3  A    between atoms: C_11  and  C_26
                            x       y       z     vdW  Elec       q    Type
                         _______ _______ _______ _____ _____    ______ ____

>  <TORSDO>
F 3

$$$$
=
 OpenBabel11052415143D

 37 43  0  0  1  0  0  0  0  0999 V2000
  186.6170  175.5080  137.2950 C   0  0  0  0  0  2  0  0  0  0  0  0
  190.8440  172.6680  135.1580 C   0  0  0  0  0  2  0  0  0  0  0  0
  191.2060  175.9740  138.1030 C   0  0  0  0  0  0  0  0  0  0  0  0
  185.9580  176.1810  136.0810 C   0  0  2  0  0  3  0  0  0  0  0  0
  188.8280  178.0050  140.0940 N   0  0  0  0  0  0  0  0  0  0  0  0
  191.8980  174.6710  136.1670 C   0  0  0  0  0  0  0  0  0  0  0  0
  190.0080  176.4740  138.6090 C   0  0  0  0  0  0  0  0  0  0  0  0
  190.8980  175.3190  136.9230 C   0  0  0  0  0  0  0  0  0  0  0  0
  189.7940  177.1550  139.8970 C   0  0  0  0  0  0  0  0  0  0  0  0
  193.2130  174.7050  136.6500 C   0  0  0  0  0  3  0  0  0  0  0  0
  185.7240  177.7030  136.2010 C   0  0  0  0  0  2  0  0  0  0  0  0
  189.5690  175.3950  136.6740 N   0  0  0  0  0  0  0  0  0  0  0  0
  188.7620  173.3580  135.5850 C   0  0  0  0  0  2  0  0  0  0  0  0
  192.9290  176.7080  139.7850 N   0  0  0  0  0  2  0  0  0  0  0  0
  193.5240  175.3750  137.8420 C   0  0  0  0  0  3  0  0  0  0  0  0
  188.8550  174.8770  135.5100 C   0  0  0  0  0  2  0  0  0  0  0  0
  185.9430  178.2660  137.6130 C   0  0  2  0  0  3  0  0  0  0  0  0
  187.7330  178.3980  139.2520 C   0  0  0  0  0  3  0  0  0  0  0  0
  192.5320  176.0290  138.5860 C   0  0  0  0  0  0  0  0  0  0  0  0
  189.0290  176.0960  137.7060 C   0  0  0  0  0  0  0  0  0  0  0  0
  191.6380  173.9390  134.8900 C   0  0  0  0  0  2  0  0  0  0  0  0
  190.8250  176.9570  140.9710 C   0  0  1  0  0  3  0  0  0  0  0  0
  189.5690  172.7870  134.5940 O   0  0  0  0  0  0  0  0  0  0  0  0
  187.1900  177.7030  138.2480 C   0  0  0  0  0  0  0  0  0  0  0  0
  187.6310  176.3940  137.8550 N   0  0  0  0  0  0  0  0  0  0  0  0
  192.1150  177.6300  140.5590 C   0  0  0  0  0  2  0  0  0  0  0  0
  191.2460  178.3260  143.1610 C   0  0  0  0  0  2  0  0  0  0  0  0
  190.3830  177.3840  142.3410 C   0  0  0  0  0  0  0  0  0  0  0  0
  189.1890  176.9700  142.7740 C   0  0  0  0  0  3  0  0  0  0  0  0
  187.5530  176.9900  144.4800 O   0  0  0  0  0  0  0  0  0  0  0  0
  189.5280  178.1930  144.9660 C   0  0  0  0  0  3  0  0  0  0  0  0
  188.6890  177.3670  144.0950 C   0  0  0  0  0  0  0  0  0  0  0  0
  190.7150  178.6260  144.5410 C   0  0  0  0  0  3  0  0  0  0  0  0
  184.7340  178.0080  138.4610 C   0  0  0  0  0  3  0  0  0  0  0  0
  184.2160  178.9120  139.0970 O   0  0  0  0  0  0  0  0  0  0  0  0
  185.2520  174.1560  135.2900 C   0  0  0  0  0  1  0  0  0  0  0  0
  184.8520  175.4730  135.5650 O   0  0  0  0  0  0  0  0  0  0  0  0
  1 25  1  0  0  0  0
  3 19  1  0  0  0  0
  3  7  1  0  0  0  0
  4 37  1  1  0  0  0
  4 11  1  0  0  0  0
  4  1  1  0  0  0  0
  6 10  2  0  0  0  0
  6  8  1  0  0  0  0
  7  9  1  0  0  0  0
  8  3  2  0  0  0  0
  9  5  2  0  0  0  0
  9 22  1  0  0  0  0
 10 15  1  0  0  0  0
 11 17  1  0  0  0  0
 12  8  1  0  0  0  0
 12 20  1  0  0  0  0
 14 26  1  0  0  0  0
 15 19  2  0  0  0  0
 16 13  1  0  0  0  0
 16 12  1  0  0  0  0
 17 24  1  0  0  0  0
 17 34  1  1  0  0  0
 18  5  1  0  0  0  0
 19 14  1  0  0  0  0
 20 25  1  0  0  0  0
 20  7  2  0  0  0  0
 21  2  1  0  0  0  0
 21  6  1  0  0  0  0
 22 28  1  1  0  0  0
 23  2  1  0  0  0  0
 23 13  1  0  0  0  0
 24 18  2  0  0  0  0
 25 24  1  0  0  0  0
 26 22  1  0  0  0  0
 27 33  1  0  0  0  0
 28 29  2  0  0  0  0
 28 27  1  0  0  0  0
 29 32  1  0  0  0  0
 32 30  2  0  0  0  0
 32 31  1  0  0  0  0
 33 31  2  0  0  0  0
 34 35  2  0  0  0  0
 36 37  1  0  0  0  0
M  END
>  <MODEL>
5

>  <REMARK>
 VINA RESULT:      -8.2      3.408      7.547
  Name = 
  3 active torsions:
  status: ('A' for Active; 'I' for Inactive)
    1  A    between atoms: C_5  and  O_23
    2  A    between atoms: C_6  and  C_31
    3  A    between atoms: C_11  and  C_26
                            x       y       z     vdW  Elec       q    Type
                         _______ _______ _______ _____ _____    ______ ____

>  <TORSDO>
F 3

$$$$
=
 OpenBabel11052415143D

 37 43  0  0  1  0  0  0  0  0999 V2000
  189.3010  176.3690  139.9600 C   0  0  0  0  0  2  0  0  0  0  0  0
  190.8290  175.7720  145.2330 C   0  0  0  0  0  2  0  0  0  0  0  0
  187.3440  178.1410  143.8280 C   0  0  0  0  0  0  0  0  0  0  0  0
  190.4990  177.0640  139.2930 C   0  0  2  0  0  3  0  0  0  0  0  0
  185.6550  178.6700  140.5700 N   0  0  0  0  0  0  0  0  0  0  0  0
  189.2570  177.6880  145.2630 C   0  0  0  0  0  0  0  0  0  0  0  0
  187.0600  178.0600  142.4670 C   0  0  0  0  0  0  0  0  0  0  0  0
  188.6610  177.7440  143.9850 C   0  0  0  0  0  0  0  0  0  0  0  0
  185.7620  178.2780  141.8070 C   0  0  0  0  0  0  0  0  0  0  0  0
  188.4740  178.0420  146.3700 C   0  0  0  0  0  3  0  0  0  0  0  0
  190.1690  178.3330  138.4760 C   0  0  0  0  0  2  0  0  0  0  0  0
  189.2040  177.4250  142.7860 N   0  0  0  0  0  0  0  0  0  0  0  0
  190.7990  175.5830  143.0070 C   0  0  0  0  0  2  0  0  0  0  0  0
  185.1950  178.9630  144.8480 N   0  0  0  0  0  2  0  0  0  0  0  0
  187.1430  178.4510  146.2080 C   0  0  0  0  0  3  0  0  0  0  0  0
  190.5790  177.0100  142.5200 C   0  0  0  0  0  2  0  0  0  0  0  0
  188.6690  178.5580  138.2360 C   0  0  2  0  0  3  0  0  0  0  0  0
  186.6510  178.8690  139.5550 C   0  0  0  0  0  3  0  0  0  0  0  0
  186.5550  178.5180  144.9370 C   0  0  0  0  0  0  0  0  0  0  0  0
  188.2240  177.6150  141.8630 C   0  0  0  0  0  0  0  0  0  0  0  0
  190.6680  177.2610  145.5090 C   0  0  0  0  0  2  0  0  0  0  0  0
  184.5250  178.1750  142.6510 C   0  0  1  0  0  3  0  0  0  0  0  0
  191.6530  175.5910  144.1170 O   0  0  0  0  0  0  0  0  0  0  0  0
  187.8640  178.3100  139.4870 C   0  0  0  0  0  0  0  0  0  0  0  0
  188.3650  177.3740  140.4540 N   0  0  0  0  0  0  0  0  0  0  0  0
  184.4880  179.3260  143.6310 C   0  0  0  0  0  2  0  0  0  0  0  0
  183.1660  177.1350  140.6700 C   0  0  0  0  0  2  0  0  0  0  0  0
  183.2470  178.0640  141.8690 C   0  0  0  0  0  0  0  0  0  0  0  0
  182.1830  178.7440  142.3030 C   0  0  0  0  0  3  0  0  0  0  0  0
  179.8990  179.2900  142.0300 O   0  0  0  0  0  0  0  0  0  0  0  0
  180.7960  177.8600  140.3770 C   0  0  0  0  0  3  0  0  0  0  0  0
  180.9000  178.6640  141.5960 C   0  0  0  0  0  0  0  0  0  0  0  0
  181.8460  177.1640  139.9390 C   0  0  0  0  0  3  0  0  0  0  0  0
  188.1960  177.7000  137.1020 C   0  0  0  0  0  3  0  0  0  0  0  0
  188.9880  177.2620  136.2820 O   0  0  0  0  0  0  0  0  0  0  0  0
  192.6780  176.7130  138.7020 C   0  0  0  0  0  1  0  0  0  0  0  0
  191.3820  176.1790  138.6400 O   0  0  0  0  0  0  0  0  0  0  0  0
  1 25  1  0  0  0  0
  2 21  1  0  0  0  0
  3  8  2  0  0  0  0
  3 19  1  0  0  0  0
  4 37  1  6  0  0  0
  4  1  1  0  0  0  0
  5  9  2  0  0  0  0
  6 21  1  0  0  0  0
  6 10  2  0  0  0  0
  7  3  1  0  0  0  0
  8  6  1  0  0  0  0
  9  7  1  0  0  0  0
  9 22  1  0  0  0  0
 11  4  1  0  0  0  0
 12  8  1  0  0  0  0
 13 23  1  0  0  0  0
 14 19  1  0  0  0  0
 15 10  1  0  0  0  0
 16 12  1  0  0  0  0
 16 13  1  0  0  0  0
 17 34  1  6  0  0  0
 17 11  1  0  0  0  0
 17 24  1  0  0  0  0
 18  5  1  0  0  0  0
 19 15  2  0  0  0  0
 20  7  2  0  0  0  0
 20 12  1  0  0  0  0
 22 28  1  6  0  0  0
 22 26  1  0  0  0  0
 23  2  1  0  0  0  0
 24 18  2  0  0  0  0
 24 25  1  0  0  0  0
 25 20  1  0  0  0  0
 26 14  1  0  0  0  0
 27 28  1  0  0  0  0
 28 29  2  0  0  0  0
 31 32  1  0  0  0  0
 32 30  2  0  0  0  0
 32 29  1  0  0  0  0
 33 31  2  0  0  0  0
 33 27  1  0  0  0  0
 35 34  2  0  0  0  0
 37 36  1  0  0  0  0
M  END
>  <MODEL>
6

>  <REMARK>
 VINA RESULT:      -8.2      1.357      1.860
  Name = 
  3 active torsions:
  status: ('A' for Active; 'I' for Inactive)
    1  A    between atoms: C_5  and  O_23
    2  A    between atoms: C_6  and  C_31
    3  A    between atoms: C_11  and  C_26
                            x       y       z     vdW  Elec       q    Type
                         _______ _______ _______ _____ _____    ______ ____

>  <TORSDO>
F 3

$$$$
=
 OpenBabel11052415143D

 37 43  0  0  1  0  0  0  0  0999 V2000
  188.6910  176.7730  141.4720 C   0  0  0  0  0  2  0  0  0  0  0  0
  187.1810  177.2160  146.7660 C   0  0  0  0  0  2  0  0  0  0  0  0
  184.7420  178.5170  143.2890 C   0  0  0  0  0  0  0  0  0  0  0  0
  189.9570  177.6370  141.3630 C   0  0  2  0  0  3  0  0  0  0  0  0
  185.0340  178.2250  139.6040 N   0  0  0  0  0  0  0  0  0  0  0  0
  185.6130  178.7030  145.5550 C   0  0  0  0  0  0  0  0  0  0  0  0
  185.2540  178.2010  142.0330 C   0  0  0  0  0  0  0  0  0  0  0  0
  185.8020  178.4580  144.1770 C   0  0  0  0  0  0  0  0  0  0  0  0
  184.5040  178.0270  140.7770 C   0  0  0  0  0  0  0  0  0  0  0  0
  184.3180  179.0030  145.9970 C   0  0  0  0  0  3  0  0  0  0  0  0
  189.9620  178.6810  140.2260 C   0  0  0  0  0  2  0  0  0  0  0  0
  186.9440  178.1250  143.5290 N   0  0  0  0  0  0  0  0  0  0  0  0
  188.3870  176.7460  144.9440 C   0  0  0  0  0  2  0  0  0  0  0  0
  182.2990  178.9400  142.8610 N   0  0  0  0  0  2  0  0  0  0  0  0
  183.2460  179.0690  145.0940 C   0  0  0  0  0  3  0  0  0  0  0  0
  188.2840  178.0090  144.0990 C   0  0  0  0  0  2  0  0  0  0  0  0
  188.8170  178.5210  139.2160 C   0  0  2  0  0  3  0  0  0  0  0  0
  186.3860  178.5190  139.2200 C   0  0  0  0  0  3  0  0  0  0  0  0
  183.4380  178.8380  143.7250 C   0  0  0  0  0  0  0  0  0  0  0  0
  186.6050  177.9650  142.2220 C   0  0  0  0  0  0  0  0  0  0  0  0
  186.7070  178.6490  146.5710 C   0  0  0  0  0  2  0  0  0  0  0  0
  183.0320  177.7470  140.8770 C   0  0  1  0  0  3  0  0  0  0  0  0
  188.4940  177.0920  146.2960 O   0  0  0  0  0  0  0  0  0  0  0  0
  187.5030  178.2530  139.9050 C   0  0  0  0  0  0  0  0  0  0  0  0
  187.5160  177.5880  141.1780 N   0  0  0  0  0  0  0  0  0  0  0  0
  182.3230  178.9730  141.4080 C   0  0  0  0  0  2  0  0  0  0  0  0
  181.5660  178.1760  138.7520 C   0  0  0  0  0  2  0  0  0  0  0  0
  182.4090  177.2450  139.6060 C   0  0  0  0  0  0  0  0  0  0  0  0
  182.6790  175.9940  139.2240 C   0  0  0  0  0  3  0  0  0  0  0  0
  182.4000  174.2770  137.6240 O   0  0  0  0  0  0  0  0  0  0  0  0
  181.2170  176.2730  137.1750 C   0  0  0  0  0  3  0  0  0  0  0  0
  182.1170  175.4490  137.9840 C   0  0  0  0  0  0  0  0  0  0  0  0
  180.9500  177.5290  137.5350 C   0  0  0  0  0  3  0  0  0  0  0  0
  189.1490  177.4400  138.2310 C   0  0  0  0  0  3  0  0  0  0  0  0
  190.3080  177.2120  137.9270 O   0  0  0  0  0  0  0  0  0  0  0  0
  191.6780  177.0850  142.7630 C   0  0  0  0  0  1  0  0  0  0  0  0
  191.1580  176.9050  141.4720 O   0  0  0  0  0  0  0  0  0  0  0  0
  3 19  2  0  0  0  0
  3  8  1  0  0  0  0
  4  1  1  0  0  0  0
  4 37  1  6  0  0  0
  5  9  2  0  0  0  0
  6 10  1  0  0  0  0
  6 21  1  0  0  0  0
  7 20  2  0  0  0  0
  7  3  1  0  0  0  0
  8  6  2  0  0  0  0
  9 22  1  0  0  0  0
  9  7  1  0  0  0  0
 11  4  1  0  0  0  0
 12 16  1  0  0  0  0
 12  8  1  0  0  0  0
 13 23  1  0  0  0  0
 14 19  1  0  0  0  0
 15 10  2  0  0  0  0
 16 13  1  0  0  0  0
 17 34  1  6  0  0  0
 17 24  1  0  0  0  0
 17 11  1  0  0  0  0
 18  5  1  0  0  0  0
 18 24  2  0  0  0  0
 19 15  1  0  0  0  0
 20 12  1  0  0  0  0
 21  2  1  0  0  0  0
 22 28  1  6  0  0  0
 22 26  1  0  0  0  0
 23  2  1  0  0  0  0
 24 25  1  0  0  0  0
 25  1  1  0  0  0  0
 25 20  1  0  0  0  0
 26 14  1  0  0  0  0
 27 28  1  0  0  0  0
 29 28  2  0  0  0  0
 30 32  2  0  0  0  0
 31 33  2  0  0  0  0
 31 32  1  0  0  0  0
 32 29  1  0  0  0  0
 33 27  1  0  0  0  0
 35 34  2  0  0  0  0
 37 36  1  0  0  0  0
M  END
>  <MODEL>
7

>  <REMARK>
 VINA RESULT:      -8.1      2.424      4.103
  Name = 
  3 active torsions:
  status: ('A' for Active; 'I' for Inactive)
    1  A    between atoms: C_5  and  O_23
    2  A    between atoms: C_6  and  C_31
    3  A    between atoms: C_11  and  C_26
                            x       y       z     vdW  Elec       q    Type
                         _______ _______ _______ _____ _____    ______ ____

>  <TORSDO>
F 3

$$$$
=
 OpenBabel11052415143D

 37 43  0  0  1  0  0  0  0  0999 V2000
  181.4620  177.0930  140.5690 C   0  0  0  0  0  2  0  0  0  0  0  0
  184.2000  176.0510  135.8870 C   0  0  0  0  0  2  0  0  0  0  0  0
  185.8800  178.1460  139.4250 C   0  0  0  0  0  0  0  0  0  0  0  0
  180.2980  177.9990  140.1360 C   0  0  2  0  0  3  0  0  0  0  0  0
  184.7100  178.8600  142.8700 N   0  0  0  0  0  0  0  0  0  0  0  0
  185.5840  177.7520  137.0410 C   0  0  0  0  0  0  0  0  0  0  0  0
  185.0600  178.1960  140.5500 C   0  0  0  0  0  0  0  0  0  0  0  0
  185.0550  177.8910  138.3430 C   0  0  0  0  0  0  0  0  0  0  0  0
  185.4750  178.3380  141.9560 C   0  0  0  0  0  0  0  0  0  0  0  0
  186.9700  177.8760  136.8780 C   0  0  0  0  0  3  0  0  0  0  0  0
  180.1330  179.3100  140.9370 C   0  0  0  0  0  2  0  0  0  0  0  0
  183.7670  177.7840  138.7460 N   0  0  0  0  0  0  0  0  0  0  0  0
  182.5620  176.1290  137.4050 C   0  0  0  0  0  2  0  0  0  0  0  0
  188.1860  178.5820  140.3340 N   0  0  0  0  0  2  0  0  0  0  0  0
  187.8030  178.1430  137.9750 C   0  0  0  0  0  3  0  0  0  0  0  0
  182.5920  177.5680  137.9050 C   0  0  0  0  0  2  0  0  0  0  0  0
  180.9900  179.3840  142.2090 C   0  0  2  0  0  3  0  0  0  0  0  0
  183.3420  179.2950  142.8170 C   0  0  0  0  0  3  0  0  0  0  0  0
  187.2750  178.2930  139.2650 C   0  0  0  0  0  0  0  0  0  0  0  0
  183.7740  177.9670  140.0930 C   0  0  0  0  0  0  0  0  0  0  0  0
  184.7580  177.4670  135.8300 C   0  0  0  0  0  2  0  0  0  0  0  0
  186.8940  177.9890  142.3030 C   0  0  1  0  0  3  0  0  0  0  0  0
  182.8090  176.1040  136.0270 O   0  0  0  0  0  0  0  0  0  0  0  0
  182.3950  178.8950  141.9620 C   0  0  0  0  0  0  0  0  0  0  0  0
  182.6110  177.9150  140.9350 N   0  0  0  0  0  0  0  0  0  0  0  0
  187.8270  179.0030  141.6780 C   0  0  0  0  0  2  0  0  0  0  0  0
  185.9970  177.8770  144.7590 C   0  0  0  0  0  2  0  0  0  0  0  0
  187.1510  177.8240  143.7730 C   0  0  0  0  0  0  0  0  0  0  0  0
  188.3990  177.5600  144.1680 C   0  0  0  0  0  3  0  0  0  0  0  0
  189.8890  177.0950  145.9430 O   0  0  0  0  0  0  0  0  0  0  0  0
  187.6540  177.5080  146.5880 C   0  0  0  0  0  3  0  0  0  0  0  0
  188.7140  177.3670  145.5880 C   0  0  0  0  0  0  0  0  0  0  0  0
  186.4000  177.7570  146.2080 C   0  0  0  0  0  3  0  0  0  0  0  0
  180.3310  178.6180  143.3170 C   0  0  0  0  0  3  0  0  0  0  0  0
  179.1210  178.4600  143.3290 O   0  0  0  0  0  0  0  0  0  0  0  0
  179.1470  176.0770  140.5860 C   0  0  0  0  0  1  0  0  0  0  0  0
  179.0880  177.3080  139.9160 O   0  0  0  0  0  0  0  0  0  0  0  0
  1 25  1  0  0  0  0
  2 23  1  0  0  0  0
  3  7  1  0  0  0  0
  4 37  1  1  0  0  0
  4  1  1  0  0  0  0
  4 11  1  0  0  0  0
  6  8  1  0  0  0  0
  7  9  1  0  0  0  0
  8 12  1  0  0  0  0
  8  3  2  0  0  0  0
  9 22  1  0  0  0  0
  9  5  2  0  0  0  0
 10  6  2  0  0  0  0
 10 15  1  0  0  0  0
 11 17  1  0  0  0  0
 12 20  1  0  0  0  0
 13 16  1  0  0  0  0
 14 26  1  0  0  0  0
 15 19  2  0  0  0  0
 16 12  1  0  0  0  0
 17 34  1  1  0  0  0
 18  5  1  0  0  0  0
 19  3  1  0  0  0  0
 19 14  1  0  0  0  0
 20  7  2  0  0  0  0
 20 25  1  0  0  0  0
 21  2  1  0  0  0  0
 21  6  1  0  0  0  0
 22 28  1  1  0  0  0
 23 13  1  0  0  0  0
 24 17  1  0  0  0  0
 24 18  2  0  0  0  0
 25 24  1  0  0  0  0
 26 22  1  0  0  0  0
 27 33  1  0  0  0  0
 28 29  2  0  0  0  0
 28 27  1  0  0  0  0
 29 32  1  0  0  0  0
 32 30  2  0  0  0  0
 32 31  1  0  0  0  0
 33 31  2  0  0  0  0
 34 35  2  0  0  0  0
 37 36  1  0  0  0  0
M  END
>  <MODEL>
8

>  <REMARK>
 VINA RESULT:      -8.1      2.720      8.309
  Name = 
  3 active torsions:
  status: ('A' for Active; 'I' for Inactive)
    1  A    between atoms: C_5  and  O_23
    2  A    between atoms: C_6  and  C_31
    3  A    between atoms: C_11  and  C_26
                            x       y       z     vdW  Elec       q    Type
                         _______ _______ _______ _____ _____    ______ ____

>  <TORSDO>
F 3

$$$$
=
 OpenBabel11052415143D

 37 43  0  0  1  0  0  0  0  0999 V2000
  181.2490  176.7080  139.9810 C   0  0  0  0  0  2  0  0  0  0  0  0
  184.4960  175.6830  135.6340 C   0  0  0  0  0  2  0  0  0  0  0  0
  185.6810  178.0160  139.2230 C   0  0  0  0  0  0  0  0  0  0  0  0
  180.0780  177.5160  139.4000 C   0  0  2  0  0  3  0  0  0  0  0  0
  184.1330  178.7760  142.5050 N   0  0  0  0  0  0  0  0  0  0  0  0
  185.6480  177.5150  136.8410 C   0  0  0  0  0  0  0  0  0  0  0  0
  184.7530  178.0520  140.2610 C   0  0  0  0  0  0  0  0  0  0  0  0
  184.9860  177.6650  138.0780 C   0  0  0  0  0  0  0  0  0  0  0  0
  185.0180  178.2730  141.6920 C   0  0  0  0  0  0  0  0  0  0  0  0
  187.0320  177.7270  136.8060 C   0  0  0  0  0  3  0  0  0  0  0  0
  179.7510  178.8410  140.1240 C   0  0  0  0  0  2  0  0  0  0  0  0
  183.6740  177.4860  138.3600 N   0  0  0  0  0  0  0  0  0  0  0  0
  182.7160  175.7040  136.9830 C   0  0  0  0  0  2  0  0  0  0  0  0
  187.8540  178.6410  140.3290 N   0  0  0  0  0  2  0  0  0  0  0  0
  187.7340  178.0900  137.9650 C   0  0  0  0  0  3  0  0  0  0  0  0
  182.6030  177.1590  137.4210 C   0  0  0  0  0  2  0  0  0  0  0  0
  180.4710  179.0200  141.4680 C   0  0  2  0  0  3  0  0  0  0  0  0
  182.7530  179.1140  142.3020 C   0  0  0  0  0  3  0  0  0  0  0  0
  187.0740  178.2510  139.1910 C   0  0  0  0  0  0  0  0  0  0  0  0
  183.5360  177.7190  139.6920 C   0  0  0  0  0  0  0  0  0  0  0  0
  184.9650  177.1300  135.5690 C   0  0  0  0  0  2  0  0  0  0  0  0
  186.4150  178.0350  142.1880 C   0  0  1  0  0  3  0  0  0  0  0  0
  183.0980  175.6460  135.6370 O   0  0  0  0  0  0  0  0  0  0  0  0
  181.9220  178.6190  141.3780 C   0  0  0  0  0  0  0  0  0  0  0  0
  182.3010  177.6190  140.4200 N   0  0  0  0  0  0  0  0  0  0  0  0
  187.3380  179.0850  141.6130 C   0  0  0  0  0  2  0  0  0  0  0  0
  187.8500  177.5220  144.3160 C   0  0  0  0  0  2  0  0  0  0  0  0
  186.5350  177.9410  143.6820 C   0  0  0  0  0  0  0  0  0  0  0  0
  185.4840  178.3040  144.4220 C   0  0  0  0  0  3  0  0  0  0  0  0
  184.5540  178.6240  146.5720 O   0  0  0  0  0  0  0  0  0  0  0  0
  186.7540  177.7630  146.5450 C   0  0  0  0  0  3  0  0  0  0  0  0
  185.5430  178.2550  145.8870 C   0  0  0  0  0  0  0  0  0  0  0  0
  187.8170  177.4100  145.8210 C   0  0  0  0  0  3  0  0  0  0  0  0
  179.7570  178.2530  142.5390 C   0  0  0  0  0  3  0  0  0  0  0  0
  179.0410  178.8280  143.3430 O   0  0  0  0  0  0  0  0  0  0  0  0
  179.2480  175.3870  139.3290 C   0  0  0  0  0  1  0  0  0  0  0  0
  178.9420  176.7370  139.0950 O   0  0  0  0  0  0  0  0  0  0  0  0
  1 25  1  0  0  0  0
  2 23  1  0  0  0  0
  3  7  1  0  0  0  0
  4 37  1  1  0  0  0
  4  1  1  0  0  0  0
  4 11  1  0  0  0  0
  6  8  1  0  0  0  0
  7  9  1  0  0  0  0
  8 12  1  0  0  0  0
  8  3  2  0  0  0  0
  9 22  1  0  0  0  0
  9  5  2  0  0  0  0
 10  6  2  0  0  0  0
 10 15  1  0  0  0  0
 11 17  1  0  0  0  0
 12 20  1  0  0  0  0
 13 16  1  0  0  0  0
 14 26  1  0  0  0  0
 15 19  2  0  0  0  0
 16 12  1  0  0  0  0
 17 34  1  1  0  0  0
 18  5  1  0  0  0  0
 19  3  1  0  0  0  0
 19 14  1  0  0  0  0
 20  7  2  0  0  0  0
 20 25  1  0  0  0  0
 21  2  1  0  0  0  0
 21  6  1  0  0  0  0
 22 28  1  1  0  0  0
 23 13  1  0  0  0  0
 24 17  1  0  0  0  0
 24 18  2  0  0  0  0
 25 24  1  0  0  0  0
 26 22  1  0  0  0  0
 27 33  1  0  0  0  0
 28 27  1  0  0  0  0
 28 29  2  0  0  0  0
 29 32  1  0  0  0  0
 32 31  1  0  0  0  0
 32 30  2  0  0  0  0
 33 31  2  0  0  0  0
 34 35  2  0  0  0  0
 37 36  1  0  0  0  0
M  END
>  <MODEL>
9

>  <REMARK>
 VINA RESULT:      -8.0      3.368      8.290
  Name = 
  3 active torsions:
  status: ('A' for Active; 'I' for Inactive)
    1  A    between atoms: C_5  and  O_23
    2  A    between atoms: C_6  and  C_31
    3  A    between atoms: C_11  and  C_26
                            x       y       z     vdW  Elec       q    Type
                         _______ _______ _______ _____ _____    ______ ____

>  <TORSDO>
F 3

$$$$
