=
 OpenBabel11052415223D

 37 43  0  0  1  0  0  0  0  0999 V2000
  186.4980  177.7530  146.2260 C   0  0  0  0  0  2  0  0  0  0  0  0
  184.5240  178.1040  142.1100 C   0  0  1  0  0  3  0  0  0  0  0  0
  186.3050  177.0130  139.2140 O   0  0  0  0  0  0  0  0  0  0  0  0
  184.6770  178.5960  144.6890 C   0  0  2  0  0  3  0  0  0  0  0  0
  185.6420  178.4510  141.1460 C   0  0  2  0  0  3  0  0  0  0  0  0
  185.2660  177.8810  143.4530 C   0  0  2  0  0  3  0  0  0  0  0  0
  185.4640  178.0500  139.6780 C   0  0  1  0  0  0  0  0  0  0  0  0
  183.8850  179.8200  144.2730 C   0  0  0  0  0  2  0  0  0  0  0  0
  186.7550  178.1200  143.2010 C   0  0  1  0  0  3  0  0  0  0  0  0
  188.6710  176.7880  146.1010 O   0  0  0  0  0  1  0  0  0  0  0  0
  182.2370  179.0080  140.8690 S   0  0  0  0  0  0  0  0  0  0  0  0
  182.8960  179.4130  143.3710 O   0  0  0  0  0  0  0  0  0  0  0  0
  187.5710  177.1310  144.0200 C   0  0  0  0  0  2  0  0  0  0  0  0
  186.6490  178.3250  138.8130 C   0  0  1  0  0  3  0  0  0  0  0  0
  183.5290  179.2810  142.1240 C   0  0  1  0  0  3  0  0  0  0  0  0
  186.8880  177.8430  141.7270 C   0  0  2  0  0  3  0  0  0  0  0  0
  185.6930  178.9630  145.7710 C   0  0  0  0  0  2  0  0  0  0  0  0
  184.1350  178.1880  138.9380 C   0  0  2  0  0  3  0  0  0  0  0  0
  187.7990  177.6490  145.4350 C   0  0  1  0  0  3  0  0  0  0  0  0
  187.8840  178.8640  139.5850 C   0  0  1  0  0  3  0  0  0  0  0  0
  188.1470  178.3940  141.0570 C   0  0  2  0  0  3  0  0  0  0  0  0
  183.2900  179.3780  139.4210 C   0  0  0  0  0  2  0  0  0  0  0  0
  183.7350  176.1840  137.4480 C   0  0  0  0  0  3  0  0  0  0  0  0
  183.3990  176.8540  138.7560 C   0  0  2  0  0  3  0  0  0  0  0  0
  181.9870  176.9810  138.9640 O   0  0  0  0  0  0  0  0  0  0  0  0
  179.6510  176.1090  138.8060 C   0  0  0  0  0  1  0  0  0  0  0  0
  181.4290  175.4040  137.2870 C   0  0  0  0  0  3  0  0  0  0  0  0
  181.0590  176.1440  138.3320 C   0  0  0  0  0  0  0  0  0  0  0  0
  182.8120  175.4790  136.7920 C   0  0  0  0  0  3  0  0  0  0  0  0
  189.4960  177.7620  138.3860 O   0  0  0  0  0  1  0  0  0  0  0  0
  189.0610  179.0020  138.7180 N   0  0  0  0  0  0  0  0  0  0  0  0
  188.6920  179.6270  137.5720 O   0  0  0  0  0  0  0  0  0  0  0  0
  189.0550  178.7460  136.5510 C   0  0  0  0  0  1  0  0  0  0  0  0
  189.1920  177.3820  141.1190 N   0  0  0  0  0  2  0  0  0  0  0  0
  190.2060  177.8950  141.9400 N   0  0  0  0  0  2  0  0  0  0  0  0
  190.9490  176.7580  142.4560 C   0  0  0  0  0  2  0  0  0  0  0  0
  191.3710  177.0250  143.8870 C   0  0  0  0  0  1  0  0  0  0  0  0
  2 15  1  0  0  0  0
  2  6  1  0  0  0  0
  3  7  1  0  0  0  0
  4 17  1  0  0  0  0
  5 16  1  0  0  0  0
  5  2  1  0  0  0  0
  6  4  1  0  0  0  0
  7  5  1  0  0  0  0
  8  4  1  0  0  0  0
  9  6  1  0  0  0  0
  9 13  1  0  0  0  0
 11 15  1  0  0  0  0
 12  8  1  0  0  0  0
 13 19  1  0  0  0  0
 14  3  1  0  0  0  0
 14 20  1  0  0  0  0
 14  7  1  0  0  0  0
 15 12  1  0  0  0  0
 16  9  1  0  0  0  0
 17  1  1  0  0  0  0
 18 22  1  0  0  0  0
 18  7  1  0  0  0  0
 19 10  1  0  0  0  0
 19  1  1  0  0  0  0
 20 21  1  0  0  0  0
 21 34  1  0  0  0  0
 21 16  1  0  0  0  0
 22 11  1  0  0  0  0
 23 24  1  0  0  0  0
 24 18  1  0  0  0  0
 24 25  1  0  0  0  0
 27 28  2  0  0  0  0
 28 26  1  0  0  0  0
 28 25  1  0  0  0  0
 29 27  1  0  0  0  0
 29 23  2  0  0  0  0
 30 31  1  0  0  0  0
 31 20  1  0  0  0  0
 32 31  1  0  0  0  0
 33 32  1  0  0  0  0
 34 35  1  0  0  0  0
 35 36  1  0  0  0  0
 36 37  1  0  0  0  0
M  END
>  <MODEL>
1

>  <REMARK>
 VINA RESULT:      -5.8      0.000      0.000
  Name = 
  6 active torsions:
  status: ('A' for Active; 'I' for Inactive)
    1  A    between atoms: N_1  and  N_23
    2  A    between atoms: N_1  and  C_36
    3  A    between atoms: C_5  and  N_23
    4  A    between atoms: C_6  and  C_31
    5  A    between atoms: O_11  and  N_26
    6  A    between atoms: N_26  and  C_33
                            x       y       z     vdW  Elec       q    Type
                         _______ _______ _______ _____ _____    ______ ____

>  <TORSDO>
F 6

$$$$
=
 OpenBabel11052415223D

 37 43  0  0  1  0  0  0  0  0999 V2000
  185.4390  174.2210  134.8690 C   0  0  0  0  0  2  0  0  0  0  0  0
  182.4190  176.5860  137.3680 C   0  0  1  0  0  3  0  0  0  0  0  0
  183.3380  179.7810  138.6670 O   0  0  0  0  0  0  0  0  0  0  0  0
  183.2710  174.4150  136.1530 C   0  0  2  0  0  3  0  0  0  0  0  0
  183.2320  177.2970  138.4310 C   0  0  2  0  0  3  0  0  0  0  0  0
  183.4980  175.9050  136.4880 C   0  0  2  0  0  3  0  0  0  0  0  0
  182.6590  178.5920  139.0160 C   0  0  1  0  0  0  0  0  0  0  0  0
  182.3980  173.7560  137.2040 C   0  0  0  0  0  2  0  0  0  0  0  0
  184.8630  176.2440  137.0880 C   0  0  1  0  0  3  0  0  0  0  0  0
  187.4930  175.3940  134.5960 O   0  0  0  0  0  1  0  0  0  0  0  0
  179.8830  176.4250  138.4310 S   0  0  0  0  0  0  0  0  0  0  0  0
  181.2000  174.4730  137.2860 O   0  0  0  0  0  0  0  0  0  0  0  0
  185.8680  176.4610  135.9670 C   0  0  0  0  0  2  0  0  0  0  0  0
  183.5640  179.2930  139.9740 C   0  0  1  0  0  3  0  0  0  0  0  0
  181.4680  175.6010  138.0780 C   0  0  1  0  0  3  0  0  0  0  0  0
  184.5880  177.5290  137.8240 C   0  0  2  0  0  3  0  0  0  0  0  0
  184.5440  173.5980  135.9320 C   0  0  0  0  0  2  0  0  0  0  0  0
  181.1790  178.7650  139.3510 C   0  0  2  0  0  3  0  0  0  0  0  0
  186.4750  175.1380  135.5140 C   0  0  1  0  0  3  0  0  0  0  0  0
  184.9640  178.6360  140.1170 C   0  0  1  0  0  3  0  0  0  0  0  0
  185.6180  177.9230  138.8840 C   0  0  2  0  0  3  0  0  0  0  0  0
  180.5010  177.4610  139.8040 C   0  0  0  0  0  2  0  0  0  0  0  0
  180.7430  179.2260  136.9030 C   0  0  0  0  0  3  0  0  0  0  0  0
  180.4170  179.6120  138.3230 C   0  0  2  0  0  3  0  0  0  0  0  0
  180.5670  181.0170  138.5610 O   0  0  0  0  0  0  0  0  0  0  0  0
  180.3500  183.4050  137.8570 C   0  0  0  0  0  1  0  0  0  0  0  0
  180.5920  181.5740  136.2590 C   0  0  0  0  0  3  0  0  0  0  0  0
  180.4960  181.9620  137.5300 C   0  0  0  0  0  0  0  0  0  0  0  0
  180.7860  180.1500  135.9430 C   0  0  0  0  0  3  0  0  0  0  0  0
  185.1600  179.8440  142.0540 O   0  0  0  0  0  1  0  0  0  0  0  0
  185.8600  179.4250  140.9710 N   0  0  0  0  0  0  0  0  0  0  0  0
  186.8620  178.6260  141.4170 O   0  0  0  0  0  0  0  0  0  0  0  0
  186.3920  178.1000  142.6210 C   0  0  0  0  0  1  0  0  0  0  0  0
  186.6360  178.7540  138.2600 N   0  0  0  0  0  2  0  0  0  0  0  0
  187.8600  178.0890  138.4230 N   0  0  0  0  0  2  0  0  0  0  0  0
  188.7100  178.4880  137.3140 C   0  0  0  0  0  2  0  0  0  0  0  0
  189.5150  177.2990  136.8280 C   0  0  0  0  0  1  0  0  0  0  0  0
  1 19  1  0  0  0  0
  1 17  1  0  0  0  0
  2 15  1  0  0  0  0
  2  5  1  0  0  0  0
  3  7  1  0  0  0  0
  3 14  1  0  0  0  0
  4  6  1  0  0  0  0
  4  8  1  0  0  0  0
  5  7  1  0  0  0  0
  6  9  1  0  0  0  0
  6  2  1  0  0  0  0
  7 18  1  0  0  0  0
  7 14  1  0  0  0  0
  8 12  1  0  0  0  0
  9 16  1  0  0  0  0
 10 19  1  0  0  0  0
 11 22  1  0  0  0  0
 12 15  1  0  0  0  0
 13  9  1  0  0  0  0
 14 20  1  0  0  0  0
 15 11  1  0  0  0  0
 16  5  1  0  0  0  0
 16 21  1  0  0  0  0
 17  4  1  0  0  0  0
 18 22  1  0  0  0  0
 19 13  1  0  0  0  0
 20 31  1  0  0  0  0
 21 20  1  0  0  0  0
 23 24  1  0  0  0  0
 24 25  1  0  0  0  0
 24 18  1  0  0  0  0
 27 28  2  0  0  0  0
 28 26  1  0  0  0  0
 28 25  1  0  0  0  0
 29 27  1  0  0  0  0
 29 23  2  0  0  0  0
 31 32  1  0  0  0  0
 31 30  1  0  0  0  0
 32 33  1  0  0  0  0
 34 35  1  0  0  0  0
 34 21  1  0  0  0  0
 36 35  1  0  0  0  0
 37 36  1  0  0  0  0
M  END
>  <MODEL>
2

>  <REMARK>
 VINA RESULT:      -5.8      2.807      6.509
  Name = 
  6 active torsions:
  status: ('A' for Active; 'I' for Inactive)
    1  A    between atoms: N_1  and  N_23
    2  A    between atoms: N_1  and  C_36
    3  A    between atoms: C_5  and  N_23
    4  A    between atoms: C_6  and  C_31
    5  A    between atoms: O_11  and  N_26
    6  A    between atoms: N_26  and  C_33
                            x       y       z     vdW  Elec       q    Type
                         _______ _______ _______ _____ _____    ______ ____

>  <TORSDO>
F 6

$$$$
=
 OpenBabel11052415223D

 37 43  0  0  1  0  0  0  0  0999 V2000
  186.2290  176.1460  135.6940 C   0  0  0  0  0  2  0  0  0  0  0  0
  182.1330  177.5670  137.1660 C   0  0  1  0  0  3  0  0  0  0  0  0
  181.9530  180.1640  139.6090 O   0  0  0  0  0  0  0  0  0  0  0  0
  183.7190  175.9110  135.8780 C   0  0  2  0  0  3  0  0  0  0  0  0
  182.3140  177.8930  138.6350 C   0  0  2  0  0  3  0  0  0  0  0  0
  183.5670  177.2110  136.6990 C   0  0  2  0  0  3  0  0  0  0  0  0
  181.3690  178.9270  139.2560 C   0  0  1  0  0  0  0  0  0  0  0  0
  182.5910  174.9460  136.1900 C   0  0  0  0  0  2  0  0  0  0  0  0
  184.4910  177.3350  137.9110 C   0  0  1  0  0  3  0  0  0  0  0  0
  188.0150  177.3440  136.7160 O   0  0  0  0  0  1  0  0  0  0  0  0
  179.4370  177.0700  136.8960 S   0  0  0  0  0  0  0  0  0  0  0  0
  181.3790  175.5970  135.9390 O   0  0  0  0  0  0  0  0  0  0  0  0
  185.8300  177.9050  137.4700 C   0  0  0  0  0  2  0  0  0  0  0  0
  181.6780  179.2760  140.6740 C   0  0  1  0  0  3  0  0  0  0  0  0
  181.1250  176.4060  137.0590 C   0  0  1  0  0  3  0  0  0  0  0  0
  183.7510  178.3100  138.7900 C   0  0  2  0  0  3  0  0  0  0  0  0
  185.0710  175.2110  136.0160 C   0  0  0  0  0  2  0  0  0  0  0  0
  179.8770  178.9810  138.9350 C   0  0  2  0  0  3  0  0  0  0  0  0
  186.7550  176.8020  136.9680 C   0  0  1  0  0  3  0  0  0  0  0  0
  182.9690  178.6080  141.2230 C   0  0  1  0  0  3  0  0  0  0  0  0
  184.1730  178.3350  140.2590 C   0  0  2  0  0  3  0  0  0  0  0  0
  179.2670  177.6010  138.6370 C   0  0  0  0  0  2  0  0  0  0  0  0
  180.4870  180.2630  136.8420 C   0  0  0  0  0  3  0  0  0  0  0  0
  179.5020  180.1180  137.9740 C   0  0  2  0  0  3  0  0  0  0  0  0
  179.2660  181.3530  138.6620 O   0  0  0  0  0  0  0  0  0  0  0  0
  178.9380  183.8290  138.6880 C   0  0  0  0  0  1  0  0  0  0  0  0
  180.1980  182.6830  136.9380 C   0  0  0  0  0  3  0  0  0  0  0  0
  179.4810  182.5980  138.0580 C   0  0  0  0  0  0  0  0  0  0  0  0
  180.7740  181.4660  136.3450 C   0  0  0  0  0  3  0  0  0  0  0  0
  182.1470  179.2200  143.2730 O   0  0  0  0  0  1  0  0  0  0  0  0
  183.3000  179.0750  142.5750 N   0  0  0  0  0  0  0  0  0  0  0  0
  184.0390  178.1240  143.2000 O   0  0  0  0  0  0  0  0  0  0  0  0
  184.5290  178.7490  144.3480 C   0  0  0  0  0  1  0  0  0  0  0  0
  185.2280  179.3240  140.4250 N   0  0  0  0  0  2  0  0  0  0  0  0
  186.4470  178.6330  140.3620 N   0  0  0  0  0  2  0  0  0  0  0  0
  187.0110  178.6480  141.7010 C   0  0  0  0  0  2  0  0  0  0  0  0
  188.4160  178.0790  141.6740 C   0  0  0  0  0  1  0  0  0  0  0  0
  1 17  1  0  0  0  0
  1 19  1  0  0  0  0
  2  5  1  0  0  0  0
  3 14  1  0  0  0  0
  4 17  1  0  0  0  0
  4  8  1  0  0  0  0
  4  6  1  0  0  0  0
  5 16  1  0  0  0  0
  5  7  1  0  0  0  0
  6  2  1  0  0  0  0
  6  9  1  0  0  0  0
  7  3  1  0  0  0  0
  7 14  1  0  0  0  0
  9 16  1  0  0  0  0
 10 19  1  0  0  0  0
 11 15  1  0  0  0  0
 11 22  1  0  0  0  0
 12  8  1  0  0  0  0
 12 15  1  0  0  0  0
 13  9  1  0  0  0  0
 14 20  1  0  0  0  0
 15  2  1  0  0  0  0
 16 21  1  0  0  0  0
 18  7  1  0  0  0  0
 19 13  1  0  0  0  0
 20 31  1  0  0  0  0
 21 34  1  0  0  0  0
 21 20  1  0  0  0  0
 22 18  1  0  0  0  0
 23 24  1  0  0  0  0
 24 25  1  0  0  0  0
 24 18  1  0  0  0  0
 27 28  2  0  0  0  0
 28 25  1  0  0  0  0
 28 26  1  0  0  0  0
 29 23  2  0  0  0  0
 29 27  1  0  0  0  0
 31 32  1  0  0  0  0
 31 30  1  0  0  0  0
 32 33  1  0  0  0  0
 35 34  1  0  0  0  0
 35 36  1  0  0  0  0
 37 36  1  0  0  0  0
M  END
>  <MODEL>
3

>  <REMARK>
 VINA RESULT:      -5.8      3.106      6.721
  Name = 
  6 active torsions:
  status: ('A' for Active; 'I' for Inactive)
    1  A    between atoms: N_1  and  N_23
    2  A    between atoms: N_1  and  C_36
    3  A    between atoms: C_5  and  N_23
    4  A    between atoms: C_6  and  C_31
    5  A    between atoms: O_11  and  N_26
    6  A    between atoms: N_26  and  C_33
                            x       y       z     vdW  Elec       q    Type
                         _______ _______ _______ _____ _____    ______ ____

>  <TORSDO>
F 6

$$$$
=
 OpenBabel11052415223D

 37 43  0  0  1  0  0  0  0  0999 V2000
  179.8440  179.3470  141.4490 C   0  0  0  0  0  2  0  0  0  0  0  0
  181.5690  177.6310  137.5710 C   0  0  1  0  0  3  0  0  0  0  0  0
  184.8490  176.2200  137.5850 O   0  0  0  0  0  0  0  0  0  0  0  0
  179.7950  179.0010  138.9460 C   0  0  2  0  0  3  0  0  0  0  0  0
  183.0500  177.9530  137.6020 C   0  0  2  0  0  3  0  0  0  0  0  0
  181.0670  178.1250  138.9510 C   0  0  2  0  0  3  0  0  0  0  0  0
  183.9930  177.0390  136.8140 C   0  0  1  0  0  0  0  0  0  0  0  0
  179.6310  179.6980  137.6080 C   0  0  0  0  0  2  0  0  0  0  0  0
  182.2670  178.7120  139.6950 C   0  0  1  0  0  3  0  0  0  0  0  0
  181.3510  179.1230  143.2790 O   0  0  0  0  0  1  0  0  0  0  0  0
  180.9910  177.2970  134.8990 S   0  0  0  0  0  0  0  0  0  0  0  0
  179.6090  178.7210  136.6080 O   0  0  0  0  0  0  0  0  0  0  0  0
  182.1620  178.3700  141.1740 C   0  0  0  0  0  2  0  0  0  0  0  0
  185.4430  177.3520  136.9800 C   0  0  1  0  0  3  0  0  0  0  0  0
  180.9480  178.3710  136.3690 C   0  0  1  0  0  3  0  0  0  0  0  0
  183.4300  178.0000  139.0560 C   0  0  2  0  0  3  0  0  0  0  0  0
  179.6990  180.0140  140.0870 C   0  0  0  0  0  2  0  0  0  0  0  0
  183.6510  176.4940  135.4270 C   0  0  2  0  0  3  0  0  0  0  0  0
  181.2980  179.3870  141.9110 C   0  0  1  0  0  3  0  0  0  0  0  0
  185.7330  178.4780  138.0090 C   0  0  1  0  0  3  0  0  0  0  0  0
  184.8010  178.6490  139.2570 C   0  0  2  0  0  3  0  0  0  0  0  0
  182.7860  177.4530  134.5940 C   0  0  0  0  0  2  0  0  0  0  0  0
  182.3690  174.6800  136.6370 C   0  0  0  0  0  3  0  0  0  0  0  0
  183.2220  175.0210  135.4420 C   0  0  2  0  0  3  0  0  0  0  0  0
  184.3340  174.1310  135.2850 O   0  0  0  0  0  0  0  0  0  0  0  0
  185.3620  171.8560  135.3770 C   0  0  0  0  0  1  0  0  0  0  0  0
  183.4410  172.4910  136.7430 C   0  0  0  0  0  3  0  0  0  0  0  0
  184.3360  172.8360  135.8180 C   0  0  0  0  0  0  0  0  0  0  0  0
  182.4570  173.4800  137.2120 C   0  0  0  0  0  3  0  0  0  0  0  0
  187.7690  177.4500  138.2300 O   0  0  0  0  0  1  0  0  0  0  0  0
  187.1710  178.6670  138.2320 N   0  0  0  0  0  0  0  0  0  0  0  0
  187.6880  179.3770  137.1980 O   0  0  0  0  0  0  0  0  0  0  0  0
  189.0450  179.0510  137.1810 C   0  0  0  0  0  1  0  0  0  0  0  0
  185.4060  178.0970  140.4600 N   0  0  0  0  0  2  0  0  0  0  0  0
  185.5990  179.1670  141.3460 N   0  0  0  0  0  2  0  0  0  0  0  0
  186.0190  178.5960  142.6140 C   0  0  0  0  0  2  0  0  0  0  0  0
  184.8990  178.7160  143.6290 C   0  0  0  0  0  1  0  0  0  0  0  0
  1 19  1  0  0  0  0
  2  5  1  0  0  0  0
  2  6  1  0  0  0  0
  4  6  1  0  0  0  0
  4 17  1  0  0  0  0
  5 16  1  0  0  0  0
  6  9  1  0  0  0  0
  7 14  1  0  0  0  0
  7  3  1  0  0  0  0
  7  5  1  0  0  0  0
  8  4  1  0  0  0  0
  9 13  1  0  0  0  0
 11 15  1  0  0  0  0
 12  8  1  0  0  0  0
 13 19  1  0  0  0  0
 14  3  1  0  0  0  0
 14 20  1  0  0  0  0
 15 12  1  0  0  0  0
 15  2  1  0  0  0  0
 16 21  1  0  0  0  0
 16  9  1  0  0  0  0
 17  1  1  0  0  0  0
 18 24  1  0  0  0  0
 18  7  1  0  0  0  0
 19 10  1  0  0  0  0
 20 31  1  0  0  0  0
 20 21  1  0  0  0  0
 21 34  1  0  0  0  0
 22 11  1  0  0  0  0
 22 18  1  0  0  0  0
 23 29  2  0  0  0  0
 24 23  1  0  0  0  0
 25 24  1  0  0  0  0
 25 28  1  0  0  0  0
 26 28  1  0  0  0  0
 27 29  1  0  0  0  0
 28 27  2  0  0  0  0
 30 31  1  0  0  0  0
 32 31  1  0  0  0  0
 33 32  1  0  0  0  0
 34 35  1  0  0  0  0
 35 36  1  0  0  0  0
 36 37  1  0  0  0  0
M  END
>  <MODEL>
4

>  <REMARK>
 VINA RESULT:      -5.7      2.895      5.351
  Name = 
  6 active torsions:
  status: ('A' for Active; 'I' for Inactive)
    1  A    between atoms: N_1  and  N_23
    2  A    between atoms: N_1  and  C_36
    3  A    between atoms: C_5  and  N_23
    4  A    between atoms: C_6  and  C_31
    5  A    between atoms: O_11  and  N_26
    6  A    between atoms: N_26  and  C_33
                            x       y       z     vdW  Elec       q    Type
                         _______ _______ _______ _____ _____    ______ ____

>  <TORSDO>
F 6

$$$$
=
 OpenBabel11052415223D

 37 43  0  0  1  0  0  0  0  0999 V2000
  180.8510  179.1370  143.5980 C   0  0  0  0  0  2  0  0  0  0  0  0
  181.2300  177.8080  139.2340 C   0  0  1  0  0  3  0  0  0  0  0  0
  184.2960  176.3720  138.0990 O   0  0  0  0  0  0  0  0  0  0  0  0
  180.0210  179.0480  141.2120 C   0  0  2  0  0  3  0  0  0  0  0  0
  182.6610  178.1120  138.8350 C   0  0  2  0  0  3  0  0  0  0  0  0
  181.1970  178.1640  140.7420 C   0  0  2  0  0  3  0  0  0  0  0  0
  183.2780  177.2730  137.7110 C   0  0  1  0  0  0  0  0  0  0  0  0
  179.4820  179.8790  140.0630 C   0  0  0  0  0  2  0  0  0  0  0  0
  182.5900  178.6610  141.1290 C   0  0  1  0  0  3  0  0  0  0  0  0
  182.8360  178.7130  144.8420 O   0  0  0  0  0  1  0  0  0  0  0  0
  179.8460  177.7530  136.8530 S   0  0  0  0  0  0  0  0  0  0  0  0
  179.1150  179.0090  139.0320 O   0  0  0  0  0  0  0  0  0  0  0  0
  182.9300  178.1710  142.5280 C   0  0  0  0  0  2  0  0  0  0  0  0
  184.7210  177.5540  137.4490 C   0  0  1  0  0  3  0  0  0  0  0  0
  180.3010  178.6720  138.3590 C   0  0  1  0  0  3  0  0  0  0  0  0
  183.4710  178.0070  140.0970 C   0  0  2  0  0  3  0  0  0  0  0  0
  180.3210  179.9410  142.4170 C   0  0  0  0  0  2  0  0  0  0  0  0
  182.5060  176.8760  136.4540 C   0  0  2  0  0  3  0  0  0  0  0  0
  182.3760  179.1160  143.5890 C   0  0  1  0  0  3  0  0  0  0  0  0
  185.3580  178.5670  138.4390 C   0  0  1  0  0  3  0  0  0  0  0  0
  184.8620  178.6190  139.9240 C   0  0  2  0  0  3  0  0  0  0  0  0
  181.4650  177.9230  136.0230 C   0  0  0  0  0  2  0  0  0  0  0  0
  181.3250  175.0280  135.1940 C   0  0  0  0  0  3  0  0  0  0  0  0
  182.0420  175.4130  136.4620 C   0  0  2  0  0  3  0  0  0  0  0  0
  181.2930  175.0880  137.6400 O   0  0  0  0  0  0  0  0  0  0  0  0
  179.7850  173.5830  138.9440 C   0  0  0  0  0  1  0  0  0  0  0  0
  179.8240  173.6200  136.5020 C   0  0  0  0  0  3  0  0  0  0  0  0
  180.3110  174.0910  137.6500 C   0  0  0  0  0  0  0  0  0  0  0  0
  180.3130  174.1610  135.2240 C   0  0  0  0  0  3  0  0  0  0  0  0
  187.3570  177.4840  138.1550 O   0  0  0  0  0  1  0  0  0  0  0  0
  186.8020  178.7190  138.2220 N   0  0  0  0  0  0  0  0  0  0  0  0
  187.0060  179.3240  137.0250 O   0  0  0  0  0  0  0  0  0  0  0  0
  188.1330  178.6940  136.4930 C   0  0  0  0  0  1  0  0  0  0  0  0
  185.7850  177.9420  140.8230 N   0  0  0  0  0  2  0  0  0  0  0  0
  186.2560  178.9070  141.7250 N   0  0  0  0  0  2  0  0  0  0  0  0
  186.3600  178.2610  143.0220 C   0  0  0  0  0  2  0  0  0  0  0  0
  187.5760  177.3550  143.0500 C   0  0  0  0  0  1  0  0  0  0  0  0
  2  6  1  0  0  0  0
  4 17  1  0  0  0  0
  5  2  1  0  0  0  0
  5 16  1  0  0  0  0
  6  9  1  0  0  0  0
  6  4  1  0  0  0  0
  7  3  1  0  0  0  0
  7  5  1  0  0  0  0
  8  4  1  0  0  0  0
  9 13  1  0  0  0  0
 11 15  1  0  0  0  0
 12  8  1  0  0  0  0
 13 19  1  0  0  0  0
 14  7  1  0  0  0  0
 14  3  1  0  0  0  0
 14 20  1  0  0  0  0
 15 12  1  0  0  0  0
 15  2  1  0  0  0  0
 16  9  1  0  0  0  0
 17  1  1  0  0  0  0
 18 24  1  0  0  0  0
 18  7  1  0  0  0  0
 19  1  1  0  0  0  0
 19 10  1  0  0  0  0
 20 21  1  0  0  0  0
 21 16  1  0  0  0  0
 21 34  1  0  0  0  0
 22 18  1  0  0  0  0
 22 11  1  0  0  0  0
 23 29  2  0  0  0  0
 23 24  1  0  0  0  0
 24 25  1  0  0  0  0
 25 28  1  0  0  0  0
 27 28  2  0  0  0  0
 28 26  1  0  0  0  0
 29 27  1  0  0  0  0
 30 31  1  0  0  0  0
 31 20  1  0  0  0  0
 32 31  1  0  0  0  0
 33 32  1  0  0  0  0
 34 35  1  0  0  0  0
 35 36  1  0  0  0  0
 36 37  1  0  0  0  0
M  END
>  <MODEL>
5

>  <REMARK>
 VINA RESULT:      -5.4      2.449      4.138
  Name = 
  6 active torsions:
  status: ('A' for Active; 'I' for Inactive)
    1  A    between atoms: N_1  and  N_23
    2  A    between atoms: N_1  and  C_36
    3  A    between atoms: C_5  and  N_23
    4  A    between atoms: C_6  and  C_31
    5  A    between atoms: O_11  and  N_26
    6  A    between atoms: N_26  and  C_33
                            x       y       z     vdW  Elec       q    Type
                         _______ _______ _______ _____ _____    ______ ____

>  <TORSDO>
F 6

$$$$
=
 OpenBabel11052415223D

 37 43  0  0  1  0  0  0  0  0999 V2000
  179.0140  180.7130  138.4530 C   0  0  0  0  0  2  0  0  0  0  0  0
  181.4350  177.2420  136.7040 C   0  0  1  0  0  3  0  0  0  0  0  0
  184.4600  176.2320  138.3090 O   0  0  0  0  0  0  0  0  0  0  0  0
  179.5280  179.0520  136.6180 C   0  0  2  0  0  3  0  0  0  0  0  0
  182.8900  177.6010  136.9300 C   0  0  2  0  0  3  0  0  0  0  0  0
  180.6690  178.3860  137.4180 C   0  0  2  0  0  3  0  0  0  0  0  0
  183.8980  176.4520  137.0300 C   0  0  1  0  0  0  0  0  0  0  0  0
  179.7570  178.8950  135.1270 C   0  0  0  0  0  2  0  0  0  0  0  0
  181.7090  179.3420  138.0020 C   0  0  1  0  0  3  0  0  0  0  0  0
  180.0110  181.6000  140.4240 O   0  0  0  0  0  1  0  0  0  0  0  0
  181.4790  175.4730  134.5940 S   0  0  0  0  0  0  0  0  0  0  0  0
  179.8780  177.5300  134.8460 O   0  0  0  0  0  0  0  0  0  0  0  0
  181.2220  179.8590  139.3470 C   0  0  0  0  0  2  0  0  0  0  0  0
  185.2900  176.8760  137.3620 C   0  0  1  0  0  3  0  0  0  0  0  0
  181.1940  177.1730  135.1830 C   0  0  1  0  0  3  0  0  0  0  0  0
  182.9150  178.4550  138.1680 C   0  0  2  0  0  3  0  0  0  0  0  0
  179.2640  180.5180  136.9630 C   0  0  0  0  0  2  0  0  0  0  0  0
  183.8440  175.2220  136.1250 C   0  0  2  0  0  3  0  0  0  0  0  0
  180.3120  181.0700  139.1710 C   0  0  1  0  0  3  0  0  0  0  0  0
  185.4360  178.3950  137.6530 C   0  0  1  0  0  3  0  0  0  0  0  0
  184.2550  179.1740  138.3270 C   0  0  2  0  0  3  0  0  0  0  0  0
  183.3020  175.5250  134.7190 C   0  0  0  0  0  2  0  0  0  0  0  0
  183.3680  172.7440  135.9630 C   0  0  0  0  0  3  0  0  0  0  0  0
  183.2800  173.9770  136.8240 C   0  0  2  0  0  3  0  0  0  0  0  0
  181.9620  174.1970  137.3410 O   0  0  0  0  0  0  0  0  0  0  0  0
  179.8070  173.3710  138.2970 C   0  0  0  0  0  1  0  0  0  0  0  0
  181.2280  171.9960  136.8630 C   0  0  0  0  0  3  0  0  0  0  0  0
  181.0320  173.1600  137.4830 C   0  0  0  0  0  0  0  0  0  0  0  0
  182.4190  171.8090  136.0190 C   0  0  0  0  0  3  0  0  0  0  0  0
  187.3830  177.6300  138.5900 O   0  0  0  0  0  1  0  0  0  0  0  0
  186.7920  178.7450  138.0950 N   0  0  0  0  0  0  0  0  0  0  0  0
  187.5150  179.1480  137.0200 O   0  0  0  0  0  0  0  0  0  0  0  0
  188.8390  179.1600  137.4620 C   0  0  0  0  0  1  0  0  0  0  0  0
  184.4990  179.4010  139.7440 N   0  0  0  0  0  2  0  0  0  0  0  0
  183.9760  178.2940  140.4280 N   0  0  0  0  0  2  0  0  0  0  0  0
  184.4710  178.3660  141.7920 C   0  0  0  0  0  2  0  0  0  0  0  0
  185.7840  179.1230  141.8240 C   0  0  0  0  0  1  0  0  0  0  0  0
  1 19  1  0  0  0  0
  2  5  1  0  0  0  0
  2  6  1  0  0  0  0
  4 17  1  0  0  0  0
  4  6  1  0  0  0  0
  5  7  1  0  0  0  0
  5 16  1  0  0  0  0
  6  9  1  0  0  0  0
  7 14  1  0  0  0  0
  7  3  1  0  0  0  0
  8  4  1  0  0  0  0
  9 16  1  0  0  0  0
  9 13  1  0  0  0  0
 11 22  1  0  0  0  0
 11 15  1  0  0  0  0
 12  8  1  0  0  0  0
 12 15  1  0  0  0  0
 14 20  1  0  0  0  0
 14  3  1  0  0  0  0
 15  2  1  0  0  0  0
 16 21  1  0  0  0  0
 17  1  1  0  0  0  0
 18 24  1  0  0  0  0
 18  7  1  0  0  0  0
 19 13  1  0  0  0  0
 19 10  1  0  0  0  0
 20 31  1  0  0  0  0
 20 21  1  0  0  0  0
 21 34  1  0  0  0  0
 22 18  1  0  0  0  0
 23 29  2  0  0  0  0
 23 24  1  0  0  0  0
 24 25  1  0  0  0  0
 25 28  1  0  0  0  0
 27 28  2  0  0  0  0
 28 26  1  0  0  0  0
 29 27  1  0  0  0  0
 31 30  1  0  0  0  0
 32 33  1  0  0  0  0
 32 31  1  0  0  0  0
 34 35  1  0  0  0  0
 35 36  1  0  0  0  0
 36 37  1  0  0  0  0
M  END
>  <MODEL>
6

>  <REMARK>
 VINA RESULT:      -5.0      3.345      6.380
  Name = 
  6 active torsions:
  status: ('A' for Active; 'I' for Inactive)
    1  A    between atoms: N_1  and  N_23
    2  A    between atoms: N_1  and  C_36
    3  A    between atoms: C_5  and  N_23
    4  A    between atoms: C_6  and  C_31
    5  A    between atoms: O_11  and  N_26
    6  A    between atoms: N_26  and  C_33
                            x       y       z     vdW  Elec       q    Type
                         _______ _______ _______ _____ _____    ______ ____

>  <TORSDO>
F 6

$$$$
=
 OpenBabel11052415223D

 37 43  0  0  1  0  0  0  0  0999 V2000
  188.3880  174.7230  136.2610 C   0  0  0  0  0  2  0  0  0  0  0  0
  184.9860  177.0290  138.2790 C   0  0  1  0  0  3  0  0  0  0  0  0
  182.0150  175.2930  139.2300 O   0  0  0  0  0  0  0  0  0  0  0  0
  187.2610  176.8720  136.9690 C   0  0  2  0  0  3  0  0  0  0  0  0
  183.7040  176.4050  137.7640 C   0  0  2  0  0  3  0  0  0  0  0  0
  186.0920  176.1360  137.6600 C   0  0  2  0  0  3  0  0  0  0  0  0
  182.4590  176.5040  138.6510 C   0  0  1  0  0  0  0  0  0  0  0  0
  186.8260  178.2470  136.5010 C   0  0  0  0  0  2  0  0  0  0  0  0
  185.4010  175.0620  136.8200 C   0  0  1  0  0  3  0  0  0  0  0  0
  187.8840  172.4080  136.0200 O   0  0  0  0  0  1  0  0  0  0  0  0
  184.2520  179.5630  139.0690 S   0  0  0  0  0  0  0  0  0  0  0  0
  186.3350  178.9490  137.6070 O   0  0  0  0  0  0  0  0  0  0  0  0
  186.1570  173.7500  136.9560 C   0  0  0  0  0  2  0  0  0  0  0  0
  181.2670  175.7730  138.1300 C   0  0  1  0  0  3  0  0  0  0  0  0
  185.0210  178.4970  137.8090 C   0  0  1  0  0  3  0  0  0  0  0  0
  184.0390  174.9710  137.4580 C   0  0  2  0  0  3  0  0  0  0  0  0
  187.9230  176.1060  135.8230 C   0  0  0  0  0  2  0  0  0  0  0  0
  182.0960  177.7670  139.4300 C   0  0  2  0  0  3  0  0  0  0  0  0
  187.3140  173.6790  135.9650 C   0  0  1  0  0  3  0  0  0  0  0  0
  181.5420  174.9550  136.8380 C   0  0  1  0  0  3  0  0  0  0  0  0
  182.9510  174.3080  136.6120 C   0  0  2  0  0  3  0  0  0  0  0  0
  182.5280  179.0630  138.7240 C   0  0  0  0  0  2  0  0  0  0  0  0
  181.5380  178.5740  141.7610 C   0  0  0  0  0  3  0  0  0  0  0  0
  182.4080  177.6670  140.9300 C   0  0  2  0  0  3  0  0  0  0  0  0
  183.8040  177.8380  141.2050 O   0  0  0  0  0  0  0  0  0  0  0  0
  185.7060  178.2290  142.7770 C   0  0  0  0  0  1  0  0  0  0  0  0
  183.4330  178.9910  143.2400 C   0  0  0  0  0  3  0  0  0  0  0  0
  184.2700  178.3560  142.4190 C   0  0  0  0  0  0  0  0  0  0  0  0
  182.0210  179.1570  142.8590 C   0  0  0  0  0  3  0  0  0  0  0  0
  179.2570  174.7770  136.8730 O   0  0  0  0  0  1  0  0  0  0  0  0
  180.3780  174.1560  136.4320 N   0  0  0  0  0  0  0  0  0  0  0  0
  180.3200  174.1210  135.0770 O   0  0  0  0  0  0  0  0  0  0  0  0
  179.7680  172.8750  134.7750 C   0  0  0  0  0  1  0  0  0  0  0  0
  182.9400  172.8820  136.9010 N   0  0  0  0  0  2  0  0  0  0  0  0
  183.2440  172.2220  135.7010 N   0  0  0  0  0  2  0  0  0  0  0  0
  183.7320  170.9000  136.0560 C   0  0  0  0  0  2  0  0  0  0  0  0
  184.8950  170.5220  135.1600 C   0  0  0  0  0  1  0  0  0  0  0  0
  4  6  1  0  0  0  0
  5  2  1  0  0  0  0
  5  7  1  0  0  0  0
  6  2  1  0  0  0  0
  7  3  1  0  0  0  0
  7 18  1  0  0  0  0
  8  4  1  0  0  0  0
  8 12  1  0  0  0  0
  9 13  1  0  0  0  0
  9 16  1  0  0  0  0
  9  6  1  0  0  0  0
 12 15  1  0  0  0  0
 14  7  1  0  0  0  0
 14  3  1  0  0  0  0
 15  2  1  0  0  0  0
 15 11  1  0  0  0  0
 16  5  1  0  0  0  0
 17  1  1  0  0  0  0
 17  4  1  0  0  0  0
 18 24  1  0  0  0  0
 19 10  1  0  0  0  0
 19  1  1  0  0  0  0
 19 13  1  0  0  0  0
 20 14  1  0  0  0  0
 21 20  1  0  0  0  0
 21 34  1  0  0  0  0
 21 16  1  0  0  0  0
 22 11  1  0  0  0  0
 22 18  1  0  0  0  0
 23 29  2  0  0  0  0
 24 25  1  0  0  0  0
 24 23  1  0  0  0  0
 25 28  1  0  0  0  0
 28 26  1  0  0  0  0
 28 27  2  0  0  0  0
 29 27  1  0  0  0  0
 31 20  1  0  0  0  0
 31 30  1  0  0  0  0
 32 31  1  0  0  0  0
 33 32  1  0  0  0  0
 35 36  1  0  0  0  0
 35 34  1  0  0  0  0
 37 36  1  0  0  0  0
M  END
>  <MODEL>
7

>  <REMARK>
 VINA RESULT:      -4.8      3.853      7.820
  Name = 
  6 active torsions:
  status: ('A' for Active; 'I' for Inactive)
    1  A    between atoms: N_1  and  N_23
    2  A    between atoms: N_1  and  C_36
    3  A    between atoms: C_5  and  N_23
    4  A    between atoms: C_6  and  C_31
    5  A    between atoms: O_11  and  N_26
    6  A    between atoms: N_26  and  C_33
                            x       y       z     vdW  Elec       q    Type
                         _______ _______ _______ _____ _____    ______ ____

>  <TORSDO>
F 6

$$$$
=
 OpenBabel11052415223D

 37 43  0  0  1  0  0  0  0  0999 V2000
  186.3960  178.3010  139.1940 C   0  0  0  0  0  2  0  0  0  0  0  0
  182.1340  179.2390  137.8120 C   0  0  1  0  0  3  0  0  0  0  0  0
  179.8350  180.7220  140.1050 O   0  0  0  0  0  0  0  0  0  0  0  0
  184.5000  178.1260  137.5320 C   0  0  2  0  0  3  0  0  0  0  0  0
  181.2460  178.9750  139.0110 C   0  0  2  0  0  3  0  0  0  0  0  0
  183.5630  179.0230  138.3710 C   0  0  2  0  0  3  0  0  0  0  0  0
  179.9190  179.7370  139.0950 C   0  0  1  0  0  0  0  0  0  0  0  0
  183.6970  177.1650  136.6760 C   0  0  0  0  0  2  0  0  0  0  0  0
  183.4280  178.6370  139.8440 C   0  0  1  0  0  3  0  0  0  0  0  0
  186.7680  178.9410  141.4560 O   0  0  0  0  0  1  0  0  0  0  0  0
  180.4540  179.0010  135.6420 S   0  0  0  0  0  0  0  0  0  0  0  0
  182.8250  177.9160  135.8810 O   0  0  0  0  0  0  0  0  0  0  0  0
  184.5600  179.2720  140.6390 C   0  0  0  0  0  2  0  0  0  0  0  0
  179.1510  179.5090  140.3540 C   0  0  1  0  0  3  0  0  0  0  0  0
  181.7330  178.2500  136.6990 C   0  0  1  0  0  3  0  0  0  0  0  0
  182.0990  179.2380  140.2210 C   0  0  2  0  0  3  0  0  0  0  0  0
  185.5580  177.3650  138.3320 C   0  0  0  0  0  2  0  0  0  0  0  0
  179.0230  179.9760  137.8800 C   0  0  2  0  0  3  0  0  0  0  0  0
  185.8110  178.4010  140.5990 C   0  0  1  0  0  3  0  0  0  0  0  0
  179.8930  178.6270  141.3960 C   0  0  1  0  0  3  0  0  0  0  0  0
  181.4550  178.6860  141.4940 C   0  0  2  0  0  3  0  0  0  0  0  0
  179.0870  178.8400  136.8450 C   0  0  0  0  0  2  0  0  0  0  0  0
  178.9320  181.4640  135.8380 C   0  0  0  0  0  3  0  0  0  0  0  0
  179.1090  181.4070  137.3330 C   0  0  2  0  0  3  0  0  0  0  0  0
  180.2910  182.0860  137.7760 O   0  0  0  0  0  0  0  0  0  0  0  0
  181.9210  183.9750  137.6500 C   0  0  0  0  0  1  0  0  0  0  0  0
  180.5790  183.2610  135.7390 C   0  0  0  0  0  3  0  0  0  0  0  0
  180.8970  183.1000  137.0240 C   0  0  0  0  0  0  0  0  0  0  0  0
  179.5990  182.3610  135.1110 C   0  0  0  0  0  3  0  0  0  0  0  0
  179.6860  177.5170  143.3900 O   0  0  0  0  0  1  0  0  0  0  0  0
  179.1570  178.5310  142.6630 N   0  0  0  0  0  0  0  0  0  0  0  0
  179.3400  179.6770  143.3660 O   0  0  0  0  0  0  0  0  0  0  0  0
  178.9330  179.3690  144.6650 C   0  0  0  0  0  1  0  0  0  0  0  0
  181.8920  179.4910  142.6250 N   0  0  0  0  0  2  0  0  0  0  0  0
  182.6980  178.6670  143.4240 N   0  0  0  0  0  2  0  0  0  0  0  0
  183.6020  179.5370  144.1550 C   0  0  0  0  0  2  0  0  0  0  0  0
  184.1890  178.7930  145.3380 C   0  0  0  0  0  1  0  0  0  0  0  0
  1 19  1  0  0  0  0
  2  6  1  0  0  0  0
  2  5  1  0  0  0  0
  3 14  1  0  0  0  0
  4 17  1  0  0  0  0
  4  6  1  0  0  0  0
  5  7  1  0  0  0  0
  5 16  1  0  0  0  0
  6  9  1  0  0  0  0
  7  3  1  0  0  0  0
  7 14  1  0  0  0  0
  8  4  1  0  0  0  0
  9 16  1  0  0  0  0
  9 13  1  0  0  0  0
 11 15  1  0  0  0  0
 11 22  1  0  0  0  0
 12  8  1  0  0  0  0
 12 15  1  0  0  0  0
 14 20  1  0  0  0  0
 15  2  1  0  0  0  0
 16 21  1  0  0  0  0
 17  1  1  0  0  0  0
 18  7  1  0  0  0  0
 19 13  1  0  0  0  0
 19 10  1  0  0  0  0
 20 21  1  0  0  0  0
 20 31  1  0  0  0  0
 21 34  1  0  0  0  0
 22 18  1  0  0  0  0
 23 24  1  0  0  0  0
 24 25  1  0  0  0  0
 24 18  1  0  0  0  0
 27 28  2  0  0  0  0
 28 26  1  0  0  0  0
 28 25  1  0  0  0  0
 29 27  1  0  0  0  0
 29 23  2  0  0  0  0
 31 32  1  0  0  0  0
 31 30  1  0  0  0  0
 32 33  1  0  0  0  0
 34 35  1  0  0  0  0
 35 36  1  0  0  0  0
 36 37  1  0  0  0  0
M  END
>  <MODEL>
8

>  <REMARK>
 VINA RESULT:      -4.6      4.217      7.372
  Name = 
  6 active torsions:
  status: ('A' for Active; 'I' for Inactive)
    1  A    between atoms: N_1  and  N_23
    2  A    between atoms: N_1  and  C_36
    3  A    between atoms: C_5  and  N_23
    4  A    between atoms: C_6  and  C_31
    5  A    between atoms: O_11  and  N_26
    6  A    between atoms: N_26  and  C_33
                            x       y       z     vdW  Elec       q    Type
                         _______ _______ _______ _____ _____    ______ ____

>  <TORSDO>
F 6

$$$$
=
 OpenBabel11052415223D

 37 43  0  0  1  0  0  0  0  0999 V2000
  183.7760  178.9170  144.5070 C   0  0  0  0  0  2  0  0  0  0  0  0
  181.9730  177.6930  140.4800 C   0  0  1  0  0  3  0  0  0  0  0  0
  184.0790  176.2510  137.9830 O   0  0  0  0  0  0  0  0  0  0  0  0
  181.8960  178.8970  142.8170 C   0  0  2  0  0  3  0  0  0  0  0  0
  183.0400  177.9900  139.4450 C   0  0  2  0  0  3  0  0  0  0  0  0
  182.6790  178.0120  141.8230 C   0  0  2  0  0  3  0  0  0  0  0  0
  183.0210  177.1730  138.1490 C   0  0  1  0  0  0  0  0  0  0  0  0
  180.8890  179.7620  142.0850 C   0  0  0  0  0  2  0  0  0  0  0  0
  184.0970  178.4820  141.4970 C   0  0  1  0  0  3  0  0  0  0  0  0
  186.1050  178.4390  144.6310 O   0  0  0  0  0  1  0  0  0  0  0  0
  179.6120  177.7140  139.0630 S   0  0  0  0  0  0  0  0  0  0  0  0
  180.0500  178.9220  141.3440 O   0  0  0  0  0  0  0  0  0  0  0  0
  185.0590  177.9540  142.5500 C   0  0  0  0  0  2  0  0  0  0  0  0
  184.1630  177.4440  137.2280 C   0  0  1  0  0  3  0  0  0  0  0  0
  180.7560  178.5890  140.1770 C   0  0  1  0  0  3  0  0  0  0  0  0
  184.3560  177.8450  140.1580 C   0  0  2  0  0  3  0  0  0  0  0  0
  182.7600  179.7550  143.7410 C   0  0  0  0  0  2  0  0  0  0  0  0
  181.7290  176.8160  137.4150 C   0  0  2  0  0  3  0  0  0  0  0  0
  185.1070  178.8780  143.7620 C   0  0  1  0  0  3  0  0  0  0  0  0
  185.2210  178.4240  137.8040 C   0  0  1  0  0  3  0  0  0  0  0  0
  185.5040  178.4450  139.3450 C   0  0  2  0  0  3  0  0  0  0  0  0
  180.6330  177.8860  137.5570 C   0  0  0  0  0  2  0  0  0  0  0  0
  180.3110  174.8970  136.5780 C   0  0  0  0  0  3  0  0  0  0  0  0
  181.2950  175.3590  137.6220 C   0  0  2  0  0  3  0  0  0  0  0  0
  180.8380  175.1140  138.9580 O   0  0  0  0  0  0  0  0  0  0  0  0
  179.6830  173.7020  140.6650 C   0  0  0  0  0  1  0  0  0  0  0  0
  179.1620  173.5820  138.2820 C   0  0  0  0  0  3  0  0  0  0  0  0
  179.8940  174.1240  139.2560 C   0  0  0  0  0  0  0  0  0  0  0  0
  179.3410  174.0380  136.8940 C   0  0  0  0  0  3  0  0  0  0  0  0
  187.2850  179.3790  137.5220 O   0  0  0  0  0  1  0  0  0  0  0  0
  186.3840  178.5650  136.9190 N   0  0  0  0  0  0  0  0  0  0  0  0
  186.9690  177.3510  136.7650 O   0  0  0  0  0  0  0  0  0  0  0  0
  187.5300  177.3830  135.4870 C   0  0  0  0  0  1  0  0  0  0  0  0
  186.7310  177.7350  139.6750 N   0  0  0  0  0  2  0  0  0  0  0  0
  187.5310  178.6230  140.4090 N   0  0  0  0  0  2  0  0  0  0  0  0
  188.7680  177.9260  140.7150 C   0  0  0  0  0  2  0  0  0  0  0  0
  189.2310  177.1420  139.5040 C   0  0  0  0  0  1  0  0  0  0  0  0
  2  6  1  0  0  0  0
  3  7  1  0  0  0  0
  4 17  1  0  0  0  0
  5 16  1  0  0  0  0
  5  2  1  0  0  0  0
  6  4  1  0  0  0  0
  7  5  1  0  0  0  0
  8  4  1  0  0  0  0
  9  6  1  0  0  0  0
  9 13  1  0  0  0  0
 11 15  1  0  0  0  0
 12  8  1  0  0  0  0
 13 19  1  0  0  0  0
 14 20  1  0  0  0  0
 14  3  1  0  0  0  0
 14  7  1  0  0  0  0
 15  2  1  0  0  0  0
 15 12  1  0  0  0  0
 16  9  1  0  0  0  0
 17  1  1  0  0  0  0
 18 22  1  0  0  0  0
 18 24  1  0  0  0  0
 18  7  1  0  0  0  0
 19  1  1  0  0  0  0
 19 10  1  0  0  0  0
 20 21  1  0  0  0  0
 21 34  1  0  0  0  0
 21 16  1  0  0  0  0
 22 11  1  0  0  0  0
 23 29  2  0  0  0  0
 23 24  1  0  0  0  0
 24 25  1  0  0  0  0
 25 28  1  0  0  0  0
 27 28  2  0  0  0  0
 28 26  1  0  0  0  0
 29 27  1  0  0  0  0
 31 30  1  0  0  0  0
 31 20  1  0  0  0  0
 32 31  1  0  0  0  0
 33 32  1  0  0  0  0
 34 35  1  0  0  0  0
 35 36  1  0  0  0  0
 37 36  1  0  0  0  0
M  END
>  <MODEL>
9

>  <REMARK>
 VINA RESULT:      -4.5      2.196      3.226
  Name = 
  6 active torsions:
  status: ('A' for Active; 'I' for Inactive)
    1  A    between atoms: N_1  and  N_23
    2  A    between atoms: N_1  and  C_36
    3  A    between atoms: C_5  and  N_23
    4  A    between atoms: C_6  and  C_31
    5  A    between atoms: O_11  and  N_26
    6  A    between atoms: N_26  and  C_33
                            x       y       z     vdW  Elec       q    Type
                         _______ _______ _______ _____ _____    ______ ____

>  <TORSDO>
F 6

$$$$
