=
 OpenBabel11052414123D

 34 39  0  0  1  0  0  0  0  0999 V2000
  187.8240  177.6890  139.1720 C   0  0  0  0  0  0  0  0  0  0  0  0
  188.4180  177.6940  141.6120 N   0  0  0  0  0  0  0  0  0  0  0  0
  183.3000  178.7340  139.1210 C   0  0  0  0  0  0  0  0  0  0  0  0
  182.7630  177.7590  140.0140 N   0  0  0  0  0  2  0  0  0  0  0  0
  190.0790  177.6190  139.9470 O   0  0  0  0  0  0  0  0  0  0  0  0
  185.0530  179.3460  140.9180 C   0  0  1  0  0  3  0  0  0  0  0  0
  183.4930  177.3800  141.2120 C   0  0  0  0  0  2  0  0  0  0  0  0
  186.7020  178.3360  139.5170 C   0  0  0  0  0  0  0  0  0  0  0  0
  184.6170  179.3980  139.4130 C   0  0  1  0  0  3  0  0  0  0  0  0
  187.1770  178.3630  141.8830 C   0  0  0  0  0  3  0  0  0  0  0  0
  184.0670  178.6320  141.8580 C   0  0  0  0  0  2  0  0  0  0  0  0
  186.3690  178.6530  140.8710 C   0  0  0  0  0  0  0  0  0  0  0  0
  182.6720  179.0350  138.0740 O   0  0  0  0  0  0  0  0  0  0  0  0
  188.7780  177.2180  140.2600 C   0  0  0  0  0  0  0  0  0  0  0  0
  185.6750  178.7490  138.6360 N   0  0  0  0  0  2  0  0  0  0  0  0
  188.6650  178.2210  136.8460 C   0  0  0  0  0  0  0  0  0  0  0  0
  187.7950  176.0100  137.3490 C   0  0  0  0  0  3  0  0  0  0  0  0
  188.5920  176.5170  135.1220 C   0  0  0  0  0  3  0  0  0  0  0  0
  187.7460  174.3520  135.6380 F   0  0  0  0  0  0  0  0  0  0  0  0
  188.0920  177.3160  137.7660 C   0  0  0  0  0  0  0  0  0  0  0  0
  188.9080  177.8150  135.5300 C   0  0  0  0  0  3  0  0  0  0  0  0
  189.0440  179.5350  137.2450 N   0  0  0  0  0  1  0  0  0  0  0  0
  188.0400  175.6140  136.0320 C   0  0  0  0  0  0  0  0  0  0  0  0
  189.2540  177.2990  142.7370 C   0  0  0  0  0  2  0  0  0  0  0  0
  190.9270  178.5320  144.2890 C   0  0  1  0  0  3  0  0  0  0  0  0
  191.6280  177.4590  143.4710 C   0  0  0  0  0  2  0  0  0  0  0  0
  190.4730  178.2170  142.8530 C   0  0  1  0  0  3  0  0  0  0  0  0
  191.9490  176.8640  146.3680 F   0  0  0  0  0  0  0  0  0  0  0  0
  190.0540  177.9520  145.3760 C   0  0  0  0  0  0  0  0  0  0  0  0
  190.6170  177.1210  146.3600 C   0  0  0  0  0  0  0  0  0  0  0  0
  188.4310  176.7980  147.3540 C   0  0  0  0  0  3  0  0  0  0  0  0
  187.8620  177.6110  146.3720 C   0  0  0  0  0  3  0  0  0  0  0  0
  188.6690  178.1790  145.3830 C   0  0  0  0  0  3  0  0  0  0  0  0
  189.8060  176.5520  147.3460 C   0  0  0  0  0  3  0  0  0  0  0  0
  1  8  2  0  0  0  0
  1 14  1  0  0  0  0
  2 10  1  0  0  0  0
  2 24  1  0  0  0  0
  3  9  1  0  0  0  0
  3  4  1  0  0  0  0
  4  7  1  0  0  0  0
  5 14  2  0  0  0  0
  6 11  1  1  0  0  0
  7 11  1  0  0  0  0
  8 12  1  0  0  0  0
  9 15  1  6  0  0  0
  9  6  1  0  0  0  0
 12  6  1  0  0  0  0
 12 10  2  0  0  0  0
 13  3  2  0  0  0  0
 14  2  1  0  0  0  0
 15  8  1  0  0  0  0
 16 22  1  0  0  0  0
 16 20  1  0  0  0  0
 17 20  2  0  0  0  0
 18 21  1  0  0  0  0
 18 23  2  0  0  0  0
 19 23  1  0  0  0  0
 20  1  1  0  0  0  0
 21 16  2  0  0  0  0
 23 17  1  0  0  0  0
 25 29  1  1  0  0  0
 26 25  1  0  0  0  0
 27 24  1  1  0  0  0
 27 26  1  0  0  0  0
 27 25  1  0  0  0  0
 29 33  2  0  0  0  0
 29 30  1  0  0  0  0
 30 28  1  0  0  0  0
 30 34  2  0  0  0  0
 32 31  2  0  0  0  0
 33 32  1  0  0  0  0
 34 31  1  0  0  0  0
M  END
>  <MODEL>
1

>  <REMARK>
 VINA RESULT:      -9.2      0.000      0.000
  Name = 
  4 active torsions:
  status: ('A' for Active; 'I' for Inactive)
    1  A    between atoms: C_3  and  C_13
    2  A    between atoms: C_4  and  C_15
    3  A    between atoms: N_5  and  C_18
    4  A    between atoms: C_18  and  C_29
                            x       y       z     vdW  Elec       q    Type
                         _______ _______ _______ _____ _____    ______ ____

>  <TORSDO>
F 4

$$$$
=
 OpenBabel11052414123D

 34 39  0  0  1  0  0  0  0  0999 V2000
  187.0530  177.9440  138.9580 C   0  0  0  0  0  0  0  0  0  0  0  0
  186.7790  178.5630  141.3770 N   0  0  0  0  0  0  0  0  0  0  0  0
  182.6960  177.4700  137.4250 C   0  0  0  0  0  0  0  0  0  0  0  0
  182.1510  176.5460  138.3670 N   0  0  0  0  0  2  0  0  0  0  0  0
  188.8640  178.7320  140.2980 O   0  0  0  0  0  0  0  0  0  0  0  0
  183.5400  178.9110  139.3960 C   0  0  1  0  0  3  0  0  0  0  0  0
  182.5110  176.6340  139.7720 C   0  0  0  0  0  2  0  0  0  0  0  0
  185.7580  178.2500  138.8070 C   0  0  0  0  0  0  0  0  0  0  0  0
  183.6320  178.5580  137.8720 C   0  0  1  0  0  3  0  0  0  0  0  0
  185.3940  178.8400  141.1190 C   0  0  0  0  0  3  0  0  0  0  0  0
  182.5070  178.0970  140.1930 C   0  0  0  0  0  2  0  0  0  0  0  0
  184.9250  178.6770  139.8890 C   0  0  0  0  0  0  0  0  0  0  0  0
  182.3990  177.3670  136.2080 O   0  0  0  0  0  0  0  0  0  0  0  0
  187.6750  177.9980  140.3460 C   0  0  0  0  0  0  0  0  0  0  0  0
  185.0140  178.1550  137.6070 N   0  0  0  0  0  2  0  0  0  0  0  0
  188.6030  178.2960  136.9900 C   0  0  0  0  0  0  0  0  0  0  0  0
  187.9040  176.0530  137.6010 C   0  0  0  0  0  3  0  0  0  0  0  0
  189.3800  176.3860  135.7140 C   0  0  0  0  0  3  0  0  0  0  0  0
  188.6920  174.1930  136.3370 F   0  0  0  0  0  0  0  0  0  0  0  0
  187.8580  177.4360  137.8260 C   0  0  0  0  0  0  0  0  0  0  0  0
  189.3570  177.7640  135.9390 C   0  0  0  0  0  3  0  0  0  0  0  0
  188.6390  179.7010  137.2240 N   0  0  0  0  0  1  0  0  0  0  0  0
  188.6580  175.5300  136.5470 C   0  0  0  0  0  0  0  0  0  0  0  0
  187.2630  178.6570  142.7470 C   0  0  0  0  0  2  0  0  0  0  0  0
  187.1440  176.9890  144.7290 C   0  0  1  0  0  3  0  0  0  0  0  0
  186.5420  178.3330  145.1080 C   0  0  0  0  0  2  0  0  0  0  0  0
  186.3850  177.8310  143.6890 C   0  0  1  0  0  3  0  0  0  0  0  0
  188.5990  175.5680  142.7250 F   0  0  0  0  0  0  0  0  0  0  0  0
  188.6490  177.0420  144.6180 C   0  0  0  0  0  0  0  0  0  0  0  0
  189.3060  176.3020  143.6200 C   0  0  0  0  0  0  0  0  0  0  0  0
  191.4510  177.0630  144.4500 C   0  0  0  0  0  3  0  0  0  0  0  0
  190.8070  177.7890  145.4540 C   0  0  0  0  0  3  0  0  0  0  0  0
  189.4130  177.7730  145.5420 C   0  0  0  0  0  3  0  0  0  0  0  0
  190.7010  176.3190  143.5360 C   0  0  0  0  0  3  0  0  0  0  0  0
  1 14  1  0  0  0  0
  2 24  1  0  0  0  0
  3  4  1  0  0  0  0
  4  7  1  0  0  0  0
  5 14  2  0  0  0  0
  6 12  1  0  0  0  0
  6 11  1  1  0  0  0
  7 11  1  0  0  0  0
  8  1  2  0  0  0  0
  8 12  1  0  0  0  0
  9  3  1  1  0  0  0
  9  6  1  0  0  0  0
 10  2  1  0  0  0  0
 12 10  2  0  0  0  0
 13  3  2  0  0  0  0
 14  2  1  0  0  0  0
 15  9  1  0  0  0  0
 15  8  1  0  0  0  0
 16 22  1  0  0  0  0
 16 20  1  0  0  0  0
 17 20  2  0  0  0  0
 18 21  1  0  0  0  0
 18 23  2  0  0  0  0
 19 23  1  0  0  0  0
 20  1  1  0  0  0  0
 21 16  2  0  0  0  0
 23 17  1  0  0  0  0
 25 29  1  6  0  0  0
 25 26  1  0  0  0  0
 27 24  1  6  0  0  0
 27 25  1  0  0  0  0
 27 26  1  0  0  0  0
 28 30  1  0  0  0  0
 29 33  1  0  0  0  0
 30 29  2  0  0  0  0
 31 32  1  0  0  0  0
 32 33  2  0  0  0  0
 34 30  1  0  0  0  0
 34 31  2  0  0  0  0
M  END
>  <MODEL>
2

>  <REMARK>
 VINA RESULT:      -9.1      1.598      2.479
  Name = 
  4 active torsions:
  status: ('A' for Active; 'I' for Inactive)
    1  A    between atoms: C_3  and  C_13
    2  A    between atoms: C_4  and  C_15
    3  A    between atoms: N_5  and  C_18
    4  A    between atoms: C_18  and  C_29
                            x       y       z     vdW  Elec       q    Type
                         _______ _______ _______ _____ _____    ______ ____

>  <TORSDO>
F 4

$$$$
=
 OpenBabel11052414123D

 34 39  0  0  1  0  0  0  0  0999 V2000
  184.9230  178.6250  139.8730 C   0  0  0  0  0  0  0  0  0  0  0  0
  186.5820  178.5470  141.7570 N   0  0  0  0  0  0  0  0  0  0  0  0
  187.5290  178.1040  136.0660 C   0  0  0  0  0  0  0  0  0  0  0  0
  188.5060  179.1320  136.2340 N   0  0  0  0  0  2  0  0  0  0  0  0
  184.2670  178.4350  142.1590 O   0  0  0  0  0  0  0  0  0  0  0  0
  188.0390  177.2920  138.4640 C   0  0  1  0  0  3  0  0  0  0  0  0
  189.0450  179.4220  137.5520 C   0  0  0  0  0  2  0  0  0  0  0  0
  185.8870  178.1100  139.0980 C   0  0  0  0  0  0  0  0  0  0  0  0
  187.0600  177.2940  137.2410 C   0  0  1  0  0  3  0  0  0  0  0  0
  187.5550  178.0220  140.8390 C   0  0  0  0  0  3  0  0  0  0  0  0
  189.3260  178.1100  138.2710 C   0  0  0  0  0  2  0  0  0  0  0  0
  187.2060  177.8290  139.5740 C   0  0  0  0  0  0  0  0  0  0  0  0
  187.0510  177.8800  134.9250 O   0  0  0  0  0  0  0  0  0  0  0  0
  185.2400  178.9820  141.3180 C   0  0  0  0  0  0  0  0  0  0  0  0
  185.7790  177.8190  137.7170 N   0  0  0  0  0  2  0  0  0  0  0  0
  182.5740  178.0070  139.1680 C   0  0  0  0  0  0  0  0  0  0  0  0
  183.3400  180.3020  138.9650 C   0  0  0  0  0  3  0  0  0  0  0  0
  181.0950  179.7130  138.2830 C   0  0  0  0  0  3  0  0  0  0  0  0
  181.8610  181.9600  138.1030 F   0  0  0  0  0  0  0  0  0  0  0  0
  183.5950  178.9690  139.3190 C   0  0  0  0  0  0  0  0  0  0  0  0
  181.3320  178.3860  138.6480 C   0  0  0  0  0  3  0  0  0  0  0  0
  182.7690  176.6560  139.5770 N   0  0  0  0  0  1  0  0  0  0  0  0
  182.0960  180.6710  138.4450 C   0  0  0  0  0  0  0  0  0  0  0  0
  187.0000  178.8400  143.1200 C   0  0  0  0  0  2  0  0  0  0  0  0
  187.4780  176.9450  144.8250 C   0  0  1  0  0  3  0  0  0  0  0  0
  186.8510  178.1500  145.5080 C   0  0  0  0  0  2  0  0  0  0  0  0
  186.4330  177.8060  144.0950 C   0  0  1  0  0  3  0  0  0  0  0  0
  188.7950  175.4260  142.7980 F   0  0  0  0  0  0  0  0  0  0  0  0
  188.9100  177.1940  144.4150 C   0  0  0  0  0  0  0  0  0  0  0  0
  189.5060  176.3960  143.4230 C   0  0  0  0  0  0  0  0  0  0  0  0
  191.5960  177.5900  143.7010 C   0  0  0  0  0  3  0  0  0  0  0  0
  191.0160  178.3780  144.6970 C   0  0  0  0  0  3  0  0  0  0  0  0
  189.6810  178.1760  145.0590 C   0  0  0  0  0  3  0  0  0  0  0  0
  190.8420  176.6000  143.0670 C   0  0  0  0  0  3  0  0  0  0  0  0
  1 14  1  0  0  0  0
  2 24  1  0  0  0  0
  3  4  1  0  0  0  0
  4  7  1  0  0  0  0
  6 11  1  6  0  0  0
  6 12  1  0  0  0  0
  7 11  1  0  0  0  0
  8 12  1  0  0  0  0
  8  1  2  0  0  0  0
  9  3  1  6  0  0  0
  9 15  1  0  0  0  0
  9  6  1  0  0  0  0
 10  2  1  0  0  0  0
 12 10  2  0  0  0  0
 13  3  2  0  0  0  0
 14  2  1  0  0  0  0
 14  5  2  0  0  0  0
 15  8  1  0  0  0  0
 16 20  1  0  0  0  0
 16 22  1  0  0  0  0
 17 20  2  0  0  0  0
 18 23  2  0  0  0  0
 18 21  1  0  0  0  0
 19 23  1  0  0  0  0
 20  1  1  0  0  0  0
 21 16  2  0  0  0  0
 23 17  1  0  0  0  0
 25 29  1  6  0  0  0
 25 26  1  0  0  0  0
 27 24  1  6  0  0  0
 27 25  1  0  0  0  0
 27 26  1  0  0  0  0
 28 30  1  0  0  0  0
 29 33  1  0  0  0  0
 30 29  2  0  0  0  0
 31 32  1  0  0  0  0
 32 33  2  0  0  0  0
 34 30  1  0  0  0  0
 34 31  2  0  0  0  0
M  END
>  <MODEL>
3

>  <REMARK>
 VINA RESULT:      -8.6      2.615      5.264
  Name = 
  4 active torsions:
  status: ('A' for Active; 'I' for Inactive)
    1  A    between atoms: C_3  and  C_13
    2  A    between atoms: C_4  and  C_15
    3  A    between atoms: N_5  and  C_18
    4  A    between atoms: C_18  and  C_29
                            x       y       z     vdW  Elec       q    Type
                         _______ _______ _______ _____ _____    ______ ____

>  <TORSDO>
F 4

$$$$
=
 OpenBabel11052414123D

 34 39  0  0  1  0  0  0  0  0999 V2000
  186.4070  177.8170  138.5550 C   0  0  0  0  0  0  0  0  0  0  0  0
  185.6710  178.6660  140.8010 N   0  0  0  0  0  0  0  0  0  0  0  0
  182.4530  176.5040  136.5050 C   0  0  0  0  0  0  0  0  0  0  0  0
  181.8930  175.6250  137.4810 N   0  0  0  0  0  2  0  0  0  0  0  0
  187.8590  179.0250  140.0130 O   0  0  0  0  0  0  0  0  0  0  0  0
  182.7710  178.2790  138.3560 C   0  0  1  0  0  3  0  0  0  0  0  0
  182.0090  175.9310  138.8970 C   0  0  0  0  0  2  0  0  0  0  0  0
  185.1230  177.9010  138.1820 C   0  0  0  0  0  0  0  0  0  0  0  0
  183.1510  177.7670  136.9240 C   0  0  1  0  0  3  0  0  0  0  0  0
  184.3200  178.6950  140.3150 C   0  0  0  0  0  3  0  0  0  0  0  0
  181.7430  177.4150  139.1050 C   0  0  0  0  0  2  0  0  0  0  0  0
  184.0790  178.3190  139.0660 C   0  0  0  0  0  0  0  0  0  0  0  0
  182.3690  176.2150  135.2850 O   0  0  0  0  0  0  0  0  0  0  0  0
  186.7870  178.1280  139.9950 C   0  0  0  0  0  0  0  0  0  0  0  0
  184.5990  177.5530  136.9140 N   0  0  0  0  0  2  0  0  0  0  0  0
  188.1790  178.1680  136.7840 C   0  0  0  0  0  0  0  0  0  0  0  0
  187.7190  175.9340  137.6190 C   0  0  0  0  0  3  0  0  0  0  0  0
  189.4090  176.2650  135.9200 C   0  0  0  0  0  3  0  0  0  0  0  0
  188.9510  174.0840  136.7610 F   0  0  0  0  0  0  0  0  0  0  0  0
  187.4430  177.3090  137.6290 C   0  0  0  0  0  0  0  0  0  0  0  0
  189.1550  177.6380  135.9330 C   0  0  0  0  0  3  0  0  0  0  0  0
  187.9770  179.5770  136.8110 N   0  0  0  0  0  1  0  0  0  0  0  0
  188.6950  175.4140  136.7650 C   0  0  0  0  0  0  0  0  0  0  0  0
  185.9130  178.9940  142.1990 C   0  0  0  0  0  2  0  0  0  0  0  0
  184.8210  178.2610  144.4340 C   0  0  1  0  0  3  0  0  0  0  0  0
  184.6790  179.7600  144.2210 C   0  0  0  0  0  2  0  0  0  0  0  0
  184.6320  178.8390  143.0210 C   0  0  1  0  0  3  0  0  0  0  0  0
  186.1080  179.0340  146.8620 F   0  0  0  0  0  0  0  0  0  0  0  0
  186.2360  177.8580  144.7750 C   0  0  0  0  0  0  0  0  0  0  0  0
  186.8180  178.2900  145.9790 C   0  0  0  0  0  0  0  0  0  0  0  0
  188.8930  177.1870  145.3850 C   0  0  0  0  0  3  0  0  0  0  0  0
  188.3260  176.7670  144.1800 C   0  0  0  0  0  3  0  0  0  0  0  0
  187.0060  177.1070  143.8730 C   0  0  0  0  0  3  0  0  0  0  0  0
  188.1400  177.9490  146.2810 C   0  0  0  0  0  3  0  0  0  0  0  0
  1 14  1  0  0  0  0
  2 24  1  0  0  0  0
  3  4  1  0  0  0  0
  4  7  1  0  0  0  0
  6 12  1  0  0  0  0
  6 11  1  1  0  0  0
  7 11  1  0  0  0  0
  8  1  2  0  0  0  0
  8 12  1  0  0  0  0
  9  3  1  1  0  0  0
  9  6  1  0  0  0  0
 10  2  1  0  0  0  0
 12 10  2  0  0  0  0
 13  3  2  0  0  0  0
 14  5  2  0  0  0  0
 14  2  1  0  0  0  0
 15  9  1  0  0  0  0
 15  8  1  0  0  0  0
 16 22  1  0  0  0  0
 16 20  1  0  0  0  0
 17 20  2  0  0  0  0
 18 21  1  0  0  0  0
 18 23  2  0  0  0  0
 19 23  1  0  0  0  0
 20  1  1  0  0  0  0
 21 16  2  0  0  0  0
 23 17  1  0  0  0  0
 25 29  1  6  0  0  0
 26 25  1  0  0  0  0
 27 24  1  6  0  0  0
 27 26  1  0  0  0  0
 27 25  1  0  0  0  0
 29 30  1  0  0  0  0
 30 34  2  0  0  0  0
 30 28  1  0  0  0  0
 31 34  1  0  0  0  0
 32 31  2  0  0  0  0
 33 32  1  0  0  0  0
 33 29  2  0  0  0  0
M  END
>  <MODEL>
4

>  <REMARK>
 VINA RESULT:      -8.5      2.219      3.346
  Name = 
  4 active torsions:
  status: ('A' for Active; 'I' for Inactive)
    1  A    between atoms: C_3  and  C_13
    2  A    between atoms: C_4  and  C_15
    3  A    between atoms: N_5  and  C_18
    4  A    between atoms: C_18  and  C_29
                            x       y       z     vdW  Elec       q    Type
                         _______ _______ _______ _____ _____    ______ ____

>  <TORSDO>
F 4

$$$$
=
 OpenBabel11052414123D

 34 39  0  0  1  0  0  0  0  0999 V2000
  185.2610  178.5220  139.7790 C   0  0  0  0  0  0  0  0  0  0  0  0
  187.1420  178.3440  141.4330 N   0  0  0  0  0  0  0  0  0  0  0  0
  187.3300  177.9260  135.6650 C   0  0  0  0  0  0  0  0  0  0  0  0
  188.3670  178.9060  135.7120 N   0  0  0  0  0  2  0  0  0  0  0  0
  184.8950  178.3350  142.1290 O   0  0  0  0  0  0  0  0  0  0  0  0
  188.1040  177.0630  137.9730 C   0  0  1  0  0  3  0  0  0  0  0  0
  189.0840  179.1550  136.9510 C   0  0  0  0  0  2  0  0  0  0  0  0
  186.0920  177.9720  138.8830 C   0  0  0  0  0  0  0  0  0  0  0  0
  186.9770  177.1250  136.8860 C   0  0  1  0  0  3  0  0  0  0  0  0
  187.9630  177.7860  140.3950 C   0  0  0  0  0  3  0  0  0  0  0  0
  189.3930  177.8230  137.6200 C   0  0  0  0  0  2  0  0  0  0  0  0
  187.4460  177.6250  139.1840 C   0  0  0  0  0  0  0  0  0  0  0  0
  186.6980  177.7390  134.5940 O   0  0  0  0  0  0  0  0  0  0  0  0
  185.7770  178.8460  141.1730 C   0  0  0  0  0  0  0  0  0  0  0  0
  185.7940  177.7030  137.5260 N   0  0  0  0  0  2  0  0  0  0  0  0
  182.8040  178.0330  139.4270 C   0  0  0  0  0  0  0  0  0  0  0  0
  183.6660  180.2700  139.0420 C   0  0  0  0  0  3  0  0  0  0  0  0
  181.3180  179.8050  138.6970 C   0  0  0  0  0  3  0  0  0  0  0  0
  182.1810  181.9950  138.3370 F   0  0  0  0  0  0  0  0  0  0  0  0
  183.8910  178.9340  139.4020 C   0  0  0  0  0  0  0  0  0  0  0  0
  181.5260  178.4750  139.0710 C   0  0  0  0  0  3  0  0  0  0  0  0
  182.9760  176.6840  139.8510 N   0  0  0  0  0  1  0  0  0  0  0  0
  182.3860  180.7030  138.6870 C   0  0  0  0  0  0  0  0  0  0  0  0
  187.7460  178.6020  142.7330 C   0  0  0  0  0  2  0  0  0  0  0  0
  188.7010  176.9420  144.4820 C   0  0  1  0  0  3  0  0  0  0  0  0
  188.1080  176.2030  143.2930 C   0  0  0  0  0  2  0  0  0  0  0  0
  188.7910  177.5340  143.0650 C   0  0  1  0  0  3  0  0  0  0  0  0
  189.2730  178.0150  147.0660 F   0  0  0  0  0  0  0  0  0  0  0  0
  187.6430  177.5580  145.3660 C   0  0  0  0  0  0  0  0  0  0  0  0
  187.9870  178.0500  146.6370 C   0  0  0  0  0  0  0  0  0  0  0  0
  185.6710  178.6290  147.0530 C   0  0  0  0  0  3  0  0  0  0  0  0
  185.3190  178.1290  145.7980 C   0  0  0  0  0  3  0  0  0  0  0  0
  186.2980  177.5890  144.9610 C   0  0  0  0  0  3  0  0  0  0  0  0
  187.0040  178.5870  147.4720 C   0  0  0  0  0  3  0  0  0  0  0  0
  1 14  1  0  0  0  0
  2 24  1  0  0  0  0
  3  4  1  0  0  0  0
  4  7  1  0  0  0  0
  6 11  1  6  0  0  0
  6 12  1  0  0  0  0
  7 11  1  0  0  0  0
  8 12  1  0  0  0  0
  8  1  2  0  0  0  0
  9  3  1  6  0  0  0
  9 15  1  0  0  0  0
  9  6  1  0  0  0  0
 10  2  1  0  0  0  0
 12 10  2  0  0  0  0
 13  3  2  0  0  0  0
 14  2  1  0  0  0  0
 14  5  2  0  0  0  0
 15  8  1  0  0  0  0
 16 22  1  0  0  0  0
 17 20  2  0  0  0  0
 18 21  1  0  0  0  0
 19 23  1  0  0  0  0
 20 16  1  0  0  0  0
 20  1  1  0  0  0  0
 21 16  2  0  0  0  0
 23 18  2  0  0  0  0
 23 17  1  0  0  0  0
 25 29  1  1  0  0  0
 26 25  1  0  0  0  0
 27 24  1  1  0  0  0
 27 26  1  0  0  0  0
 27 25  1  0  0  0  0
 29 30  1  0  0  0  0
 30 28  1  0  0  0  0
 30 34  2  0  0  0  0
 31 34  1  0  0  0  0
 32 31  2  0  0  0  0
 33 29  2  0  0  0  0
 33 32  1  0  0  0  0
M  END
>  <MODEL>
5

>  <REMARK>
 VINA RESULT:      -8.4      2.629      5.038
  Name = 
  4 active torsions:
  status: ('A' for Active; 'I' for Inactive)
    1  A    between atoms: C_3  and  C_13
    2  A    between atoms: C_4  and  C_15
    3  A    between atoms: N_5  and  C_18
    4  A    between atoms: C_18  and  C_29
                            x       y       z     vdW  Elec       q    Type
                         _______ _______ _______ _____ _____    ______ ____

>  <TORSDO>
F 4

$$$$
=
 OpenBabel11052414123D

 34 39  0  0  1  0  0  0  0  0999 V2000
  188.1890  178.1720  141.3590 C   0  0  0  0  0  0  0  0  0  0  0  0
  186.0130  178.6280  140.1910 N   0  0  0  0  0  0  0  0  0  0  0  0
  190.7750  176.0700  138.1250 C   0  0  0  0  0  0  0  0  0  0  0  0
  189.9210  175.0040  137.7120 N   0  0  0  0  0  2  0  0  0  0  0  0
  186.5050  179.5880  142.2820 O   0  0  0  0  0  0  0  0  0  0  0  0
  188.8150  177.7150  137.7710 C   0  0  1  0  0  3  0  0  0  0  0  0
  188.4880  175.2170  137.5920 C   0  0  0  0  0  2  0  0  0  0  0  0
  188.7140  177.9590  140.1440 C   0  0  0  0  0  0  0  0  0  0  0  0
  190.2120  177.4320  138.4220 C   0  0  1  0  0  3  0  0  0  0  0  0
  186.6610  178.3530  138.9390 C   0  0  0  0  0  3  0  0  0  0  0  0
  188.2420  176.5640  136.9280 C   0  0  0  0  0  2  0  0  0  0  0  0
  187.9470  178.0280  138.9390 C   0  0  0  0  0  0  0  0  0  0  0  0
  192.0090  175.8670  138.2510 O   0  0  0  0  0  0  0  0  0  0  0  0
  186.7000  178.4540  141.4880 C   0  0  0  0  0  0  0  0  0  0  0  0
  190.0520  177.5910  139.8680 N   0  0  0  0  0  2  0  0  0  0  0  0
  188.8150  176.9410  143.4780 C   0  0  0  0  0  0  0  0  0  0  0  0
  190.0140  178.9540  142.8430 C   0  0  0  0  0  3  0  0  0  0  0  0
  190.6100  177.7840  144.8740 C   0  0  0  0  0  3  0  0  0  0  0  0
  191.7810  179.7530  144.2260 F   0  0  0  0  0  0  0  0  0  0  0  0
  189.0040  178.0170  142.5840 C   0  0  0  0  0  0  0  0  0  0  0  0
  189.6180  176.8340  144.6180 C   0  0  0  0  0  3  0  0  0  0  0  0
  187.8450  175.9300  143.2190 N   0  0  0  0  0  1  0  0  0  0  0  0
  190.8110  178.8400  143.9850 C   0  0  0  0  0  0  0  0  0  0  0  0
  184.5820  178.8940  140.1880 C   0  0  0  0  0  2  0  0  0  0  0  0
  183.0350  179.0700  138.1130 C   0  0  1  0  0  3  0  0  0  0  0  0
  182.7670  180.2010  139.0940 C   0  0  0  0  0  2  0  0  0  0  0  0
  184.1810  179.6820  138.9390 C   0  0  1  0  0  3  0  0  0  0  0  0
  184.2740  176.5880  137.4400 F   0  0  0  0  0  0  0  0  0  0  0  0
  182.5270  177.7400  138.6140 C   0  0  0  0  0  0  0  0  0  0  0  0
  183.1710  176.5510  138.2280 C   0  0  0  0  0  0  0  0  0  0  0  0
  181.5440  175.2530  139.4690 C   0  0  0  0  0  3  0  0  0  0  0  0
  180.8900  176.4280  139.8440 C   0  0  0  0  0  3  0  0  0  0  0  0
  181.3740  177.6660  139.4120 C   0  0  0  0  0  3  0  0  0  0  0  0
  182.6820  175.3150  138.6600 C   0  0  0  0  0  3  0  0  0  0  0  0
  1 14  1  0  0  0  0
  1 20  1  0  0  0  0
  2 14  1  0  0  0  0
  3 13  2  0  0  0  0
  4  3  1  0  0  0  0
  6 11  1  1  0  0  0
  6  9  1  0  0  0  0
  6 12  1  0  0  0  0
  7  4  1  0  0  0  0
  8  1  2  0  0  0  0
  9  3  1  1  0  0  0
  9 15  1  0  0  0  0
 10  2  1  0  0  0  0
 11  7  1  0  0  0  0
 12 10  2  0  0  0  0
 12  8  1  0  0  0  0
 14  5  2  0  0  0  0
 15  8  1  0  0  0  0
 16 21  1  0  0  0  0
 17 23  2  0  0  0  0
 20 17  1  0  0  0  0
 20 16  2  0  0  0  0
 21 18  2  0  0  0  0
 22 16  1  0  0  0  0
 23 19  1  0  0  0  0
 23 18  1  0  0  0  0
 24  2  1  0  0  0  0
 25 29  1  1  0  0  0
 25 27  1  0  0  0  0
 25 26  1  0  0  0  0
 27 26  1  0  0  0  0
 27 24  1  1  0  0  0
 28 30  1  0  0  0  0
 29 33  1  0  0  0  0
 30 29  2  0  0  0  0
 30 34  1  0  0  0  0
 31 32  1  0  0  0  0
 33 32  2  0  0  0  0
 34 31  2  0  0  0  0
M  END
>  <MODEL>
6

>  <REMARK>
 VINA RESULT:      -8.3      2.267      7.841
  Name = 
  4 active torsions:
  status: ('A' for Active; 'I' for Inactive)
    1  A    between atoms: C_3  and  C_13
    2  A    between atoms: C_4  and  C_15
    3  A    between atoms: N_5  and  C_18
    4  A    between atoms: C_18  and  C_29
                            x       y       z     vdW  Elec       q    Type
                         _______ _______ _______ _____ _____    ______ ____

>  <TORSDO>
F 4

$$$$
=
 OpenBabel11052414123D

 34 39  0  0  1  0  0  0  0  0999 V2000
  188.0060  178.2020  141.3290 C   0  0  0  0  0  0  0  0  0  0  0  0
  185.8380  178.6460  140.1420 N   0  0  0  0  0  0  0  0  0  0  0  0
  190.6210  176.0890  138.1260 C   0  0  0  0  0  0  0  0  0  0  0  0
  189.7720  175.0180  137.7130 N   0  0  0  0  0  2  0  0  0  0  0  0
  186.3110  179.6190  142.2310 O   0  0  0  0  0  0  0  0  0  0  0  0
  188.6600  177.7270  137.7480 C   0  0  1  0  0  3  0  0  0  0  0  0
  188.3400  175.2270  137.5810 C   0  0  0  0  0  2  0  0  0  0  0  0
  188.5400  177.9830  140.1190 C   0  0  0  0  0  0  0  0  0  0  0  0
  190.0520  177.4510  138.4110 C   0  0  1  0  0  3  0  0  0  0  0  0
  186.4960  178.3660  138.8970 C   0  0  0  0  0  3  0  0  0  0  0  0
  188.0960  176.5700  136.9080 C   0  0  0  0  0  2  0  0  0  0  0  0
  187.7820  178.0440  138.9080 C   0  0  0  0  0  0  0  0  0  0  0  0
  191.8550  175.8890  138.2630 O   0  0  0  0  0  0  0  0  0  0  0  0
  186.5150  178.4820  141.4450 C   0  0  0  0  0  0  0  0  0  0  0  0
  189.8810  177.6170  139.8560 N   0  0  0  0  0  2  0  0  0  0  0  0
  188.6020  176.9980  143.4720 C   0  0  0  0  0  0  0  0  0  0  0  0
  189.8340  178.9820  142.8100 C   0  0  0  0  0  3  0  0  0  0  0  0
  190.4010  177.8380  144.8630 C   0  0  0  0  0  3  0  0  0  0  0  0
  191.6050  179.7790  144.1900 F   0  0  0  0  0  0  0  0  0  0  0  0
  188.8110  178.0560  142.5610 C   0  0  0  0  0  0  0  0  0  0  0  0
  189.3970  176.8980  144.6180 C   0  0  0  0  0  3  0  0  0  0  0  0
  187.6190  175.9970  143.2240 N   0  0  0  0  0  1  0  0  0  0  0  0
  190.6230  178.8760  143.9580 C   0  0  0  0  0  0  0  0  0  0  0  0
  184.4060  178.9090  140.1270 C   0  0  0  0  0  2  0  0  0  0  0  0
  182.1430  177.6520  140.2930 C   0  0  1  0  0  3  0  0  0  0  0  0
  183.1770  176.8230  139.5450 C   0  0  0  0  0  2  0  0  0  0  0  0
  183.6300  177.7130  140.6830 C   0  0  1  0  0  3  0  0  0  0  0  0
  180.8050  179.8870  141.4610 F   0  0  0  0  0  0  0  0  0  0  0  0
  181.6470  178.8250  139.4810 C   0  0  0  0  0  0  0  0  0  0  0  0
  180.9780  179.8850  140.1160 C   0  0  0  0  0  0  0  0  0  0  0  0
  180.6460  180.9720  137.9750 C   0  0  0  0  0  3  0  0  0  0  0  0
  181.2970  179.9150  137.3360 C   0  0  0  0  0  3  0  0  0  0  0  0
  181.7890  178.8430  138.0840 C   0  0  0  0  0  3  0  0  0  0  0  0
  180.4850  180.9550  139.3630 C   0  0  0  0  0  3  0  0  0  0  0  0
  1 14  1  0  0  0  0
  1 20  1  0  0  0  0
  2 14  1  0  0  0  0
  3 13  2  0  0  0  0
  4  3  1  0  0  0  0
  6 11  1  1  0  0  0
  6  9  1  0  0  0  0
  6 12  1  0  0  0  0
  7  4  1  0  0  0  0
  8  1  2  0  0  0  0
  9  3  1  1  0  0  0
  9 15  1  0  0  0  0
 10 12  2  0  0  0  0
 10  2  1  0  0  0  0
 11  7  1  0  0  0  0
 12  8  1  0  0  0  0
 14  5  2  0  0  0  0
 15  8  1  0  0  0  0
 16 21  1  0  0  0  0
 17 23  2  0  0  0  0
 20 17  1  0  0  0  0
 20 16  2  0  0  0  0
 21 18  2  0  0  0  0
 22 16  1  0  0  0  0
 23 19  1  0  0  0  0
 23 18  1  0  0  0  0
 24  2  1  0  0  0  0
 25 29  1  6  0  0  0
 25 27  1  0  0  0  0
 26 25  1  0  0  0  0
 26 27  1  0  0  0  0
 27 24  1  6  0  0  0
 29 30  1  0  0  0  0
 30 28  1  0  0  0  0
 31 34  1  0  0  0  0
 32 31  2  0  0  0  0
 32 33  1  0  0  0  0
 33 29  2  0  0  0  0
 34 30  2  0  0  0  0
M  END
>  <MODEL>
7

>  <REMARK>
 VINA RESULT:      -8.2      2.828      8.099
  Name = 
  4 active torsions:
  status: ('A' for Active; 'I' for Inactive)
    1  A    between atoms: C_3  and  C_13
    2  A    between atoms: C_4  and  C_15
    3  A    between atoms: N_5  and  C_18
    4  A    between atoms: C_18  and  C_29
                            x       y       z     vdW  Elec       q    Type
                         _______ _______ _______ _____ _____    ______ ____

>  <TORSDO>
F 4

$$$$
=
 OpenBabel11052414123D

 34 39  0  0  1  0  0  0  0  0999 V2000
  188.5690  178.0650  141.2780 C   0  0  0  0  0  0  0  0  0  0  0  0
  186.4780  178.6280  140.0050 N   0  0  0  0  0  0  0  0  0  0  0  0
  191.1540  175.7340  138.2060 C   0  0  0  0  0  0  0  0  0  0  0  0
  190.2530  174.7130  137.7770 N   0  0  0  0  0  2  0  0  0  0  0  0
  186.9380  179.6030  142.0970 O   0  0  0  0  0  0  0  0  0  0  0  0
  189.3190  177.4890  137.7320 C   0  0  1  0  0  3  0  0  0  0  0  0
  188.8430  175.0120  137.5880 C   0  0  0  0  0  2  0  0  0  0  0  0
  189.1310  177.7920  140.0930 C   0  0  0  0  0  0  0  0  0  0  0  0
  190.6660  177.1340  138.4500 C   0  0  1  0  0  3  0  0  0  0  0  0
  187.1610  178.2850  138.7900 C   0  0  0  0  0  3  0  0  0  0  0  0
  188.7120  176.3560  136.8870 C   0  0  0  0  0  2  0  0  0  0  0  0
  188.4230  177.8810  138.8540 C   0  0  0  0  0  0  0  0  0  0  0  0
  192.3670  175.4570  138.3910 O   0  0  0  0  0  0  0  0  0  0  0  0
  187.0960  178.4420  141.3350 C   0  0  0  0  0  0  0  0  0  0  0  0
  190.4540  177.3350  139.8840 N   0  0  0  0  0  2  0  0  0  0  0  0
  188.9880  176.8790  143.4730 C   0  0  0  0  0  0  0  0  0  0  0  0
  190.4080  178.7300  142.8000 C   0  0  0  0  0  3  0  0  0  0  0  0
  190.8070  177.6040  144.9030 C   0  0  0  0  0  3  0  0  0  0  0  0
  192.1960  179.4130  144.2190 F   0  0  0  0  0  0  0  0  0  0  0  0
  189.3180  177.8880  142.5410 C   0  0  0  0  0  0  0  0  0  0  0  0
  189.7340  176.7470  144.6490 C   0  0  0  0  0  3  0  0  0  0  0  0
  187.9300  175.9600  143.2180 N   0  0  0  0  0  1  0  0  0  0  0  0
  191.1470  178.5910  143.9780 C   0  0  0  0  0  0  0  0  0  0  0  0
  185.0680  178.9820  139.9340 C   0  0  0  0  0  2  0  0  0  0  0  0
  183.0090  177.4040  139.9370 C   0  0  1  0  0  3  0  0  0  0  0  0
  182.9110  178.4300  138.8180 C   0  0  0  0  0  2  0  0  0  0  0  0
  184.2730  177.8950  139.2080 C   0  0  1  0  0  3  0  0  0  0  0  0
  180.5490  178.6460  140.6850 F   0  0  0  0  0  0  0  0  0  0  0  0
  182.7810  178.0130  141.2990 C   0  0  0  0  0  0  0  0  0  0  0  0
  181.5520  178.6280  141.5970 C   0  0  0  0  0  0  0  0  0  0  0  0
  182.3710  179.2230  143.7990 C   0  0  0  0  0  3  0  0  0  0  0  0
  183.5990  178.6280  143.5050 C   0  0  0  0  0  3  0  0  0  0  0  0
  183.8060  178.0320  142.2590 C   0  0  0  0  0  3  0  0  0  0  0  0
  181.3510  179.2250  142.8450 C   0  0  0  0  0  3  0  0  0  0  0  0
  1 14  1  0  0  0  0
  1 20  1  0  0  0  0
  2 14  1  0  0  0  0
  3 13  2  0  0  0  0
  4  3  1  0  0  0  0
  6 11  1  1  0  0  0
  6  9  1  0  0  0  0
  6 12  1  0  0  0  0
  7  4  1  0  0  0  0
  8  1  2  0  0  0  0
  9  3  1  1  0  0  0
  9 15  1  0  0  0  0
 10 12  2  0  0  0  0
 10  2  1  0  0  0  0
 11  7  1  0  0  0  0
 12  8  1  0  0  0  0
 14  5  2  0  0  0  0
 15  8  1  0  0  0  0
 16 21  1  0  0  0  0
 17 23  2  0  0  0  0
 20 17  1  0  0  0  0
 20 16  2  0  0  0  0
 21 18  2  0  0  0  0
 22 16  1  0  0  0  0
 23 19  1  0  0  0  0
 23 18  1  0  0  0  0
 24  2  1  0  0  0  0
 25 29  1  1  0  0  0
 26 27  1  0  0  0  0
 26 25  1  0  0  0  0
 27 24  1  1  0  0  0
 27 25  1  0  0  0  0
 28 30  1  0  0  0  0
 29 30  2  0  0  0  0
 29 33  1  0  0  0  0
 30 34  1  0  0  0  0
 32 31  1  0  0  0  0
 33 32  2  0  0  0  0
 34 31  2  0  0  0  0
M  END
>  <MODEL>
8

>  <REMARK>
 VINA RESULT:      -8.1      2.676      7.436
  Name = 
  4 active torsions:
  status: ('A' for Active; 'I' for Inactive)
    1  A    between atoms: C_3  and  C_13
    2  A    between atoms: C_4  and  C_15
    3  A    between atoms: N_5  and  C_18
    4  A    between atoms: C_18  and  C_29
                            x       y       z     vdW  Elec       q    Type
                         _______ _______ _______ _____ _____    ______ ____

>  <TORSDO>
F 4

$$$$
=
 OpenBabel11052414123D

 34 39  0  0  1  0  0  0  0  0999 V2000
  183.2530  177.5550  139.6180 C   0  0  0  0  0  0  0  0  0  0  0  0
  185.4100  177.6440  138.3350 N   0  0  0  0  0  0  0  0  0  0  0  0
  184.4720  178.7490  143.9370 C   0  0  0  0  0  0  0  0  0  0  0  0
  185.5310  177.8320  144.2080 N   0  0  0  0  0  2  0  0  0  0  0  0
  183.3390  177.4420  137.2370 O   0  0  0  0  0  0  0  0  0  0  0  0
  185.6450  179.3770  141.7230 C   0  0  1  0  0  3  0  0  0  0  0  0
  186.4810  177.4800  143.1660 C   0  0  0  0  0  2  0  0  0  0  0  0
  183.8780  178.2530  140.5760 C   0  0  0  0  0  0  0  0  0  0  0  0
  184.3330  179.3790  142.5800 C   0  0  1  0  0  3  0  0  0  0  0  0
  185.9970  178.3660  139.4290 C   0  0  0  0  0  3  0  0  0  0  0  0
  186.8680  178.7380  142.4030 C   0  0  0  0  0  2  0  0  0  0  0  0
  185.2520  178.6390  140.4910 C   0  0  0  0  0  0  0  0  0  0  0  0
  183.6400  179.0250  144.8390 O   0  0  0  0  0  0  0  0  0  0  0  0
  184.0380  177.0990  138.3970 C   0  0  0  0  0  0  0  0  0  0  0  0
  183.3150  178.6630  141.8090 N   0  0  0  0  0  2  0  0  0  0  0  0
  180.7630  178.0000  139.6330 C   0  0  0  0  0  0  0  0  0  0  0  0
  181.6010  175.7620  140.0610 C   0  0  0  0  0  3  0  0  0  0  0  0
  179.2190  176.1850  140.0830 C   0  0  0  0  0  3  0  0  0  0  0  0
  180.0610  173.9950  140.4900 F   0  0  0  0  0  0  0  0  0  0  0  0
  181.8510  177.1130  139.7820 C   0  0  0  0  0  0  0  0  0  0  0  0
  179.4550  177.5300  139.7880 C   0  0  0  0  0  3  0  0  0  0  0  0
  180.9700  179.3650  139.2820 N   0  0  0  0  0  1  0  0  0  0  0  0
  180.2910  175.3010  140.2160 C   0  0  0  0  0  0  0  0  0  0  0  0
  186.2600  177.2690  137.2140 C   0  0  0  0  0  2  0  0  0  0  0  0
  188.2330  178.7540  136.4190 C   0  0  1  0  0  3  0  0  0  0  0  0
  187.5360  178.0930  135.2400 C   0  0  0  0  0  2  0  0  0  0  0  0
  186.7140  178.5100  136.4410 C   0  0  1  0  0  3  0  0  0  0  0  0
  189.0570  179.2760  139.1020 F   0  0  0  0  0  0  0  0  0  0  0  0
  189.0490  177.7760  137.2290 C   0  0  0  0  0  0  0  0  0  0  0  0
  189.4400  178.1030  138.5390 C   0  0  0  0  0  0  0  0  0  0  0  0
  190.6370  176.0040  138.7190 C   0  0  0  0  0  3  0  0  0  0  0  0
  190.2650  175.6780  137.4130 C   0  0  0  0  0  3  0  0  0  0  0  0
  189.4810  176.5630  136.6680 C   0  0  0  0  0  3  0  0  0  0  0  0
  190.2260  177.2160  139.2790 C   0  0  0  0  0  3  0  0  0  0  0  0
  1 20  1  0  0  0  0
  1  8  2  0  0  0  0
  2 14  1  0  0  0  0
  2 10  1  0  0  0  0
  3  4  1  0  0  0  0
  3 13  2  0  0  0  0
  5 14  2  0  0  0  0
  6 11  1  1  0  0  0
  6  9  1  0  0  0  0
  7  4  1  0  0  0  0
  8 15  1  0  0  0  0
  9 15  1  6  0  0  0
  9  3  1  0  0  0  0
 10 12  2  0  0  0  0
 11  7  1  0  0  0  0
 12  8  1  0  0  0  0
 12  6  1  0  0  0  0
 14  1  1  0  0  0  0
 16 20  2  0  0  0  0
 16 21  1  0  0  0  0
 17 23  2  0  0  0  0
 18 23  1  0  0  0  0
 20 17  1  0  0  0  0
 21 18  2  0  0  0  0
 22 16  1  0  0  0  0
 23 19  1  0  0  0  0
 24  2  1  0  0  0  0
 25 27  1  0  0  0  0
 25 29  1  1  0  0  0
 26 25  1  0  0  0  0
 26 27  1  0  0  0  0
 27 24  1  1  0  0  0
 29 30  1  0  0  0  0
 30 28  1  0  0  0  0
 30 34  2  0  0  0  0
 31 34  1  0  0  0  0
 32 31  2  0  0  0  0
 33 29  2  0  0  0  0
 33 32  1  0  0  0  0
M  END
>  <MODEL>
9

>  <REMARK>
 VINA RESULT:      -7.5      3.472      6.971
  Name = 
  4 active torsions:
  status: ('A' for Active; 'I' for Inactive)
    1  A    between atoms: C_3  and  C_13
    2  A    between atoms: C_4  and  C_15
    3  A    between atoms: N_5  and  C_18
    4  A    between atoms: C_18  and  C_29
                            x       y       z     vdW  Elec       q    Type
                         _______ _______ _______ _____ _____    ______ ____

>  <TORSDO>
F 4

$$$$
