=
 OpenBabel11052415033D

 55 60  0  0  1  0  0  0  0  0999 V2000
  190.0150  176.9520  138.8400 C   0  0  0  0  0  2  0  0  0  0  0  0
  185.1440  178.5880  137.8130 C   0  0  0  0  0  2  0  0  0  0  0  0
  185.7070  177.9020  135.0630 F   0  0  0  0  0  0  0  0  0  0  0  0
  186.2670  173.9480  135.5190 C   0  0  0  0  0  3  0  0  0  0  0  0
  185.7780  172.6970  135.5400 C   0  0  0  0  0  3  0  0  0  0  0  0
  188.4310  173.0960  136.4980 C   0  0  2  0  0  3  0  0  0  0  0  0
  188.1210  171.7770  135.8060 C   0  0  0  0  0  2  0  0  0  0  0  0
  187.5910  176.6930  135.6480 N   0  0  0  0  0  2  0  0  0  0  0  0
  186.6190  171.4950  135.9010 C   0  0  0  0  0  2  0  0  0  0  0  0
  190.6710  177.2210  141.2360 C   0  0  0  0  0  3  0  0  0  0  0  0
  187.7300  174.2380  135.7430 C   0  0  2  0  0  3  0  0  0  0  0  0
  188.0280  177.8290  141.9430 C   0  0  0  0  0  0  0  0  0  0  0  0
  189.4340  175.6890  138.4210 N   0  0  0  0  0  2  0  0  0  0  0  0
  188.3490  177.5250  140.6140 C   0  0  0  0  0  3  0  0  0  0  0  0
  190.3300  174.6590  136.3570 C   0  0  1  0  0  3  0  0  0  0  0  0
  185.3100  179.4010  139.0880 C   0  0  0  0  0  2  0  0  0  0  0  0
  189.8860  173.2810  136.6210 N   0  0  0  0  0  2  0  0  0  0  0  0
  186.4940  178.1260  137.3000 C   0  0  0  0  0  2  0  0  0  0  0  0
  186.3050  177.2060  136.1000 C   0  0  1  0  0  3  0  0  0  0  0  0
  190.3490  177.5080  142.5670 C   0  0  0  0  0  3  0  0  0  0  0  0
  185.2100  178.5090  140.3190 C   0  0  1  0  0  3  0  0  0  0  0  0
  189.6700  177.2280  140.2600 C   0  0  0  0  0  0  0  0  0  0  0  0
  187.9450  175.5590  136.4910 C   0  0  1  0  0  3  0  0  0  0  0  0
  189.3940  175.7210  136.9680 C   0  0  1  0  0  3  0  0  0  0  0  0
  185.9790  179.1770  141.4520 C   0  0  0  0  0  2  0  0  0  0  0  0
  186.6180  178.1240  142.3480 C   0  0  0  0  0  2  0  0  0  0  0  0
  189.0290  177.8110  142.9190 C   0  0  0  0  0  3  0  0  0  0  0  0
  192.4710  176.1160  136.4280 C   0  0  0  0  0  3  0  0  0  0  0  0
  194.6150  174.9180  136.7640 C   0  0  1  0  0  3  0  0  0  0  0  0
  192.4220  173.8570  137.3450 C   0  0  0  0  0  3  0  0  0  0  0  0
  193.8510  174.0420  137.7770 C   0  0  0  0  0  2  0  0  0  0  0  0
  193.8060  176.1660  136.4720 C   0  0  0  0  0  3  0  0  0  0  0  0
  191.7590  174.8590  136.7580 C   0  0  0  0  0  0  0  0  0  0  0  0
  195.9590  175.2600  137.2570 N   0  0  0  0  0  0  0  0  0  0  0  0
  196.3160  174.3290  138.3180 C   0  0  0  0  0  1  0  0  0  0  0  0
  196.9220  175.0030  136.1950 C   0  0  0  0  0  1  0  0  0  0  0  0
  183.5990  178.4530  142.1050 O   0  0  0  0  0  1  0  0  0  0  0  0
  183.7420  178.3020  140.7250 C   0  0  2  0  0  3  0  0  0  0  0  0
  183.3030  177.0210  140.3610 O   0  0  0  0  0  0  0  0  0  0  0  0
  181.3000  176.1020  139.1000 C   0  0  2  0  0  0  0  0  0  0  0  0
  183.4620  175.3150  138.4020 F   0  0  0  0  0  0  0  0  0  0  0  0
  182.4970  176.2830  138.1610 C   0  0  2  0  0  3  0  0  0  0  0  0
  182.3230  177.2010  139.3680 C   0  0  2  0  0  0  0  0  0  0  0  0
  182.0320  178.5150  138.9920 O   0  0  0  0  0  1  0  0  0  0  0  0
  181.3890  175.0030  139.9580 O   0  0  0  0  0  1  0  0  0  0  0  0
  179.8780  176.5020  138.6360 C   0  0  1  0  0  3  0  0  0  0  0  0
  179.0670  175.3560  138.0140 C   0  0  2  0  0  3  0  0  0  0  0  0
  178.9310  174.1950  138.9840 C   0  0  0  0  0  1  0  0  0  0  0  0
  179.6830  174.8990  136.8610 F   0  0  0  0  0  0  0  0  0  0  0  0
  179.1160  178.7380  139.1590 O   0  0  0  0  0  1  0  0  0  0  0  0
  179.0590  177.4060  139.5750 C   0  0  2  0  0  3  0  0  0  0  0  0
  179.9250  178.3810  141.7580 N   0  0  0  0  0  2  0  0  0  0  0  0
  180.3450  178.2650  143.1440 C   0  0  0  0  0  1  0  0  0  0  0  0
  179.4030  177.2680  141.0300 C   0  0  0  0  0  0  0  0  0  0  0  0
  179.2350  176.1570  141.6030 O   0  0  0  0  0  0  0  0  0  0  0  0
  1 22  1  0  0  0  0
  2 16  1  0  0  0  0
  4  5  2  0  0  0  0
  5  9  1  0  0  0  0
  6  7  1  6  0  0  0
  6 17  1  0  0  0  0
  7  9  1  0  0  0  0
  8 19  1  0  0  0  0
 10 20  1  0  0  0  0
 11  4  1  1  0  0  0
 11 23  1  0  0  0  0
 11  6  1  0  0  0  0
 12 26  1  0  0  0  0
 12 27  1  0  0  0  0
 13  1  1  0  0  0  0
 14 12  2  0  0  0  0
 15 17  1  0  0  0  0
 15 33  1  1  0  0  0
 15 24  1  0  0  0  0
 16 21  1  0  0  0  0
 18  2  1  0  0  0  0
 19  3  1  6  0  0  0
 19 18  1  0  0  0  0
 20 27  2  0  0  0  0
 21 38  1  1  0  0  0
 21 25  1  0  0  0  0
 22 14  1  0  0  0  0
 22 10  2  0  0  0  0
 23  8  1  6  0  0  0
 23 24  1  0  0  0  0
 24 13  1  1  0  0  0
 25 26  1  0  0  0  0
 28 32  2  0  0  0  0
 28 33  1  0  0  0  0
 29 34  1  1  0  0  0
 29 31  1  0  0  0  0
 30 31  1  0  0  0  0
 32 29  1  0  0  0  0
 33 30  2  0  0  0  0
 34 35  1  0  0  0  0
 36 34  1  0  0  0  0
 38 37  1  1  0  0  0
 39 38  1  0  0  0  0
 40 43  1  0  0  0  0
 40 45  1  1  0  0  0
 42 41  1  1  0  0  0
 42 40  1  0  0  0  0
 42 43  1  0  0  0  0
 43 44  1  6  0  0  0
 43 39  1  0  0  0  0
 46 47  1  1  0  0  0
 46 40  1  0  0  0  0
 46 51  1  0  0  0  0
 47 48  1  1  0  0  0
 49 47  1  0  0  0  0
 51 50  1  6  0  0  0
 51 54  1  0  0  0  0
 52 53  1  0  0  0  0
 54 55  2  0  0  0  0
 54 52  1  0  0  0  0
M  END
>  <MODEL>
1

>  <REMARK>
 VINA RESULT:      -7.4      0.000      0.000
  Name = 
  9 active torsions:
  status: ('A' for Active; 'I' for Inactive)
    1  A    between atoms: C_1  and  C_53
    2  A    between atoms: C_6  and  C_53
    3  A    between atoms: C_8  and  O_22
    4  A    between atoms: C_8  and  C_43
    5  A    between atoms: N_10  and  C_32
    6  A    between atoms: C_20  and  O_22
    7  A    between atoms: C_29  and  C_38
    8  A    between atoms: C_33  and  C_52
    9  A    between atoms: C_38  and  C_53
                            x       y       z     vdW  Elec       q    Type
                         _______ _______ _______ _____ _____    ______ ____

>  <TORSDO>
F 9

$$$$
=
 OpenBabel11052415033D

 55 60  0  0  1  0  0  0  0  0999 V2000
  190.5960  176.7270  138.2000 C   0  0  0  0  0  2  0  0  0  0  0  0
  185.6580  178.4530  137.8910 C   0  0  0  0  0  2  0  0  0  0  0  0
  185.7880  177.7200  135.0990 F   0  0  0  0  0  0  0  0  0  0  0  0
  186.3350  173.7610  135.5270 C   0  0  0  0  0  3  0  0  0  0  0  0
  185.8310  172.5210  135.6410 C   0  0  0  0  0  3  0  0  0  0  0  0
  188.6040  172.8770  136.1830 C   0  0  2  0  0  3  0  0  0  0  0  0
  188.1690  171.5560  135.5660 C   0  0  0  0  0  2  0  0  0  0  0  0
  187.7150  176.4800  135.4130 N   0  0  0  0  0  2  0  0  0  0  0  0
  186.6930  171.3070  135.8900 C   0  0  0  0  0  2  0  0  0  0  0  0
  191.6100  177.0120  140.4650 C   0  0  0  0  0  3  0  0  0  0  0  0
  187.8200  174.0230  135.5240 C   0  0  2  0  0  3  0  0  0  0  0  0
  189.1160  177.6860  141.5520 C   0  0  0  0  0  0  0  0  0  0  0  0
  189.9350  175.4720  137.8920 N   0  0  0  0  0  2  0  0  0  0  0  0
  189.2280  177.3570  140.1950 C   0  0  0  0  0  3  0  0  0  0  0  0
  190.4900  174.3970  135.7340 C   0  0  1  0  0  3  0  0  0  0  0  0
  186.0290  179.2780  139.1140 C   0  0  0  0  0  2  0  0  0  0  0  0
  190.0650  173.0320  136.0830 N   0  0  0  0  0  2  0  0  0  0  0  0
  186.9070  177.9560  137.1880 C   0  0  0  0  0  2  0  0  0  0  0  0
  186.5220  177.0250  136.0450 C   0  0  1  0  0  3  0  0  0  0  0  0
  191.4980  177.3230  141.8240 C   0  0  0  0  0  3  0  0  0  0  0  0
  186.0990  178.4040  140.3590 C   0  0  1  0  0  3  0  0  0  0  0  0
  190.4740  177.0290  139.6500 C   0  0  0  0  0  0  0  0  0  0  0  0
  188.1700  175.3490  136.2100 C   0  0  1  0  0  3  0  0  0  0  0  0
  189.6770  175.4860  136.4610 C   0  0  1  0  0  3  0  0  0  0  0  0
  187.0430  179.0700  141.3530 C   0  0  0  0  0  2  0  0  0  0  0  0
  187.7900  178.0150  142.1590 C   0  0  0  0  0  2  0  0  0  0  0  0
  190.2530  177.6580  142.3660 C   0  0  0  0  0  3  0  0  0  0  0  0
  192.7390  173.6640  136.7900 C   0  0  0  0  0  3  0  0  0  0  0  0
  194.5280  175.3770  136.8880 C   0  0  1  0  0  3  0  0  0  0  0  0
  192.5770  175.6130  135.3340 C   0  0  0  0  0  3  0  0  0  0  0  0
  194.0640  175.7960  135.4790 C   0  0  0  0  0  2  0  0  0  0  0  0
  193.9560  174.0120  137.2160 C   0  0  0  0  0  3  0  0  0  0  0  0
  191.9670  174.5720  135.9110 C   0  0  0  0  0  0  0  0  0  0  0  0
  195.9960  175.3780  136.9930 N   0  0  0  0  0  0  0  0  0  0  0  0
  196.4280  174.0770  137.4850 C   0  0  0  0  0  1  0  0  0  0  0  0
  196.5560  175.4760  135.6530 C   0  0  0  0  0  1  0  0  0  0  0  0
  184.8220  177.8780  142.3290 O   0  0  0  0  0  1  0  0  0  0  0  0
  184.7060  178.2330  140.9850 C   0  0  2  0  0  3  0  0  0  0  0  0
  183.9800  177.2390  140.3140 O   0  0  0  0  0  0  0  0  0  0  0  0
  181.5120  176.9970  139.7640 C   0  0  2  0  0  0  0  0  0  0  0  0
  183.0650  176.2930  138.0680 F   0  0  0  0  0  0  0  0  0  0  0  0
  182.3140  177.3720  138.5130 C   0  0  2  0  0  3  0  0  0  0  0  0
  182.7790  177.8370  139.8900 C   0  0  2  0  0  0  0  0  0  0  0  0
  182.6700  179.2220  140.0420 O   0  0  0  0  0  1  0  0  0  0  0  0
  181.6540  175.6680  140.1730 O   0  0  0  0  0  1  0  0  0  0  0  0
  180.1420  177.6630  140.0410 C   0  0  1  0  0  3  0  0  0  0  0  0
  178.9320  176.8460  139.5640 C   0  0  2  0  0  3  0  0  0  0  0  0
  178.9310  175.4610  140.1850 C   0  0  0  0  0  1  0  0  0  0  0  0
  178.9510  176.7140  138.1860 F   0  0  0  0  0  0  0  0  0  0  0  0
  178.9330  177.6830  142.1360 O   0  0  0  0  0  1  0  0  0  0  0  0
  179.9450  178.3220  141.4170 C   0  0  2  0  0  3  0  0  0  0  0  0
  179.1860  180.4260  140.2060 N   0  0  0  0  0  2  0  0  0  0  0  0
  179.0430  181.8670  140.0930 C   0  0  0  0  0  1  0  0  0  0  0  0
  179.7350  179.8080  141.3720 C   0  0  0  0  0  0  0  0  0  0  0  0
  180.0540  180.5090  142.3710 O   0  0  0  0  0  0  0  0  0  0  0  0
  1 22  1  0  0  0  0
  2 16  1  0  0  0  0
  4  5  2  0  0  0  0
  5  9  1  0  0  0  0
  6  7  1  6  0  0  0
  7  9  1  0  0  0  0
  8 19  1  0  0  0  0
 10 20  1  0  0  0  0
 11  4  1  1  0  0  0
 11  6  1  0  0  0  0
 11 23  1  0  0  0  0
 12 26  1  0  0  0  0
 12 27  1  0  0  0  0
 13  1  1  0  0  0  0
 14 12  2  0  0  0  0
 15 33  1  1  0  0  0
 15 17  1  0  0  0  0
 15 24  1  0  0  0  0
 16 21  1  0  0  0  0
 17  6  1  0  0  0  0
 18  2  1  0  0  0  0
 19  3  1  6  0  0  0
 19 18  1  0  0  0  0
 20 27  2  0  0  0  0
 21 38  1  1  0  0  0
 21 25  1  0  0  0  0
 22 14  1  0  0  0  0
 22 10  2  0  0  0  0
 23  8  1  6  0  0  0
 23 24  1  0  0  0  0
 24 13  1  1  0  0  0
 25 26  1  0  0  0  0
 28 32  2  0  0  0  0
 29 34  1  6  0  0  0
 29 32  1  0  0  0  0
 30 31  1  0  0  0  0
 30 33  2  0  0  0  0
 31 29  1  0  0  0  0
 33 28  1  0  0  0  0
 34 35  1  0  0  0  0
 36 34  1  0  0  0  0
 38 37  1  1  0  0  0
 39 38  1  0  0  0  0
 40 43  1  0  0  0  0
 40 46  1  0  0  0  0
 40 45  1  1  0  0  0
 42 41  1  1  0  0  0
 42 40  1  0  0  0  0
 42 43  1  0  0  0  0
 43 44  1  1  0  0  0
 43 39  1  0  0  0  0
 46 47  1  1  0  0  0
 46 51  1  0  0  0  0
 47 48  1  1  0  0  0
 49 47  1  0  0  0  0
 51 50  1  6  0  0  0
 52 54  1  0  0  0  0
 53 52  1  0  0  0  0
 54 51  1  0  0  0  0
 54 55  2  0  0  0  0
M  END
>  <MODEL>
2

>  <REMARK>
 VINA RESULT:      -6.6      1.275      1.632
  Name = 
  9 active torsions:
  status: ('A' for Active; 'I' for Inactive)
    1  A    between atoms: C_1  and  C_53
    2  A    between atoms: C_6  and  C_53
    3  A    between atoms: C_8  and  O_22
    4  A    between atoms: C_8  and  C_43
    5  A    between atoms: N_10  and  C_32
    6  A    between atoms: C_20  and  O_22
    7  A    between atoms: C_29  and  C_38
    8  A    between atoms: C_33  and  C_52
    9  A    between atoms: C_38  and  C_53
                            x       y       z     vdW  Elec       q    Type
                         _______ _______ _______ _____ _____    ______ ____

>  <TORSDO>
F 9

$$$$
=
 OpenBabel11052415033D

 55 60  0  0  1  0  0  0  0  0999 V2000
  190.1270  176.9160  139.0060 C   0  0  0  0  0  2  0  0  0  0  0  0
  185.2840  178.6370  137.9810 C   0  0  0  0  0  2  0  0  0  0  0  0
  185.8500  177.9790  135.2240 F   0  0  0  0  0  0  0  0  0  0  0  0
  186.3510  174.0110  135.6290 C   0  0  0  0  0  3  0  0  0  0  0  0
  185.8440  172.7680  135.6310 C   0  0  0  0  0  3  0  0  0  0  0  0
  188.4970  173.1160  136.6050 C   0  0  2  0  0  3  0  0  0  0  0  0
  188.1720  171.8100  135.8940 C   0  0  0  0  0  2  0  0  0  0  0  0
  187.7140  176.7350  135.8000 N   0  0  0  0  0  2  0  0  0  0  0  0
  186.6660  171.5490  135.9790 C   0  0  0  0  0  2  0  0  0  0  0  0
  190.7760  177.1430  141.4080 C   0  0  0  0  0  3  0  0  0  0  0  0
  187.8170  174.2770  135.8620 C   0  0  2  0  0  3  0  0  0  0  0  0
  188.1390  177.7800  142.1120 C   0  0  0  0  0  0  0  0  0  0  0  0
  189.5300  175.6670  138.5670 N   0  0  0  0  0  2  0  0  0  0  0  0
  188.4620  177.4890  140.7800 C   0  0  0  0  0  3  0  0  0  0  0  0
  190.4200  174.6520  136.4930 C   0  0  1  0  0  3  0  0  0  0  0  0
  185.4570  179.4290  139.2670 C   0  0  0  0  0  2  0  0  0  0  0  0
  189.9550  173.2770  136.7370 N   0  0  0  0  0  2  0  0  0  0  0  0
  186.6300  178.1620  137.4670 C   0  0  0  0  0  2  0  0  0  0  0  0
  186.4340  177.2600  136.2540 C   0  0  1  0  0  3  0  0  0  0  0  0
  190.4530  177.4170  142.7410 C   0  0  0  0  0  3  0  0  0  0  0  0
  185.3380  178.5220  140.4850 C   0  0  1  0  0  3  0  0  0  0  0  0
  189.7800  177.1780  140.4270 C   0  0  0  0  0  0  0  0  0  0  0  0
  188.0480  175.5850  136.6290 C   0  0  1  0  0  3  0  0  0  0  0  0
  189.4970  175.7190  137.1140 C   0  0  1  0  0  3  0  0  0  0  0  0
  186.1130  179.1640  141.6300 C   0  0  0  0  0  2  0  0  0  0  0  0
  186.7320  178.0900  142.5150 C   0  0  0  0  0  2  0  0  0  0  0  0
  189.1360  177.7340  143.0910 C   0  0  0  0  0  3  0  0  0  0  0  0
  192.5140  176.1460  136.7980 C   0  0  0  0  0  3  0  0  0  0  0  0
  194.7020  174.9840  136.8770 C   0  0  1  0  0  3  0  0  0  0  0  0
  192.5560  173.7580  137.2860 C   0  0  0  0  0  3  0  0  0  0  0  0
  193.9880  173.9110  137.7240 C   0  0  0  0  0  2  0  0  0  0  0  0
  193.8470  176.2340  136.8310 C   0  0  0  0  0  3  0  0  0  0  0  0
  191.8500  174.8260  136.9020 C   0  0  0  0  0  0  0  0  0  0  0  0
  196.0450  175.2770  137.4040 N   0  0  0  0  0  0  0  0  0  0  0  0
  196.2100  174.5790  138.6710 C   0  0  0  0  0  1  0  0  0  0  0  0
  197.0320  174.6800  136.5160 C   0  0  0  0  0  1  0  0  0  0  0  0
  183.4320  177.0540  140.5270 O   0  0  0  0  0  1  0  0  0  0  0  0
  183.8660  178.3320  140.8830 C   0  0  2  0  0  3  0  0  0  0  0  0
  183.0540  179.2810  140.2440 O   0  0  0  0  0  0  0  0  0  0  0  0
  181.2020  178.4350  138.7280 C   0  0  2  0  0  0  0  0  0  0  0  0
  181.3040  180.8120  139.0750 F   0  0  0  0  0  0  0  0  0  0  0  0
  180.7280  179.6410  139.5450 C   0  0  2  0  0  3  0  0  0  0  0  0
  181.7820  178.6950  140.1140 C   0  0  2  0  0  0  0  0  0  0  0  0
  181.3010  177.9680  141.2060 O   0  0  0  0  0  1  0  0  0  0  0  0
  182.0610  178.7460  137.6710 O   0  0  0  0  0  1  0  0  0  0  0  0
  180.2700  177.2150  138.5240 C   0  0  1  0  0  3  0  0  0  0  0  0
  179.0920  177.4680  137.5710 C   0  0  2  0  0  3  0  0  0  0  0  0
  178.9310  176.3230  136.5880 C   0  0  0  0  0  1  0  0  0  0  0  0
  179.2900  178.6390  136.8590 F   0  0  0  0  0  0  0  0  0  0  0  0
  181.2080  175.2470  139.5720 O   0  0  0  0  0  1  0  0  0  0  0  0
  180.9380  175.8410  138.3370 C   0  0  2  0  0  3  0  0  0  0  0  0
  182.0180  175.9940  136.0400 N   0  0  0  0  0  2  0  0  0  0  0  0
  183.1620  175.9310  135.1480 C   0  0  0  0  0  1  0  0  0  0  0  0
  182.1530  175.8550  137.4550 C   0  0  0  0  0  0  0  0  0  0  0  0
  183.2960  175.7340  137.9750 O   0  0  0  0  0  0  0  0  0  0  0  0
  1 22  1  0  0  0  0
  2 16  1  0  0  0  0
  4  5  2  0  0  0  0
  5  9  1  0  0  0  0
  6  7  1  6  0  0  0
  6 17  1  0  0  0  0
  7  9  1  0  0  0  0
  8 19  1  0  0  0  0
 10 20  1  0  0  0  0
 11  4  1  1  0  0  0
 11  6  1  0  0  0  0
 11 23  1  0  0  0  0
 12 26  1  0  0  0  0
 12 27  1  0  0  0  0
 13  1  1  0  0  0  0
 14 12  2  0  0  0  0
 15 17  1  0  0  0  0
 15 33  1  1  0  0  0
 15 24  1  0  0  0  0
 16 21  1  0  0  0  0
 18  2  1  0  0  0  0
 19  3  1  6  0  0  0
 19 18  1  0  0  0  0
 20 27  2  0  0  0  0
 21 38  1  1  0  0  0
 21 25  1  0  0  0  0
 22 14  1  0  0  0  0
 22 10  2  0  0  0  0
 23  8  1  6  0  0  0
 23 24  1  0  0  0  0
 24 13  1  1  0  0  0
 25 26  1  0  0  0  0
 28 32  2  0  0  0  0
 28 33  1  0  0  0  0
 29 34  1  1  0  0  0
 29 31  1  0  0  0  0
 30 31  1  0  0  0  0
 32 29  1  0  0  0  0
 33 30  2  0  0  0  0
 34 35  1  0  0  0  0
 36 34  1  0  0  0  0
 38 37  1  6  0  0  0
 39 38  1  0  0  0  0
 40 45  1  6  0  0  0
 40 42  1  0  0  0  0
 40 43  1  0  0  0  0
 42 41  1  6  0  0  0
 42 43  1  0  0  0  0
 43 39  1  0  0  0  0
 43 44  1  1  0  0  0
 46 47  1  6  0  0  0
 46 40  1  0  0  0  0
 47 48  1  6  0  0  0
 49 47  1  0  0  0  0
 51 46  1  0  0  0  0
 51 50  1  1  0  0  0
 52 54  1  0  0  0  0
 53 52  1  0  0  0  0
 54 55  2  0  0  0  0
 54 51  1  0  0  0  0
M  END
>  <MODEL>
3

>  <REMARK>
 VINA RESULT:      -6.5      1.607      2.425
  Name = 
  9 active torsions:
  status: ('A' for Active; 'I' for Inactive)
    1  A    between atoms: C_1  and  C_53
    2  A    between atoms: C_6  and  C_53
    3  A    between atoms: C_8  and  O_22
    4  A    between atoms: C_8  and  C_43
    5  A    between atoms: N_10  and  C_32
    6  A    between atoms: C_20  and  O_22
    7  A    between atoms: C_29  and  C_38
    8  A    between atoms: C_33  and  C_52
    9  A    between atoms: C_38  and  C_53
                            x       y       z     vdW  Elec       q    Type
                         _______ _______ _______ _____ _____    ______ ____

>  <TORSDO>
F 9

$$$$
=
 OpenBabel11052415033D

 55 60  0  0  1  0  0  0  0  0999 V2000
  184.4360  176.9110  137.5250 C   0  0  0  0  0  2  0  0  0  0  0  0
  189.3540  176.6340  135.7360 C   0  0  0  0  0  2  0  0  0  0  0  0
  189.7210  179.2420  136.9250 F   0  0  0  0  0  0  0  0  0  0  0  0
  189.1000  178.2580  140.7720 C   0  0  0  0  0  3  0  0  0  0  0  0
  189.5730  177.8510  141.9610 C   0  0  0  0  0  3  0  0  0  0  0  0
  186.7480  177.8710  141.5990 C   0  0  2  0  0  3  0  0  0  0  0  0
  187.2840  178.1720  142.9910 C   0  0  0  0  0  2  0  0  0  0  0  0
  187.7670  179.0680  138.1500 N   0  0  0  0  0  2  0  0  0  0  0  0
  188.6780  177.5560  143.1410 C   0  0  0  0  0  2  0  0  0  0  0  0
  183.0360  174.9400  136.8980 C   0  0  0  0  0  3  0  0  0  0  0  0
  187.6390  178.5660  140.5560 C   0  0  2  0  0  3  0  0  0  0  0  0
  185.2990  173.5610  135.9840 C   0  0  0  0  0  0  0  0  0  0  0  0
  185.1400  176.8830  138.7960 N   0  0  0  0  0  2  0  0  0  0  0  0
  185.4290  174.8420  136.5350 C   0  0  0  0  0  3  0  0  0  0  0  0
  184.9750  178.8940  140.2280 C   0  0  1  0  0  3  0  0  0  0  0  0
  188.7730  175.6520  134.7310 C   0  0  0  0  0  2  0  0  0  0  0  0
  185.3290  178.2510  141.5040 N   0  0  0  0  0  2  0  0  0  0  0  0
  188.2490  177.4520  136.3780 C   0  0  0  0  0  2  0  0  0  0  0  0
  188.8300  178.3370  137.4740 C   0  0  1  0  0  3  0  0  0  0  0  0
  182.9050  173.6540  136.3630 C   0  0  0  0  0  3  0  0  0  0  0  0
  188.4810  174.3090  135.3890 C   0  0  1  0  0  3  0  0  0  0  0  0
  184.2990  175.5340  136.9850 C   0  0  0  0  0  0  0  0  0  0  0  0
  187.1750  178.1840  139.1450 C   0  0  1  0  0  3  0  0  0  0  0  0
  185.6480  178.2280  139.0110 C   0  0  1  0  0  3  0  0  0  0  0  0
  187.3760  173.6230  134.5940 C   0  0  0  0  0  2  0  0  0  0  0  0
  186.4970  172.7940  135.5210 C   0  0  0  0  0  2  0  0  0  0  0  0
  184.0350  172.9660  135.9080 C   0  0  0  0  0  3  0  0  0  0  0  0
  182.9060  179.8080  138.9650 C   0  0  0  0  0  3  0  0  0  0  0  0
  180.7820  179.9030  140.2400 C   0  0  1  0  0  3  0  0  0  0  0  0
  182.6880  178.4550  140.9810 C   0  0  0  0  0  3  0  0  0  0  0  0
  181.1920  178.5380  140.8290 C   0  0  0  0  0  2  0  0  0  0  0  0
  181.6270  180.1920  139.0150 C   0  0  0  0  0  3  0  0  0  0  0  0
  183.4910  179.0100  140.0670 C   0  0  0  0  0  0  0  0  0  0  0  0
  179.3470  179.9380  139.9160 N   0  0  0  0  0  0  0  0  0  0  0  0
  179.1570  180.7680  138.7350 C   0  0  0  0  0  1  0  0  0  0  0  0
  178.9310  178.6040  139.5070 C   0  0  0  0  0  1  0  0  0  0  0  0
  189.3930  172.0970  135.6430 O   0  0  0  0  0  1  0  0  0  0  0  0
  189.7400  173.4290  135.4130 C   0  0  2  0  0  3  0  0  0  0  0  0
  190.6190  173.8490  136.4230 O   0  0  0  0  0  0  0  0  0  0  0  0
  193.1200  174.2140  136.6600 C   0  0  2  0  0  0  0  0  0  0  0  0
  191.8760  175.9690  135.5850 F   0  0  0  0  0  0  0  0  0  0  0  0
  192.6050  174.8130  135.3470 C   0  0  2  0  0  3  0  0  0  0  0  0
  191.9200  173.5920  135.9540 C   0  0  2  0  0  0  0  0  0  0  0  0
  192.1010  172.4460  135.1760 O   0  0  0  0  0  1  0  0  0  0  0  0
  192.8030  174.9520  137.8030 O   0  0  0  0  0  1  0  0  0  0  0  0
  194.4570  173.4340  136.6900 C   0  0  1  0  0  3  0  0  0  0  0  0
  195.7050  174.3180  136.8250 C   0  0  2  0  0  3  0  0  0  0  0  0
  195.6680  175.4680  135.8340 C   0  0  0  0  0  1  0  0  0  0  0  0
  196.8510  173.5750  136.5990 F   0  0  0  0  0  0  0  0  0  0  0  0
  195.1600  172.3860  138.7550 O   0  0  0  0  0  1  0  0  0  0  0  0
  194.5060  172.1530  137.5430 C   0  0  2  0  0  3  0  0  0  0  0  0
  194.9130  170.8100  135.4210 N   0  0  0  0  0  2  0  0  0  0  0  0
  195.3720  169.6280  134.7130 C   0  0  0  0  0  1  0  0  0  0  0  0
  195.0680  170.9540  136.8340 C   0  0  0  0  0  0  0  0  0  0  0  0
  195.6720  170.0700  137.5000 O   0  0  0  0  0  0  0  0  0  0  0  0
  1 13  1  0  0  0  0
  2 18  1  0  0  0  0
  4  5  2  0  0  0  0
  5  9  1  0  0  0  0
  6  7  1  1  0  0  0
  7  9  1  0  0  0  0
 10 22  1  0  0  0  0
 11  4  1  1  0  0  0
 11  6  1  0  0  0  0
 12 14  1  0  0  0  0
 14 22  2  0  0  0  0
 15 33  1  6  0  0  0
 15 17  1  0  0  0  0
 16 21  1  0  0  0  0
 16  2  1  0  0  0  0
 17  6  1  0  0  0  0
 18 19  1  0  0  0  0
 19  3  1  6  0  0  0
 19  8  1  0  0  0  0
 20 10  2  0  0  0  0
 21 38  1  6  0  0  0
 22  1  1  0  0  0  0
 23  8  1  6  0  0  0
 23 11  1  0  0  0  0
 24 13  1  1  0  0  0
 24 23  1  0  0  0  0
 24 15  1  0  0  0  0
 25 21  1  0  0  0  0
 25 26  1  0  0  0  0
 26 12  1  0  0  0  0
 27 12  2  0  0  0  0
 27 20  1  0  0  0  0
 28 32  2  0  0  0  0
 28 33  1  0  0  0  0
 29 34  1  6  0  0  0
 29 31  1  0  0  0  0
 31 30  1  0  0  0  0
 32 29  1  0  0  0  0
 33 30  2  0  0  0  0
 35 34  1  0  0  0  0
 36 34  1  0  0  0  0
 38 37  1  1  0  0  0
 38 39  1  0  0  0  0
 40 46  1  0  0  0  0
 40 45  1  1  0  0  0
 42 41  1  1  0  0  0
 42 43  1  0  0  0  0
 42 40  1  0  0  0  0
 43 44  1  6  0  0  0
 43 39  1  0  0  0  0
 43 40  1  0  0  0  0
 46 47  1  1  0  0  0
 46 51  1  0  0  0  0
 47 48  1  6  0  0  0
 49 47  1  0  0  0  0
 51 50  1  1  0  0  0
 52 54  1  0  0  0  0
 53 52  1  0  0  0  0
 54 55  2  0  0  0  0
 54 51  1  0  0  0  0
M  END
>  <MODEL>
4

>  <REMARK>
 VINA RESULT:      -5.5      4.718     11.532
  Name = 
  9 active torsions:
  status: ('A' for Active; 'I' for Inactive)
    1  A    between atoms: C_1  and  C_53
    2  A    between atoms: C_6  and  C_53
    3  A    between atoms: C_8  and  O_22
    4  A    between atoms: C_8  and  C_43
    5  A    between atoms: N_10  and  C_32
    6  A    between atoms: C_20  and  O_22
    7  A    between atoms: C_29  and  C_38
    8  A    between atoms: C_33  and  C_52
    9  A    between atoms: C_38  and  C_53
                            x       y       z     vdW  Elec       q    Type
                         _______ _______ _______ _____ _____    ______ ____

>  <TORSDO>
F 9

$$$$
=
 OpenBabel11052415033D

 55 60  0  0  1  0  0  0  0  0999 V2000
  184.2630  177.4560  137.2560 C   0  0  0  0  0  2  0  0  0  0  0  0
  189.3310  176.4660  136.3620 C   0  0  0  0  0  2  0  0  0  0  0  0
  189.8530  178.9610  137.7250 F   0  0  0  0  0  0  0  0  0  0  0  0
  188.3960  178.0000  141.3450 C   0  0  0  0  0  3  0  0  0  0  0  0
  188.5780  177.4990  142.5780 C   0  0  0  0  0  3  0  0  0  0  0  0
  185.9020  177.9610  141.7190 C   0  0  2  0  0  3  0  0  0  0  0  0
  186.2110  178.1450  143.1980 C   0  0  0  0  0  2  0  0  0  0  0  0
  187.7020  179.0620  138.5710 N   0  0  0  0  0  2  0  0  0  0  0  0
  187.4470  177.3190  143.5640 C   0  0  0  0  0  2  0  0  0  0  0  0
  182.7280  175.7370  136.2920 C   0  0  0  0  0  3  0  0  0  0  0  0
  187.0620  178.5330  140.8880 C   0  0  2  0  0  3  0  0  0  0  0  0
  184.8930  174.0480  135.7290 C   0  0  0  0  0  0  0  0  0  0  0  0
  184.7090  177.2920  138.6280 N   0  0  0  0  0  2  0  0  0  0  0  0
  185.1060  175.2810  136.3580 C   0  0  0  0  0  3  0  0  0  0  0  0
  184.5810  179.2730  140.1060 C   0  0  1  0  0  3  0  0  0  0  0  0
  188.8060  175.6070  135.2220 C   0  0  0  0  0  2  0  0  0  0  0  0
  184.5960  178.5560  141.3910 N   0  0  0  0  0  2  0  0  0  0  0  0
  188.2590  177.4300  136.8360 C   0  0  0  0  0  2  0  0  0  0  0  0
  188.7520  178.1910  138.0610 C   0  0  1  0  0  3  0  0  0  0  0  0
  182.5100  174.4990  135.6790 C   0  0  0  0  0  3  0  0  0  0  0  0
  188.2050  174.3110  135.7500 C   0  0  1  0  0  3  0  0  0  0  0  0
  184.0270  176.1280  136.6320 C   0  0  0  0  0  0  0  0  0  0  0  0
  186.8140  178.2570  139.4000 C   0  0  1  0  0  3  0  0  0  0  0  0
  185.3610  178.5390  138.9970 C   0  0  1  0  0  3  0  0  0  0  0  0
  187.1770  173.8200  134.7380 C   0  0  0  0  0  2  0  0  0  0  0  0
  186.0290  173.1160  135.4510 C   0  0  0  0  0  2  0  0  0  0  0  0
  183.5910  173.6560  135.4000 C   0  0  0  0  0  3  0  0  0  0  0  0
  182.0220  178.9010  140.2600 C   0  0  0  0  0  3  0  0  0  0  0  0
  180.6710  179.6810  138.3330 C   0  0  1  0  0  3  0  0  0  0  0  0
  182.9950  180.5290  138.7280 C   0  0  0  0  0  3  0  0  0  0  0  0
  181.6000  180.9110  138.3080 C   0  0  0  0  0  2  0  0  0  0  0  0
  180.8310  178.9610  139.6570 C   0  0  0  0  0  3  0  0  0  0  0  0
  183.1850  179.6190  139.6890 C   0  0  0  0  0  0  0  0  0  0  0  0
  179.2690  180.0630  138.1020 N   0  0  0  0  0  0  0  0  0  0  0  0
  178.9310  181.1570  139.0030 C   0  0  0  0  0  1  0  0  0  0  0  0
  179.1570  180.6300  136.7660 C   0  0  0  0  0  1  0  0  0  0  0  0
  188.8360  172.2460  136.8110 O   0  0  0  0  0  1  0  0  0  0  0  0
  189.2950  173.2480  135.9550 C   0  0  2  0  0  3  0  0  0  0  0  0
  190.4490  173.8220  136.5070 O   0  0  0  0  0  0  0  0  0  0  0  0
  192.9400  173.3280  136.5440 C   0  0  2  0  0  0  0  0  0  0  0  0
  192.2630  175.3540  135.4410 F   0  0  0  0  0  0  0  0  0  0  0  0
  192.5400  174.0110  135.2320 C   0  0  2  0  0  3  0  0  0  0  0  0
  191.5430  173.1210  135.9680 C   0  0  2  0  0  0  0  0  0  0  0  0
  191.2610  171.9500  135.2590 O   0  0  0  0  0  1  0  0  0  0  0  0
  192.9900  174.1760  137.6530 O   0  0  0  0  0  1  0  0  0  0  0  0
  193.9360  172.1430  136.5340 C   0  0  1  0  0  3  0  0  0  0  0  0
  193.9970  171.3760  135.2050 C   0  0  2  0  0  3  0  0  0  0  0  0
  193.7880  169.8880  135.4240 C   0  0  0  0  0  1  0  0  0  0  0  0
  195.2240  171.5660  134.5940 F   0  0  0  0  0  0  0  0  0  0  0  0
  195.2090  172.3870  138.5770 O   0  0  0  0  0  1  0  0  0  0  0  0
  195.3120  172.3740  137.1840 C   0  0  2  0  0  3  0  0  0  0  0  0
  196.7890  173.5140  135.4550 N   0  0  0  0  0  2  0  0  0  0  0  0
  197.5770  174.6340  134.9730 C   0  0  0  0  0  1  0  0  0  0  0  0
  196.0470  173.5810  136.6750 C   0  0  0  0  0  0  0  0  0  0  0  0
  196.0080  174.6530  137.3370 O   0  0  0  0  0  0  0  0  0  0  0  0
  1 13  1  0  0  0  0
  2 18  1  0  0  0  0
  4  5  2  0  0  0  0
  5  9  1  0  0  0  0
  6  7  1  1  0  0  0
  7  9  1  0  0  0  0
 10 22  1  0  0  0  0
 11  4  1  1  0  0  0
 11  6  1  0  0  0  0
 12 14  1  0  0  0  0
 14 22  2  0  0  0  0
 15 33  1  6  0  0  0
 15 17  1  0  0  0  0
 16 21  1  0  0  0  0
 16  2  1  0  0  0  0
 17  6  1  0  0  0  0
 18 19  1  0  0  0  0
 19  3  1  6  0  0  0
 19  8  1  0  0  0  0
 20 10  2  0  0  0  0
 21 38  1  6  0  0  0
 22  1  1  0  0  0  0
 23  8  1  6  0  0  0
 23 11  1  0  0  0  0
 24 13  1  1  0  0  0
 24 23  1  0  0  0  0
 24 15  1  0  0  0  0
 25 26  1  0  0  0  0
 25 21  1  0  0  0  0
 26 12  1  0  0  0  0
 27 20  1  0  0  0  0
 27 12  2  0  0  0  0
 29 34  1  1  0  0  0
 29 32  1  0  0  0  0
 30 33  2  0  0  0  0
 31 29  1  0  0  0  0
 31 30  1  0  0  0  0
 32 28  2  0  0  0  0
 33 28  1  0  0  0  0
 34 35  1  0  0  0  0
 36 34  1  0  0  0  0
 38 39  1  0  0  0  0
 38 37  1  1  0  0  0
 40 45  1  1  0  0  0
 42 41  1  1  0  0  0
 42 43  1  0  0  0  0
 42 40  1  0  0  0  0
 43 44  1  6  0  0  0
 43 39  1  0  0  0  0
 43 40  1  0  0  0  0
 46 47  1  6  0  0  0
 46 40  1  0  0  0  0
 46 51  1  0  0  0  0
 47 48  1  1  0  0  0
 49 47  1  0  0  0  0
 51 50  1  1  0  0  0
 52 54  1  0  0  0  0
 53 52  1  0  0  0  0
 54 51  1  0  0  0  0
 54 55  2  0  0  0  0
M  END
>  <MODEL>
5

>  <REMARK>
 VINA RESULT:      -5.3      4.642     11.545
  Name = 
  9 active torsions:
  status: ('A' for Active; 'I' for Inactive)
    1  A    between atoms: C_1  and  C_53
    2  A    between atoms: C_6  and  C_53
    3  A    between atoms: C_8  and  O_22
    4  A    between atoms: C_8  and  C_43
    5  A    between atoms: N_10  and  C_32
    6  A    between atoms: C_20  and  O_22
    7  A    between atoms: C_29  and  C_38
    8  A    between atoms: C_33  and  C_52
    9  A    between atoms: C_38  and  C_53
                            x       y       z     vdW  Elec       q    Type
                         _______ _______ _______ _____ _____    ______ ____

>  <TORSDO>
F 9

$$$$
=
 OpenBabel11052415033D

 55 60  0  0  1  0  0  0  0  0999 V2000
  184.5920  177.3330  137.8960 C   0  0  0  0  0  2  0  0  0  0  0  0
  189.6770  176.9930  136.6730 C   0  0  0  0  0  2  0  0  0  0  0  0
  190.0100  179.3960  138.2450 F   0  0  0  0  0  0  0  0  0  0  0  0
  188.8720  177.9550  141.8200 C   0  0  0  0  0  3  0  0  0  0  0  0
  189.1760  177.3670  142.9890 C   0  0  0  0  0  3  0  0  0  0  0  0
  186.4210  177.6070  142.3050 C   0  0  2  0  0  3  0  0  0  0  0  0
  186.7930  177.6890  143.7790 C   0  0  0  0  0  2  0  0  0  0  0  0
  187.9120  179.1820  139.1970 N   0  0  0  0  0  2  0  0  0  0  0  0
  188.1280  176.9760  144.0040 C   0  0  0  0  0  2  0  0  0  0  0  0
  183.1950  175.5490  136.8430 C   0  0  0  0  0  3  0  0  0  0  0  0
  187.4650  178.3770  141.4790 C   0  0  2  0  0  3  0  0  0  0  0  0
  185.4900  174.1670  136.0190 C   0  0  0  0  0  0  0  0  0  0  0  0
  185.1310  177.0950  139.2230 N   0  0  0  0  0  2  0  0  0  0  0  0
  185.6080  175.3550  136.7540 C   0  0  0  0  0  3  0  0  0  0  0  0
  184.8790  178.9070  140.8900 C   0  0  1  0  0  3  0  0  0  0  0  0
  189.1820  176.1890  135.4820 C   0  0  0  0  0  2  0  0  0  0  0  0
  185.0430  178.0820  142.0980 N   0  0  0  0  0  2  0  0  0  0  0  0
  188.5390  177.7860  137.2880 C   0  0  0  0  0  2  0  0  0  0  0  0
  189.0170  178.4820  138.5560 C   0  0  1  0  0  3  0  0  0  0  0  0
  183.0740  174.3550  136.1250 C   0  0  0  0  0  3  0  0  0  0  0  0
  188.7520  174.7920  135.9090 C   0  0  1  0  0  3  0  0  0  0  0  0
  184.4630  176.0490  137.1580 C   0  0  0  0  0  0  0  0  0  0  0  0
  187.1630  178.2130  139.9850 C   0  0  1  0  0  3  0  0  0  0  0  0
  185.6670  178.3670  139.6800 C   0  0  1  0  0  3  0  0  0  0  0  0
  187.7250  174.2840  134.9040 C   0  0  0  0  0  2  0  0  0  0  0  0
  186.7010  173.3960  135.5990 C   0  0  0  0  0  2  0  0  0  0  0  0
  184.2200  173.6660  135.7150 C   0  0  0  0  0  3  0  0  0  0  0  0
  182.3700  178.5210  141.4040 C   0  0  0  0  0  3  0  0  0  0  0  0
  180.7870  178.8690  139.5280 C   0  0  1  0  0  3  0  0  0  0  0  0
  183.1020  179.8270  139.4800 C   0  0  0  0  0  3  0  0  0  0  0  0
  181.6550  180.0880  139.1550 C   0  0  0  0  0  2  0  0  0  0  0  0
  181.1190  178.4340  140.9410 C   0  0  0  0  0  3  0  0  0  0  0  0
  183.4330  179.1330  140.5740 C   0  0  0  0  0  0  0  0  0  0  0  0
  179.3540  179.1680  139.3870 N   0  0  0  0  0  0  0  0  0  0  0  0
  178.9730  180.1210  140.4200 C   0  0  0  0  0  1  0  0  0  0  0  0
  179.1490  179.8760  138.1310 C   0  0  0  0  0  1  0  0  0  0  0  0
  189.6660  172.7350  136.7590 O   0  0  0  0  0  1  0  0  0  0  0  0
  189.9580  173.8410  135.9600 C   0  0  2  0  0  3  0  0  0  0  0  0
  191.0820  174.4950  136.4840 O   0  0  0  0  0  0  0  0  0  0  0  0
  193.5580  174.6970  135.9600 C   0  0  2  0  0  0  0  0  0  0  0  0
  192.1440  176.4740  135.1690 F   0  0  0  0  0  0  0  0  0  0  0  0
  192.7120  175.2590  134.8130 C   0  0  2  0  0  3  0  0  0  0  0  0
  192.1730  174.1230  135.6780 C   0  0  2  0  0  0  0  0  0  0  0  0
  192.0600  172.9270  134.9660 O   0  0  0  0  0  1  0  0  0  0  0  0
  193.6290  175.5160  137.0900 O   0  0  0  0  0  1  0  0  0  0  0  0
  194.8040  173.8280  135.6570 C   0  0  1  0  0  3  0  0  0  0  0  0
  195.9470  174.5790  134.9590 C   0  0  2  0  0  3  0  0  0  0  0  0
  197.0770  173.6330  134.5940 C   0  0  0  0  0  1  0  0  0  0  0  0
  196.4490  175.5710  135.7840 F   0  0  0  0  0  0  0  0  0  0  0  0
  194.2120  172.0860  137.2280 O   0  0  0  0  0  1  0  0  0  0  0  0
  195.2740  172.8630  136.7600 C   0  0  2  0  0  3  0  0  0  0  0  0
  195.3050  174.2410  138.8980 N   0  0  0  0  0  2  0  0  0  0  0  0
  195.9910  174.9570  139.9590 C   0  0  0  0  0  1  0  0  0  0  0  0
  196.0150  173.5210  137.8890 C   0  0  0  0  0  0  0  0  0  0  0  0
  197.2720  173.4370  137.9340 O   0  0  0  0  0  0  0  0  0  0  0  0
  1 13  1  0  0  0  0
  2 18  1  0  0  0  0
  4  5  2  0  0  0  0
  5  9  1  0  0  0  0
  6  7  1  1  0  0  0
  7  9  1  0  0  0  0
 10 22  1  0  0  0  0
 11  4  1  6  0  0  0
 11  6  1  0  0  0  0
 12 14  1  0  0  0  0
 14 22  2  0  0  0  0
 15 33  1  6  0  0  0
 15 17  1  0  0  0  0
 16 21  1  0  0  0  0
 16  2  1  0  0  0  0
 17  6  1  0  0  0  0
 18 19  1  0  0  0  0
 19  3  1  6  0  0  0
 19  8  1  0  0  0  0
 20 10  2  0  0  0  0
 21 38  1  6  0  0  0
 22  1  1  0  0  0  0
 23  8  1  6  0  0  0
 23 11  1  0  0  0  0
 24 13  1  1  0  0  0
 24 23  1  0  0  0  0
 24 15  1  0  0  0  0
 25 26  1  0  0  0  0
 25 21  1  0  0  0  0
 26 12  1  0  0  0  0
 27 12  2  0  0  0  0
 27 20  1  0  0  0  0
 29 34  1  1  0  0  0
 29 32  1  0  0  0  0
 30 33  2  0  0  0  0
 31 30  1  0  0  0  0
 31 29  1  0  0  0  0
 32 28  2  0  0  0  0
 33 28  1  0  0  0  0
 34 35  1  0  0  0  0
 36 34  1  0  0  0  0
 38 39  1  0  0  0  0
 38 37  1  1  0  0  0
 40 45  1  1  0  0  0
 42 41  1  1  0  0  0
 42 43  1  0  0  0  0
 42 40  1  0  0  0  0
 43 44  1  6  0  0  0
 43 40  1  0  0  0  0
 43 39  1  0  0  0  0
 46 47  1  1  0  0  0
 46 40  1  0  0  0  0
 46 51  1  0  0  0  0
 47 48  1  1  0  0  0
 47 49  1  0  0  0  0
 51 50  1  1  0  0  0
 51 54  1  0  0  0  0
 52 53  1  0  0  0  0
 54 55  2  0  0  0  0
 54 52  1  0  0  0  0
M  END
>  <MODEL>
6

>  <REMARK>
 VINA RESULT:      -4.5      4.571     11.520
  Name = 
  9 active torsions:
  status: ('A' for Active; 'I' for Inactive)
    1  A    between atoms: C_1  and  C_53
    2  A    between atoms: C_6  and  C_53
    3  A    between atoms: C_8  and  O_22
    4  A    between atoms: C_8  and  C_43
    5  A    between atoms: N_10  and  C_32
    6  A    between atoms: C_20  and  O_22
    7  A    between atoms: C_29  and  C_38
    8  A    between atoms: C_33  and  C_52
    9  A    between atoms: C_38  and  C_53
                            x       y       z     vdW  Elec       q    Type
                         _______ _______ _______ _____ _____    ______ ____

>  <TORSDO>
F 9

$$$$
