=
 OpenBabel11052415513D

 34 39  0  0  0  0  0  0  0  0999 V2000
  189.1370  177.6900  141.3890 C   0  0  0  0  0  0  0  0  0  0  0  0
  191.2630  176.2420  138.7250 C   0  0  0  0  0  3  0  0  0  0  0  0
  192.2350  177.6760  140.7790 S   0  0  0  0  0  0  0  0  0  0  0  0
  188.1600  177.4600  143.9870 N   0  0  0  0  0  0  0  0  0  0  0  0
  187.7940  177.9690  141.6880 C   0  0  0  0  0  3  0  0  0  0  0  0
  189.4670  177.1810  143.7460 C   0  0  0  0  0  0  0  0  0  0  0  0
  191.5900  176.4400  144.5450 N   0  0  0  0  0  0  0  0  0  0  0  0
  190.2800  176.7100  144.7780 C   0  0  0  0  0  3  0  0  0  0  0  0
  187.3180  177.8780  143.0020 C   0  0  0  0  0  0  0  0  0  0  0  0
  191.3890  177.1260  142.2620 C   0  0  0  0  0  0  0  0  0  0  0  0
  190.0080  177.3500  142.4530 C   0  0  0  0  0  0  0  0  0  0  0  0
  192.1570  176.6500  143.3260 C   0  0  0  0  0  3  0  0  0  0  0  0
  190.2570  175.7000  137.7680 C   0  0  0  0  0  2  0  0  0  0  0  0
  189.6640  176.8040  136.9520 C   0  0  0  0  0  0  0  0  0  0  0  0
  188.9360  177.7720  137.5280 C   0  0  0  0  0  3  0  0  0  0  0  0
  190.9450  177.0920  139.7010 C   0  0  0  0  0  0  0  0  0  0  0  0
  188.7120  177.9130  138.9820 C   0  0  0  0  0  3  0  0  0  0  0  0
  189.5690  177.5810  139.9650 C   0  0  0  0  0  0  0  0  0  0  0  0
  184.1580  178.6800  144.9400 C   0  0  0  0  0  3  0  0  0  0  0  0
  184.9580  178.2610  142.2860 C   0  0  0  0  0  3  0  0  0  0  0  0
  180.9350  179.1230  143.1660 C   0  0  0  0  0  0  0  0  0  0  0  0
  181.8810  179.0440  144.1980 C   0  0  0  0  0  3  0  0  0  0  0  0
  183.2180  178.7580  143.9100 C   0  0  0  0  0  0  0  0  0  0  0  0
  182.6800  178.6250  141.5440 C   0  0  0  0  0  3  0  0  0  0  0  0
  183.6210  178.5470  142.5730 C   0  0  0  0  0  0  0  0  0  0  0  0
  181.3450  178.9110  141.8390 C   0  0  0  0  0  3  0  0  0  0  0  0
  185.9060  178.1820  143.3180 C   0  0  0  0  0  0  0  0  0  0  0  0
  185.4940  178.3940  144.6440 C   0  0  0  0  0  3  0  0  0  0  0  0
  179.5640  179.4170  143.4660 N   0  0  0  0  0  0  0  0  0  0  0  0
  178.9310  178.7210  144.2860 O   0  0  0  0  0  0  0  0  0  0  0  0
  178.9310  180.4730  142.8520 O   0  0  0  0  0  0  0  0  0  0  0  0
  189.8650  176.7770  135.5680 O   0  0  0  0  0  0  0  0  0  0  0  0
  189.5620  175.6470  134.7600 C   0  0  0  0  0  2  0  0  0  0  0  0
  188.0610  175.5130  134.6220 C   0  0  0  0  0  1  0  0  0  0  0  0
  1  5  2  0  0  0  0
  1 11  1  0  0  0  0
  2 16  2  0  0  0  0
  3 10  1  0  0  0  0
  5  9  1  0  0  0  0
  6  4  1  0  0  0  0
  6  8  1  0  0  0  0
  7  8  2  0  0  0  0
  9 27  1  0  0  0  0
  9  4  2  0  0  0  0
 10 11  1  0  0  0  0
 10 12  2  0  0  0  0
 11  6  2  0  0  0  0
 12  7  1  0  0  0  0
 13  2  1  0  0  0  0
 14 15  2  0  0  0  0
 14 13  1  0  0  0  0
 15 17  1  0  0  0  0
 16 18  1  0  0  0  0
 16  3  1  0  0  0  0
 17 18  2  0  0  0  0
 18  1  1  0  0  0  0
 20 25  2  0  0  0  0
 20 27  1  0  0  0  0
 21 29  1  0  0  0  0
 21 22  2  0  0  0  0
 23 22  1  0  0  0  0
 23 19  2  0  0  0  0
 24 26  2  0  0  0  0
 24 25  1  0  0  0  0
 25 23  1  0  0  0  0
 26 21  1  0  0  0  0
 27 28  2  0  0  0  0
 28 19  1  0  0  0  0
 29 30  2  0  0  0  0
 31 29  2  0  0  0  0
 32 14  1  0  0  0  0
 33 32  1  0  0  0  0
 34 33  1  0  0  0  0
M  END
>  <MODEL>
1

>  <REMARK>
 VINA RESULT:      -9.4      0.000      0.000
  Name = 
  4 active torsions:
  status: ('A' for Active; 'I' for Inactive)
    1  A    between atoms: O_3  and  C_13
    2  A    between atoms: O_3  and  C_25
    3  A    between atoms: C_7  and  N_11
    4  A    between atoms: C_18  and  C_30
                            x       y       z     vdW  Elec       q    Type
                         _______ _______ _______ _____ _____    ______ ____

>  <TORSDO>
F 4

$$$$
=
 OpenBabel11052415513D

 34 39  0  0  0  0  0  0  0  0999 V2000
  190.7480  176.3310  138.0090 C   0  0  0  0  0  0  0  0  0  0  0  0
  192.9920  176.1120  135.0720 C   0  0  0  0  0  3  0  0  0  0  0  0
  190.3820  175.4770  134.9910 S   0  0  0  0  0  0  0  0  0  0  0  0
  188.7980  177.7900  139.3600 N   0  0  0  0  0  0  0  0  0  0  0  0
  190.7820  176.4720  139.4060 C   0  0  0  0  0  3  0  0  0  0  0  0
  188.7220  177.6800  138.0090 C   0  0  0  0  0  0  0  0  0  0  0  0
  187.6360  178.2430  135.9600 N   0  0  0  0  0  0  0  0  0  0  0  0
  187.7230  178.3580  137.3100 C   0  0  0  0  0  3  0  0  0  0  0  0
  189.7820  177.1840  140.0800 C   0  0  0  0  0  0  0  0  0  0  0  0
  189.4970  176.7410  135.9080 C   0  0  0  0  0  0  0  0  0  0  0  0
  189.6580  176.8940  137.3020 C   0  0  0  0  0  0  0  0  0  0  0  0
  188.4840  177.4460  135.2560 C   0  0  0  0  0  3  0  0  0  0  0  0
  194.3290  176.4050  135.6630 C   0  0  0  0  0  2  0  0  0  0  0  0
  194.8530  175.2060  136.3870 C   0  0  0  0  0  0  0  0  0  0  0  0
  194.2240  174.7240  137.4690 C   0  0  0  0  0  3  0  0  0  0  0  0
  191.9240  175.8160  135.8130 C   0  0  0  0  0  0  0  0  0  0  0  0
  192.9450  175.2350  138.0040 C   0  0  0  0  0  3  0  0  0  0  0  0
  191.9280  175.7620  137.2950 C   0  0  0  0  0  0  0  0  0  0  0  0
  191.0570  177.6180  143.6250 C   0  0  0  0  0  3  0  0  0  0  0  0
  188.6180  177.2860  142.2850 C   0  0  0  0  0  3  0  0  0  0  0  0
  188.6890  177.6750  146.4730 C   0  0  0  0  0  0  0  0  0  0  0  0
  189.8850  177.7110  145.7420 C   0  0  0  0  0  3  0  0  0  0  0  0
  189.8660  177.5820  144.3510 C   0  0  0  0  0  0  0  0  0  0  0  0
  187.4440  177.3790  144.4030 C   0  0  0  0  0  3  0  0  0  0  0  0
  188.6360  177.4150  143.6760 C   0  0  0  0  0  0  0  0  0  0  0  0
  187.4710  177.5070  145.7940 C   0  0  0  0  0  3  0  0  0  0  0  0
  189.8140  177.3220  141.5510 C   0  0  0  0  0  0  0  0  0  0  0  0
  191.0310  177.4890  142.2330 C   0  0  0  0  0  3  0  0  0  0  0  0
  188.7130  177.8080  147.9010 N   0  0  0  0  0  0  0  0  0  0  0  0
  189.7320  178.2370  148.4810 O   0  0  0  0  0  0  0  0  0  0  0  0
  187.6100  177.4640  148.6490 O   0  0  0  0  0  0  0  0  0  0  0  0
  196.0380  174.6260  135.9220 O   0  0  0  0  0  0  0  0  0  0  0  0
  197.3190  175.2130  136.1150 C   0  0  0  0  0  2  0  0  0  0  0  0
  197.9820  174.5900  137.3250 C   0  0  0  0  0  1  0  0  0  0  0  0
  1  5  1  0  0  0  0
  2 13  1  0  0  0  0
  2 16  2  0  0  0  0
  3 16  1  0  0  0  0
  3 10  1  0  0  0  0
  4  9  1  0  0  0  0
  5  9  2  0  0  0  0
  6  4  2  0  0  0  0
  7  8  2  0  0  0  0
  8  6  1  0  0  0  0
  9 27  1  0  0  0  0
 10 11  1  0  0  0  0
 11  6  1  0  0  0  0
 11  1  2  0  0  0  0
 12 10  2  0  0  0  0
 12  7  1  0  0  0  0
 13 14  1  0  0  0  0
 14 15  2  0  0  0  0
 15 17  1  0  0  0  0
 16 18  1  0  0  0  0
 18 17  2  0  0  0  0
 18  1  1  0  0  0  0
 19 23  1  0  0  0  0
 20 25  1  0  0  0  0
 21 29  1  0  0  0  0
 22 21  2  0  0  0  0
 23 22  1  0  0  0  0
 24 26  2  0  0  0  0
 25 23  2  0  0  0  0
 25 24  1  0  0  0  0
 26 21  1  0  0  0  0
 27 28  1  0  0  0  0
 27 20  2  0  0  0  0
 28 19  2  0  0  0  0
 29 30  2  0  0  0  0
 29 31  2  0  0  0  0
 32 33  1  0  0  0  0
 32 14  1  0  0  0  0
 33 34  1  0  0  0  0
M  END
>  <MODEL>
2

>  <REMARK>
 VINA RESULT:      -9.3      4.512      6.883
  Name = 
  4 active torsions:
  status: ('A' for Active; 'I' for Inactive)
    1  A    between atoms: O_3  and  C_13
    2  A    between atoms: O_3  and  C_25
    3  A    between atoms: C_7  and  N_11
    4  A    between atoms: C_18  and  C_30
                            x       y       z     vdW  Elec       q    Type
                         _______ _______ _______ _____ _____    ______ ____

>  <TORSDO>
F 4

$$$$
=
 OpenBabel11052415513D

 34 39  0  0  0  0  0  0  0  0999 V2000
  188.7260  177.1620  138.2510 C   0  0  0  0  0  0  0  0  0  0  0  0
  186.4530  176.3380  135.4470 C   0  0  0  0  0  3  0  0  0  0  0  0
  188.8960  177.4010  135.1070 S   0  0  0  0  0  0  0  0  0  0  0  0
  190.9270  176.4040  139.7790 N   0  0  0  0  0  0  0  0  0  0  0  0
  188.7320  177.3200  139.6470 C   0  0  0  0  0  3  0  0  0  0  0  0
  190.9680  176.2340  138.4330 C   0  0  0  0  0  0  0  0  0  0  0  0
  192.1210  175.4500  136.4950 N   0  0  0  0  0  0  0  0  0  0  0  0
  192.0700  175.6130  137.8430 C   0  0  0  0  0  3  0  0  0  0  0  0
  189.8540  176.9610  140.4040 C   0  0  0  0  0  0  0  0  0  0  0  0
  190.0110  176.5450  136.2230 C   0  0  0  0  0  0  0  0  0  0  0  0
  189.8950  176.6670  137.6240 C   0  0  0  0  0  0  0  0  0  0  0  0
  191.1320  175.9110  135.6830 C   0  0  0  0  0  3  0  0  0  0  0  0
  185.2000  175.9420  136.1520 C   0  0  0  0  0  2  0  0  0  0  0  0
  184.4680  177.1520  136.6350 C   0  0  0  0  0  0  0  0  0  0  0  0
  185.0060  177.9600  137.5590 C   0  0  0  0  0  3  0  0  0  0  0  0
  187.4530  176.9740  136.0560 C   0  0  0  0  0  0  0  0  0  0  0  0
  186.3630  177.8150  138.1260 C   0  0  0  0  0  3  0  0  0  0  0  0
  187.4530  177.3420  137.4940 C   0  0  0  0  0  0  0  0  0  0  0  0
  191.0790  177.4340  143.9620 C   0  0  0  0  0  3  0  0  0  0  0  0
  188.6530  177.1740  142.5820 C   0  0  0  0  0  3  0  0  0  0  0  0
  188.6610  177.6720  146.7590 C   0  0  0  0  0  0  0  0  0  0  0  0
  189.8710  177.6350  146.0520 C   0  0  0  0  0  3  0  0  0  0  0  0
  189.8730  177.4700  144.6640 C   0  0  0  0  0  0  0  0  0  0  0  0
  187.4440  177.3750  144.6720 C   0  0  0  0  0  3  0  0  0  0  0  0
  188.6500  177.3390  143.9690 C   0  0  0  0  0  0  0  0  0  0  0  0
  187.4500  177.5400  146.0590 C   0  0  0  0  0  3  0  0  0  0  0  0
  189.8630  177.1380  141.8720 C   0  0  0  0  0  0  0  0  0  0  0  0
  191.0730  177.2680  142.5740 C   0  0  0  0  0  3  0  0  0  0  0  0
  188.6630  177.8410  148.1830 N   0  0  0  0  0  0  0  0  0  0  0  0
  187.6590  177.5380  148.8600 O   0  0  0  0  0  0  0  0  0  0  0  0
  189.7760  178.3410  148.8200 O   0  0  0  0  0  0  0  0  0  0  0  0
  183.1900  177.3950  136.1170 O   0  0  0  0  0  0  0  0  0  0  0  0
  182.0330  177.5220  136.9330 C   0  0  0  0  0  2  0  0  0  0  0  0
  181.4350  178.9010  136.7520 C   0  0  0  0  0  1  0  0  0  0  0  0
  1  5  1  0  0  0  0
  2 16  2  0  0  0  0
  2 13  1  0  0  0  0
  3 16  1  0  0  0  0
  3 10  1  0  0  0  0
  4  9  1  0  0  0  0
  5  9  2  0  0  0  0
  6  4  2  0  0  0  0
  7  8  2  0  0  0  0
  8  6  1  0  0  0  0
  9 27  1  0  0  0  0
 10 11  1  0  0  0  0
 11  1  2  0  0  0  0
 11  6  1  0  0  0  0
 12 10  2  0  0  0  0
 12  7  1  0  0  0  0
 13 14  1  0  0  0  0
 14 15  2  0  0  0  0
 15 17  1  0  0  0  0
 16 18  1  0  0  0  0
 18 17  2  0  0  0  0
 18  1  1  0  0  0  0
 19 23  1  0  0  0  0
 20 25  1  0  0  0  0
 21 29  1  0  0  0  0
 22 21  2  0  0  0  0
 23 22  1  0  0  0  0
 24 26  2  0  0  0  0
 25 23  2  0  0  0  0
 25 24  1  0  0  0  0
 26 21  1  0  0  0  0
 27 28  1  0  0  0  0
 27 20  2  0  0  0  0
 28 19  2  0  0  0  0
 29 31  2  0  0  0  0
 29 30  2  0  0  0  0
 32 14  1  0  0  0  0
 32 33  1  0  0  0  0
 34 33  1  0  0  0  0
M  END
>  <MODEL>
3

>  <REMARK>
 VINA RESULT:      -9.1      4.265      6.607
  Name = 
  4 active torsions:
  status: ('A' for Active; 'I' for Inactive)
    1  A    between atoms: O_3  and  C_13
    2  A    between atoms: O_3  and  C_25
    3  A    between atoms: C_7  and  N_11
    4  A    between atoms: C_18  and  C_30
                            x       y       z     vdW  Elec       q    Type
                         _______ _______ _______ _____ _____    ______ ____

>  <TORSDO>
F 4

$$$$
=
 OpenBabel11052415513D

 34 39  0  0  0  0  0  0  0  0999 V2000
  185.5990  178.6320  141.3170 C   0  0  0  0  0  0  0  0  0  0  0  0
  181.9530  178.4890  140.6830 C   0  0  0  0  0  3  0  0  0  0  0  0
  183.6660  179.8950  139.1630 S   0  0  0  0  0  0  0  0  0  0  0  0
  188.1310  177.6940  140.6350 N   0  0  0  0  0  0  0  0  0  0  0  0
  186.5520  178.3290  142.3030 C   0  0  0  0  0  3  0  0  0  0  0  0
  187.2430  177.9750  139.6470 C   0  0  0  0  0  0  0  0  0  0  0  0
  186.6970  178.0080  137.3240 N   0  0  0  0  0  0  0  0  0  0  0  0
  187.5780  177.7180  138.3170 C   0  0  0  0  0  3  0  0  0  0  0  0
  187.8320  177.8840  141.9500 C   0  0  0  0  0  0  0  0  0  0  0  0
  185.1120  178.8660  138.8970 C   0  0  0  0  0  0  0  0  0  0  0  0
  185.9750  178.5120  139.9570 C   0  0  0  0  0  0  0  0  0  0  0  0
  185.4920  178.5830  137.5840 C   0  0  0  0  0  3  0  0  0  0  0  0
  181.4480  177.7370  141.8660 C   0  0  0  0  0  2  0  0  0  0  0  0
  181.3930  178.6270  143.0660 C   0  0  0  0  0  0  0  0  0  0  0  0
  182.5120  179.1520  143.5870 C   0  0  0  0  0  3  0  0  0  0  0  0
  183.1790  179.0110  140.6280 C   0  0  0  0  0  0  0  0  0  0  0  0
  183.8660  178.9980  143.0170 C   0  0  0  0  0  3  0  0  0  0  0  0
  184.1840  178.8910  141.7130 C   0  0  0  0  0  0  0  0  0  0  0  0
  191.0990  176.9220  143.6200 C   0  0  0  0  0  3  0  0  0  0  0  0
  188.4880  177.6400  144.3460 C   0  0  0  0  0  3  0  0  0  0  0  0
  191.3370  176.7610  147.3140 C   0  0  0  0  0  0  0  0  0  0  0  0
  191.6890  176.6960  145.9580 C   0  0  0  0  0  3  0  0  0  0  0  0
  190.7460  176.9880  144.9690 C   0  0  0  0  0  0  0  0  0  0  0  0
  189.0780  177.4140  146.6850 C   0  0  0  0  0  3  0  0  0  0  0  0
  189.4310  177.3490  145.3350 C   0  0  0  0  0  0  0  0  0  0  0  0
  190.0260  177.1210  147.6680 C   0  0  0  0  0  3  0  0  0  0  0  0
  188.8380  177.5760  142.9880 C   0  0  0  0  0  0  0  0  0  0  0  0
  190.1500  177.2150  142.6350 C   0  0  0  0  0  3  0  0  0  0  0  0
  192.3090  176.4620  148.3250 N   0  0  0  0  0  0  0  0  0  0  0  0
  192.8100  175.3220  148.4060 O   0  0  0  0  0  0  0  0  0  0  0  0
  192.7010  177.4320  149.2190 O   0  0  0  0  0  0  0  0  0  0  0  0
  180.1440  178.8680  143.6480 O   0  0  0  0  0  0  0  0  0  0  0  0
  178.9820  179.1830  142.8910 C   0  0  0  0  0  2  0  0  0  0  0  0
  179.1530  180.5420  142.2460 C   0  0  0  0  0  1  0  0  0  0  0  0
  1 18  1  0  0  0  0
  1  5  1  0  0  0  0
  2 13  1  0  0  0  0
  3 16  1  0  0  0  0
  4  9  1  0  0  0  0
  6 11  1  0  0  0  0
  6  4  2  0  0  0  0
  7 12  1  0  0  0  0
  7  8  2  0  0  0  0
  8  6  1  0  0  0  0
  9  5  2  0  0  0  0
  9 27  1  0  0  0  0
 10  3  1  0  0  0  0
 10 11  1  0  0  0  0
 11  1  2  0  0  0  0
 12 10  2  0  0  0  0
 13 14  1  0  0  0  0
 14 15  2  0  0  0  0
 14 32  1  0  0  0  0
 16  2  2  0  0  0  0
 16 18  1  0  0  0  0
 17 15  1  0  0  0  0
 18 17  2  0  0  0  0
 19 23  1  0  0  0  0
 20 25  1  0  0  0  0
 21 26  1  0  0  0  0
 21 29  1  0  0  0  0
 22 21  2  0  0  0  0
 23 25  2  0  0  0  0
 23 22  1  0  0  0  0
 24 26  2  0  0  0  0
 25 24  1  0  0  0  0
 27 20  2  0  0  0  0
 28 27  1  0  0  0  0
 28 19  2  0  0  0  0
 29 30  2  0  0  0  0
 29 31  2  0  0  0  0
 33 32  1  0  0  0  0
 34 33  1  0  0  0  0
M  END
>  <MODEL>
4

>  <REMARK>
 VINA RESULT:      -9.1      4.242      8.979
  Name = 
  4 active torsions:
  status: ('A' for Active; 'I' for Inactive)
    1  A    between atoms: O_3  and  C_13
    2  A    between atoms: O_3  and  C_25
    3  A    between atoms: C_7  and  N_11
    4  A    between atoms: C_18  and  C_30
                            x       y       z     vdW  Elec       q    Type
                         _______ _______ _______ _____ _____    ______ ____

>  <TORSDO>
F 4

$$$$
=
 OpenBabel11052415513D

 34 39  0  0  0  0  0  0  0  0999 V2000
  182.2640  178.0170  140.9200 C   0  0  0  0  0  0  0  0  0  0  0  0
  181.2260  178.3430  137.3800 C   0  0  0  0  0  3  0  0  0  0  0  0
  179.5180  177.7830  139.3780 S   0  0  0  0  0  0  0  0  0  0  0  0
  182.4310  179.2150  143.4290 N   0  0  0  0  0  0  0  0  0  0  0  0
  183.4120  177.8790  141.7160 C   0  0  0  0  0  3  0  0  0  0  0  0
  181.3000  179.3750  142.6950 C   0  0  0  0  0  0  0  0  0  0  0  0
  179.1370  180.3500  142.4420 N   0  0  0  0  0  0  0  0  0  0  0  0
  180.2750  180.1950  143.1670 C   0  0  0  0  0  3  0  0  0  0  0  0
  183.4770  178.4620  142.9880 C   0  0  0  0  0  0  0  0  0  0  0  0
  179.9360  178.8560  140.7540 C   0  0  0  0  0  0  0  0  0  0  0  0
  181.1590  178.7290  141.4480 C   0  0  0  0  0  0  0  0  0  0  0  0
  178.9440  179.6930  141.2670 C   0  0  0  0  0  3  0  0  0  0  0  0
  182.5300  178.4900  136.6730 C   0  0  0  0  0  2  0  0  0  0  0  0
  183.2070  177.1630  136.5460 C   0  0  0  0  0  0  0  0  0  0  0  0
  183.6100  176.4890  137.6330 C   0  0  0  0  0  3  0  0  0  0  0  0
  181.1330  177.9250  138.6430 C   0  0  0  0  0  0  0  0  0  0  0  0
  183.3670  176.9060  139.0290 C   0  0  0  0  0  3  0  0  0  0  0  0
  182.2980  177.5800  139.4940 C   0  0  0  0  0  0  0  0  0  0  0  0
  185.8110  178.5420  145.9760 C   0  0  0  0  0  3  0  0  0  0  0  0
  185.8580  177.7740  143.2810 C   0  0  0  0  0  3  0  0  0  0  0  0
  189.2980  177.3290  145.6620 C   0  0  0  0  0  0  0  0  0  0  0  0
  188.1240  177.8620  146.2130 C   0  0  0  0  0  3  0  0  0  0  0  0
  186.9790  178.0110  145.4260 C   0  0  0  0  0  0  0  0  0  0  0  0
  188.1710  177.0930  143.5170 C   0  0  0  0  0  3  0  0  0  0  0  0
  187.0030  177.6240  144.0680 C   0  0  0  0  0  0  0  0  0  0  0  0
  189.3130  176.9470  144.3100 C   0  0  0  0  0  3  0  0  0  0  0  0
  184.6820  178.3060  143.8310 C   0  0  0  0  0  0  0  0  0  0  0  0
  184.6690  178.6890  145.1830 C   0  0  0  0  0  3  0  0  0  0  0  0
  190.4700  177.1770  146.4740 N   0  0  0  0  0  0  0  0  0  0  0  0
  190.3800  177.1360  147.7180 O   0  0  0  0  0  0  0  0  0  0  0  0
  191.7110  177.0730  145.8880 O   0  0  0  0  0  0  0  0  0  0  0  0
  183.4390  176.6660  135.2590 O   0  0  0  0  0  0  0  0  0  0  0  0
  184.7270  176.2840  134.7930 C   0  0  0  0  0  2  0  0  0  0  0  0
  185.6230  177.5020  134.7310 C   0  0  0  0  0  1  0  0  0  0  0  0
  1 11  2  0  0  0  0
  1  5  1  0  0  0  0
  2 16  2  0  0  0  0
  3 10  1  0  0  0  0
  5  9  2  0  0  0  0
  6  8  1  0  0  0  0
  6  4  2  0  0  0  0
  7  8  2  0  0  0  0
  9  4  1  0  0  0  0
  9 27  1  0  0  0  0
 10 12  2  0  0  0  0
 10 11  1  0  0  0  0
 11  6  1  0  0  0  0
 12  7  1  0  0  0  0
 13  2  1  0  0  0  0
 14 13  1  0  0  0  0
 14 15  2  0  0  0  0
 15 17  1  0  0  0  0
 16  3  1  0  0  0  0
 16 18  1  0  0  0  0
 17 18  2  0  0  0  0
 18  1  1  0  0  0  0
 20 27  2  0  0  0  0
 20 25  1  0  0  0  0
 21 22  1  0  0  0  0
 21 29  1  0  0  0  0
 23 19  1  0  0  0  0
 23 22  2  0  0  0  0
 24 25  2  0  0  0  0
 24 26  1  0  0  0  0
 25 23  1  0  0  0  0
 26 21  2  0  0  0  0
 27 28  1  0  0  0  0
 28 19  2  0  0  0  0
 29 30  2  0  0  0  0
 31 29  2  0  0  0  0
 32 14  1  0  0  0  0
 33 32  1  0  0  0  0
 34 33  1  0  0  0  0
M  END
>  <MODEL>
5

>  <REMARK>
 VINA RESULT:      -8.9      4.412      8.206
  Name = 
  4 active torsions:
  status: ('A' for Active; 'I' for Inactive)
    1  A    between atoms: O_3  and  C_13
    2  A    between atoms: O_3  and  C_25
    3  A    between atoms: C_7  and  N_11
    4  A    between atoms: C_18  and  C_30
                            x       y       z     vdW  Elec       q    Type
                         _______ _______ _______ _____ _____    ______ ____

>  <TORSDO>
F 4

$$$$
=
 OpenBabel11052415513D

 34 39  0  0  0  0  0  0  0  0999 V2000
  187.6720  177.5110  144.0430 C   0  0  0  0  0  0  0  0  0  0  0  0
  184.6930  179.1980  145.4540 C   0  0  0  0  0  3  0  0  0  0  0  0
  185.9830  177.1920  146.6910 S   0  0  0  0  0  0  0  0  0  0  0  0
  190.4470  177.2750  144.0440 N   0  0  0  0  0  0  0  0  0  0  0  0
  188.3910  177.3790  142.8440 C   0  0  0  0  0  3  0  0  0  0  0  0
  189.7950  177.3980  145.2280 C   0  0  0  0  0  0  0  0  0  0  0  0
  189.8720  177.5980  147.6050 N   0  0  0  0  0  0  0  0  0  0  0  0
  190.5200  177.4850  146.4170 C   0  0  0  0  0  3  0  0  0  0  0  0
  189.7840  177.2330  142.8550 C   0  0  0  0  0  0  0  0  0  0  0  0
  187.7420  177.5030  146.5210 C   0  0  0  0  0  0  0  0  0  0  0  0
  188.3850  177.4560  145.2650 C   0  0  0  0  0  0  0  0  0  0  0  0
  188.5140  177.5940  147.6810 C   0  0  0  0  0  3  0  0  0  0  0  0
  184.2720  180.0960  144.3410 C   0  0  0  0  0  2  0  0  0  0  0  0
  183.5610  179.3180  143.2820 C   0  0  0  0  0  0  0  0  0  0  0  0
  184.1950  178.3660  142.5820 C   0  0  0  0  0  3  0  0  0  0  0  0
  185.5640  178.2030  145.2880 C   0  0  0  0  0  0  0  0  0  0  0  0
  185.5850  177.9250  142.8170 C   0  0  0  0  0  3  0  0  0  0  0  0
  186.2280  177.8830  144.0000 C   0  0  0  0  0  0  0  0  0  0  0  0
  192.6050  177.3070  140.3220 C   0  0  0  0  0  3  0  0  0  0  0  0
  189.9030  176.5750  140.4510 C   0  0  0  0  0  3  0  0  0  0  0  0
  192.0350  176.1470  136.8500 C   0  0  0  0  0  0  0  0  0  0  0  0
  192.6720  176.6560  137.9900 C   0  0  0  0  0  3  0  0  0  0  0  0
  191.9680  176.8000  139.1880 C   0  0  0  0  0  0  0  0  0  0  0  0
  189.9690  175.9240  138.1180 C   0  0  0  0  0  3  0  0  0  0  0  0
  190.6060  176.4310  139.2520 C   0  0  0  0  0  0  0  0  0  0  0  0
  190.6800  175.7840  136.9230 C   0  0  0  0  0  3  0  0  0  0  0  0
  190.5390  177.0840  141.5930 C   0  0  0  0  0  0  0  0  0  0  0  0
  191.8940  177.4480  141.5180 C   0  0  0  0  0  3  0  0  0  0  0  0
  192.7620  176.0010  135.6220 N   0  0  0  0  0  0  0  0  0  0  0  0
  192.1940  175.5760  134.5950 O   0  0  0  0  0  0  0  0  0  0  0  0
  194.0970  176.3300  135.5630 O   0  0  0  0  0  0  0  0  0  0  0  0
  182.2240  179.6360  143.0210 O   0  0  0  0  0  0  0  0  0  0  0  0
  181.2640  178.6760  142.5970 C   0  0  0  0  0  2  0  0  0  0  0  0
  180.2270  178.4860  143.6830 C   0  0  0  0  0  1  0  0  0  0  0  0
  1 11  1  0  0  0  0
  4  6  1  0  0  0  0
  5  9  1  0  0  0  0
  5  1  2  0  0  0  0
  6 11  2  0  0  0  0
  6  8  1  0  0  0  0
  7 12  1  0  0  0  0
  8  7  2  0  0  0  0
  9  4  2  0  0  0  0
 10  3  1  0  0  0  0
 10 12  2  0  0  0  0
 11 10  1  0  0  0  0
 13  2  1  0  0  0  0
 14 13  1  0  0  0  0
 15 17  1  0  0  0  0
 15 14  2  0  0  0  0
 16  2  2  0  0  0  0
 16  3  1  0  0  0  0
 17 18  2  0  0  0  0
 18  1  1  0  0  0  0
 18 16  1  0  0  0  0
 19 28  1  0  0  0  0
 20 27  1  0  0  0  0
 21 26  1  0  0  0  0
 21 22  2  0  0  0  0
 22 23  1  0  0  0  0
 23 25  1  0  0  0  0
 23 19  2  0  0  0  0
 24 25  1  0  0  0  0
 25 20  2  0  0  0  0
 26 24  2  0  0  0  0
 27  9  1  0  0  0  0
 28 27  2  0  0  0  0
 29 21  1  0  0  0  0
 30 29  2  0  0  0  0
 31 29  2  0  0  0  0
 32 14  1  0  0  0  0
 33 32  1  0  0  0  0
 33 34  1  0  0  0  0
M  END
>  <MODEL>
6

>  <REMARK>
 VINA RESULT:      -8.8      2.946      9.025
  Name = 
  4 active torsions:
  status: ('A' for Active; 'I' for Inactive)
    1  A    between atoms: O_3  and  C_13
    2  A    between atoms: O_3  and  C_25
    3  A    between atoms: C_7  and  N_11
    4  A    between atoms: C_18  and  C_30
                            x       y       z     vdW  Elec       q    Type
                         _______ _______ _______ _____ _____    ______ ____

>  <TORSDO>
F 4

$$$$
=
 OpenBabel11052415513D

 34 39  0  0  0  0  0  0  0  0999 V2000
  189.1870  176.7940  137.8840 C   0  0  0  0  0  0  0  0  0  0  0  0
  187.1980  175.5270  135.0290 C   0  0  0  0  0  3  0  0  0  0  0  0
  189.4290  176.9960  134.7420 S   0  0  0  0  0  0  0  0  0  0  0  0
  191.4290  176.4650  139.5030 N   0  0  0  0  0  0  0  0  0  0  0  0
  189.1140  176.9790  139.2740 C   0  0  0  0  0  3  0  0  0  0  0  0
  191.5490  176.2770  138.1630 C   0  0  0  0  0  0  0  0  0  0  0  0
  192.8910  175.6690  136.2860 N   0  0  0  0  0  0  0  0  0  0  0  0
  192.7630  175.8480  137.6260 C   0  0  0  0  0  3  0  0  0  0  0  0
  190.2530  176.8380  140.0770 C   0  0  0  0  0  0  0  0  0  0  0  0
  190.6340  176.3710  135.9150 C   0  0  0  0  0  0  0  0  0  0  0  0
  190.4470  176.4990  137.3090 C   0  0  0  0  0  0  0  0  0  0  0  0
  191.8680  175.9330  135.4300 C   0  0  0  0  0  3  0  0  0  0  0  0
  186.0080  174.9330  135.7030 C   0  0  0  0  0  2  0  0  0  0  0  0
  185.0590  176.0050  136.1290 C   0  0  0  0  0  0  0  0  0  0  0  0
  185.4130  176.9140  137.0490 C   0  0  0  0  0  3  0  0  0  0  0  0
  188.0490  176.3410  135.6540 C   0  0  0  0  0  0  0  0  0  0  0  0
  186.7530  177.0210  137.6640 C   0  0  0  0  0  3  0  0  0  0  0  0
  187.9320  176.7330  137.0800 C   0  0  0  0  0  0  0  0  0  0  0  0
  191.2650  177.4490  143.6800 C   0  0  0  0  0  3  0  0  0  0  0  0
  188.9320  177.0250  142.1870 C   0  0  0  0  0  3  0  0  0  0  0  0
  188.6980  177.6030  146.3470 C   0  0  0  0  0  0  0  0  0  0  0  0
  189.9430  177.6210  145.7020 C   0  0  0  0  0  3  0  0  0  0  0  0
  190.0250  177.4300  144.3200 C   0  0  0  0  0  0  0  0  0  0  0  0
  187.6080  177.1970  144.2080 C   0  0  0  0  0  3  0  0  0  0  0  0
  188.8490  177.2160  143.5680 C   0  0  0  0  0  0  0  0  0  0  0  0
  187.5330  177.3890  145.5910 C   0  0  0  0  0  3  0  0  0  0  0  0
  190.1770  177.0440  141.5390 C   0  0  0  0  0  0  0  0  0  0  0  0
  191.3400  177.2570  142.2970 C   0  0  0  0  0  3  0  0  0  0  0  0
  188.6180  177.8000  147.7650 N   0  0  0  0  0  0  0  0  0  0  0  0
  187.5610  177.5550  148.3820 O   0  0  0  0  0  0  0  0  0  0  0  0
  189.7090  178.2620  148.4640 O   0  0  0  0  0  0  0  0  0  0  0  0
  183.7790  176.0100  135.5640 O   0  0  0  0  0  0  0  0  0  0  0  0
  182.8680  174.9260  135.6920 C   0  0  0  0  0  2  0  0  0  0  0  0
  182.4900  174.7530  137.1480 C   0  0  0  0  0  1  0  0  0  0  0  0
  1  5  1  0  0  0  0
  2 16  2  0  0  0  0
  2 13  1  0  0  0  0
  3 16  1  0  0  0  0
  3 10  1  0  0  0  0
  4  9  1  0  0  0  0
  5  9  2  0  0  0  0
  6  4  2  0  0  0  0
  7  8  2  0  0  0  0
  8  6  1  0  0  0  0
  9 27  1  0  0  0  0
 10 11  1  0  0  0  0
 11  1  2  0  0  0  0
 11  6  1  0  0  0  0
 12 10  2  0  0  0  0
 12  7  1  0  0  0  0
 13 14  1  0  0  0  0
 14 15  2  0  0  0  0
 15 17  1  0  0  0  0
 16 18  1  0  0  0  0
 18 17  2  0  0  0  0
 18  1  1  0  0  0  0
 19 23  1  0  0  0  0
 20 25  1  0  0  0  0
 21 29  1  0  0  0  0
 22 21  1  0  0  0  0
 23 22  2  0  0  0  0
 24 26  1  0  0  0  0
 25 24  2  0  0  0  0
 25 23  1  0  0  0  0
 26 21  2  0  0  0  0
 27 20  2  0  0  0  0
 27 28  1  0  0  0  0
 28 19  2  0  0  0  0
 29 30  2  0  0  0  0
 29 31  2  0  0  0  0
 32 33  1  0  0  0  0
 32 14  1  0  0  0  0
 33 34  1  0  0  0  0
M  END
>  <MODEL>
7

>  <REMARK>
 VINA RESULT:      -8.6      4.421      6.551
  Name = 
  4 active torsions:
  status: ('A' for Active; 'I' for Inactive)
    1  A    between atoms: O_3  and  C_13
    2  A    between atoms: O_3  and  C_25
    3  A    between atoms: C_7  and  N_11
    4  A    between atoms: C_18  and  C_30
                            x       y       z     vdW  Elec       q    Type
                         _______ _______ _______ _____ _____    ______ ____

>  <TORSDO>
F 4

$$$$
=
 OpenBabel11052415513D

 34 39  0  0  0  0  0  0  0  0999 V2000
  182.6280  178.0440  141.0190 C   0  0  0  0  0  0  0  0  0  0  0  0
  180.8130  178.8090  137.8840 C   0  0  0  0  0  3  0  0  0  0  0  0
  179.6140  177.8640  140.0960 S   0  0  0  0  0  0  0  0  0  0  0  0
  183.3220  178.8770  143.5850 N   0  0  0  0  0  0  0  0  0  0  0  0
  183.9300  177.8630  141.5160 C   0  0  0  0  0  3  0  0  0  0  0  0
  182.0510  179.0710  143.1490 C   0  0  0  0  0  0  0  0  0  0  0  0
  179.8600  179.9380  143.5260 N   0  0  0  0  0  0  0  0  0  0  0  0
  181.1350  179.7510  143.9530 C   0  0  0  0  0  3  0  0  0  0  0  0
  184.2620  178.2610  142.8170 C   0  0  0  0  0  0  0  0  0  0  0  0
  180.3010  178.7530  141.4950 C   0  0  0  0  0  0  0  0  0  0  0  0
  181.6510  178.6030  141.8780 C   0  0  0  0  0  0  0  0  0  0  0  0
  179.4260  179.4460  142.3350 C   0  0  0  0  0  3  0  0  0  0  0  0
  181.9200  179.1350  136.9410 C   0  0  0  0  0  2  0  0  0  0  0  0
  182.5880  177.8840  136.4680 C   0  0  0  0  0  0  0  0  0  0  0  0
  183.2430  177.0870  137.3230 C   0  0  0  0  0  3  0  0  0  0  0  0
  181.0180  178.2090  139.0570 C   0  0  0  0  0  0  0  0  0  0  0  0
  183.3090  177.2840  138.7860 C   0  0  0  0  0  3  0  0  0  0  0  0
  182.3530  177.8180  139.5700 C   0  0  0  0  0  0  0  0  0  0  0  0
  188.0300  177.8550  142.9780 C   0  0  0  0  0  3  0  0  0  0  0  0
  185.8340  177.8800  144.7190 C   0  0  0  0  0  3  0  0  0  0  0  0
  189.7170  177.3060  146.2300 C   0  0  0  0  0  0  0  0  0  0  0  0
  189.5160  177.4850  144.8540 C   0  0  0  0  0  3  0  0  0  0  0  0
  188.2270  177.6770  144.3480 C   0  0  0  0  0  0  0  0  0  0  0  0
  187.3190  177.5100  146.5960 C   0  0  0  0  0  3  0  0  0  0  0  0
  187.1210  177.6890  145.2250 C   0  0  0  0  0  0  0  0  0  0  0  0
  188.6100  177.3190  147.0950 C   0  0  0  0  0  3  0  0  0  0  0  0
  185.6300  178.0610  143.3420 C   0  0  0  0  0  0  0  0  0  0  0  0
  186.7380  178.0460  142.4780 C   0  0  0  0  0  3  0  0  0  0  0  0
  191.0410  177.1110  146.7450 N   0  0  0  0  0  0  0  0  0  0  0  0
  191.9360  176.6220  146.0260 O   0  0  0  0  0  0  0  0  0  0  0  0
  191.3400  177.4620  148.0420 O   0  0  0  0  0  0  0  0  0  0  0  0
  182.5380  177.5910  135.1000 O   0  0  0  0  0  0  0  0  0  0  0  0
  182.2930  176.2860  134.5940 C   0  0  0  0  0  2  0  0  0  0  0  0
  180.8180  175.9660  134.7150 C   0  0  0  0  0  1  0  0  0  0  0  0
  1  5  2  0  0  0  0
  1 11  1  0  0  0  0
  2 16  2  0  0  0  0
  3 10  1  0  0  0  0
  5  9  1  0  0  0  0
  6  4  1  0  0  0  0
  6  8  1  0  0  0  0
  7  8  2  0  0  0  0
  9 27  1  0  0  0  0
  9  4  2  0  0  0  0
 10 11  1  0  0  0  0
 10 12  2  0  0  0  0
 11  6  2  0  0  0  0
 12  7  1  0  0  0  0
 13  2  1  0  0  0  0
 14 13  1  0  0  0  0
 14 15  2  0  0  0  0
 15 17  1  0  0  0  0
 16 18  1  0  0  0  0
 16  3  1  0  0  0  0
 17 18  2  0  0  0  0
 18  1  1  0  0  0  0
 19 23  1  0  0  0  0
 20 25  1  0  0  0  0
 21 29  1  0  0  0  0
 21 26  1  0  0  0  0
 22 21  2  0  0  0  0
 23 22  1  0  0  0  0
 23 25  2  0  0  0  0
 24 26  2  0  0  0  0
 25 24  1  0  0  0  0
 27 20  2  0  0  0  0
 28 19  2  0  0  0  0
 28 27  1  0  0  0  0
 29 31  2  0  0  0  0
 30 29  2  0  0  0  0
 32 14  1  0  0  0  0
 33 34  1  0  0  0  0
 33 32  1  0  0  0  0
M  END
>  <MODEL>
8

>  <REMARK>
 VINA RESULT:      -8.4      4.659      8.447
  Name = 
  4 active torsions:
  status: ('A' for Active; 'I' for Inactive)
    1  A    between atoms: O_3  and  C_13
    2  A    between atoms: O_3  and  C_25
    3  A    between atoms: C_7  and  N_11
    4  A    between atoms: C_18  and  C_30
                            x       y       z     vdW  Elec       q    Type
                         _______ _______ _______ _____ _____    ______ ____

>  <TORSDO>
F 4

$$$$
=
 OpenBabel11052415513D

 34 39  0  0  0  0  0  0  0  0999 V2000
  187.3860  177.4960  137.7460 C   0  0  0  0  0  0  0  0  0  0  0  0
  184.8840  176.6220  135.1600 C   0  0  0  0  0  3  0  0  0  0  0  0
  187.1410  177.9820  134.6350 S   0  0  0  0  0  0  0  0  0  0  0  0
  189.8270  176.8870  138.9410 N   0  0  0  0  0  0  0  0  0  0  0  0
  187.5470  177.5510  139.1400 C   0  0  0  0  0  3  0  0  0  0  0  0
  189.7190  176.8210  137.5890 C   0  0  0  0  0  0  0  0  0  0  0  0
  190.7000  176.3190  135.4720 N   0  0  0  0  0  0  0  0  0  0  0  0
  190.7990  176.3770  136.8260 C   0  0  0  0  0  3  0  0  0  0  0  0
  188.7850  177.2700  139.7300 C   0  0  0  0  0  0  0  0  0  0  0  0
  188.4690  177.1810  135.5380 C   0  0  0  0  0  0  0  0  0  0  0  0
  188.5150  177.1860  136.9490 C   0  0  0  0  0  0  0  0  0  0  0  0
  189.5760  176.7210  134.8210 C   0  0  0  0  0  3  0  0  0  0  0  0
  183.7770  176.0340  135.9660 C   0  0  0  0  0  2  0  0  0  0  0  0
  182.9860  177.1130  136.6320 C   0  0  0  0  0  0  0  0  0  0  0  0
  183.5450  177.9090  137.5550 C   0  0  0  0  0  3  0  0  0  0  0  0
  185.8790  177.3230  135.7030 C   0  0  0  0  0  0  0  0  0  0  0  0
  184.9690  177.8800  137.9480 C   0  0  0  0  0  3  0  0  0  0  0  0
  186.0170  177.5830  137.1570 C   0  0  0  0  0  0  0  0  0  0  0  0
  188.1000  177.9100  143.4050 C   0  0  0  0  0  3  0  0  0  0  0  0
  190.1520  176.8990  141.7860 C   0  0  0  0  0  3  0  0  0  0  0  0
  190.6580  177.0920  145.9570 C   0  0  0  0  0  0  0  0  0  0  0  0
  189.4630  177.5330  145.3710 C   0  0  0  0  0  3  0  0  0  0  0  0
  189.2910  177.4700  143.9860 C   0  0  0  0  0  0  0  0  0  0  0  0
  191.5160  176.5220  143.7520 C   0  0  0  0  0  3  0  0  0  0  0  0
  190.3250  176.9610  143.1700 C   0  0  0  0  0  0  0  0  0  0  0  0
  191.6820  176.5880  145.1380 C   0  0  0  0  0  3  0  0  0  0  0  0
  188.9570  177.3390  141.1970 C   0  0  0  0  0  0  0  0  0  0  0  0
  187.9340  177.8440  142.0180 C   0  0  0  0  0  3  0  0  0  0  0  0
  190.8310  177.1570  147.3790 N   0  0  0  0  0  0  0  0  0  0  0  0
  189.9210  177.6020  148.1090 O   0  0  0  0  0  0  0  0  0  0  0  0
  192.0040  176.7280  147.9570 O   0  0  0  0  0  0  0  0  0  0  0  0
  181.6360  177.2450  136.2870 O   0  0  0  0  0  0  0  0  0  0  0  0
  180.5740  177.0280  137.2070 C   0  0  0  0  0  2  0  0  0  0  0  0
  180.4720  175.5500  137.5210 C   0  0  0  0  0  1  0  0  0  0  0  0
  1  5  1  0  0  0  0
  2 16  2  0  0  0  0
  2 13  1  0  0  0  0
  3 10  1  0  0  0  0
  3 16  1  0  0  0  0
  4  9  1  0  0  0  0
  5  9  2  0  0  0  0
  6  4  2  0  0  0  0
  7  8  2  0  0  0  0
  8  6  1  0  0  0  0
  9 27  1  0  0  0  0
 10 11  1  0  0  0  0
 11  6  1  0  0  0  0
 11  1  2  0  0  0  0
 12  7  1  0  0  0  0
 12 10  2  0  0  0  0
 13 14  1  0  0  0  0
 14 15  2  0  0  0  0
 15 17  1  0  0  0  0
 16 18  1  0  0  0  0
 18  1  1  0  0  0  0
 18 17  2  0  0  0  0
 19 23  1  0  0  0  0
 20 25  1  0  0  0  0
 21 29  1  0  0  0  0
 22 21  1  0  0  0  0
 23 22  2  0  0  0  0
 24 26  1  0  0  0  0
 25 24  2  0  0  0  0
 25 23  1  0  0  0  0
 26 21  2  0  0  0  0
 27 20  2  0  0  0  0
 27 28  1  0  0  0  0
 28 19  2  0  0  0  0
 29 31  2  0  0  0  0
 29 30  2  0  0  0  0
 32 14  1  0  0  0  0
 32 33  1  0  0  0  0
 33 34  1  0  0  0  0
M  END
>  <MODEL>
9

>  <REMARK>
 VINA RESULT:      -8.1      4.612      7.644
  Name = 
  4 active torsions:
  status: ('A' for Active; 'I' for Inactive)
    1  A    between atoms: O_3  and  C_13
    2  A    between atoms: O_3  and  C_25
    3  A    between atoms: C_7  and  N_11
    4  A    between atoms: C_18  and  C_30
                            x       y       z     vdW  Elec       q    Type
                         _______ _______ _______ _____ _____    ______ ____

>  <TORSDO>
F 4

$$$$
