=
 OpenBabel11052413043D

 31 34  0  0  1  0  0  0  0  0999 V2000
  188.5290  178.3400  139.8800 C   0  0  0  0  0  0  0  0  0  0  0  0
  185.9370  178.9160  142.8030 C   0  0  2  0  0  3  0  0  0  0  0  0
  184.4080  178.6400  142.4720 C   0  0  0  0  0  0  0  0  0  0  0  0
  184.7250  177.8480  140.2140 O   0  0  0  0  0  1  0  0  0  0  0  0
  187.1610  178.3560  141.9430 C   0  0  0  0  0  0  0  0  0  0  0  0
  189.3170  177.3310  140.4480 C   0  0  0  0  0  3  0  0  0  0  0  0
  183.8420  178.1590  141.2350 C   0  0  0  0  0  0  0  0  0  0  0  0
  186.7350  177.2350  144.4720 C   0  0  2  0  0  3  0  0  0  0  0  0
  189.1180  178.6600  138.2550 Cl  0  0  0  0  0  0  0  0  0  0  0  0
  183.8710  179.5440  144.6280 C   0  0  0  0  0  2  0  0  0  0  0  0
  182.4820  178.0020  141.0490 C   0  0  0  0  0  3  0  0  0  0  0  0
  187.7460  176.6140  143.6070 C   0  0  0  0  0  2  0  0  0  0  0  0
  186.2530  178.6590  144.3170 C   0  0  2  0  0  3  0  0  0  0  0  0
  187.4380  178.8900  140.6150 C   0  0  0  0  0  3  0  0  0  0  0  0
  181.5700  178.3540  142.0560 C   0  0  0  0  0  3  0  0  0  0  0  0
  187.9100  177.2790  142.3640 C   0  0  0  0  0  0  0  0  0  0  0  0
  189.0520  176.7680  141.6190 C   0  0  0  0  0  3  0  0  0  0  0  0
  185.0080  178.7540  145.2290 C   0  0  0  0  0  2  0  0  0  0  0  0
  183.4640  178.9830  143.3770 C   0  0  0  0  0  0  0  0  0  0  0  0
  182.0450  178.8850  143.2120 C   0  0  0  0  0  3  0  0  0  0  0  0
  187.5220  177.1420  148.6270 C   0  0  0  0  0  1  0  0  0  0  0  0
  189.0150  178.4160  145.6070 O   0  0  0  0  0  0  0  0  0  0  0  0
  188.2890  177.6970  146.3370 C   0  0  0  0  0  0  0  0  0  0  0  0
  188.6000  177.4810  147.6570 N   0  0  0  0  0  0  0  0  0  0  0  0
  187.2530  176.9150  145.7280 N   0  0  0  0  0  2  0  0  0  0  0  0
  189.5880  178.2730  148.2910 C   0  0  0  0  0  2  0  0  0  0  0  0
  190.9660  177.5440  148.1460 C   0  0  0  0  0  2  0  0  0  0  0  0
  191.8370  175.9750  146.3070 C   0  0  0  0  0  0  0  0  0  0  0  0
  191.6010  176.4410  144.9730 C   0  0  0  0  0  1  0  0  0  0  0  0
  192.6550  175.0350  146.6400 O   0  0  0  0  0  0  0  0  0  0  0  0
  190.8390  176.3570  147.3710 N   0  0  0  0  0  2  0  0  0  0  0  0
  1  6  2  0  0  0  0
  1 14  1  0  0  0  0
  2  5  1  6  0  0  0
  2 13  1  0  0  0  0
  3  2  1  0  0  0  0
  3 19  1  0  0  0  0
  4  7  1  0  0  0  0
  5 16  1  0  0  0  0
  6 17  1  0  0  0  0
  7  3  2  0  0  0  0
  8 25  1  1  0  0  0
  9  1  1  0  0  0  0
 10 18  1  0  0  0  0
 11  7  1  0  0  0  0
 11 15  2  0  0  0  0
 12  8  1  0  0  0  0
 13  8  1  0  0  0  0
 13 18  1  1  0  0  0
 14  5  2  0  0  0  0
 15 20  1  0  0  0  0
 16 12  1  0  0  0  0
 17 16  2  0  0  0  0
 19 10  1  0  0  0  0
 20 19  2  0  0  0  0
 22 23  2  0  0  0  0
 23 24  1  0  0  0  0
 24 26  1  0  0  0  0
 24 21  1  0  0  0  0
 25 23  1  0  0  0  0
 27 26  1  0  0  0  0
 28 30  2  0  0  0  0
 28 31  1  0  0  0  0
 29 28  1  0  0  0  0
 31 27  1  0  0  0  0
M  END
>  <MODEL>
1

>  <REMARK>
 VINA RESULT:      -8.4      0.000      0.000
  Name = 
  4 active torsions:
  status: ('A' for Active; 'I' for Inactive)
    1  A    between atoms: C_6  and  C_19
    2  A    between atoms: C_6  and  N_22
    3  A    between atoms: C_15  and  N_23
    4  A    between atoms: C_19  and  N_24
                            x       y       z     vdW  Elec       q    Type
                         _______ _______ _______ _____ _____    ______ ____

>  <TORSDO>
F 4

$$$$
=
 OpenBabel11052413043D

 31 34  0  0  1  0  0  0  0  0999 V2000
  189.5500  176.9760  140.7030 C   0  0  0  0  0  0  0  0  0  0  0  0
  187.2640  177.1710  143.9160 C   0  0  2  0  0  3  0  0  0  0  0  0
  187.9660  177.6110  145.2720 C   0  0  0  0  0  0  0  0  0  0  0  0
  190.1570  178.0380  144.3530 O   0  0  0  0  0  1  0  0  0  0  0  0
  187.8690  177.4320  142.4610 C   0  0  0  0  0  0  0  0  0  0  0  0
  188.9200  177.9310  139.8960 C   0  0  0  0  0  3  0  0  0  0  0  0
  189.3420  177.9950  145.4730 C   0  0  0  0  0  0  0  0  0  0  0  0
  185.6330  178.9340  143.2220 C   0  0  2  0  0  3  0  0  0  0  0  0
  190.9540  176.3590  139.8430 Cl  0  0  0  0  0  0  0  0  0  0  0  0
  185.9130  177.0930  146.3980 C   0  0  0  0  0  2  0  0  0  0  0  0
  189.8530  178.3150  146.7160 C   0  0  0  0  0  3  0  0  0  0  0  0
  186.2990  179.2830  141.9610 C   0  0  0  0  0  2  0  0  0  0  0  0
  185.7510  177.5840  143.8910 C   0  0  2  0  0  3  0  0  0  0  0  0
  189.0360  176.6880  142.0020 C   0  0  0  0  0  3  0  0  0  0  0  0
  189.0540  178.2340  147.8670 C   0  0  0  0  0  3  0  0  0  0  0  0
  187.3970  178.4400  141.6500 C   0  0  0  0  0  0  0  0  0  0  0  0
  187.9050  178.6790  140.3060 C   0  0  0  0  0  3  0  0  0  0  0  0
  185.1480  177.7900  145.3000 C   0  0  0  0  0  2  0  0  0  0  0  0
  187.2740  177.5310  146.4300 C   0  0  0  0  0  0  0  0  0  0  0  0
  187.7720  177.8030  147.7450 C   0  0  0  0  0  3  0  0  0  0  0  0
  181.4230  179.3380  143.2100 C   0  0  0  0  0  1  0  0  0  0  0  0
  184.0130  177.8280  141.2140 O   0  0  0  0  0  0  0  0  0  0  0  0
  183.4850  178.6050  142.0460 C   0  0  0  0  0  0  0  0  0  0  0  0
  182.1500  178.9190  141.9790 N   0  0  0  0  0  0  0  0  0  0  0  0
  184.3300  179.3450  142.9370 N   0  0  0  0  0  2  0  0  0  0  0  0
  181.2880  178.1720  141.1410 C   0  0  0  0  0  2  0  0  0  0  0  0
  180.5850  179.1630  140.1530 C   0  0  0  0  0  2  0  0  0  0  0  0
  182.1710  180.6350  138.7690 C   0  0  0  0  0  0  0  0  0  0  0  0
  181.5270  181.7180  138.0870 C   0  0  0  0  0  1  0  0  0  0  0  0
  183.4410  180.5210  138.9660 O   0  0  0  0  0  0  0  0  0  0  0  0
  181.3770  179.3730  138.9890 N   0  0  0  0  0  2  0  0  0  0  0  0
  1 14  1  0  0  0  0
  2  5  1  6  0  0  0
  2  3  1  0  0  0  0
  3  7  2  0  0  0  0
  3 19  1  0  0  0  0
  4  7  1  0  0  0  0
  6 17  1  0  0  0  0
  6  1  2  0  0  0  0
  7 11  1  0  0  0  0
  8 25  1  6  0  0  0
  8 13  1  0  0  0  0
  9  1  1  0  0  0  0
 10 19  1  0  0  0  0
 11 15  2  0  0  0  0
 12  8  1  0  0  0  0
 13  2  1  0  0  0  0
 13 18  1  1  0  0  0
 14  5  2  0  0  0  0
 16 12  1  0  0  0  0
 16  5  1  0  0  0  0
 17 16  2  0  0  0  0
 18 10  1  0  0  0  0
 19 20  2  0  0  0  0
 20 15  1  0  0  0  0
 22 23  2  0  0  0  0
 23 25  1  0  0  0  0
 24 23  1  0  0  0  0
 24 21  1  0  0  0  0
 26 24  1  0  0  0  0
 27 26  1  0  0  0  0
 28 30  2  0  0  0  0
 28 31  1  0  0  0  0
 29 28  1  0  0  0  0
 31 27  1  0  0  0  0
M  END
>  <MODEL>
2

>  <REMARK>
 VINA RESULT:      -8.3      2.784      7.384
  Name = 
  4 active torsions:
  status: ('A' for Active; 'I' for Inactive)
    1  A    between atoms: C_6  and  C_19
    2  A    between atoms: C_6  and  N_22
    3  A    between atoms: C_15  and  N_23
    4  A    between atoms: C_19  and  N_24
                            x       y       z     vdW  Elec       q    Type
                         _______ _______ _______ _____ _____    ______ ____

>  <TORSDO>
F 4

$$$$
=
 OpenBabel11052413043D

 31 34  0  0  1  0  0  0  0  0999 V2000
  190.9220  176.4120  146.2880 C   0  0  0  0  0  0  0  0  0  0  0  0
  187.7430  177.1360  144.0610 C   0  0  2  0  0  3  0  0  0  0  0  0
  186.5410  177.9120  144.7540 C   0  0  0  0  0  0  0  0  0  0  0  0
  187.6120  178.2860  146.8850 O   0  0  0  0  0  1  0  0  0  0  0  0
  189.2410  177.1170  144.6140 C   0  0  0  0  0  0  0  0  0  0  0  0
  191.8910  177.1200  145.5670 C   0  0  0  0  0  3  0  0  0  0  0  0
  186.4800  178.4290  146.0990 C   0  0  0  0  0  0  0  0  0  0  0  0
  188.7390  178.5820  142.2820 C   0  0  2  0  0  3  0  0  0  0  0  0
  191.6800  175.7260  147.7180 Cl  0  0  0  0  0  0  0  0  0  0  0  0
  185.2530  177.5030  142.7730 C   0  0  0  0  0  2  0  0  0  0  0  0
  185.3550  179.0480  146.6090 C   0  0  0  0  0  3  0  0  0  0  0  0
  190.0700  178.6950  142.8920 C   0  0  0  0  0  2  0  0  0  0  0  0
  187.8000  177.4230  142.5200 C   0  0  2  0  0  3  0  0  0  0  0  0
  189.5730  176.3780  145.8260 C   0  0  0  0  0  3  0  0  0  0  0  0
  184.1840  179.1630  145.8430 C   0  0  0  0  0  3  0  0  0  0  0  0
  190.2330  177.8860  144.0460 C   0  0  0  0  0  0  0  0  0  0  0  0
  191.6150  177.8640  144.5050 C   0  0  0  0  0  3  0  0  0  0  0  0
  186.4470  177.8860  141.9320 C   0  0  0  0  0  2  0  0  0  0  0  0
  185.3680  178.0350  144.0950 C   0  0  0  0  0  0  0  0  0  0  0  0
  184.1620  178.6240  144.5980 C   0  0  0  0  0  3  0  0  0  0  0  0
  188.6600  178.6980  138.0540 C   0  0  0  0  0  1  0  0  0  0  0  0
  190.3420  176.9120  140.6930 O   0  0  0  0  0  0  0  0  0  0  0  0
  189.7020  177.8350  140.1320 C   0  0  0  0  0  0  0  0  0  0  0  0
  189.7830  178.0360  138.7760 N   0  0  0  0  0  0  0  0  0  0  0  0
  189.0570  178.8250  140.9450 N   0  0  0  0  0  2  0  0  0  0  0  0
  190.3750  177.0510  137.9480 C   0  0  0  0  0  2  0  0  0  0  0  0
  189.2780  175.9950  137.5840 C   0  0  0  0  0  2  0  0  0  0  0  0
  191.1880  174.3560  137.0650 C   0  0  0  0  0  0  0  0  0  0  0  0
  191.3020  174.0010  135.6820 C   0  0  0  0  0  1  0  0  0  0  0  0
  192.0890  174.1600  137.9670 O   0  0  0  0  0  0  0  0  0  0  0  0
  189.8140  174.6760  137.5970 N   0  0  0  0  0  2  0  0  0  0  0  0
  1  9  1  0  0  0  0
  2  5  1  1  0  0  0
  2  3  1  0  0  0  0
  3  7  1  0  0  0  0
  5 14  2  0  0  0  0
  6  1  2  0  0  0  0
  7 11  2  0  0  0  0
  7  4  1  0  0  0  0
  8 25  1  6  0  0  0
  8 13  1  0  0  0  0
  8 12  1  0  0  0  0
 10 19  1  0  0  0  0
 12 16  1  0  0  0  0
 13 18  1  1  0  0  0
 13  2  1  0  0  0  0
 14  1  1  0  0  0  0
 15 11  1  0  0  0  0
 16 17  2  0  0  0  0
 16  5  1  0  0  0  0
 17  6  1  0  0  0  0
 18 10  1  0  0  0  0
 19 20  1  0  0  0  0
 19  3  2  0  0  0  0
 20 15  2  0  0  0  0
 21 24  1  0  0  0  0
 23 22  2  0  0  0  0
 23 25  1  0  0  0  0
 24 23  1  0  0  0  0
 26 24  1  0  0  0  0
 27 31  1  0  0  0  0
 27 26  1  0  0  0  0
 28 31  1  0  0  0  0
 28 30  2  0  0  0  0
 29 28  1  0  0  0  0
M  END
>  <MODEL>
3

>  <REMARK>
 VINA RESULT:      -8.0      3.989      6.642
  Name = 
  4 active torsions:
  status: ('A' for Active; 'I' for Inactive)
    1  A    between atoms: C_6  and  C_19
    2  A    between atoms: C_6  and  N_22
    3  A    between atoms: C_15  and  N_23
    4  A    between atoms: C_19  and  N_24
                            x       y       z     vdW  Elec       q    Type
                         _______ _______ _______ _____ _____    ______ ____

>  <TORSDO>
F 4

$$$$
=
 OpenBabel11052413043D

 31 34  0  0  1  0  0  0  0  0999 V2000
  192.2630  176.0070  135.9770 C   0  0  0  0  0  0  0  0  0  0  0  0
  188.8130  177.2790  137.4150 C   0  0  2  0  0  3  0  0  0  0  0  0
  187.5350  176.3840  137.1120 C   0  0  0  0  0  0  0  0  0  0  0  0
  188.6830  174.5940  135.9700 O   0  0  0  0  0  1  0  0  0  0  0  0
  190.3200  176.7610  137.3120 C   0  0  0  0  0  0  0  0  0  0  0  0
  192.9760  175.8320  137.1710 C   0  0  0  0  0  3  0  0  0  0  0  0
  187.4800  175.1280  136.4050 C   0  0  0  0  0  0  0  0  0  0  0  0
  189.2850  177.2350  139.8690 C   0  0  2  0  0  3  0  0  0  0  0  0
  193.2860  175.5050  134.6390 Cl  0  0  0  0  0  0  0  0  0  0  0  0
  186.1980  178.1280  138.0730 C   0  0  0  0  0  2  0  0  0  0  0  0
  186.2950  174.4610  136.1600 C   0  0  0  0  0  3  0  0  0  0  0  0
  190.6060  176.6000  139.7690 C   0  0  0  0  0  2  0  0  0  0  0  0
  188.6610  178.0590  138.7670 C   0  0  2  0  0  3  0  0  0  0  0  0
  190.9220  176.4890  136.0120 C   0  0  0  0  0  3  0  0  0  0  0  0
  185.0640  175.0090  136.5550 C   0  0  0  0  0  3  0  0  0  0  0  0
  191.0540  176.4380  138.4330 C   0  0  0  0  0  0  0  0  0  0  0  0
  192.4410  175.9960  138.3720 C   0  0  0  0  0  3  0  0  0  0  0  0
  187.1900  178.2490  139.2040 C   0  0  0  0  0  2  0  0  0  0  0  0
  186.3090  176.8560  137.4310 C   0  0  0  0  0  0  0  0  0  0  0  0
  185.0520  176.2260  137.1550 C   0  0  0  0  0  3  0  0  0  0  0  0
  190.7790  178.6620  143.5610 C   0  0  0  0  0  1  0  0  0  0  0  0
  188.4950  176.1580  142.3390 O   0  0  0  0  0  0  0  0  0  0  0  0
  189.1900  177.2040  142.3390 C   0  0  0  0  0  0  0  0  0  0  0  0
  189.5520  177.8180  143.5120 N   0  0  0  0  0  0  0  0  0  0  0  0
  189.4160  177.8850  141.0980 N   0  0  0  0  0  2  0  0  0  0  0  0
  189.3800  177.1450  144.7460 C   0  0  0  0  0  2  0  0  0  0  0  0
  188.2610  177.8830  145.5550 C   0  0  0  0  0  2  0  0  0  0  0  0
  185.9280  178.1920  144.5240 C   0  0  0  0  0  0  0  0  0  0  0  0
  185.0230  178.9570  145.3290 C   0  0  0  0  0  1  0  0  0  0  0  0
  185.7670  177.9110  143.2750 O   0  0  0  0  0  0  0  0  0  0  0  0
  186.9730  177.3680  145.2330 N   0  0  0  0  0  2  0  0  0  0  0  0
  1 14  2  0  0  0  0
  1  6  1  0  0  0  0
  2  3  1  1  0  0  0
  2 13  1  0  0  0  0
  3 19  1  0  0  0  0
  4  7  1  0  0  0  0
  5  2  1  0  0  0  0
  5 16  2  0  0  0  0
  6 17  2  0  0  0  0
  7  3  2  0  0  0  0
  8 25  1  1  0  0  0
  9  1  1  0  0  0  0
 10 18  1  0  0  0  0
 11  7  1  0  0  0  0
 11 15  2  0  0  0  0
 12  8  1  0  0  0  0
 13 18  1  1  0  0  0
 13  8  1  0  0  0  0
 14  5  1  0  0  0  0
 15 20  1  0  0  0  0
 16 12  1  0  0  0  0
 17 16  1  0  0  0  0
 19 10  1  0  0  0  0
 20 19  2  0  0  0  0
 22 23  2  0  0  0  0
 23 24  1  0  0  0  0
 24 21  1  0  0  0  0
 24 26  1  0  0  0  0
 25 23  1  0  0  0  0
 26 27  1  0  0  0  0
 28 31  1  0  0  0  0
 28 29  1  0  0  0  0
 30 28  2  0  0  0  0
 31 27  1  0  0  0  0
M  END
>  <MODEL>
4

>  <REMARK>
 VINA RESULT:      -8.0      3.761      5.975
  Name = 
  4 active torsions:
  status: ('A' for Active; 'I' for Inactive)
    1  A    between atoms: C_6  and  C_19
    2  A    between atoms: C_6  and  N_22
    3  A    between atoms: C_15  and  N_23
    4  A    between atoms: C_19  and  N_24
                            x       y       z     vdW  Elec       q    Type
                         _______ _______ _______ _____ _____    ______ ____

>  <TORSDO>
F 4

$$$$
=
 OpenBabel11052413043D

 31 34  0  0  1  0  0  0  0  0999 V2000
  189.5330  176.9310  140.8690 C   0  0  0  0  0  0  0  0  0  0  0  0
  187.2150  177.2000  144.0540 C   0  0  2  0  0  3  0  0  0  0  0  0
  187.9090  177.6480  145.4120 C   0  0  0  0  0  0  0  0  0  0  0  0
  190.1150  178.0320  144.5110 O   0  0  0  0  0  1  0  0  0  0  0  0
  187.8400  177.4340  142.6030 C   0  0  0  0  0  0  0  0  0  0  0  0
  188.9250  177.8860  140.0430 C   0  0  0  0  0  3  0  0  0  0  0  0
  189.2880  178.0150  145.6230 C   0  0  0  0  0  0  0  0  0  0  0  0
  185.6180  178.9770  143.3200 C   0  0  2  0  0  3  0  0  0  0  0  0
  190.9370  176.2840  140.0320 Cl  0  0  0  0  0  0  0  0  0  0  0  0
  185.8370  177.1730  146.5220 C   0  0  0  0  0  2  0  0  0  0  0  0
  189.7900  178.3440  146.8670 C   0  0  0  0  0  3  0  0  0  0  0  0
  186.3020  179.3010  142.0620 C   0  0  0  0  0  2  0  0  0  0  0  0
  185.7090  177.6350  144.0070 C   0  0  2  0  0  3  0  0  0  0  0  0
  189.0010  176.6680  142.1650 C   0  0  0  0  0  3  0  0  0  0  0  0
  188.9780  178.2890  148.0100 C   0  0  0  0  0  3  0  0  0  0  0  0
  187.3910  178.4380  141.7730 C   0  0  0  0  0  0  0  0  0  0  0  0
  187.9170  178.6530  140.4320 C   0  0  0  0  0  3  0  0  0  0  0  0
  185.0940  177.8670  145.4070 C   0  0  0  0  0  2  0  0  0  0  0  0
  187.2030  177.5920  146.5630 C   0  0  0  0  0  0  0  0  0  0  0  0
  187.6920  177.8750  147.8800 C   0  0  0  0  0  3  0  0  0  0  0  0
  181.4120  179.4230  143.2390 C   0  0  0  0  0  1  0  0  0  0  0  0
  184.0210  177.8990  141.2780 O   0  0  0  0  0  0  0  0  0  0  0  0
  183.4860  178.6760  142.1060 C   0  0  0  0  0  0  0  0  0  0  0  0
  182.1560  179.0040  142.0180 N   0  0  0  0  0  0  0  0  0  0  0  0
  184.3240  179.4030  143.0150 N   0  0  0  0  0  2  0  0  0  0  0  0
  181.3010  178.2710  141.1610 C   0  0  0  0  0  2  0  0  0  0  0  0
  180.0940  177.7430  142.0070 C   0  0  0  0  0  2  0  0  0  0  0  0
  179.5950  175.4600  140.9390 C   0  0  0  0  0  0  0  0  0  0  0  0
  180.3590  175.1800  139.7600 C   0  0  0  0  0  1  0  0  0  0  0  0
  178.9310  174.5940  141.6270 O   0  0  0  0  0  0  0  0  0  0  0  0
  179.2520  176.9000  141.2270 N   0  0  0  0  0  2  0  0  0  0  0  0
  1 14  1  0  0  0  0
  2  5  1  6  0  0  0
  2  3  1  0  0  0  0
  3  7  2  0  0  0  0
  3 19  1  0  0  0  0
  4  7  1  0  0  0  0
  6 17  1  0  0  0  0
  6  1  2  0  0  0  0
  7 11  1  0  0  0  0
  8 25  1  6  0  0  0
  8 13  1  0  0  0  0
  9  1  1  0  0  0  0
 10 19  1  0  0  0  0
 11 15  2  0  0  0  0
 12  8  1  0  0  0  0
 13  2  1  0  0  0  0
 13 18  1  1  0  0  0
 14  5  2  0  0  0  0
 16 12  1  0  0  0  0
 16  5  1  0  0  0  0
 17 16  2  0  0  0  0
 18 10  1  0  0  0  0
 19 20  2  0  0  0  0
 20 15  1  0  0  0  0
 22 23  2  0  0  0  0
 23 25  1  0  0  0  0
 24 23  1  0  0  0  0
 24 21  1  0  0  0  0
 26 27  1  0  0  0  0
 26 24  1  0  0  0  0
 28 31  1  0  0  0  0
 28 30  2  0  0  0  0
 29 28  1  0  0  0  0
 31 27  1  0  0  0  0
M  END
>  <MODEL>
5

>  <REMARK>
 VINA RESULT:      -8.0      2.916      7.411
  Name = 
  4 active torsions:
  status: ('A' for Active; 'I' for Inactive)
    1  A    between atoms: C_6  and  C_19
    2  A    between atoms: C_6  and  N_22
    3  A    between atoms: C_15  and  N_23
    4  A    between atoms: C_19  and  N_24
                            x       y       z     vdW  Elec       q    Type
                         _______ _______ _______ _____ _____    ______ ____

>  <TORSDO>
F 4

$$$$
=
 OpenBabel11052413043D

 31 34  0  0  1  0  0  0  0  0999 V2000
  192.5840  176.3200  136.7550 C   0  0  0  0  0  0  0  0  0  0  0  0
  188.9730  177.4500  137.8860 C   0  0  2  0  0  3  0  0  0  0  0  0
  187.7580  176.5310  137.4350 C   0  0  0  0  0  0  0  0  0  0  0  0
  189.0650  174.8110  136.3580 O   0  0  0  0  0  1  0  0  0  0  0  0
  190.4990  176.9770  137.9150 C   0  0  0  0  0  0  0  0  0  0  0  0
  193.1830  176.1270  138.0060 C   0  0  0  0  0  3  0  0  0  0  0  0
  187.8110  175.2970  136.6890 C   0  0  0  0  0  0  0  0  0  0  0  0
  189.2080  177.3410  140.3730 C   0  0  2  0  0  3  0  0  0  0  0  0
  193.7460  175.8890  135.5080 Cl  0  0  0  0  0  0  0  0  0  0  0  0
  186.2830  178.2060  138.3110 C   0  0  0  0  0  2  0  0  0  0  0  0
  186.6760  174.6060  136.3110 C   0  0  0  0  0  3  0  0  0  0  0  0
  190.5510  176.7460  140.3830 C   0  0  0  0  0  2  0  0  0  0  0  0
  188.6690  178.1820  139.2390 C   0  0  2  0  0  3  0  0  0  0  0  0
  191.2310  176.7630  136.6730 C   0  0  0  0  0  3  0  0  0  0  0  0
  185.3960  175.1060  136.5990 C   0  0  0  0  0  3  0  0  0  0  0  0
  191.1300  176.6390  139.0920 C   0  0  0  0  0  0  0  0  0  0  0  0
  192.5300  176.2380  139.1540 C   0  0  0  0  0  3  0  0  0  0  0  0
  187.1580  178.3180  139.5360 C   0  0  0  0  0  2  0  0  0  0  0  0
  186.4940  176.9580  137.6460 C   0  0  0  0  0  0  0  0  0  0  0  0
  185.2890  176.3030  137.2310 C   0  0  0  0  0  3  0  0  0  0  0  0
  190.2630  178.6290  144.2620 C   0  0  0  0  0  1  0  0  0  0  0  0
  188.0890  176.2220  142.6920 O   0  0  0  0  0  0  0  0  0  0  0  0
  188.8040  177.2480  142.8090 C   0  0  0  0  0  0  0  0  0  0  0  0
  189.0310  177.8210  144.0360 N   0  0  0  0  0  0  0  0  0  0  0  0
  189.2000  177.9550  141.6260 N   0  0  0  0  0  2  0  0  0  0  0  0
  188.6900  177.1210  145.2180 C   0  0  0  0  0  2  0  0  0  0  0  0
  189.4390  177.7920  146.4180 C   0  0  0  0  0  2  0  0  0  0  0  0
  191.5390  176.5660  147.2470 C   0  0  0  0  0  0  0  0  0  0  0  0
  192.0510  175.5880  146.3340 C   0  0  0  0  0  1  0  0  0  0  0  0
  192.1750  177.0550  148.2580 O   0  0  0  0  0  0  0  0  0  0  0  0
  190.0520  176.8130  147.2510 N   0  0  0  0  0  2  0  0  0  0  0  0
  1  6  1  0  0  0  0
  2  3  1  1  0  0  0
  2  5  1  0  0  0  0
  2 13  1  0  0  0  0
  3 19  1  0  0  0  0
  4  7  1  0  0  0  0
  5 16  2  0  0  0  0
  6 17  2  0  0  0  0
  7  3  2  0  0  0  0
  8 12  1  0  0  0  0
  8 25  1  1  0  0  0
  9  1  1  0  0  0  0
 10 18  1  0  0  0  0
 11 15  2  0  0  0  0
 11  7  1  0  0  0  0
 13 18  1  1  0  0  0
 13  8  1  0  0  0  0
 14  1  2  0  0  0  0
 14  5  1  0  0  0  0
 15 20  1  0  0  0  0
 16 17  1  0  0  0  0
 16 12  1  0  0  0  0
 19 10  1  0  0  0  0
 20 19  2  0  0  0  0
 22 23  2  0  0  0  0
 23 24  1  0  0  0  0
 24 21  1  0  0  0  0
 24 26  1  0  0  0  0
 25 23  1  0  0  0  0
 26 27  1  0  0  0  0
 27 31  1  0  0  0  0
 28 31  1  0  0  0  0
 28 30  2  0  0  0  0
 29 28  1  0  0  0  0
M  END
>  <MODEL>
6

>  <REMARK>
 VINA RESULT:      -8.0      3.478      5.206
  Name = 
  4 active torsions:
  status: ('A' for Active; 'I' for Inactive)
    1  A    between atoms: C_6  and  C_19
    2  A    between atoms: C_6  and  N_22
    3  A    between atoms: C_15  and  N_23
    4  A    between atoms: C_19  and  N_24
                            x       y       z     vdW  Elec       q    Type
                         _______ _______ _______ _____ _____    ______ ____

>  <TORSDO>
F 4

$$$$
=
 OpenBabel11052413043D

 31 34  0  0  1  0  0  0  0  0999 V2000
  190.9860  176.4400  146.0790 C   0  0  0  0  0  0  0  0  0  0  0  0
  187.7410  177.1620  143.9470 C   0  0  2  0  0  3  0  0  0  0  0  0
  186.5560  177.9260  144.6800 C   0  0  0  0  0  0  0  0  0  0  0  0
  187.6850  178.2910  146.7820 O   0  0  0  0  0  1  0  0  0  0  0  0
  189.2550  177.1480  144.4580 C   0  0  0  0  0  0  0  0  0  0  0  0
  191.9310  177.1590  145.3360 C   0  0  0  0  0  3  0  0  0  0  0  0
  186.5300  178.4340  146.0300 C   0  0  0  0  0  0  0  0  0  0  0  0
  188.6800  178.6270  142.1520 C   0  0  2  0  0  3  0  0  0  0  0  0
  191.7880  175.7490  147.4820 Cl  0  0  0  0  0  0  0  0  0  0  0  0
  185.2150  177.5240  142.7320 C   0  0  0  0  0  2  0  0  0  0  0  0
  185.4170  179.0430  146.5760 C   0  0  0  0  0  3  0  0  0  0  0  0
  190.0270  178.7430  142.7240 C   0  0  0  0  0  2  0  0  0  0  0  0
  187.7540  177.4610  142.4080 C   0  0  2  0  0  3  0  0  0  0  0  0
  189.6250  176.4020  145.6550 C   0  0  0  0  0  3  0  0  0  0  0  0
  184.2240  179.1560  145.8430 C   0  0  0  0  0  3  0  0  0  0  0  0
  190.2260  177.9270  143.8680 C   0  0  0  0  0  0  0  0  0  0  0  0
  191.6210  177.9090  144.2880 C   0  0  0  0  0  3  0  0  0  0  0  0
  186.3820  177.9200  141.8620 C   0  0  0  0  0  2  0  0  0  0  0  0
  185.3640  178.0480  144.0540 C   0  0  0  0  0  0  0  0  0  0  0  0
  184.1700  178.6260  144.5950 C   0  0  0  0  0  3  0  0  0  0  0  0
  188.4490  178.8280  137.9330 C   0  0  0  0  0  1  0  0  0  0  0  0
  190.1450  176.9180  140.4740 O   0  0  0  0  0  0  0  0  0  0  0  0
  189.5270  177.8790  139.9540 C   0  0  0  0  0  0  0  0  0  0  0  0
  189.5670  178.1020  138.5990 N   0  0  0  0  0  0  0  0  0  0  0  0
  188.9590  178.8810  140.8080 N   0  0  0  0  0  2  0  0  0  0  0  0
  190.0820  177.1080  137.7330 C   0  0  0  0  0  2  0  0  0  0  0  0
  189.4660  177.3320  136.3110 C   0  0  0  0  0  2  0  0  0  0  0  0
  188.4310  175.0340  136.8090 C   0  0  0  0  0  0  0  0  0  0  0  0
  189.3750  173.9570  136.8510 C   0  0  0  0  0  1  0  0  0  0  0  0
  187.2220  174.9910  137.2580 O   0  0  0  0  0  0  0  0  0  0  0  0
  188.7260  176.1910  135.8890 N   0  0  0  0  0  2  0  0  0  0  0  0
  1  9  1  0  0  0  0
  2  5  1  1  0  0  0
  2  3  1  0  0  0  0
  3  7  1  0  0  0  0
  5 14  2  0  0  0  0
  6  1  2  0  0  0  0
  7 11  2  0  0  0  0
  7  4  1  0  0  0  0
  8 25  1  6  0  0  0
  8 13  1  0  0  0  0
  8 12  1  0  0  0  0
 10 19  1  0  0  0  0
 12 16  1  0  0  0  0
 13 18  1  1  0  0  0
 13  2  1  0  0  0  0
 14  1  1  0  0  0  0
 15 11  1  0  0  0  0
 16 17  2  0  0  0  0
 16  5  1  0  0  0  0
 17  6  1  0  0  0  0
 18 10  1  0  0  0  0
 19 20  1  0  0  0  0
 19  3  2  0  0  0  0
 20 15  2  0  0  0  0
 21 24  1  0  0  0  0
 23 22  2  0  0  0  0
 23 25  1  0  0  0  0
 24 23  1  0  0  0  0
 26 24  1  0  0  0  0
 27 26  1  0  0  0  0
 28 29  1  0  0  0  0
 28 30  2  0  0  0  0
 31 27  1  0  0  0  0
 31 28  1  0  0  0  0
M  END
>  <MODEL>
7

>  <REMARK>
 VINA RESULT:      -7.8      3.825      6.888
  Name = 
  4 active torsions:
  status: ('A' for Active; 'I' for Inactive)
    1  A    between atoms: C_6  and  C_19
    2  A    between atoms: C_6  and  N_22
    3  A    between atoms: C_15  and  N_23
    4  A    between atoms: C_19  and  N_24
                            x       y       z     vdW  Elec       q    Type
                         _______ _______ _______ _____ _____    ______ ____

>  <TORSDO>
F 4

$$$$
=
 OpenBabel11052413043D

 31 34  0  0  1  0  0  0  0  0999 V2000
  184.9460  178.7320  144.6490 C   0  0  0  0  0  0  0  0  0  0  0  0
  188.8860  178.5980  144.4280 C   0  0  2  0  0  3  0  0  0  0  0  0
  189.6310  177.6360  145.4500 C   0  0  0  0  0  0  0  0  0  0  0  0
  187.6580  176.7020  146.4790 O   0  0  0  0  0  1  0  0  0  0  0  0
  187.3370  178.4900  144.0550 C   0  0  0  0  0  0  0  0  0  0  0  0
  184.6140  178.2720  143.3690 C   0  0  0  0  0  3  0  0  0  0  0  0
  189.0410  176.7620  146.4350 C   0  0  0  0  0  0  0  0  0  0  0  0
  189.1930  177.7260  142.1050 C   0  0  2  0  0  3  0  0  0  0  0  0
  183.4600  179.0050  145.5470 Cl  0  0  0  0  0  0  0  0  0  0  0  0
  191.7030  178.5580  144.6680 C   0  0  0  0  0  2  0  0  0  0  0  0
  189.7980  176.0030  147.3070 C   0  0  0  0  0  3  0  0  0  0  0  0
  187.7720  177.4730  141.8370 C   0  0  0  0  0  2  0  0  0  0  0  0
  189.6940  178.7540  143.0920 C   0  0  2  0  0  3  0  0  0  0  0  0
  186.3150  178.8670  145.0250 C   0  0  0  0  0  3  0  0  0  0  0  0
  191.1990  176.0850  147.3050 C   0  0  0  0  0  3  0  0  0  0  0  0
  186.9130  177.9300  142.8700 C   0  0  0  0  0  0  0  0  0  0  0  0
  185.5100  177.8500  142.4880 C   0  0  0  0  0  3  0  0  0  0  0  0
  191.2020  178.4480  143.2480 C   0  0  0  0  0  2  0  0  0  0  0  0
  190.9800  177.6790  145.5330 C   0  0  0  0  0  0  0  0  0  0  0  0
  191.8030  176.9500  146.4520 C   0  0  0  0  0  3  0  0  0  0  0  0
  189.6110  177.5440  137.8990 C   0  0  0  0  0  1  0  0  0  0  0  0
  190.9510  175.9420  140.8350 O   0  0  0  0  0  0  0  0  0  0  0  0
  190.3920  176.8260  140.1400 C   0  0  0  0  0  0  0  0  0  0  0  0
  190.6340  176.9300  138.7920 N   0  0  0  0  0  0  0  0  0  0  0  0
  189.6690  177.8730  140.8010 N   0  0  0  0  0  2  0  0  0  0  0  0
  191.3060  175.8870  138.1110 C   0  0  0  0  0  2  0  0  0  0  0  0
  192.6800  176.4390  137.6030 C   0  0  0  0  0  2  0  0  0  0  0  0
  194.6710  174.8180  137.7130 C   0  0  0  0  0  0  0  0  0  0  0  0
  194.3040  173.4410  137.8610 C   0  0  0  0  0  1  0  0  0  0  0  0
  195.8340  175.2520  137.3600 O   0  0  0  0  0  0  0  0  0  0  0  0
  193.7630  175.8560  138.3220 N   0  0  0  0  0  2  0  0  0  0  0  0
  1 14  1  0  0  0  0
  1  9  1  0  0  0  0
  2  5  1  6  0  0  0
  2  3  1  0  0  0  0
  3 19  2  0  0  0  0
  3  7  1  0  0  0  0
  5 14  2  0  0  0  0
  6  1  2  0  0  0  0
  7  4  1  0  0  0  0
  7 11  2  0  0  0  0
  8 25  1  6  0  0  0
  8 13  1  0  0  0  0
 10 19  1  0  0  0  0
 12  8  1  0  0  0  0
 12 16  1  0  0  0  0
 13 18  1  1  0  0  0
 13  2  1  0  0  0  0
 15 11  1  0  0  0  0
 16  5  1  0  0  0  0
 17 16  2  0  0  0  0
 17  6  1  0  0  0  0
 18 10  1  0  0  0  0
 19 20  1  0  0  0  0
 20 15  2  0  0  0  0
 21 24  1  0  0  0  0
 23 25  1  0  0  0  0
 23 22  2  0  0  0  0
 24 23  1  0  0  0  0
 26 24  1  0  0  0  0
 27 26  1  0  0  0  0
 27 31  1  0  0  0  0
 28 29  1  0  0  0  0
 28 31  1  0  0  0  0
 30 28  2  0  0  0  0
M  END
>  <MODEL>
8

>  <REMARK>
 VINA RESULT:      -7.6      4.295      7.514
  Name = 
  4 active torsions:
  status: ('A' for Active; 'I' for Inactive)
    1  A    between atoms: C_6  and  C_19
    2  A    between atoms: C_6  and  N_22
    3  A    between atoms: C_15  and  N_23
    4  A    between atoms: C_19  and  N_24
                            x       y       z     vdW  Elec       q    Type
                         _______ _______ _______ _____ _____    ______ ____

>  <TORSDO>
F 4

$$$$
=
 OpenBabel11052413043D

 31 34  0  0  1  0  0  0  0  0999 V2000
  190.6420  176.7220  139.4300 C   0  0  0  0  0  0  0  0  0  0  0  0
  188.5340  176.8680  142.7660 C   0  0  2  0  0  3  0  0  0  0  0  0
  189.3210  177.2310  144.0980 C   0  0  0  0  0  0  0  0  0  0  0  0
  191.4750  177.6180  143.0800 O   0  0  0  0  0  1  0  0  0  0  0  0
  189.0720  177.1650  141.2910 C   0  0  0  0  0  0  0  0  0  0  0  0
  190.0050  177.7300  138.6940 C   0  0  0  0  0  3  0  0  0  0  0  0
  190.7190  177.5590  144.2390 C   0  0  0  0  0  0  0  0  0  0  0  0
  186.9350  178.7120  142.2260 C   0  0  2  0  0  3  0  0  0  0  0  0
  191.9760  176.0910  138.4740 Cl  0  0  0  0  0  0  0  0  0  0  0  0
  187.3120  176.7380  145.3110 C   0  0  0  0  0  2  0  0  0  0  0  0
  191.3050  177.8120  145.4640 C   0  0  0  0  0  3  0  0  0  0  0  0
  187.5460  179.0880  140.9450 C   0  0  0  0  0  2  0  0  0  0  0  0
  187.0380  177.3340  142.8370 C   0  0  2  0  0  3  0  0  0  0  0  0
  190.1860  176.4010  140.7430 C   0  0  0  0  0  3  0  0  0  0  0  0
  190.5640  177.7130  146.6530 C   0  0  0  0  0  3  0  0  0  0  0  0
  188.5950  178.2200  140.5450 C   0  0  0  0  0  0  0  0  0  0  0  0
  189.0410  178.4950  139.1850 C   0  0  0  0  0  3  0  0  0  0  0  0
  186.5170  177.5040  144.2820 C   0  0  0  0  0  2  0  0  0  0  0  0
  188.6880  177.1280  145.2870 C   0  0  0  0  0  0  0  0  0  0  0  0
  189.2640  177.3320  146.5830 C   0  0  0  0  0  3  0  0  0  0  0  0
  182.7190  179.0030  142.0310 C   0  0  0  0  0  1  0  0  0  0  0  0
  185.5140  178.4980  139.8140 O   0  0  0  0  0  0  0  0  0  0  0  0
  184.8910  178.8540  140.8440 C   0  0  0  0  0  0  0  0  0  0  0  0
  183.5490  179.1410  140.8000 N   0  0  0  0  0  0  0  0  0  0  0  0
  185.6350  179.1790  142.0270 N   0  0  0  0  0  2  0  0  0  0  0  0
  182.7860  178.7880  139.6620 C   0  0  0  0  0  2  0  0  0  0  0  0
  182.4250  177.2690  139.7660 C   0  0  0  0  0  2  0  0  0  0  0  0
  183.5130  175.8160  137.9480 C   0  0  0  0  0  0  0  0  0  0  0  0
  184.5480  176.4730  137.2080 C   0  0  0  0  0  1  0  0  0  0  0  0
  183.2950  174.5440  137.9680 O   0  0  0  0  0  0  0  0  0  0  0  0
  182.3830  176.6630  138.4780 N   0  0  0  0  0  2  0  0  0  0  0  0
  1 14  1  0  0  0  0
  2  5  1  6  0  0  0
  2 13  1  0  0  0  0
  2  3  1  0  0  0  0
  3  7  2  0  0  0  0
  3 19  1  0  0  0  0
  4  7  1  0  0  0  0
  6 17  1  0  0  0  0
  6  1  2  0  0  0  0
  7 11  1  0  0  0  0
  8 25  1  6  0  0  0
  8 13  1  0  0  0  0
  9  1  1  0  0  0  0
 11 15  2  0  0  0  0
 12  8  1  0  0  0  0
 13 18  1  1  0  0  0
 14  5  2  0  0  0  0
 16 12  1  0  0  0  0
 16  5  1  0  0  0  0
 17 16  2  0  0  0  0
 18 10  1  0  0  0  0
 19 10  1  0  0  0  0
 19 20  2  0  0  0  0
 20 15  1  0  0  0  0
 22 23  2  0  0  0  0
 23 25  1  0  0  0  0
 24 23  1  0  0  0  0
 24 21  1  0  0  0  0
 26 27  1  0  0  0  0
 26 24  1  0  0  0  0
 28 30  2  0  0  0  0
 28 31  1  0  0  0  0
 29 28  1  0  0  0  0
 31 27  1  0  0  0  0
M  END
>  <MODEL>
9

>  <REMARK>
 VINA RESULT:      -7.3      2.884      7.277
  Name = 
  4 active torsions:
  status: ('A' for Active; 'I' for Inactive)
    1  A    between atoms: C_6  and  C_19
    2  A    between atoms: C_6  and  N_22
    3  A    between atoms: C_15  and  N_23
    4  A    between atoms: C_19  and  N_24
                            x       y       z     vdW  Elec       q    Type
                         _______ _______ _______ _____ _____    ______ ____

>  <TORSDO>
F 4

$$$$
