=
 OpenBabel11052412183D

 30 35  0  0  1  0  0  0  0  0999 V2000
  187.5410  177.3160  140.7630 C   0  0  1  0  0  3  0  0  0  0  0  0
  188.4760  177.0940  141.9370 C   0  0  1  0  0  0  0  0  0  0  0  0
  186.6800  178.5530  141.0070 C   0  0  0  0  0  2  0  0  0  0  0  0
  185.7500  177.9400  144.6120 C   0  0  0  0  0  2  0  0  0  0  0  0
  190.2820  176.6710  144.0980 C   0  0  1  0  0  3  0  0  0  0  0  0
  186.7330  178.0270  143.4620 C   0  0  2  0  0  3  0  0  0  0  0  0
  184.7380  179.0960  142.6360 C   0  0  0  0  0  2  0  0  0  0  0  0
  190.7310  177.6620  143.0360 C   0  0  2  0  0  3  0  0  0  0  0  0
  185.8540  178.1630  142.2240 C   0  0  1  0  0  3  0  0  0  0  0  0
  187.8240  176.9280  143.3430 C   0  0  2  0  0  3  0  0  0  0  0  0
  191.3460  178.8210  143.7790 C   0  0  0  0  0  2  0  0  0  0  0  0
  191.2800  176.8490  145.2350 C   0  0  0  0  0  2  0  0  0  0  0  0
  183.6970  179.1450  144.7820 O   0  0  0  0  0  0  0  0  0  0  0  0
  184.6250  178.7680  144.0870 C   0  0  0  0  0  0  0  0  0  0  0  0
  188.7450  177.3210  139.8120 C   0  0  1  0  0  0  0  0  0  0  0  0
  189.6750  176.9780  141.0050 C   0  0  1  0  0  3  0  0  0  0  0  0
  189.6580  178.0760  142.0280 C   0  0  1  0  0  3  0  0  0  0  0  0
  191.9710  178.1920  145.0130 C   0  0  0  0  0  2  0  0  0  0  0  0
  188.6990  178.1250  145.4810 C   0  0  0  0  0  1  0  0  0  0  0  0
  188.8260  176.9180  144.5410 C   0  0  2  0  0  3  0  0  0  0  0  0
  188.6320  176.1710  138.7790 C   0  0  2  0  0  3  0  0  0  0  0  0
  189.8910  175.9480  137.9890 C   0  0  0  0  0  3  0  0  0  0  0  0
  190.6420  175.0270  138.2660 O   0  0  0  0  0  0  0  0  0  0  0  0
  187.4640  176.3570  137.8200 C   0  0  0  0  0  2  0  0  0  0  0  0
  187.5010  175.3670  136.8390 O   0  0  0  0  0  1  0  0  0  0  0  0
  188.9450  178.6960  139.1200 C   0  0  0  0  0  2  0  0  0  0  0  0
  189.6460  178.6690  137.7610 C   0  0  0  0  0  2  0  0  0  0  0  0
  188.7030  178.9220  136.6370 C   0  0  0  0  0  0  0  0  0  0  0  0
  188.9140  178.3630  135.4560 C   0  0  0  0  0  2  0  0  0  0  0  0
  187.6100  179.7590  136.8210 O   0  0  0  0  0  1  0  0  0  0  0  0
  1  3  1  1  0  0  0
  1  2  1  0  0  0  0
  2 17  1  0  0  0  0
  2 10  1  0  0  0  0
  3  9  1  0  0  0  0
  5 20  1  0  0  0  0
  5 12  1  0  0  0  0
  6  4  1  0  0  0  0
  7 14  1  0  0  0  0
  8 11  1  0  0  0  0
  8  5  1  0  0  0  0
  9  7  1  0  0  0  0
  9  6  1  0  0  0  0
 10  6  1  0  0  0  0
 10 20  1  0  0  0  0
 11 18  1  0  0  0  0
 14  4  1  0  0  0  0
 14 13  2  0  0  0  0
 15  1  1  0  0  0  0
 15 16  1  0  0  0  0
 16  2  1  0  0  0  0
 16 17  1  0  0  0  0
 17  8  1  0  0  0  0
 18 12  1  0  0  0  0
 20 19  1  0  0  0  0
 21 15  1  0  0  0  0
 22 23  2  0  0  0  0
 22 21  1  0  0  0  0
 24 21  1  0  0  0  0
 25 24  1  0  0  0  0
 26 15  1  0  0  0  0
 27 26  1  0  0  0  0
 28 30  1  0  0  0  0
 28 27  1  0  0  0  0
 29 28  2  0  0  0  0
M  END
>  <MODEL>
1

>  <REMARK>
 VINA RESULT:      -6.6      0.000      0.000
  Name = 
  6 active torsions:
  status: ('A' for Active; 'I' for Inactive)
    1  A    between atoms: C_2  and  C_14
    2  A    between atoms: C_3  and  C_19
    3  A    between atoms: C_14  and  C_20
    4  A    between atoms: C_14  and  C_22
    5  A    between atoms: C_19  and  C_29
    6  A    between atoms: C_22  and  C_29
                            x       y       z     vdW  Elec       q    Type
                         _______ _______ _______ _____ _____    ______ ____

>  <TORSDO>
F 6

$$$$
=
 OpenBabel11052412183D

 30 35  0  0  1  0  0  0  0  0999 V2000
  191.2950  176.5360  138.0320 C   0  0  1  0  0  3  0  0  0  0  0  0
  190.1490  177.0310  137.1700 C   0  0  1  0  0  0  0  0  0  0  0  0
  190.7520  175.9160  139.3180 C   0  0  0  0  0  2  0  0  0  0  0  0
  188.1620  178.5170  140.1940 C   0  0  0  0  0  2  0  0  0  0  0  0
  188.0250  177.9280  135.4980 C   0  0  1  0  0  3  0  0  0  0  0  0
  188.8640  177.5700  139.2410 C   0  0  2  0  0  3  0  0  0  0  0  0
  189.6020  176.8830  141.4290 C   0  0  0  0  0  2  0  0  0  0  0  0
  188.3820  176.4540  135.3910 C   0  0  2  0  0  3  0  0  0  0  0  0
  190.0880  177.0950  140.0140 C   0  0  1  0  0  3  0  0  0  0  0  0
  189.1800  178.0720  137.8050 C   0  0  2  0  0  3  0  0  0  0  0  0
  187.0730  175.7090  135.3240 C   0  0  0  0  0  2  0  0  0  0  0  0
  186.7160  178.0620  134.7290 C   0  0  0  0  0  2  0  0  0  0  0  0
  187.9980  178.2430  142.5590 O   0  0  0  0  0  0  0  0  0  0  0  0
  188.5280  177.9170  141.5100 C   0  0  0  0  0  0  0  0  0  0  0  0
  191.8060  175.6900  136.8580 C   0  0  1  0  0  0  0  0  0  0  0  0
  190.6980  176.2940  135.9550 C   0  0  1  0  0  3  0  0  0  0  0  0
  189.3350  175.9300  136.4660 C   0  0  1  0  0  3  0  0  0  0  0  0
  186.1350  176.6570  134.5940 C   0  0  0  0  0  2  0  0  0  0  0  0
  186.5890  177.9260  137.6120 C   0  0  0  0  0  1  0  0  0  0  0  0
  187.9010  178.3880  136.9650 C   0  0  2  0  0  3  0  0  0  0  0  0
  193.2340  176.1310  136.4460 C   0  0  2  0  0  3  0  0  0  0  0  0
  193.5130  175.9650  134.9790 C   0  0  0  0  0  3  0  0  0  0  0  0
  194.3430  175.1570  134.5940 O   0  0  0  0  0  0  0  0  0  0  0  0
  194.3190  175.4240  137.2460 C   0  0  0  0  0  2  0  0  0  0  0  0
  194.3740  175.9570  138.5330 O   0  0  0  0  0  1  0  0  0  0  0  0
  191.7380  174.1680  137.1540 C   0  0  0  0  0  2  0  0  0  0  0  0
  191.4960  173.2590  135.9480 C   0  0  0  0  0  2  0  0  0  0  0  0
  192.5500  172.2180  135.8070 C   0  0  0  0  0  0  0  0  0  0  0  0
  192.3770  171.2070  134.9710 C   0  0  0  0  0  2  0  0  0  0  0  0
  193.7110  172.2960  136.5660 O   0  0  0  0  0  1  0  0  0  0  0  0
  1  3  1  1  0  0  0
  2 10  1  0  0  0  0
  2  1  1  0  0  0  0
  3  9  1  0  0  0  0
  4 14  1  0  0  0  0
  5 20  1  0  0  0  0
  6  9  1  0  0  0  0
  6  4  1  0  0  0  0
  7 14  1  0  0  0  0
  8  5  1  0  0  0  0
  8 17  1  0  0  0  0
  9  7  1  0  0  0  0
 10  6  1  0  0  0  0
 11  8  1  0  0  0  0
 12  5  1  0  0  0  0
 14 13  2  0  0  0  0
 15 26  1  0  0  0  0
 15  1  1  0  0  0  0
 16 17  1  0  0  0  0
 16 15  1  0  0  0  0
 16  2  1  0  0  0  0
 17  2  1  0  0  0  0
 18 12  1  0  0  0  0
 18 11  1  0  0  0  0
 20 19  1  0  0  0  0
 20 10  1  0  0  0  0
 21 15  1  0  0  0  0
 21 24  1  0  0  0  0
 22 21  1  0  0  0  0
 23 22  2  0  0  0  0
 24 25  1  0  0  0  0
 27 26  1  0  0  0  0
 28 27  1  0  0  0  0
 28 30  1  0  0  0  0
 29 28  2  0  0  0  0
M  END
>  <MODEL>
2

>  <REMARK>
 VINA RESULT:      -6.5      3.159      6.952
  Name = 
  6 active torsions:
  status: ('A' for Active; 'I' for Inactive)
    1  A    between atoms: C_2  and  C_14
    2  A    between atoms: C_3  and  C_19
    3  A    between atoms: C_14  and  C_20
    4  A    between atoms: C_14  and  C_22
    5  A    between atoms: C_19  and  C_29
    6  A    between atoms: C_22  and  C_29
                            x       y       z     vdW  Elec       q    Type
                         _______ _______ _______ _____ _____    ______ ____

>  <TORSDO>
F 6

$$$$
=
 OpenBabel11052412183D

 30 35  0  0  1  0  0  0  0  0999 V2000
  183.3760  176.8710  137.8240 C   0  0  1  0  0  3  0  0  0  0  0  0
  184.7670  177.3440  137.4460 C   0  0  1  0  0  0  0  0  0  0  0  0
  183.4330  175.4290  138.3260 C   0  0  0  0  0  2  0  0  0  0  0  0
  185.7350  173.9710  135.7170 C   0  0  0  0  0  2  0  0  0  0  0  0
  187.3680  178.2880  136.7720 C   0  0  1  0  0  3  0  0  0  0  0  0
  185.3320  175.0170  136.7360 C   0  0  2  0  0  3  0  0  0  0  0  0
  183.8820  173.1470  137.1840 C   0  0  0  0  0  2  0  0  0  0  0  0
  186.9830  178.3810  138.2400 C   0  0  2  0  0  3  0  0  0  0  0  0
  183.8980  174.6560  137.1010 C   0  0  1  0  0  3  0  0  0  0  0  0
  185.5320  176.5140  136.3710 C   0  0  2  0  0  3  0  0  0  0  0  0
  188.1990  177.9470  139.0200 C   0  0  0  0  0  2  0  0  0  0  0  0
  188.8610  178.5890  136.7470 C   0  0  0  0  0  2  0  0  0  0  0  0
  185.1010  171.6700  135.7600 O   0  0  0  0  0  0  0  0  0  0  0  0
  184.9260  172.8040  136.1740 C   0  0  0  0  0  0  0  0  0  0  0  0
  183.2310  178.0710  138.7690 C   0  0  1  0  0  0  0  0  0  0  0  0
  184.6050  178.6040  138.2860 C   0  0  1  0  0  3  0  0  0  0  0  0
  185.7030  177.6420  138.6310 C   0  0  1  0  0  3  0  0  0  0  0  0
  189.3750  178.4040  138.1730 C   0  0  0  0  0  2  0  0  0  0  0  0
  188.0310  175.8250  136.6000 C   0  0  0  0  0  1  0  0  0  0  0  0
  187.0310  176.9080  136.1720 C   0  0  2  0  0  3  0  0  0  0  0  0
  182.0430  178.9680  138.3360 C   0  0  2  0  0  3  0  0  0  0  0  0
  182.2770  180.4320  138.5810 C   0  0  0  0  0  3  0  0  0  0  0  0
  181.5120  181.2670  138.1250 O   0  0  0  0  0  0  0  0  0  0  0  0
  180.7300  178.5540  138.9850 C   0  0  0  0  0  2  0  0  0  0  0  0
  179.8890  177.9960  138.0230 O   0  0  0  0  0  1  0  0  0  0  0  0
  183.1130  177.6400  140.2560 C   0  0  0  0  0  2  0  0  0  0  0  0
  183.2420  178.7580  141.2920 C   0  0  0  0  0  2  0  0  0  0  0  0
  184.5850  178.7780  141.9330 C   0  0  0  0  0  0  0  0  0  0  0  0
  184.8480  177.9690  142.9470 C   0  0  0  0  0  2  0  0  0  0  0  0
  185.5590  179.6570  141.4790 O   0  0  0  0  0  1  0  0  0  0  0  0
  1  3  1  1  0  0  0
  1 15  1  0  0  0  0
  2  1  1  0  0  0  0
  2 16  1  0  0  0  0
  2 17  1  0  0  0  0
  4 14  1  0  0  0  0
  4  6  1  0  0  0  0
  5  8  1  0  0  0  0
  6  9  1  0  0  0  0
  8 17  1  0  0  0  0
  8 11  1  0  0  0  0
  9  7  1  0  0  0  0
  9  3  1  0  0  0  0
 10  6  1  0  0  0  0
 10  2  1  0  0  0  0
 12  5  1  0  0  0  0
 12 18  1  0  0  0  0
 13 14  2  0  0  0  0
 14  7  1  0  0  0  0
 15 26  1  0  0  0  0
 16 17  1  0  0  0  0
 16 15  1  0  0  0  0
 18 11  1  0  0  0  0
 20 10  1  0  0  0  0
 20 19  1  0  0  0  0
 20  5  1  0  0  0  0
 21 22  1  0  0  0  0
 21 15  1  0  0  0  0
 21 24  1  0  0  0  0
 23 22  2  0  0  0  0
 25 24  1  0  0  0  0
 26 27  1  0  0  0  0
 27 28  1  0  0  0  0
 28 29  2  0  0  0  0
 30 28  1  0  0  0  0
M  END
>  <MODEL>
3

>  <REMARK>
 VINA RESULT:      -6.4      3.709      7.671
  Name = 
  6 active torsions:
  status: ('A' for Active; 'I' for Inactive)
    1  A    between atoms: C_2  and  C_14
    2  A    between atoms: C_3  and  C_19
    3  A    between atoms: C_14  and  C_20
    4  A    between atoms: C_14  and  C_22
    5  A    between atoms: C_19  and  C_29
    6  A    between atoms: C_22  and  C_29
                            x       y       z     vdW  Elec       q    Type
                         _______ _______ _______ _____ _____    ______ ____

>  <TORSDO>
F 6

$$$$
=
 OpenBabel11052412183D

 30 35  0  0  1  0  0  0  0  0999 V2000
  187.6160  177.3530  142.9980 C   0  0  1  0  0  3  0  0  0  0  0  0
  187.5570  177.2120  144.5080 C   0  0  1  0  0  0  0  0  0  0  0  0
  186.9040  178.6320  142.5640 C   0  0  0  0  0  2  0  0  0  0  0  0
  183.8300  178.3780  144.7380 C   0  0  0  0  0  2  0  0  0  0  0  0
  187.5110  176.9360  147.3420 C   0  0  1  0  0  3  0  0  0  0  0  0
  185.3250  178.3310  144.4930 C   0  0  2  0  0  3  0  0  0  0  0  0
  184.4220  179.3780  142.5200 C   0  0  0  0  0  2  0  0  0  0  0  0
  188.6160  177.8120  146.7740 C   0  0  2  0  0  3  0  0  0  0  0  0
  185.4610  178.3800  142.9770 C   0  0  1  0  0  3  0  0  0  0  0  0
  186.1440  177.1940  145.1650 C   0  0  2  0  0  3  0  0  0  0  0  0
  188.7020  179.0160  147.6780 C   0  0  0  0  0  2  0  0  0  0  0  0
  187.5560  177.1870  148.8440 C   0  0  0  0  0  2  0  0  0  0  0  0
  182.2530  179.6530  143.4780 O   0  0  0  0  0  0  0  0  0  0  0  0
  183.3770  179.1880  143.5690 C   0  0  0  0  0  0  0  0  0  0  0  0
  189.1450  177.2360  143.0530 C   0  0  1  0  0  0  0  0  0  0  0  0
  189.0600  176.9770  144.5800 C   0  0  1  0  0  3  0  0  0  0  0  0
  188.4790  178.1630  145.2920 C   0  0  1  0  0  3  0  0  0  0  0  0
  188.3350  178.4840  149.0530 C   0  0  0  0  0  2  0  0  0  0  0  0
  185.5350  178.5550  147.2970 C   0  0  0  0  0  1  0  0  0  0  0  0
  186.1370  177.2650  146.7250 C   0  0  2  0  0  3  0  0  0  0  0  0
  189.6290  176.0000  142.2520 C   0  0  2  0  0  3  0  0  0  0  0  0
  190.5010  175.0720  143.0500 C   0  0  0  0  0  3  0  0  0  0  0  0
  191.6230  175.4140  143.3890 O   0  0  0  0  0  0  0  0  0  0  0  0
  190.3460  176.3800  140.9650 C   0  0  0  0  0  2  0  0  0  0  0  0
  189.4110  176.7400  139.9960 O   0  0  0  0  0  1  0  0  0  0  0  0
  189.8540  178.5360  142.5860 C   0  0  0  0  0  2  0  0  0  0  0  0
  191.3600  178.6100  142.8420 C   0  0  0  0  0  2  0  0  0  0  0  0
  191.6740  178.9030  144.2670 C   0  0  0  0  0  0  0  0  0  0  0  0
  191.6060  180.1460  144.7180 C   0  0  0  0  0  2  0  0  0  0  0  0
  192.0560  177.8780  145.1210 O   0  0  0  0  0  1  0  0  0  0  0  0
  1  3  1  1  0  0  0
  1 15  1  0  0  0  0
  1  2  1  0  0  0  0
  2 16  1  0  0  0  0
  2 10  1  0  0  0  0
  2 17  1  0  0  0  0
  3  9  1  0  0  0  0
  5 12  1  0  0  0  0
  6  4  1  0  0  0  0
  6 10  1  0  0  0  0
  7  9  1  0  0  0  0
  7 14  1  0  0  0  0
  8  5  1  0  0  0  0
  8 11  1  0  0  0  0
  9  6  1  0  0  0  0
 10 20  1  0  0  0  0
 11 18  1  0  0  0  0
 12 18  1  0  0  0  0
 13 14  2  0  0  0  0
 14  4  1  0  0  0  0
 15 16  1  0  0  0  0
 16 17  1  0  0  0  0
 17  8  1  0  0  0  0
 20 19  1  0  0  0  0
 20  5  1  0  0  0  0
 21 22  1  0  0  0  0
 21 15  1  0  0  0  0
 22 23  2  0  0  0  0
 24 21  1  0  0  0  0
 25 24  1  0  0  0  0
 26 27  1  0  0  0  0
 26 15  1  0  0  0  0
 27 28  1  0  0  0  0
 28 29  2  0  0  0  0
 28 30  1  0  0  0  0
M  END
>  <MODEL>
4

>  <REMARK>
 VINA RESULT:      -6.3      2.612      4.510
  Name = 
  6 active torsions:
  status: ('A' for Active; 'I' for Inactive)
    1  A    between atoms: C_2  and  C_14
    2  A    between atoms: C_3  and  C_19
    3  A    between atoms: C_14  and  C_20
    4  A    between atoms: C_14  and  C_22
    5  A    between atoms: C_19  and  C_29
    6  A    between atoms: C_22  and  C_29
                            x       y       z     vdW  Elec       q    Type
                         _______ _______ _______ _____ _____    ______ ____

>  <TORSDO>
F 6

$$$$
=
 OpenBabel11052412183D

 30 35  0  0  1  0  0  0  0  0999 V2000
  186.0780  177.8820  137.3520 C   0  0  1  0  0  3  0  0  0  0  0  0
  185.2740  176.7150  136.8100 C   0  0  1  0  0  0  0  0  0  0  0  0
  185.6780  178.1660  138.7990 C   0  0  0  0  0  2  0  0  0  0  0  0
  181.9290  177.9120  138.4490 C   0  0  0  0  0  2  0  0  0  0  0  0
  183.8220  174.4960  135.7720 C   0  0  1  0  0  3  0  0  0  0  0  0
  183.3470  177.4220  138.2320 C   0  0  2  0  0  3  0  0  0  0  0  0
  183.5480  179.1340  139.9150 C   0  0  0  0  0  2  0  0  0  0  0  0
  185.0640  174.1610  136.5820 C   0  0  2  0  0  3  0  0  0  0  0  0
  184.2210  178.5890  138.6760 C   0  0  1  0  0  3  0  0  0  0  0  0
  183.7220  176.8480  136.8380 C   0  0  2  0  0  3  0  0  0  0  0  0
  184.6890  172.9930  137.4590 C   0  0  0  0  0  2  0  0  0  0  0  0
  183.1120  173.1610  135.5870 C   0  0  0  0  0  2  0  0  0  0  0  0
  181.1910  179.2830  140.2580 O   0  0  0  0  0  0  0  0  0  0  0  0
  182.1200  178.8270  139.6120 C   0  0  0  0  0  0  0  0  0  0  0  0
  187.3760  177.1530  136.9810 C   0  0  1  0  0  0  0  0  0  0  0  0
  186.5410  176.0210  136.3270 C   0  0  1  0  0  3  0  0  0  0  0  0
  185.6840  175.3310  137.3470 C   0  0  1  0  0  3  0  0  0  0  0  0
  183.6850  172.2060  136.6330 C   0  0  0  0  0  2  0  0  0  0  0  0
  182.1320  174.9480  137.6350 C   0  0  0  0  0  1  0  0  0  0  0  0
  182.9380  175.5460  136.4740 C   0  0  2  0  0  3  0  0  0  0  0  0
  188.1930  177.9780  135.9550 C   0  0  2  0  0  3  0  0  0  0  0  0
  188.7690  177.1490  134.8410 C   0  0  0  0  0  3  0  0  0  0  0  0
  189.9720  176.9500  134.7750 O   0  0  0  0  0  0  0  0  0  0  0  0
  189.3060  178.7870  136.6060 C   0  0  0  0  0  2  0  0  0  0  0  0
  188.7560  179.8460  137.3260 O   0  0  0  0  0  1  0  0  0  0  0  0
  188.2250  176.7870  138.2290 C   0  0  0  0  0  2  0  0  0  0  0  0
  189.3570  175.7850  138.0010 C   0  0  0  0  0  2  0  0  0  0  0  0
  190.5900  176.1500  138.7500 C   0  0  0  0  0  0  0  0  0  0  0  0
  191.7300  176.3330  138.1020 C   0  0  0  0  0  2  0  0  0  0  0  0
  190.5510  176.2820  140.1310 O   0  0  0  0  0  1  0  0  0  0  0  0
  1  3  1  1  0  0  0
  2 10  1  0  0  0  0
  2 17  1  0  0  0  0
  2  1  1  0  0  0  0
  4 14  1  0  0  0  0
  5 20  1  0  0  0  0
  5  8  1  0  0  0  0
  6  4  1  0  0  0  0
  6  9  1  0  0  0  0
  8 17  1  0  0  0  0
  8 11  1  0  0  0  0
  9  3  1  0  0  0  0
  9  7  1  0  0  0  0
 10  6  1  0  0  0  0
 12  5  1  0  0  0  0
 12 18  1  0  0  0  0
 14  7  1  0  0  0  0
 14 13  2  0  0  0  0
 15  1  1  0  0  0  0
 15 26  1  0  0  0  0
 16  2  1  0  0  0  0
 16 15  1  0  0  0  0
 16 17  1  0  0  0  0
 18 11  1  0  0  0  0
 20 10  1  0  0  0  0
 20 19  1  0  0  0  0
 21 24  1  0  0  0  0
 21 15  1  0  0  0  0
 22 21  1  0  0  0  0
 23 22  2  0  0  0  0
 24 25  1  0  0  0  0
 27 26  1  0  0  0  0
 27 28  1  0  0  0  0
 28 30  1  0  0  0  0
 29 28  2  0  0  0  0
M  END
>  <MODEL>
5

>  <REMARK>
 VINA RESULT:      -6.0      4.024      6.856
  Name = 
  6 active torsions:
  status: ('A' for Active; 'I' for Inactive)
    1  A    between atoms: C_2  and  C_14
    2  A    between atoms: C_3  and  C_19
    3  A    between atoms: C_14  and  C_20
    4  A    between atoms: C_14  and  C_22
    5  A    between atoms: C_19  and  C_29
    6  A    between atoms: C_22  and  C_29
                            x       y       z     vdW  Elec       q    Type
                         _______ _______ _______ _____ _____    ______ ____

>  <TORSDO>
F 6

$$$$
=
 OpenBabel11052412183D

 30 35  0  0  1  0  0  0  0  0999 V2000
  186.1050  178.3580  138.4890 C   0  0  1  0  0  3  0  0  0  0  0  0
  184.8690  177.6420  137.9790 C   0  0  1  0  0  0  0  0  0  0  0  0
  186.2720  178.1090  139.9870 C   0  0  0  0  0  2  0  0  0  0  0  0
  182.6970  178.6120  141.0850 C   0  0  0  0  0  2  0  0  0  0  0  0
  182.5850  176.2720  136.9700 C   0  0  1  0  0  3  0  0  0  0  0  0
  183.7700  178.0280  140.1880 C   0  0  2  0  0  3  0  0  0  0  0  0
  184.9730  178.8840  142.0910 C   0  0  0  0  0  2  0  0  0  0  0  0
  183.8600  175.4530  137.0790 C   0  0  2  0  0  3  0  0  0  0  0  0
  185.0400  178.7710  140.5860 C   0  0  1  0  0  3  0  0  0  0  0  0
  183.5110  177.9980  138.6560 C   0  0  2  0  0  3  0  0  0  0  0  0
  183.4490  174.1090  137.6270 C   0  0  0  0  0  2  0  0  0  0  0  0
  181.4940  175.2490  136.6800 C   0  0  0  0  0  2  0  0  0  0  0  0
  182.9890  179.2570  143.3640 O   0  0  0  0  0  0  0  0  0  0  0  0
  183.4960  178.9520  142.2980 C   0  0  0  0  0  0  0  0  0  0  0  0
  186.9520  177.6380  137.4320 C   0  0  1  0  0  0  0  0  0  0  0  0
  185.6630  177.0030  136.8470 C   0  0  1  0  0  3  0  0  0  0  0  0
  185.0000  176.1130  137.8560 C   0  0  1  0  0  3  0  0  0  0  0  0
  182.0550  173.8820  137.0660 C   0  0  0  0  0  2  0  0  0  0  0  0
  181.7620  176.2160  139.3890 C   0  0  0  0  0  1  0  0  0  0  0  0
  182.3080  177.0870  138.2500 C   0  0  2  0  0  3  0  0  0  0  0  0
  187.6170  178.6590  136.4740 C   0  0  2  0  0  3  0  0  0  0  0  0
  187.5810  178.2400  135.0310 C   0  0  0  0  0  3  0  0  0  0  0  0
  188.4060  177.4550  134.5940 O   0  0  0  0  0  0  0  0  0  0  0  0
  189.0510  178.9830  136.8670 C   0  0  0  0  0  2  0  0  0  0  0  0
  189.0530  179.8310  137.9730 O   0  0  0  0  0  1  0  0  0  0  0  0
  187.9980  176.6800  138.0650 C   0  0  0  0  0  2  0  0  0  0  0  0
  188.4170  175.4840  137.2100 C   0  0  0  0  0  2  0  0  0  0  0  0
  189.8360  175.0980  137.4410 C   0  0  0  0  0  0  0  0  0  0  0  0
  190.7750  176.0290  137.5040 C   0  0  0  0  0  2  0  0  0  0  0  0
  190.1800  173.7590  137.5750 O   0  0  0  0  0  1  0  0  0  0  0  0
  1  3  1  1  0  0  0
  2  1  1  0  0  0  0
  2 10  1  0  0  0  0
  3  9  1  0  0  0  0
  4 14  1  0  0  0  0
  5  8  1  0  0  0  0
  5 20  1  0  0  0  0
  6  9  1  0  0  0  0
  6  4  1  0  0  0  0
  7 14  1  0  0  0  0
  8 11  1  0  0  0  0
  8 17  1  0  0  0  0
  9  7  1  0  0  0  0
 10  6  1  0  0  0  0
 12  5  1  0  0  0  0
 12 18  1  0  0  0  0
 14 13  2  0  0  0  0
 15 26  1  0  0  0  0
 15  1  1  0  0  0  0
 16 15  1  0  0  0  0
 16 17  1  0  0  0  0
 16  2  1  0  0  0  0
 17  2  1  0  0  0  0
 18 11  1  0  0  0  0
 20 10  1  0  0  0  0
 20 19  1  0  0  0  0
 21 24  1  0  0  0  0
 21 15  1  0  0  0  0
 22 21  1  0  0  0  0
 23 22  2  0  0  0  0
 24 25  1  0  0  0  0
 27 28  1  0  0  0  0
 27 26  1  0  0  0  0
 28 29  2  0  0  0  0
 28 30  1  0  0  0  0
M  END
>  <MODEL>
6

>  <REMARK>
 VINA RESULT:      -5.8      3.536      6.435
  Name = 
  6 active torsions:
  status: ('A' for Active; 'I' for Inactive)
    1  A    between atoms: C_2  and  C_14
    2  A    between atoms: C_3  and  C_19
    3  A    between atoms: C_14  and  C_20
    4  A    between atoms: C_14  and  C_22
    5  A    between atoms: C_19  and  C_29
    6  A    between atoms: C_22  and  C_29
                            x       y       z     vdW  Elec       q    Type
                         _______ _______ _______ _____ _____    ______ ____

>  <TORSDO>
F 6

$$$$
=
 OpenBabel11052412183D

 30 35  0  0  1  0  0  0  0  0999 V2000
  187.8080  178.3290  142.9390 C   0  0  1  0  0  3  0  0  0  0  0  0
  188.2310  178.4150  141.4850 C   0  0  1  0  0  0  0  0  0  0  0  0
  186.5350  177.4950  143.0650 C   0  0  0  0  0  2  0  0  0  0  0  0
  184.5810  178.9360  140.1770 C   0  0  0  0  0  2  0  0  0  0  0  0
  189.0860  178.5580  138.7720 C   0  0  1  0  0  3  0  0  0  0  0  0
  185.8260  178.3530  140.8150 C   0  0  2  0  0  3  0  0  0  0  0  0
  184.0630  177.8790  142.3870 C   0  0  0  0  0  2  0  0  0  0  0  0
  189.5170  177.3210  139.5440 C   0  0  2  0  0  3  0  0  0  0  0  0
  185.5070  178.3190  142.3040 C   0  0  1  0  0  3  0  0  0  0  0  0
  187.1970  179.0030  140.4780 C   0  0  2  0  0  3  0  0  0  0  0  0
  189.3340  176.1560  138.6040 C   0  0  0  0  0  2  0  0  0  0  0  0
  189.4320  178.2450  137.3220 C   0  0  0  0  0  2  0  0  0  0  0  0
  182.3360  178.5100  140.8660 O   0  0  0  0  0  0  0  0  0  0  0  0
  183.5280  178.4480  141.1150 C   0  0  0  0  0  0  0  0  0  0  0  0
  189.1950  177.7820  143.3040 C   0  0  1  0  0  0  0  0  0  0  0  0
  189.6500  177.9840  141.8350 C   0  0  1  0  0  3  0  0  0  0  0  0
  188.8440  177.1280  140.9030 C   0  0  1  0  0  3  0  0  0  0  0  0
  189.6180  176.7320  137.2260 C   0  0  0  0  0  2  0  0  0  0  0  0
  186.6840  177.9370  138.1600 C   0  0  0  0  0  1  0  0  0  0  0  0
  187.5900  178.8730  138.9720 C   0  0  2  0  0  3  0  0  0  0  0  0
  189.9120  178.7290  144.3000 C   0  0  2  0  0  3  0  0  0  0  0  0
  191.2640  179.1840  143.8260 C   0  0  0  0  0  3  0  0  0  0  0  0
  192.2490  179.0390  144.5310 O   0  0  0  0  0  0  0  0  0  0  0  0
  190.0460  178.1240  145.6900 C   0  0  0  0  0  2  0  0  0  0  0  0
  188.8380  178.2530  146.3750 O   0  0  0  0  0  1  0  0  0  0  0  0
  189.1330  176.3260  143.8400 C   0  0  0  0  0  2  0  0  0  0  0  0
  190.1200  175.3380  143.2180 C   0  0  0  0  0  2  0  0  0  0  0  0
  191.5280  175.6380  143.5940 C   0  0  0  0  0  0  0  0  0  0  0  0
  192.0000  175.2440  144.7670 C   0  0  0  0  0  2  0  0  0  0  0  0
  192.3460  176.3460  142.7240 O   0  0  0  0  0  1  0  0  0  0  0  0
  1  3  1  6  0  0  0
  1 15  1  0  0  0  0
  2 16  1  0  0  0  0
  2  1  1  0  0  0  0
  4  6  1  0  0  0  0
  4 14  1  0  0  0  0
  5 20  1  0  0  0  0
  5  8  1  0  0  0  0
  6  9  1  0  0  0  0
  8 17  1  0  0  0  0
  9  7  1  0  0  0  0
  9  3  1  0  0  0  0
 10  6  1  0  0  0  0
 10  2  1  0  0  0  0
 11  8  1  0  0  0  0
 12  5  1  0  0  0  0
 13 14  2  0  0  0  0
 14  7  1  0  0  0  0
 15 26  1  0  0  0  0
 15 21  1  0  0  0  0
 16 15  1  0  0  0  0
 17  2  1  0  0  0  0
 17 16  1  0  0  0  0
 18 12  1  0  0  0  0
 18 11  1  0  0  0  0
 19 20  1  0  0  0  0
 20 10  1  0  0  0  0
 21 24  1  0  0  0  0
 22 21  1  0  0  0  0
 22 23  2  0  0  0  0
 24 25  1  0  0  0  0
 27 28  1  0  0  0  0
 27 26  1  0  0  0  0
 28 29  2  0  0  0  0
 30 28  1  0  0  0  0
M  END
>  <MODEL>
7

>  <REMARK>
 VINA RESULT:      -5.7      2.452      5.903
  Name = 
  6 active torsions:
  status: ('A' for Active; 'I' for Inactive)
    1  A    between atoms: C_2  and  C_14
    2  A    between atoms: C_3  and  C_19
    3  A    between atoms: C_14  and  C_20
    4  A    between atoms: C_14  and  C_22
    5  A    between atoms: C_19  and  C_29
    6  A    between atoms: C_22  and  C_29
                            x       y       z     vdW  Elec       q    Type
                         _______ _______ _______ _____ _____    ______ ____

>  <TORSDO>
F 6

$$$$
=
 OpenBabel11052412183D

 30 35  0  0  1  0  0  0  0  0999 V2000
  191.6070  176.0200  137.0720 C   0  0  1  0  0  3  0  0  0  0  0  0
  190.4090  175.3510  136.4260 C   0  0  1  0  0  0  0  0  0  0  0  0
  191.3440  176.2370  138.5610 C   0  0  0  0  0  2  0  0  0  0  0  0
  187.8050  177.5320  138.3670 C   0  0  0  0  0  2  0  0  0  0  0  0
  188.2010  174.0500  135.1840 C   0  0  1  0  0  3  0  0  0  0  0  0
  188.9130  176.5580  138.0200 C   0  0  2  0  0  3  0  0  0  0  0  0
  189.7690  177.8040  139.8960 C   0  0  0  0  0  2  0  0  0  0  0  0
  189.2030  173.1440  135.8820 C   0  0  2  0  0  3  0  0  0  0  0  0
  190.1760  177.2130  138.5660 C   0  0  1  0  0  3  0  0  0  0  0  0
  189.0370  176.0800  136.5460 C   0  0  2  0  0  3  0  0  0  0  0  0
  188.3900  172.1100  136.6190 C   0  0  0  0  0  2  0  0  0  0  0  0
  187.0210  173.1410  134.8650 C   0  0  0  0  0  2  0  0  0  0  0  0
  187.6620  178.8200  140.3710 O   0  0  0  0  0  0  0  0  0  0  0  0
  188.3370  178.1290  139.6270 C   0  0  0  0  0  0  0  0  0  0  0  0
  192.5110  174.8980  136.5470 C   0  0  1  0  0  0  0  0  0  0  0  0
  191.2990  174.2880  135.7950 C   0  0  1  0  0  3  0  0  0  0  0  0
  190.2330  173.8580  136.7590 C   0  0  1  0  0  3  0  0  0  0  0  0
  187.1610  171.9050  135.7500 C   0  0  0  0  0  2  0  0  0  0  0  0
  186.8190  174.8700  137.1710 C   0  0  0  0  0  1  0  0  0  0  0  0
  187.8030  175.2560  136.0580 C   0  0  2  0  0  3  0  0  0  0  0  0
  193.5950  175.4660  135.5960 C   0  0  2  0  0  3  0  0  0  0  0  0
  194.1000  174.4640  134.5960 C   0  0  0  0  0  3  0  0  0  0  0  0
  195.1710  173.9050  134.7670 O   0  0  0  0  0  0  0  0  0  0  0  0
  194.7750  176.0670  136.3450 C   0  0  0  0  0  2  0  0  0  0  0  0
  194.8040  177.4460  136.1440 O   0  0  0  0  0  1  0  0  0  0  0  0
  193.1370  174.0590  137.6940 C   0  0  0  0  0  2  0  0  0  0  0  0
  193.7810  172.7340  137.2830 C   0  0  0  0  0  2  0  0  0  0  0  0
  195.0470  172.4720  138.0200 C   0  0  0  0  0  0  0  0  0  0  0  0
  195.6650  171.3080  137.8860 C   0  0  0  0  0  2  0  0  0  0  0  0
  195.5750  173.4410  138.8640 O   0  0  0  0  0  1  0  0  0  0  0  0
  1  3  1  1  0  0  0
  2 10  1  0  0  0  0
  2 17  1  0  0  0  0
  2  1  1  0  0  0  0
  3  9  1  0  0  0  0
  4 14  1  0  0  0  0
  5  8  1  0  0  0  0
  5 20  1  0  0  0  0
  6  4  1  0  0  0  0
  6  9  1  0  0  0  0
  8 11  1  0  0  0  0
  8 17  1  0  0  0  0
  9  7  1  0  0  0  0
 10  6  1  0  0  0  0
 12  5  1  0  0  0  0
 12 18  1  0  0  0  0
 14  7  1  0  0  0  0
 14 13  2  0  0  0  0
 15  1  1  0  0  0  0
 15 26  1  0  0  0  0
 16  2  1  0  0  0  0
 16 15  1  0  0  0  0
 16 17  1  0  0  0  0
 18 11  1  0  0  0  0
 20 10  1  0  0  0  0
 20 19  1  0  0  0  0
 21 24  1  0  0  0  0
 21 15  1  0  0  0  0
 22 23  2  0  0  0  0
 22 21  1  0  0  0  0
 25 24  1  0  0  0  0
 27 26  1  0  0  0  0
 27 28  1  0  0  0  0
 28 30  1  0  0  0  0
 29 28  2  0  0  0  0
M  END
>  <MODEL>
8

>  <REMARK>
 VINA RESULT:      -5.7      3.889      7.742
  Name = 
  6 active torsions:
  status: ('A' for Active; 'I' for Inactive)
    1  A    between atoms: C_2  and  C_14
    2  A    between atoms: C_3  and  C_19
    3  A    between atoms: C_14  and  C_20
    4  A    between atoms: C_14  and  C_22
    5  A    between atoms: C_19  and  C_29
    6  A    between atoms: C_22  and  C_29
                            x       y       z     vdW  Elec       q    Type
                         _______ _______ _______ _____ _____    ______ ____

>  <TORSDO>
F 6

$$$$
=
 OpenBabel11052412183D

 30 35  0  0  1  0  0  0  0  0999 V2000
  184.9030  176.7150  137.5620 C   0  0  1  0  0  3  0  0  0  0  0  0
  184.5450  175.2440  137.4620 C   0  0  1  0  0  0  0  0  0  0  0  0
  185.6140  177.1670  136.2890 C   0  0  0  0  0  2  0  0  0  0  0  0
  187.9620  174.2480  135.8390 C   0  0  0  0  0  2  0  0  0  0  0  0
  183.8110  172.4980  137.2940 C   0  0  1  0  0  3  0  0  0  0  0  0
  186.6040  174.8670  136.1010 C   0  0  2  0  0  3  0  0  0  0  0  0
  187.9480  176.6850  135.2690 C   0  0  0  0  0  2  0  0  0  0  0  0
  182.8500  173.4860  136.6520 C   0  0  2  0  0  3  0  0  0  0  0  0
  186.8970  176.3490  136.3020 C   0  0  1  0  0  3  0  0  0  0  0  0
  185.7130  174.2440  137.2110 C   0  0  2  0  0  3  0  0  0  0  0  0
  182.4270  172.8690  135.3430 C   0  0  0  0  0  2  0  0  0  0  0  0
  183.3270  171.1320  136.8220 C   0  0  0  0  0  2  0  0  0  0  0  0
  189.7330  175.2520  134.5940 O   0  0  0  0  0  0  0  0  0  0  0  0
  188.6660  175.3800  135.1700 C   0  0  0  0  0  0  0  0  0  0  0  0
  183.4330  177.0470  137.8510 C   0  0  1  0  0  0  0  0  0  0  0  0
  183.1030  175.5310  137.8600 C   0  0  1  0  0  3  0  0  0  0  0  0
  183.3730  174.9170  136.5190 C   0  0  1  0  0  3  0  0  0  0  0  0
  182.4290  171.3730  135.6110 C   0  0  0  0  0  2  0  0  0  0  0  0
  185.5970  172.3070  135.4770 C   0  0  0  0  0  1  0  0  0  0  0  0
  185.2760  172.7760  136.9020 C   0  0  2  0  0  3  0  0  0  0  0  0
  183.2850  177.7120  139.2430 C   0  0  2  0  0  3  0  0  0  0  0  0
  182.0320  177.3100  139.9690 C   0  0  0  0  0  3  0  0  0  0  0  0
  181.4410  178.1110  140.6760 O   0  0  0  0  0  0  0  0  0  0  0  0
  183.3620  179.2300  139.1790 C   0  0  0  0  0  2  0  0  0  0  0  0
  184.6730  179.6430  139.4140 O   0  0  0  0  0  1  0  0  0  0  0  0
  182.7920  177.9110  136.7310 C   0  0  0  0  0  2  0  0  0  0  0  0
  181.2660  177.8720  136.6410 C   0  0  0  0  0  2  0  0  0  0  0  0
  180.7000  179.1470  136.1230 C   0  0  0  0  0  0  0  0  0  0  0  0
  180.8180  180.2610  136.8290 C   0  0  0  0  0  2  0  0  0  0  0  0
  180.0320  179.1670  134.9060 O   0  0  0  0  0  1  0  0  0  0  0  0
  1  3  1  6  0  0  0
  1 15  1  0  0  0  0
  2  1  1  0  0  0  0
  2 16  1  0  0  0  0
  3  9  1  0  0  0  0
  4  6  1  0  0  0  0
  6  9  1  0  0  0  0
  6 10  1  0  0  0  0
  7  9  1  0  0  0  0
  8  5  1  0  0  0  0
 10  2  1  0  0  0  0
 11 18  1  0  0  0  0
 11  8  1  0  0  0  0
 12  5  1  0  0  0  0
 13 14  2  0  0  0  0
 14  7  1  0  0  0  0
 14  4  1  0  0  0  0
 15 16  1  0  0  0  0
 15 21  1  0  0  0  0
 17  8  1  0  0  0  0
 17  2  1  0  0  0  0
 17 16  1  0  0  0  0
 18 12  1  0  0  0  0
 19 20  1  0  0  0  0
 20 10  1  0  0  0  0
 20  5  1  0  0  0  0
 21 22  1  0  0  0  0
 22 23  2  0  0  0  0
 24 21  1  0  0  0  0
 24 25  1  0  0  0  0
 26 15  1  0  0  0  0
 27 26  1  0  0  0  0
 28 27  1  0  0  0  0
 28 29  2  0  0  0  0
 30 28  1  0  0  0  0
M  END
>  <MODEL>
9

>  <REMARK>
 VINA RESULT:      -5.5      5.734      9.016
  Name = 
  6 active torsions:
  status: ('A' for Active; 'I' for Inactive)
    1  A    between atoms: C_2  and  C_14
    2  A    between atoms: C_3  and  C_19
    3  A    between atoms: C_14  and  C_20
    4  A    between atoms: C_14  and  C_22
    5  A    between atoms: C_19  and  C_29
    6  A    between atoms: C_22  and  C_29
                            x       y       z     vdW  Elec       q    Type
                         _______ _______ _______ _____ _____    ______ ____

>  <TORSDO>
F 6

$$$$
