=
 OpenBabel11052412503D

 25 27  0  0  1  0  0  0  0  0999 V2000
  188.9070  177.5600  140.6530 C   0  0  0  0  0  0  0  0  0  0  0  0
  187.7980  177.8270  141.4300 C   0  0  0  0  0  0  0  0  0  0  0  0
  188.6890  178.0670  139.4160 N   0  0  0  0  0  0  0  0  0  0  0  0
  187.4830  178.6250  139.3770 N   0  0  0  0  0  0  0  0  0  0  0  0
  185.6990  178.9440  141.0380 C   0  0  2  0  0  3  0  0  0  0  0  0
  184.8290  179.6070  140.1830 O   0  0  0  0  0  1  0  0  0  0  0  0
  187.5030  177.6100  142.7760 C   0  0  0  0  0  3  0  0  0  0  0  0
  185.3590  178.7230  142.3840 C   0  0  0  0  0  3  0  0  0  0  0  0
  186.2590  178.0590  143.2580 C   0  0  0  0  0  0  0  0  0  0  0  0
  186.9370  178.4830  140.5960 C   0  0  0  0  0  0  0  0  0  0  0  0
  190.1740  176.9180  141.0570 C   0  0  0  0  0  0  0  0  0  0  0  0
  190.7800  176.2070  140.2100 O   0  0  0  0  0  0  0  0  0  0  0  0
  190.7410  177.0540  142.4160 C   0  0  0  0  0  0  0  0  0  0  0  0
  191.7430  177.2970  145.0280 C   0  0  0  0  0  3  0  0  0  0  0  0
  190.8400  175.9280  143.2470 C   0  0  0  0  0  3  0  0  0  0  0  0
  191.3450  176.0480  144.5460 C   0  0  0  0  0  3  0  0  0  0  0  0
  191.6340  178.4270  144.2130 C   0  0  0  0  0  3  0  0  0  0  0  0
  191.1290  178.3070  142.9160 C   0  0  0  0  0  3  0  0  0  0  0  0
  185.9410  177.8350  144.6000 O   0  0  0  0  0  0  0  0  0  0  0  0
  186.9000  177.4910  145.5540 C   0  0  0  0  0  3  0  0  0  0  0  0
  186.8970  178.0320  146.7720 C   0  0  0  0  0  0  0  0  0  0  0  0
  185.8520  179.0320  147.1470 C   0  0  0  0  0  1  0  0  0  0  0  0
  187.9250  177.6470  147.7550 C   0  0  0  0  0  0  0  0  0  0  0  0
  188.9520  176.7210  147.4090 N   0  0  0  0  0  1  0  0  0  0  0  0
  187.9040  178.1350  148.9160 O   0  0  0  0  0  0  0  0  0  0  0  0
  1 11  1  0  0  0  0
  1  2  1  0  0  0  0
  2  7  2  0  0  0  0
  3  1  2  0  0  0  0
  4  3  1  0  0  0  0
  4 10  2  0  0  0  0
  5  6  1  1  0  0  0
  5  8  1  0  0  0  0
  7  9  1  0  0  0  0
  8  9  2  0  0  0  0
  9 19  1  0  0  0  0
 10  5  1  0  0  0  0
 10  2  1  0  0  0  0
 11 13  1  0  0  0  0
 12 11  2  0  0  0  0
 13 18  2  0  0  0  0
 13 15  1  0  0  0  0
 15 16  2  0  0  0  0
 16 14  1  0  0  0  0
 17 14  2  0  0  0  0
 18 17  1  0  0  0  0
 19 20  1  0  0  0  0
 20 21  2  0  0  0  0
 21 22  1  0  0  0  0
 21 23  1  0  0  0  0
 23 25  2  0  0  0  0
 24 23  1  0  0  0  0
M  END
>  <MODEL>
1

>  <REMARK>
 VINA RESULT:      -8.7      0.000      0.000
  Name = 
  5 active torsions:
  status: ('A' for Active; 'I' for Inactive)
    1  A    between atoms: C_1  and  C_18
    2  A    between atoms: C_2  and  C_21
    3  A    between atoms: C_5  and  C_18
    4  A    between atoms: O_6  and  C_15
    5  A    between atoms: O_6  and  C_23
                            x       y       z     vdW  Elec       q    Type
                         _______ _______ _______ _____ _____    ______ ____

>  <TORSDO>
F 5

$$$$
=
 OpenBabel11052412503D

 25 27  0  0  0  0  0  0  0  0999 V2000
  187.8680  177.7220  146.3330 C   0  0  0  0  0  0  0  0  0  0  0  0
  187.0410  178.0190  145.2690 C   0  0  0  0  0  0  0  0  0  0  0  0
  187.1680  177.9070  147.4790 N   0  0  0  0  0  2  0  0  0  0  0  0
  185.9420  178.3260  147.1800 N   0  0  0  0  0  0  0  0  0  0  0  0
  184.7540  178.7490  145.0700 C   0  0  0  0  0  0  0  0  0  0  0  0
  183.5570  179.1340  145.6580 O   0  0  0  0  0  1  0  0  0  0  0  0
  187.2020  177.9350  143.8870 C   0  0  0  0  0  3  0  0  0  0  0  0
  184.8860  178.6990  143.6710 C   0  0  0  0  0  3  0  0  0  0  0  0
  186.1080  178.2900  143.0750 C   0  0  0  0  0  0  0  0  0  0  0  0
  185.8590  178.3960  145.8410 C   0  0  0  0  0  0  0  0  0  0  0  0
  189.2520  177.2060  146.3010 C   0  0  0  0  0  0  0  0  0  0  0  0
  189.6840  176.5910  147.3130 O   0  0  0  0  0  0  0  0  0  0  0  0
  190.1520  177.4050  145.1450 C   0  0  0  0  0  0  0  0  0  0  0  0
  191.8010  177.8260  142.9110 C   0  0  0  0  0  3  0  0  0  0  0  0
  190.6330  178.6890  144.8490 C   0  0  0  0  0  3  0  0  0  0  0  0
  191.4590  178.8970  143.7390 C   0  0  0  0  0  3  0  0  0  0  0  0
  191.3140  176.5460  143.1900 C   0  0  0  0  0  3  0  0  0  0  0  0
  190.4880  176.3380  144.2980 C   0  0  0  0  0  3  0  0  0  0  0  0
  186.2570  178.2270  141.6870 O   0  0  0  0  0  0  0  0  0  0  0  0
  187.4940  178.3680  141.0540 C   0  0  0  0  0  3  0  0  0  0  0  0
  187.6070  178.3260  139.7270 C   0  0  0  0  0  0  0  0  0  0  0  0
  186.3950  178.1260  138.8760 C   0  0  0  0  0  1  0  0  0  0  0  0
  188.9290  178.4780  139.0930 C   0  0  0  0  0  0  0  0  0  0  0  0
  190.0400  177.6990  139.5310 N   0  0  0  0  0  1  0  0  0  0  0  0
  189.0880  179.3010  138.1530 O   0  0  0  0  0  0  0  0  0  0  0  0
  1  3  1  0  0  0  0
  2 10  1  0  0  0  0
  2  1  2  0  0  0  0
  4  3  1  0  0  0  0
  5  6  1  0  0  0  0
  5 10  1  0  0  0  0
  7  2  1  0  0  0  0
  8  5  2  0  0  0  0
  9  8  1  0  0  0  0
  9  7  2  0  0  0  0
 10  4  2  0  0  0  0
 11  1  1  0  0  0  0
 11 12  2  0  0  0  0
 13 11  1  0  0  0  0
 14 17  2  0  0  0  0
 14 16  1  0  0  0  0
 15 13  1  0  0  0  0
 16 15  2  0  0  0  0
 17 18  1  0  0  0  0
 18 13  2  0  0  0  0
 19  9  1  0  0  0  0
 20 19  1  0  0  0  0
 21 20  2  0  0  0  0
 22 21  1  0  0  0  0
 23 24  1  0  0  0  0
 23 21  1  0  0  0  0
 25 23  2  0  0  0  0
M  END
>  <MODEL>
2

>  <REMARK>
 VINA RESULT:      -8.5      1.891      5.631
  Name = 
  5 active torsions:
  status: ('A' for Active; 'I' for Inactive)
    1  A    between atoms: C_1  and  C_18
    2  A    between atoms: C_2  and  C_21
    3  A    between atoms: C_5  and  C_18
    4  A    between atoms: O_6  and  C_15
    5  A    between atoms: O_6  and  C_23
                            x       y       z     vdW  Elec       q    Type
                         _______ _______ _______ _____ _____    ______ ____

>  <TORSDO>
F 5

$$$$
=
 OpenBabel11052412503D

 25 27  0  0  0  0  0  0  0  0999 V2000
  187.4160  177.8370  146.2050 C   0  0  0  0  0  0  0  0  0  0  0  0
  186.5440  178.0720  145.1620 C   0  0  0  0  0  0  0  0  0  0  0  0
  186.7800  178.1350  147.3640 N   0  0  0  0  0  2  0  0  0  0  0  0
  185.5520  178.5650  147.0920 N   0  0  0  0  0  0  0  0  0  0  0  0
  184.2700  178.8520  145.0140 C   0  0  0  0  0  0  0  0  0  0  0  0
  183.1140  179.3190  145.6270 O   0  0  0  0  0  1  0  0  0  0  0  0
  186.6320  177.8730  143.7850 C   0  0  0  0  0  3  0  0  0  0  0  0
  184.3290  178.6850  143.6200 C   0  0  0  0  0  3  0  0  0  0  0  0
  185.5080  178.1930  143.0000 C   0  0  0  0  0  0  0  0  0  0  0  0
  185.4020  178.5290  145.7570 C   0  0  0  0  0  0  0  0  0  0  0  0
  188.7820  177.2790  146.1490 C   0  0  0  0  0  0  0  0  0  0  0  0
  189.2120  176.6490  147.1520 O   0  0  0  0  0  0  0  0  0  0  0  0
  189.6680  177.4530  144.9770 C   0  0  0  0  0  0  0  0  0  0  0  0
  191.4020  177.7260  142.7850 C   0  0  0  0  0  3  0  0  0  0  0  0
  189.8200  176.4050  144.0560 C   0  0  0  0  0  3  0  0  0  0  0  0
  190.6790  176.5440  142.9610 C   0  0  0  0  0  3  0  0  0  0  0  0
  191.2690  178.7690  143.7050 C   0  0  0  0  0  3  0  0  0  0  0  0
  190.4110  178.6300  144.8000 C   0  0  0  0  0  3  0  0  0  0  0  0
  185.5850  178.0150  141.6160 O   0  0  0  0  0  0  0  0  0  0  0  0
  185.0780  178.9450  140.7070 C   0  0  0  0  0  3  0  0  0  0  0  0
  183.9620  178.7100  140.0180 C   0  0  0  0  0  0  0  0  0  0  0  0
  183.2190  177.4270  140.2070 C   0  0  0  0  0  1  0  0  0  0  0  0
  183.4550  179.7140  139.0660 C   0  0  0  0  0  0  0  0  0  0  0  0
  182.2300  179.5020  138.3680 N   0  0  0  0  0  1  0  0  0  0  0  0
  184.1040  180.7740  138.8600 O   0  0  0  0  0  0  0  0  0  0  0  0
  1  3  1  0  0  0  0
  2 10  1  0  0  0  0
  2  1  2  0  0  0  0
  4  3  1  0  0  0  0
  5  6  1  0  0  0  0
  5 10  1  0  0  0  0
  7  2  1  0  0  0  0
  8  5  2  0  0  0  0
  9  8  1  0  0  0  0
  9  7  2  0  0  0  0
 10  4  2  0  0  0  0
 11  1  1  0  0  0  0
 11 12  2  0  0  0  0
 13 11  1  0  0  0  0
 14 16  2  0  0  0  0
 14 17  1  0  0  0  0
 15 13  2  0  0  0  0
 16 15  1  0  0  0  0
 17 18  2  0  0  0  0
 18 13  1  0  0  0  0
 19  9  1  0  0  0  0
 20 19  1  0  0  0  0
 21 22  1  0  0  0  0
 21 20  2  0  0  0  0
 23 21  1  0  0  0  0
 24 23  1  0  0  0  0
 25 23  2  0  0  0  0
M  END
>  <MODEL>
3

>  <REMARK>
 VINA RESULT:      -8.5      2.647      5.908
  Name = 
  5 active torsions:
  status: ('A' for Active; 'I' for Inactive)
    1  A    between atoms: C_1  and  C_18
    2  A    between atoms: C_2  and  C_21
    3  A    between atoms: C_5  and  C_18
    4  A    between atoms: O_6  and  C_15
    5  A    between atoms: O_6  and  C_23
                            x       y       z     vdW  Elec       q    Type
                         _______ _______ _______ _____ _____    ______ ____

>  <TORSDO>
F 5

$$$$
=
 OpenBabel11052412503D

 25 27  0  0  0  0  0  0  0  0999 V2000
  185.6490  178.4770  145.0220 C   0  0  0  0  0  0  0  0  0  0  0  0
  186.8550  178.0250  145.5180 C   0  0  0  0  0  0  0  0  0  0  0  0
  184.9050  178.9240  146.0620 N   0  0  0  0  0  2  0  0  0  0  0  0
  185.5850  178.7560  147.1920 N   0  0  0  0  0  0  0  0  0  0  0  0
  187.8250  177.8920  147.7190 C   0  0  0  0  0  0  0  0  0  0  0  0
  187.7300  178.0810  149.0910 O   0  0  0  0  0  1  0  0  0  0  0  0
  188.0110  177.5370  144.9090 C   0  0  0  0  0  3  0  0  0  0  0  0
  188.9990  177.3750  147.1430 C   0  0  0  0  0  3  0  0  0  0  0  0
  189.0980  177.1980  145.7380 C   0  0  0  0  0  0  0  0  0  0  0  0
  186.7700  178.2110  146.8680 C   0  0  0  0  0  0  0  0  0  0  0  0
  185.2130  178.5650  143.6140 C   0  0  0  0  0  0  0  0  0  0  0  0
  186.0980  178.6180  142.7170 O   0  0  0  0  0  0  0  0  0  0  0  0
  183.7890  178.6210  143.2200 C   0  0  0  0  0  0  0  0  0  0  0  0
  181.0980  178.8010  142.4380 C   0  0  0  0  0  3  0  0  0  0  0  0
  183.4370  178.5550  141.8630 C   0  0  0  0  0  3  0  0  0  0  0  0
  182.0970  178.6390  141.4740 C   0  0  0  0  0  3  0  0  0  0  0  0
  181.4400  178.8830  143.7900 C   0  0  0  0  0  3  0  0  0  0  0  0
  182.7800  178.8000  144.1790 C   0  0  0  0  0  3  0  0  0  0  0  0
  190.2580  176.6920  145.1460 O   0  0  0  0  0  0  0  0  0  0  0  0
  190.3880  176.5210  143.7660 C   0  0  0  0  0  3  0  0  0  0  0  0
  191.0310  177.4110  143.0110 C   0  0  0  0  0  0  0  0  0  0  0  0
  191.6370  178.6260  143.6350 C   0  0  0  0  0  1  0  0  0  0  0  0
  191.1490  177.1990  141.5580 C   0  0  0  0  0  0  0  0  0  0  0  0
  190.1900  176.4110  140.8570 N   0  0  0  0  0  1  0  0  0  0  0  0
  192.1040  177.7160  140.9190 O   0  0  0  0  0  0  0  0  0  0  0  0
  1  2  2  0  0  0  0
  1  3  1  0  0  0  0
  2 10  1  0  0  0  0
  3  4  1  0  0  0  0
  5  6  1  0  0  0  0
  7  2  1  0  0  0  0
  7  9  2  0  0  0  0
  8  5  2  0  0  0  0
  9  8  1  0  0  0  0
 10  4  2  0  0  0  0
 10  5  1  0  0  0  0
 11  1  1  0  0  0  0
 12 11  2  0  0  0  0
 13 11  1  0  0  0  0
 13 18  1  0  0  0  0
 14 17  1  0  0  0  0
 15 13  2  0  0  0  0
 16 15  1  0  0  0  0
 16 14  2  0  0  0  0
 17 18  2  0  0  0  0
 19  9  1  0  0  0  0
 20 19  1  0  0  0  0
 21 22  1  0  0  0  0
 21 20  2  0  0  0  0
 23 21  1  0  0  0  0
 24 23  1  0  0  0  0
 25 23  2  0  0  0  0
M  END
>  <MODEL>
4

>  <REMARK>
 VINA RESULT:      -8.4      2.484      7.160
  Name = 
  5 active torsions:
  status: ('A' for Active; 'I' for Inactive)
    1  A    between atoms: C_1  and  C_18
    2  A    between atoms: C_2  and  C_21
    3  A    between atoms: C_5  and  C_18
    4  A    between atoms: O_6  and  C_15
    5  A    between atoms: O_6  and  C_23
                            x       y       z     vdW  Elec       q    Type
                         _______ _______ _______ _____ _____    ______ ____

>  <TORSDO>
F 5

$$$$
=
 OpenBabel11052412503D

 25 27  0  0  1  0  0  0  0  0999 V2000
  186.6060  178.4810  142.3600 C   0  0  0  0  0  0  0  0  0  0  0  0
  186.4140  178.2800  143.7120 C   0  0  1  0  0  3  0  0  0  0  0  0
  185.4780  179.0310  141.8490 N   0  0  0  0  0  0  0  0  0  0  0  0
  184.5790  179.1670  142.8190 N   0  0  0  0  0  0  0  0  0  0  0  0
  184.5910  178.6920  145.2310 C   0  0  0  0  0  0  0  0  0  0  0  0
  183.2950  179.1310  145.4670 O   0  0  0  0  0  1  0  0  0  0  0  0
  187.2460  177.8230  144.7330 C   0  0  0  0  0  3  0  0  0  0  0  0
  185.3920  178.2160  146.2830 C   0  0  0  0  0  3  0  0  0  0  0  0
  186.7220  177.7820  146.0400 C   0  0  0  0  0  0  0  0  0  0  0  0
  185.1410  178.7130  143.9520 C   0  0  0  0  0  0  0  0  0  0  0  0
  187.8270  178.2420  141.5630 C   0  0  0  0  0  0  0  0  0  0  0  0
  187.7900  178.4860  140.3270 O   0  0  0  0  0  0  0  0  0  0  0  0
  189.0740  177.7080  142.1520 C   0  0  0  0  0  0  0  0  0  0  0  0
  191.3970  176.6660  143.3350 C   0  0  0  0  0  3  0  0  0  0  0  0
  189.2550  176.3210  142.2600 C   0  0  0  0  0  3  0  0  0  0  0  0
  190.4150  175.8020  142.8440 C   0  0  0  0  0  3  0  0  0  0  0  0
  191.2180  178.0490  143.2460 C   0  0  0  0  0  3  0  0  0  0  0  0
  190.0580  178.5670  142.6630 C   0  0  0  0  0  3  0  0  0  0  0  0
  187.5370  177.3110  147.0730 O   0  0  0  0  0  0  0  0  0  0  0  0
  188.7910  176.7420  146.8440 C   0  0  0  0  0  3  0  0  0  0  0  0
  189.8780  177.1690  147.4860 C   0  0  0  0  0  0  0  0  0  0  0  0
  189.7750  178.2810  148.4780 C   0  0  0  0  0  1  0  0  0  0  0  0
  191.1860  176.5450  147.2200 C   0  0  0  0  0  0  0  0  0  0  0  0
  191.4900  175.2480  147.7260 N   0  0  0  0  0  1  0  0  0  0  0  0
  192.0520  177.1580  146.5400 O   0  0  0  0  0  0  0  0  0  0  0  0
  1  2  1  0  0  0  0
  2 10  1  0  0  0  0
  2  7  1  1  0  0  0
  3  1  2  0  0  0  0
  3  4  1  0  0  0  0
  4 10  2  0  0  0  0
  5  6  1  0  0  0  0
  5  8  2  0  0  0  0
  7  9  2  0  0  0  0
  9  8  1  0  0  0  0
  9 19  1  0  0  0  0
 10  5  1  0  0  0  0
 11 13  1  0  0  0  0
 11  1  1  0  0  0  0
 12 11  2  0  0  0  0
 13 15  2  0  0  0  0
 13 18  1  0  0  0  0
 15 16  1  0  0  0  0
 16 14  2  0  0  0  0
 17 14  1  0  0  0  0
 18 17  2  0  0  0  0
 20 19  1  0  0  0  0
 20 21  2  0  0  0  0
 21 22  1  0  0  0  0
 23 21  1  0  0  0  0
 23 24  1  0  0  0  0
 25 23  2  0  0  0  0
M  END
>  <MODEL>
5

>  <REMARK>
 VINA RESULT:      -8.3      2.219      3.293
  Name = 
  5 active torsions:
  status: ('A' for Active; 'I' for Inactive)
    1  A    between atoms: C_1  and  C_18
    2  A    between atoms: C_2  and  C_21
    3  A    between atoms: C_5  and  C_18
    4  A    between atoms: O_6  and  C_15
    5  A    between atoms: O_6  and  C_23
                            x       y       z     vdW  Elec       q    Type
                         _______ _______ _______ _____ _____    ______ ____

>  <TORSDO>
F 5

$$$$
=
 OpenBabel11052412503D

 25 27  0  0  0  0  0  0  0  0999 V2000
  190.5180  177.8300  142.4930 C   0  0  0  0  0  0  0  0  0  0  0  0
  189.4010  177.9800  141.6960 C   0  0  0  0  0  0  0  0  0  0  0  0
  191.4500  177.1410  141.7910 N   0  0  0  0  0  2  0  0  0  0  0  0
  190.9590  176.8340  140.5940 N   0  0  0  0  0  0  0  0  0  0  0  0
  188.8310  177.3010  139.4560 C   0  0  0  0  0  0  0  0  0  0  0  0
  189.1570  176.6470  138.2750 O   0  0  0  0  0  1  0  0  0  0  0  0
  188.1930  178.6540  141.8670 C   0  0  0  0  0  3  0  0  0  0  0  0
  187.5930  177.9510  139.6000 C   0  0  0  0  0  3  0  0  0  0  0  0
  187.2700  178.6310  140.8040 C   0  0  0  0  0  0  0  0  0  0  0  0
  189.7160  177.3410  140.5300 C   0  0  0  0  0  0  0  0  0  0  0  0
  190.7560  178.3730  143.8450 C   0  0  0  0  0  0  0  0  0  0  0  0
  191.5410  179.3520  143.9660 O   0  0  0  0  0  0  0  0  0  0  0  0
  190.1330  177.7990  145.0580 C   0  0  0  0  0  0  0  0  0  0  0  0
  188.9340  176.7870  147.3860 C   0  0  0  0  0  3  0  0  0  0  0  0
  188.7520  177.9340  145.2620 C   0  0  0  0  0  3  0  0  0  0  0  0
  188.1540  177.4250  146.4190 C   0  0  0  0  0  3  0  0  0  0  0  0
  190.3130  176.6610  147.1980 C   0  0  0  0  0  3  0  0  0  0  0  0
  190.9100  177.1710  146.0420 C   0  0  0  0  0  3  0  0  0  0  0  0
  186.0470  179.2880  140.9650 O   0  0  0  0  0  0  0  0  0  0  0  0
  185.3780  179.3470  142.1890 C   0  0  0  0  0  3  0  0  0  0  0  0
  184.2040  178.7440  142.3720 C   0  0  0  0  0  0  0  0  0  0  0  0
  183.5690  177.9830  141.2540 C   0  0  0  0  0  1  0  0  0  0  0  0
  183.5250  178.8270  143.6780 C   0  0  0  0  0  0  0  0  0  0  0  0
  184.2780  178.9500  144.8820 N   0  0  0  0  0  1  0  0  0  0  0  0
  182.2680  178.7890  143.7400 O   0  0  0  0  0  0  0  0  0  0  0  0
  1 11  1  0  0  0  0
  2  7  1  0  0  0  0
  2  1  2  0  0  0  0
  3  1  1  0  0  0  0
  4  3  1  0  0  0  0
  5  8  2  0  0  0  0
  5 10  1  0  0  0  0
  6  5  1  0  0  0  0
  8  9  1  0  0  0  0
  9 19  1  0  0  0  0
  9  7  2  0  0  0  0
 10  4  2  0  0  0  0
 10  2  1  0  0  0  0
 11 12  2  0  0  0  0
 11 13  1  0  0  0  0
 13 15  2  0  0  0  0
 13 18  1  0  0  0  0
 15 16  1  0  0  0  0
 16 14  2  0  0  0  0
 17 14  1  0  0  0  0
 18 17  2  0  0  0  0
 19 20  1  0  0  0  0
 20 21  2  0  0  0  0
 21 23  1  0  0  0  0
 22 21  1  0  0  0  0
 23 25  2  0  0  0  0
 23 24  1  0  0  0  0
M  END
>  <MODEL>
6

>  <REMARK>
 VINA RESULT:      -8.3      2.518      4.277
  Name = 
  5 active torsions:
  status: ('A' for Active; 'I' for Inactive)
    1  A    between atoms: C_1  and  C_18
    2  A    between atoms: C_2  and  C_21
    3  A    between atoms: C_5  and  C_18
    4  A    between atoms: O_6  and  C_15
    5  A    between atoms: O_6  and  C_23
                            x       y       z     vdW  Elec       q    Type
                         _______ _______ _______ _____ _____    ______ ____

>  <TORSDO>
F 5

$$$$
=
 OpenBabel11052412503D

 25 27  0  0  1  0  0  0  0  0999 V2000
  185.7190  178.6280  142.5000 C   0  0  0  0  0  0  0  0  0  0  0  0
  186.9410  178.1560  142.0650 C   0  0  0  0  0  0  0  0  0  0  0  0
  185.1570  179.3410  141.4950 N   0  0  0  0  0  0  0  0  0  0  0  0
  185.9820  179.3530  140.4520 N   0  0  0  0  0  0  0  0  0  0  0  0
  188.1780  178.3420  140.0060 C   0  0  2  0  0  3  0  0  0  0  0  0
  188.2990  178.8360  138.7140 O   0  0  0  0  0  1  0  0  0  0  0  0
  187.8990  177.3220  142.6390 C   0  0  0  0  0  3  0  0  0  0  0  0
  189.1750  177.5210  140.5600 C   0  0  0  0  0  3  0  0  0  0  0  0
  189.0390  177.0060  141.8760 C   0  0  0  0  0  0  0  0  0  0  0  0
  187.0660  178.6360  140.7920 C   0  0  0  0  0  0  0  0  0  0  0  0
  185.0440  178.3680  143.7880 C   0  0  0  0  0  0  0  0  0  0  0  0
  183.7990  178.1720  143.7810 O   0  0  0  0  0  0  0  0  0  0  0  0
  185.7650  178.3560  145.0800 C   0  0  0  0  0  0  0  0  0  0  0  0
  187.0920  178.2640  147.5520 C   0  0  0  0  0  3  0  0  0  0  0  0
  186.6900  177.3370  145.3520 C   0  0  0  0  0  3  0  0  0  0  0  0
  187.3550  177.2950  146.5810 C   0  0  0  0  0  3  0  0  0  0  0  0
  186.1610  179.2730  147.2960 C   0  0  0  0  0  3  0  0  0  0  0  0
  185.4960  179.3150  146.0680 C   0  0  0  0  0  3  0  0  0  0  0  0
  190.0170  176.1840  142.4430 O   0  0  0  0  0  0  0  0  0  0  0  0
  190.2140  176.0880  143.8220 C   0  0  0  0  0  3  0  0  0  0  0  0
  191.0160  176.9310  144.4720 C   0  0  0  0  0  0  0  0  0  0  0  0
  191.7300  178.0120  143.7280 C   0  0  0  0  0  1  0  0  0  0  0  0
  191.2020  176.8000  145.9280 C   0  0  0  0  0  0  0  0  0  0  0  0
  192.1240  175.8530  146.4610 N   0  0  0  0  0  1  0  0  0  0  0  0
  190.5430  177.5270  146.7170 O   0  0  0  0  0  0  0  0  0  0  0  0
  1 11  1  0  0  0  0
  2  1  1  0  0  0  0
  2  7  2  0  0  0  0
  3  1  2  0  0  0  0
  4 10  2  0  0  0  0
  4  3  1  0  0  0  0
  5  6  1  6  0  0  0
  5  8  1  0  0  0  0
  5 10  1  0  0  0  0
  8  9  2  0  0  0  0
  9 19  1  0  0  0  0
  9  7  1  0  0  0  0
 10  2  1  0  0  0  0
 11 13  1  0  0  0  0
 12 11  2  0  0  0  0
 13 15  2  0  0  0  0
 13 18  1  0  0  0  0
 15 16  1  0  0  0  0
 16 14  2  0  0  0  0
 17 14  1  0  0  0  0
 18 17  2  0  0  0  0
 19 20  1  0  0  0  0
 20 21  2  0  0  0  0
 21 23  1  0  0  0  0
 22 21  1  0  0  0  0
 23 24  1  0  0  0  0
 23 25  2  0  0  0  0
M  END
>  <MODEL>
7

>  <REMARK>
 VINA RESULT:      -8.2      1.786      4.614
  Name = 
  5 active torsions:
  status: ('A' for Active; 'I' for Inactive)
    1  A    between atoms: C_1  and  C_18
    2  A    between atoms: C_2  and  C_21
    3  A    between atoms: C_5  and  C_18
    4  A    between atoms: O_6  and  C_15
    5  A    between atoms: O_6  and  C_23
                            x       y       z     vdW  Elec       q    Type
                         _______ _______ _______ _____ _____    ______ ____

>  <TORSDO>
F 5

$$$$
=
 OpenBabel11052412503D

 25 27  0  0  0  0  0  0  0  0999 V2000
  187.3080  178.1140  146.8980 C   0  0  0  0  0  0  0  0  0  0  0  0
  188.3810  177.7800  146.0960 C   0  0  0  0  0  0  0  0  0  0  0  0
  187.5680  177.6820  148.1560 N   0  0  0  0  0  2  0  0  0  0  0  0
  188.7510  177.0740  148.1740 N   0  0  0  0  0  0  0  0  0  0  0  0
  190.4790  176.6570  146.4760 C   0  0  0  0  0  0  0  0  0  0  0  0
  191.3540  175.9960  147.3270 O   0  0  0  0  0  1  0  0  0  0  0  0
  188.6870  178.0350  144.7600 C   0  0  0  0  0  3  0  0  0  0  0  0
  190.8120  176.8770  145.1280 C   0  0  0  0  0  3  0  0  0  0  0  0
  189.9190  177.5680  144.2660 C   0  0  0  0  0  0  0  0  0  0  0  0
  189.2490  177.1300  146.9280 C   0  0  0  0  0  0  0  0  0  0  0  0
  186.0990  178.8810  146.5360 C   0  0  0  0  0  0  0  0  0  0  0  0
  185.6810  179.7530  147.3450 O   0  0  0  0  0  0  0  0  0  0  0  0
  185.3510  178.6480  145.2820 C   0  0  0  0  0  0  0  0  0  0  0  0
  183.9750  178.2670  142.8640 C   0  0  0  0  0  3  0  0  0  0  0  0
  186.0140  178.1230  144.1620 C   0  0  0  0  0  3  0  0  0  0  0  0
  185.3270  177.9280  142.9600 C   0  0  0  0  0  3  0  0  0  0  0  0
  183.3110  178.8050  143.9690 C   0  0  0  0  0  3  0  0  0  0  0  0
  183.9980  179.0010  145.1700 C   0  0  0  0  0  3  0  0  0  0  0  0
  190.2350  177.8020  142.9250 O   0  0  0  0  0  0  0  0  0  0  0  0
  189.2830  178.2020  141.9860 C   0  0  0  0  0  3  0  0  0  0  0  0
  189.3930  177.8760  140.6980 C   0  0  0  0  0  0  0  0  0  0  0  0
  190.5550  177.0620  140.2270 C   0  0  0  0  0  1  0  0  0  0  0  0
  188.3700  178.3150  139.7330 C   0  0  0  0  0  0  0  0  0  0  0  0
  188.6680  178.3940  138.3420 N   0  0  0  0  0  1  0  0  0  0  0  0
  187.2170  178.6280  140.1330 O   0  0  0  0  0  0  0  0  0  0  0  0
  1  3  1  0  0  0  0
  2  1  2  0  0  0  0
  2 10  1  0  0  0  0
  3  4  1  0  0  0  0
  5 10  1  0  0  0  0
  5  6  1  0  0  0  0
  7  2  1  0  0  0  0
  8  5  2  0  0  0  0
  9  7  2  0  0  0  0
  9  8  1  0  0  0  0
 10  4  2  0  0  0  0
 11  1  1  0  0  0  0
 11 12  2  0  0  0  0
 13 11  1  0  0  0  0
 14 16  2  0  0  0  0
 14 17  1  0  0  0  0
 15 13  2  0  0  0  0
 16 15  1  0  0  0  0
 17 18  2  0  0  0  0
 18 13  1  0  0  0  0
 19  9  1  0  0  0  0
 20 19  1  0  0  0  0
 21 20  2  0  0  0  0
 22 21  1  0  0  0  0
 23 25  2  0  0  0  0
 23 21  1  0  0  0  0
 24 23  1  0  0  0  0
M  END
>  <MODEL>
8

>  <REMARK>
 VINA RESULT:      -8.2      1.975      7.276
  Name = 
  5 active torsions:
  status: ('A' for Active; 'I' for Inactive)
    1  A    between atoms: C_1  and  C_18
    2  A    between atoms: C_2  and  C_21
    3  A    between atoms: C_5  and  C_18
    4  A    between atoms: O_6  and  C_15
    5  A    between atoms: O_6  and  C_23
                            x       y       z     vdW  Elec       q    Type
                         _______ _______ _______ _____ _____    ______ ____

>  <TORSDO>
F 5

$$$$
=
 OpenBabel11052412503D

 25 27  0  0  0  0  0  0  0  0999 V2000
  189.0150  177.4650  146.7960 C   0  0  0  0  0  0  0  0  0  0  0  0
  187.9670  177.7320  145.9380 C   0  0  0  0  0  0  0  0  0  0  0  0
  188.5460  177.5190  148.0660 N   0  0  0  0  0  2  0  0  0  0  0  0
  187.2530  177.8270  148.0430 N   0  0  0  0  0  0  0  0  0  0  0  0
  185.6310  178.2370  146.2420 C   0  0  0  0  0  0  0  0  0  0  0  0
  184.5480  178.4680  147.0790 O   0  0  0  0  0  1  0  0  0  0  0  0
  187.8530  177.7360  144.5480 C   0  0  0  0  0  3  0  0  0  0  0  0
  185.4830  178.2730  144.8440 C   0  0  0  0  0  3  0  0  0  0  0  0
  186.5910  178.0200  143.9930 C   0  0  0  0  0  0  0  0  0  0  0  0
  186.8960  177.9570  146.7550 C   0  0  0  0  0  0  0  0  0  0  0  0
  190.4030  177.0930  146.4570 C   0  0  0  0  0  0  0  0  0  0  0  0
  191.1530  176.6800  147.3820 O   0  0  0  0  0  0  0  0  0  0  0  0
  190.9510  177.2120  145.0890 C   0  0  0  0  0  0  0  0  0  0  0  0
  191.9200  177.4720  142.4660 C   0  0  0  0  0  3  0  0  0  0  0  0
  191.2300  178.4800  144.5570 C   0  0  0  0  0  3  0  0  0  0  0  0
  191.7170  178.6090  143.2520 C   0  0  0  0  0  3  0  0  0  0  0  0
  191.6310  176.2070  142.9820 C   0  0  0  0  0  3  0  0  0  0  0  0
  191.1420  176.0780  144.2850 C   0  0  0  0  0  3  0  0  0  0  0  0
  186.4620  178.0450  142.6010 O   0  0  0  0  0  0  0  0  0  0  0  0
  187.5610  178.0040  141.7420 C   0  0  0  0  0  3  0  0  0  0  0  0
  187.4410  178.2720  140.4420 C   0  0  0  0  0  0  0  0  0  0  0  0
  186.1070  178.6280  139.8700 C   0  0  0  0  0  1  0  0  0  0  0  0
  188.6230  178.2180  139.5630 C   0  0  0  0  0  0  0  0  0  0  0  0
  189.5960  177.1880  139.7150 N   0  0  0  0  0  1  0  0  0  0  0  0
  188.7830  179.0880  138.6670 O   0  0  0  0  0  0  0  0  0  0  0  0
  1  3  1  0  0  0  0
  2 10  1  0  0  0  0
  2  1  2  0  0  0  0
  4  3  1  0  0  0  0
  5 10  1  0  0  0  0
  5  6  1  0  0  0  0
  7  2  1  0  0  0  0
  8  5  2  0  0  0  0
  9  7  2  0  0  0  0
  9  8  1  0  0  0  0
 10  4  2  0  0  0  0
 11  1  1  0  0  0  0
 11 12  2  0  0  0  0
 13 11  1  0  0  0  0
 14 17  2  0  0  0  0
 14 16  1  0  0  0  0
 15 13  1  0  0  0  0
 16 15  2  0  0  0  0
 17 18  1  0  0  0  0
 18 13  2  0  0  0  0
 19  9  1  0  0  0  0
 20 19  1  0  0  0  0
 21 20  2  0  0  0  0
 22 21  1  0  0  0  0
 23 24  1  0  0  0  0
 23 21  1  0  0  0  0
 25 23  2  0  0  0  0
M  END
>  <MODEL>
9

>  <REMARK>
 VINA RESULT:      -8.1      1.776      5.680
  Name = 
  5 active torsions:
  status: ('A' for Active; 'I' for Inactive)
    1  A    between atoms: C_1  and  C_18
    2  A    between atoms: C_2  and  C_21
    3  A    between atoms: C_5  and  C_18
    4  A    between atoms: O_6  and  C_15
    5  A    between atoms: O_6  and  C_23
                            x       y       z     vdW  Elec       q    Type
                         _______ _______ _______ _____ _____    ______ ____

>  <TORSDO>
F 5

$$$$
