=
 OpenBabel11052416483D

 32 39  0  0  1  0  0  0  0  0999 V2000
  187.5900  179.1530  136.5050 O   0  0  0  0  0  0  0  0  0  0  0  0
  190.7350  176.4300  138.3910 C   0  0  0  0  0  2  0  0  0  0  0  0
  188.4270  177.4040  142.9960 C   0  0  1  0  0  3  0  0  0  0  0  0
  191.9200  176.3800  146.3440 C   0  0  0  0  0  3  0  0  0  0  0  0
  191.0940  176.6350  147.3620 C   0  0  0  0  0  3  0  0  0  0  0  0
  186.2700  178.0670  144.1350 C   0  0  0  0  0  0  0  0  0  0  0  0
  185.2650  178.3980  143.2040 C   0  0  0  0  0  0  0  0  0  0  0  0
  188.9940  177.5360  140.5530 C   0  0  1  0  0  3  0  0  0  0  0  0
  190.7980  177.0060  142.1870 C   0  0  0  0  0  2  0  0  0  0  0  0
  189.7470  178.5220  137.2940 C   0  0  1  0  0  3  0  0  0  0  0  0
  184.7600  178.5090  145.9890 C   0  0  0  0  0  0  0  0  0  0  0  0
  191.2710  176.7780  139.7750 C   0  0  0  0  0  2  0  0  0  0  0  0
  191.4820  176.5100  144.9440 C   0  0  0  0  0  3  0  0  0  0  0  0
  189.8010  177.0170  143.2640 N   0  0  0  0  0  0  0  0  0  0  0  0
  190.2370  176.8890  144.6370 C   0  0  0  0  0  0  0  0  0  0  0  0
  188.0380  177.5550  145.3650 C   0  0  0  0  0  0  0  0  0  0  0  0
  187.6700  177.7570  136.4040 C   0  0  0  0  0  2  0  0  0  0  0  0
  183.7460  178.8190  145.0740 C   0  0  0  0  0  3  0  0  0  0  0  0
  189.1020  177.3180  136.6370 C   0  0  2  0  0  3  0  0  0  0  0  0
  188.6200  179.5350  137.3780 C   0  0  0  0  0  2  0  0  0  0  0  0
  190.1900  176.6190  140.8460 C   0  0  2  0  0  3  0  0  0  0  0  0
  184.0010  178.7670  143.6910 C   0  0  0  0  0  3  0  0  0  0  0  0
  188.3970  177.2490  139.1770 C   0  0  0  0  0  2  0  0  0  0  0  0
  189.4940  177.2600  138.1040 C   0  0  1  0  0  0  0  0  0  0  0  0
  189.6650  177.0690  147.1700 C   0  0  0  0  0  3  0  0  0  0  0  0
  189.2720  177.1850  145.7190 C   0  0  0  0  0  0  0  0  0  0  0  0
  187.0670  177.8390  146.2070 O   0  0  0  0  0  0  0  0  0  0  0  0
  187.9070  177.3150  141.5940 C   0  0  0  0  0  2  0  0  0  0  0  0
  185.4750  178.3970  141.8340 O   0  0  0  0  0  1  0  0  0  0  0  0
  184.5210  178.5680  147.3560 O   0  0  0  0  0  1  0  0  0  0  0  0
  187.6120  177.6720  144.0430 C   0  0  0  0  0  0  0  0  0  0  0  0
  186.0100  178.1430  145.4940 C   0  0  0  0  0  0  0  0  0  0  0  0
  1 20  1  0  0  0  0
  2 12  1  0  0  0  0
  3 28  1  1  0  0  0
  3 14  1  0  0  0  0
  3 31  1  0  0  0  0
  4  5  1  0  0  0  0
  6 32  1  0  0  0  0
  7 22  1  0  0  0  0
  7  6  2  0  0  0  0
  8 23  1  6  0  0  0
  8 21  1  0  0  0  0
  8 28  1  0  0  0  0
  9 14  1  0  0  0  0
 10 20  1  1  0  0  0
 10 24  1  0  0  0  0
 11 30  1  0  0  0  0
 13  4  2  0  0  0  0
 14 15  1  0  0  0  0
 15 13  1  0  0  0  0
 15 26  2  0  0  0  0
 16 26  1  0  0  0  0
 16 27  1  0  0  0  0
 17  1  1  0  0  0  0
 18 11  1  0  0  0  0
 19 17  1  1  0  0  0
 19 10  1  0  0  0  0
 19 24  1  0  0  0  0
 21 12  1  6  0  0  0
 21  9  1  0  0  0  0
 22 18  2  0  0  0  0
 24  2  1  1  0  0  0
 24 23  1  0  0  0  0
 25  5  2  0  0  0  0
 26 25  1  0  0  0  0
 29  7  1  0  0  0  0
 31  6  1  0  0  0  0
 31 16  2  0  0  0  0
 32 11  2  0  0  0  0
 32 27  1  0  0  0  0
M  END
>  <MODEL>
1

>  <REMARK>
 VINA RESULT:     -12.7      0.000      0.000
  Name = 
  0 active torsions:
  status: ('A' for Active; 'I' for Inactive)
                            x       y       z     vdW  Elec       q    Type
                         _______ _______ _______ _____ _____    ______ ____

>  <TORSDO>
F 0

$$$$
=
 OpenBabel11052416483D

 32 39  0  0  1  0  0  0  0  0999 V2000
  181.2930  177.9190  138.6960 O   0  0  0  0  0  0  0  0  0  0  0  0
  181.5180  179.3410  143.0310 C   0  0  0  0  0  2  0  0  0  0  0  0
  186.6190  178.1420  142.8760 C   0  0  1  0  0  3  0  0  0  0  0  0
  187.8790  177.5900  147.6260 C   0  0  0  0  0  3  0  0  0  0  0  0
  189.1590  177.3680  147.3170 C   0  0  0  0  0  3  0  0  0  0  0  0
  188.6360  177.8520  141.3810 C   0  0  0  0  0  0  0  0  0  0  0  0
  188.3000  177.9700  140.0170 C   0  0  0  0  0  0  0  0  0  0  0  0
  184.2070  178.3310  142.2050 C   0  0  1  0  0  3  0  0  0  0  0  0
  184.7750  178.0650  144.6160 C   0  0  0  0  0  2  0  0  0  0  0  0
  180.9570  177.8170  141.0520 C   0  0  1  0  0  3  0  0  0  0  0  0
  190.9710  177.4700  140.8180 C   0  0  0  0  0  0  0  0  0  0  0  0
  182.4500  178.6130  143.9940 C   0  0  0  0  0  2  0  0  0  0  0  0
  186.8670  177.8420  146.5880 C   0  0  0  0  0  3  0  0  0  0  0  0
  186.2000  178.1070  144.2660 N   0  0  0  0  0  0  0  0  0  0  0  0
  187.1890  177.8580  145.2900 C   0  0  0  0  0  0  0  0  0  0  0  0
  188.8690  177.6530  143.5740 C   0  0  0  0  0  0  0  0  0  0  0  0
  181.2240  179.2410  139.1570 C   0  0  0  0  0  2  0  0  0  0  0  0
  190.6540  177.6080  139.4610 C   0  0  0  0  0  3  0  0  0  0  0  0
  180.7470  179.2470  140.5970 C   0  0  2  0  0  3  0  0  0  0  0  0
  181.5370  177.1290  139.8300 C   0  0  0  0  0  2  0  0  0  0  0  0
  183.9170  178.8390  143.6250 C   0  0  2  0  0  3  0  0  0  0  0  0
  189.3260  177.8520  139.0660 C   0  0  0  0  0  3  0  0  0  0  0  0
  183.3080  179.0150  141.1760 C   0  0  0  0  0  2  0  0  0  0  0  0
  181.8380  178.9260  141.6040 C   0  0  1  0  0  0  0  0  0  0  0  0
  189.6700  177.3580  145.8990 C   0  0  0  0  0  3  0  0  0  0  0  0
  188.5910  177.6220  144.8800 C   0  0  0  0  0  0  0  0  0  0  0  0
  190.0640  177.4740  143.0530 O   0  0  0  0  0  0  0  0  0  0  0  0
  185.6530  178.6230  141.8370 C   0  0  0  0  0  2  0  0  0  0  0  0
  187.0030  178.1750  139.5750 O   0  0  0  0  0  1  0  0  0  0  0  0
  192.2770  177.2180  141.2170 O   0  0  0  0  0  1  0  0  0  0  0  0
  187.9190  177.8990  142.5840 C   0  0  0  0  0  0  0  0  0  0  0  0
  189.9450  177.5900  141.7530 C   0  0  0  0  0  0  0  0  0  0  0  0
  1 17  1  0  0  0  0
  1 20  1  0  0  0  0
  2 12  1  0  0  0  0
  3 28  1  1  0  0  0
  3 14  1  0  0  0  0
  5  4  1  0  0  0  0
  6 32  1  0  0  0  0
  6 31  1  0  0  0  0
  7  6  2  0  0  0  0
  8 23  1  6  0  0  0
  8 21  1  0  0  0  0
 10 20  1  6  0  0  0
 10 24  1  0  0  0  0
 11 30  1  0  0  0  0
 11 32  2  0  0  0  0
 13  4  2  0  0  0  0
 14  9  1  0  0  0  0
 14 15  1  0  0  0  0
 15 13  1  0  0  0  0
 16 26  1  0  0  0  0
 18 11  1  0  0  0  0
 19 17  1  6  0  0  0
 19 10  1  0  0  0  0
 19 24  1  0  0  0  0
 21 12  1  1  0  0  0
 21  9  1  0  0  0  0
 22 18  2  0  0  0  0
 22  7  1  0  0  0  0
 24 23  1  6  0  0  0
 24  2  1  0  0  0  0
 25  5  2  0  0  0  0
 26 15  2  0  0  0  0
 26 25  1  0  0  0  0
 27 16  1  0  0  0  0
 28  8  1  0  0  0  0
 29  7  1  0  0  0  0
 31  3  1  0  0  0  0
 31 16  2  0  0  0  0
 32 27  1  0  0  0  0
M  END
>  <MODEL>
2

>  <REMARK>
 VINA RESULT:     -12.2      2.827      6.285
  Name = 
  0 active torsions:
  status: ('A' for Active; 'I' for Inactive)
                            x       y       z     vdW  Elec       q    Type
                         _______ _______ _______ _____ _____    ______ ____

>  <TORSDO>
F 0

$$$$
=
 OpenBabel11052416483D

 32 39  0  0  1  0  0  0  0  0999 V2000
  192.2460  175.1600  137.7440 O   0  0  0  0  0  0  0  0  0  0  0  0
  188.7280  178.0530  137.4040 C   0  0  0  0  0  2  0  0  0  0  0  0
  188.2990  177.7190  142.6180 C   0  0  1  0  0  3  0  0  0  0  0  0
  183.6440  179.1110  143.5430 C   0  0  0  0  0  3  0  0  0  0  0  0
  183.8180  179.0030  144.8630 C   0  0  0  0  0  3  0  0  0  0  0  0
  189.5300  177.2430  144.7740 C   0  0  0  0  0  0  0  0  0  0  0  0
  190.8510  176.8100  144.5390 C   0  0  0  0  0  0  0  0  0  0  0  0
  189.0560  177.2630  140.2680 C   0  0  1  0  0  3  0  0  0  0  0  0
  186.7010  177.9710  140.6650 C   0  0  0  0  0  2  0  0  0  0  0  0
  190.0270  175.8530  137.2300 C   0  0  1  0  0  3  0  0  0  0  0  0
  189.8530  177.0680  147.1780 C   0  0  0  0  0  0  0  0  0  0  0  0
  187.5420  177.8780  138.3460 C   0  0  0  0  0  2  0  0  0  0  0  0
  184.7290  178.8080  142.5950 C   0  0  0  0  0  3  0  0  0  0  0  0
  187.0040  178.1150  142.0940 N   0  0  0  0  0  0  0  0  0  0  0  0
  185.9340  178.4120  143.0190 C   0  0  0  0  0  0  0  0  0  0  0  0
  187.4110  177.8810  144.8480 C   0  0  0  0  0  0  0  0  0  0  0  0
  192.3040  176.5300  137.4510 C   0  0  0  0  0  2  0  0  0  0  0  0
  191.1730  176.6590  146.9590 C   0  0  0  0  0  3  0  0  0  0  0  0
  190.9790  176.9730  136.8600 C   0  0  2  0  0  3  0  0  0  0  0  0
  190.8960  174.8780  138.0010 C   0  0  0  0  0  2  0  0  0  0  0  0
  187.9290  178.1910  139.7920 C   0  0  2  0  0  3  0  0  0  0  0  0
  191.6660  176.5270  145.6470 C   0  0  0  0  0  3  0  0  0  0  0  0
  190.2870  177.3790  139.3710 C   0  0  0  0  0  2  0  0  0  0  0  0
  189.8950  177.2130  137.8980 C   0  0  1  0  0  0  0  0  0  0  0  0
  185.1190  178.5700  145.4860 C   0  0  0  0  0  3  0  0  0  0  0  0
  186.1920  178.2740  144.4700 C   0  0  0  0  0  0  0  0  0  0  0  0
  187.7980  177.7240  146.0960 O   0  0  0  0  0  0  0  0  0  0  0  0
  189.4670  177.6340  141.6840 C   0  0  0  0  0  2  0  0  0  0  0  0
  191.3720  176.6310  143.2670 O   0  0  0  0  0  1  0  0  0  0  0  0
  189.3540  177.1890  148.4680 O   0  0  0  0  0  1  0  0  0  0  0  0
  188.4470  177.6010  143.9590 C   0  0  0  0  0  0  0  0  0  0  0  0
  189.0540  177.3470  146.0710 C   0  0  0  0  0  0  0  0  0  0  0  0
  1 20  1  0  0  0  0
  2 12  1  0  0  0  0
  3 28  1  1  0  0  0
  3 31  1  0  0  0  0
  4  5  1  0  0  0  0
  5 25  2  0  0  0  0
  6 32  1  0  0  0  0
  7  6  2  0  0  0  0
  7 22  1  0  0  0  0
  8 23  1  6  0  0  0
  8 28  1  0  0  0  0
  9 14  1  0  0  0  0
 10 24  1  0  0  0  0
 10 20  1  1  0  0  0
 11 30  1  0  0  0  0
 13 15  1  0  0  0  0
 13  4  2  0  0  0  0
 14  3  1  0  0  0  0
 14 15  1  0  0  0  0
 15 26  2  0  0  0  0
 16 27  1  0  0  0  0
 17  1  1  0  0  0  0
 18 11  1  0  0  0  0
 19 10  1  0  0  0  0
 19 17  1  1  0  0  0
 19 24  1  0  0  0  0
 21 12  1  6  0  0  0
 21  8  1  0  0  0  0
 21  9  1  0  0  0  0
 22 18  2  0  0  0  0
 24  2  1  6  0  0  0
 24 23  1  0  0  0  0
 26 16  1  0  0  0  0
 26 25  1  0  0  0  0
 29  7  1  0  0  0  0
 31  6  1  0  0  0  0
 31 16  2  0  0  0  0
 32 27  1  0  0  0  0
 32 11  2  0  0  0  0
M  END
>  <MODEL>
3

>  <REMARK>
 VINA RESULT:     -11.9      1.911      4.759
  Name = 
  0 active torsions:
  status: ('A' for Active; 'I' for Inactive)
                            x       y       z     vdW  Elec       q    Type
                         _______ _______ _______ _____ _____    ______ ____

>  <TORSDO>
F 0

$$$$
=
 OpenBabel11052416483D

 32 39  0  0  1  0  0  0  0  0999 V2000
  190.5400  175.7320  137.0000 O   0  0  0  0  0  0  0  0  0  0  0  0
  186.9150  178.4710  137.4660 C   0  0  0  0  0  2  0  0  0  0  0  0
  187.5090  177.9280  142.6450 C   0  0  1  0  0  3  0  0  0  0  0  0
  183.0690  179.0710  144.5010 C   0  0  0  0  0  3  0  0  0  0  0  0
  183.4970  178.9230  145.7580 C   0  0  0  0  0  3  0  0  0  0  0  0
  189.1480  177.4320  144.5040 C   0  0  0  0  0  0  0  0  0  0  0  0
  190.4150  177.0690  144.0030 C   0  0  0  0  0  0  0  0  0  0  0  0
  187.8170  177.5940  140.1760 C   0  0  1  0  0  3  0  0  0  0  0  0
  185.5570  178.1780  141.0450 C   0  0  0  0  0  2  0  0  0  0  0  0
  188.2380  176.3410  136.9500 C   0  0  1  0  0  3  0  0  0  0  0  0
  189.9340  177.1840  146.7920 C   0  0  0  0  0  0  0  0  0  0  0  0
  185.9390  178.2080  138.6070 C   0  0  0  0  0  2  0  0  0  0  0  0
  183.9620  178.8530  143.3520 C   0  0  0  0  0  3  0  0  0  0  0  0
  186.1230  178.2840  142.3950 N   0  0  0  0  0  0  0  0  0  0  0  0
  185.2410  178.4980  143.5200 C   0  0  0  0  0  0  0  0  0  0  0  0
  187.0610  177.9690  145.0090 C   0  0  0  0  0  0  0  0  0  0  0  0
  190.4880  177.1130  136.7630 C   0  0  0  0  0  2  0  0  0  0  0  0
  191.2030  176.8450  146.3080 C   0  0  0  0  0  3  0  0  0  0  0  0
  189.0590  177.5160  136.4550 C   0  0  2  0  0  3  0  0  0  0  0  0
  189.2760  175.3790  137.4970 C   0  0  0  0  0  2  0  0  0  0  0  0
  186.5850  178.4860  139.9660 C   0  0  2  0  0  3  0  0  0  0  0  0
  191.4380  176.7840  144.9220 C   0  0  0  0  0  3  0  0  0  0  0  0
  188.8480  177.7990  139.0680 C   0  0  0  0  0  2  0  0  0  0  0  0
  188.1860  177.6680  137.6900 C   0  0  1  0  0  0  0  0  0  0  0  0
  184.9090  178.5280  146.1020 C   0  0  0  0  0  3  0  0  0  0  0  0
  185.7770  178.3190  144.8880 C   0  0  0  0  0  0  0  0  0  0  0  0
  187.6870  177.7840  146.1520 O   0  0  0  0  0  0  0  0  0  0  0  0
  188.4780  177.9310  141.5040 C   0  0  0  0  0  2  0  0  0  0  0  0
  190.6890  176.9600  142.6490 O   0  0  0  0  0  1  0  0  0  0  0  0
  189.6890  177.2360  148.1580 O   0  0  0  0  0  1  0  0  0  0  0  0
  187.9160  177.7690  143.9270 C   0  0  0  0  0  0  0  0  0  0  0  0
  188.9270  177.4670  145.8710 C   0  0  0  0  0  0  0  0  0  0  0  0
  1 20  1  0  0  0  0
  2 12  1  0  0  0  0
  3 28  1  1  0  0  0
  3 31  1  0  0  0  0
  4  5  1  0  0  0  0
  5 25  2  0  0  0  0
  6 32  1  0  0  0  0
  7  6  2  0  0  0  0
  7 22  1  0  0  0  0
  8 23  1  6  0  0  0
  8 28  1  0  0  0  0
  9 14  1  0  0  0  0
 10 20  1  1  0  0  0
 10 24  1  0  0  0  0
 11 30  1  0  0  0  0
 13 15  1  0  0  0  0
 13  4  2  0  0  0  0
 14  3  1  0  0  0  0
 14 15  1  0  0  0  0
 15 26  2  0  0  0  0
 16 27  1  0  0  0  0
 17  1  1  0  0  0  0
 18 11  1  0  0  0  0
 19 17  1  1  0  0  0
 19 10  1  0  0  0  0
 19 24  1  0  0  0  0
 21 12  1  6  0  0  0
 21  8  1  0  0  0  0
 21  9  1  0  0  0  0
 22 18  2  0  0  0  0
 24  2  1  6  0  0  0
 24 23  1  0  0  0  0
 26 16  1  0  0  0  0
 26 25  1  0  0  0  0
 29  7  1  0  0  0  0
 31  6  1  0  0  0  0
 31 16  2  0  0  0  0
 32 27  1  0  0  0  0
 32 11  2  0  0  0  0
M  END
>  <MODEL>
4

>  <REMARK>
 VINA RESULT:     -11.2      1.892      4.748
  Name = 
  0 active torsions:
  status: ('A' for Active; 'I' for Inactive)
                            x       y       z     vdW  Elec       q    Type
                         _______ _______ _______ _____ _____    ______ ____

>  <TORSDO>
F 0

$$$$
=
 OpenBabel11052416483D

 32 39  0  0  1  0  0  0  0  0999 V2000
  180.8500  177.8020  138.4050 O   0  0  0  0  0  0  0  0  0  0  0  0
  181.7740  179.2600  142.6340 C   0  0  0  0  0  2  0  0  0  0  0  0
  186.7900  178.0970  141.6490 C   0  0  1  0  0  3  0  0  0  0  0  0
  188.8200  177.5910  146.1300 C   0  0  0  0  0  3  0  0  0  0  0  0
  190.0330  177.3760  145.6150 C   0  0  0  0  0  3  0  0  0  0  0  0
  188.5360  177.8090  139.8440 C   0  0  0  0  0  0  0  0  0  0  0  0
  187.9780  177.9150  138.5530 C   0  0  0  0  0  0  0  0  0  0  0  0
  184.2980  178.2630  141.3830 C   0  0  1  0  0  3  0  0  0  0  0  0
  185.2580  178.0200  143.6690 C   0  0  0  0  0  2  0  0  0  0  0  0
  180.9070  177.7160  140.7840 C   0  0  1  0  0  3  0  0  0  0  0  0
  190.7490  177.4400  138.9060 C   0  0  0  0  0  0  0  0  0  0  0  0
  182.8580  178.5460  143.4350 C   0  0  0  0  0  2  0  0  0  0  0  0
  187.6480  177.8280  145.2710 C   0  0  0  0  0  3  0  0  0  0  0  0
  186.6050  178.0700  143.0890 N   0  0  0  0  0  0  0  0  0  0  0  0
  187.7520  177.8360  143.9370 C   0  0  0  0  0  0  0  0  0  0  0  0
  189.1280  177.6290  141.9690 C   0  0  0  0  0  0  0  0  0  0  0  0
  180.8460  179.1270  138.8620 C   0  0  0  0  0  2  0  0  0  0  0  0
  190.2120  177.5650  137.6190 C   0  0  0  0  0  3  0  0  0  0  0  0
  180.6130  179.1410  140.3610 C   0  0  2  0  0  3  0  0  0  0  0  0
  181.2840  177.0230  139.4890 C   0  0  0  0  0  2  0  0  0  0  0  0
  184.2420  178.7800  142.8280 C   0  0  2  0  0  3  0  0  0  0  0  0
  188.8350  177.7960  137.4460 C   0  0  0  0  0  3  0  0  0  0  0  0
  183.2370  178.9320  140.5120 C   0  0  0  0  0  2  0  0  0  0  0  0
  181.8580  178.8350  141.1770 C   0  0  1  0  0  0  0  0  0  0  0  0
  190.3040  177.3590  144.1330 C   0  0  0  0  0  3  0  0  0  0  0  0
  189.0700  177.6060  143.3040 C   0  0  0  0  0  0  0  0  0  0  0  0
  190.2230  177.4550  141.2600 O   0  0  0  0  0  0  0  0  0  0  0  0
  185.6620  178.5630  140.7800 C   0  0  0  0  0  2  0  0  0  0  0  0
  186.6240  178.1060  138.3290 O   0  0  0  0  0  1  0  0  0  0  0  0
  192.1050  177.2010  139.0860 O   0  0  0  0  0  1  0  0  0  0  0  0
  188.0260  177.8610  141.1480 C   0  0  0  0  0  0  0  0  0  0  0  0
  189.8900  177.5610  139.9960 C   0  0  0  0  0  0  0  0  0  0  0  0
  1 17  1  0  0  0  0
  1 20  1  0  0  0  0
  2 12  1  0  0  0  0
  3 28  1  1  0  0  0
  3 14  1  0  0  0  0
  5  4  1  0  0  0  0
  6 32  1  0  0  0  0
  6 31  1  0  0  0  0
  7  6  2  0  0  0  0
  8 23  1  6  0  0  0
  8 21  1  0  0  0  0
 10 20  1  6  0  0  0
 10 24  1  0  0  0  0
 11 30  1  0  0  0  0
 11 32  2  0  0  0  0
 13  4  2  0  0  0  0
 14  9  1  0  0  0  0
 14 15  1  0  0  0  0
 15 13  1  0  0  0  0
 16 26  1  0  0  0  0
 18 11  1  0  0  0  0
 19 17  1  6  0  0  0
 19 10  1  0  0  0  0
 19 24  1  0  0  0  0
 21 12  1  1  0  0  0
 21  9  1  0  0  0  0
 22 18  2  0  0  0  0
 22  7  1  0  0  0  0
 24 23  1  6  0  0  0
 24  2  1  0  0  0  0
 25  5  2  0  0  0  0
 26 15  2  0  0  0  0
 26 25  1  0  0  0  0
 27 16  1  0  0  0  0
 28  8  1  0  0  0  0
 29  7  1  0  0  0  0
 31  3  1  0  0  0  0
 31 16  2  0  0  0  0
 32 27  1  0  0  0  0
M  END
>  <MODEL>
5

>  <REMARK>
 VINA RESULT:     -10.4      2.858      6.545
  Name = 
  0 active torsions:
  status: ('A' for Active; 'I' for Inactive)
                            x       y       z     vdW  Elec       q    Type
                         _______ _______ _______ _____ _____    ______ ____

>  <TORSDO>
F 0

$$$$
=
 OpenBabel11052416483D

 32 39  0  0  1  0  0  0  0  0999 V2000
  180.9580  178.3470  136.0080 O   0  0  0  0  0  0  0  0  0  0  0  0
  180.0050  180.0090  140.1550 C   0  0  0  0  0  2  0  0  0  0  0  0
  184.8910  178.6800  141.5130 C   0  0  1  0  0  3  0  0  0  0  0  0
  184.7350  178.3690  146.4470 C   0  0  0  0  0  3  0  0  0  0  0  0
  186.0410  178.0990  146.5240 C   0  0  0  0  0  3  0  0  0  0  0  0
  187.2350  178.2550  140.6690 C   0  0  0  0  0  0  0  0  0  0  0  0
  187.3030  178.3040  139.2620 C   0  0  0  0  0  0  0  0  0  0  0  0
  182.7760  178.8890  140.1760 C   0  0  1  0  0  3  0  0  0  0  0  0
  182.6290  178.7470  142.6590 C   0  0  0  0  0  2  0  0  0  0  0  0
  179.9660  178.3880  138.1730 C   0  0  1  0  0  3  0  0  0  0  0  0
  189.6170  177.7860  140.8110 C   0  0  0  0  0  0  0  0  0  0  0  0
  180.5980  179.3140  141.3760 C   0  0  0  0  0  2  0  0  0  0  0  0
  184.0680  178.5860  145.1530 C   0  0  0  0  0  3  0  0  0  0  0  0
  184.0950  178.7340  142.7270 N   0  0  0  0  0  0  0  0  0  0  0  0
  184.7440  178.5200  144.0010 C   0  0  0  0  0  0  0  0  0  0  0  0
  186.8310  178.1760  142.8440 C   0  0  0  0  0  0  0  0  0  0  0  0
  180.8140  179.6950  136.3660 C   0  0  0  0  0  2  0  0  0  0  0  0
  189.7020  177.8540  139.4160 C   0  0  0  0  0  3  0  0  0  0  0  0
  179.9500  179.7950  137.6090 C   0  0  2  0  0  3  0  0  0  0  0  0
  180.8400  177.6180  137.2010 C   0  0  0  0  0  2  0  0  0  0  0  0
  182.1170  179.4830  141.4290 C   0  0  2  0  0  3  0  0  0  0  0  0
  188.5510  178.1070  138.6480 C   0  0  0  0  0  3  0  0  0  0  0  0
  182.2330  179.5340  138.9030 C   0  0  0  0  0  2  0  0  0  0  0  0
  180.6990  179.5050  138.8990 C   0  0  1  0  0  0  0  0  0  0  0  0
  186.9300  177.9950  145.3130 C   0  0  0  0  0  3  0  0  0  0  0  0
  186.1950  178.2270  144.0180 C   0  0  0  0  0  0  0  0  0  0  0  0
  188.1170  177.9400  142.6940 O   0  0  0  0  0  0  0  0  0  0  0  0
  184.2780  179.1240  140.2210 C   0  0  0  0  0  2  0  0  0  0  0  0
  186.1930  178.5150  138.4590 O   0  0  0  0  0  1  0  0  0  0  0  0
  190.7460  177.5250  141.5770 O   0  0  0  0  0  1  0  0  0  0  0  0
  186.2090  178.3890  141.6150 C   0  0  0  0  0  0  0  0  0  0  0  0
  188.3740  177.9840  141.4090 C   0  0  0  0  0  0  0  0  0  0  0  0
  1 17  1  0  0  0  0
  1 20  1  0  0  0  0
  2 12  1  0  0  0  0
  3 28  1  1  0  0  0
  3 31  1  0  0  0  0
  3 14  1  0  0  0  0
  4  5  1  0  0  0  0
  6 32  1  0  0  0  0
  6 31  1  0  0  0  0
  7  6  2  0  0  0  0
  8 23  1  6  0  0  0
  8 28  1  0  0  0  0
  8 21  1  0  0  0  0
  9 14  1  0  0  0  0
 10 20  1  6  0  0  0
 10 24  1  0  0  0  0
 11 32  2  0  0  0  0
 11 30  1  0  0  0  0
 13  4  2  0  0  0  0
 14 15  1  0  0  0  0
 15 26  2  0  0  0  0
 15 13  1  0  0  0  0
 16 26  1  0  0  0  0
 18 11  1  0  0  0  0
 19 17  1  6  0  0  0
 19 10  1  0  0  0  0
 19 24  1  0  0  0  0
 21 12  1  6  0  0  0
 21  9  1  0  0  0  0
 22  7  1  0  0  0  0
 22 18  2  0  0  0  0
 24 23  1  6  0  0  0
 24  2  1  0  0  0  0
 25  5  2  0  0  0  0
 26 25  1  0  0  0  0
 27 16  1  0  0  0  0
 29  7  1  0  0  0  0
 31 16  2  0  0  0  0
 32 27  1  0  0  0  0
M  END
>  <MODEL>
6

>  <REMARK>
 VINA RESULT:      -9.8      3.904      6.892
  Name = 
  0 active torsions:
  status: ('A' for Active; 'I' for Inactive)
                            x       y       z     vdW  Elec       q    Type
                         _______ _______ _______ _____ _____    ______ ____

>  <TORSDO>
F 0

$$$$
