=
 OpenBabel11052416023D

 34 38  0  0  1  0  0  0  0  0999 V2000
  182.6640  175.9270  136.8860 C   0  0  2  0  0  0  0  0  0  0  0  0
  187.2520  175.3890  137.5670 C   0  0  0  0  0  1  0  0  0  0  0  0
  184.5430  174.6110  137.5780 O   0  0  0  0  0  0  0  0  0  0  0  0
  180.9050  174.4470  135.9620 C   0  0  0  0  0  2  0  0  0  0  0  0
  181.7260  173.2670  135.8310 O   0  0  0  0  0  0  0  0  0  0  0  0
  183.1030  174.5860  137.7040 C   0  0  2  0  0  3  0  0  0  0  0  0
  181.7070  175.6570  135.7960 C   0  0  0  0  0  2  0  0  0  0  0  0
  182.7630  173.2150  136.8620 C   0  0  0  0  0  2  0  0  0  0  0  0
  186.3230  175.9280  136.6120 C   0  0  0  0  0  0  0  0  0  0  0  0
  186.6770  176.8890  135.6730 C   0  0  0  0  0  0  0  0  0  0  0  0
  185.6650  177.6210  134.9340 C   0  0  0  0  0  3  0  0  0  0  0  0
  184.9640  175.5710  136.8180 C   0  0  0  0  0  0  0  0  0  0  0  0
  184.2450  177.3180  135.2980 C   0  0  0  0  0  3  0  0  0  0  0  0
  183.9630  176.3520  136.2780 C   0  0  0  0  0  0  0  0  0  0  0  0
  182.2010  177.0180  139.2800 C   0  0  1  0  0  3  0  0  0  0  0  0
  183.4350  179.7320  138.6970 C   0  0  0  0  0  2  0  0  0  0  0  0
  184.2720  178.2770  142.2340 C   0  0  0  0  0  2  0  0  0  0  0  0
  181.8630  178.5760  137.2350 C   0  0  0  0  0  0  0  0  0  0  0  0
  182.0030  177.0820  137.7160 C   0  0  1  0  0  3  0  0  0  0  0  0
  186.0050  179.0970  140.9810 C   0  0  2  0  0  3  0  0  0  0  0  0
  183.0810  178.2480  141.4210 C   0  0  0  0  0  2  0  0  0  0  0  0
  186.9640  178.2640  141.6130 O   0  0  0  0  0  1  0  0  0  0  0  0
  183.4280  177.5430  140.0370 C   0  0  2  0  0  3  0  0  0  0  0  0
  181.6120  178.8440  136.0040 O   0  0  0  0  0  0  0  0  0  0  0  0
  181.2990  180.9260  137.8870 C   0  0  0  0  0  1  0  0  0  0  0  0
  184.9850  179.4400  141.8960 O   0  0  0  0  0  0  0  0  0  0  0  0
  185.6630  178.6100  139.5860 C   0  0  0  0  0  0  0  0  0  0  0  0
  184.1980  178.4410  139.1370 C   0  0  2  0  0  3  0  0  0  0  0  0
  186.6080  178.0660  138.8470 C   0  0  0  0  0  2  0  0  0  0  0  0
  181.9500  179.6360  138.2530 C   0  0  2  0  0  3  0  0  0  0  0  0
  181.0670  176.5310  140.2090 C   0  0  0  0  0  1  0  0  0  0  0  0
  188.1220  177.0790  135.3380 C   0  0  0  0  0  0  0  0  0  0  0  0
  188.6610  176.2780  134.5990 O   0  0  0  0  0  0  0  0  0  0  0  0
  188.9210  178.1000  136.0800 C   0  0  0  0  0  1  0  0  0  0  0  0
  1  7  1  6  0  0  0
  1  6  1  0  0  0  0
  1 19  1  0  0  0  0
  3  6  1  0  0  0  0
  5  4  1  0  0  0  0
  5  8  1  0  0  0  0
  6  8  1  6  0  0  0
  7  4  1  0  0  0  0
  9 12  1  0  0  0  0
  9  2  1  0  0  0  0
 10  9  2  0  0  0  0
 11 13  2  0  0  0  0
 11 10  1  0  0  0  0
 12  3  1  0  0  0  0
 13 14  1  0  0  0  0
 14 12  2  0  0  0  0
 14  1  1  0  0  0  0
 15 23  1  0  0  0  0
 15 31  1  1  0  0  0
 18 30  1  0  0  0  0
 19 18  1  6  0  0  0
 19 15  1  0  0  0  0
 20 22  1  1  0  0  0
 20 26  1  0  0  0  0
 21 17  1  0  0  0  0
 23 21  1  1  0  0  0
 24 18  2  0  0  0  0
 26 17  1  0  0  0  0
 27 20  1  0  0  0  0
 28 16  1  1  0  0  0
 28 27  1  0  0  0  0
 28 23  1  0  0  0  0
 29 27  2  0  0  0  0
 30 25  1  6  0  0  0
 30 16  1  0  0  0  0
 32 10  1  0  0  0  0
 32 34  1  0  0  0  0
 33 32  2  0  0  0  0
M  END
>  <MODEL>
1

>  <REMARK>
 VINA RESULT:      -5.8      0.000      0.000
  Name = 
  2 active torsions:
  status: ('A' for Active; 'I' for Inactive)
    1  A    between atoms: C_1  and  C_9
    2  A    between atoms: C_3  and  C_25
                            x       y       z     vdW  Elec       q    Type
                         _______ _______ _______ _____ _____    ______ ____

>  <TORSDO>
F 2

$$$$
=
 OpenBabel11052416023D

 34 38  0  0  1  0  0  0  0  0999 V2000
  183.7530  177.9320  138.3610 C   0  0  2  0  0  0  0  0  0  0  0  0
  188.1960  178.5230  137.0530 C   0  0  0  0  0  1  0  0  0  0  0  0
  185.8900  178.9880  138.6060 O   0  0  0  0  0  0  0  0  0  0  0  0
  182.6470  177.7670  140.5720 C   0  0  0  0  0  2  0  0  0  0  0  0
  183.8120  178.0700  141.3690 O   0  0  0  0  0  0  0  0  0  0  0  0
  184.5300  179.1900  139.0510 C   0  0  2  0  0  3  0  0  0  0  0  0
  183.0280  177.0920  139.3330 C   0  0  0  0  0  2  0  0  0  0  0  0
  184.7210  178.9800  140.6700 C   0  0  0  0  0  2  0  0  0  0  0  0
  187.2260  177.4840  137.2670 C   0  0  0  0  0  0  0  0  0  0  0  0
  187.3300  176.2240  136.6920 C   0  0  0  0  0  0  0  0  0  0  0  0
  186.2020  175.3110  136.6840 C   0  0  0  0  0  3  0  0  0  0  0  0
  186.0420  177.8880  137.9400 C   0  0  0  0  0  0  0  0  0  0  0  0
  184.9300  175.8410  137.2670 C   0  0  0  0  0  3  0  0  0  0  0  0
  184.8920  177.1370  137.8080 C   0  0  0  0  0  0  0  0  0  0  0  0
  182.4240  177.1520  136.1790 C   0  0  1  0  0  3  0  0  0  0  0  0
  179.6250  177.4690  137.3160 C   0  0  0  0  0  2  0  0  0  0  0  0
  180.1650  174.2430  135.1650 C   0  0  0  0  0  2  0  0  0  0  0  0
  181.3930  179.1380  137.4900 C   0  0  0  0  0  0  0  0  0  0  0  0
  182.6880  178.2710  137.2600 C   0  0  1  0  0  3  0  0  0  0  0  0
  179.1450  174.0080  137.2020 C   0  0  2  0  0  3  0  0  0  0  0  0
  180.6500  175.5950  135.0390 C   0  0  0  0  0  2  0  0  0  0  0  0
  179.5700  172.6620  137.3520 O   0  0  0  0  0  1  0  0  0  0  0  0
  181.4680  175.9650  136.3530 C   0  0  2  0  0  3  0  0  0  0  0  0
  181.4210  180.1560  138.2720 O   0  0  0  0  0  0  0  0  0  0  0  0
  179.2010  179.8920  136.5460 C   0  0  0  0  0  1  0  0  0  0  0  0
  178.9310  174.2980  135.8370 O   0  0  0  0  0  0  0  0  0  0  0  0
  179.9410  174.9530  138.0810 C   0  0  0  0  0  0  0  0  0  0  0  0
  180.5690  176.2380  137.5050 C   0  0  2  0  0  3  0  0  0  0  0  0
  180.3360  174.5460  139.2700 C   0  0  0  0  0  2  0  0  0  0  0  0
  180.1880  178.7890  136.7210 C   0  0  2  0  0  3  0  0  0  0  0  0
  183.0240  177.2550  134.7600 C   0  0  0  0  0  1  0  0  0  0  0  0
  188.6590  175.7630  136.1860 C   0  0  0  0  0  0  0  0  0  0  0  0
  188.8730  175.7920  134.9900 O   0  0  0  0  0  0  0  0  0  0  0  0
  189.6030  175.0760  137.1200 C   0  0  0  0  0  1  0  0  0  0  0  0
  1  6  1  0  0  0  0
  1  7  1  1  0  0  0
  2  9  1  0  0  0  0
  3  6  1  0  0  0  0
  4  5  1  0  0  0  0
  6  8  1  1  0  0  0
  7  4  1  0  0  0  0
  8  5  1  0  0  0  0
  9 12  1  0  0  0  0
 10  9  2  0  0  0  0
 11 10  1  0  0  0  0
 11 13  2  0  0  0  0
 12  3  1  0  0  0  0
 13 14  1  0  0  0  0
 14 12  2  0  0  0  0
 14  1  1  0  0  0  0
 15 31  1  6  0  0  0
 15 23  1  0  0  0  0
 15 19  1  0  0  0  0
 17 26  1  0  0  0  0
 18 24  2  0  0  0  0
 19 18  1  1  0  0  0
 19  1  1  0  0  0  0
 20 22  1  6  0  0  0
 20 27  1  0  0  0  0
 21 17  1  0  0  0  0
 23 21  1  6  0  0  0
 23 28  1  0  0  0  0
 26 20  1  0  0  0  0
 27 29  2  0  0  0  0
 28 16  1  6  0  0  0
 28 27  1  0  0  0  0
 30 25  1  1  0  0  0
 30 16  1  0  0  0  0
 30 18  1  0  0  0  0
 32 10  1  0  0  0  0
 32 34  1  0  0  0  0
 33 32  2  0  0  0  0
M  END
>  <MODEL>
2

>  <REMARK>
 VINA RESULT:      -5.5      1.816      5.231
  Name = 
  2 active torsions:
  status: ('A' for Active; 'I' for Inactive)
    1  A    between atoms: C_1  and  C_9
    2  A    between atoms: C_3  and  C_25
                            x       y       z     vdW  Elec       q    Type
                         _______ _______ _______ _____ _____    ______ ____

>  <TORSDO>
F 2

$$$$
=
 OpenBabel11052416023D

 34 38  0  0  1  0  0  0  0  0999 V2000
  180.1630  179.4430  140.3010 C   0  0  2  0  0  0  0  0  0  0  0  0
  178.9310  183.5230  138.3940 C   0  0  0  0  0  1  0  0  0  0  0  0
  178.9310  181.4970  140.3530 O   0  0  0  0  0  0  0  0  0  0  0  0
  180.7460  178.7610  142.6100 C   0  0  0  0  0  2  0  0  0  0  0  0
  180.4330  180.0200  143.2450 O   0  0  0  0  0  0  0  0  0  0  0  0
  178.9370  180.2240  141.0390 C   0  0  2  0  0  3  0  0  0  0  0  0
  181.2010  178.9720  141.2380 C   0  0  0  0  0  2  0  0  0  0  0  0
  179.3450  180.7140  142.5550 C   0  0  0  0  0  2  0  0  0  0  0  0
  180.0870  182.6940  138.6020 C   0  0  0  0  0  0  0  0  0  0  0  0
  181.2380  182.7960  137.8320 C   0  0  0  0  0  0  0  0  0  0  0  0
  182.2550  181.7630  137.8680 C   0  0  0  0  0  3  0  0  0  0  0  0
  179.9070  181.6180  139.5120 C   0  0  0  0  0  0  0  0  0  0  0  0
  181.9480  180.5750  138.7240 C   0  0  0  0  0  3  0  0  0  0  0  0
  180.7500  180.5280  139.4550 C   0  0  0  0  0  0  0  0  0  0  0  0
  180.2040  178.2140  137.9290 C   0  0  1  0  0  3  0  0  0  0  0  0
  181.6980  175.7250  138.8250 C   0  0  0  0  0  2  0  0  0  0  0  0
  182.8320  177.1600  135.3640 C   0  0  0  0  0  2  0  0  0  0  0  0
  179.7880  176.6960  139.9900 C   0  0  0  0  0  0  0  0  0  0  0  0
  179.7920  178.1770  139.4520 C   0  0  1  0  0  3  0  0  0  0  0  0
  184.4600  176.6390  136.8880 C   0  0  2  0  0  3  0  0  0  0  0  0
  181.5430  177.0480  136.0010 C   0  0  0  0  0  2  0  0  0  0  0  0
  185.3790  177.5770  136.3500 O   0  0  0  0  0  1  0  0  0  0  0  0
  181.5870  177.8430  137.3790 C   0  0  2  0  0  3  0  0  0  0  0  0
  179.4000  176.4390  141.1870 O   0  0  0  0  0  0  0  0  0  0  0  0
  179.6490  174.2690  139.3970 C   0  0  0  0  0  1  0  0  0  0  0  0
  183.6400  176.1230  135.8610 O   0  0  0  0  0  0  0  0  0  0  0  0
  183.8580  177.1210  138.1930 C   0  0  0  0  0  0  0  0  0  0  0  0
  182.3340  177.0960  138.4250 C   0  0  2  0  0  3  0  0  0  0  0  0
  184.6020  177.8200  139.0250 C   0  0  0  0  0  2  0  0  0  0  0  0
  180.1640  175.6250  139.0540 C   0  0  2  0  0  3  0  0  0  0  0  0
  179.1610  178.5020  136.8270 C   0  0  0  0  0  1  0  0  0  0  0  0
  181.4810  184.0490  137.0530 C   0  0  0  0  0  0  0  0  0  0  0  0
  182.1090  184.9500  137.5740 O   0  0  0  0  0  0  0  0  0  0  0  0
  180.7690  184.2580  135.7560 C   0  0  0  0  0  1  0  0  0  0  0  0
  1  6  1  0  0  0  0
  1  7  1  1  0  0  0
  2  9  1  0  0  0  0
  3  6  1  0  0  0  0
  4  5  1  0  0  0  0
  6  8  1  1  0  0  0
  7  4  1  0  0  0  0
  8  5  1  0  0  0  0
  9 12  1  0  0  0  0
 10 11  1  0  0  0  0
 10  9  2  0  0  0  0
 11 13  2  0  0  0  0
 12  3  1  0  0  0  0
 13 14  1  0  0  0  0
 14 12  2  0  0  0  0
 14  1  1  0  0  0  0
 15 31  1  6  0  0  0
 15 19  1  0  0  0  0
 16 30  1  0  0  0  0
 17 26  1  0  0  0  0
 17 21  1  0  0  0  0
 18 24  2  0  0  0  0
 19 18  1  1  0  0  0
 19  1  1  0  0  0  0
 20 22  1  6  0  0  0
 20 27  1  0  0  0  0
 23 21  1  6  0  0  0
 23 15  1  0  0  0  0
 23 28  1  0  0  0  0
 26 20  1  0  0  0  0
 27 28  1  0  0  0  0
 27 29  2  0  0  0  0
 28 16  1  6  0  0  0
 30 25  1  1  0  0  0
 30 18  1  0  0  0  0
 32 33  2  0  0  0  0
 32 10  1  0  0  0  0
 34 32  1  0  0  0  0
M  END
>  <MODEL>
3

>  <REMARK>
 VINA RESULT:      -5.4      2.993      7.008
  Name = 
  2 active torsions:
  status: ('A' for Active; 'I' for Inactive)
    1  A    between atoms: C_1  and  C_9
    2  A    between atoms: C_3  and  C_25
                            x       y       z     vdW  Elec       q    Type
                         _______ _______ _______ _____ _____    ______ ____

>  <TORSDO>
F 2

$$$$
=
 OpenBabel11052416023D

 34 38  0  0  1  0  0  0  0  0999 V2000
  180.8660  179.2780  139.3770 C   0  0  2  0  0  0  0  0  0  0  0  0
  185.3620  178.9230  140.5840 C   0  0  0  0  0  1  0  0  0  0  0  0
  183.1690  179.8720  139.0900 O   0  0  0  0  0  0  0  0  0  0  0  0
  179.4260  181.1960  138.7560 C   0  0  0  0  0  2  0  0  0  0  0  0
  180.4710  182.1920  138.7310 O   0  0  0  0  0  0  0  0  0  0  0  0
  181.9270  179.9830  138.3590 C   0  0  2  0  0  3  0  0  0  0  0  0
  179.7300  180.1510  139.7300 C   0  0  0  0  0  2  0  0  0  0  0  0
  181.7540  181.6180  138.3280 C   0  0  0  0  0  2  0  0  0  0  0  0
  184.0550  179.0290  141.1730 C   0  0  0  0  0  0  0  0  0  0  0  0
  183.7790  178.6280  142.4740 C   0  0  0  0  0  0  0  0  0  0  0  0
  182.4110  178.4700  142.9320 C   0  0  0  0  0  3  0  0  0  0  0  0
  183.0110  179.3780  140.2760 C   0  0  0  0  0  0  0  0  0  0  0  0
  181.3480  178.6990  141.9040 C   0  0  0  0  0  3  0  0  0  0  0  0
  181.7040  179.0760  140.5990 C   0  0  0  0  0  0  0  0  0  0  0  0
  180.2760  177.6400  137.3510 C   0  0  1  0  0  3  0  0  0  0  0  0
  181.6860  175.1790  138.4390 C   0  0  0  0  0  2  0  0  0  0  0  0
  182.1760  175.7850  134.6020 C   0  0  0  0  0  2  0  0  0  0  0  0
  180.1740  176.5970  139.7220 C   0  0  0  0  0  0  0  0  0  0  0  0
  180.2020  177.9390  138.8980 C   0  0  1  0  0  3  0  0  0  0  0  0
  184.0380  175.3370  135.8570 C   0  0  2  0  0  3  0  0  0  0  0  0
  181.0500  175.9680  135.4860 C   0  0  0  0  0  2  0  0  0  0  0  0
  184.9030  176.0260  134.9690 O   0  0  0  0  0  1  0  0  0  0  0  0
  181.4660  176.9890  136.6330 C   0  0  2  0  0  3  0  0  0  0  0  0
  180.0310  176.6200  140.9990 O   0  0  0  0  0  0  0  0  0  0  0  0
  179.6810  174.1440  139.6850 C   0  0  0  0  0  1  0  0  0  0  0  0
  182.9700  174.7570  135.1390 O   0  0  0  0  0  0  0  0  0  0  0  0
  183.7800  176.1280  137.1250 C   0  0  0  0  0  0  0  0  0  0  0  0
  182.3470  176.3530  137.6470 C   0  0  2  0  0  3  0  0  0  0  0  0
  184.7500  176.8600  137.6330 C   0  0  0  0  0  2  0  0  0  0  0  0
  180.2360  175.3310  138.9750 C   0  0  2  0  0  3  0  0  0  0  0  0
  179.0520  177.8590  136.4350 C   0  0  0  0  0  1  0  0  0  0  0  0
  184.9070  178.4790  143.4440 C   0  0  0  0  0  0  0  0  0  0  0  0
  185.6830  177.5550  143.3020 O   0  0  0  0  0  0  0  0  0  0  0  0
  184.9300  179.3200  144.6790 C   0  0  0  0  0  1  0  0  0  0  0  0
  1  7  1  1  0  0  0
  1 14  1  0  0  0  0
  2  9  1  0  0  0  0
  3 12  1  0  0  0  0
  4  7  1  0  0  0  0
  5  4  1  0  0  0  0
  6  8  1  1  0  0  0
  6  3  1  0  0  0  0
  6  1  1  0  0  0  0
  8  5  1  0  0  0  0
  9 10  1  0  0  0  0
 10 11  2  0  0  0  0
 10 32  1  0  0  0  0
 12 14  1  0  0  0  0
 12  9  2  0  0  0  0
 13 11  1  0  0  0  0
 14 13  2  0  0  0  0
 15 31  1  1  0  0  0
 15 19  1  0  0  0  0
 16 30  1  0  0  0  0
 17 26  1  0  0  0  0
 17 21  1  0  0  0  0
 18 24  2  0  0  0  0
 19  1  1  0  0  0  0
 19 18  1  1  0  0  0
 20 22  1  6  0  0  0
 20 27  1  0  0  0  0
 23 21  1  6  0  0  0
 23 15  1  0  0  0  0
 23 28  1  0  0  0  0
 26 20  1  0  0  0  0
 27 29  2  0  0  0  0
 27 28  1  0  0  0  0
 28 16  1  6  0  0  0
 30 25  1  1  0  0  0
 30 18  1  0  0  0  0
 32 34  1  0  0  0  0
 33 32  2  0  0  0  0
M  END
>  <MODEL>
4

>  <REMARK>
 VINA RESULT:      -5.3      2.215      6.448
  Name = 
  2 active torsions:
  status: ('A' for Active; 'I' for Inactive)
    1  A    between atoms: C_1  and  C_9
    2  A    between atoms: C_3  and  C_25
                            x       y       z     vdW  Elec       q    Type
                         _______ _______ _______ _____ _____    ______ ____

>  <TORSDO>
F 2

$$$$
=
 OpenBabel11052416023D

 34 38  0  0  1  0  0  0  0  0999 V2000
  190.9800  175.1510  135.8620 C   0  0  2  0  0  0  0  0  0  0  0  0
  195.1370  174.1440  137.7350 C   0  0  0  0  0  1  0  0  0  0  0  0
  192.4190  173.7110  137.1260 O   0  0  0  0  0  0  0  0  0  0  0  0
  189.2910  173.7940  134.6590 C   0  0  0  0  0  2  0  0  0  0  0  0
  189.9340  172.5150  134.8480 O   0  0  0  0  0  0  0  0  0  0  0  0
  191.0040  173.8780  136.8820 C   0  0  2  0  0  3  0  0  0  0  0  0
  190.2820  174.8660  134.5940 C   0  0  0  0  0  2  0  0  0  0  0  0
  190.6740  172.4650  136.1090 C   0  0  0  0  0  2  0  0  0  0  0  0
  194.5550  174.6690  136.5300 C   0  0  0  0  0  0  0  0  0  0  0  0
  195.2640  175.4550  135.6300 C   0  0  0  0  0  0  0  0  0  0  0  0
  194.5790  176.2070  134.5940 C   0  0  0  0  0  3  0  0  0  0  0  0
  193.1490  174.5090  136.4140 C   0  0  0  0  0  0  0  0  0  0  0  0
  193.0850  176.1280  134.6110 C   0  0  0  0  0  3  0  0  0  0  0  0
  192.4350  175.3340  135.5690 C   0  0  0  0  0  0  0  0  0  0  0  0
  189.0670  176.9950  135.5840 C   0  0  1  0  0  3  0  0  0  0  0  0
  187.8320  176.6690  138.3400 C   0  0  0  0  0  2  0  0  0  0  0  0
  185.2500  177.0710  135.4250 C   0  0  0  0  0  2  0  0  0  0  0  0
  190.2200  176.8940  137.9040 C   0  0  0  0  0  0  0  0  0  0  0  0
  190.3200  176.4730  136.3890 C   0  0  1  0  0  3  0  0  0  0  0  0
  184.9130  175.3700  136.9210 C   0  0  2  0  0  3  0  0  0  0  0  0
  186.5360  177.6710  135.6820 C   0  0  0  0  0  2  0  0  0  0  0  0
  184.2010  174.5770  135.9840 O   0  0  0  0  0  1  0  0  0  0  0  0
  187.6240  176.5140  135.7860 C   0  0  2  0  0  3  0  0  0  0  0  0
  191.1820  176.6370  138.7150 O   0  0  0  0  0  0  0  0  0  0  0  0
  189.2090  178.4730  139.5610 C   0  0  0  0  0  1  0  0  0  0  0  0
  184.6830  176.7400  136.6680 O   0  0  0  0  0  0  0  0  0  0  0  0
  186.3180  174.8500  137.1520 C   0  0  0  0  0  0  0  0  0  0  0  0
  187.5380  175.7900  137.0820 C   0  0  2  0  0  3  0  0  0  0  0  0
  186.5320  173.5500  137.1370 C   0  0  0  0  0  2  0  0  0  0  0  0
  189.0330  177.6530  138.3290 C   0  0  2  0  0  3  0  0  0  0  0  0
  189.1890  178.1740  134.5940 C   0  0  0  0  0  1  0  0  0  0  0  0
  196.7580  175.4220  135.6570 C   0  0  0  0  0  0  0  0  0  0  0  0
  197.3560  176.3670  136.1330 O   0  0  0  0  0  0  0  0  0  0  0  0
  197.4840  174.3520  134.9070 C   0  0  0  0  0  1  0  0  0  0  0  0
  1  7  1  6  0  0  0
  1 19  1  0  0  0  0
  1  6  1  0  0  0  0
  4  5  1  0  0  0  0
  5  8  1  0  0  0  0
  6  8  1  6  0  0  0
  6  3  1  0  0  0  0
  7  4  1  0  0  0  0
  9  2  1  0  0  0  0
 10 32  1  0  0  0  0
 10  9  2  0  0  0  0
 11 13  2  0  0  0  0
 11 10  1  0  0  0  0
 12  9  1  0  0  0  0
 12  3  1  0  0  0  0
 13 14  1  0  0  0  0
 14  1  1  0  0  0  0
 14 12  2  0  0  0  0
 15 31  1  1  0  0  0
 15 23  1  0  0  0  0
 15 19  1  0  0  0  0
 17 21  1  0  0  0  0
 17 26  1  0  0  0  0
 18 30  1  0  0  0  0
 18 24  2  0  0  0  0
 19 18  1  1  0  0  0
 20 22  1  6  0  0  0
 20 27  1  0  0  0  0
 23 21  1  1  0  0  0
 23 28  1  0  0  0  0
 26 20  1  0  0  0  0
 28 27  1  0  0  0  0
 28 16  1  1  0  0  0
 29 27  2  0  0  0  0
 30 16  1  0  0  0  0
 30 25  1  1  0  0  0
 32 33  2  0  0  0  0
 34 32  1  0  0  0  0
M  END
>  <MODEL>
5

>  <REMARK>
 VINA RESULT:      -5.2      4.479      7.885
  Name = 
  2 active torsions:
  status: ('A' for Active; 'I' for Inactive)
    1  A    between atoms: C_1  and  C_9
    2  A    between atoms: C_3  and  C_25
                            x       y       z     vdW  Elec       q    Type
                         _______ _______ _______ _____ _____    ______ ____

>  <TORSDO>
F 2

$$$$
=
 OpenBabel11052416023D

 34 38  0  0  1  0  0  0  0  0999 V2000
  183.7050  174.8250  136.0340 C   0  0  2  0  0  0  0  0  0  0  0  0
  187.9020  175.6840  137.8900 C   0  0  0  0  0  1  0  0  0  0  0  0
  185.6200  174.1400  137.3010 O   0  0  0  0  0  0  0  0  0  0  0  0
  182.7440  172.8710  134.8510 C   0  0  0  0  0  2  0  0  0  0  0  0
  183.8670  171.9850  135.0470 O   0  0  0  0  0  0  0  0  0  0  0  0
  184.2660  173.6910  137.0640 C   0  0  2  0  0  3  0  0  0  0  0  0
  183.1890  174.2600  134.7720 C   0  0  0  0  0  2  0  0  0  0  0  0
  184.5620  172.2640  136.3040 C   0  0  0  0  0  2  0  0  0  0  0  0
  187.1500  175.9040  136.6840 C   0  0  0  0  0  0  0  0  0  0  0  0
  187.4590  176.9070  135.7740 C   0  0  0  0  0  0  0  0  0  0  0  0
  186.5190  177.2900  134.7370 C   0  0  0  0  0  3  0  0  0  0  0  0
  185.9430  175.1640  136.5780 C   0  0  0  0  0  0  0  0  0  0  0  0
  185.1980  176.5880  134.7630 C   0  0  0  0  0  3  0  0  0  0  0  0
  184.9460  175.6020  135.7310 C   0  0  0  0  0  0  0  0  0  0  0  0
  182.3730  175.8300  138.1210 C   0  0  1  0  0  3  0  0  0  0  0  0
  182.8460  178.7630  137.4870 C   0  0  0  0  0  2  0  0  0  0  0  0
  183.1960  177.8270  141.2720 C   0  0  0  0  0  2  0  0  0  0  0  0
  182.0920  177.0950  135.8760 C   0  0  0  0  0  0  0  0  0  0  0  0
  182.5490  175.7500  136.5550 C   0  0  1  0  0  3  0  0  0  0  0  0
  184.8550  179.0930  140.3290 C   0  0  2  0  0  3  0  0  0  0  0  0
  182.3010  177.3810  140.2330 C   0  0  0  0  0  2  0  0  0  0  0  0
  185.8360  178.6410  141.2490 O   0  0  0  0  0  1  0  0  0  0  0  0
  183.1660  176.7540  139.0530 C   0  0  2  0  0  3  0  0  0  0  0  0
  182.0780  177.2070  134.5960 O   0  0  0  0  0  0  0  0  0  0  0  0
  180.7140  179.1730  136.0970 C   0  0  0  0  0  1  0  0  0  0  0  0
  183.5900  179.1390  140.9540 O   0  0  0  0  0  0  0  0  0  0  0  0
  185.0220  178.4540  138.9640 C   0  0  0  0  0  0  0  0  0  0  0  0
  183.8280  177.8050  138.2350 C   0  0  2  0  0  3  0  0  0  0  0  0
  186.2350  178.2010  138.5170 C   0  0  0  0  0  2  0  0  0  0  0  0
  181.6100  178.1770  136.7500 C   0  0  2  0  0  3  0  0  0  0  0  0
  181.2450  175.0540  138.8380 C   0  0  0  0  0  1  0  0  0  0  0  0
  188.8280  177.5080  135.7920 C   0  0  0  0  0  0  0  0  0  0  0  0
  189.7290  176.9290  135.2190 O   0  0  0  0  0  0  0  0  0  0  0  0
  189.1070  178.6710  136.6880 C   0  0  0  0  0  1  0  0  0  0  0  0
  1  7  1  6  0  0  0
  1 19  1  0  0  0  0
  1  6  1  0  0  0  0
  4  5  1  0  0  0  0
  5  8  1  0  0  0  0
  6  8  1  6  0  0  0
  6  3  1  0  0  0  0
  7  4  1  0  0  0  0
  9  2  1  0  0  0  0
 10 32  1  0  0  0  0
 10  9  2  0  0  0  0
 11 13  2  0  0  0  0
 11 10  1  0  0  0  0
 12  9  1  0  0  0  0
 12  3  1  0  0  0  0
 13 14  1  0  0  0  0
 14  1  1  0  0  0  0
 14 12  2  0  0  0  0
 15 31  1  6  0  0  0
 15 23  1  0  0  0  0
 18 30  1  0  0  0  0
 19 18  1  1  0  0  0
 19 15  1  0  0  0  0
 20 26  1  0  0  0  0
 20 22  1  1  0  0  0
 21 17  1  0  0  0  0
 23 21  1  1  0  0  0
 24 18  2  0  0  0  0
 26 17  1  0  0  0  0
 27 20  1  0  0  0  0
 28 16  1  1  0  0  0
 28 27  1  0  0  0  0
 28 23  1  0  0  0  0
 29 27  2  0  0  0  0
 30 25  1  6  0  0  0
 30 16  1  0  0  0  0
 32 34  1  0  0  0  0
 33 32  2  0  0  0  0
M  END
>  <MODEL>
6

>  <REMARK>
 VINA RESULT:      -5.1      1.375      1.629
  Name = 
  2 active torsions:
  status: ('A' for Active; 'I' for Inactive)
    1  A    between atoms: C_1  and  C_9
    2  A    between atoms: C_3  and  C_25
                            x       y       z     vdW  Elec       q    Type
                         _______ _______ _______ _____ _____    ______ ____

>  <TORSDO>
F 2

$$$$
=
 OpenBabel11052416023D

 34 38  0  0  1  0  0  0  0  0999 V2000
  181.0630  179.0540  138.1720 C   0  0  2  0  0  0  0  0  0  0  0  0
  182.4800  178.8340  142.6150 C   0  0  0  0  0  1  0  0  0  0  0  0
  182.4890  179.7730  139.9580 O   0  0  0  0  0  0  0  0  0  0  0  0
  180.6630  180.9380  136.6130 C   0  0  0  0  0  2  0  0  0  0  0  0
  181.1640  181.9830  137.4770 O   0  0  0  0  0  0  0  0  0  0  0  0
  182.4310  179.8720  138.5170 C   0  0  2  0  0  3  0  0  0  0  0  0
  180.0890  179.8490  137.3990 C   0  0  0  0  0  2  0  0  0  0  0  0
  182.2350  181.4960  138.3460 C   0  0  0  0  0  2  0  0  0  0  0  0
  181.2770  178.8410  141.8280 C   0  0  0  0  0  0  0  0  0  0  0  0
  180.0660  178.3450  142.2950 C   0  0  0  0  0  0  0  0  0  0  0  0
  178.9620  178.0930  141.3880 C   0  0  0  0  0  3  0  0  0  0  0  0
  181.4460  179.1970  140.4640 C   0  0  0  0  0  0  0  0  0  0  0  0
  179.2400  178.3380  139.9380 C   0  0  0  0  0  3  0  0  0  0  0  0
  180.4990  178.8150  139.5360 C   0  0  0  0  0  0  0  0  0  0  0  0
  182.1090  177.7930  136.0620 C   0  0  1  0  0  3  0  0  0  0  0  0
  183.6000  175.6480  137.6120 C   0  0  0  0  0  2  0  0  0  0  0  0
  185.5880  177.1780  134.6060 C   0  0  0  0  0  2  0  0  0  0  0  0
  181.2760  176.2780  137.9940 C   0  0  0  0  0  0  0  0  0  0  0  0
  181.2170  177.7200  137.3620 C   0  0  1  0  0  3  0  0  0  0  0  0
  186.6640  177.0070  136.6200 C   0  0  2  0  0  3  0  0  0  0  0  0
  184.1960  176.8450  134.7910 C   0  0  0  0  0  2  0  0  0  0  0  0
  187.5430  178.0850  136.3350 O   0  0  0  0  0  1  0  0  0  0  0  0
  183.6380  177.6700  136.0320 C   0  0  2  0  0  3  0  0  0  0  0  0
  180.5530  175.9850  139.0150 O   0  0  0  0  0  0  0  0  0  0  0  0
  181.7510  173.8530  137.6020 C   0  0  0  0  0  1  0  0  0  0  0  0
  186.3390  176.3210  135.4290 O   0  0  0  0  0  0  0  0  0  0  0  0
  185.5840  177.4030  137.6070 C   0  0  0  0  0  0  0  0  0  0  0  0
  184.0980  177.1010  137.3260 C   0  0  2  0  0  3  0  0  0  0  0  0
  185.8750  178.2490  138.5730 C   0  0  0  0  0  2  0  0  0  0  0  0
  182.1200  175.2710  137.3310 C   0  0  2  0  0  3  0  0  0  0  0  0
  181.4690  177.8540  134.6570 C   0  0  0  0  0  1  0  0  0  0  0  0
  179.8650  178.1880  143.7680 C   0  0  0  0  0  0  0  0  0  0  0  0
  180.0180  177.0890  144.2660 O   0  0  0  0  0  0  0  0  0  0  0  0
  179.2710  179.3120  144.5530 C   0  0  0  0  0  1  0  0  0  0  0  0
  1  7  1  6  0  0  0
  1  6  1  0  0  0  0
  1 14  1  0  0  0  0
  3 12  1  0  0  0  0
  4  7  1  0  0  0  0
  4  5  1  0  0  0  0
  5  8  1  0  0  0  0
  6  8  1  1  0  0  0
  6  3  1  0  0  0  0
  9 10  1  0  0  0  0
  9  2  1  0  0  0  0
 10 32  1  0  0  0  0
 11 10  2  0  0  0  0
 12  9  2  0  0  0  0
 13 11  1  0  0  0  0
 14 13  2  0  0  0  0
 14 12  1  0  0  0  0
 15 31  1  6  0  0  0
 15 19  1  0  0  0  0
 17 21  1  0  0  0  0
 17 26  1  0  0  0  0
 18 24  2  0  0  0  0
 19 18  1  1  0  0  0
 19  1  1  0  0  0  0
 20 22  1  6  0  0  0
 20 27  1  0  0  0  0
 23 21  1  6  0  0  0
 23 15  1  0  0  0  0
 23 28  1  0  0  0  0
 26 20  1  0  0  0  0
 27 29  2  0  0  0  0
 28 27  1  0  0  0  0
 28 16  1  6  0  0  0
 30 25  1  1  0  0  0
 30 16  1  0  0  0  0
 30 18  1  0  0  0  0
 32 33  2  0  0  0  0
 32 34  1  0  0  0  0
M  END
>  <MODEL>
7

>  <REMARK>
 VINA RESULT:      -5.1      2.429      6.821
  Name = 
  2 active torsions:
  status: ('A' for Active; 'I' for Inactive)
    1  A    between atoms: C_1  and  C_9
    2  A    between atoms: C_3  and  C_25
                            x       y       z     vdW  Elec       q    Type
                         _______ _______ _______ _____ _____    ______ ____

>  <TORSDO>
F 2

$$$$
=
 OpenBabel11052416023D

 34 38  0  0  1  0  0  0  0  0999 V2000
  183.3550  175.5700  137.1590 C   0  0  2  0  0  0  0  0  0  0  0  0
  187.9330  174.6600  137.2740 C   0  0  0  0  0  1  0  0  0  0  0  0
  185.1930  174.0360  137.0590 O   0  0  0  0  0  0  0  0  0  0  0  0
  181.4990  174.7420  135.7410 C   0  0  0  0  0  2  0  0  0  0  0  0
  182.2600  173.7410  135.0310 O   0  0  0  0  0  0  0  0  0  0  0  0
  183.7580  173.9920  137.2310 C   0  0  2  0  0  3  0  0  0  0  0  0
  182.3500  175.8680  136.1200 C   0  0  0  0  0  2  0  0  0  0  0  0
  183.3270  173.1850  135.8640 C   0  0  0  0  0  2  0  0  0  0  0  0
  186.9980  175.6080  136.7310 C   0  0  0  0  0  0  0  0  0  0  0  0
  187.3650  176.8870  136.3350 C   0  0  0  0  0  0  0  0  0  0  0  0
  186.3640  177.9050  136.0760 C   0  0  0  0  0  3  0  0  0  0  0  0
  185.6320  175.2290  136.8150 C   0  0  0  0  0  0  0  0  0  0  0  0
  184.9450  177.5030  136.3280 C   0  0  0  0  0  3  0  0  0  0  0  0
  184.6510  176.1980  136.7550 C   0  0  0  0  0  0  0  0  0  0  0  0
  183.1420  177.7310  138.7150 C   0  0  1  0  0  3  0  0  0  0  0  0
  180.1100  177.9140  138.6850 C   0  0  0  0  0  2  0  0  0  0  0  0
  181.9610  181.3460  138.3430 C   0  0  0  0  0  2  0  0  0  0  0  0
  181.3760  175.8730  139.1020 C   0  0  0  0  0  0  0  0  0  0  0  0
  182.7750  176.2170  138.4650 C   0  0  1  0  0  3  0  0  0  0  0  0
  180.2680  180.8960  136.8680 C   0  0  2  0  0  3  0  0  0  0  0  0
  182.2370  180.1590  139.1140 C   0  0  0  0  0  2  0  0  0  0  0  0
  180.8050  181.7450  135.8660 O   0  0  0  0  0  1  0  0  0  0  0  0
  182.3960  178.9310  138.1150 C   0  0  2  0  0  3  0  0  0  0  0  0
  180.9300  174.6680  139.0820 O   0  0  0  0  0  0  0  0  0  0  0  0
  179.6490  176.5110  140.7980 C   0  0  0  0  0  1  0  0  0  0  0  0
  180.5700  181.4090  138.1490 O   0  0  0  0  0  0  0  0  0  0  0  0
  180.4900  179.4310  136.5480 C   0  0  0  0  0  0  0  0  0  0  0  0
  181.0830  178.4670  137.5950 C   0  0  2  0  0  3  0  0  0  0  0  0
  180.4390  179.0330  135.2930 C   0  0  0  0  0  2  0  0  0  0  0  0
  180.6470  176.9550  139.7830 C   0  0  2  0  0  3  0  0  0  0  0  0
  184.2320  178.1320  139.7330 C   0  0  0  0  0  1  0  0  0  0  0  0
  188.8050  177.1760  136.0530 C   0  0  0  0  0  0  0  0  0  0  0  0
  189.4500  177.7930  136.8770 O   0  0  0  0  0  0  0  0  0  0  0  0
  189.3560  176.9040  134.6910 C   0  0  0  0  0  1  0  0  0  0  0  0
  1  7  1  6  0  0  0
  1  6  1  0  0  0  0
  1 19  1  0  0  0  0
  3  6  1  0  0  0  0
  4  7  1  0  0  0  0
  5  4  1  0  0  0  0
  5  8  1  0  0  0  0
  6  8  1  6  0  0  0
  9 12  1  0  0  0  0
  9  2  1  0  0  0  0
 10  9  2  0  0  0  0
 11 13  2  0  0  0  0
 11 10  1  0  0  0  0
 12  3  1  0  0  0  0
 13 14  1  0  0  0  0
 14 12  2  0  0  0  0
 14  1  1  0  0  0  0
 15 31  1  1  0  0  0
 16 30  1  0  0  0  0
 17 21  1  0  0  0  0
 18 30  1  0  0  0  0
 19 15  1  0  0  0  0
 19 18  1  6  0  0  0
 20 22  1  6  0  0  0
 20 26  1  0  0  0  0
 23 15  1  0  0  0  0
 23 21  1  1  0  0  0
 24 18  2  0  0  0  0
 26 17  1  0  0  0  0
 27 20  1  0  0  0  0
 27 28  1  0  0  0  0
 28 23  1  0  0  0  0
 28 16  1  1  0  0  0
 29 27  2  0  0  0  0
 30 25  1  6  0  0  0
 32 10  1  0  0  0  0
 32 33  2  0  0  0  0
 34 32  1  0  0  0  0
M  END
>  <MODEL>
8

>  <REMARK>
 VINA RESULT:      -5.0      1.978      3.668
  Name = 
  2 active torsions:
  status: ('A' for Active; 'I' for Inactive)
    1  A    between atoms: C_1  and  C_9
    2  A    between atoms: C_3  and  C_25
                            x       y       z     vdW  Elec       q    Type
                         _______ _______ _______ _____ _____    ______ ____

>  <TORSDO>
F 2

$$$$
=
 OpenBabel11052416023D

 34 38  0  0  1  0  0  0  0  0999 V2000
  183.0870  176.6680  137.4460 C   0  0  2  0  0  0  0  0  0  0  0  0
  187.5280  175.3320  136.8990 C   0  0  0  0  0  1  0  0  0  0  0  0
  184.7850  175.4610  136.2620 O   0  0  0  0  0  0  0  0  0  0  0  0
  181.3370  177.4170  135.8600 C   0  0  0  0  0  2  0  0  0  0  0  0
  182.0830  177.1630  134.6500 O   0  0  0  0  0  0  0  0  0  0  0  0
  183.3420  175.5080  136.3280 C   0  0  2  0  0  3  0  0  0  0  0  0
  182.2350  177.7690  136.9570 C   0  0  0  0  0  2  0  0  0  0  0  0
  182.9980  176.0330  134.8080 C   0  0  0  0  0  2  0  0  0  0  0  0
  186.7450  176.4930  137.2260 C   0  0  0  0  0  0  0  0  0  0  0  0
  187.2640  177.5840  137.9120 C   0  0  0  0  0  0  0  0  0  0  0  0
  186.3900  178.5920  138.4820 C   0  0  0  0  0  3  0  0  0  0  0  0
  185.3510  176.3730  136.9870 C   0  0  0  0  0  0  0  0  0  0  0  0
  184.9210  178.3400  138.3380 C   0  0  0  0  0  3  0  0  0  0  0  0
  184.4700  177.1990  137.6540 C   0  0  0  0  0  0  0  0  0  0  0  0
  182.4780  177.2690  139.9760 C   0  0  1  0  0  3  0  0  0  0  0  0
  179.4730  176.8910  139.7350 C   0  0  0  0  0  2  0  0  0  0  0  0
  180.5690  180.0160  141.8230 C   0  0  0  0  0  2  0  0  0  0  0  0
  181.1430  175.3140  138.9180 C   0  0  0  0  0  0  0  0  0  0  0  0
  182.4240  176.2230  138.7960 C   0  0  1  0  0  3  0  0  0  0  0  0
  178.9650  180.3160  140.2170 C   0  0  2  0  0  3  0  0  0  0  0  0
  181.1040  178.6820  141.7050 C   0  0  0  0  0  2  0  0  0  0  0  0
  179.2880  181.6860  140.0330 O   0  0  0  0  0  1  0  0  0  0  0  0
  181.4860  178.4200  140.1820 C   0  0  2  0  0  3  0  0  0  0  0  0
  180.9540  174.3420  138.1000 O   0  0  0  0  0  0  0  0  0  0  0  0
  179.3700  174.4130  140.4370 C   0  0  0  0  0  1  0  0  0  0  0  0
  179.1910  179.9420  141.5590 O   0  0  0  0  0  0  0  0  0  0  0  0
  179.4740  179.4570  139.0770 C   0  0  0  0  0  0  0  0  0  0  0  0
  180.2820  178.1710  139.3460 C   0  0  2  0  0  3  0  0  0  0  0  0
  179.4720  179.9450  137.8530 C   0  0  0  0  0  2  0  0  0  0  0  0
  180.2260  175.5670  140.0410 C   0  0  2  0  0  3  0  0  0  0  0  0
  183.4900  177.1150  141.1330 C   0  0  0  0  0  1  0  0  0  0  0  0
  188.7450  177.7790  137.9530 C   0  0  0  0  0  0  0  0  0  0  0  0
  189.3440  177.5060  138.9750 O   0  0  0  0  0  0  0  0  0  0  0  0
  189.4220  178.5070  136.8360 C   0  0  0  0  0  1  0  0  0  0  0  0
  1  7  1  6  0  0  0
  1 14  1  0  0  0  0
  1 19  1  0  0  0  0
  2  9  1  0  0  0  0
  3  6  1  0  0  0  0
  3 12  1  0  0  0  0
  4  7  1  0  0  0  0
  5  8  1  0  0  0  0
  5  4  1  0  0  0  0
  6  8  1  6  0  0  0
  6  1  1  0  0  0  0
  9 10  1  0  0  0  0
 10 32  1  0  0  0  0
 10 11  2  0  0  0  0
 12  9  2  0  0  0  0
 12 14  1  0  0  0  0
 13 11  1  0  0  0  0
 14 13  2  0  0  0  0
 15 23  1  0  0  0  0
 15 31  1  1  0  0  0
 16 30  1  0  0  0  0
 18 30  1  0  0  0  0
 19 18  1  6  0  0  0
 19 15  1  0  0  0  0
 20 22  1  6  0  0  0
 20 26  1  0  0  0  0
 21 17  1  0  0  0  0
 23 21  1  1  0  0  0
 24 18  2  0  0  0  0
 26 17  1  0  0  0  0
 27 28  1  0  0  0  0
 27 20  1  0  0  0  0
 28 16  1  1  0  0  0
 28 23  1  0  0  0  0
 29 27  2  0  0  0  0
 30 25  1  6  0  0  0
 32 33  2  0  0  0  0
 34 32  1  0  0  0  0
M  END
>  <MODEL>
9

>  <REMARK>
 VINA RESULT:      -4.7      2.265      4.057
  Name = 
  2 active torsions:
  status: ('A' for Active; 'I' for Inactive)
    1  A    between atoms: C_1  and  C_9
    2  A    between atoms: C_3  and  C_25
                            x       y       z     vdW  Elec       q    Type
                         _______ _______ _______ _____ _____    ______ ____

>  <TORSDO>
F 2

$$$$
