=
 OpenBabel11052416513D

 32 38  0  0  1  0  0  0  0  0999 V2000
  185.7800  178.3230  146.7110 C   0  0  0  0  0  3  0  0  0  0  0  0
  185.7210  178.5280  141.6120 C   0  0  0  0  0  0  0  0  0  0  0  0
  187.3510  178.2380  139.8310 C   0  0  0  0  0  0  0  0  0  0  0  0
  188.2940  177.8280  140.8000 C   0  0  0  0  0  0  0  0  0  0  0  0
  186.4000  178.1920  143.9800 C   0  0  0  0  0  0  0  0  0  0  0  0
  184.3870  179.5920  143.4190 C   0  0  0  0  0  2  0  0  0  0  0  0
  189.0320  177.9230  138.1010 C   0  0  0  0  0  0  0  0  0  0  0  0
  184.9400  178.9330  145.7740 C   0  0  0  0  0  3  0  0  0  0  0  0
  184.4280  178.9330  142.1090 N   0  0  0  0  0  0  0  0  0  0  0  0
  183.1950  178.2610  141.6690 C   0  0  2  0  0  3  0  0  0  0  0  0
  185.0660  179.0400  139.2330 C   0  0  0  0  0  3  0  0  0  0  0  0
  189.9570  177.5170  139.0670 C   0  0  0  0  0  3  0  0  0  0  0  0
  185.2390  178.8580  144.4120 C   0  0  0  0  0  0  0  0  0  0  0  0
  189.5880  177.4690  140.4120 C   0  0  0  0  0  3  0  0  0  0  0  0
  187.2420  177.5860  144.9240 C   0  0  0  0  0  3  0  0  0  0  0  0
  186.9280  177.6460  146.2870 C   0  0  0  0  0  0  0  0  0  0  0  0
  183.1950  177.8940  140.2520 N   0  0  0  0  0  0  0  0  0  0  0  0
  183.7750  178.7270  139.2430 C   0  0  0  0  0  3  0  0  0  0  0  0
  186.7130  178.1510  142.5380 C   0  0  0  0  0  0  0  0  0  0  0  0
  187.9540  177.7990  142.1120 N   0  0  0  0  0  0  0  0  0  0  0  0
  189.4020  177.9720  136.7640 O   0  0  0  0  0  1  0  0  0  0  0  0
  186.0440  178.5780  140.2390 C   0  0  0  0  0  0  0  0  0  0  0  0
  187.7370  178.2810  138.4800 C   0  0  0  0  0  3  0  0  0  0  0  0
  181.3580  178.2820  142.8660 O   0  0  0  0  0  1  0  0  0  0  0  0
  182.0420  179.0050  141.9970 O   0  0  0  0  0  0  0  0  0  0  0  0
  182.9820  175.9070  139.0400 O   0  0  0  0  0  1  0  0  0  0  0  0
  182.2970  176.8300  139.8340 C   0  0  0  0  0  2  0  0  0  0  0  0
  187.8260  177.0120  147.2930 C   0  0  0  0  0  2  0  0  0  0  0  0
  189.9500  177.9730  146.4040 C   0  0  1  0  0  3  0  0  0  0  0  0
  189.0150  177.9140  147.5990 C   0  0  2  0  0  3  0  0  0  0  0  0
  190.3150  177.1280  147.6040 C   0  0  1  0  0  3  0  0  0  0  0  0
  190.6200  176.6260  146.2060 C   0  0  0  0  0  2  0  0  0  0  0  0
  2  9  1  0  0  0  0
  2 19  1  0  0  0  0
  3 22  1  0  0  0  0
  3  4  1  0  0  0  0
  4 20  1  0  0  0  0
  5 13  2  0  0  0  0
  5 15  1  0  0  0  0
  6 13  1  0  0  0  0
  7 23  1  0  0  0  0
  7 12  2  0  0  0  0
  8  1  2  0  0  0  0
  9  6  1  0  0  0  0
 10 25  1  6  0  0  0
 10  9  1  0  0  0  0
 11 18  2  0  0  0  0
 11 22  1  0  0  0  0
 12 14  1  0  0  0  0
 13  8  1  0  0  0  0
 14  4  2  0  0  0  0
 15 16  2  0  0  0  0
 16  1  1  0  0  0  0
 16 28  1  0  0  0  0
 17 10  1  0  0  0  0
 18 17  1  0  0  0  0
 19  5  1  0  0  0  0
 20 19  2  0  0  0  0
 21  7  1  0  0  0  0
 22  2  2  0  0  0  0
 23  3  2  0  0  0  0
 25 24  1  0  0  0  0
 26 27  1  0  0  0  0
 27 17  1  0  0  0  0
 29 32  1  6  0  0  0
 29 30  1  0  0  0  0
 29 31  1  0  0  0  0
 30 28  1  6  0  0  0
 30 31  1  0  0  0  0
 31 32  1  6  0  0  0
M  END
>  <MODEL>
1

>  <REMARK>
 VINA RESULT:      -9.5      0.000      0.000
  Name = 
  4 active torsions:
  status: ('A' for Active; 'I' for Inactive)
    1  A    between atoms: C_10  and  C_19
    2  A    between atoms: O_13  and  C_15
    3  A    between atoms: C_19  and  C_24
    4  A    between atoms: C_25  and  N_26
                            x       y       z     vdW  Elec       q    Type
                         _______ _______ _______ _____ _____    ______ ____

>  <TORSDO>
F 4

$$$$
=
 OpenBabel11052416513D

 32 38  0  0  1  0  0  0  0  0999 V2000
  184.1510  178.8150  145.7470 C   0  0  0  0  0  3  0  0  0  0  0  0
  184.7700  178.4030  140.6980 C   0  0  0  0  0  0  0  0  0  0  0  0
  186.6570  178.3620  139.1660 C   0  0  0  0  0  0  0  0  0  0  0  0
  187.5260  178.3370  140.2800 C   0  0  0  0  0  0  0  0  0  0  0  0
  185.1680  178.5410  143.1490 C   0  0  0  0  0  0  0  0  0  0  0  0
  182.9660  179.2680  142.1720 C   0  0  0  0  0  2  0  0  0  0  0  0
  188.5930  178.3150  137.6920 C   0  0  0  0  0  0  0  0  0  0  0  0
  183.3260  179.0610  144.6450 C   0  0  0  0  0  3  0  0  0  0  0  0
  183.3600  178.4970  140.9880 N   0  0  0  0  0  0  0  0  0  0  0  0
  182.4130  177.4700  140.5240 C   0  0  2  0  0  3  0  0  0  0  0  0
  184.3540  178.4390  138.2130 C   0  0  0  0  0  3  0  0  0  0  0  0
  189.4430  178.2900  138.8010 C   0  0  0  0  0  3  0  0  0  0  0  0
  183.8260  178.9120  143.3500 C   0  0  0  0  0  0  0  0  0  0  0  0
  188.9100  178.3010  140.0910 C   0  0  0  0  0  3  0  0  0  0  0  0
  185.9920  178.2990  144.2570 C   0  0  0  0  0  3  0  0  0  0  0  0
  185.4820  178.4300  145.5540 C   0  0  0  0  0  0  0  0  0  0  0  0
  182.7090  176.9550  139.1870 N   0  0  0  0  0  0  0  0  0  0  0  0
  183.1960  177.7910  138.1320 C   0  0  0  0  0  3  0  0  0  0  0  0
  185.6830  178.4200  141.7720 C   0  0  0  0  0  0  0  0  0  0  0  0
  187.0210  178.3700  141.5380 N   0  0  0  0  0  0  0  0  0  0  0  0
  189.1250  178.3080  136.4100 O   0  0  0  0  0  1  0  0  0  0  0  0
  185.2630  178.3790  139.3760 C   0  0  0  0  0  0  0  0  0  0  0  0
  187.2090  178.3510  137.8730 C   0  0  0  0  0  3  0  0  0  0  0  0
  180.4310  177.0120  141.3410 O   0  0  0  0  0  1  0  0  0  0  0  0
  181.0750  177.9060  140.6120 O   0  0  0  0  0  0  0  0  0  0  0  0
  183.1190  174.9320  138.0900 O   0  0  0  0  0  1  0  0  0  0  0  0
  182.1800  175.6460  138.8380 C   0  0  0  0  0  2  0  0  0  0  0  0
  186.3580  178.1840  146.7350 C   0  0  0  0  0  2  0  0  0  0  0  0
  188.3070  176.8810  147.5870 C   0  0  1  0  0  3  0  0  0  0  0  0
  187.5630  177.3370  146.3450 C   0  0  2  0  0  3  0  0  0  0  0  0
  188.8630  178.0100  146.7490 C   0  0  1  0  0  3  0  0  0  0  0  0
  188.9650  178.0710  148.2600 C   0  0  0  0  0  2  0  0  0  0  0  0
  2  9  1  0  0  0  0
  2 19  1  0  0  0  0
  3 22  1  0  0  0  0
  3  4  1  0  0  0  0
  4 20  1  0  0  0  0
  5 13  2  0  0  0  0
  5 15  1  0  0  0  0
  6 13  1  0  0  0  0
  7 23  1  0  0  0  0
  7 12  2  0  0  0  0
  8  1  2  0  0  0  0
  9  6  1  0  0  0  0
 10 25  1  6  0  0  0
 10  9  1  0  0  0  0
 11 22  1  0  0  0  0
 12 14  1  0  0  0  0
 13  8  1  0  0  0  0
 14  4  2  0  0  0  0
 15 16  2  0  0  0  0
 16  1  1  0  0  0  0
 16 28  1  0  0  0  0
 17 10  1  0  0  0  0
 18 11  2  0  0  0  0
 18 17  1  0  0  0  0
 19  5  1  0  0  0  0
 20 19  2  0  0  0  0
 21  7  1  0  0  0  0
 22  2  2  0  0  0  0
 23  3  2  0  0  0  0
 25 24  1  0  0  0  0
 26 27  1  0  0  0  0
 27 17  1  0  0  0  0
 29 32  1  1  0  0  0
 30 28  1  1  0  0  0
 30 31  1  0  0  0  0
 30 29  1  0  0  0  0
 31 29  1  0  0  0  0
 31 32  1  1  0  0  0
M  END
>  <MODEL>
2

>  <REMARK>
 VINA RESULT:      -9.3      1.176      1.634
  Name = 
  4 active torsions:
  status: ('A' for Active; 'I' for Inactive)
    1  A    between atoms: C_10  and  C_19
    2  A    between atoms: O_13  and  C_15
    3  A    between atoms: C_19  and  C_24
    4  A    between atoms: C_25  and  N_26
                            x       y       z     vdW  Elec       q    Type
                         _______ _______ _______ _____ _____    ______ ____

>  <TORSDO>
F 4

$$$$
=
 OpenBabel11052416513D

 32 38  0  0  1  0  0  0  0  0999 V2000
  184.1130  178.4700  145.4650 C   0  0  0  0  0  3  0  0  0  0  0  0
  188.2200  177.5700  142.5740 C   0  0  0  0  0  0  0  0  0  0  0  0
  188.7170  177.5700  140.1940 C   0  0  0  0  0  0  0  0  0  0  0  0
  187.4240  178.0850  139.9520 C   0  0  0  0  0  0  0  0  0  0  0  0
  185.9510  178.2090  143.3650 C   0  0  0  0  0  0  0  0  0  0  0  0
  187.4540  176.7980  144.8080 C   0  0  0  0  0  2  0  0  0  0  0  0
  189.1460  177.6020  137.7990 C   0  0  0  0  0  0  0  0  0  0  0  0
  185.3000  177.7600  145.6620 C   0  0  0  0  0  3  0  0  0  0  0  0
  188.5430  177.2700  143.9480 N   0  0  0  0  0  0  0  0  0  0  0  0
  189.6870  177.9070  144.6210 C   0  0  2  0  0  3  0  0  0  0  0  0
  190.4660  176.7530  141.7730 C   0  0  0  0  0  3  0  0  0  0  0  0
  187.8660  178.1120  137.5710 C   0  0  0  0  0  3  0  0  0  0  0  0
  186.2250  177.6390  144.6220 C   0  0  0  0  0  0  0  0  0  0  0  0
  187.0070  178.3530  138.6450 C   0  0  0  0  0  3  0  0  0  0  0  0
  184.7560  178.9170  143.1720 C   0  0  0  0  0  3  0  0  0  0  0  0
  183.8410  179.0520  144.2220 C   0  0  0  0  0  0  0  0  0  0  0  0
  190.8590  178.0760  143.7610 N   0  0  0  0  0  0  0  0  0  0  0  0
  191.2480  177.0980  142.7910 C   0  0  0  0  0  3  0  0  0  0  0  0
  186.9290  178.0440  142.2720 C   0  0  0  0  0  0  0  0  0  0  0  0
  186.5740  178.3020  140.9850 N   0  0  0  0  0  0  0  0  0  0  0  0
  189.9970  177.3590  136.7290 O   0  0  0  0  0  1  0  0  0  0  0  0
  189.1270  177.3230  141.5210 C   0  0  0  0  0  0  0  0  0  0  0  0
  189.5700  177.3320  139.1020 C   0  0  0  0  0  3  0  0  0  0  0  0
  189.6210  178.0160  146.8090 O   0  0  0  0  0  1  0  0  0  0  0  0
  190.0310  177.2460  145.8180 O   0  0  0  0  0  0  0  0  0  0  0  0
  191.1900  180.3310  144.2780 O   0  0  0  0  0  1  0  0  0  0  0  0
  191.8260  179.0960  144.1360 C   0  0  0  0  0  2  0  0  0  0  0  0
  182.5660  179.7950  144.0170 C   0  0  0  0  0  2  0  0  0  0  0  0
  180.3200  179.7450  142.9310 C   0  0  1  0  0  3  0  0  0  0  0  0
  181.6840  179.0810  143.0000 C   0  0  2  0  0  3  0  0  0  0  0  0
  180.4830  178.4360  143.6700 C   0  0  1  0  0  3  0  0  0  0  0  0
  179.5640  179.5070  144.2250 C   0  0  0  0  0  2  0  0  0  0  0  0
  1  8  1  0  0  0  0
  2  9  1  0  0  0  0
  3 22  1  0  0  0  0
  4  3  1  0  0  0  0
  4 20  1  0  0  0  0
  5 13  1  0  0  0  0
  7 23  1  0  0  0  0
  9 10  1  0  0  0  0
  9  6  1  0  0  0  0
 10 25  1  1  0  0  0
 11 18  2  0  0  0  0
 12  7  2  0  0  0  0
 12 14  1  0  0  0  0
 13  6  1  0  0  0  0
 13  8  2  0  0  0  0
 14  4  2  0  0  0  0
 15  5  2  0  0  0  0
 15 16  1  0  0  0  0
 16  1  2  0  0  0  0
 17 27  1  0  0  0  0
 17 10  1  0  0  0  0
 18 17  1  0  0  0  0
 19  2  1  0  0  0  0
 19  5  1  0  0  0  0
 20 19  2  0  0  0  0
 21  7  1  0  0  0  0
 22 11  1  0  0  0  0
 22  2  2  0  0  0  0
 23  3  2  0  0  0  0
 25 24  1  0  0  0  0
 27 26  1  0  0  0  0
 28 16  1  0  0  0  0
 29 30  1  0  0  0  0
 29 31  1  0  0  0  0
 29 32  1  1  0  0  0
 30 31  1  0  0  0  0
 30 28  1  1  0  0  0
 31 32  1  1  0  0  0
M  END
>  <MODEL>
3

>  <REMARK>
 VINA RESULT:      -8.9      3.254      6.216
  Name = 
  4 active torsions:
  status: ('A' for Active; 'I' for Inactive)
    1  A    between atoms: C_10  and  C_19
    2  A    between atoms: O_13  and  C_15
    3  A    between atoms: C_19  and  C_24
    4  A    between atoms: C_25  and  N_26
                            x       y       z     vdW  Elec       q    Type
                         _______ _______ _______ _____ _____    ______ ____

>  <TORSDO>
F 4

$$$$
=
 OpenBabel11052416513D

 32 38  0  0  1  0  0  0  0  0999 V2000
  184.8830  178.9270  144.7340 C   0  0  0  0  0  3  0  0  0  0  0  0
  186.7880  178.1570  140.0620 C   0  0  0  0  0  0  0  0  0  0  0  0
  188.9550  177.5620  139.1340 C   0  0  0  0  0  0  0  0  0  0  0  0
  189.4310  177.3590  140.4480 C   0  0  0  0  0  0  0  0  0  0  0  0
  186.4910  178.2890  142.5280 C   0  0  0  0  0  0  0  0  0  0  0  0
  184.9290  179.5230  140.9880 C   0  0  0  0  0  2  0  0  0  0  0  0
  191.1480  176.9520  138.2760 C   0  0  0  0  0  0  0  0  0  0  0  0
  184.5010  179.3330  143.4520 C   0  0  0  0  0  3  0  0  0  0  0  0
  185.4290  178.6280  139.9400 N   0  0  0  0  0  0  0  0  0  0  0  0
  184.4200  177.8640  139.1880 C   0  0  2  0  0  3  0  0  0  0  0  0
  187.1230  178.1970  137.5650 C   0  0  0  0  0  3  0  0  0  0  0  0
  191.6080  176.7530  139.5790 C   0  0  0  0  0  3  0  0  0  0  0  0
  185.2930  179.0060  142.3490 C   0  0  0  0  0  0  0  0  0  0  0  0
  190.7520  176.9550  140.6630 C   0  0  0  0  0  3  0  0  0  0  0  0
  186.8710  177.8890  143.8160 C   0  0  0  0  0  3  0  0  0  0  0  0
  186.0650  178.2020  144.9170 C   0  0  0  0  0  0  0  0  0  0  0  0
  184.9410  177.2340  137.9730 N   0  0  0  0  0  0  0  0  0  0  0  0
  185.9090  177.8700  137.1320 C   0  0  0  0  0  3  0  0  0  0  0  0
  187.3270  177.9810  141.3520 C   0  0  0  0  0  0  0  0  0  0  0  0
  188.6150  177.5750  141.5090 N   0  0  0  0  0  0  0  0  0  0  0  0
  192.0030  176.7530  137.2000 O   0  0  0  0  0  1  0  0  0  0  0  0
  187.6130  177.9510  138.9360 C   0  0  0  0  0  0  0  0  0  0  0  0
  189.8290  177.3540  138.0530 C   0  0  0  0  0  3  0  0  0  0  0  0
  182.2570  178.0370  139.4930 O   0  0  0  0  0  1  0  0  0  0  0  0
  183.2750  178.6360  138.9040 O   0  0  0  0  0  0  0  0  0  0  0  0
  185.0820  175.0270  137.2190 O   0  0  0  0  0  1  0  0  0  0  0  0
  184.2100  176.0950  137.4410 C   0  0  0  0  0  2  0  0  0  0  0  0
  186.4720  177.7850  146.2890 C   0  0  0  0  0  2  0  0  0  0  0  0
  188.3250  176.8520  147.6740 C   0  0  1  0  0  3  0  0  0  0  0  0
  187.9630  177.4790  146.3390 C   0  0  2  0  0  3  0  0  0  0  0  0
  188.6580  178.3030  147.4100 C   0  0  1  0  0  3  0  0  0  0  0  0
  188.1760  177.8770  148.7830 C   0  0  0  0  0  2  0  0  0  0  0  0
  1 16  1  0  0  0  0
  2 19  1  0  0  0  0
  3  4  1  0  0  0  0
  4 14  2  0  0  0  0
  4 20  1  0  0  0  0
  5 15  1  0  0  0  0
  6 13  1  0  0  0  0
  7 12  2  0  0  0  0
  8  1  2  0  0  0  0
  9  2  1  0  0  0  0
  9  6  1  0  0  0  0
 10 25  1  6  0  0  0
 10  9  1  0  0  0  0
 11 22  1  0  0  0  0
 12 14  1  0  0  0  0
 13  5  2  0  0  0  0
 13  8  1  0  0  0  0
 15 16  2  0  0  0  0
 16 28  1  0  0  0  0
 17 10  1  0  0  0  0
 18 11  2  0  0  0  0
 18 17  1  0  0  0  0
 19 20  2  0  0  0  0
 19  5  1  0  0  0  0
 21  7  1  0  0  0  0
 22  3  1  0  0  0  0
 22  2  2  0  0  0  0
 23  7  1  0  0  0  0
 23  3  2  0  0  0  0
 25 24  1  0  0  0  0
 26 27  1  0  0  0  0
 27 17  1  0  0  0  0
 29 32  1  1  0  0  0
 30 28  1  1  0  0  0
 30 31  1  0  0  0  0
 30 29  1  0  0  0  0
 31 29  1  0  0  0  0
 31 32  1  1  0  0  0
M  END
>  <MODEL>
4

>  <REMARK>
 VINA RESULT:      -8.9      1.627      2.373
  Name = 
  4 active torsions:
  status: ('A' for Active; 'I' for Inactive)
    1  A    between atoms: C_10  and  C_19
    2  A    between atoms: O_13  and  C_15
    3  A    between atoms: C_19  and  C_24
    4  A    between atoms: C_25  and  N_26
                            x       y       z     vdW  Elec       q    Type
                         _______ _______ _______ _____ _____    ______ ____

>  <TORSDO>
F 4

$$$$
=
 OpenBabel11052416513D

 32 38  0  0  1  0  0  0  0  0999 V2000
  184.4770  179.0770  141.9860 C   0  0  0  0  0  3  0  0  0  0  0  0
  187.9260  177.4950  138.5730 C   0  0  0  0  0  0  0  0  0  0  0  0
  190.3330  177.1590  138.5470 C   0  0  0  0  0  0  0  0  0  0  0  0
  190.3590  177.4330  139.9330 C   0  0  0  0  0  0  0  0  0  0  0  0
  186.8000  178.2280  140.6650 C   0  0  0  0  0  0  0  0  0  0  0  0
  185.7140  178.6200  138.4300 C   0  0  0  0  0  2  0  0  0  0  0  0
  192.7440  176.8330  138.5970 C   0  0  0  0  0  0  0  0  0  0  0  0
  184.5050  179.0220  140.5900 C   0  0  0  0  0  3  0  0  0  0  0  0
  186.6420  177.6040  137.9220 N   0  0  0  0  0  0  0  0  0  0  0  0
  186.0460  176.4620  137.2110 C   0  0  2  0  0  3  0  0  0  0  0  0
  189.0770  176.9220  136.4060 C   0  0  0  0  0  3  0  0  0  0  0  0
  192.7570  177.1040  139.9670 C   0  0  0  0  0  3  0  0  0  0  0  0
  185.6560  178.5880  139.9290 C   0  0  0  0  0  0  0  0  0  0  0  0
  191.5670  177.4030  140.6330 C   0  0  0  0  0  3  0  0  0  0  0  0
  186.7680  178.2890  142.0660 C   0  0  0  0  0  3  0  0  0  0  0  0
  185.6060  178.7070  142.7250 C   0  0  0  0  0  0  0  0  0  0  0  0
  187.0170  175.6540  136.4720 N   0  0  0  0  0  0  0  0  0  0  0  0
  188.1290  176.2310  135.7800 C   0  0  0  0  0  3  0  0  0  0  0  0
  188.0150  177.8010  139.9450 C   0  0  0  0  0  0  0  0  0  0  0  0
  189.2120  177.7460  140.5860 N   0  0  0  0  0  0  0  0  0  0  0  0
  193.9290  176.5400  137.9360 O   0  0  0  0  0  1  0  0  0  0  0  0
  189.1010  177.1750  137.8600 C   0  0  0  0  0  0  0  0  0  0  0  0
  191.5390  176.8600  137.8900 C   0  0  0  0  0  3  0  0  0  0  0  0
  183.9000  176.2400  136.8210 O   0  0  0  0  0  1  0  0  0  0  0  0
  184.9800  176.8570  136.3760 O   0  0  0  0  0  0  0  0  0  0  0  0
  186.0760  173.6730  137.2790 O   0  0  0  0  0  1  0  0  0  0  0  0
  186.6510  174.2810  136.1620 C   0  0  0  0  0  2  0  0  0  0  0  0
  185.5720  178.7820  144.2130 C   0  0  0  0  0  2  0  0  0  0  0  0
  186.0610  177.4750  146.2820 C   0  0  1  0  0  3  0  0  0  0  0  0
  186.4410  177.6910  144.8280 C   0  0  2  0  0  3  0  0  0  0  0  0
  187.3160  178.2450  145.9390 C   0  0  1  0  0  3  0  0  0  0  0  0
  186.4520  178.6890  147.1040 C   0  0  0  0  0  2  0  0  0  0  0  0
  1 16  1  0  0  0  0
  2 19  1  0  0  0  0
  3  4  1  0  0  0  0
  4 20  1  0  0  0  0
  4 14  2  0  0  0  0
  5 15  1  0  0  0  0
  6 13  1  0  0  0  0
  7 12  2  0  0  0  0
  8  1  2  0  0  0  0
  9  6  1  0  0  0  0
  9  2  1  0  0  0  0
 10 25  1  6  0  0  0
 10  9  1  0  0  0  0
 11 22  1  0  0  0  0
 12 14  1  0  0  0  0
 13  8  1  0  0  0  0
 13  5  2  0  0  0  0
 15 16  2  0  0  0  0
 16 28  1  0  0  0  0
 17 10  1  0  0  0  0
 18 11  2  0  0  0  0
 18 17  1  0  0  0  0
 19 20  2  0  0  0  0
 19  5  1  0  0  0  0
 21  7  1  0  0  0  0
 22  3  1  0  0  0  0
 22  2  2  0  0  0  0
 23  3  2  0  0  0  0
 23  7  1  0  0  0  0
 25 24  1  0  0  0  0
 27 17  1  0  0  0  0
 27 26  1  0  0  0  0
 29 32  1  6  0  0  0
 30 28  1  6  0  0  0
 30 31  1  0  0  0  0
 30 29  1  0  0  0  0
 31 29  1  0  0  0  0
 31 32  1  6  0  0  0
M  END
>  <MODEL>
5

>  <REMARK>
 VINA RESULT:      -8.1      2.687      4.514
  Name = 
  4 active torsions:
  status: ('A' for Active; 'I' for Inactive)
    1  A    between atoms: C_10  and  C_19
    2  A    between atoms: O_13  and  C_15
    3  A    between atoms: C_19  and  C_24
    4  A    between atoms: C_25  and  N_26
                            x       y       z     vdW  Elec       q    Type
                         _______ _______ _______ _____ _____    ______ ____

>  <TORSDO>
F 4

$$$$
=
 OpenBabel11052416513D

 32 38  0  0  1  0  0  0  0  0999 V2000
  184.3840  178.9920  145.0430 C   0  0  0  0  0  3  0  0  0  0  0  0
  182.2210  178.1880  140.4910 C   0  0  0  0  0  0  0  0  0  0  0  0
  183.0080  177.8770  138.2110 C   0  0  0  0  0  0  0  0  0  0  0  0
  184.3330  177.8500  138.7020 C   0  0  0  0  0  0  0  0  0  0  0  0
  183.8600  178.4550  142.3410 C   0  0  0  0  0  0  0  0  0  0  0  0
  181.5060  179.3080  142.5920 C   0  0  0  0  0  2  0  0  0  0  0  0
  183.8670  177.5590  135.9570 C   0  0  0  0  0  0  0  0  0  0  0  0
  183.1120  179.2360  144.5170 C   0  0  0  0  0  3  0  0  0  0  0  0
  181.1830  178.4270  141.4640 N   0  0  0  0  0  0  0  0  0  0  0  0
  180.0940  177.4590  141.6740 C   0  0  2  0  0  3  0  0  0  0  0  0
  180.5550  178.0950  138.6030 C   0  0  0  0  0  3  0  0  0  0  0  0
  185.1730  177.5330  136.4530 C   0  0  0  0  0  3  0  0  0  0  0  0
  182.8440  178.9570  143.1750 C   0  0  0  0  0  0  0  0  0  0  0  0
  185.4050  177.6780  137.8220 C   0  0  0  0  0  3  0  0  0  0  0  0
  185.1350  178.2170  142.8730 C   0  0  0  0  0  3  0  0  0  0  0  0
  185.3950  178.4790  144.2230 C   0  0  0  0  0  0  0  0  0  0  0  0
  179.6160  176.8310  140.4410 N   0  0  0  0  0  0  0  0  0  0  0  0
  179.5040  177.5480  139.2070 C   0  0  0  0  0  3  0  0  0  0  0  0
  183.5630  178.1960  140.9200 C   0  0  0  0  0  0  0  0  0  0  0  0
  184.5710  178.0120  140.0270 N   0  0  0  0  0  0  0  0  0  0  0  0
  183.6390  177.4190  134.5950 O   0  0  0  0  0  1  0  0  0  0  0  0
  181.9380  178.0320  139.1170 C   0  0  0  0  0  0  0  0  0  0  0  0
  182.7900  177.7300  136.8310 C   0  0  0  0  0  3  0  0  0  0  0  0
  179.3050  177.8480  143.6810 O   0  0  0  0  0  1  0  0  0  0  0  0
  179.0230  178.0170  142.4020 O   0  0  0  0  0  0  0  0  0  0  0  0
  179.1780  174.9920  141.8130 O   0  0  0  0  0  1  0  0  0  0  0  0
  178.9310  175.5540  140.5590 C   0  0  0  0  0  2  0  0  0  0  0  0
  186.7520  178.2360  144.7890 C   0  0  0  0  0  2  0  0  0  0  0  0
  188.8100  176.8410  144.5750 C   0  0  1  0  0  3  0  0  0  0  0  0
  187.3240  176.9220  144.2720 C   0  0  2  0  0  3  0  0  0  0  0  0
  188.3450  177.1600  143.1720 C   0  0  1  0  0  3  0  0  0  0  0  0
  189.5630  177.8610  143.7420 C   0  0  0  0  0  2  0  0  0  0  0  0
  2 19  1  0  0  0  0
  2  9  1  0  0  0  0
  3  4  1  0  0  0  0
  3 22  1  0  0  0  0
  4 20  1  0  0  0  0
  5 15  2  0  0  0  0
  5 13  1  0  0  0  0
  6 13  1  0  0  0  0
  7 12  2  0  0  0  0
  7 23  1  0  0  0  0
  8  1  1  0  0  0  0
  9 10  1  0  0  0  0
  9  6  1  0  0  0  0
 10 25  1  6  0  0  0
 11 22  1  0  0  0  0
 11 18  2  0  0  0  0
 12 14  1  0  0  0  0
 13  8  2  0  0  0  0
 14  4  2  0  0  0  0
 15 16  1  0  0  0  0
 16 28  1  0  0  0  0
 16  1  2  0  0  0  0
 17 27  1  0  0  0  0
 17 10  1  0  0  0  0
 18 17  1  0  0  0  0
 19  5  1  0  0  0  0
 20 19  2  0  0  0  0
 21  7  1  0  0  0  0
 22  2  2  0  0  0  0
 23  3  2  0  0  0  0
 25 24  1  0  0  0  0
 27 26  1  0  0  0  0
 29 32  1  1  0  0  0
 30 29  1  0  0  0  0
 30 28  1  1  0  0  0
 31 32  1  1  0  0  0
 31 30  1  0  0  0  0
 31 29  1  0  0  0  0
M  END
>  <MODEL>
6

>  <REMARK>
 VINA RESULT:      -8.0      2.699      3.936
  Name = 
  4 active torsions:
  status: ('A' for Active; 'I' for Inactive)
    1  A    between atoms: C_10  and  C_19
    2  A    between atoms: O_13  and  C_15
    3  A    between atoms: C_19  and  C_24
    4  A    between atoms: C_25  and  N_26
                            x       y       z     vdW  Elec       q    Type
                         _______ _______ _______ _____ _____    ______ ____

>  <TORSDO>
F 4

$$$$
=
 OpenBabel11052416513D

 32 38  0  0  1  0  0  0  0  0999 V2000
  191.7010  177.2610  141.3520 C   0  0  0  0  0  3  0  0  0  0  0  0
  187.7640  178.1720  144.4700 C   0  0  0  0  0  0  0  0  0  0  0  0
  185.3710  178.5150  144.2100 C   0  0  0  0  0  0  0  0  0  0  0  0
  185.5020  178.1940  142.8400 C   0  0  0  0  0  0  0  0  0  0  0  0
  189.1660  177.6640  142.4790 C   0  0  0  0  0  0  0  0  0  0  0  0
  190.2040  178.6390  144.5530 C   0  0  0  0  0  2  0  0  0  0  0  0
  182.9820  178.8370  143.8770 C   0  0  0  0  0  0  0  0  0  0  0  0
  191.5860  177.7920  142.6400 C   0  0  0  0  0  3  0  0  0  0  0  0
  188.9840  178.2000  145.2400 N   0  0  0  0  0  0  0  0  0  0  0  0
  189.1650  177.3370  146.4180 C   0  0  2  0  0  3  0  0  0  0  0  0
  186.3840  178.8580  146.4630 C   0  0  0  0  0  3  0  0  0  0  0  0
  183.1230  178.5160  142.5240 C   0  0  0  0  0  3  0  0  0  0  0  0
  190.3260  177.9820  143.2100 C   0  0  0  0  0  0  0  0  0  0  0  0
  184.3800  178.1950  142.0080 C   0  0  0  0  0  3  0  0  0  0  0  0
  189.2860  177.1350  141.1870 C   0  0  0  0  0  3  0  0  0  0  0  0
  190.5520  176.9280  140.6270 C   0  0  0  0  0  0  0  0  0  0  0  0
  187.9560  177.1860  147.2300 N   0  0  0  0  0  0  0  0  0  0  0  0
  187.0410  178.2640  147.4540 C   0  0  0  0  0  3  0  0  0  0  0  0
  187.8430  177.9010  143.0900 C   0  0  0  0  0  0  0  0  0  0  0  0
  186.7210  177.9020  142.3230 N   0  0  0  0  0  0  0  0  0  0  0  0
  181.7330  179.1590  144.3870 O   0  0  0  0  0  1  0  0  0  0  0  0
  186.5120  178.4890  145.0390 C   0  0  0  0  0  0  0  0  0  0  0  0
  184.1000  178.8360  144.7150 C   0  0  0  0  0  3  0  0  0  0  0  0
  191.0800  176.7180  147.2860 O   0  0  0  0  0  1  0  0  0  0  0  0
  190.2560  177.7470  147.2120 O   0  0  0  0  0  0  0  0  0  0  0  0
  187.5560  176.4050  149.3960 O   0  0  0  0  0  1  0  0  0  0  0  0
  187.8670  176.0170  148.0910 C   0  0  0  0  0  2  0  0  0  0  0  0
  190.6830  176.3760  139.2490 C   0  0  0  0  0  2  0  0  0  0  0  0
  188.8240  176.5360  137.5930 C   0  0  1  0  0  3  0  0  0  0  0  0
  189.9820  177.2750  138.2380 C   0  0  2  0  0  3  0  0  0  0  0  0
  190.1140  176.7260  136.8280 C   0  0  1  0  0  3  0  0  0  0  0  0
  189.3510  175.4210  136.7090 C   0  0  0  0  0  2  0  0  0  0  0  0
  1  8  1  0  0  0  0
  2 22  1  0  0  0  0
  2  9  1  0  0  0  0
  3 23  1  0  0  0  0
  3 22  2  0  0  0  0
  4  3  1  0  0  0  0
  5 19  1  0  0  0  0
  5 13  1  0  0  0  0
  6  9  1  0  0  0  0
  7 21  1  0  0  0  0
  7 23  2  0  0  0  0
  8 13  2  0  0  0  0
  9 10  1  0  0  0  0
 10 25  1  1  0  0  0
 10 17  1  0  0  0  0
 11 18  2  0  0  0  0
 12  7  1  0  0  0  0
 13  6  1  0  0  0  0
 14 12  2  0  0  0  0
 14  4  1  0  0  0  0
 15  5  2  0  0  0  0
 16 15  1  0  0  0  0
 16  1  2  0  0  0  0
 17 18  1  0  0  0  0
 17 27  1  0  0  0  0
 19  2  2  0  0  0  0
 20  4  2  0  0  0  0
 20 19  1  0  0  0  0
 22 11  1  0  0  0  0
 25 24  1  0  0  0  0
 27 26  1  0  0  0  0
 28 16  1  0  0  0  0
 29 32  1  1  0  0  0
 29 30  1  0  0  0  0
 30 28  1  1  0  0  0
 31 32  1  1  0  0  0
 31 29  1  0  0  0  0
 31 30  1  0  0  0  0
M  END
>  <MODEL>
7

>  <REMARK>
 VINA RESULT:      -7.8      3.558      7.608
  Name = 
  4 active torsions:
  status: ('A' for Active; 'I' for Inactive)
    1  A    between atoms: C_10  and  C_19
    2  A    between atoms: O_13  and  C_15
    3  A    between atoms: C_19  and  C_24
    4  A    between atoms: C_25  and  N_26
                            x       y       z     vdW  Elec       q    Type
                         _______ _______ _______ _____ _____    ______ ____

>  <TORSDO>
F 4

$$$$
=
 OpenBabel11052416513D

 32 38  0  0  1  0  0  0  0  0999 V2000
  184.7990  178.4630  139.5820 C   0  0  0  0  0  3  0  0  0  0  0  0
  188.0320  178.0290  143.5060 C   0  0  0  0  0  0  0  0  0  0  0  0
  187.8640  178.1310  145.9300 C   0  0  0  0  0  0  0  0  0  0  0  0
  186.4590  178.2000  145.8010 C   0  0  0  0  0  0  0  0  0  0  0  0
  185.9830  178.2400  142.1130 C   0  0  0  0  0  0  0  0  0  0  0  0
  188.2450  178.7550  141.1390 C   0  0  0  0  0  2  0  0  0  0  0  0
  187.6200  178.2320  148.3480 C   0  0  0  0  0  0  0  0  0  0  0  0
  186.1810  178.6190  139.7210 C   0  0  0  0  0  3  0  0  0  0  0  0
  188.7860  178.0040  142.2760 N   0  0  0  0  0  0  0  0  0  0  0  0
  189.6950  176.8900  141.9590 C   0  0  2  0  0  3  0  0  0  0  0  0
  190.1310  177.9910  144.9000 C   0  0  0  0  0  3  0  0  0  0  0  0
  186.2320  178.2990  148.2100 C   0  0  0  0  0  3  0  0  0  0  0  0
  186.7760  178.4950  140.9780 C   0  0  0  0  0  0  0  0  0  0  0  0
  185.6530  178.2830  146.9400 C   0  0  0  0  0  3  0  0  0  0  0  0
  184.5970  178.0890  141.9680 C   0  0  0  0  0  3  0  0  0  0  0  0
  184.0060  178.1950  140.7030 C   0  0  0  0  0  0  0  0  0  0  0  0
  190.4330  176.3830  143.1170 N   0  0  0  0  0  0  0  0  0  0  0  0
  190.9320  177.2420  144.1480 C   0  0  0  0  0  3  0  0  0  0  0  0
  186.6300  178.1430  143.4360 C   0  0  0  0  0  0  0  0  0  0  0  0
  185.8870  178.2080  144.5720 N   0  0  0  0  0  0  0  0  0  0  0  0
  188.1930  178.2520  149.6120 O   0  0  0  0  0  1  0  0  0  0  0  0
  188.6610  178.0290  144.7700 C   0  0  0  0  0  0  0  0  0  0  0  0
  188.4320  178.1490  147.2150 C   0  0  0  0  0  3  0  0  0  0  0  0
  190.3860  176.2950  139.9660 O   0  0  0  0  0  1  0  0  0  0  0  0
  190.5720  177.2080  140.9020 O   0  0  0  0  0  0  0  0  0  0  0  0
  191.9530  174.8410  143.9970 O   0  0  0  0  0  1  0  0  0  0  0  0
  190.9540  175.0270  143.0400 C   0  0  0  0  0  2  0  0  0  0  0  0
  182.5320  178.0450  140.5470 C   0  0  0  0  0  2  0  0  0  0  0  0
  180.4260  178.1450  141.8820 C   0  0  1  0  0  3  0  0  0  0  0  0
  181.7950  178.7660  141.6700 C   0  0  2  0  0  3  0  0  0  0  0  0
  180.5490  179.4630  141.1510 C   0  0  1  0  0  3  0  0  0  0  0  0
  179.5370  178.4330  140.6860 C   0  0  0  0  0  2  0  0  0  0  0  0
  1  8  2  0  0  0  0
  1 16  1  0  0  0  0
  2 22  1  0  0  0  0
  3 23  1  0  0  0  0
  4  3  1  0  0  0  0
  4 14  1  0  0  0  0
  5 19  1  0  0  0  0
  6  9  1  0  0  0  0
  7 21  1  0  0  0  0
  8 13  1  0  0  0  0
  9  2  1  0  0  0  0
 10 25  1  6  0  0  0
 10  9  1  0  0  0  0
 10 17  1  0  0  0  0
 12  7  1  0  0  0  0
 13  6  1  0  0  0  0
 13  5  2  0  0  0  0
 14 12  2  0  0  0  0
 15  5  1  0  0  0  0
 16 15  2  0  0  0  0
 17 18  1  0  0  0  0
 18 11  2  0  0  0  0
 19  2  2  0  0  0  0
 19 20  1  0  0  0  0
 20  4  2  0  0  0  0
 22 11  1  0  0  0  0
 22  3  2  0  0  0  0
 23  7  2  0  0  0  0
 24 25  1  0  0  0  0
 27 17  1  0  0  0  0
 27 26  1  0  0  0  0
 28 16  1  0  0  0  0
 29 32  1  6  0  0  0
 30 28  1  6  0  0  0
 30 29  1  0  0  0  0
 31 32  1  6  0  0  0
 31 30  1  0  0  0  0
 31 29  1  0  0  0  0
M  END
>  <MODEL>
8

>  <REMARK>
 VINA RESULT:      -7.7      3.230      7.922
  Name = 
  4 active torsions:
  status: ('A' for Active; 'I' for Inactive)
    1  A    between atoms: C_10  and  C_19
    2  A    between atoms: O_13  and  C_15
    3  A    between atoms: C_19  and  C_24
    4  A    between atoms: C_25  and  N_26
                            x       y       z     vdW  Elec       q    Type
                         _______ _______ _______ _____ _____    ______ ____

>  <TORSDO>
F 4

$$$$
=
 OpenBabel11052416513D

 32 38  0  0  1  0  0  0  0  0999 V2000
  186.8270  177.5790  135.9220 C   0  0  0  0  0  3  0  0  0  0  0  0
  183.6230  178.4730  139.7920 C   0  0  0  0  0  0  0  0  0  0  0  0
  183.8130  178.6860  142.2060 C   0  0  0  0  0  0  0  0  0  0  0  0
  185.2180  178.6180  142.0730 C   0  0  0  0  0  0  0  0  0  0  0  0
  185.6620  178.1110  138.4150 C   0  0  0  0  0  0  0  0  0  0  0  0
  183.3990  177.4460  137.5390 C   0  0  0  0  0  2  0  0  0  0  0  0
  184.0800  178.8990  144.6150 C   0  0  0  0  0  0  0  0  0  0  0  0
  185.4490  177.4250  136.0950 C   0  0  0  0  0  3  0  0  0  0  0  0
  182.8570  178.3310  138.5760 N   0  0  0  0  0  0  0  0  0  0  0  0
  181.9310  179.3830  138.1290 C   0  0  2  0  0  3  0  0  0  0  0  0
  181.5350  178.6640  141.1900 C   0  0  0  0  0  3  0  0  0  0  0  0
  185.4680  178.8330  144.4720 C   0  0  0  0  0  3  0  0  0  0  0  0
  184.8630  177.7020  137.3320 C   0  0  0  0  0  0  0  0  0  0  0  0
  186.0350  178.6930  143.2040 C   0  0  0  0  0  3  0  0  0  0  0  0
  187.0450  178.2590  138.2380 C   0  0  0  0  0  3  0  0  0  0  0  0
  187.6250  178.0000  136.9910 C   0  0  0  0  0  0  0  0  0  0  0  0
  181.1960  180.0250  139.2190 N   0  0  0  0  0  0  0  0  0  0  0  0
  180.7180  179.2990  140.3570 C   0  0  0  0  0  3  0  0  0  0  0  0
  185.0260  178.3690  139.7210 C   0  0  0  0  0  0  0  0  0  0  0  0
  185.7790  178.4600  140.8490 N   0  0  0  0  0  0  0  0  0  0  0  0
  183.5180  179.0350  145.8770 O   0  0  0  0  0  1  0  0  0  0  0  0
  183.0050  178.6280  141.0510 C   0  0  0  0  0  0  0  0  0  0  0  0
  183.2570  178.8260  143.4890 C   0  0  0  0  0  3  0  0  0  0  0  0
  181.2040  179.7170  136.0880 O   0  0  0  0  0  1  0  0  0  0  0  0
  181.0490  178.9210  137.1300 O   0  0  0  0  0  0  0  0  0  0  0  0
  181.6140  182.1530  138.3490 O   0  0  0  0  0  1  0  0  0  0  0  0
  180.6560  181.3530  138.9740 C   0  0  0  0  0  2  0  0  0  0  0  0
  189.0960  178.1470  136.8020 C   0  0  0  0  0  2  0  0  0  0  0  0
  189.6360  175.8950  137.7300 C   0  0  1  0  0  3  0  0  0  0  0  0
  189.7400  176.7960  136.5130 C   0  0  2  0  0  3  0  0  0  0  0  0
  190.9510  176.5630  137.4000 C   0  0  1  0  0  3  0  0  0  0  0  0
  190.5140  176.4290  138.8460 C   0  0  0  0  0  2  0  0  0  0  0  0
  1  8  2  0  0  0  0
  1 16  1  0  0  0  0
  2 22  1  0  0  0  0
  3 23  1  0  0  0  0
  4  3  1  0  0  0  0
  4 14  1  0  0  0  0
  5 19  1  0  0  0  0
  6  9  1  0  0  0  0
  7 21  1  0  0  0  0
  8 13  1  0  0  0  0
  9  2  1  0  0  0  0
 10 25  1  6  0  0  0
 10  9  1  0  0  0  0
 10 17  1  0  0  0  0
 12  7  1  0  0  0  0
 13  6  1  0  0  0  0
 13  5  2  0  0  0  0
 14 12  2  0  0  0  0
 15  5  1  0  0  0  0
 16 15  2  0  0  0  0
 17 18  1  0  0  0  0
 18 11  2  0  0  0  0
 19  2  2  0  0  0  0
 19 20  1  0  0  0  0
 20  4  2  0  0  0  0
 22 11  1  0  0  0  0
 22  3  2  0  0  0  0
 23  7  2  0  0  0  0
 24 25  1  0  0  0  0
 26 27  1  0  0  0  0
 27 17  1  0  0  0  0
 28 16  1  0  0  0  0
 29 32  1  1  0  0  0
 30 28  1  1  0  0  0
 30 31  1  0  0  0  0
 30 29  1  0  0  0  0
 31 29  1  0  0  0  0
 31 32  1  1  0  0  0
M  END
>  <MODEL>
9

>  <REMARK>
 VINA RESULT:      -7.7      3.150      6.897
  Name = 
  4 active torsions:
  status: ('A' for Active; 'I' for Inactive)
    1  A    between atoms: C_10  and  C_19
    2  A    between atoms: O_13  and  C_15
    3  A    between atoms: C_19  and  C_24
    4  A    between atoms: C_25  and  N_26
                            x       y       z     vdW  Elec       q    Type
                         _______ _______ _______ _____ _____    ______ ____

>  <TORSDO>
F 4

$$$$
