=
 OpenBabel11052413333D

 28 33  0  0  1  0  0  0  0  0999 V2000
  189.6040  177.7940  140.0260 N   0  0  0  0  0  0  0  0  0  0  0  0
  185.2680  178.7670  142.7020 S   0  0  0  0  0  0  0  0  0  0  0  0
  190.9170  178.9520  144.3610 C   0  0  0  0  0  1  0  0  0  0  0  0
  186.2370  178.2670  145.1600 C   0  0  1  0  0  3  0  0  0  0  0  0
  187.8490  177.8390  143.3160 C   0  0  0  0  0  0  0  0  0  0  0  0
  182.6980  178.5100  143.8880 C   0  0  0  0  0  2  0  0  0  0  0  0
  186.4050  177.7900  143.7330 C   0  0  2  0  0  3  0  0  0  0  0  0
  188.5200  177.4960  145.7200 C   0  0  0  0  0  2  0  0  0  0  0  0
  184.7520  178.2810  145.4400 C   0  0  0  0  0  2  0  0  0  0  0  0
  190.4940  177.5640  142.3580 C   0  0  0  0  0  0  0  0  0  0  0  0
  188.1560  177.9070  141.9140 N   0  0  0  0  0  0  0  0  0  0  0  0
  187.0300  177.3410  146.0560 C   0  0  0  0  0  2  0  0  0  0  0  0
  191.9340  177.3030  140.3900 C   0  0  0  0  0  3  0  0  0  0  0  0
  190.2860  177.6680  143.8430 C   0  0  0  0  0  0  0  0  0  0  0  0
  191.7100  177.3330  141.8510 C   0  0  0  0  0  3  0  0  0  0  0  0
  183.1780  179.9200  144.2270 C   0  0  0  0  0  2  0  0  0  0  0  0
  184.1590  178.7770  144.1400 C   0  0  0  0  0  0  0  0  0  0  0  0
  188.8280  177.6240  144.2350 C   0  0  0  0  0  0  0  0  0  0  0  0
  190.9280  177.5290  139.5380 C   0  0  0  0  0  3  0  0  0  0  0  0
  189.3600  177.7820  141.4430 C   0  0  2  0  0  3  0  0  0  0  0  0
  188.5410  178.0760  139.0690 C   0  0  0  0  0  2  0  0  0  0  0  0
  188.6500  177.1710  137.8890 C   0  0  0  0  0  0  0  0  0  0  0  0
  188.9070  175.4630  135.6870 C   0  0  0  0  0  0  0  0  0  0  0  0
  188.2560  175.8330  137.9910 C   0  0  0  0  0  3  0  0  0  0  0  0
  189.1800  177.6520  136.6860 C   0  0  0  0  0  3  0  0  0  0  0  0
  189.3060  176.8000  135.5860 C   0  0  0  0  0  3  0  0  0  0  0  0
  189.0310  174.6170  134.5940 O   0  0  0  0  0  1  0  0  0  0  0  0
  188.3820  174.9800  136.8890 C   0  0  0  0  0  3  0  0  0  0  0  0
  1 20  1  0  0  0  0
  2 17  1  0  0  0  0
  4  9  1  1  0  0  0
  4 12  1  0  0  0  0
  5  7  1  0  0  0  0
  5 18  1  0  0  0  0
  6 17  1  0  0  0  0
  6 16  1  0  0  0  0
  7  2  1  6  0  0  0
  7  4  1  0  0  0  0
  8 12  1  0  0  0  0
 10 14  1  0  0  0  0
 11  5  2  0  0  0  0
 13 15  1  0  0  0  0
 14 18  2  0  0  0  0
 14  3  1  0  0  0  0
 15 10  2  0  0  0  0
 17 16  1  0  0  0  0
 17  9  1  0  0  0  0
 18  8  1  0  0  0  0
 19  1  1  0  0  0  0
 19 13  2  0  0  0  0
 20 11  1  6  0  0  0
 20 10  1  0  0  0  0
 21  1  1  0  0  0  0
 22 24  1  0  0  0  0
 22 21  1  0  0  0  0
 23 28  1  0  0  0  0
 25 22  2  0  0  0  0
 26 23  2  0  0  0  0
 26 25  1  0  0  0  0
 27 23  1  0  0  0  0
 28 24  2  0  0  0  0
M  END
>  <MODEL>
1

>  <REMARK>
 VINA RESULT:      -8.9      0.000      0.000
  Name = 
  2 active torsions:
  status: ('A' for Active; 'I' for Inactive)
    1  A    between atoms: N_1  and  C_2
    2  A    between atoms: C_2  and  C_3
                            x       y       z     vdW  Elec       q    Type
                         _______ _______ _______ _____ _____    ______ ____

>  <TORSDO>
F 2

$$$$
=
 OpenBabel11052413333D

 28 33  0  0  1  0  0  0  0  0999 V2000
  189.0690  177.6810  138.4950 N   0  0  0  0  0  0  0  0  0  0  0  0
  185.6410  178.8890  142.1970 S   0  0  0  0  0  0  0  0  0  0  0  0
  191.4680  178.0790  142.4880 C   0  0  0  0  0  1  0  0  0  0  0  0
  187.0280  177.9470  144.2990 C   0  0  1  0  0  3  0  0  0  0  0  0
  188.1060  177.5430  142.0950 C   0  0  0  0  0  0  0  0  0  0  0  0
  183.3850  178.8380  143.9250 C   0  0  0  0  0  2  0  0  0  0  0  0
  186.8000  177.6400  142.8340 C   0  0  2  0  0  3  0  0  0  0  0  0
  189.2210  176.8040  144.2300 C   0  0  0  0  0  2  0  0  0  0  0  0
  185.6630  178.1290  144.9210 C   0  0  0  0  0  2  0  0  0  0  0  0
  190.3960  177.0320  140.5200 C   0  0  0  0  0  0  0  0  0  0  0  0
  188.1070  177.7480  140.6730 N   0  0  0  0  0  0  0  0  0  0  0  0
  187.8350  176.8140  144.8920 C   0  0  0  0  0  2  0  0  0  0  0  0
  191.3100  176.8320  138.2530 C   0  0  0  0  0  3  0  0  0  0  0  0
  190.5380  176.9710  142.0150 C   0  0  0  0  0  0  0  0  0  0  0  0
  191.4180  176.7040  139.7210 C   0  0  0  0  0  3  0  0  0  0  0  0
  184.1520  180.1120  144.2720 C   0  0  0  0  0  2  0  0  0  0  0  0
  184.8900  178.8670  143.8500 C   0  0  0  0  0  0  0  0  0  0  0  0
  189.2140  177.0790  142.7330 C   0  0  0  0  0  0  0  0  0  0  0  0
  190.1930  177.3020  137.6870 C   0  0  0  0  0  3  0  0  0  0  0  0
  189.1410  177.5210  139.9220 C   0  0  2  0  0  3  0  0  0  0  0  0
  187.8840  178.2290  137.8470 C   0  0  0  0  0  2  0  0  0  0  0  0
  186.8960  177.1460  137.5700 C   0  0  0  0  0  0  0  0  0  0  0  0
  185.0400  175.1330  136.9980 C   0  0  0  0  0  0  0  0  0  0  0  0
  187.3370  175.8550  137.2600 C   0  0  0  0  0  3  0  0  0  0  0  0
  185.5260  177.4310  137.5840 C   0  0  0  0  0  3  0  0  0  0  0  0
  184.5980  176.4250  137.3000 C   0  0  0  0  0  3  0  0  0  0  0  0
  184.1190  174.1330  136.7160 O   0  0  0  0  0  1  0  0  0  0  0  0
  186.4080  174.8480  136.9770 C   0  0  0  0  0  3  0  0  0  0  0  0
  1 20  1  0  0  0  0
  2  7  1  0  0  0  0
  2 17  1  0  0  0  0
  4 12  1  1  0  0  0
  4  9  1  0  0  0  0
  5 18  1  0  0  0  0
  6 16  1  0  0  0  0
  7  5  1  6  0  0  0
  7  4  1  0  0  0  0
  8 12  1  0  0  0  0
 10 14  1  0  0  0  0
 11  5  2  0  0  0  0
 13 15  1  0  0  0  0
 14  3  1  0  0  0  0
 14 18  2  0  0  0  0
 15 10  2  0  0  0  0
 17  6  1  0  0  0  0
 17 16  1  0  0  0  0
 17  9  1  0  0  0  0
 18  8  1  0  0  0  0
 19 13  2  0  0  0  0
 19  1  1  0  0  0  0
 20 10  1  6  0  0  0
 20 11  1  0  0  0  0
 21  1  1  0  0  0  0
 22 25  1  0  0  0  0
 22 21  1  0  0  0  0
 23 26  1  0  0  0  0
 24 22  2  0  0  0  0
 26 25  2  0  0  0  0
 27 23  1  0  0  0  0
 28 23  2  0  0  0  0
 28 24  1  0  0  0  0
M  END
>  <MODEL>
2

>  <REMARK>
 VINA RESULT:      -8.5      1.882      2.272
  Name = 
  2 active torsions:
  status: ('A' for Active; 'I' for Inactive)
    1  A    between atoms: N_1  and  C_2
    2  A    between atoms: C_2  and  C_3
                            x       y       z     vdW  Elec       q    Type
                         _______ _______ _______ _____ _____    ______ ____

>  <TORSDO>
F 2

$$$$
=
 OpenBabel11052413333D

 28 33  0  0  1  0  0  0  0  0999 V2000
  184.6320  178.9690  141.8770 N   0  0  0  0  0  0  0  0  0  0  0  0
  187.5870  177.7120  137.8020 S   0  0  0  0  0  0  0  0  0  0  0  0
  187.9410  176.0620  143.4460 C   0  0  0  0  0  1  0  0  0  0  0  0
  189.8250  177.0850  139.1540 C   0  0  1  0  0  3  0  0  0  0  0  0
  187.9720  177.9360  140.5760 C   0  0  0  0  0  0  0  0  0  0  0  0
  189.2640  177.8800  135.5130 C   0  0  0  0  0  2  0  0  0  0  0  0
  188.6520  178.0390  139.2390 C   0  0  2  0  0  3  0  0  0  0  0  0
  190.1630  177.2310  141.6000 C   0  0  0  0  0  2  0  0  0  0  0  0
  190.3660  177.1880  137.7460 C   0  0  0  0  0  2  0  0  0  0  0  0
  186.6770  178.1560  143.0790 C   0  0  0  0  0  0  0  0  0  0  0  0
  186.6040  178.3630  140.6850 N   0  0  0  0  0  0  0  0  0  0  0  0
  190.8160  177.4680  140.2310 C   0  0  0  0  0  2  0  0  0  0  0  0
  184.6850  178.9280  144.2850 C   0  0  0  0  0  3  0  0  0  0  0  0
  188.0400  177.5250  143.0410 C   0  0  0  0  0  0  0  0  0  0  0  0
  186.0560  178.3770  144.2430 C   0  0  0  0  0  3  0  0  0  0  0  0
  188.9850  176.3920  135.7220 C   0  0  0  0  0  2  0  0  0  0  0  0
  189.1160  177.3200  136.9040 C   0  0  0  0  0  0  0  0  0  0  0  0
  188.6980  177.6350  141.6860 C   0  0  0  0  0  0  0  0  0  0  0  0
  184.0220  179.1980  143.1550 C   0  0  0  0  0  3  0  0  0  0  0  0
  185.9820  178.4760  141.8190 C   0  0  2  0  0  3  0  0  0  0  0  0
  183.8640  179.2350  140.6670 C   0  0  0  0  0  2  0  0  0  0  0  0
  182.8430  178.1690  140.4540 C   0  0  0  0  0  0  0  0  0  0  0  0
  180.9130  176.1930  140.0090 C   0  0  0  0  0  0  0  0  0  0  0  0
  183.2070  176.9570  139.8590 C   0  0  0  0  0  3  0  0  0  0  0  0
  181.5110  178.3950  140.8190 C   0  0  0  0  0  3  0  0  0  0  0  0
  180.5470  177.4080  140.5990 C   0  0  0  0  0  3  0  0  0  0  0  0
  179.9560  175.2120  139.7900 O   0  0  0  0  0  1  0  0  0  0  0  0
  182.2420  175.9680  139.6390 C   0  0  0  0  0  3  0  0  0  0  0  0
  1 19  1  0  0  0  0
  4  9  1  6  0  0  0
  4  7  1  0  0  0  0
  4 12  1  0  0  0  0
  5 11  2  0  0  0  0
  5 18  1  0  0  0  0
  6 16  1  0  0  0  0
  6 17  1  0  0  0  0
  7  2  1  6  0  0  0
  7  5  1  0  0  0  0
  8 18  1  0  0  0  0
 10 15  2  0  0  0  0
 12  8  1  0  0  0  0
 14 10  1  0  0  0  0
 14  3  1  0  0  0  0
 15 13  1  0  0  0  0
 16 17  1  0  0  0  0
 17  9  1  0  0  0  0
 17  2  1  0  0  0  0
 18 14  2  0  0  0  0
 19 13  2  0  0  0  0
 20 11  1  1  0  0  0
 20  1  1  0  0  0  0
 20 10  1  0  0  0  0
 21  1  1  0  0  0  0
 22 21  1  0  0  0  0
 22 25  1  0  0  0  0
 23 26  1  0  0  0  0
 24 22  2  0  0  0  0
 26 25  2  0  0  0  0
 27 23  1  0  0  0  0
 28 24  1  0  0  0  0
 28 23  2  0  0  0  0
M  END
>  <MODEL>
3

>  <REMARK>
 VINA RESULT:      -8.1      3.261      6.979
  Name = 
  2 active torsions:
  status: ('A' for Active; 'I' for Inactive)
    1  A    between atoms: N_1  and  C_2
    2  A    between atoms: C_2  and  C_3
                            x       y       z     vdW  Elec       q    Type
                         _______ _______ _______ _____ _____    ______ ____

>  <TORSDO>
F 2

$$$$
=
 OpenBabel11052413333D

 28 33  0  0  1  0  0  0  0  0999 V2000
  187.1570  178.3480  140.7030 N   0  0  0  0  0  0  0  0  0  0  0  0
  188.1520  178.1380  145.7910 S   0  0  0  0  0  0  0  0  0  0  0  0
  191.7870  177.8900  141.1620 C   0  0  0  0  0  1  0  0  0  0  0  0
  190.4840  176.8090  145.6520 C   0  0  1  0  0  3  0  0  0  0  0  0
  189.3570  177.1350  143.4590 C   0  0  0  0  0  0  0  0  0  0  0  0
  188.1220  177.3840  148.5310 C   0  0  0  0  0  2  0  0  0  0  0  0
  189.1560  176.8910  144.9290 C   0  0  2  0  0  3  0  0  0  0  0  0
  191.5830  175.9620  143.6020 C   0  0  0  0  0  2  0  0  0  0  0  0
  190.1700  176.6720  147.1230 C   0  0  0  0  0  2  0  0  0  0  0  0
  189.4390  177.3130  140.6390 C   0  0  0  0  0  0  0  0  0  0  0  0
  188.2820  177.7190  142.7070 N   0  0  0  0  0  0  0  0  0  0  0  0
  191.2590  175.6470  145.0700 C   0  0  0  0  0  2  0  0  0  0  0  0
  188.1950  177.8340  138.5910 C   0  0  0  0  0  3  0  0  0  0  0  0
  190.6810  176.8620  141.3560 C   0  0  2  0  0  3  0  0  0  0  0  0
  189.3850  177.3230  139.3030 C   0  0  0  0  0  3  0  0  0  0  0  0
  189.0570  178.5890  148.4360 C   0  0  0  0  0  2  0  0  0  0  0  0
  188.9810  177.5890  147.3090 C   0  0  0  0  0  0  0  0  0  0  0  0
  190.4540  176.6320  142.8320 C   0  0  0  0  0  0  0  0  0  0  0  0
  187.1490  178.3210  139.2680 C   0  0  0  0  0  3  0  0  0  0  0  0
  188.2880  177.8130  141.4120 C   0  0  0  0  0  0  0  0  0  0  0  0
  186.0180  178.9250  141.4060 C   0  0  0  0  0  2  0  0  0  0  0  0
  184.7620  178.7000  140.6340 C   0  0  0  0  0  0  0  0  0  0  0  0
  182.3780  178.3060  139.2240 C   0  0  0  0  0  0  0  0  0  0  0  0
  184.4250  179.5510  139.5770 C   0  0  0  0  0  3  0  0  0  0  0  0
  183.9000  177.6560  140.9910 C   0  0  0  0  0  3  0  0  0  0  0  0
  182.7110  177.4580  140.2860 C   0  0  0  0  0  3  0  0  0  0  0  0
  181.1960  178.1090  138.5230 O   0  0  0  0  0  1  0  0  0  0  0  0
  183.2340  179.3530  138.8700 C   0  0  0  0  0  3  0  0  0  0  0  0
  1 21  1  0  0  0  0
  1 20  1  0  0  0  0
  2 17  1  0  0  0  0
  4 12  1  6  0  0  0
  4  9  1  0  0  0  0
  7  5  1  6  0  0  0
  7  4  1  0  0  0  0
  7  2  1  0  0  0  0
  8 12  1  0  0  0  0
  9 17  1  0  0  0  0
 10 14  1  0  0  0  0
 10 20  1  0  0  0  0
 11  5  1  0  0  0  0
 13 19  2  0  0  0  0
 13 15  1  0  0  0  0
 14  3  1  1  0  0  0
 14 18  1  0  0  0  0
 15 10  2  0  0  0  0
 16  6  1  0  0  0  0
 17 16  1  0  0  0  0
 17  6  1  0  0  0  0
 18  5  2  0  0  0  0
 18  8  1  0  0  0  0
 19  1  1  0  0  0  0
 20 11  2  0  0  0  0
 22 25  1  0  0  0  0
 22 21  1  0  0  0  0
 23 26  1  0  0  0  0
 24 22  2  0  0  0  0
 26 25  2  0  0  0  0
 27 23  1  0  0  0  0
 28 23  2  0  0  0  0
 28 24  1  0  0  0  0
M  END
>  <MODEL>
4

>  <REMARK>
 VINA RESULT:      -8.1      3.124      5.104
  Name = 
  2 active torsions:
  status: ('A' for Active; 'I' for Inactive)
    1  A    between atoms: N_1  and  C_2
    2  A    between atoms: C_2  and  C_3
                            x       y       z     vdW  Elec       q    Type
                         _______ _______ _______ _____ _____    ______ ____

>  <TORSDO>
F 2

$$$$
=
 OpenBabel11052413333D

 28 33  0  0  1  0  0  0  0  0999 V2000
  187.9210  178.2750  141.4330 N   0  0  0  0  0  0  0  0  0  0  0  0
  183.6310  179.9020  139.0120 S   0  0  0  0  0  0  0  0  0  0  0  0
  184.8690  179.4990  144.7570 C   0  0  0  0  0  1  0  0  0  0  0  0
  181.8860  179.4230  141.0000 C   0  0  1  0  0  3  0  0  0  0  0  0
  184.2170  178.7060  141.4860 C   0  0  0  0  0  0  0  0  0  0  0  0
  181.3510  180.0180  137.3180 C   0  0  0  0  0  2  0  0  0  0  0  0
  183.1640  178.8530  140.4230 C   0  0  2  0  0  3  0  0  0  0  0  0
  182.3950  178.4150  143.2020 C   0  0  0  0  0  2  0  0  0  0  0  0
  180.9400  179.6290  139.8400 C   0  0  0  0  0  2  0  0  0  0  0  0
  186.2760  178.0660  143.3130 C   0  0  0  0  0  0  0  0  0  0  0  0
  185.5960  178.6620  141.0860 N   0  0  0  0  0  0  0  0  0  0  0  0
  181.3800  178.4580  142.0510 C   0  0  0  0  0  2  0  0  0  0  0  0
  188.6520  177.5290  143.6040 C   0  0  0  0  0  3  0  0  0  0  0  0
  184.8900  178.2740  143.8550 C   0  0  0  0  0  0  0  0  0  0  0  0
  187.2710  177.6650  144.1130 C   0  0  0  0  0  3  0  0  0  0  0  0
  181.4290  181.3770  138.0120 C   0  0  0  0  0  2  0  0  0  0  0  0
  181.8500  180.1220  138.7360 C   0  0  0  0  0  0  0  0  0  0  0  0
  183.8530  178.4260  142.7670 C   0  0  0  0  0  0  0  0  0  0  0  0
  188.9450  177.8270  142.3330 C   0  0  0  0  0  3  0  0  0  0  0  0
  186.5640  178.3690  141.9000 C   0  0  2  0  0  3  0  0  0  0  0  0
  188.2850  178.6310  140.0670 C   0  0  0  0  0  2  0  0  0  0  0  0
  189.1370  177.5660  139.4620 C   0  0  0  0  0  0  0  0  0  0  0  0
  190.7440  175.6030  138.2830 C   0  0  0  0  0  0  0  0  0  0  0  0
  190.4830  177.4520  139.8260 C   0  0  0  0  0  3  0  0  0  0  0  0
  188.5980  176.7020  138.5020 C   0  0  0  0  0  3  0  0  0  0  0  0
  189.3990  175.7200  137.9150 C   0  0  0  0  0  3  0  0  0  0  0  0
  191.5400  174.6260  137.7010 O   0  0  0  0  0  1  0  0  0  0  0  0
  191.2850  176.4680  139.2380 C   0  0  0  0  0  3  0  0  0  0  0  0
  1 20  1  0  0  0  0
  1 19  1  0  0  0  0
  4  9  1  6  0  0  0
  4 12  1  0  0  0  0
  5 18  1  0  0  0  0
  6 16  1  0  0  0  0
  6 17  1  0  0  0  0
  7  2  1  6  0  0  0
  7  4  1  0  0  0  0
  7  5  1  0  0  0  0
 10 14  1  0  0  0  0
 10 15  2  0  0  0  0
 11  5  2  0  0  0  0
 12  8  1  0  0  0  0
 13 15  1  0  0  0  0
 14  3  1  0  0  0  0
 16 17  1  0  0  0  0
 17  2  1  0  0  0  0
 17  9  1  0  0  0  0
 18  8  1  0  0  0  0
 18 14  2  0  0  0  0
 19 13  2  0  0  0  0
 20 11  1  6  0  0  0
 20 10  1  0  0  0  0
 21  1  1  0  0  0  0
 22 24  1  0  0  0  0
 22 21  1  0  0  0  0
 23 28  1  0  0  0  0
 25 22  2  0  0  0  0
 26 23  2  0  0  0  0
 26 25  1  0  0  0  0
 27 23  1  0  0  0  0
 28 24  2  0  0  0  0
M  END
>  <MODEL>
5

>  <REMARK>
 VINA RESULT:      -7.7      2.928      4.724
  Name = 
  2 active torsions:
  status: ('A' for Active; 'I' for Inactive)
    1  A    between atoms: N_1  and  C_2
    2  A    between atoms: C_2  and  C_3
                            x       y       z     vdW  Elec       q    Type
                         _______ _______ _______ _____ _____    ______ ____

>  <TORSDO>
F 2

$$$$
=
 OpenBabel11052413333D

 28 33  0  0  1  0  0  0  0  0999 V2000
  188.1540  178.4790  140.1980 N   0  0  0  0  0  0  0  0  0  0  0  0
  183.3130  178.7030  142.0490 S   0  0  0  0  0  0  0  0  0  0  0  0
  185.4340  176.1920  137.1610 C   0  0  0  0  0  1  0  0  0  0  0  0
  182.0160  178.3830  139.7160 C   0  0  1  0  0  3  0  0  0  0  0  0
  184.4900  178.5070  139.5050 C   0  0  0  0  0  0  0  0  0  0  0  0
  180.8370  179.6680  143.0570 C   0  0  0  0  0  2  0  0  0  0  0  0
  183.2860  179.0050  140.2560 C   0  0  2  0  0  3  0  0  0  0  0  0
  183.0390  178.1620  137.4740 C   0  0  0  0  0  2  0  0  0  0  0  0
  180.8880  178.8620  140.6020 C   0  0  0  0  0  2  0  0  0  0  0  0
  186.8820  177.9630  138.1010 C   0  0  0  0  0  0  0  0  0  0  0  0
  185.7740  178.5750  140.1450 N   0  0  0  0  0  0  0  0  0  0  0  0
  181.8810  178.7870  138.2650 C   0  0  0  0  0  2  0  0  0  0  0  0
  189.3340  178.0170  138.1490 C   0  0  0  0  0  3  0  0  0  0  0  0
  185.5770  177.6860  137.4090 C   0  0  2  0  0  3  0  0  0  0  0  0
  188.0440  177.8190  137.4540 C   0  0  0  0  0  3  0  0  0  0  0  0
  180.7310  178.1440  143.0710 C   0  0  0  0  0  2  0  0  0  0  0  0
  181.5050  178.8480  141.9840 C   0  0  0  0  0  0  0  0  0  0  0  0
  184.3840  178.1890  138.1870 C   0  0  0  0  0  0  0  0  0  0  0  0
  189.3690  178.3240  139.4510 C   0  0  0  0  0  3  0  0  0  0  0  0
  186.8910  178.3330  139.5270 C   0  0  0  0  0  0  0  0  0  0  0  0
  188.2330  178.7710  141.6240 C   0  0  0  0  0  2  0  0  0  0  0  0
  189.2300  177.8790  142.2840 C   0  0  0  0  0  0  0  0  0  0  0  0
  191.0770  176.2170  143.5700 C   0  0  0  0  0  0  0  0  0  0  0  0
  189.0110  176.4990  142.3380 C   0  0  0  0  0  3  0  0  0  0  0  0
  190.3710  178.4280  142.8810 C   0  0  0  0  0  3  0  0  0  0  0  0
  191.2940  177.5990  143.5220 C   0  0  0  0  0  3  0  0  0  0  0  0
  191.9950  175.3920  144.2050 O   0  0  0  0  0  1  0  0  0  0  0  0
  189.9360  175.6680  142.9780 C   0  0  0  0  0  3  0  0  0  0  0  0
  1 21  1  0  0  0  0
  4 12  1  6  0  0  0
  4  7  1  0  0  0  0
  4  9  1  0  0  0  0
  5 11  1  0  0  0  0
  6 16  1  0  0  0  0
  7  5  1  6  0  0  0
  7  2  1  0  0  0  0
  8 18  1  0  0  0  0
  8 12  1  0  0  0  0
  9 17  1  0  0  0  0
 10 20  1  0  0  0  0
 13 19  2  0  0  0  0
 14  3  1  1  0  0  0
 14 10  1  0  0  0  0
 14 18  1  0  0  0  0
 15 10  2  0  0  0  0
 15 13  1  0  0  0  0
 17  2  1  0  0  0  0
 17  6  1  0  0  0  0
 17 16  1  0  0  0  0
 18  5  2  0  0  0  0
 19  1  1  0  0  0  0
 20 11  2  0  0  0  0
 20  1  1  0  0  0  0
 21 22  1  0  0  0  0
 22 24  2  0  0  0  0
 22 25  1  0  0  0  0
 23 27  1  0  0  0  0
 24 28  1  0  0  0  0
 25 26  2  0  0  0  0
 26 23  1  0  0  0  0
 28 23  2  0  0  0  0
M  END
>  <MODEL>
6

>  <REMARK>
 VINA RESULT:      -7.6      3.393      6.068
  Name = 
  2 active torsions:
  status: ('A' for Active; 'I' for Inactive)
    1  A    between atoms: N_1  and  C_2
    2  A    between atoms: C_2  and  C_3
                            x       y       z     vdW  Elec       q    Type
                         _______ _______ _______ _____ _____    ______ ____

>  <TORSDO>
F 2

$$$$
=
 OpenBabel11052413333D

 28 33  0  0  1  0  0  0  0  0999 V2000
  189.5170  177.6490  140.4390 N   0  0  0  0  0  0  0  0  0  0  0  0
  186.5930  178.3070  144.6740 S   0  0  0  0  0  0  0  0  0  0  0  0
  192.4220  178.7340  143.9380 C   0  0  0  0  0  1  0  0  0  0  0  0
  188.4850  177.7790  146.5090 C   0  0  1  0  0  3  0  0  0  0  0  0
  189.2330  177.4960  144.1550 C   0  0  0  0  0  0  0  0  0  0  0  0
  184.7270  177.8770  146.7750 C   0  0  0  0  0  2  0  0  0  0  0  0
  188.0810  177.3580  145.1120 C   0  0  2  0  0  3  0  0  0  0  0  0
  190.8260  177.1110  146.0680 C   0  0  0  0  0  2  0  0  0  0  0  0
  187.2390  177.7060  147.3610 C   0  0  0  0  0  2  0  0  0  0  0  0
  191.2770  177.3900  142.2050 C   0  0  0  0  0  0  0  0  0  0  0  0
  188.9480  177.6250  142.7530 N   0  0  0  0  0  0  0  0  0  0  0  0
  189.6040  176.8680  146.9640 C   0  0  0  0  0  2  0  0  0  0  0  0
  191.8120  177.2700  139.8150 C   0  0  0  0  0  3  0  0  0  0  0  0
  191.6810  177.4360  143.6520 C   0  0  0  0  0  0  0  0  0  0  0  0
  192.1930  177.2410  141.2420 C   0  0  0  0  0  3  0  0  0  0  0  0
  185.2540  179.2990  146.9640 C   0  0  0  0  0  2  0  0  0  0  0  0
  186.1560  178.2130  146.4340 C   0  0  0  0  0  0  0  0  0  0  0  0
  190.5060  177.3030  144.5920 C   0  0  0  0  0  0  0  0  0  0  0  0
  190.5400  177.4700  139.4500 C   0  0  0  0  0  3  0  0  0  0  0  0
  189.8630  177.5790  141.8330 C   0  0  2  0  0  3  0  0  0  0  0  0
  188.1490  177.9070  140.0040 C   0  0  0  0  0  2  0  0  0  0  0  0
  187.9730  177.5050  138.5780 C   0  0  0  0  0  0  0  0  0  0  0  0
  187.5920  176.7330  135.9170 C   0  0  0  0  0  0  0  0  0  0  0  0
  187.5490  178.4430  137.6310 C   0  0  0  0  0  3  0  0  0  0  0  0
  188.1990  176.1780  138.1940 C   0  0  0  0  0  3  0  0  0  0  0  0
  188.0100  175.7930  136.8640 C   0  0  0  0  0  3  0  0  0  0  0  0
  187.4060  176.3500  134.5950 O   0  0  0  0  0  1  0  0  0  0  0  0
  187.3610  178.0570  136.2990 C   0  0  0  0  0  3  0  0  0  0  0  0
  1 20  1  0  0  0  0
  2  7  1  0  0  0  0
  2 17  1  0  0  0  0
  4 12  1  1  0  0  0
  4  9  1  0  0  0  0
  5 18  1  0  0  0  0
  6 16  1  0  0  0  0
  7  5  1  6  0  0  0
  7  4  1  0  0  0  0
  8 12  1  0  0  0  0
 10 14  1  0  0  0  0
 11  5  2  0  0  0  0
 13 15  1  0  0  0  0
 14  3  1  0  0  0  0
 14 18  2  0  0  0  0
 15 10  2  0  0  0  0
 17  6  1  0  0  0  0
 17 16  1  0  0  0  0
 17  9  1  0  0  0  0
 18  8  1  0  0  0  0
 19 13  2  0  0  0  0
 19  1  1  0  0  0  0
 20 10  1  6  0  0  0
 20 11  1  0  0  0  0
 21  1  1  0  0  0  0
 22 21  1  0  0  0  0
 23 28  2  0  0  0  0
 23 26  1  0  0  0  0
 24 22  2  0  0  0  0
 25 22  1  0  0  0  0
 26 25  2  0  0  0  0
 27 23  1  0  0  0  0
 28 24  1  0  0  0  0
M  END
>  <MODEL>
7

>  <REMARK>
 VINA RESULT:      -7.5      1.657      2.149
  Name = 
  2 active torsions:
  status: ('A' for Active; 'I' for Inactive)
    1  A    between atoms: N_1  and  C_2
    2  A    between atoms: C_2  and  C_3
                            x       y       z     vdW  Elec       q    Type
                         _______ _______ _______ _____ _____    ______ ____

>  <TORSDO>
F 2

$$$$
=
 OpenBabel11052413333D

 28 33  0  0  1  0  0  0  0  0999 V2000
  184.9890  179.1140  142.7780 N   0  0  0  0  0  0  0  0  0  0  0  0
  182.8790  178.4080  138.0910 S   0  0  0  0  0  0  0  0  0  0  0  0
  180.4070  179.9380  143.2150 C   0  0  0  0  0  1  0  0  0  0  0  0
  180.3780  177.8420  138.8990 C   0  0  1  0  0  3  0  0  0  0  0  0
  182.0040  178.1690  140.7510 C   0  0  0  0  0  0  0  0  0  0  0  0
  182.1150  177.2590  135.6060 C   0  0  0  0  0  2  0  0  0  0  0  0
  181.8090  177.6510  139.3530 C   0  0  2  0  0  3  0  0  0  0  0  0
  179.5820  177.6760  141.2360 C   0  0  0  0  0  2  0  0  0  0  0  0
  180.3160  177.3930  137.4570 C   0  0  0  0  0  2  0  0  0  0  0  0
  182.5920  178.8010  143.4420 C   0  0  0  0  0  0  0  0  0  0  0  0
  183.3300  178.5290  141.1710 N   0  0  0  0  0  0  0  0  0  0  0  0
  179.4850  177.0570  139.8340 C   0  0  0  0  0  2  0  0  0  0  0  0
  184.3470  179.2560  145.0950 C   0  0  0  0  0  3  0  0  0  0  0  0
  181.1510  178.6190  143.0570 C   0  0  0  0  0  0  0  0  0  0  0  0
  182.9400  179.0030  144.7180 C   0  0  0  0  0  3  0  0  0  0  0  0
  181.5560  178.6810  135.6020 C   0  0  0  0  0  2  0  0  0  0  0  0
  181.6260  177.8890  136.8840 C   0  0  0  0  0  0  0  0  0  0  0  0
  180.9820  178.1060  141.6460 C   0  0  0  0  0  0  0  0  0  0  0  0
  185.3050  179.3110  144.1630 C   0  0  0  0  0  3  0  0  0  0  0  0
  183.6330  178.8230  142.3990 C   0  0  2  0  0  3  0  0  0  0  0  0
  186.0520  179.2240  141.7870 C   0  0  0  0  0  2  0  0  0  0  0  0
  187.1440  178.2520  142.0860 C   0  0  0  0  0  0  0  0  0  0  0  0
  189.1650  176.3920  142.6170 C   0  0  0  0  0  0  0  0  0  0  0  0
  188.3130  178.2500  141.3190 C   0  0  0  0  0  3  0  0  0  0  0  0
  186.9830  177.3160  143.1150 C   0  0  0  0  0  3  0  0  0  0  0  0
  187.9930  176.3880  143.3810 C   0  0  0  0  0  3  0  0  0  0  0  0
  190.1690  175.4700  142.8820 O   0  0  0  0  0  1  0  0  0  0  0  0
  189.3250  177.3220  141.5860 C   0  0  0  0  0  3  0  0  0  0  0  0
  1 19  1  0  0  0  0
  4  9  1  6  0  0  0
  4  7  1  0  0  0  0
  4 12  1  0  0  0  0
  5 11  2  0  0  0  0
  5 18  1  0  0  0  0
  6 17  1  0  0  0  0
  7  2  1  6  0  0  0
  7  5  1  0  0  0  0
  8 18  1  0  0  0  0
 10 15  2  0  0  0  0
 12  8  1  0  0  0  0
 14  3  1  0  0  0  0
 14 10  1  0  0  0  0
 15 13  1  0  0  0  0
 16  6  1  0  0  0  0
 16 17  1  0  0  0  0
 17  9  1  0  0  0  0
 17  2  1  0  0  0  0
 18 14  2  0  0  0  0
 19 13  2  0  0  0  0
 20 11  1  1  0  0  0
 20  1  1  0  0  0  0
 20 10  1  0  0  0  0
 21 22  1  0  0  0  0
 21  1  1  0  0  0  0
 22 25  1  0  0  0  0
 23 27  1  0  0  0  0
 23 26  1  0  0  0  0
 24 28  1  0  0  0  0
 24 22  2  0  0  0  0
 25 26  2  0  0  0  0
 28 23  2  0  0  0  0
M  END
>  <MODEL>
8

>  <REMARK>
 VINA RESULT:      -7.5      4.170      7.628
  Name = 
  2 active torsions:
  status: ('A' for Active; 'I' for Inactive)
    1  A    between atoms: N_1  and  C_2
    2  A    between atoms: C_2  and  C_3
                            x       y       z     vdW  Elec       q    Type
                         _______ _______ _______ _____ _____    ______ ____

>  <TORSDO>
F 2

$$$$
=
 OpenBabel11052413333D

 28 33  0  0  1  0  0  0  0  0999 V2000
  185.0040  178.3360  143.9870 N   0  0  0  0  0  0  0  0  0  0  0  0
  188.8480  177.2370  140.6810 S   0  0  0  0  0  0  0  0  0  0  0  0
  188.5440  176.6510  146.5350 C   0  0  0  0  0  1  0  0  0  0  0  0
  190.8890  177.4210  142.4210 C   0  0  1  0  0  3  0  0  0  0  0  0
  188.6680  177.9910  143.3820 C   0  0  0  0  0  0  0  0  0  0  0  0
  190.8280  177.4580  138.6530 C   0  0  0  0  0  2  0  0  0  0  0  0
  189.5370  178.0480  142.1570 C   0  0  2  0  0  3  0  0  0  0  0  0
  190.7410  178.0370  144.8140 C   0  0  0  0  0  2  0  0  0  0  0  0
  191.6370  177.4330  141.1080 C   0  0  0  0  0  2  0  0  0  0  0  0
  186.9280  178.2690  145.5930 C   0  0  0  0  0  0  0  0  0  0  0  0
  187.2430  178.0680  143.2180 N   0  0  0  0  0  0  0  0  0  0  0  0
  191.5590  178.2100  143.5260 C   0  0  0  0  0  2  0  0  0  0  0  0
  184.6310  178.6930  146.3400 C   0  0  0  0  0  3  0  0  0  0  0  0
  188.3830  178.0080  145.8660 C   0  0  0  0  0  0  0  0  0  0  0  0
  186.0750  178.5080  146.5950 C   0  0  0  0  0  3  0  0  0  0  0  0
  190.8580  176.0020  139.1140 C   0  0  0  0  0  2  0  0  0  0  0  0
  190.5620  177.1080  140.0950 C   0  0  0  0  0  0  0  0  0  0  0  0
  189.2320  178.0630  144.6180 C   0  0  0  0  0  0  0  0  0  0  0  0
  184.1380  178.6030  145.1000 C   0  0  0  0  0  3  0  0  0  0  0  0
  186.4180  178.1980  144.2120 C   0  0  2  0  0  3  0  0  0  0  0  0
  184.4260  178.2030  142.6560 C   0  0  0  0  0  2  0  0  0  0  0  0
  182.9870  178.5970  142.6720 C   0  0  0  0  0  0  0  0  0  0  0  0
  180.2760  179.2850  142.6900 C   0  0  0  0  0  0  0  0  0  0  0  0
  182.2780  178.6180  143.8780 C   0  0  0  0  0  3  0  0  0  0  0  0
  182.3360  178.9130  141.4740 C   0  0  0  0  0  3  0  0  0  0  0  0
  180.9820  179.2580  141.4830 C   0  0  0  0  0  3  0  0  0  0  0  0
  178.9310  179.6290  142.6990 O   0  0  0  0  0  1  0  0  0  0  0  0
  180.9220  178.9640  143.8860 C   0  0  0  0  0  3  0  0  0  0  0  0
  1 20  1  0  0  0  0
  1 19  1  0  0  0  0
  4  9  1  6  0  0  0
  4 12  1  0  0  0  0
  5 18  1  0  0  0  0
  6 16  1  0  0  0  0
  6 17  1  0  0  0  0
  7  2  1  6  0  0  0
  7  4  1  0  0  0  0
  7  5  1  0  0  0  0
 10 14  1  0  0  0  0
 10 15  2  0  0  0  0
 11  5  2  0  0  0  0
 12  8  1  0  0  0  0
 13 15  1  0  0  0  0
 14  3  1  0  0  0  0
 16 17  1  0  0  0  0
 17  2  1  0  0  0  0
 17  9  1  0  0  0  0
 18  8  1  0  0  0  0
 18 14  2  0  0  0  0
 19 13  2  0  0  0  0
 20 11  1  6  0  0  0
 20 10  1  0  0  0  0
 21 22  1  0  0  0  0
 21  1  1  0  0  0  0
 22 24  1  0  0  0  0
 23 27  1  0  0  0  0
 23 28  1  0  0  0  0
 24 28  2  0  0  0  0
 25 26  1  0  0  0  0
 25 22  2  0  0  0  0
 26 23  2  0  0  0  0
M  END
>  <MODEL>
9

>  <REMARK>
 VINA RESULT:      -7.4      3.324      7.426
  Name = 
  2 active torsions:
  status: ('A' for Active; 'I' for Inactive)
    1  A    between atoms: N_1  and  C_2
    2  A    between atoms: C_2  and  C_3
                            x       y       z     vdW  Elec       q    Type
                         _______ _______ _______ _____ _____    ______ ____

>  <TORSDO>
F 2

$$$$
