=
 OpenBabel11052413443D

 27 31  0  0  1  0  0  0  0  0999 V2000
  190.8530  178.7090  143.8460 C   0  0  0  0  0  2  0  0  0  0  0  0
  188.4900  177.9700  144.4060 C   0  0  0  0  0  0  0  0  0  0  0  0
  188.5600  178.3180  141.8470 C   0  0  0  0  0  2  0  0  0  0  0  0
  183.9420  178.2810  144.1850 S   0  0  0  0  0  0  0  0  0  0  0  0
  183.2520  178.2530  141.6350 O   0  0  0  0  0  0  0  0  0  0  0  0
  187.6950  177.8440  145.5620 C   0  0  0  0  0  3  0  0  0  0  0  0
  185.5950  178.4930  141.9260 C   0  0  1  0  0  3  0  0  0  0  0  0
  190.7450  175.7250  138.6800 O   0  0  0  0  0  0  0  0  0  0  0  0
  185.7940  179.8330  141.3990 N   0  0  0  0  0  1  0  0  0  0  0  0
  190.6010  176.3680  139.7520 C   0  0  0  0  0  0  0  0  0  0  0  0
  186.4330  178.2920  143.1450 C   0  0  0  0  0  0  0  0  0  0  0  0
  189.9200  177.8140  144.5360 N   0  0  0  0  0  0  0  0  0  0  0  0
  184.1880  178.3530  142.4100 C   0  0  0  0  0  0  0  0  0  0  0  0
  185.7150  178.1660  144.3230 C   0  0  0  0  0  0  0  0  0  0  0  0
  191.6880  177.9400  142.8240 C   0  0  0  0  0  2  0  0  0  0  0  0
  187.8360  178.1810  143.1570 C   0  0  0  0  0  0  0  0  0  0  0  0
  189.3470  176.5130  140.3890 N   0  0  0  0  0  2  0  0  0  0  0  0
  186.3420  177.9420  145.5020 N   0  0  0  0  0  0  0  0  0  0  0  0
  191.7120  177.0350  140.4640 C   0  0  0  0  0  2  0  0  0  0  0  0
  190.9570  177.8630  141.4950 C   0  0  1  0  0  3  0  0  0  0  0  0
  189.5800  177.2170  141.6350 C   0  0  1  0  0  3  0  0  0  0  0  0
  191.6030  175.2890  147.3660 N   0  0  0  0  0  2  0  0  0  0  0  0
  190.4300  176.8570  145.5240 C   0  0  0  0  0  3  0  0  0  0  0  0
  191.6560  176.1050  145.0010 C   0  0  0  0  0  2  0  0  0  0  0  0
  192.2580  175.1670  146.0610 C   0  0  0  0  0  2  0  0  0  0  0  0
  191.6210  176.6940  147.7650 C   0  0  0  0  0  2  0  0  0  0  0  0
  190.6800  177.5210  146.8840 C   0  0  0  0  0  2  0  0  0  0  0  0
  1 12  1  0  0  0  0
  2 12  1  0  0  0  0
  2  6  1  0  0  0  0
  3 16  1  0  0  0  0
  4 14  1  0  0  0  0
  5 13  2  0  0  0  0
  7  9  1  1  0  0  0
  7 13  1  0  0  0  0
  7 11  1  0  0  0  0
  8 10  2  0  0  0  0
 10 17  1  0  0  0  0
 10 19  1  0  0  0  0
 11 16  1  0  0  0  0
 11 14  2  0  0  0  0
 12 23  1  0  0  0  0
 13  4  1  0  0  0  0
 14 18  1  0  0  0  0
 15  1  1  0  0  0  0
 16  2  2  0  0  0  0
 17 21  1  0  0  0  0
 18  6  2  0  0  0  0
 20 19  1  6  0  0  0
 20 21  1  0  0  0  0
 20 15  1  0  0  0  0
 21  3  1  6  0  0  0
 22 26  1  0  0  0  0
 23 27  1  0  0  0  0
 24 23  1  0  0  0  0
 24 25  1  0  0  0  0
 25 22  1  0  0  0  0
 27 26  1  0  0  0  0
M  END
>  <MODEL>
1

>  <REMARK>
 VINA RESULT:      -7.7      0.000      0.000
  Name = 
  1 active torsions:
  status: ('A' for Active; 'I' for Inactive)
    1  A    between atoms: C_9  and  N_15
                            x       y       z     vdW  Elec       q    Type
                         _______ _______ _______ _____ _____    ______ ____

>  <TORSDO>
F 1

$$$$
=
 OpenBabel11052413443D

 27 31  0  0  1  0  0  0  0  0999 V2000
  189.7020  178.4140  137.7520 C   0  0  0  0  0  2  0  0  0  0  0  0
  189.1880  177.3980  140.0210 C   0  0  0  0  0  0  0  0  0  0  0  0
  186.9760  178.4180  139.1580 C   0  0  0  0  0  2  0  0  0  0  0  0
  187.4140  177.4540  144.2260 S   0  0  0  0  0  0  0  0  0  0  0  0
  184.8500  178.0600  144.0140 O   0  0  0  0  0  0  0  0  0  0  0  0
  189.9180  176.9160  141.1250 C   0  0  0  0  0  3  0  0  0  0  0  0
  186.0150  178.3680  141.9690 C   0  0  1  0  0  3  0  0  0  0  0  0
  184.3170  176.9120  135.6680 O   0  0  0  0  0  0  0  0  0  0  0  0
  185.9120  179.8110  141.8180 N   0  0  0  0  0  1  0  0  0  0  0  0
  185.3800  177.2350  136.2590 C   0  0  0  0  0  0  0  0  0  0  0  0
  187.3760  177.9070  141.5640 C   0  0  0  0  0  0  0  0  0  0  0  0
  189.7870  177.3080  138.7100 N   0  0  0  0  0  0  0  0  0  0  0  0
  185.9130  178.0110  143.4170 C   0  0  0  0  0  0  0  0  0  0  0  0
  188.1530  177.4250  142.6050 C   0  0  0  0  0  0  0  0  0  0  0  0
  188.9060  178.0020  136.5150 C   0  0  0  0  0  2  0  0  0  0  0  0
  187.8680  177.8890  140.2470 C   0  0  0  0  0  0  0  0  0  0  0  0
  185.5350  177.1220  137.6600 N   0  0  0  0  0  2  0  0  0  0  0  0
  189.3960  176.9360  142.3790 N   0  0  0  0  0  0  0  0  0  0  0  0
  186.5750  177.7610  135.5660 C   0  0  0  0  0  2  0  0  0  0  0  0
  187.4220  178.2330  136.7410 C   0  0  1  0  0  3  0  0  0  0  0  0
  186.9050  177.4830  137.9680 C   0  0  1  0  0  3  0  0  0  0  0  0
  192.2400  174.1540  137.5890 N   0  0  0  0  0  2  0  0  0  0  0  0
  190.6500  176.1590  138.4150 C   0  0  0  0  0  3  0  0  0  0  0  0
  189.9340  175.1250  137.5420 C   0  0  0  0  0  2  0  0  0  0  0  0
  190.8560  173.9590  137.1460 C   0  0  0  0  0  2  0  0  0  0  0  0
  192.7070  175.4490  137.0980 C   0  0  0  0  0  2  0  0  0  0  0  0
  191.9990  176.5940  137.8290 C   0  0  0  0  0  2  0  0  0  0  0  0
  1 12  1  0  0  0  0
  2 16  2  0  0  0  0
  2  6  1  0  0  0  0
  3 16  1  0  0  0  0
  6 18  2  0  0  0  0
  7  9  1  1  0  0  0
  7 13  1  0  0  0  0
  8 10  2  0  0  0  0
 10 17  1  0  0  0  0
 11  7  1  0  0  0  0
 11 14  2  0  0  0  0
 12  2  1  0  0  0  0
 13  5  2  0  0  0  0
 13  4  1  0  0  0  0
 14  4  1  0  0  0  0
 15 20  1  0  0  0  0
 15  1  1  0  0  0  0
 16 11  1  0  0  0  0
 17 21  1  0  0  0  0
 18 14  1  0  0  0  0
 19 10  1  0  0  0  0
 20 19  1  6  0  0  0
 20 21  1  0  0  0  0
 21  3  1  1  0  0  0
 23 12  1  0  0  0  0
 24 23  1  0  0  0  0
 25 24  1  0  0  0  0
 25 22  1  0  0  0  0
 26 22  1  0  0  0  0
 26 27  1  0  0  0  0
 27 23  1  0  0  0  0
M  END
>  <MODEL>
2

>  <REMARK>
 VINA RESULT:      -7.6      3.368      5.950
  Name = 
  1 active torsions:
  status: ('A' for Active; 'I' for Inactive)
    1  A    between atoms: C_9  and  N_15
                            x       y       z     vdW  Elec       q    Type
                         _______ _______ _______ _____ _____    ______ ____

>  <TORSDO>
F 1

$$$$
=
 OpenBabel11052413443D

 27 31  0  0  1  0  0  0  0  0999 V2000
  189.6060  179.1460  143.1160 C   0  0  0  0  0  2  0  0  0  0  0  0
  189.3930  177.8270  140.9580 C   0  0  0  0  0  0  0  0  0  0  0  0
  191.6760  177.1870  141.9830 C   0  0  0  0  0  2  0  0  0  0  0  0
  190.9100  176.2650  136.9470 S   0  0  0  0  0  0  0  0  0  0  0  0
  193.2010  175.0200  137.3780 O   0  0  0  0  0  0  0  0  0  0  0  0
  188.5740  177.8500  139.8110 C   0  0  0  0  0  3  0  0  0  0  0  0
  192.4660  176.2280  139.2840 C   0  0  1  0  0  3  0  0  0  0  0  0
  192.4810  174.6470  145.7810 O   0  0  0  0  0  0  0  0  0  0  0  0
  193.5080  177.2390  139.3770 N   0  0  0  0  0  1  0  0  0  0  0  0
  191.9380  175.5370  145.0750 C   0  0  0  0  0  0  0  0  0  0  0  0
  191.1340  176.8380  139.5750 C   0  0  0  0  0  0  0  0  0  0  0  0
  188.8360  178.2910  142.2070 N   0  0  0  0  0  0  0  0  0  0  0  0
  192.3600  175.7530  137.8700 C   0  0  0  0  0  0  0  0  0  0  0  0
  190.2790  176.8980  138.4880 C   0  0  0  0  0  0  0  0  0  0  0  0
  189.8640  178.4320  144.4420 C   0  0  0  0  0  2  0  0  0  0  0  0
  190.7060  177.2850  140.8390 C   0  0  0  0  0  0  0  0  0  0  0  0
  191.8050  175.4180  143.6720 N   0  0  0  0  0  2  0  0  0  0  0  0
  189.0230  177.3910  138.6140 N   0  0  0  0  0  0  0  0  0  0  0  0
  191.3830  176.7920  145.6230 C   0  0  0  0  0  2  0  0  0  0  0  0
  191.1240  177.5890  144.3510 C   0  0  1  0  0  3  0  0  0  0  0  0
  191.0500  176.5690  143.2170 C   0  0  1  0  0  3  0  0  0  0  0  0
  184.7940  177.8920  143.0560 N   0  0  0  0  0  2  0  0  0  0  0  0
  187.4130  178.0500  142.4700 C   0  0  0  0  0  3  0  0  0  0  0  0
  187.1220  177.9640  143.9700 C   0  0  0  0  0  2  0  0  0  0  0  0
  185.6210  177.8050  144.2630 C   0  0  0  0  0  2  0  0  0  0  0  0
  185.1160  179.1350  142.3610 C   0  0  0  0  0  2  0  0  0  0  0  0
  186.5200  179.0700  141.7520 C   0  0  0  0  0  2  0  0  0  0  0  0
  1 15  1  0  0  0  0
  2 12  1  0  0  0  0
  4 13  1  0  0  0  0
  4 14  1  0  0  0  0
  5 13  2  0  0  0  0
  6  2  2  0  0  0  0
  7  9  1  6  0  0  0
  7 11  1  0  0  0  0
 10 19  1  0  0  0  0
 10  8  2  0  0  0  0
 11 16  2  0  0  0  0
 12 23  1  0  0  0  0
 12  1  1  0  0  0  0
 13  7  1  0  0  0  0
 14 18  2  0  0  0  0
 14 11  1  0  0  0  0
 16  2  1  0  0  0  0
 16  3  1  0  0  0  0
 17 10  1  0  0  0  0
 18  6  1  0  0  0  0
 20 15  1  1  0  0  0
 20 19  1  0  0  0  0
 21  3  1  6  0  0  0
 21 17  1  0  0  0  0
 21 20  1  0  0  0  0
 22 25  1  0  0  0  0
 23 24  1  0  0  0  0
 24 25  1  0  0  0  0
 26 22  1  0  0  0  0
 27 26  1  0  0  0  0
 27 23  1  0  0  0  0
M  END
>  <MODEL>
3

>  <REMARK>
 VINA RESULT:      -7.1      3.311      6.469
  Name = 
  1 active torsions:
  status: ('A' for Active; 'I' for Inactive)
    1  A    between atoms: C_9  and  N_15
                            x       y       z     vdW  Elec       q    Type
                         _______ _______ _______ _____ _____    ______ ____

>  <TORSDO>
F 1

$$$$
=
 OpenBabel11052413443D

 27 31  0  0  1  0  0  0  0  0999 V2000
  189.0710  178.1370  136.8280 C   0  0  0  0  0  2  0  0  0  0  0  0
  190.0820  175.8750  136.2770 C   0  0  0  0  0  0  0  0  0  0  0  0
  191.2400  176.6860  138.4390 C   0  0  0  0  0  2  0  0  0  0  0  0
  193.5590  172.9830  135.6620 S   0  0  0  0  0  0  0  0  0  0  0  0
  195.0280  173.0060  137.8590 O   0  0  0  0  0  0  0  0  0  0  0  0
  190.1140  175.0010  135.1730 C   0  0  0  0  0  3  0  0  0  0  0  0
  193.4030  174.7360  137.8500 C   0  0  1  0  0  3  0  0  0  0  0  0
  189.4080  177.0530  142.6860 O   0  0  0  0  0  0  0  0  0  0  0  0
  194.2610  175.9080  137.7960 N   0  0  0  0  0  1  0  0  0  0  0  0
  189.4690  177.1790  141.4350 C   0  0  0  0  0  0  0  0  0  0  0  0
  192.2160  174.9290  136.9650 C   0  0  0  0  0  0  0  0  0  0  0  0
  188.9300  176.7310  136.4400 N   0  0  0  0  0  0  0  0  0  0  0  0
  194.1230  173.5650  137.2620 C   0  0  0  0  0  0  0  0  0  0  0  0
  192.1870  174.1040  135.8530 C   0  0  0  0  0  0  0  0  0  0  0  0
  188.4280  178.3930  138.1900 C   0  0  0  0  0  2  0  0  0  0  0  0
  191.1570  175.8220  137.2120 C   0  0  0  0  0  0  0  0  0  0  0  0
  190.1890  176.2810  140.6140 N   0  0  0  0  0  2  0  0  0  0  0  0
  191.1500  174.1420  134.9820 N   0  0  0  0  0  0  0  0  0  0  0  0
  188.8010  178.2650  140.6870 C   0  0  0  0  0  2  0  0  0  0  0  0
  189.4190  178.1040  139.3040 C   0  0  1  0  0  3  0  0  0  0  0  0
  189.9530  176.6750  139.2390 C   0  0  1  0  0  3  0  0  0  0  0  0
  185.0930  175.4920  135.4610 N   0  0  0  0  0  2  0  0  0  0  0  0
  187.6180  176.2210  136.0280 C   0  0  0  0  0  3  0  0  0  0  0  0
  186.9310  175.4490  137.1570 C   0  0  0  0  0  2  0  0  0  0  0  0
  185.5150  174.9890  136.7710 C   0  0  0  0  0  2  0  0  0  0  0  0
  185.2490  176.9440  135.4470 C   0  0  0  0  0  2  0  0  0  0  0  0
  186.7310  177.3310  135.4480 C   0  0  0  0  0  2  0  0  0  0  0  0
  1 15  1  0  0  0  0
  2 12  1  0  0  0  0
  2 16  1  0  0  0  0
  4 14  1  0  0  0  0
  4 13  1  0  0  0  0
  6  2  2  0  0  0  0
  7  9  1  6  0  0  0
 10  8  2  0  0  0  0
 11 16  2  0  0  0  0
 11  7  1  0  0  0  0
 12  1  1  0  0  0  0
 13  7  1  0  0  0  0
 13  5  2  0  0  0  0
 14 11  1  0  0  0  0
 16  3  1  0  0  0  0
 17 10  1  0  0  0  0
 18  6  1  0  0  0  0
 18 14  2  0  0  0  0
 19 10  1  0  0  0  0
 20 15  1  6  0  0  0
 20 19  1  0  0  0  0
 21  3  1  6  0  0  0
 21 20  1  0  0  0  0
 21 17  1  0  0  0  0
 22 25  1  0  0  0  0
 23 12  1  0  0  0  0
 23 24  1  0  0  0  0
 25 24  1  0  0  0  0
 26 27  1  0  0  0  0
 26 22  1  0  0  0  0
 27 23  1  0  0  0  0
M  END
>  <MODEL>
4

>  <REMARK>
 VINA RESULT:      -6.9      5.022      9.393
  Name = 
  1 active torsions:
  status: ('A' for Active; 'I' for Inactive)
    1  A    between atoms: C_9  and  N_15
                            x       y       z     vdW  Elec       q    Type
                         _______ _______ _______ _____ _____    ______ ____

>  <TORSDO>
F 1

$$$$
=
 OpenBabel11052413443D

 27 31  0  0  1  0  0  0  0  0999 V2000
  188.2480  176.1790  143.0120 C   0  0  0  0  0  2  0  0  0  0  0  0
  189.1580  177.3280  140.9400 C   0  0  0  0  0  0  0  0  0  0  0  0
  186.5980  177.6800  140.9070 C   0  0  0  0  0  2  0  0  0  0  0  0
  189.2080  178.2850  136.4770 S   0  0  0  0  0  0  0  0  0  0  0  0
  186.8110  179.1800  135.8150 O   0  0  0  0  0  0  0  0  0  0  0  0
  190.3640  177.3400  140.2120 C   0  0  0  0  0  3  0  0  0  0  0  0
  186.8530  178.2690  138.0060 C   0  0  1  0  0  3  0  0  0  0  0  0
  184.0570  180.3690  143.7060 O   0  0  0  0  0  0  0  0  0  0  0  0
  185.9830  177.1170  137.8330 N   0  0  0  0  0  1  0  0  0  0  0  0
  184.9340  179.5210  143.3960 C   0  0  0  0  0  0  0  0  0  0  0  0
  188.0160  177.9070  138.8700 C   0  0  0  0  0  0  0  0  0  0  0  0
  189.2150  177.0660  142.3590 N   0  0  0  0  0  0  0  0  0  0  0  0
  187.4620  178.6350  136.6910 C   0  0  0  0  0  0  0  0  0  0  0  0
  189.2360  177.8930  138.2150 C   0  0  0  0  0  0  0  0  0  0  0  0
  187.4010  176.9510  144.0220 C   0  0  0  0  0  2  0  0  0  0  0  0
  187.9500  177.6420  140.2500 C   0  0  0  0  0  0  0  0  0  0  0  0
  185.6040  179.5410  142.1510 N   0  0  0  0  0  2  0  0  0  0  0  0
  190.3830  177.6190  138.8820 N   0  0  0  0  0  0  0  0  0  0  0  0
  185.3620  178.4210  144.2860 C   0  0  0  0  0  2  0  0  0  0  0  0
  186.1970  177.5720  143.3360 C   0  0  1  0  0  3  0  0  0  0  0  0
  186.6030  178.4910  142.1860 C   0  0  1  0  0  3  0  0  0  0  0  0
  192.3220  178.4530  144.7340 N   0  0  0  0  0  2  0  0  0  0  0  0
  190.3770  177.5520  143.1110 C   0  0  0  0  0  3  0  0  0  0  0  0
  190.2170  179.0220  143.5070 C   0  0  0  0  0  2  0  0  0  0  0  0
  191.3830  179.5210  144.3770 C   0  0  0  0  0  2  0  0  0  0  0  0
  191.5730  177.3610  145.3480 C   0  0  0  0  0  2  0  0  0  0  0  0
  190.6980  176.6500  144.3100 C   0  0  0  0  0  2  0  0  0  0  0  0
  1 15  1  0  0  0  0
  2 12  1  0  0  0  0
  4 13  1  0  0  0  0
  4 14  1  0  0  0  0
  5 13  2  0  0  0  0
  6  2  2  0  0  0  0
  7  9  1  6  0  0  0
  7 11  1  0  0  0  0
 10  8  2  0  0  0  0
 10 19  1  0  0  0  0
 11 16  2  0  0  0  0
 12  1  1  0  0  0  0
 12 23  1  0  0  0  0
 13  7  1  0  0  0  0
 14 11  1  0  0  0  0
 14 18  2  0  0  0  0
 16  3  1  0  0  0  0
 16  2  1  0  0  0  0
 17 21  1  0  0  0  0
 17 10  1  0  0  0  0
 18  6  1  0  0  0  0
 20 15  1  1  0  0  0
 20 19  1  0  0  0  0
 21  3  1  6  0  0  0
 21 20  1  0  0  0  0
 22 26  1  0  0  0  0
 23 24  1  0  0  0  0
 23 27  1  0  0  0  0
 24 25  1  0  0  0  0
 25 22  1  0  0  0  0
 27 26  1  0  0  0  0
M  END
>  <MODEL>
5

>  <REMARK>
 VINA RESULT:      -6.8      3.040      5.406
  Name = 
  1 active torsions:
  status: ('A' for Active; 'I' for Inactive)
    1  A    between atoms: C_9  and  N_15
                            x       y       z     vdW  Elec       q    Type
                         _______ _______ _______ _____ _____    ______ ____

>  <TORSDO>
F 1

$$$$
=
 OpenBabel11052413443D

 27 31  0  0  1  0  0  0  0  0999 V2000
  192.1870  177.8780  139.7570 C   0  0  0  0  0  2  0  0  0  0  0  0
  189.6890  177.7740  140.1970 C   0  0  0  0  0  0  0  0  0  0  0  0
  190.0440  176.9070  137.7890 C   0  0  0  0  0  2  0  0  0  0  0  0
  185.3100  178.5110  139.1400 S   0  0  0  0  0  0  0  0  0  0  0  0
  184.8510  177.4120  136.7820 O   0  0  0  0  0  0  0  0  0  0  0  0
  188.7870  178.2870  141.1500 C   0  0  0  0  0  3  0  0  0  0  0  0
  187.1640  177.4650  137.3100 C   0  0  1  0  0  3  0  0  0  0  0  0
  191.9850  172.9090  136.4580 O   0  0  0  0  0  0  0  0  0  0  0  0
  187.6500  178.3830  136.2920 N   0  0  0  0  0  1  0  0  0  0  0  0
  191.8680  173.9820  137.1070 C   0  0  0  0  0  0  0  0  0  0  0  0
  187.8430  177.7390  138.6110 C   0  0  0  0  0  0  0  0  0  0  0  0
  191.0500  177.5180  140.6080 N   0  0  0  0  0  0  0  0  0  0  0  0
  185.7190  177.7360  137.5760 C   0  0  0  0  0  0  0  0  0  0  0  0
  187.0140  178.2530  139.5950 C   0  0  0  0  0  0  0  0  0  0  0  0
  192.9530  176.6310  139.3190 C   0  0  0  0  0  2  0  0  0  0  0  0
  189.1950  177.4720  138.8940 C   0  0  0  0  0  0  0  0  0  0  0  0
  190.6110  174.5550  137.4080 N   0  0  0  0  0  2  0  0  0  0  0  0
  187.4850  178.5140  140.8380 N   0  0  0  0  0  0  0  0  0  0  0  0
  193.0160  174.7560  137.6240 C   0  0  0  0  0  2  0  0  0  0  0  0
  192.3380  176.0490  138.0580 C   0  0  1  0  0  3  0  0  0  0  0  0
  190.8590  175.7140  138.2430 C   0  0  1  0  0  3  0  0  0  0  0  0
  191.4530  176.3390  144.5670 N   0  0  0  0  0  2  0  0  0  0  0  0
  191.2880  177.0600  141.9820 C   0  0  0  0  0  3  0  0  0  0  0  0
  191.5220  178.2350  142.9350 C   0  0  0  0  0  2  0  0  0  0  0  0
  191.6800  177.7770  144.3950 C   0  0  0  0  0  2  0  0  0  0  0  0
  190.1510  176.0030  143.9960 C   0  0  0  0  0  2  0  0  0  0  0  0
  190.1810  176.1160  142.4690 C   0  0  0  0  0  2  0  0  0  0  0  0
  1 12  1  0  0  0  0
  2 12  1  0  0  0  0
  2  6  1  0  0  0  0
  3 16  1  0  0  0  0
  4 14  1  0  0  0  0
  5 13  2  0  0  0  0
  7  9  1  6  0  0  0
  7 13  1  0  0  0  0
  7 11  1  0  0  0  0
  8 10  2  0  0  0  0
 10 17  1  0  0  0  0
 10 19  1  0  0  0  0
 11 16  1  0  0  0  0
 11 14  2  0  0  0  0
 12 23  1  0  0  0  0
 13  4  1  0  0  0  0
 14 18  1  0  0  0  0
 15  1  1  0  0  0  0
 16  2  2  0  0  0  0
 17 21  1  0  0  0  0
 18  6  2  0  0  0  0
 20 19  1  1  0  0  0
 20 21  1  0  0  0  0
 20 15  1  0  0  0  0
 21  3  1  6  0  0  0
 23 27  1  0  0  0  0
 23 24  1  0  0  0  0
 24 25  1  0  0  0  0
 25 22  1  0  0  0  0
 26 22  1  0  0  0  0
 27 26  1  0  0  0  0
M  END
>  <MODEL>
6

>  <REMARK>
 VINA RESULT:      -6.7      2.959      4.345
  Name = 
  1 active torsions:
  status: ('A' for Active; 'I' for Inactive)
    1  A    between atoms: C_9  and  N_15
                            x       y       z     vdW  Elec       q    Type
                         _______ _______ _______ _____ _____    ______ ____

>  <TORSDO>
F 1

$$$$
=
 OpenBabel11052413443D

 27 31  0  0  1  0  0  0  0  0999 V2000
  187.9040  176.2400  143.5670 C   0  0  0  0  0  2  0  0  0  0  0  0
  187.2010  177.7990  141.6910 C   0  0  0  0  0  0  0  0  0  0  0  0
  185.3190  177.8860  143.4590 C   0  0  0  0  0  2  0  0  0  0  0  0
  184.2370  179.4710  138.6500 S   0  0  0  0  0  0  0  0  0  0  0  0
  182.0650  180.2110  139.9600 O   0  0  0  0  0  0  0  0  0  0  0  0
  187.5890  178.0520  140.3610 C   0  0  0  0  0  3  0  0  0  0  0  0
  183.5530  178.9640  141.3260 C   0  0  1  0  0  3  0  0  0  0  0  0
  185.4610  179.8080  147.6780 O   0  0  0  0  0  0  0  0  0  0  0  0
  182.7560  177.7730  141.5700 N   0  0  0  0  0  1  0  0  0  0  0  0
  185.8610  179.1170  146.7060 C   0  0  0  0  0  0  0  0  0  0  0  0
  184.9780  178.5870  141.0910 C   0  0  0  0  0  0  0  0  0  0  0  0
  188.1990  177.3150  142.6170 N   0  0  0  0  0  0  0  0  0  0  0  0
  183.1170  179.6000  140.0450 C   0  0  0  0  0  0  0  0  0  0  0  0
  185.4260  178.8050  139.7980 C   0  0  0  0  0  0  0  0  0  0  0  0
  187.9990  176.7450  145.0060 C   0  0  0  0  0  2  0  0  0  0  0  0
  185.8590  178.0950  142.0710 C   0  0  0  0  0  0  0  0  0  0  0  0
  185.5050  179.4080  145.3690 N   0  0  0  0  0  2  0  0  0  0  0  0
  186.7090  178.5450  139.4510 N   0  0  0  0  0  0  0  0  0  0  0  0
  186.7390  177.9360  146.8460 C   0  0  0  0  0  2  0  0  0  0  0  0
  186.6740  177.3430  145.4440 C   0  0  1  0  0  3  0  0  0  0  0  0
  186.2220  178.4740  144.5230 C   0  0  1  0  0  3  0  0  0  0  0  0
  192.1860  178.4420  142.3850 N   0  0  0  0  0  2  0  0  0  0  0  0
  189.5790  177.7890  142.4640 C   0  0  0  0  0  3  0  0  0  0  0  0
  190.0760  178.4970  143.7270 C   0  0  0  0  0  2  0  0  0  0  0  0
  191.5510  178.9170  143.6170 C   0  0  0  0  0  2  0  0  0  0  0  0
  191.9900  176.9980  142.2870 C   0  0  0  0  0  2  0  0  0  0  0  0
  190.5210  176.6670  142.0080 C   0  0  0  0  0  2  0  0  0  0  0  0
  1 15  1  0  0  0  0
  2 16  1  0  0  0  0
  2 12  1  0  0  0  0
  4 14  1  0  0  0  0
  4 13  1  0  0  0  0
  5 13  2  0  0  0  0
  6  2  2  0  0  0  0
  7  9  1  6  0  0  0
 10 19  1  0  0  0  0
 10  8  2  0  0  0  0
 11  7  1  0  0  0  0
 11 16  2  0  0  0  0
 12  1  1  0  0  0  0
 13  7  1  0  0  0  0
 14 11  1  0  0  0  0
 16  3  1  0  0  0  0
 17 10  1  0  0  0  0
 18 14  2  0  0  0  0
 18  6  1  0  0  0  0
 20 15  1  6  0  0  0
 20 19  1  0  0  0  0
 21  3  1  6  0  0  0
 21 17  1  0  0  0  0
 21 20  1  0  0  0  0
 22 25  1  0  0  0  0
 23 12  1  0  0  0  0
 23 24  1  0  0  0  0
 25 24  1  0  0  0  0
 26 22  1  0  0  0  0
 27 26  1  0  0  0  0
 27 23  1  0  0  0  0
M  END
>  <MODEL>
7

>  <REMARK>
 VINA RESULT:      -6.6      3.247      5.207
  Name = 
  1 active torsions:
  status: ('A' for Active; 'I' for Inactive)
    1  A    between atoms: C_9  and  N_15
                            x       y       z     vdW  Elec       q    Type
                         _______ _______ _______ _____ _____    ______ ____

>  <TORSDO>
F 1

$$$$
=
 OpenBabel11052413443D

 27 31  0  0  1  0  0  0  0  0999 V2000
  189.9620  178.5490  144.8000 C   0  0  0  0  0  2  0  0  0  0  0  0
  188.8570  177.8850  142.6140 C   0  0  0  0  0  0  0  0  0  0  0  0
  191.2310  176.8670  142.5720 C   0  0  0  0  0  2  0  0  0  0  0  0
  188.7170  177.4000  138.0780 S   0  0  0  0  0  0  0  0  0  0  0  0
  190.8130  175.9640  137.3530 O   0  0  0  0  0  0  0  0  0  0  0  0
  187.7180  178.2640  141.8770 C   0  0  0  0  0  3  0  0  0  0  0  0
  190.9350  176.6430  139.6240 C   0  0  1  0  0  3  0  0  0  0  0  0
  192.8670  173.3460  145.1120 O   0  0  0  0  0  0  0  0  0  0  0  0
  192.0850  177.5320  139.5750 N   0  0  0  0  0  1  0  0  0  0  0  0
  192.2570  174.4230  144.8800 C   0  0  0  0  0  0  0  0  0  0  0  0
  189.8790  177.2200  140.5080 C   0  0  0  0  0  0  0  0  0  0  0  0
  188.8190  178.0190  144.0520 N   0  0  0  0  0  0  0  0  0  0  0  0
  190.2990  176.5790  138.2720 C   0  0  0  0  0  0  0  0  0  0  0  0
  188.7300  177.6210  139.8460 C   0  0  0  0  0  0  0  0  0  0  0  0
  190.5370  177.4880  145.7360 C   0  0  0  0  0  2  0  0  0  0  0  0
  189.9630  177.3270  141.9080 C   0  0  0  0  0  0  0  0  0  0  0  0
  191.6510  174.7000  143.6320 N   0  0  0  0  0  2  0  0  0  0  0  0
  187.6740  178.1270  140.5260 N   0  0  0  0  0  0  0  0  0  0  0  0
  192.1040  175.5080  145.8710 C   0  0  0  0  0  2  0  0  0  0  0  0
  191.5580  176.6350  145.0030 C   0  0  1  0  0  3  0  0  0  0  0  0
  190.9650  175.9700  143.7630 C   0  0  1  0  0  3  0  0  0  0  0  0
  185.1860  177.6760  146.0280 N   0  0  0  0  0  2  0  0  0  0  0  0
  187.5440  177.7910  144.7400 C   0  0  0  0  0  3  0  0  0  0  0  0
  187.6400  178.1220  146.2310 C   0  0  0  0  0  2  0  0  0  0  0  0
  186.2870  177.9790  146.9480 C   0  0  0  0  0  2  0  0  0  0  0  0
  185.1740  178.6840  144.9710 C   0  0  0  0  0  2  0  0  0  0  0  0
  186.3840  178.5190  144.0470 C   0  0  0  0  0  2  0  0  0  0  0  0
  1 15  1  0  0  0  0
  2 12  1  0  0  0  0
  4 13  1  0  0  0  0
  4 14  1  0  0  0  0
  5 13  2  0  0  0  0
  6  2  2  0  0  0  0
  7  9  1  6  0  0  0
  7 11  1  0  0  0  0
 10  8  2  0  0  0  0
 10 19  1  0  0  0  0
 11 16  2  0  0  0  0
 12 23  1  0  0  0  0
 12  1  1  0  0  0  0
 13  7  1  0  0  0  0
 14 11  1  0  0  0  0
 14 18  2  0  0  0  0
 16  3  1  0  0  0  0
 16  2  1  0  0  0  0
 17 21  1  0  0  0  0
 17 10  1  0  0  0  0
 18  6  1  0  0  0  0
 20 15  1  1  0  0  0
 20 19  1  0  0  0  0
 21  3  1  6  0  0  0
 21 20  1  0  0  0  0
 22 25  1  0  0  0  0
 23 24  1  0  0  0  0
 24 25  1  0  0  0  0
 26 22  1  0  0  0  0
 27 23  1  0  0  0  0
 27 26  1  0  0  0  0
M  END
>  <MODEL>
8

>  <REMARK>
 VINA RESULT:      -6.5      2.754      5.341
  Name = 
  1 active torsions:
  status: ('A' for Active; 'I' for Inactive)
    1  A    between atoms: C_9  and  N_15
                            x       y       z     vdW  Elec       q    Type
                         _______ _______ _______ _____ _____    ______ ____

>  <TORSDO>
F 1

$$$$
=
 OpenBabel11052413443D

 27 31  0  0  1  0  0  0  0  0999 V2000
  188.8710  176.5250  140.7240 C   0  0  0  0  0  2  0  0  0  0  0  0
  186.9140  177.8860  141.5960 C   0  0  0  0  0  0  0  0  0  0  0  0
  188.4890  177.5000  143.6070 C   0  0  0  0  0  2  0  0  0  0  0  0
  183.5770  178.8230  144.5650 S   0  0  0  0  0  0  0  0  0  0  0  0
  184.6600  179.0040  146.9680 O   0  0  0  0  0  0  0  0  0  0  0  0
  185.6240  178.2390  141.1530 C   0  0  0  0  0  3  0  0  0  0  0  0
  186.1800  178.1400  145.3640 C   0  0  1  0  0  3  0  0  0  0  0  0
  192.6760  179.3580  144.3440 O   0  0  0  0  0  0  0  0  0  0  0  0
  186.3630  176.7890  145.8700 N   0  0  0  0  0  1  0  0  0  0  0  0
  191.7560  178.7930  143.6960 C   0  0  0  0  0  0  0  0  0  0  0  0
  186.0900  178.1200  143.8740 C   0  0  0  0  0  0  0  0  0  0  0  0
  187.9390  177.6490  140.6050 N   0  0  0  0  0  0  0  0  0  0  0  0
  184.8550  178.6640  145.8140 C   0  0  0  0  0  0  0  0  0  0  0  0
  184.8440  178.4520  143.3680 C   0  0  0  0  0  0  0  0  0  0  0  0
  190.3050  177.0250  140.8940 C   0  0  0  0  0  2  0  0  0  0  0  0
  187.1580  177.8460  143.0000 C   0  0  0  0  0  0  0  0  0  0  0  0
  190.3870  179.0030  143.9800 N   0  0  0  0  0  2  0  0  0  0  0  0
  184.6260  178.5130  142.0330 N   0  0  0  0  0  0  0  0  0  0  0  0
  191.9970  177.8580  142.5770 C   0  0  0  0  0  2  0  0  0  0  0  0
  190.6040  177.2800  142.3610 C   0  0  1  0  0  3  0  0  0  0  0  0
  189.6280  178.2780  142.9800 C   0  0  1  0  0  3  0  0  0  0  0  0
  187.9390  179.6430  136.9660 N   0  0  0  0  0  2  0  0  0  0  0  0
  187.9130  178.4440  139.3730 C   0  0  0  0  0  3  0  0  0  0  0  0
  189.3170  178.6270  138.7910 C   0  0  0  0  0  2  0  0  0  0  0  0
  189.2970  179.3780  137.4480 C   0  0  0  0  0  2  0  0  0  0  0  0
  187.2030  178.3820  136.9310 C   0  0  0  0  0  2  0  0  0  0  0  0
  186.9200  177.8780  138.3500 C   0  0  0  0  0  2  0  0  0  0  0  0
  1 15  1  0  0  0  0
  2 16  1  0  0  0  0
  4 13  1  0  0  0  0
  6  2  2  0  0  0  0
  6 18  1  0  0  0  0
  7 13  1  0  0  0  0
  7  9  1  1  0  0  0
 10 17  1  0  0  0  0
 10  8  2  0  0  0  0
 11  7  1  0  0  0  0
 12  1  1  0  0  0  0
 12  2  1  0  0  0  0
 13  5  2  0  0  0  0
 14 11  1  0  0  0  0
 14  4  1  0  0  0  0
 16  3  1  0  0  0  0
 16 11  2  0  0  0  0
 18 14  2  0  0  0  0
 19 10  1  0  0  0  0
 20 15  1  6  0  0  0
 20 19  1  0  0  0  0
 20 21  1  0  0  0  0
 21  3  1  1  0  0  0
 21 17  1  0  0  0  0
 22 25  1  0  0  0  0
 23 12  1  0  0  0  0
 24 23  1  0  0  0  0
 25 24  1  0  0  0  0
 26 22  1  0  0  0  0
 26 27  1  0  0  0  0
 27 23  1  0  0  0  0
M  END
>  <MODEL>
9

>  <REMARK>
 VINA RESULT:      -6.3      2.748      5.620
  Name = 
  1 active torsions:
  status: ('A' for Active; 'I' for Inactive)
    1  A    between atoms: C_9  and  N_15
                            x       y       z     vdW  Elec       q    Type
                         _______ _______ _______ _____ _____    ______ ____

>  <TORSDO>
F 1

$$$$
