=
 OpenBabel11052415053D

 55 60  0  0  1  0  0  0  0  0999 V2000
  184.1060  178.2260  136.1000 C   0  0  0  0  0  2  0  0  0  0  0  0
  186.9370  179.1190  140.7570 O   0  0  0  0  0  0  0  0  0  0  0  0
  184.7390  178.0220  142.2950 C   0  0  0  0  0  1  0  0  0  0  0  0
  183.4800  178.1380  140.2760 O   0  0  0  0  0  0  0  0  0  0  0  0
  185.8710  177.1260  134.7090 C   0  0  0  0  0  3  0  0  0  0  0  0
  187.2110  176.2540  137.0060 C   0  0  0  0  0  0  0  0  0  0  0  0
  183.1180  177.4670  136.7440 O   0  0  0  0  0  0  0  0  0  0  0  0
  186.0320  176.9960  137.1190 C   0  0  0  0  0  3  0  0  0  0  0  0
  187.7090  178.7430  139.6540 C   0  0  0  0  0  2  0  0  0  0  0  0
  185.6270  179.2210  140.2770 C   0  0  0  0  0  2  0  0  0  0  0  0
  184.7870  178.0380  140.7690 C   0  0  1  0  0  3  0  0  0  0  0  0
  187.0560  176.3880  134.5940 C   0  0  0  0  0  3  0  0  0  0  0  0
  188.2710  177.3340  139.8520 C   0  0  1  0  0  3  0  0  0  0  0  0
  185.3560  177.4260  135.9720 C   0  0  0  0  0  0  0  0  0  0  0  0
  183.4310  177.3070  139.1480 C   0  0  2  0  0  3  0  0  0  0  0  0
  182.8950  178.1270  137.9620 C   0  0  2  0  0  3  0  0  0  0  0  0
  188.7950  176.8690  138.6390 O   0  0  0  0  0  0  0  0  0  0  0  0
  187.9390  175.8380  138.2380 C   0  0  0  0  0  2  0  0  0  0  0  0
  187.7260  175.9520  135.7440 C   0  0  0  0  0  3  0  0  0  0  0  0
  183.1760  174.8120  138.6650 C   0  0  0  0  0  2  0  0  0  0  0  0
  182.7390  174.8420  137.1970 C   0  0  0  0  0  2  0  0  0  0  0  0
  181.1080  176.2510  139.1480 C   0  0  2  0  0  3  0  0  0  0  0  0
  180.4640  175.1130  138.3490 C   0  0  0  0  0  2  0  0  0  0  0  0
  181.2150  174.8770  137.0340 C   0  0  0  0  0  2  0  0  0  0  0  0
  182.6130  176.0260  139.4330 C   0  0  2  0  0  3  0  0  0  0  0  0
  180.4250  176.4100  140.3550 O   0  0  0  0  0  1  0  0  0  0  0  0
  190.1700  178.3400  140.8560 O   0  0  0  0  0  1  0  0  0  0  0  0
  189.3260  177.2330  140.9700 C   0  0  2  0  0  0  0  0  0  0  0  0
  190.0860  176.0900  140.7920 F   0  0  0  0  0  0  0  0  0  0  0  0
  188.6600  177.2080  142.3690 C   0  0  1  0  0  3  0  0  0  0  0  0
  187.8930  176.0500  142.5180 O   0  0  0  0  0  1  0  0  0  0  0  0
  189.5990  177.4090  143.5860 C   0  0  2  0  0  0  0  0  0  0  0  0
  190.3300  178.5900  143.4100 O   0  0  0  0  0  1  0  0  0  0  0  0
  191.8620  176.6280  143.2950 F   0  0  0  0  0  0  0  0  0  0  0  0
  190.5910  176.2460  143.6990 C   0  0  0  0  0  2  0  0  0  0  0  0
  188.7940  177.5290  144.9060 C   0  0  2  0  0  3  0  0  0  0  0  0
  187.3240  177.9590  144.6980 C   0  0  2  0  0  3  0  0  0  0  0  0
  186.7670  178.3830  145.9180 O   0  0  0  0  0  0  0  0  0  0  0  0
  186.3330  177.1370  145.4340 C   0  0  0  0  0  2  0  0  0  0  0  0
  189.4670  178.3270  145.8450 O   0  0  0  0  0  0  0  0  0  0  0  0
  191.3730  177.4860  146.7900 O   0  0  0  0  0  1  0  0  0  0  0  0
  189.9740  177.4290  146.7990 C   0  0  1  0  0  3  0  0  0  0  0  0
  188.2560  177.4590  148.4770 O   0  0  0  0  0  0  0  0  0  0  0  0
  189.4350  177.7700  148.1550 C   0  0  0  0  0  0  0  0  0  0  0  0
  190.2570  178.4010  149.0740 O   0  0  0  0  0  1  0  0  0  0  0  0
  181.4170  178.4790  138.1250 C   0  0  0  0  0  2  0  0  0  0  0  0
  180.3910  179.6820  136.1810 C   0  0  0  0  0  2  0  0  0  0  0  0
  180.8060  182.1310  136.0560 C   0  0  0  0  0  0  0  0  0  0  0  0
  181.2990  180.9710  138.1440 C   0  0  0  0  0  3  0  0  0  0  0  0
  181.1510  182.1250  137.4930 C   0  0  0  0  0  3  0  0  0  0  0  0
  180.4710  180.9900  135.4390 C   0  0  0  0  0  3  0  0  0  0  0  0
  181.1090  179.7280  137.4500 N   0  0  0  0  0  0  0  0  0  0  0  0
  180.7910  183.4340  135.2980 C   0  0  0  0  0  3  0  0  0  0  0  0
  179.6440  184.3190  135.7880 C   0  0  0  0  0  2  0  0  0  0  0  0
  181.0600  184.6050  136.2320 C   0  0  0  0  0  2  0  0  0  0  0  0
  1  7  1  0  0  0  0
  4 11  1  0  0  0  0
  5 14  1  0  0  0  0
  6  8  1  0  0  0  0
  6 18  1  0  0  0  0
  7 16  1  0  0  0  0
  9 13  1  0  0  0  0
  9  2  1  0  0  0  0
 10  2  1  0  0  0  0
 10 11  1  0  0  0  0
 11  3  1  1  0  0  0
 12  5  2  0  0  0  0
 12 19  1  0  0  0  0
 13 28  1  1  0  0  0
 14  1  1  0  0  0  0
 14  8  2  0  0  0  0
 15 25  1  0  0  0  0
 15  4  1  1  0  0  0
 16 46  1  1  0  0  0
 16 15  1  0  0  0  0
 17 13  1  0  0  0  0
 18 17  1  0  0  0  0
 19  6  2  0  0  0  0
 21 20  1  0  0  0  0
 22 25  1  0  0  0  0
 22 26  1  1  0  0  0
 23 22  1  0  0  0  0
 24 21  1  0  0  0  0
 24 23  1  0  0  0  0
 25 20  1  6  0  0  0
 27 28  1  0  0  0  0
 28 29  1  6  0  0  0
 28 30  1  0  0  0  0
 30 31  1  1  0  0  0
 30 32  1  0  0  0  0
 32 33  1  6  0  0  0
 32 35  1  0  0  0  0
 32 36  1  0  0  0  0
 34 35  1  0  0  0  0
 36 40  1  1  0  0  0
 37 36  1  1  0  0  0
 37 39  1  0  0  0  0
 37 38  1  0  0  0  0
 39 38  1  0  0  0  0
 40 42  1  0  0  0  0
 42 41  1  1  0  0  0
 42 44  1  0  0  0  0
 44 43  2  0  0  0  0
 44 45  1  0  0  0  0
 47 52  1  0  0  0  0
 48 50  1  0  0  0  0
 50 49  2  0  0  0  0
 51 48  2  0  0  0  0
 51 47  1  0  0  0  0
 52 46  1  0  0  0  0
 52 49  1  0  0  0  0
 53 54  1  0  0  0  0
 53 48  1  0  0  0  0
 53 55  1  0  0  0  0
 54 55  1  0  0  0  0
M  END
>  <MODEL>
1

>  <REMARK>
 VINA RESULT:      -5.8      0.000      0.000
  Name = 
  13 active torsions:
  status: ('A' for Active; 'I' for Inactive)
    1  A    between atoms: C_1  and  C_53
    2  A    between atoms: C_6  and  C_14
    3  A    between atoms: C_6  and  C_20
    4  A    between atoms: C_6  and  C_53
    5  A    between atoms: C_8  and  C_20
    6  A    between atoms: C_8  and  C_43
    7  A    between atoms: C_10  and  C_32
    8  A    between atoms: C_11  and  C_29
    9  A    between atoms: C_11  and  O_38
   10  A    between atoms: C_26  and  C_45
   11  A    between atoms: C_33  and  C_49
   12  A    between atoms: C_33  and  N_52
   13  A    between atoms: O_38  and  C_53
                            x       y       z     vdW  Elec       q    Type
                         _______ _______ _______ _____ _____    ______ ____

>  <TORSDO>
F 13

$$$$
=
 OpenBabel11052415053D

 55 60  0  0  1  0  0  0  0  0999 V2000
  186.3630  176.9420  134.9080 C   0  0  0  0  0  2  0  0  0  0  0  0
  184.7630  178.8940  139.8190 O   0  0  0  0  0  0  0  0  0  0  0  0
  182.8700  176.7120  140.0620 C   0  0  0  0  0  1  0  0  0  0  0  0
  183.3250  176.2760  137.7640 O   0  0  0  0  0  0  0  0  0  0  0  0
  188.8490  177.0230  135.1840 C   0  0  0  0  0  3  0  0  0  0  0  0
  188.5970  176.8420  137.9660 C   0  0  0  0  0  0  0  0  0  0  0  0
  185.6590  175.7380  135.0600 O   0  0  0  0  0  0  0  0  0  0  0  0
  187.4580  176.8450  137.1550 C   0  0  0  0  0  3  0  0  0  0  0  0
  186.1210  179.0500  139.5310 C   0  0  0  0  0  2  0  0  0  0  0  0
  184.2020  178.3230  138.6710 C   0  0  0  0  0  2  0  0  0  0  0  0
  183.8740  176.8470  138.9200 C   0  0  1  0  0  3  0  0  0  0  0  0
  189.9910  177.0260  135.9940 C   0  0  0  0  0  3  0  0  0  0  0  0
  186.9640  178.1370  140.4240 C   0  0  1  0  0  3  0  0  0  0  0  0
  187.5820  176.9270  135.7650 C   0  0  0  0  0  0  0  0  0  0  0  0
  184.3820  175.6160  137.1220 C   0  0  2  0  0  3  0  0  0  0  0  0
  184.4470  176.1040  135.6660 C   0  0  2  0  0  3  0  0  0  0  0  0
  188.2760  178.0930  139.9370 O   0  0  0  0  0  0  0  0  0  0  0  0
  188.4460  176.7940  139.4470 C   0  0  0  0  0  2  0  0  0  0  0  0
  189.8640  176.9360  137.3870 C   0  0  0  0  0  3  0  0  0  0  0  0
  185.5960  173.4170  137.5870 C   0  0  0  0  0  2  0  0  0  0  0  0
  186.4700  173.2960  136.3340 C   0  0  0  0  0  2  0  0  0  0  0  0
  183.5880  173.4710  135.9910 C   0  0  2  0  0  3  0  0  0  0  0  0
  184.3070  172.2180  135.4780 C   0  0  0  0  0  2  0  0  0  0  0  0
  185.7870  172.5100  135.2100 C   0  0  0  0  0  2  0  0  0  0  0  0
  184.2440  174.0810  137.2530 C   0  0  2  0  0  3  0  0  0  0  0  0
  182.2560  173.1590  136.2630 O   0  0  0  0  0  1  0  0  0  0  0  0
  185.8560  177.9100  142.5090 O   0  0  0  0  0  1  0  0  0  0  0  0
  186.9530  178.5360  141.9120 C   0  0  2  0  0  0  0  0  0  0  0  0
  186.7840  179.9050  142.0270 F   0  0  0  0  0  0  0  0  0  0  0  0
  188.2650  178.1090  142.6160 C   0  0  1  0  0  3  0  0  0  0  0  0
  189.0990  179.2150  142.7970 O   0  0  0  0  0  1  0  0  0  0  0  0
  188.1130  177.3100  143.9370 C   0  0  2  0  0  0  0  0  0  0  0  0
  187.5300  176.0680  143.6570 O   0  0  0  0  0  1  0  0  0  0  0  0
  186.3510  177.1810  145.5800 F   0  0  0  0  0  0  0  0  0  0  0  0
  187.1980  178.0560  144.9150 C   0  0  0  0  0  2  0  0  0  0  0  0
  189.4880  177.0600  144.6070 C   0  0  2  0  0  3  0  0  0  0  0  0
  190.5330  176.4260  143.6600 C   0  0  2  0  0  3  0  0  0  0  0  0
  191.7680  176.2970  144.3200 O   0  0  0  0  0  0  0  0  0  0  0  0
  191.6860  177.3030  143.3420 C   0  0  0  0  0  2  0  0  0  0  0  0
  189.3500  176.3560  145.8130 O   0  0  0  0  0  0  0  0  0  0  0  0
  188.9660  177.4750  147.7720 O   0  0  0  0  0  1  0  0  0  0  0  0
  189.9250  177.1810  146.7940 C   0  0  1  0  0  3  0  0  0  0  0  0
  192.0840  177.1700  147.8450 O   0  0  0  0  0  1  0  0  0  0  0  0
  191.1130  176.4990  147.4000 C   0  0  0  0  0  0  0  0  0  0  0  0
  191.1240  175.1170  147.5040 O   0  0  0  0  0  0  0  0  0  0  0  0
  183.2590  175.6170  134.8390 C   0  0  0  0  0  2  0  0  0  0  0  0
  182.3410  177.9360  134.5960 C   0  0  0  0  0  2  0  0  0  0  0  0
  180.0460  178.3110  135.4780 C   0  0  0  0  0  0  0  0  0  0  0  0
  180.8210  176.0170  135.1870 C   0  0  0  0  0  3  0  0  0  0  0  0
  179.8120  176.8520  135.4310 C   0  0  0  0  0  3  0  0  0  0  0  0
  181.2310  178.8140  135.1080 C   0  0  0  0  0  3  0  0  0  0  0  0
  182.1400  176.5360  134.9550 N   0  0  0  0  0  0  0  0  0  0  0  0
  178.9310  179.2320  135.9040 C   0  0  0  0  0  3  0  0  0  0  0  0
  178.9480  179.4170  137.4210 C   0  0  0  0  0  2  0  0  0  0  0  0
  179.4900  180.5040  136.5240 C   0  0  0  0  0  2  0  0  0  0  0  0
  1  7  1  0  0  0  0
  1 14  1  0  0  0  0
  4 11  1  0  0  0  0
  5 14  2  0  0  0  0
  5 12  1  0  0  0  0
  6 18  1  0  0  0  0
  7 16  1  0  0  0  0
  8  6  2  0  0  0  0
  9  2  1  0  0  0  0
  9 13  1  0  0  0  0
 10 11  1  0  0  0  0
 10  2  1  0  0  0  0
 11  3  1  1  0  0  0
 12 19  2  0  0  0  0
 13 28  1  1  0  0  0
 14  8  1  0  0  0  0
 15 25  1  0  0  0  0
 15  4  1  6  0  0  0
 16 46  1  6  0  0  0
 16 15  1  0  0  0  0
 17 13  1  0  0  0  0
 18 17  1  0  0  0  0
 19  6  1  0  0  0  0
 21 20  1  0  0  0  0
 22 26  1  1  0  0  0
 22 25  1  0  0  0  0
 23 22  1  0  0  0  0
 24 23  1  0  0  0  0
 24 21  1  0  0  0  0
 25 20  1  6  0  0  0
 28 29  1  1  0  0  0
 28 27  1  0  0  0  0
 28 30  1  0  0  0  0
 30 31  1  1  0  0  0
 30 32  1  0  0  0  0
 32 33  1  6  0  0  0
 32 36  1  0  0  0  0
 32 35  1  0  0  0  0
 35 34  1  0  0  0  0
 36 40  1  1  0  0  0
 37 38  1  0  0  0  0
 37 36  1  1  0  0  0
 39 37  1  0  0  0  0
 39 38  1  0  0  0  0
 40 42  1  0  0  0  0
 42 44  1  0  0  0  0
 42 41  1  1  0  0  0
 44 45  2  0  0  0  0
 44 43  1  0  0  0  0
 46 52  1  0  0  0  0
 47 52  1  0  0  0  0
 47 51  1  0  0  0  0
 48 53  1  0  0  0  0
 49 50  2  0  0  0  0
 50 48  1  0  0  0  0
 51 48  2  0  0  0  0
 52 49  1  0  0  0  0
 53 55  1  0  0  0  0
 53 54  1  0  0  0  0
 55 54  1  0  0  0  0
M  END
>  <MODEL>
2

>  <REMARK>
 VINA RESULT:      -5.5      2.275      3.688
  Name = 
  13 active torsions:
  status: ('A' for Active; 'I' for Inactive)
    1  A    between atoms: C_1  and  C_53
    2  A    between atoms: C_6  and  C_14
    3  A    between atoms: C_6  and  C_20
    4  A    between atoms: C_6  and  C_53
    5  A    between atoms: C_8  and  C_20
    6  A    between atoms: C_8  and  C_43
    7  A    between atoms: C_10  and  C_32
    8  A    between atoms: C_11  and  C_29
    9  A    between atoms: C_11  and  O_38
   10  A    between atoms: C_26  and  C_45
   11  A    between atoms: C_33  and  C_49
   12  A    between atoms: C_33  and  N_52
   13  A    between atoms: O_38  and  C_53
                            x       y       z     vdW  Elec       q    Type
                         _______ _______ _______ _____ _____    ______ ____

>  <TORSDO>
F 13

$$$$
=
 OpenBabel11052415053D

 55 60  0  0  1  0  0  0  0  0999 V2000
  181.7820  177.0230  140.9440 C   0  0  0  0  0  2  0  0  0  0  0  0
  184.8770  176.1990  136.4460 O   0  0  0  0  0  0  0  0  0  0  0  0
  182.7450  177.2590  134.7930 C   0  0  0  0  0  1  0  0  0  0  0  0
  181.3810  177.1120  136.7410 O   0  0  0  0  0  0  0  0  0  0  0  0
  183.4480  178.1520  142.4310 C   0  0  0  0  0  3  0  0  0  0  0  0
  184.8920  179.0570  140.2120 C   0  0  0  0  0  0  0  0  0  0  0  0
  180.8150  177.7650  140.2500 O   0  0  0  0  0  0  0  0  0  0  0  0
  183.7360  178.2930  140.0340 C   0  0  0  0  0  3  0  0  0  0  0  0
  185.5800  176.5860  137.5890 C   0  0  0  0  0  2  0  0  0  0  0  0
  183.5440  176.0700  136.8540 C   0  0  0  0  0  2  0  0  0  0  0  0
  182.7100  177.2390  136.3190 C   0  0  1  0  0  3  0  0  0  0  0  0
  184.6100  178.9120  142.6120 C   0  0  0  0  0  3  0  0  0  0  0  0
  186.1250  178.0050  137.4260 C   0  0  1  0  0  3  0  0  0  0  0  0
  183.0080  177.8460  141.1420 C   0  0  0  0  0  0  0  0  0  0  0  0
  181.2550  177.9380  137.8670 C   0  0  2  0  0  3  0  0  0  0  0  0
  180.6710  177.1050  139.0200 C   0  0  2  0  0  3  0  0  0  0  0  0
  186.5740  178.4770  138.6650 O   0  0  0  0  0  0  0  0  0  0  0  0
  185.6780  179.4900  139.0220 C   0  0  0  0  0  2  0  0  0  0  0  0
  185.3320  179.3640  141.5000 C   0  0  0  0  0  3  0  0  0  0  0  0
  179.2900  178.8980  136.5460 C   0  0  0  0  0  2  0  0  0  0  0  0
  179.8260  178.8010  135.1140 C   0  0  0  0  0  2  0  0  0  0  0  0
  181.3420  180.3540  137.0490 C   0  0  2  0  0  3  0  0  0  0  0  0
  180.8020  181.0690  135.8050 C   0  0  0  0  0  2  0  0  0  0  0  0
  180.5550  180.0730  134.6670 C   0  0  0  0  0  2  0  0  0  0  0  0
  180.4290  179.2050  137.5410 C   0  0  2  0  0  3  0  0  0  0  0  0
  181.5160  181.2830  138.0750 O   0  0  0  0  0  1  0  0  0  0  0  0
  188.0340  179.2210  136.7170 O   0  0  0  0  0  1  0  0  0  0  0  0
  187.2370  178.1300  136.3660 C   0  0  2  0  0  0  0  0  0  0  0  0
  186.6730  178.3860  135.1270 F   0  0  0  0  0  0  0  0  0  0  0  0
  188.0920  176.8400  136.2960 C   0  0  1  0  0  3  0  0  0  0  0  0
  188.5700  176.6460  134.9980 O   0  0  0  0  0  1  0  0  0  0  0  0
  189.2390  176.7140  137.3320 C   0  0  2  0  0  0  0  0  0  0  0  0
  188.7490  176.0870  138.4840 O   0  0  0  0  0  1  0  0  0  0  0  0
  190.1650  178.1250  139.0550 F   0  0  0  0  0  0  0  0  0  0  0  0
  189.7620  178.0990  137.7270 C   0  0  0  0  0  2  0  0  0  0  0  0
  190.4090  175.8610  136.7770 C   0  0  2  0  0  3  0  0  0  0  0  0
  190.4380  174.4160  137.3270 C   0  0  2  0  0  3  0  0  0  0  0  0
  190.7970  173.5180  136.3060 O   0  0  0  0  0  0  0  0  0  0  0  0
  189.4500  173.5020  136.7050 C   0  0  0  0  0  2  0  0  0  0  0  0
  191.6390  176.5230  136.9220 O   0  0  0  0  0  0  0  0  0  0  0  0
  192.4660  176.1390  134.8240 O   0  0  0  0  0  1  0  0  0  0  0  0
  192.5570  175.7700  136.1720 C   0  0  1  0  0  3  0  0  0  0  0  0
  194.2920  175.5330  137.8140 O   0  0  0  0  0  1  0  0  0  0  0  0
  193.9440  175.9930  136.6930 C   0  0  0  0  0  0  0  0  0  0  0  0
  194.8600  176.6820  135.9150 O   0  0  0  0  0  0  0  0  0  0  0  0
  179.2110  176.7250  138.7770 C   0  0  0  0  0  2  0  0  0  0  0  0
  178.9420  174.2890  139.2960 C   0  0  0  0  0  2  0  0  0  0  0  0
  179.2110  172.7180  137.3850 C   0  0  0  0  0  0  0  0  0  0  0  0
  178.9310  175.0940  136.9090 C   0  0  0  0  0  3  0  0  0  0  0  0
  178.9720  173.8410  136.4550 C   0  0  0  0  0  3  0  0  0  0  0  0
  179.2170  172.9300  138.7090 C   0  0  0  0  0  3  0  0  0  0  0  0
  179.1080  175.3530  138.3110 N   0  0  0  0  0  0  0  0  0  0  0  0
  179.4060  171.3260  136.8400 C   0  0  0  0  0  3  0  0  0  0  0  0
  179.3500  171.3440  135.3120 C   0  0  0  0  0  2  0  0  0  0  0  0
  180.6830  171.2430  136.0170 C   0  0  0  0  0  2  0  0  0  0  0  0
  1 14  1  0  0  0  0
  2 10  1  0  0  0  0
  2  9  1  0  0  0  0
  5 12  1  0  0  0  0
  6 19  1  0  0  0  0
  7  1  1  0  0  0  0
  8  6  2  0  0  0  0
  8 14  1  0  0  0  0
 11  3  1  6  0  0  0
 11  4  1  0  0  0  0
 11 10  1  0  0  0  0
 13 28  1  6  0  0  0
 13  9  1  0  0  0  0
 13 17  1  0  0  0  0
 14  5  2  0  0  0  0
 15  4  1  6  0  0  0
 15 16  1  0  0  0  0
 16 46  1  6  0  0  0
 16  7  1  0  0  0  0
 17 18  1  0  0  0  0
 18  6  1  0  0  0  0
 19 12  2  0  0  0  0
 21 20  1  0  0  0  0
 22 25  1  0  0  0  0
 22 26  1  1  0  0  0
 23 22  1  0  0  0  0
 24 21  1  0  0  0  0
 24 23  1  0  0  0  0
 25 20  1  6  0  0  0
 25 15  1  0  0  0  0
 28 29  1  6  0  0  0
 28 27  1  0  0  0  0
 30 31  1  6  0  0  0
 30 28  1  0  0  0  0
 30 32  1  0  0  0  0
 32 35  1  0  0  0  0
 32 33  1  1  0  0  0
 35 34  1  0  0  0  0
 36 40  1  1  0  0  0
 36 32  1  0  0  0  0
 37 36  1  6  0  0  0
 38 39  1  0  0  0  0
 38 37  1  0  0  0  0
 39 37  1  0  0  0  0
 42 41  1  6  0  0  0
 42 44  1  0  0  0  0
 42 40  1  0  0  0  0
 44 43  1  0  0  0  0
 45 44  2  0  0  0  0
 48 51  2  0  0  0  0
 49 52  1  0  0  0  0
 50 49  2  0  0  0  0
 50 48  1  0  0  0  0
 51 47  1  0  0  0  0
 52 46  1  0  0  0  0
 52 47  1  0  0  0  0
 53 48  1  0  0  0  0
 54 55  1  0  0  0  0
 54 53  1  0  0  0  0
 55 53  1  0  0  0  0
M  END
>  <MODEL>
3

>  <REMARK>
 VINA RESULT:      -4.9      4.039      7.599
  Name = 
  13 active torsions:
  status: ('A' for Active; 'I' for Inactive)
    1  A    between atoms: C_1  and  C_53
    2  A    between atoms: C_6  and  C_14
    3  A    between atoms: C_6  and  C_20
    4  A    between atoms: C_6  and  C_53
    5  A    between atoms: C_8  and  C_20
    6  A    between atoms: C_8  and  C_43
    7  A    between atoms: C_10  and  C_32
    8  A    between atoms: C_11  and  C_29
    9  A    between atoms: C_11  and  O_38
   10  A    between atoms: C_26  and  C_45
   11  A    between atoms: C_33  and  C_49
   12  A    between atoms: C_33  and  N_52
   13  A    between atoms: O_38  and  C_53
                            x       y       z     vdW  Elec       q    Type
                         _______ _______ _______ _____ _____    ______ ____

>  <TORSDO>
F 13

$$$$
=
 OpenBabel11052415053D

 55 60  0  0  1  0  0  0  0  0999 V2000
  181.7550  176.8640  140.7040 C   0  0  0  0  0  2  0  0  0  0  0  0
  184.9340  176.3840  136.2130 O   0  0  0  0  0  0  0  0  0  0  0  0
  182.8130  177.5240  134.5990 C   0  0  0  0  0  1  0  0  0  0  0  0
  181.4210  177.2290  136.5090 O   0  0  0  0  0  0  0  0  0  0  0  0
  183.3810  177.9120  142.2910 C   0  0  0  0  0  3  0  0  0  0  0  0
  184.8480  178.9830  140.1610 C   0  0  0  0  0  0  0  0  0  0  0  0
  180.7890  177.6380  140.0440 O   0  0  0  0  0  0  0  0  0  0  0  0
  183.7050  178.2170  139.9140 C   0  0  0  0  0  3  0  0  0  0  0  0
  185.6130  176.7030  137.3920 C   0  0  0  0  0  2  0  0  0  0  0  0
  183.5970  176.2100  136.5890 C   0  0  0  0  0  2  0  0  0  0  0  0
  182.7550  177.4020  136.1200 C   0  0  1  0  0  3  0  0  0  0  0  0
  184.5290  178.6740  142.5420 C   0  0  0  0  0  3  0  0  0  0  0  0
  186.1400  178.1370  137.3330 C   0  0  1  0  0  3  0  0  0  0  0  0
  182.9660  177.6880  140.9760 C   0  0  0  0  0  0  0  0  0  0  0  0
  181.2650  177.9760  137.6850 C   0  0  2  0  0  3  0  0  0  0  0  0
  180.6740  177.0590  138.7700 C   0  0  2  0  0  3  0  0  0  0  0  0
  186.5620  178.5310  138.6090 O   0  0  0  0  0  0  0  0  0  0  0  0
  185.6460  179.5060  139.0170 C   0  0  0  0  0  2  0  0  0  0  0  0
  185.2620  179.2090  141.4750 C   0  0  0  0  0  3  0  0  0  0  0  0
  179.2690  178.9800  136.4470 C   0  0  0  0  0  2  0  0  0  0  0  0
  179.7770  178.9480  135.0010 C   0  0  0  0  0  2  0  0  0  0  0  0
  181.3230  180.4250  136.9710 C   0  0  2  0  0  3  0  0  0  0  0  0
  180.7550  181.1910  135.7710 C   0  0  0  0  0  2  0  0  0  0  0  0
  180.4910  180.2430  134.5960 C   0  0  0  0  0  2  0  0  0  0  0  0
  180.4260  179.2510  137.4310 C   0  0  2  0  0  3  0  0  0  0  0  0
  181.5120  181.3100  138.0340 O   0  0  0  0  0  1  0  0  0  0  0  0
  188.1190  179.3330  136.8040 O   0  0  0  0  0  1  0  0  0  0  0  0
  187.2670  178.3480  136.3020 C   0  0  2  0  0  0  0  0  0  0  0  0
  186.7290  178.8060  135.1110 F   0  0  0  0  0  0  0  0  0  0  0  0
  188.0500  177.0350  136.0530 C   0  0  1  0  0  3  0  0  0  0  0  0
  188.6320  177.0520  134.7830 O   0  0  0  0  0  1  0  0  0  0  0  0
  189.0910  176.6350  137.1320 C   0  0  2  0  0  0  0  0  0  0  0  0
  188.4170  176.1930  138.2770 O   0  0  0  0  0  1  0  0  0  0  0  0
  190.2220  177.8490  138.8830 F   0  0  0  0  0  0  0  0  0  0  0  0
  189.9530  177.8410  137.5210 C   0  0  0  0  0  2  0  0  0  0  0  0
  190.0060  175.4870  136.6350 C   0  0  2  0  0  3  0  0  0  0  0  0
  191.4550  175.9370  136.3320 C   0  0  2  0  0  3  0  0  0  0  0  0
  192.0640  175.0350  135.4420 O   0  0  0  0  0  0  0  0  0  0  0  0
  192.5000  174.9830  136.7770 C   0  0  0  0  0  2  0  0  0  0  0  0
  189.4190  174.7900  135.5670 O   0  0  0  0  0  0  0  0  0  0  0  0
  189.6400  173.3800  137.3550 O   0  0  0  0  0  1  0  0  0  0  0  0
  189.0460  173.5440  136.0980 C   0  0  1  0  0  3  0  0  0  0  0  0
  186.9880  173.3620  137.3220 O   0  0  0  0  0  1  0  0  0  0  0  0
  187.5540  173.4600  136.1990 C   0  0  0  0  0  0  0  0  0  0  0  0
  186.7890  173.5290  135.0460 O   0  0  0  0  0  0  0  0  0  0  0  0
  179.2240  176.6780  138.4770 C   0  0  0  0  0  2  0  0  0  0  0  0
  179.0820  174.1780  138.5820 C   0  0  0  0  0  2  0  0  0  0  0  0
  179.3320  172.9690  136.4220 C   0  0  0  0  0  0  0  0  0  0  0  0
  178.9310  175.3740  136.3700 C   0  0  0  0  0  3  0  0  0  0  0  0
  179.0040  174.2200  135.7070 C   0  0  0  0  0  3  0  0  0  0  0  0
  179.3880  172.9540  137.7610 C   0  0  0  0  0  3  0  0  0  0  0  0
  179.1580  175.4000  137.7880 N   0  0  0  0  0  0  0  0  0  0  0  0
  179.5600  171.7010  135.6390 C   0  0  0  0  0  3  0  0  0  0  0  0
  180.9400  171.7260  134.9820 C   0  0  0  0  0  2  0  0  0  0  0  0
  180.7150  170.9040  136.2290 C   0  0  0  0  0  2  0  0  0  0  0  0
  1 14  1  0  0  0  0
  2 10  1  0  0  0  0
  2  9  1  0  0  0  0
  5 12  1  0  0  0  0
  6 19  1  0  0  0  0
  7  1  1  0  0  0  0
  8  6  2  0  0  0  0
  8 14  1  0  0  0  0
 11  3  1  6  0  0  0
 11  4  1  0  0  0  0
 11 10  1  0  0  0  0
 13 28  1  6  0  0  0
 13  9  1  0  0  0  0
 13 17  1  0  0  0  0
 14  5  2  0  0  0  0
 15  4  1  6  0  0  0
 15 16  1  0  0  0  0
 16 46  1  6  0  0  0
 16  7  1  0  0  0  0
 17 18  1  0  0  0  0
 18  6  1  0  0  0  0
 19 12  2  0  0  0  0
 21 20  1  0  0  0  0
 22 25  1  0  0  0  0
 22 26  1  1  0  0  0
 23 22  1  0  0  0  0
 24 21  1  0  0  0  0
 24 23  1  0  0  0  0
 25 20  1  6  0  0  0
 25 15  1  0  0  0  0
 28 29  1  6  0  0  0
 28 27  1  0  0  0  0
 30 31  1  6  0  0  0
 30 28  1  0  0  0  0
 30 32  1  0  0  0  0
 32 35  1  0  0  0  0
 32 33  1  1  0  0  0
 35 34  1  0  0  0  0
 36 40  1  6  0  0  0
 36 32  1  0  0  0  0
 37 36  1  1  0  0  0
 37 39  1  0  0  0  0
 38 37  1  0  0  0  0
 38 39  1  0  0  0  0
 40 42  1  0  0  0  0
 42 44  1  0  0  0  0
 42 41  1  1  0  0  0
 44 43  1  0  0  0  0
 45 44  2  0  0  0  0
 48 51  2  0  0  0  0
 49 52  1  0  0  0  0
 50 49  2  0  0  0  0
 50 48  1  0  0  0  0
 51 47  1  0  0  0  0
 52 46  1  0  0  0  0
 52 47  1  0  0  0  0
 53 55  1  0  0  0  0
 53 48  1  0  0  0  0
 54 53  1  0  0  0  0
 54 55  1  0  0  0  0
M  END
>  <MODEL>
4

>  <REMARK>
 VINA RESULT:      -4.8      4.083      7.691
  Name = 
  13 active torsions:
  status: ('A' for Active; 'I' for Inactive)
    1  A    between atoms: C_1  and  C_53
    2  A    between atoms: C_6  and  C_14
    3  A    between atoms: C_6  and  C_20
    4  A    between atoms: C_6  and  C_53
    5  A    between atoms: C_8  and  C_20
    6  A    between atoms: C_8  and  C_43
    7  A    between atoms: C_10  and  C_32
    8  A    between atoms: C_11  and  C_29
    9  A    between atoms: C_11  and  O_38
   10  A    between atoms: C_26  and  C_45
   11  A    between atoms: C_33  and  C_49
   12  A    between atoms: C_33  and  N_52
   13  A    between atoms: O_38  and  C_53
                            x       y       z     vdW  Elec       q    Type
                         _______ _______ _______ _____ _____    ______ ____

>  <TORSDO>
F 13

$$$$
=
 OpenBabel11052415053D

 55 60  0  0  1  0  0  0  0  0999 V2000
  182.1490  177.2370  140.6860 C   0  0  0  0  0  2  0  0  0  0  0  0
  185.2520  175.4380  136.4860 O   0  0  0  0  0  0  0  0  0  0  0  0
  183.4040  176.6520  134.6110 C   0  0  0  0  0  1  0  0  0  0  0  0
  181.9520  176.9410  136.4770 O   0  0  0  0  0  0  0  0  0  0  0  0
  183.9170  178.2280  142.1530 C   0  0  0  0  0  3  0  0  0  0  0  0
  185.5890  178.6410  139.9470 C   0  0  0  0  0  0  0  0  0  0  0  0
  181.3540  178.0490  139.8640 O   0  0  0  0  0  0  0  0  0  0  0  0
  184.3280  178.0630  139.7760 C   0  0  0  0  0  3  0  0  0  0  0  0
  185.9600  175.8240  137.6260 C   0  0  0  0  0  2  0  0  0  0  0  0
  183.9000  175.5750  136.8230 C   0  0  0  0  0  2  0  0  0  0  0  0
  183.3010  176.8010  136.1270 C   0  0  1  0  0  3  0  0  0  0  0  0
  185.1820  178.8020  142.3290 C   0  0  0  0  0  3  0  0  0  0  0  0
  186.7450  177.1090  137.3580 C   0  0  1  0  0  3  0  0  0  0  0  0
  183.4870  177.8630  140.8750 C   0  0  0  0  0  0  0  0  0  0  0  0
  181.9200  177.8920  137.5070 C   0  0  2  0  0  3  0  0  0  0  0  0
  181.1530  177.2940  138.6980 C   0  0  2  0  0  3  0  0  0  0  0  0
  187.2130  177.6300  138.5700 O   0  0  0  0  0  0  0  0  0  0  0  0
  186.4880  178.8100  138.7710 C   0  0  0  0  0  2  0  0  0  0  0  0
  186.0190  179.0070  141.2240 C   0  0  0  0  0  3  0  0  0  0  0  0
  181.9110  180.4300  137.7970 C   0  0  0  0  0  2  0  0  0  0  0  0
  181.2270  180.5650  139.1610 C   0  0  0  0  0  2  0  0  0  0  0  0
  179.7880  179.2110  137.0280 C   0  0  2  0  0  3  0  0  0  0  0  0
  179.1690  180.4760  137.6350 C   0  0  0  0  0  2  0  0  0  0  0  0
  179.7070  180.7220  139.0480 C   0  0  0  0  0  2  0  0  0  0  0  0
  181.3360  179.2350  137.0080 C   0  0  2  0  0  3  0  0  0  0  0  0
  179.3080  179.0410  135.7290 O   0  0  0  0  0  1  0  0  0  0  0  0
  188.5030  178.1860  136.1840 O   0  0  0  0  0  1  0  0  0  0  0  0
  187.9070  176.9350  136.3600 C   0  0  2  0  0  0  0  0  0  0  0  0
  187.4120  176.5160  135.1370 F   0  0  0  0  0  0  0  0  0  0  0  0
  188.9470  175.9130  136.8830 C   0  0  1  0  0  3  0  0  0  0  0  0
  188.3480  174.6640  137.0650 O   0  0  0  0  0  1  0  0  0  0  0  0
  190.2600  175.7830  136.0680 C   0  0  2  0  0  0  0  0  0  0  0  0
  190.3630  176.8690  135.1910 O   0  0  0  0  0  1  0  0  0  0  0  0
  190.4980  173.3830  136.0290 F   0  0  0  0  0  0  0  0  0  0  0  0
  190.2520  174.4950  135.2360 C   0  0  0  0  0  2  0  0  0  0  0  0
  191.5020  175.7890  136.9950 C   0  0  2  0  0  3  0  0  0  0  0  0
  191.5080  176.9510  138.0160 C   0  0  2  0  0  3  0  0  0  0  0  0
  192.3400  176.6330  139.1040 O   0  0  0  0  0  0  0  0  0  0  0  0
  190.9570  176.6010  139.3480 C   0  0  0  0  0  2  0  0  0  0  0  0
  192.6930  175.7090  136.2560 O   0  0  0  0  0  0  0  0  0  0  0  0
  193.4390  173.6030  136.7480 O   0  0  0  0  0  1  0  0  0  0  0  0
  193.5760  174.9620  137.0540 C   0  0  1  0  0  3  0  0  0  0  0  0
  195.2300  176.3600  136.0160 O   0  0  0  0  0  0  0  0  0  0  0  0
  194.9830  175.4220  136.8220 C   0  0  0  0  0  0  0  0  0  0  0  0
  196.0160  174.8300  137.5290 O   0  0  0  0  0  1  0  0  0  0  0  0
  179.6620  177.1360  138.4050 C   0  0  0  0  0  2  0  0  0  0  0  0
  179.1600  174.7170  138.8290 C   0  0  0  0  0  2  0  0  0  0  0  0
  179.1310  173.2320  136.8330 C   0  0  0  0  0  0  0  0  0  0  0  0
  179.0850  175.6470  136.4880 C   0  0  0  0  0  3  0  0  0  0  0  0
  178.9590  174.4230  135.9740 C   0  0  0  0  0  3  0  0  0  0  0  0
  179.2450  173.3710  138.1610 C   0  0  0  0  0  3  0  0  0  0  0  0
  179.3780  175.8090  137.8850 N   0  0  0  0  0  0  0  0  0  0  0  0
  179.1360  171.8590  136.2110 C   0  0  0  0  0  3  0  0  0  0  0  0
  180.4100  171.6520  135.3930 C   0  0  0  0  0  2  0  0  0  0  0  0
  180.2820  171.0220  136.7600 C   0  0  0  0  0  2  0  0  0  0  0  0
  1 14  1  0  0  0  0
  2 10  1  0  0  0  0
  2  9  1  0  0  0  0
  5 12  1  0  0  0  0
  6 19  1  0  0  0  0
  7  1  1  0  0  0  0
  8  6  2  0  0  0  0
  8 14  1  0  0  0  0
 11  3  1  6  0  0  0
 11  4  1  0  0  0  0
 11 10  1  0  0  0  0
 13 28  1  6  0  0  0
 13  9  1  0  0  0  0
 13 17  1  0  0  0  0
 14  5  2  0  0  0  0
 15  4  1  6  0  0  0
 15 16  1  0  0  0  0
 16 46  1  6  0  0  0
 16  7  1  0  0  0  0
 17 18  1  0  0  0  0
 18  6  1  0  0  0  0
 19 12  2  0  0  0  0
 20 21  1  0  0  0  0
 22 26  1  6  0  0  0
 22 23  1  0  0  0  0
 23 24  1  0  0  0  0
 24 21  1  0  0  0  0
 25 22  1  0  0  0  0
 25 15  1  0  0  0  0
 25 20  1  1  0  0  0
 27 28  1  0  0  0  0
 28 29  1  6  0  0  0
 28 30  1  0  0  0  0
 30 31  1  6  0  0  0
 32 33  1  6  0  0  0
 32 30  1  0  0  0  0
 32 36  1  0  0  0  0
 35 34  1  0  0  0  0
 35 32  1  0  0  0  0
 36 40  1  6  0  0  0
 37 36  1  6  0  0  0
 37 38  1  0  0  0  0
 37 39  1  0  0  0  0
 38 39  1  0  0  0  0
 40 42  1  0  0  0  0
 42 41  1  6  0  0  0
 43 44  2  0  0  0  0
 44 42  1  0  0  0  0
 44 45  1  0  0  0  0
 48 51  2  0  0  0  0
 49 52  1  0  0  0  0
 50 49  2  0  0  0  0
 50 48  1  0  0  0  0
 51 47  1  0  0  0  0
 52 46  1  0  0  0  0
 52 47  1  0  0  0  0
 53 55  1  0  0  0  0
 53 48  1  0  0  0  0
 54 53  1  0  0  0  0
 54 55  1  0  0  0  0
M  END
>  <MODEL>
5

>  <REMARK>
 VINA RESULT:      -4.0      4.045      7.474
  Name = 
  13 active torsions:
  status: ('A' for Active; 'I' for Inactive)
    1  A    between atoms: C_1  and  C_53
    2  A    between atoms: C_6  and  C_14
    3  A    between atoms: C_6  and  C_20
    4  A    between atoms: C_6  and  C_53
    5  A    between atoms: C_8  and  C_20
    6  A    between atoms: C_8  and  C_43
    7  A    between atoms: C_10  and  C_32
    8  A    between atoms: C_11  and  C_29
    9  A    between atoms: C_11  and  O_38
   10  A    between atoms: C_26  and  C_45
   11  A    between atoms: C_33  and  C_49
   12  A    between atoms: C_33  and  N_52
   13  A    between atoms: O_38  and  C_53
                            x       y       z     vdW  Elec       q    Type
                         _______ _______ _______ _____ _____    ______ ____

>  <TORSDO>
F 13

$$$$
=
 OpenBabel11052415053D

 55 60  0  0  1  0  0  0  0  0999 V2000
  181.7840  176.9850  141.0720 C   0  0  0  0  0  2  0  0  0  0  0  0
  185.1440  176.4680  136.7190 O   0  0  0  0  0  0  0  0  0  0  0  0
  183.0840  177.5750  135.0070 C   0  0  0  0  0  1  0  0  0  0  0  0
  181.6170  177.2960  136.8630 O   0  0  0  0  0  0  0  0  0  0  0  0
  183.3390  178.0620  142.7100 C   0  0  0  0  0  3  0  0  0  0  0  0
  184.8850  179.1150  140.6280 C   0  0  0  0  0  0  0  0  0  0  0  0
  180.8420  177.7450  140.3640 O   0  0  0  0  0  0  0  0  0  0  0  0
  183.7570  178.3400  140.3440 C   0  0  0  0  0  3  0  0  0  0  0  0
  185.7730  176.8050  137.9200 C   0  0  0  0  0  2  0  0  0  0  0  0
  183.7940  176.2910  137.0440 C   0  0  0  0  0  2  0  0  0  0  0  0
  182.9650  177.4710  136.5260 C   0  0  1  0  0  3  0  0  0  0  0  0
  184.4720  178.8340  142.9970 C   0  0  0  0  0  3  0  0  0  0  0  0
  186.2950  178.2420  137.8640 C   0  0  1  0  0  3  0  0  0  0  0  0
  182.9790  177.8200  141.3820 C   0  0  0  0  0  0  0  0  0  0  0  0
  181.4100  178.0570  138.0230 C   0  0  2  0  0  3  0  0  0  0  0  0
  180.7810  177.1500  139.0940 C   0  0  2  0  0  3  0  0  0  0  0  0
  186.6630  178.6540  139.1510 O   0  0  0  0  0  0  0  0  0  0  0  0
  185.7260  179.6290  139.5100 C   0  0  0  0  0  2  0  0  0  0  0  0
  185.2450  179.3600  141.9540 C   0  0  0  0  0  3  0  0  0  0  0  0
  179.3700  179.0020  136.8110 C   0  0  0  0  0  2  0  0  0  0  0  0
  179.8070  178.8610  135.3490 C   0  0  0  0  0  2  0  0  0  0  0  0
  181.4640  180.4490  137.1350 C   0  0  2  0  0  3  0  0  0  0  0  0
  180.8470  181.1370  135.9120 C   0  0  0  0  0  2  0  0  0  0  0  0
  180.5160  180.1130  134.8200 C   0  0  0  0  0  2  0  0  0  0  0  0
  180.5750  179.3230  137.7180 C   0  0  2  0  0  3  0  0  0  0  0  0
  181.7140  181.4020  138.1230 O   0  0  0  0  0  1  0  0  0  0  0  0
  187.3980  179.7620  136.4160 O   0  0  0  0  0  1  0  0  0  0  0  0
  187.4610  178.4460  136.8770 C   0  0  2  0  0  0  0  0  0  0  0  0
  187.3060  177.6000  135.7920 F   0  0  0  0  0  0  0  0  0  0  0  0
  188.8260  178.1790  137.5600 C   0  0  1  0  0  3  0  0  0  0  0  0
  188.7660  178.5270  138.9120 O   0  0  0  0  0  1  0  0  0  0  0  0
  189.4230  176.7590  137.3790 C   0  0  2  0  0  0  0  0  0  0  0  0
  189.8750  176.6170  136.0620 O   0  0  0  0  0  1  0  0  0  0  0  0
  188.7240  174.4700  137.0880 F   0  0  0  0  0  0  0  0  0  0  0  0
  188.3560  175.6900  137.6370 C   0  0  0  0  0  2  0  0  0  0  0  0
  190.6240  176.5280  138.3320 C   0  0  2  0  0  3  0  0  0  0  0  0
  191.7310  175.6320  137.7280 C   0  0  2  0  0  3  0  0  0  0  0  0
  192.9670  175.9150  138.3370 O   0  0  0  0  0  0  0  0  0  0  0  0
  192.8020  176.3730  137.0190 C   0  0  0  0  0  2  0  0  0  0  0  0
  190.1980  176.0880  139.5950 O   0  0  0  0  0  0  0  0  0  0  0  0
  191.5690  177.8780  139.9880 O   0  0  0  0  0  1  0  0  0  0  0  0
  191.0890  176.6710  140.5120 C   0  0  1  0  0  3  0  0  0  0  0  0
  191.0410  177.2910  142.8310 O   0  0  0  0  0  1  0  0  0  0  0  0
  190.3970  176.8960  141.8210 C   0  0  0  0  0  0  0  0  0  0  0  0
  189.0280  176.7030  141.9090 O   0  0  0  0  0  0  0  0  0  0  0  0
  179.3460  176.7560  138.7480 C   0  0  0  0  0  2  0  0  0  0  0  0
  179.4010  174.2720  139.0750 C   0  0  0  0  0  2  0  0  0  0  0  0
  179.5120  172.8910  137.0090 C   0  0  0  0  0  0  0  0  0  0  0  0
  178.9310  175.2510  136.8020 C   0  0  0  0  0  3  0  0  0  0  0  0
  179.0190  174.0490  136.2330 C   0  0  0  0  0  3  0  0  0  0  0  0
  179.7090  173.0010  138.3300 C   0  0  0  0  0  3  0  0  0  0  0  0
  179.3030  175.4200  138.1790 N   0  0  0  0  0  0  0  0  0  0  0  0
  179.7500  171.5750  136.3150 C   0  0  0  0  0  3  0  0  0  0  0  0
  180.7500  171.7530  135.1720 C   0  0  0  0  0  2  0  0  0  0  0  0
  181.1980  171.1340  136.4750 C   0  0  0  0  0  2  0  0  0  0  0  0
  1 14  1  0  0  0  0
  2 10  1  0  0  0  0
  2  9  1  0  0  0  0
  5 12  1  0  0  0  0
  6 19  1  0  0  0  0
  7  1  1  0  0  0  0
  8  6  2  0  0  0  0
  8 14  1  0  0  0  0
 11  3  1  6  0  0  0
 11  4  1  0  0  0  0
 11 10  1  0  0  0  0
 13 28  1  6  0  0  0
 13  9  1  0  0  0  0
 13 17  1  0  0  0  0
 14  5  2  0  0  0  0
 15  4  1  6  0  0  0
 15 16  1  0  0  0  0
 16 46  1  6  0  0  0
 16  7  1  0  0  0  0
 17 18  1  0  0  0  0
 18  6  1  0  0  0  0
 19 12  2  0  0  0  0
 21 20  1  0  0  0  0
 22 25  1  0  0  0  0
 22 26  1  1  0  0  0
 23 22  1  0  0  0  0
 24 21  1  0  0  0  0
 24 23  1  0  0  0  0
 25 20  1  6  0  0  0
 25 15  1  0  0  0  0
 27 28  1  0  0  0  0
 28 29  1  6  0  0  0
 28 30  1  0  0  0  0
 30 31  1  1  0  0  0
 32 33  1  6  0  0  0
 32 30  1  0  0  0  0
 32 35  1  0  0  0  0
 32 36  1  0  0  0  0
 34 35  1  0  0  0  0
 36 40  1  1  0  0  0
 37 36  1  1  0  0  0
 37 38  1  0  0  0  0
 39 37  1  0  0  0  0
 39 38  1  0  0  0  0
 40 42  1  0  0  0  0
 42 41  1  6  0  0  0
 42 44  1  0  0  0  0
 44 45  2  0  0  0  0
 44 43  1  0  0  0  0
 48 51  2  0  0  0  0
 49 52  1  0  0  0  0
 50 49  2  0  0  0  0
 50 48  1  0  0  0  0
 51 47  1  0  0  0  0
 52 46  1  0  0  0  0
 52 47  1  0  0  0  0
 53 55  1  0  0  0  0
 53 48  1  0  0  0  0
 54 53  1  0  0  0  0
 54 55  1  0  0  0  0
M  END
>  <MODEL>
6

>  <REMARK>
 VINA RESULT:      -3.7      2.945      6.750
  Name = 
  13 active torsions:
  status: ('A' for Active; 'I' for Inactive)
    1  A    between atoms: C_1  and  C_53
    2  A    between atoms: C_6  and  C_14
    3  A    between atoms: C_6  and  C_20
    4  A    between atoms: C_6  and  C_53
    5  A    between atoms: C_8  and  C_20
    6  A    between atoms: C_8  and  C_43
    7  A    between atoms: C_10  and  C_32
    8  A    between atoms: C_11  and  C_29
    9  A    between atoms: C_11  and  O_38
   10  A    between atoms: C_26  and  C_45
   11  A    between atoms: C_33  and  C_49
   12  A    between atoms: C_33  and  N_52
   13  A    between atoms: O_38  and  C_53
                            x       y       z     vdW  Elec       q    Type
                         _______ _______ _______ _____ _____    ______ ____

>  <TORSDO>
F 13

$$$$
