=
 OpenBabel11052414103D

 34 38  0  0  1  0  0  0  0  0999 V2000
  182.1210  178.6180  141.5580 C   0  0  1  0  0  3  0  0  0  0  0  0
  181.2830  178.3530  143.9460 C   0  0  0  0  0  2  0  0  0  0  0  0
  183.7540  178.7560  143.5480 C   0  0  0  0  0  0  0  0  0  0  0  0
  185.3690  178.6890  145.3200 N   0  0  0  0  0  0  0  0  0  0  0  0
  180.0540  180.1360  141.8310 C   0  0  0  0  0  2  0  0  0  0  0  0
  179.2040  179.1960  142.6910 C   0  0  0  0  0  2  0  0  0  0  0  0
  183.2100  179.2640  145.7450 O   0  0  0  0  0  0  0  0  0  0  0  0
  182.3420  179.0170  143.0380 C   0  0  1  0  0  3  0  0  0  0  0  0
  180.9990  179.4100  140.8650 C   0  0  0  0  0  2  0  0  0  0  0  0
  184.7900  178.4830  142.6330 C   0  0  0  0  0  0  0  0  0  0  0  0
  183.3530  178.6620  140.7130 C   0  0  0  0  0  3  0  0  0  0  0  0
  179.9620  177.9910  143.2560 C   0  0  0  0  0  2  0  0  0  0  0  0
  186.3260  178.3740  144.4490 N   0  0  0  0  0  0  0  0  0  0  0  0
  186.0970  178.2610  143.1150 C   0  0  0  0  0  0  0  0  0  0  0  0
  184.0860  178.9100  144.9090 C   0  0  0  0  0  0  0  0  0  0  0  0
  184.5380  178.5570  141.2240 N   0  0  0  0  0  0  0  0  0  0  0  0
  188.5540  178.2640  140.2060 C   0  0  0  0  0  0  0  0  0  0  0  0
  189.3980  177.2130  140.5680 C   0  0  0  0  0  3  0  0  0  0  0  0
  187.2460  177.9270  142.2320 C   0  0  0  0  0  0  0  0  0  0  0  0
  189.1680  176.5100  141.7540 C   0  0  0  0  0  3  0  0  0  0  0  0
  187.4820  178.6150  141.0310 C   0  0  0  0  0  3  0  0  0  0  0  0
  188.0960  176.8640  142.5780 C   0  0  0  0  0  3  0  0  0  0  0  0
  188.7790  178.9600  139.0270 O   0  0  0  0  0  1  0  0  0  0  0  0
  185.7340  178.8320  146.7240 C   0  0  0  0  0  2  0  0  0  0  0  0
  186.6820  177.7200  147.1260 C   0  0  0  0  0  2  0  0  0  0  0  0
  187.9000  178.3120  147.8090 C   0  0  0  0  0  2  0  0  0  0  0  0
  189.0210  177.2850  147.8790 C   0  0  0  0  0  2  0  0  0  0  0  0
  191.3650  175.8440  147.5290 O   0  0  0  0  0  0  0  0  0  0  0  0
  189.9000  177.3980  146.7180 N   0  0  0  0  0  0  0  0  0  0  0  0
  191.0390  176.6480  146.6140 C   0  0  0  0  0  0  0  0  0  0  0  0
  191.5150  177.6220  144.5130 C   0  0  0  0  0  3  0  0  0  0  0  0
  190.3620  178.3960  144.5960 C   0  0  0  0  0  3  0  0  0  0  0  0
  189.5570  178.2650  145.7270 C   0  0  0  0  0  3  0  0  0  0  0  0
  191.8330  176.7660  145.5170 N   0  0  0  0  0  0  0  0  0  0  0  0
  1 11  1  6  0  0  0
  1  8  1  0  0  0  0
  3 15  1  0  0  0  0
  4 24  1  0  0  0  0
  5  6  1  0  0  0  0
  6 12  1  0  0  0  0
  8  3  1  0  0  0  0
  8  2  1  1  0  0  0
  9  1  1  0  0  0  0
  9  5  1  0  0  0  0
 10 14  1  0  0  0  0
 10  3  2  0  0  0  0
 11 16  2  0  0  0  0
 12  2  1  0  0  0  0
 13  4  1  0  0  0  0
 14 13  2  0  0  0  0
 15  4  1  0  0  0  0
 15  7  2  0  0  0  0
 16 10  1  0  0  0  0
 17 18  2  0  0  0  0
 17 21  1  0  0  0  0
 18 20  1  0  0  0  0
 19 22  1  0  0  0  0
 19 14  1  0  0  0  0
 20 22  2  0  0  0  0
 21 19  2  0  0  0  0
 23 17  1  0  0  0  0
 24 25  1  0  0  0  0
 25 26  1  0  0  0  0
 26 27  1  0  0  0  0
 29 27  1  0  0  0  0
 30 29  1  0  0  0  0
 30 28  2  0  0  0  0
 31 32  1  0  0  0  0
 31 34  2  0  0  0  0
 32 33  2  0  0  0  0
 33 29  1  0  0  0  0
 34 30  1  0  0  0  0
M  END
>  <MODEL>
1

>  <REMARK>
 VINA RESULT:      -9.9      0.000      0.000
  Name = 
  6 active torsions:
  status: ('A' for Active; 'I' for Inactive)
    1  A    between atoms: C_3  and  N_13
    2  A    between atoms: C_3  and  C_17
    3  A    between atoms: N_5  and  C_18
    4  A    between atoms: C_12  and  C_28
    5  A    between atoms: C_17  and  C_29
    6  A    between atoms: C_18  and  C_29
                            x       y       z     vdW  Elec       q    Type
                         _______ _______ _______ _____ _____    ______ ____

>  <TORSDO>
F 6

$$$$
=
 OpenBabel11052414103D

 34 38  0  0  1  0  0  0  0  0999 V2000
  189.7130  176.5010  137.4100 C   0  0  1  0  0  3  0  0  0  0  0  0
  187.2050  176.6320  136.9990 C   0  0  0  0  0  2  0  0  0  0  0  0
  188.1630  177.6780  139.1010 C   0  0  0  0  0  0  0  0  0  0  0  0
  186.7740  178.6040  140.8230 N   0  0  0  0  0  0  0  0  0  0  0  0
  189.3630  177.2970  134.9820 C   0  0  0  0  0  2  0  0  0  0  0  0
  188.1710  176.4020  134.6290 C   0  0  0  0  0  2  0  0  0  0  0  0
  186.0600  178.5540  138.6640 O   0  0  0  0  0  0  0  0  0  0  0  0
  188.4260  177.3300  137.6410 C   0  0  1  0  0  3  0  0  0  0  0  0
  190.3210  176.6790  136.0080 C   0  0  0  0  0  2  0  0  0  0  0  0
  189.1860  177.5140  140.0550 C   0  0  0  0  0  0  0  0  0  0  0  0
  190.7760  176.7060  138.4410 C   0  0  0  0  0  3  0  0  0  0  0  0
  187.5260  175.6980  135.8260 C   0  0  0  0  0  2  0  0  0  0  0  0
  187.7310  178.3890  141.7240 N   0  0  0  0  0  0  0  0  0  0  0  0
  188.9390  177.8560  141.4010 C   0  0  0  0  0  0  0  0  0  0  0  0
  186.9600  178.2860  139.5080 C   0  0  0  0  0  0  0  0  0  0  0  0
  190.5000  177.1240  139.6350 N   0  0  0  0  0  0  0  0  0  0  0  0
  191.4300  176.2900  143.8180 C   0  0  0  0  0  0  0  0  0  0  0  0
  191.7850  177.3970  144.5890 C   0  0  0  0  0  3  0  0  0  0  0  0
  189.9410  177.6820  142.4850 C   0  0  0  0  0  0  0  0  0  0  0  0
  191.2180  178.6460  144.3210 C   0  0  0  0  0  3  0  0  0  0  0  0
  190.5090  176.4310  142.7750 C   0  0  0  0  0  3  0  0  0  0  0  0
  190.2990  178.7850  143.2770 C   0  0  0  0  0  3  0  0  0  0  0  0
  191.9890  175.0490  144.0850 O   0  0  0  0  0  1  0  0  0  0  0  0
  185.5340  179.2260  141.2690 C   0  0  0  0  0  2  0  0  0  0  0  0
  184.9090  178.3940  142.3720 C   0  0  0  0  0  2  0  0  0  0  0  0
  184.8680  179.2010  143.6560 C   0  0  0  0  0  2  0  0  0  0  0  0
  184.6840  178.2810  144.8550 C   0  0  0  0  0  2  0  0  0  0  0  0
  185.3230  179.3320  147.3410 O   0  0  0  0  0  0  0  0  0  0  0  0
  185.9540  178.0690  145.5450 N   0  0  0  0  0  0  0  0  0  0  0  0
  186.1940  178.6180  146.7750 C   0  0  0  0  0  0  0  0  0  0  0  0
  188.3430  177.6330  146.8190 C   0  0  0  0  0  3  0  0  0  0  0  0
  188.1230  177.0650  145.5670 C   0  0  0  0  0  3  0  0  0  0  0  0
  186.9010  177.3020  144.9400 C   0  0  0  0  0  3  0  0  0  0  0  0
  187.3810  178.3950  147.3980 N   0  0  0  0  0  0  0  0  0  0  0  0
  1  9  1  6  0  0  0
  1  8  1  0  0  0  0
  1 11  1  0  0  0  0
  3 15  1  0  0  0  0
  3 10  2  0  0  0  0
  4 24  1  0  0  0  0
  4 13  1  0  0  0  0
  5  9  1  0  0  0  0
  6  5  1  0  0  0  0
  6 12  1  0  0  0  0
  7 15  2  0  0  0  0
  8  2  1  1  0  0  0
  8  3  1  0  0  0  0
 10 14  1  0  0  0  0
 11 16  2  0  0  0  0
 12  2  1  0  0  0  0
 14 13  2  0  0  0  0
 14 19  1  0  0  0  0
 15  4  1  0  0  0  0
 16 10  1  0  0  0  0
 17 23  1  0  0  0  0
 17 18  1  0  0  0  0
 19 21  1  0  0  0  0
 19 22  2  0  0  0  0
 20 18  2  0  0  0  0
 21 17  2  0  0  0  0
 22 20  1  0  0  0  0
 24 25  1  0  0  0  0
 25 26  1  0  0  0  0
 26 27  1  0  0  0  0
 27 29  1  0  0  0  0
 29 30  1  0  0  0  0
 30 28  2  0  0  0  0
 30 34  1  0  0  0  0
 31 34  2  0  0  0  0
 32 31  1  0  0  0  0
 33 29  1  0  0  0  0
 33 32  2  0  0  0  0
M  END
>  <MODEL>
2

>  <REMARK>
 VINA RESULT:      -9.7      2.825      6.612
  Name = 
  6 active torsions:
  status: ('A' for Active; 'I' for Inactive)
    1  A    between atoms: C_3  and  N_13
    2  A    between atoms: C_3  and  C_17
    3  A    between atoms: N_5  and  C_18
    4  A    between atoms: C_12  and  C_28
    5  A    between atoms: C_17  and  C_29
    6  A    between atoms: C_18  and  C_29
                            x       y       z     vdW  Elec       q    Type
                         _______ _______ _______ _____ _____    ______ ____

>  <TORSDO>
F 6

$$$$
=
 OpenBabel11052414103D

 34 38  0  0  1  0  0  0  0  0999 V2000
  182.4960  178.9970  141.1450 C   0  0  1  0  0  3  0  0  0  0  0  0
  183.7550  179.7540  139.0670 C   0  0  0  0  0  2  0  0  0  0  0  0
  185.0410  178.6410  140.9460 C   0  0  0  0  0  0  0  0  0  0  0  0
  187.4330  178.4600  140.9350 N   0  0  0  0  0  0  0  0  0  0  0  0
  181.1870  178.1520  139.0900 C   0  0  0  0  0  2  0  0  0  0  0  0
  181.3660  179.3820  138.1950 C   0  0  0  0  0  2  0  0  0  0  0  0
  186.2730  178.5570  138.9810 O   0  0  0  0  0  0  0  0  0  0  0  0
  183.7060  178.7240  140.2170 C   0  0  1  0  0  3  0  0  0  0  0  0
  181.1610  178.4730  140.5890 C   0  0  0  0  0  2  0  0  0  0  0  0
  185.0680  178.5100  142.3480 C   0  0  0  0  0  0  0  0  0  0  0  0
  182.6710  178.5190  142.5500 C   0  0  0  0  0  3  0  0  0  0  0  0
  182.4080  180.3860  138.6950 C   0  0  0  0  0  2  0  0  0  0  0  0
  187.4440  178.3960  142.2650 N   0  0  0  0  0  0  0  0  0  0  0  0
  186.3090  178.4160  143.0110 C   0  0  0  0  0  0  0  0  0  0  0  0
  186.2600  178.5580  140.2440 C   0  0  0  0  0  0  0  0  0  0  0  0
  183.8430  178.3490  143.0750 N   0  0  0  0  0  0  0  0  0  0  0  0
  187.6180  177.5710  146.4860 C   0  0  0  0  0  0  0  0  0  0  0  0
  186.6050  178.0970  147.2880 C   0  0  0  0  0  3  0  0  0  0  0  0
  186.4400  178.3160  144.4890 C   0  0  0  0  0  0  0  0  0  0  0  0
  185.5040  178.7250  146.6990 C   0  0  0  0  0  3  0  0  0  0  0  0
  187.5330  177.6760  145.0940 C   0  0  0  0  0  3  0  0  0  0  0  0
  185.4220  178.8300  145.3080 C   0  0  0  0  0  3  0  0  0  0  0  0
  188.7100  176.9440  147.0680 O   0  0  0  0  0  1  0  0  0  0  0  0
  188.7070  178.3820  140.2300 C   0  0  0  0  0  2  0  0  0  0  0  0
  189.1340  176.9340  140.0950 C   0  0  0  0  0  2  0  0  0  0  0  0
  190.5340  176.7630  140.6530 C   0  0  0  0  0  2  0  0  0  0  0  0
  190.8770  177.9140  141.5880 C   0  0  0  0  0  2  0  0  0  0  0  0
  190.9590  179.4950  143.8660 O   0  0  0  0  0  0  0  0  0  0  0  0
  191.1690  177.4210  142.9310 N   0  0  0  0  0  0  0  0  0  0  0  0
  191.1860  178.2630  144.0090 C   0  0  0  0  0  0  0  0  0  0  0  0
  191.7020  176.4550  145.4420 C   0  0  0  0  0  3  0  0  0  0  0  0
  191.6920  175.5780  144.3610 C   0  0  0  0  0  3  0  0  0  0  0  0
  191.4190  176.0930  143.0950 C   0  0  0  0  0  3  0  0  0  0  0  0
  191.4500  177.7740  145.2490 N   0  0  0  0  0  0  0  0  0  0  0  0
  1  9  1  6  0  0  0
  1 11  1  0  0  0  0
  3 10  2  0  0  0  0
  4 13  1  0  0  0  0
  5  9  1  0  0  0  0
  6 12  1  0  0  0  0
  6  5  1  0  0  0  0
  7 15  2  0  0  0  0
  8  2  1  6  0  0  0
  8  3  1  0  0  0  0
  8  1  1  0  0  0  0
 10 14  1  0  0  0  0
 10 16  1  0  0  0  0
 11 16  2  0  0  0  0
 12  2  1  0  0  0  0
 13 14  2  0  0  0  0
 14 19  1  0  0  0  0
 15  4  1  0  0  0  0
 15  3  1  0  0  0  0
 17 23  1  0  0  0  0
 17 18  1  0  0  0  0
 19 21  1  0  0  0  0
 19 22  2  0  0  0  0
 20 18  2  0  0  0  0
 21 17  2  0  0  0  0
 22 20  1  0  0  0  0
 24  4  1  0  0  0  0
 25 24  1  0  0  0  0
 25 26  1  0  0  0  0
 26 27  1  0  0  0  0
 27 29  1  0  0  0  0
 28 30  2  0  0  0  0
 29 33  1  0  0  0  0
 29 30  1  0  0  0  0
 30 34  1  0  0  0  0
 32 31  1  0  0  0  0
 33 32  2  0  0  0  0
 34 31  2  0  0  0  0
M  END
>  <MODEL>
3

>  <REMARK>
 VINA RESULT:      -9.2      2.004      4.794
  Name = 
  6 active torsions:
  status: ('A' for Active; 'I' for Inactive)
    1  A    between atoms: C_3  and  N_13
    2  A    between atoms: C_3  and  C_17
    3  A    between atoms: N_5  and  C_18
    4  A    between atoms: C_12  and  C_28
    5  A    between atoms: C_17  and  C_29
    6  A    between atoms: C_18  and  C_29
                            x       y       z     vdW  Elec       q    Type
                         _______ _______ _______ _____ _____    ______ ____

>  <TORSDO>
F 6

$$$$
=
 OpenBabel11052414103D

 34 38  0  0  1  0  0  0  0  0999 V2000
  184.6040  178.3580  144.2760 C   0  0  1  0  0  3  0  0  0  0  0  0
  187.0340  177.6040  144.3330 C   0  0  0  0  0  2  0  0  0  0  0  0
  186.0950  178.5660  142.1840 C   0  0  0  0  0  0  0  0  0  0  0  0
  187.3460  178.6020  140.1370 N   0  0  0  0  0  0  0  0  0  0  0  0
  185.6810  179.3570  146.3960 C   0  0  0  0  0  2  0  0  0  0  0  0
  186.5390  178.1530  146.7950 C   0  0  0  0  0  2  0  0  0  0  0  0
  188.4140  178.6490  142.1450 O   0  0  0  0  0  0  0  0  0  0  0  0
  186.0250  178.5910  143.7060 C   0  0  1  0  0  3  0  0  0  0  0  0
  184.3860  178.9830  145.6650 C   0  0  0  0  0  2  0  0  0  0  0  0
  184.9100  178.6420  141.4260 C   0  0  0  0  0  0  0  0  0  0  0  0
  183.4940  178.7720  143.3660 C   0  0  0  0  0  3  0  0  0  0  0  0
  186.6530  177.0690  145.7190 C   0  0  0  0  0  2  0  0  0  0  0  0
  186.2150  178.6140  139.4350 N   0  0  0  0  0  0  0  0  0  0  0  0
  184.9870  178.6360  140.0180 C   0  0  0  0  0  0  0  0  0  0  0  0
  187.3280  178.6010  141.5020 C   0  0  0  0  0  0  0  0  0  0  0  0
  183.6530  178.8500  142.0830 N   0  0  0  0  0  0  0  0  0  0  0  0
  181.9410  179.8610  138.0890 C   0  0  0  0  0  0  0  0  0  0  0  0
  181.5000  178.6730  137.5050 C   0  0  0  0  0  3  0  0  0  0  0  0
  183.7920  178.6720  139.1350 C   0  0  0  0  0  0  0  0  0  0  0  0
  182.1930  177.4820  137.7370 C   0  0  0  0  0  3  0  0  0  0  0  0
  183.0780  179.8590  138.9030 C   0  0  0  0  0  3  0  0  0  0  0  0
  183.3290  177.4830  138.5490 C   0  0  0  0  0  3  0  0  0  0  0  0
  181.2520  181.0440  137.8640 O   0  0  0  0  0  1  0  0  0  0  0  0
  188.6090  178.6280  139.4110 C   0  0  0  0  0  2  0  0  0  0  0  0
  189.3050  177.2870  139.5390 C   0  0  0  0  0  2  0  0  0  0  0  0
  190.7770  177.5050  139.8320 C   0  0  0  0  0  2  0  0  0  0  0  0
  191.2920  176.4370  140.7870 C   0  0  0  0  0  2  0  0  0  0  0  0
  190.1600  174.9630  142.8460 O   0  0  0  0  0  0  0  0  0  0  0  0
  191.1880  176.8880  142.1730 N   0  0  0  0  0  0  0  0  0  0  0  0
  190.6190  176.1000  143.1350 C   0  0  0  0  0  0  0  0  0  0  0  0
  191.0280  177.7620  144.7680 C   0  0  0  0  0  3  0  0  0  0  0  0
  191.6100  178.5820  143.8050 C   0  0  0  0  0  3  0  0  0  0  0  0
  191.6790  178.1160  142.4930 C   0  0  0  0  0  3  0  0  0  0  0  0
  190.5460  176.5420  144.4190 N   0  0  0  0  0  0  0  0  0  0  0  0
  1 11  1  6  0  0  0
  1  9  1  0  0  0  0
  2 12  1  0  0  0  0
  3  8  1  0  0  0  0
  4 15  1  0  0  0  0
  5  6  1  0  0  0  0
  8  1  1  0  0  0  0
  8  2  1  1  0  0  0
  9  5  1  0  0  0  0
 10 16  1  0  0  0  0
 10  3  2  0  0  0  0
 12  6  1  0  0  0  0
 13 14  2  0  0  0  0
 13  4  1  0  0  0  0
 14 10  1  0  0  0  0
 15  7  2  0  0  0  0
 15  3  1  0  0  0  0
 16 11  2  0  0  0  0
 17 21  1  0  0  0  0
 18 20  1  0  0  0  0
 18 17  2  0  0  0  0
 19 14  1  0  0  0  0
 20 22  2  0  0  0  0
 21 19  2  0  0  0  0
 22 19  1  0  0  0  0
 23 17  1  0  0  0  0
 24 25  1  0  0  0  0
 24  4  1  0  0  0  0
 25 26  1  0  0  0  0
 26 27  1  0  0  0  0
 27 29  1  0  0  0  0
 28 30  2  0  0  0  0
 29 33  1  0  0  0  0
 29 30  1  0  0  0  0
 30 34  1  0  0  0  0
 32 31  1  0  0  0  0
 33 32  2  0  0  0  0
 34 31  2  0  0  0  0
M  END
>  <MODEL>
4

>  <REMARK>
 VINA RESULT:      -9.1      2.537      5.674
  Name = 
  6 active torsions:
  status: ('A' for Active; 'I' for Inactive)
    1  A    between atoms: C_3  and  N_13
    2  A    between atoms: C_3  and  C_17
    3  A    between atoms: N_5  and  C_18
    4  A    between atoms: C_12  and  C_28
    5  A    between atoms: C_17  and  C_29
    6  A    between atoms: C_18  and  C_29
                            x       y       z     vdW  Elec       q    Type
                         _______ _______ _______ _____ _____    ______ ____

>  <TORSDO>
F 6

$$$$
=
 OpenBabel11052414103D

 34 38  0  0  1  0  0  0  0  0999 V2000
  184.8530  178.2670  144.2360 C   0  0  1  0  0  3  0  0  0  0  0  0
  187.2430  177.3950  144.2620 C   0  0  0  0  0  2  0  0  0  0  0  0
  186.3400  178.4460  142.1380 C   0  0  0  0  0  0  0  0  0  0  0  0
  187.5800  178.4620  140.0850 N   0  0  0  0  0  0  0  0  0  0  0  0
  185.9890  179.1690  146.3690 C   0  0  0  0  0  2  0  0  0  0  0  0
  186.7890  177.9160  146.7370 C   0  0  0  0  0  2  0  0  0  0  0  0
  188.6600  178.4160  142.0860 O   0  0  0  0  0  0  0  0  0  0  0  0
  186.2800  178.4430  143.6610 C   0  0  1  0  0  3  0  0  0  0  0  0
  184.6730  178.8730  145.6390 C   0  0  0  0  0  2  0  0  0  0  0  0
  185.1560  178.5950  141.3900 C   0  0  0  0  0  0  0  0  0  0  0  0
  183.7590  178.7530  143.3410 C   0  0  0  0  0  3  0  0  0  0  0  0
  186.8450  176.8510  145.6390 C   0  0  0  0  0  2  0  0  0  0  0  0
  186.4470  178.5450  139.3900 N   0  0  0  0  0  0  0  0  0  0  0  0
  185.2250  178.6140  139.9820 C   0  0  0  0  0  0  0  0  0  0  0  0
  187.5690  178.4350  141.4490 C   0  0  0  0  0  0  0  0  0  0  0  0
  183.9150  178.8500  142.0600 N   0  0  0  0  0  0  0  0  0  0  0  0
  182.1470  179.9870  138.2100 C   0  0  0  0  0  0  0  0  0  0  0  0
  181.7340  178.8670  137.4860 C   0  0  0  0  0  3  0  0  0  0  0  0
  184.0280  178.7270  139.1070 C   0  0  0  0  0  0  0  0  0  0  0  0
  182.4560  177.6740  137.5740 C   0  0  0  0  0  3  0  0  0  0  0  0
  183.2840  179.9150  139.0190 C   0  0  0  0  0  3  0  0  0  0  0  0
  183.5940  177.6050  138.3830 C   0  0  0  0  0  3  0  0  0  0  0  0
  181.4280  181.1710  138.1270 O   0  0  0  0  0  1  0  0  0  0  0  0
  188.8390  178.4420  139.3500 C   0  0  0  0  0  2  0  0  0  0  0  0
  188.5670  178.5120  137.8610 C   0  0  0  0  0  2  0  0  0  0  0  0
  189.0620  177.2420  137.1940 C   0  0  0  0  0  2  0  0  0  0  0  0
  189.9060  176.4280  138.1640 C   0  0  0  0  0  2  0  0  0  0  0  0
  192.1590  177.1370  139.6200 O   0  0  0  0  0  0  0  0  0  0  0  0
  191.2800  176.3090  137.6810 N   0  0  0  0  0  0  0  0  0  0  0  0
  192.3420  176.6750  138.4610 C   0  0  0  0  0  0  0  0  0  0  0  0
  193.8450  176.0520  136.7460 C   0  0  0  0  0  3  0  0  0  0  0  0
  192.7810  175.6740  135.9320 C   0  0  0  0  0  3  0  0  0  0  0  0
  191.4870  175.8150  136.4300 C   0  0  0  0  0  3  0  0  0  0  0  0
  193.6090  176.5430  137.9890 N   0  0  0  0  0  0  0  0  0  0  0  0
  1 11  1  6  0  0  0
  1  9  1  0  0  0  0
  2 12  1  0  0  0  0
  3  8  1  0  0  0  0
  4 15  1  0  0  0  0
  5  6  1  0  0  0  0
  8  1  1  0  0  0  0
  8  2  1  1  0  0  0
  9  5  1  0  0  0  0
 10 16  1  0  0  0  0
 10  3  2  0  0  0  0
 12  6  1  0  0  0  0
 13 14  2  0  0  0  0
 13  4  1  0  0  0  0
 14 10  1  0  0  0  0
 15  7  2  0  0  0  0
 15  3  1  0  0  0  0
 16 11  2  0  0  0  0
 17 21  1  0  0  0  0
 18 20  1  0  0  0  0
 18 17  2  0  0  0  0
 19 14  1  0  0  0  0
 20 22  2  0  0  0  0
 21 19  2  0  0  0  0
 22 19  1  0  0  0  0
 23 17  1  0  0  0  0
 24  4  1  0  0  0  0
 25 24  1  0  0  0  0
 26 25  1  0  0  0  0
 26 27  1  0  0  0  0
 29 27  1  0  0  0  0
 29 30  1  0  0  0  0
 30 28  2  0  0  0  0
 31 34  2  0  0  0  0
 32 33  2  0  0  0  0
 32 31  1  0  0  0  0
 33 29  1  0  0  0  0
 34 30  1  0  0  0  0
M  END
>  <MODEL>
5

>  <REMARK>
 VINA RESULT:      -9.0      3.513      7.002
  Name = 
  6 active torsions:
  status: ('A' for Active; 'I' for Inactive)
    1  A    between atoms: C_3  and  N_13
    2  A    between atoms: C_3  and  C_17
    3  A    between atoms: N_5  and  C_18
    4  A    between atoms: C_12  and  C_28
    5  A    between atoms: C_17  and  C_29
    6  A    between atoms: C_18  and  C_29
                            x       y       z     vdW  Elec       q    Type
                         _______ _______ _______ _____ _____    ______ ____

>  <TORSDO>
F 6

$$$$
=
 OpenBabel11052414103D

 34 38  0  0  1  0  0  0  0  0999 V2000
  189.5590  176.9950  146.7050 C   0  0  1  0  0  3  0  0  0  0  0  0
  191.5760  175.8830  145.6230 C   0  0  0  0  0  2  0  0  0  0  0  0
  190.0200  177.2760  144.1840 C   0  0  0  0  0  0  0  0  0  0  0  0
  190.2560  177.4170  141.8010 N   0  0  0  0  0  0  0  0  0  0  0  0
  191.6140  177.5050  148.1780 C   0  0  0  0  0  2  0  0  0  0  0  0
  192.3010  176.1400  148.0750 C   0  0  0  0  0  2  0  0  0  0  0  0
  192.0650  177.0120  143.1190 O   0  0  0  0  0  0  0  0  0  0  0  0
  190.6140  177.0920  145.5750 C   0  0  1  0  0  3  0  0  0  0  0  0
  190.0850  177.4390  148.0810 C   0  0  0  0  0  2  0  0  0  0  0  0
  188.6670  177.6380  144.0420 C   0  0  0  0  0  0  0  0  0  0  0  0
  188.2730  177.6990  146.4140 C   0  0  0  0  0  3  0  0  0  0  0  0
  191.7260  175.2180  146.9960 C   0  0  0  0  0  2  0  0  0  0  0  0
  188.9610  177.7010  141.6810 N   0  0  0  0  0  0  0  0  0  0  0  0
  188.1320  177.8230  142.7510 C   0  0  0  0  0  0  0  0  0  0  0  0
  190.8230  177.2220  143.0270 C   0  0  0  0  0  0  0  0  0  0  0  0
  187.8810  177.9360  145.2030 N   0  0  0  0  0  0  0  0  0  0  0  0
  184.9510  179.1170  141.1050 C   0  0  0  0  0  0  0  0  0  0  0  0
  184.0090  178.8540  142.1000 C   0  0  0  0  0  3  0  0  0  0  0  0
  186.7070  178.1670  142.4990 C   0  0  0  0  0  0  0  0  0  0  0  0
  184.4090  178.2550  143.2980 C   0  0  0  0  0  3  0  0  0  0  0  0
  186.2930  178.7800  141.3050 C   0  0  0  0  0  3  0  0  0  0  0  0
  185.7500  177.9180  143.4960 C   0  0  0  0  0  3  0  0  0  0  0  0
  184.5570  179.7150  139.9160 O   0  0  0  0  0  1  0  0  0  0  0  0
  191.0640  177.3560  140.5900 C   0  0  0  0  0  2  0  0  0  0  0  0
  190.1780  177.5150  139.3700 C   0  0  0  0  0  2  0  0  0  0  0  0
  190.7670  176.7380  138.2090 C   0  0  0  0  0  2  0  0  0  0  0  0
  190.1620  177.2080  136.8940 C   0  0  0  0  0  2  0  0  0  0  0  0
  188.9130  179.6610  137.2310 O   0  0  0  0  0  0  0  0  0  0  0  0
  188.7190  177.3950  137.0250 N   0  0  0  0  0  0  0  0  0  0  0  0
  188.1760  178.6400  137.1840 C   0  0  0  0  0  0  0  0  0  0  0  0
  186.0040  177.7080  137.2480 C   0  0  0  0  0  3  0  0  0  0  0  0
  186.5330  176.4300  137.0890 C   0  0  0  0  0  3  0  0  0  0  0  0
  187.9170  176.2970  136.9780 C   0  0  0  0  0  3  0  0  0  0  0  0
  186.8290  178.7840  137.2920 N   0  0  0  0  0  0  0  0  0  0  0  0
  1 11  1  6  0  0  0
  1  9  1  0  0  0  0
  2 12  1  0  0  0  0
  3  8  1  0  0  0  0
  4 15  1  0  0  0  0
  6  5  1  0  0  0  0
  8  2  1  6  0  0  0
  8  1  1  0  0  0  0
  9  5  1  0  0  0  0
 10  3  2  0  0  0  0
 10 16  1  0  0  0  0
 12  6  1  0  0  0  0
 13  4  1  0  0  0  0
 13 14  2  0  0  0  0
 14 10  1  0  0  0  0
 15  7  2  0  0  0  0
 15  3  1  0  0  0  0
 16 11  2  0  0  0  0
 17 21  2  0  0  0  0
 17 18  1  0  0  0  0
 18 20  2  0  0  0  0
 19 14  1  0  0  0  0
 19 22  2  0  0  0  0
 20 22  1  0  0  0  0
 21 19  1  0  0  0  0
 23 17  1  0  0  0  0
 24  4  1  0  0  0  0
 25 24  1  0  0  0  0
 26 25  1  0  0  0  0
 27 29  1  0  0  0  0
 27 26  1  0  0  0  0
 29 30  1  0  0  0  0
 30 28  2  0  0  0  0
 30 34  1  0  0  0  0
 31 34  2  0  0  0  0
 32 31  1  0  0  0  0
 33 29  1  0  0  0  0
 33 32  2  0  0  0  0
M  END
>  <MODEL>
6

>  <REMARK>
 VINA RESULT:      -9.0      2.733      8.477
  Name = 
  6 active torsions:
  status: ('A' for Active; 'I' for Inactive)
    1  A    between atoms: C_3  and  N_13
    2  A    between atoms: C_3  and  C_17
    3  A    between atoms: N_5  and  C_18
    4  A    between atoms: C_12  and  C_28
    5  A    between atoms: C_17  and  C_29
    6  A    between atoms: C_18  and  C_29
                            x       y       z     vdW  Elec       q    Type
                         _______ _______ _______ _____ _____    ______ ____

>  <TORSDO>
F 6

$$$$
=
 OpenBabel11052414103D

 34 38  0  0  1  0  0  0  0  0999 V2000
  187.1910  177.7060  146.6240 C   0  0  1  0  0  3  0  0  0  0  0  0
  189.4200  177.0290  145.6000 C   0  0  0  0  0  2  0  0  0  0  0  0
  187.6700  178.1190  144.1250 C   0  0  0  0  0  0  0  0  0  0  0  0
  187.9490  178.3490  141.7540 N   0  0  0  0  0  0  0  0  0  0  0  0
  189.0580  178.5770  148.1760 C   0  0  0  0  0  2  0  0  0  0  0  0
  190.0020  177.3740  148.0790 C   0  0  0  0  0  2  0  0  0  0  0  0
  189.7590  178.2790  143.1290 O   0  0  0  0  0  0  0  0  0  0  0  0
  188.2430  178.0270  145.5340 C   0  0  1  0  0  3  0  0  0  0  0  0
  187.5750  178.2170  148.0240 C   0  0  0  0  0  2  0  0  0  0  0  0
  186.2770  178.2130  143.9400 C   0  0  0  0  0  0  0  0  0  0  0  0
  185.8020  178.1510  146.2970 C   0  0  0  0  0  3  0  0  0  0  0  0
  189.6530  176.3790  146.9700 C   0  0  0  0  0  2  0  0  0  0  0  0
  186.6280  178.3780  141.5910 N   0  0  0  0  0  0  0  0  0  0  0  0
  185.7570  178.3160  142.6330 C   0  0  0  0  0  0  0  0  0  0  0  0
  188.5040  178.2450  142.9970 C   0  0  0  0  0  0  0  0  0  0  0  0
  185.4110  178.3310  145.0760 N   0  0  0  0  0  0  0  0  0  0  0  0
  182.4110  178.0710  140.8320 C   0  0  0  0  0  0  0  0  0  0  0  0
  181.5480  178.5840  141.8020 C   0  0  0  0  0  3  0  0  0  0  0  0
  184.3020  178.3800  142.3350 C   0  0  0  0  0  0  0  0  0  0  0  0
  182.0550  179.0030  143.0350 C   0  0  0  0  0  3  0  0  0  0  0  0
  183.7810  177.9750  141.0960 C   0  0  0  0  0  3  0  0  0  0  0  0
  183.4240  178.9040  143.2970 C   0  0  0  0  0  3  0  0  0  0  0  0
  181.9110  177.6580  139.6060 O   0  0  0  0  0  1  0  0  0  0  0  0
  188.7930  178.4710  140.5710 C   0  0  0  0  0  2  0  0  0  0  0  0
  188.9010  177.1280  139.8750 C   0  0  0  0  0  2  0  0  0  0  0  0
  189.3840  177.3310  138.4520 C   0  0  0  0  0  2  0  0  0  0  0  0
  188.3730  178.1480  137.6600 C   0  0  0  0  0  2  0  0  0  0  0  0
  185.8320  179.0030  138.3740 O   0  0  0  0  0  0  0  0  0  0  0  0
  187.1470  177.3840  137.4410 N   0  0  0  0  0  0  0  0  0  0  0  0
  185.9270  177.8760  137.8170 C   0  0  0  0  0  0  0  0  0  0  0  0
  184.8660  175.9290  136.9950 C   0  0  0  0  0  3  0  0  0  0  0  0
  186.0960  175.4070  136.6050 C   0  0  0  0  0  3  0  0  0  0  0  0
  187.2410  176.1660  136.8430 C   0  0  0  0  0  3  0  0  0  0  0  0
  184.8020  177.1470  137.5900 N   0  0  0  0  0  0  0  0  0  0  0  0
  1 11  1  6  0  0  0
  1  9  1  0  0  0  0
  2 12  1  0  0  0  0
  3  8  1  0  0  0  0
  4 15  1  0  0  0  0
  6  5  1  0  0  0  0
  8  2  1  6  0  0  0
  8  1  1  0  0  0  0
  9  5  1  0  0  0  0
 10  3  2  0  0  0  0
 10 16  1  0  0  0  0
 12  6  1  0  0  0  0
 13  4  1  0  0  0  0
 13 14  2  0  0  0  0
 14 10  1  0  0  0  0
 15  7  2  0  0  0  0
 15  3  1  0  0  0  0
 16 11  2  0  0  0  0
 17 21  2  0  0  0  0
 17 18  1  0  0  0  0
 18 20  2  0  0  0  0
 19 14  1  0  0  0  0
 19 22  2  0  0  0  0
 20 22  1  0  0  0  0
 21 19  1  0  0  0  0
 23 17  1  0  0  0  0
 24  4  1  0  0  0  0
 25 24  1  0  0  0  0
 26 25  1  0  0  0  0
 27 26  1  0  0  0  0
 29 27  1  0  0  0  0
 29 30  1  0  0  0  0
 30 28  2  0  0  0  0
 31 34  2  0  0  0  0
 32 33  2  0  0  0  0
 32 31  1  0  0  0  0
 33 29  1  0  0  0  0
 34 30  1  0  0  0  0
M  END
>  <MODEL>
7

>  <REMARK>
 VINA RESULT:      -8.9      2.621      7.859
  Name = 
  6 active torsions:
  status: ('A' for Active; 'I' for Inactive)
    1  A    between atoms: C_3  and  N_13
    2  A    between atoms: C_3  and  C_17
    3  A    between atoms: N_5  and  C_18
    4  A    between atoms: C_12  and  C_28
    5  A    between atoms: C_17  and  C_29
    6  A    between atoms: C_18  and  C_29
                            x       y       z     vdW  Elec       q    Type
                         _______ _______ _______ _____ _____    ______ ____

>  <TORSDO>
F 6

$$$$
=
 OpenBabel11052414103D

 34 38  0  0  1  0  0  0  0  0999 V2000
  188.9980  176.9160  146.2070 C   0  0  1  0  0  3  0  0  0  0  0  0
  190.7330  176.2720  144.4610 C   0  0  0  0  0  2  0  0  0  0  0  0
  188.7500  177.6890  143.7600 C   0  0  0  0  0  0  0  0  0  0  0  0
  188.3320  178.2720  141.4710 N   0  0  0  0  0  0  0  0  0  0  0  0
  191.3250  177.4140  147.2010 C   0  0  0  0  0  2  0  0  0  0  0  0
  192.0610  176.1850  146.6590 C   0  0  0  0  0  2  0  0  0  0  0  0
  190.4520  177.8730  142.1930 O   0  0  0  0  0  0  0  0  0  0  0  0
  189.7040  177.3400  144.8960 C   0  0  1  0  0  3  0  0  0  0  0  0
  189.8350  177.1750  147.4720 C   0  0  0  0  0  2  0  0  0  0  0  0
  187.3840  177.8980  144.0320 C   0  0  0  0  0  0  0  0  0  0  0  0
  187.6310  177.4940  146.3900 C   0  0  0  0  0  3  0  0  0  0  0  0
  191.2920  175.4010  145.5920 C   0  0  0  0  0  2  0  0  0  0  0  0
  187.0340  178.4090  141.7330 N   0  0  0  0  0  0  0  0  0  0  0  0
  186.5130  178.2380  142.9760 C   0  0  0  0  0  0  0  0  0  0  0  0
  189.2180  177.9390  142.4550 C   0  0  0  0  0  0  0  0  0  0  0  0
  186.9150  177.8880  145.3860 N   0  0  0  0  0  0  0  0  0  0  0  0
  182.7890  178.6080  142.2700 C   0  0  0  0  0  0  0  0  0  0  0  0
  182.3020  178.8910  143.5470 C   0  0  0  0  0  3  0  0  0  0  0  0
  185.0510  178.4390  143.1580 C   0  0  0  0  0  0  0  0  0  0  0  0
  183.1820  178.9580  144.6300 C   0  0  0  0  0  3  0  0  0  0  0  0
  184.1560  178.3880  142.0760 C   0  0  0  0  0  3  0  0  0  0  0  0
  184.5480  178.7370  144.4350 C   0  0  0  0  0  3  0  0  0  0  0  0
  181.9170  178.5450  141.1920 O   0  0  0  0  0  1  0  0  0  0  0  0
  188.7920  178.5260  140.1120 C   0  0  0  0  0  2  0  0  0  0  0  0
  187.7710  178.0100  139.1180 C   0  0  0  0  0  2  0  0  0  0  0  0
  188.2620  178.2650  137.7060 C   0  0  0  0  0  2  0  0  0  0  0  0
  189.7200  177.8500  137.5670 C   0  0  0  0  0  2  0  0  0  0  0  0
  190.7970  175.8340  139.1390 O   0  0  0  0  0  0  0  0  0  0  0  0
  189.8240  176.4490  137.1660 N   0  0  0  0  0  0  0  0  0  0  0  0
  190.3640  175.5090  138.0010 C   0  0  0  0  0  0  0  0  0  0  0  0
  189.9840  173.8250  136.3860 C   0  0  0  0  0  3  0  0  0  0  0  0
  189.4310  174.7630  135.5180 C   0  0  0  0  0  3  0  0  0  0  0  0
  189.3610  176.0900  135.9380 C   0  0  0  0  0  3  0  0  0  0  0  0
  190.4380  174.2110  137.6050 N   0  0  0  0  0  0  0  0  0  0  0  0
  1 11  1  1  0  0  0
  1  9  1  0  0  0  0
  2 12  1  0  0  0  0
  3 10  2  0  0  0  0
  3  8  1  0  0  0  0
  4 13  1  0  0  0  0
  4 15  1  0  0  0  0
  5  9  1  0  0  0  0
  6  5  1  0  0  0  0
  7 15  2  0  0  0  0
  8  2  1  6  0  0  0
  8  1  1  0  0  0  0
 10 16  1  0  0  0  0
 12  6  1  0  0  0  0
 13 14  2  0  0  0  0
 14 19  1  0  0  0  0
 14 10  1  0  0  0  0
 15  3  1  0  0  0  0
 16 11  2  0  0  0  0
 17 18  1  0  0  0  0
 18 20  2  0  0  0  0
 19 22  2  0  0  0  0
 21 17  2  0  0  0  0
 21 19  1  0  0  0  0
 22 20  1  0  0  0  0
 23 17  1  0  0  0  0
 24  4  1  0  0  0  0
 25 24  1  0  0  0  0
 26 25  1  0  0  0  0
 27 26  1  0  0  0  0
 29 27  1  0  0  0  0
 29 30  1  0  0  0  0
 30 28  2  0  0  0  0
 31 34  2  0  0  0  0
 32 33  2  0  0  0  0
 32 31  1  0  0  0  0
 33 29  1  0  0  0  0
 34 30  1  0  0  0  0
M  END
>  <MODEL>
8

>  <REMARK>
 VINA RESULT:      -8.8      3.083      8.129
  Name = 
  6 active torsions:
  status: ('A' for Active; 'I' for Inactive)
    1  A    between atoms: C_3  and  N_13
    2  A    between atoms: C_3  and  C_17
    3  A    between atoms: N_5  and  C_18
    4  A    between atoms: C_12  and  C_28
    5  A    between atoms: C_17  and  C_29
    6  A    between atoms: C_18  and  C_29
                            x       y       z     vdW  Elec       q    Type
                         _______ _______ _______ _____ _____    ______ ____

>  <TORSDO>
F 6

$$$$
=
 OpenBabel11052414103D

 34 38  0  0  1  0  0  0  0  0999 V2000
  189.1200  177.5690  145.9080 C   0  0  1  0  0  3  0  0  0  0  0  0
  186.9630  178.6600  146.7030 C   0  0  0  0  0  2  0  0  0  0  0  0
  187.1320  177.8790  144.2970 C   0  0  0  0  0  0  0  0  0  0  0  0
  185.4150  178.3170  142.6800 N   0  0  0  0  0  0  0  0  0  0  0  0
  188.4580  176.4540  148.1380 C   0  0  0  0  0  2  0  0  0  0  0  0
  187.9630  177.7050  148.8690 C   0  0  0  0  0  2  0  0  0  0  0  0
  184.9050  178.1490  144.8900 O   0  0  0  0  0  0  0  0  0  0  0  0
  187.5830  177.6310  145.7310 C   0  0  1  0  0  3  0  0  0  0  0  0
  189.5690  176.7300  147.1170 C   0  0  0  0  0  2  0  0  0  0  0  0
  188.0500  177.7350  143.2390 C   0  0  0  0  0  0  0  0  0  0  0  0
  189.8670  177.1250  144.6920 C   0  0  0  0  0  3  0  0  0  0  0  0
  187.7750  178.9330  147.9740 C   0  0  0  0  0  2  0  0  0  0  0  0
  186.3080  178.2340  141.6950 N   0  0  0  0  0  0  0  0  0  0  0  0
  187.6190  177.9490  141.9130 C   0  0  0  0  0  0  0  0  0  0  0  0
  185.7810  178.1240  143.9810 C   0  0  0  0  0  0  0  0  0  0  0  0
  189.3740  177.2520  143.5010 N   0  0  0  0  0  0  0  0  0  0  0  0
  189.2020  178.5570  138.5040 C   0  0  0  0  0  0  0  0  0  0  0  0
  190.2190  177.6010  138.5080 C   0  0  0  0  0  3  0  0  0  0  0  0
  188.5220  177.8580  140.7360 C   0  0  0  0  0  0  0  0  0  0  0  0
  190.3890  176.7670  139.6160 C   0  0  0  0  0  3  0  0  0  0  0  0
  188.3560  178.6810  139.6090 C   0  0  0  0  0  3  0  0  0  0  0  0
  189.5420  176.8940  140.7210 C   0  0  0  0  0  3  0  0  0  0  0  0
  189.0300  179.3830  137.4030 O   0  0  0  0  0  1  0  0  0  0  0  0
  184.0250  178.5810  142.3300 C   0  0  0  0  0  2  0  0  0  0  0  0
  183.8450  178.4860  140.8280 C   0  0  0  0  0  2  0  0  0  0  0  0
  182.7610  177.4740  140.5090 C   0  0  0  0  0  2  0  0  0  0  0  0
  181.5730  178.1580  139.8480 C   0  0  0  0  0  2  0  0  0  0  0  0
  180.8220  180.8170  139.6080 O   0  0  0  0  0  0  0  0  0  0  0  0
  180.7830  178.8900  140.8340 N   0  0  0  0  0  0  0  0  0  0  0  0
  180.4470  180.2020  140.6430 C   0  0  0  0  0  0  0  0  0  0  0  0
  179.2800  180.2270  142.7000 C   0  0  0  0  0  3  0  0  0  0  0  0
  179.6110  178.8920  142.9180 C   0  0  0  0  0  3  0  0  0  0  0  0
  180.3760  178.2350  141.9550 C   0  0  0  0  0  3  0  0  0  0  0  0
  179.7010  180.8550  141.5730 N   0  0  0  0  0  0  0  0  0  0  0  0
  1 11  1  6  0  0  0
  1  9  1  0  0  0  0
  2 12  1  0  0  0  0
  3  8  1  0  0  0  0
  4 15  1  0  0  0  0
  5  6  1  0  0  0  0
  8  1  1  0  0  0  0
  8  2  1  1  0  0  0
  9  5  1  0  0  0  0
 10 16  1  0  0  0  0
 10  3  2  0  0  0  0
 12  6  1  0  0  0  0
 13 14  2  0  0  0  0
 13  4  1  0  0  0  0
 14 10  1  0  0  0  0
 15  3  1  0  0  0  0
 15  7  2  0  0  0  0
 16 11  2  0  0  0  0
 17 18  2  0  0  0  0
 17 21  1  0  0  0  0
 18 20  1  0  0  0  0
 19 14  1  0  0  0  0
 20 22  2  0  0  0  0
 21 19  2  0  0  0  0
 22 19  1  0  0  0  0
 23 17  1  0  0  0  0
 24  4  1  0  0  0  0
 25 24  1  0  0  0  0
 26 25  1  0  0  0  0
 27 26  1  0  0  0  0
 27 29  1  0  0  0  0
 28 30  2  0  0  0  0
 29 33  1  0  0  0  0
 30 29  1  0  0  0  0
 30 34  1  0  0  0  0
 31 32  1  0  0  0  0
 33 32  2  0  0  0  0
 34 31  2  0  0  0  0
M  END
>  <MODEL>
9

>  <REMARK>
 VINA RESULT:      -8.8      2.105      7.804
  Name = 
  6 active torsions:
  status: ('A' for Active; 'I' for Inactive)
    1  A    between atoms: C_3  and  N_13
    2  A    between atoms: C_3  and  C_17
    3  A    between atoms: N_5  and  C_18
    4  A    between atoms: C_12  and  C_28
    5  A    between atoms: C_17  and  C_29
    6  A    between atoms: C_18  and  C_29
                            x       y       z     vdW  Elec       q    Type
                         _______ _______ _______ _____ _____    ______ ____

>  <TORSDO>
F 6

$$$$
