=
 OpenBabel11052416303D

 43 48  0  0  1  0  0  0  0  0999 V2000
  186.3430  178.2140  142.6040 C   0  0  0  0  0  2  0  0  0  0  0  0
  181.7860  177.8230  140.2830 C   0  0  0  0  0  0  0  0  0  0  0  0
  184.6210  179.0140  144.3090 C   0  0  0  0  0  0  0  0  0  0  0  0
  182.5520  178.5890  142.4500 C   0  0  0  0  0  0  0  0  0  0  0  0
  183.1010  177.5200  139.9210 C   0  0  0  0  0  3  0  0  0  0  0  0
  180.6780  177.5880  139.3200 C   0  0  0  0  0  1  0  0  0  0  0  0
  183.8850  178.2740  142.0970 C   0  0  0  0  0  0  0  0  0  0  0  0
  181.5120  178.3570  141.5460 C   0  0  0  0  0  3  0  0  0  0  0  0
  184.1430  177.7430  140.8210 C   0  0  0  0  0  3  0  0  0  0  0  0
  184.9280  178.4880  143.0230 C   0  0  0  0  0  0  0  0  0  0  0  0
  183.2980  179.3380  144.6200 C   0  0  0  0  0  3  0  0  0  0  0  0
  182.2700  179.1280  143.7020 C   0  0  0  0  0  3  0  0  0  0  0  0
  186.3550  178.3150  145.9020 C   0  0  0  0  0  0  0  0  0  0  0  0
  187.0740  177.3640  146.4330 C   0  0  0  0  0  3  0  0  0  0  0  0
  185.6140  179.2500  145.3770 C   0  0  0  0  0  3  0  0  0  0  0  0
  190.2430  176.8980  144.2730 C   0  0  0  0  0  2  0  0  0  0  0  0
  190.6870  176.7190  147.3460 C   0  0  0  0  0  3  0  0  0  0  0  0
  191.6740  176.6640  146.2230 C   0  0  0  0  0  2  0  0  0  0  0  0
  188.8830  177.1720  144.8150 C   0  0  0  0  0  3  0  0  0  0  0  0
  188.4870  177.1150  146.1000 C   0  0  0  0  0  0  0  0  0  0  0  0
  191.3120  177.5870  145.0820 C   0  0  0  0  0  2  0  0  0  0  0  0
  189.3620  176.8830  147.2710 C   0  0  0  0  0  3  0  0  0  0  0  0
  186.8420  179.3280  141.8120 N   0  0  0  0  0  2  0  0  0  0  0  0
  188.1830  178.9800  141.3720 C   0  0  0  0  0  2  0  0  0  0  0  0
  188.1490  177.7420  140.4820 C   0  0  1  0  0  3  0  0  0  0  0  0
  189.6760  175.4550  137.8920 F   0  0  0  0  0  0  0  0  0  0  0  0
  190.1790  176.7330  137.6890 C   0  0  2  0  0  0  0  0  0  0  0  0
  188.5580  178.0850  139.1210 N   0  0  2  0  0  0  0  0  0  0  0  0
  189.1170  176.7090  141.0240 C   0  0  0  0  0  2  0  0  0  0  0  0
  187.6060  177.4310  138.2210 C   0  0  0  0  0  2  0  0  0  0  0  0
  189.9450  177.5950  138.9490 C   0  0  1  0  0  3  0  0  0  0  0  0
  189.4660  177.3750  136.4970 C   0  0  0  0  0  2  0  0  0  0  0  0
  190.3770  176.8830  140.2220 C   0  0  0  0  0  2  0  0  0  0  0  0
  187.9880  177.6730  136.7650 C   0  0  0  0  0  2  0  0  0  0  0  0
  191.6810  176.6650  137.3990 C   0  0  0  0  0  2  0  0  0  0  0  0
  192.1310  175.2930  136.9000 C   0  0  1  0  0  3  0  0  0  0  0  0
  192.3600  175.3470  135.4000 C   0  0  0  0  0  1  0  0  0  0  0  0
  193.3680  174.8230  137.5970 C   0  0  0  0  0  0  0  0  0  0  0  0
  194.9950  173.1190  137.9670 N   0  0  0  0  0  0  0  0  0  0  0  0
  195.2140  175.1890  139.0680 N   0  0  0  0  0  0  0  0  0  0  0  0
  195.6710  173.9330  138.8200 C   0  0  0  0  0  3  0  0  0  0  0  0
  194.0840  175.6490  138.4730 C   0  0  0  0  0  3  0  0  0  0  0  0
  193.8600  173.5410  137.3520 C   0  0  0  0  0  3  0  0  0  0  0  0
  1 10  1  0  0  0  0
  2  8  1  0  0  0  0
  3 11  1  0  0  0  0
  3 15  1  0  0  0  0
  4 12  1  0  0  0  0
  5  2  2  0  0  0  0
  5  9  1  0  0  0  0
  6  2  1  0  0  0  0
  7  4  1  0  0  0  0
  7 10  1  0  0  0  0
  8  4  2  0  0  0  0
  9  7  2  0  0  0  0
 10  3  2  0  0  0  0
 12 11  2  0  0  0  0
 13 14  2  0  0  0  0
 15 13  2  0  0  0  0
 16 19  1  0  0  0  0
 16 21  1  0  0  0  0
 18 17  1  0  0  0  0
 19 20  2  0  0  0  0
 20 14  1  0  0  0  0
 20 22  1  0  0  0  0
 21 18  1  0  0  0  0
 22 17  2  0  0  0  0
 23  1  1  0  0  0  0
 24 23  1  0  0  0  0
 25 29  1  0  0  0  0
 25 24  1  1  0  0  0
 27 26  1  1  0  0  0
 27 31  1  0  0  0  0
 28 30  1  6  0  0  0
 28 25  1  0  0  0  0
 31 28  1  0  0  0  0
 31 33  1  1  0  0  0
 32 34  1  0  0  0  0
 32 27  1  0  0  0  0
 33 29  1  0  0  0  0
 34 30  1  0  0  0  0
 35 27  1  0  0  0  0
 36 37  1  6  0  0  0
 36 35  1  0  0  0  0
 36 38  1  0  0  0  0
 38 42  1  0  0  0  0
 39 41  2  0  0  0  0
 41 40  1  0  0  0  0
 42 40  2  0  0  0  0
 43 38  2  0  0  0  0
 43 39  1  0  0  0  0
M  END
>  <MODEL>
1

>  <REMARK>
 VINA RESULT:     -10.2      0.000      0.000
  Name = 
  9 active torsions:
  status: ('A' for Active; 'I' for Inactive)
    1  A    between atoms: C_2  and  C_13
    2  A    between atoms: C_4  and  C_22
    3  A    between atoms: C_8  and  C_34
    4  A    between atoms: C_11  and  C_14
    5  A    between atoms: C_13  and  N_38
    6  A    between atoms: C_14  and  C_22
    7  A    between atoms: C_27  and  C_30
    8  A    between atoms: C_27  and  N_38
    9  A    between atoms: C_28  and  C_35
                            x       y       z     vdW  Elec       q    Type
                         _______ _______ _______ _____ _____    ______ ____

>  <TORSDO>
F 9

$$$$
=
 OpenBabel11052416303D

 43 48  0  0  1  0  0  0  0  0999 V2000
  187.9920  176.9660  142.4800 C   0  0  0  0  0  2  0  0  0  0  0  0
  187.8860  177.8810  147.5250 C   0  0  0  0  0  0  0  0  0  0  0  0
  185.8410  178.2720  142.9070 C   0  0  0  0  0  0  0  0  0  0  0  0
  186.4150  178.3580  145.6600 C   0  0  0  0  0  0  0  0  0  0  0  0
  188.7890  177.2580  146.6600 C   0  0  0  0  0  3  0  0  0  0  0  0
  188.1820  177.9510  148.9800 C   0  0  0  0  0  1  0  0  0  0  0  0
  187.3280  177.7380  144.7740 C   0  0  0  0  0  0  0  0  0  0  0  0
  186.7010  178.4300  147.0260 C   0  0  0  0  0  3  0  0  0  0  0  0
  188.5120  177.1870  145.2940 C   0  0  0  0  0  3  0  0  0  0  0  0
  187.0450  177.6890  143.3930 C   0  0  0  0  0  0  0  0  0  0  0  0
  184.9480  178.8550  143.8080 C   0  0  0  0  0  3  0  0  0  0  0  0
  185.2290  178.9000  145.1730 C   0  0  0  0  0  3  0  0  0  0  0  0
  184.2200  178.1820  141.0630 C   0  0  0  0  0  0  0  0  0  0  0  0
  182.9900  178.0230  140.6560 C   0  0  0  0  0  3  0  0  0  0  0  0
  185.4470  178.3170  141.4840 C   0  0  0  0  0  3  0  0  0  0  0  0
  181.6250  180.9440  138.5280 C   0  0  0  0  0  2  0  0  0  0  0  0
  179.9340  180.2180  141.0360 C   0  0  0  0  0  3  0  0  0  0  0  0
  179.6800  181.2230  139.9580 C   0  0  0  0  0  2  0  0  0  0  0  0
  182.3570  179.7750  139.0880 C   0  0  0  0  0  3  0  0  0  0  0  0
  182.1090  179.1290  140.2410 C   0  0  0  0  0  0  0  0  0  0  0  0
  180.1310  180.7480  138.5970 C   0  0  0  0  0  2  0  0  0  0  0  0
  180.9650  179.3730  141.1470 C   0  0  0  0  0  3  0  0  0  0  0  0
  188.8970  177.9220  141.8600 N   0  0  0  0  0  2  0  0  0  0  0  0
  189.9090  177.1600  141.1460 C   0  0  0  0  0  2  0  0  0  0  0  0
  190.0530  177.6720  139.7160 C   0  0  1  0  0  3  0  0  0  0  0  0
  189.0870  177.6770  136.0640 F   0  0  0  0  0  0  0  0  0  0  0  0
  188.8220  176.4160  136.5790 C   0  0  2  0  0  0  0  0  0  0  0  0
  190.1050  176.5510  138.7800 N   0  0  2  0  0  0  0  0  0  0  0  0
  188.8530  178.5290  139.3680 C   0  0  0  0  0  2  0  0  0  0  0  0
  191.1920  176.8380  137.8420 C   0  0  0  0  0  2  0  0  0  0  0  0
  188.7800  176.4760  138.1210 C   0  0  1  0  0  3  0  0  0  0  0  0
  189.9240  175.4480  136.1400 C   0  0  0  0  0  2  0  0  0  0  0  0
  187.9130  177.6180  138.6290 C   0  0  0  0  0  2  0  0  0  0  0  0
  191.2840  175.7520  136.7760 C   0  0  0  0  0  2  0  0  0  0  0  0
  187.4750  175.9100  136.0580 C   0  0  0  0  0  2  0  0  0  0  0  0
  186.3790  176.9730  136.1060 C   0  0  1  0  0  3  0  0  0  0  0  0
  186.1450  177.5270  134.7120 C   0  0  0  0  0  1  0  0  0  0  0  0
  185.1020  176.4350  136.6710 C   0  0  0  0  0  0  0  0  0  0  0  0
  183.9040  174.6500  137.7020 N   0  0  0  0  0  0  0  0  0  0  0  0
  182.8100  176.6950  137.2920 N   0  0  0  0  0  0  0  0  0  0  0  0
  182.7870  175.4210  137.7650 C   0  0  0  0  0  3  0  0  0  0  0  0
  183.9420  177.2160  136.7530 C   0  0  0  0  0  3  0  0  0  0  0  0
  185.0560  175.1340  137.1690 C   0  0  0  0  0  3  0  0  0  0  0  0
  1 10  1  0  0  0  0
  2  6  1  0  0  0  0
  3 10  2  0  0  0  0
  3 11  1  0  0  0  0
  4  8  2  0  0  0  0
  5  2  2  0  0  0  0
  7  9  2  0  0  0  0
  7  4  1  0  0  0  0
  8  2  1  0  0  0  0
  9  5  1  0  0  0  0
 10  7  1  0  0  0  0
 11 12  2  0  0  0  0
 12  4  1  0  0  0  0
 13 15  2  0  0  0  0
 14 13  2  0  0  0  0
 15  3  1  0  0  0  0
 16 21  1  0  0  0  0
 16 19  1  0  0  0  0
 17 22  2  0  0  0  0
 18 17  1  0  0  0  0
 19 20  2  0  0  0  0
 20 14  1  0  0  0  0
 20 22  1  0  0  0  0
 21 18  1  0  0  0  0
 23  1  1  0  0  0  0
 24 23  1  0  0  0  0
 25 24  1  1  0  0  0
 27 26  1  6  0  0  0
 27 31  1  0  0  0  0
 28 30  1  6  0  0  0
 28 25  1  0  0  0  0
 29 25  1  0  0  0  0
 31 33  1  6  0  0  0
 31 28  1  0  0  0  0
 32 27  1  0  0  0  0
 32 34  1  0  0  0  0
 33 29  1  0  0  0  0
 34 30  1  0  0  0  0
 35 36  1  0  0  0  0
 35 27  1  0  0  0  0
 36 37  1  6  0  0  0
 36 38  1  0  0  0  0
 38 42  2  0  0  0  0
 38 43  1  0  0  0  0
 39 41  1  0  0  0  0
 40 41  2  0  0  0  0
 42 40  1  0  0  0  0
 43 39  2  0  0  0  0
M  END
>  <MODEL>
2

>  <REMARK>
 VINA RESULT:      -9.9      2.354      7.513
  Name = 
  9 active torsions:
  status: ('A' for Active; 'I' for Inactive)
    1  A    between atoms: C_2  and  C_13
    2  A    between atoms: C_4  and  C_22
    3  A    between atoms: C_8  and  C_34
    4  A    between atoms: C_11  and  C_14
    5  A    between atoms: C_13  and  N_38
    6  A    between atoms: C_14  and  C_22
    7  A    between atoms: C_27  and  C_30
    8  A    between atoms: C_27  and  N_38
    9  A    between atoms: C_28  and  C_35
                            x       y       z     vdW  Elec       q    Type
                         _______ _______ _______ _____ _____    ______ ____

>  <TORSDO>
F 9

$$$$
=
 OpenBabel11052416303D

 43 48  0  0  1  0  0  0  0  0999 V2000
  187.5210  177.6560  142.7350 C   0  0  0  0  0  2  0  0  0  0  0  0
  190.6920  176.7130  146.6530 C   0  0  0  0  0  0  0  0  0  0  0  0
  186.1700  178.1100  144.8510 C   0  0  0  0  0  0  0  0  0  0  0  0
  188.3770  177.3930  146.4400 C   0  0  0  0  0  0  0  0  0  0  0  0
  190.8190  176.6910  145.2620 C   0  0  0  0  0  3  0  0  0  0  0  0
  191.8540  176.3540  147.5080 C   0  0  0  0  0  1  0  0  0  0  0  0
  188.4970  177.3830  145.0310 C   0  0  0  0  0  0  0  0  0  0  0  0
  189.4730  177.0630  147.2410 C   0  0  0  0  0  3  0  0  0  0  0  0
  189.7290  177.0240  144.4560 C   0  0  0  0  0  3  0  0  0  0  0  0
  187.3940  177.7390  144.2270 C   0  0  0  0  0  0  0  0  0  0  0  0
  186.0730  178.0870  146.2440 C   0  0  0  0  0  3  0  0  0  0  0  0
  187.1650  177.7320  147.0350 C   0  0  0  0  0  3  0  0  0  0  0  0
  184.9450  178.9010  142.8730 C   0  0  0  0  0  0  0  0  0  0  0  0
  184.9540  179.2840  141.6250 C   0  0  0  0  0  3  0  0  0  0  0  0
  184.9550  178.5370  144.1250 C   0  0  0  0  0  3  0  0  0  0  0  0
  182.8470  176.7220  139.6430 C   0  0  0  0  0  2  0  0  0  0  0  0
  185.1750  178.0440  138.0600 C   0  0  0  0  0  3  0  0  0  0  0  0
  184.1240  177.0810  137.6070 C   0  0  0  0  0  2  0  0  0  0  0  0
  183.4160  177.6770  140.6340 C   0  0  0  0  0  3  0  0  0  0  0  0
  184.5160  178.4390  140.5000 C   0  0  0  0  0  0  0  0  0  0  0  0
  182.7860  177.3260  138.2630 C   0  0  0  0  0  2  0  0  0  0  0  0
  185.3350  178.5770  139.2750 C   0  0  0  0  0  3  0  0  0  0  0  0
  188.5570  178.5720  142.2810 N   0  0  0  0  0  2  0  0  0  0  0  0
  188.5060  178.5990  140.8280 C   0  0  0  0  0  2  0  0  0  0  0  0
  188.8910  177.2390  140.2550 C   0  0  1  0  0  3  0  0  0  0  0  0
  191.2110  174.9750  138.3150 F   0  0  0  0  0  0  0  0  0  0  0  0
  191.3620  176.2660  137.8290 C   0  0  2  0  0  0  0  0  0  0  0  0
  189.3110  177.3770  138.8620 N   0  0  2  0  0  0  0  0  0  0  0  0
  190.0510  176.6720  141.0490 C   0  0  0  0  0  2  0  0  0  0  0  0
  188.6590  176.2970  138.1190 C   0  0  0  0  0  2  0  0  0  0  0  0
  190.7890  177.2800  138.8430 C   0  0  1  0  0  3  0  0  0  0  0  0
  190.6120  176.3990  136.5020 C   0  0  0  0  0  2  0  0  0  0  0  0
  191.2820  177.0180  140.2590 C   0  0  0  0  0  2  0  0  0  0  0  0
  189.0910  176.3130  136.6560 C   0  0  0  0  0  2  0  0  0  0  0  0
  192.8450  176.5690  137.5990 C   0  0  0  0  0  2  0  0  0  0  0  0
  193.4740  175.6880  136.5210 C   0  0  1  0  0  3  0  0  0  0  0  0
  194.4400  176.5130  135.6890 C   0  0  0  0  0  1  0  0  0  0  0  0
  194.1760  174.5040  137.1060 C   0  0  0  0  0  0  0  0  0  0  0  0
  194.8940  172.2380  136.9090 N   0  0  0  0  0  0  0  0  0  0  0  0
  195.4590  173.4690  138.8360 N   0  0  0  0  0  0  0  0  0  0  0  0
  195.5010  172.3120  138.1230 C   0  0  0  0  0  3  0  0  0  0  0  0
  194.8160  174.5620  138.3510 C   0  0  0  0  0  3  0  0  0  0  0  0
  194.2390  173.3090  136.3900 C   0  0  0  0  0  3  0  0  0  0  0  0
  1 10  1  0  0  0  0
  2  8  1  0  0  0  0
  2  6  1  0  0  0  0
  3 11  1  0  0  0  0
  4 12  1  0  0  0  0
  4  8  2  0  0  0  0
  5  2  2  0  0  0  0
  7  4  1  0  0  0  0
  9  7  2  0  0  0  0
  9  5  1  0  0  0  0
 10  3  2  0  0  0  0
 10  7  1  0  0  0  0
 11 12  2  0  0  0  0
 13 15  2  0  0  0  0
 14 13  2  0  0  0  0
 15  3  1  0  0  0  0
 16 19  1  0  0  0  0
 17 22  2  0  0  0  0
 18 17  1  0  0  0  0
 18 21  1  0  0  0  0
 20 19  2  0  0  0  0
 20 14  1  0  0  0  0
 21 16  1  0  0  0  0
 22 20  1  0  0  0  0
 23  1  1  0  0  0  0
 24 23  1  0  0  0  0
 25 24  1  1  0  0  0
 25 29  1  0  0  0  0
 27 26  1  1  0  0  0
 27 31  1  0  0  0  0
 28 30  1  6  0  0  0
 28 25  1  0  0  0  0
 31 28  1  0  0  0  0
 31 33  1  1  0  0  0
 32 34  1  0  0  0  0
 32 27  1  0  0  0  0
 33 29  1  0  0  0  0
 34 30  1  0  0  0  0
 35 27  1  0  0  0  0
 36 37  1  1  0  0  0
 36 38  1  0  0  0  0
 36 35  1  0  0  0  0
 38 42  1  0  0  0  0
 39 41  2  0  0  0  0
 41 40  1  0  0  0  0
 42 40  2  0  0  0  0
 43 39  1  0  0  0  0
 43 38  2  0  0  0  0
M  END
>  <MODEL>
3

>  <REMARK>
 VINA RESULT:      -9.8      1.327      5.711
  Name = 
  9 active torsions:
  status: ('A' for Active; 'I' for Inactive)
    1  A    between atoms: C_2  and  C_13
    2  A    between atoms: C_4  and  C_22
    3  A    between atoms: C_8  and  C_34
    4  A    between atoms: C_11  and  C_14
    5  A    between atoms: C_13  and  N_38
    6  A    between atoms: C_14  and  C_22
    7  A    between atoms: C_27  and  C_30
    8  A    between atoms: C_27  and  N_38
    9  A    between atoms: C_28  and  C_35
                            x       y       z     vdW  Elec       q    Type
                         _______ _______ _______ _____ _____    ______ ____

>  <TORSDO>
F 9

$$$$
=
 OpenBabel11052416303D

 43 48  0  0  1  0  0  0  0  0999 V2000
  186.7450  177.8820  141.9980 C   0  0  0  0  0  2  0  0  0  0  0  0
  187.5930  177.6950  147.0520 C   0  0  0  0  0  0  0  0  0  0  0  0
  184.6130  178.7560  143.0960 C   0  0  0  0  0  0  0  0  0  0  0  0
  185.7310  178.3420  145.6440 C   0  0  0  0  0  0  0  0  0  0  0  0
  188.3540  177.3990  145.9190 C   0  0  0  0  0  3  0  0  0  0  0  0
  188.1730  177.4990  148.4070 C   0  0  0  0  0  1  0  0  0  0  0  0
  186.4970  178.0550  144.4900 C   0  0  0  0  0  0  0  0  0  0  0  0
  186.2830  178.1650  146.9150 C   0  0  0  0  0  3  0  0  0  0  0  0
  187.8090  177.5780  144.6460 C   0  0  0  0  0  3  0  0  0  0  0  0
  185.9420  178.2580  143.2080 C   0  0  0  0  0  0  0  0  0  0  0  0
  183.8730  179.0070  144.2530 C   0  0  0  0  0  3  0  0  0  0  0  0
  184.4230  178.8030  145.5180 C   0  0  0  0  0  3  0  0  0  0  0  0
  183.6420  178.1370  140.9260 C   0  0  0  0  0  0  0  0  0  0  0  0
  183.3790  177.2210  140.0330 C   0  0  0  0  0  3  0  0  0  0  0  0
  183.9320  179.0430  141.8170 C   0  0  0  0  0  3  0  0  0  0  0  0
  180.6720  174.8010  138.7140 C   0  0  0  0  0  2  0  0  0  0  0  0
  179.6660  176.9710  140.7020 C   0  0  0  0  0  3  0  0  0  0  0  0
  178.9320  175.8390  140.0560 C   0  0  0  0  0  2  0  0  0  0  0  0
  181.9260  175.5170  139.0770 C   0  0  0  0  0  3  0  0  0  0  0  0
  182.0480  176.6220  139.8350 C   0  0  0  0  0  0  0  0  0  0  0  0
  179.7810  174.5980  139.9140 C   0  0  0  0  0  2  0  0  0  0  0  0
  180.9570  177.2930  140.5770 C   0  0  0  0  0  3  0  0  0  0  0  0
  187.3260  179.0790  141.4080 N   0  0  0  0  0  2  0  0  0  0  0  0
  188.7510  178.8360  141.2510 C   0  0  0  0  0  2  0  0  0  0  0  0
  188.9930  177.4880  140.5810 C   0  0  1  0  0  3  0  0  0  0  0  0
  191.0760  175.1330  138.4860 F   0  0  0  0  0  0  0  0  0  0  0  0
  191.3710  176.4320  138.0970 C   0  0  2  0  0  0  0  0  0  0  0  0
  189.4410  177.6810  139.2030 N   0  0  2  0  0  0  0  0  0  0  0  0
  190.0770  176.7420  141.3340 C   0  0  0  0  0  2  0  0  0  0  0  0
  188.6840  176.7340  138.3810 C   0  0  0  0  0  2  0  0  0  0  0  0
  190.9000  177.4250  139.1810 C   0  0  1  0  0  3  0  0  0  0  0  0
  190.6530  176.7420  136.7810 C   0  0  0  0  0  2  0  0  0  0  0  0
  191.3470  177.0100  140.5750 C   0  0  0  0  0  2  0  0  0  0  0  0
  189.1300  176.8100  136.9240 C   0  0  0  0  0  2  0  0  0  0  0  0
  192.8800  176.5880  137.8930 C   0  0  0  0  0  2  0  0  0  0  0  0
  193.4130  175.7670  136.7210 C   0  0  1  0  0  3  0  0  0  0  0  0
  194.1760  176.6730  135.7700 C   0  0  0  0  0  1  0  0  0  0  0  0
  194.2860  174.6410  137.1760 C   0  0  0  0  0  0  0  0  0  0  0  0
  195.5680  172.6980  136.6590 N   0  0  0  0  0  0  0  0  0  0  0  0
  195.4940  173.4810  138.8790 N   0  0  0  0  0  0  0  0  0  0  0  0
  195.9360  172.5800  137.9620 C   0  0  0  0  0  3  0  0  0  0  0  0
  194.6840  174.5070  138.5120 C   0  0  0  0  0  3  0  0  0  0  0  0
  194.7570  173.7100  136.2520 C   0  0  0  0  0  3  0  0  0  0  0  0
  1 10  1  0  0  0  0
  2  6  1  0  0  0  0
  3 10  2  0  0  0  0
  3 11  1  0  0  0  0
  4  8  2  0  0  0  0
  5  2  2  0  0  0  0
  7  9  2  0  0  0  0
  7  4  1  0  0  0  0
  8  2  1  0  0  0  0
  9  5  1  0  0  0  0
 10  7  1  0  0  0  0
 11 12  2  0  0  0  0
 12  4  1  0  0  0  0
 13 15  2  0  0  0  0
 14 13  2  0  0  0  0
 15  3  1  0  0  0  0
 16 19  1  0  0  0  0
 16 21  1  0  0  0  0
 18 17  1  0  0  0  0
 19 20  2  0  0  0  0
 20 14  1  0  0  0  0
 20 22  1  0  0  0  0
 21 18  1  0  0  0  0
 22 17  2  0  0  0  0
 23  1  1  0  0  0  0
 24 23  1  0  0  0  0
 25 24  1  1  0  0  0
 25 29  1  0  0  0  0
 27 26  1  1  0  0  0
 27 31  1  0  0  0  0
 28 30  1  6  0  0  0
 28 25  1  0  0  0  0
 31 28  1  0  0  0  0
 31 33  1  1  0  0  0
 32 34  1  0  0  0  0
 32 27  1  0  0  0  0
 33 29  1  0  0  0  0
 34 30  1  0  0  0  0
 35 27  1  0  0  0  0
 36 37  1  6  0  0  0
 36 38  1  0  0  0  0
 36 35  1  0  0  0  0
 38 42  1  0  0  0  0
 39 41  2  0  0  0  0
 41 40  1  0  0  0  0
 42 40  2  0  0  0  0
 43 39  1  0  0  0  0
 43 38  2  0  0  0  0
M  END
>  <MODEL>
4

>  <REMARK>
 VINA RESULT:      -9.7      1.403      5.884
  Name = 
  9 active torsions:
  status: ('A' for Active; 'I' for Inactive)
    1  A    between atoms: C_2  and  C_13
    2  A    between atoms: C_4  and  C_22
    3  A    between atoms: C_8  and  C_34
    4  A    between atoms: C_11  and  C_14
    5  A    between atoms: C_13  and  N_38
    6  A    between atoms: C_14  and  C_22
    7  A    between atoms: C_27  and  C_30
    8  A    between atoms: C_27  and  N_38
    9  A    between atoms: C_28  and  C_35
                            x       y       z     vdW  Elec       q    Type
                         _______ _______ _______ _____ _____    ______ ____

>  <TORSDO>
F 9

$$$$
=
 OpenBabel11052416303D

 43 48  0  0  1  0  0  0  0  0999 V2000
  189.3440  178.2130  136.8230 C   0  0  0  0  0  2  0  0  0  0  0  0
  192.9560  174.6440  137.5400 C   0  0  0  0  0  0  0  0  0  0  0  0
  188.3070  176.0080  136.0630 C   0  0  0  0  0  0  0  0  0  0  0  0
  190.6980  174.6530  136.6630 C   0  0  0  0  0  0  0  0  0  0  0  0
  192.8720  176.0170  137.7830 C   0  0  0  0  0  3  0  0  0  0  0  0
  194.2060  173.9080  137.8680 C   0  0  0  0  0  1  0  0  0  0  0  0
  190.5990  176.0410  136.9150 C   0  0  0  0  0  0  0  0  0  0  0  0
  191.8710  173.9630  136.9810 C   0  0  0  0  0  3  0  0  0  0  0  0
  191.7020  176.7110  137.4730 C   0  0  0  0  0  3  0  0  0  0  0  0
  189.4040  176.7280  136.6140 C   0  0  0  0  0  0  0  0  0  0  0  0
  188.4420  174.6430  135.8030 C   0  0  0  0  0  3  0  0  0  0  0  0
  189.6260  173.9670  136.0990 C   0  0  0  0  0  3  0  0  0  0  0  0
  185.8840  176.2920  136.3460 C   0  0  0  0  0  0  0  0  0  0  0  0
  184.7760  175.9550  136.9510 C   0  0  0  0  0  3  0  0  0  0  0  0
  186.9940  176.6020  135.7380 C   0  0  0  0  0  3  0  0  0  0  0  0
  182.2520  176.9420  139.7050 C   0  0  0  0  0  2  0  0  0  0  0  0
  184.5310  178.9950  139.1860 C   0  0  0  0  0  3  0  0  0  0  0  0
  183.4370  179.0030  140.2070 C   0  0  0  0  0  2  0  0  0  0  0  0
  183.0710  176.2650  138.6610 C   0  0  0  0  0  3  0  0  0  0  0  0
  184.1300  176.7640  137.9980 C   0  0  0  0  0  0  0  0  0  0  0  0
  183.1190  177.6230  140.7330 C   0  0  0  0  0  2  0  0  0  0  0  0
  184.7850  178.0650  138.2600 C   0  0  0  0  0  3  0  0  0  0  0  0
  188.5040  178.5100  137.9730 N   0  0  0  0  0  2  0  0  0  0  0  0
  189.3800  178.6560  139.1240 C   0  0  0  0  0  2  0  0  0  0  0  0
  189.1620  177.5130  140.1110 C   0  0  1  0  0  3  0  0  0  0  0  0
  188.5600  176.1880  143.5970 F   0  0  0  0  0  0  0  0  0  0  0  0
  189.2390  177.3930  143.7050 C   0  0  2  0  0  0  0  0  0  0  0  0
  190.0060  177.6940  141.2900 N   0  0  2  0  0  0  0  0  0  0  0  0
  187.7130  177.5070  140.5570 C   0  0  0  0  0  2  0  0  0  0  0  0
  190.6060  176.3900  141.5800 C   0  0  0  0  0  2  0  0  0  0  0  0
  189.1280  178.1790  142.3810 C   0  0  1  0  0  3  0  0  0  0  0  0
  190.7140  177.1190  144.0080 C   0  0  0  0  0  2  0  0  0  0  0  0
  187.6960  178.2430  141.8680 C   0  0  0  0  0  2  0  0  0  0  0  0
  191.4570  176.4590  142.8430 C   0  0  0  0  0  2  0  0  0  0  0  0
  188.6420  178.2310  144.8390 C   0  0  0  0  0  2  0  0  0  0  0  0
  187.5810  177.4800  145.6410 C   0  0  1  0  0  3  0  0  0  0  0  0
  187.9310  177.5300  147.1180 C   0  0  0  0  0  1  0  0  0  0  0  0
  186.2110  178.0350  145.4140 C   0  0  0  0  0  0  0  0  0  0  0  0
  184.4130  178.5210  143.9250 N   0  0  0  0  0  0  0  0  0  0  0  0
  184.1800  179.0020  146.2190 N   0  0  0  0  0  0  0  0  0  0  0  0
  183.6720  179.0010  144.9580 C   0  0  0  0  0  3  0  0  0  0  0  0
  185.4270  178.5270  146.4660 C   0  0  0  0  0  3  0  0  0  0  0  0
  185.6650  178.0370  144.1310 C   0  0  0  0  0  3  0  0  0  0  0  0
  1 23  1  0  0  0  0
  2  5  1  0  0  0  0
  2  6  1  0  0  0  0
  3 10  1  0  0  0  0
  4  7  1  0  0  0  0
  4  8  1  0  0  0  0
  7  9  1  0  0  0  0
  8  2  2  0  0  0  0
  9  5  2  0  0  0  0
 10  1  1  0  0  0  0
 10  7  2  0  0  0  0
 11  3  2  0  0  0  0
 11 12  1  0  0  0  0
 12  4  2  0  0  0  0
 13 14  2  0  0  0  0
 14 20  1  0  0  0  0
 15  3  1  0  0  0  0
 15 13  2  0  0  0  0
 16 21  1  0  0  0  0
 17 18  1  0  0  0  0
 18 21  1  0  0  0  0
 19 16  1  0  0  0  0
 20 22  1  0  0  0  0
 20 19  2  0  0  0  0
 22 17  2  0  0  0  0
 23 24  1  0  0  0  0
 25 24  1  6  0  0  0
 25 29  1  0  0  0  0
 25 28  1  0  0  0  0
 27 26  1  6  0  0  0
 27 32  1  0  0  0  0
 27 35  1  0  0  0  0
 28 30  1  1  0  0  0
 28 31  1  0  0  0  0
 29 33  1  0  0  0  0
 30 34  1  0  0  0  0
 31 33  1  6  0  0  0
 31 27  1  0  0  0  0
 34 32  1  0  0  0  0
 35 36  1  0  0  0  0
 36 37  1  1  0  0  0
 38 36  1  0  0  0  0
 38 42  1  0  0  0  0
 39 43  1  0  0  0  0
 39 41  2  0  0  0  0
 40 42  2  0  0  0  0
 41 40  1  0  0  0  0
 43 38  2  0  0  0  0
M  END
>  <MODEL>
5

>  <REMARK>
 VINA RESULT:      -9.5      2.263      9.434
  Name = 
  9 active torsions:
  status: ('A' for Active; 'I' for Inactive)
    1  A    between atoms: C_2  and  C_13
    2  A    between atoms: C_4  and  C_22
    3  A    between atoms: C_8  and  C_34
    4  A    between atoms: C_11  and  C_14
    5  A    between atoms: C_13  and  N_38
    6  A    between atoms: C_14  and  C_22
    7  A    between atoms: C_27  and  C_30
    8  A    between atoms: C_27  and  N_38
    9  A    between atoms: C_28  and  C_35
                            x       y       z     vdW  Elec       q    Type
                         _______ _______ _______ _____ _____    ______ ____

>  <TORSDO>
F 9

$$$$
=
 OpenBabel11052416303D

 43 48  0  0  1  0  0  0  0  0999 V2000
  187.5060  177.5530  142.1090 C   0  0  0  0  0  2  0  0  0  0  0  0
  187.7330  177.8300  147.2250 C   0  0  0  0  0  0  0  0  0  0  0  0
  185.2280  178.4240  142.8630 C   0  0  0  0  0  0  0  0  0  0  0  0
  186.0380  178.2750  145.5530 C   0  0  0  0  0  0  0  0  0  0  0  0
  188.6360  177.4720  146.2210 C   0  0  0  0  0  3  0  0  0  0  0  0
  188.1490  177.7740  148.6510 C   0  0  0  0  0  1  0  0  0  0  0  0
  186.9480  177.9250  144.5280 C   0  0  0  0  0  0  0  0  0  0  0  0
  186.4360  178.2300  146.8910 C   0  0  0  0  0  3  0  0  0  0  0  0
  188.2470  177.5200  144.8820 C   0  0  0  0  0  3  0  0  0  0  0  0
  186.5480  177.9940  143.1770 C   0  0  0  0  0  0  0  0  0  0  0  0
  184.3440  178.7400  143.8960 C   0  0  0  0  0  3  0  0  0  0  0  0
  184.7420  178.6680  145.2310 C   0  0  0  0  0  3  0  0  0  0  0  0
  183.4790  178.2750  141.1440 C   0  0  0  0  0  0  0  0  0  0  0  0
  182.2590  177.9510  140.8080 C   0  0  0  0  0  3  0  0  0  0  0  0
  184.7000  178.5730  141.4910 C   0  0  0  0  0  3  0  0  0  0  0  0
  178.9300  179.8150  141.4210 C   0  0  0  0  0  2  0  0  0  0  0  0
  180.6530  180.8990  139.0680 C   0  0  0  0  0  3  0  0  0  0  0  0
  179.3650  181.4060  139.6360 C   0  0  0  0  0  2  0  0  0  0  0  0
  180.1420  178.9510  141.4780 C   0  0  0  0  0  3  0  0  0  0  0  0
  181.1720  178.9260  140.6130 C   0  0  0  0  0  0  0  0  0  0  0  0
  179.2870  181.2520  141.1370 C   0  0  0  0  0  2  0  0  0  0  0  0
  181.3750  179.8500  139.4750 C   0  0  0  0  0  3  0  0  0  0  0  0
  188.3840  178.6570  141.7540 N   0  0  0  0  0  2  0  0  0  0  0  0
  188.5920  178.6000  140.3160 C   0  0  0  0  0  2  0  0  0  0  0  0
  189.0500  177.2060  139.8980 C   0  0  1  0  0  3  0  0  0  0  0  0
  191.5070  174.8600  138.2470 F   0  0  0  0  0  0  0  0  0  0  0  0
  191.6100  176.0980  137.6270 C   0  0  2  0  0  0  0  0  0  0  0  0
  189.4910  177.2150  138.5040 N   0  0  2  0  0  0  0  0  0  0  0  0
  190.2180  176.7820  140.7650 C   0  0  0  0  0  2  0  0  0  0  0  0
  188.9030  176.0320  137.8720 C   0  0  0  0  0  2  0  0  0  0  0  0
  190.9720  177.1850  138.5180 C   0  0  1  0  0  3  0  0  0  0  0  0
  190.8810  176.0540  136.2820 C   0  0  0  0  0  2  0  0  0  0  0  0
  191.4480  177.1000  139.9610 C   0  0  0  0  0  2  0  0  0  0  0  0
  189.3620  175.9130  136.4230 C   0  0  0  0  0  2  0  0  0  0  0  0
  193.0820  176.4440  137.3880 C   0  0  0  0  0  2  0  0  0  0  0  0
  193.7510  175.5290  136.3630 C   0  0  1  0  0  3  0  0  0  0  0  0
  194.8280  176.3010  135.6200 C   0  0  0  0  0  1  0  0  0  0  0  0
  194.3350  174.3080  137.0000 C   0  0  0  0  0  0  0  0  0  0  0  0
  194.7020  171.9520  136.9690 N   0  0  0  0  0  0  0  0  0  0  0  0
  195.6300  173.2460  138.7040 N   0  0  0  0  0  0  0  0  0  0  0  0
  195.4340  172.0390  138.1100 C   0  0  0  0  0  3  0  0  0  0  0  0
  195.1010  174.3780  138.1710 C   0  0  0  0  0  3  0  0  0  0  0  0
  194.1550  173.0600  136.4050 C   0  0  0  0  0  3  0  0  0  0  0  0
  1 10  1  0  0  0  0
  2  6  1  0  0  0  0
  3 10  2  0  0  0  0
  3 11  1  0  0  0  0
  4  8  2  0  0  0  0
  5  2  2  0  0  0  0
  7  9  2  0  0  0  0
  7  4  1  0  0  0  0
  8  2  1  0  0  0  0
  9  5  1  0  0  0  0
 10  7  1  0  0  0  0
 11 12  2  0  0  0  0
 12  4  1  0  0  0  0
 13 15  2  0  0  0  0
 14 13  2  0  0  0  0
 15  3  1  0  0  0  0
 16 19  1  0  0  0  0
 17 22  2  0  0  0  0
 17 18  1  0  0  0  0
 18 21  1  0  0  0  0
 20 14  1  0  0  0  0
 20 19  2  0  0  0  0
 21 16  1  0  0  0  0
 22 20  1  0  0  0  0
 23  1  1  0  0  0  0
 24 23  1  0  0  0  0
 25 24  1  1  0  0  0
 25 29  1  0  0  0  0
 27 26  1  1  0  0  0
 27 31  1  0  0  0  0
 28 30  1  6  0  0  0
 28 31  1  0  0  0  0
 28 25  1  0  0  0  0
 31 33  1  1  0  0  0
 32 34  1  0  0  0  0
 32 27  1  0  0  0  0
 33 29  1  0  0  0  0
 34 30  1  0  0  0  0
 35 27  1  0  0  0  0
 36 37  1  1  0  0  0
 36 38  1  0  0  0  0
 36 35  1  0  0  0  0
 38 42  1  0  0  0  0
 39 41  2  0  0  0  0
 41 40  1  0  0  0  0
 42 40  2  0  0  0  0
 43 39  1  0  0  0  0
 43 38  2  0  0  0  0
M  END
>  <MODEL>
6

>  <REMARK>
 VINA RESULT:      -9.4      1.651      6.163
  Name = 
  9 active torsions:
  status: ('A' for Active; 'I' for Inactive)
    1  A    between atoms: C_2  and  C_13
    2  A    between atoms: C_4  and  C_22
    3  A    between atoms: C_8  and  C_34
    4  A    between atoms: C_11  and  C_14
    5  A    between atoms: C_13  and  N_38
    6  A    between atoms: C_14  and  C_22
    7  A    between atoms: C_27  and  C_30
    8  A    between atoms: C_27  and  N_38
    9  A    between atoms: C_28  and  C_35
                            x       y       z     vdW  Elec       q    Type
                         _______ _______ _______ _____ _____    ______ ____

>  <TORSDO>
F 9

$$$$
=
 OpenBabel11052416303D

 43 48  0  0  1  0  0  0  0  0999 V2000
  185.3010  178.9640  142.8220 C   0  0  0  0  0  2  0  0  0  0  0  0
  187.6170  177.7580  147.2350 C   0  0  0  0  0  0  0  0  0  0  0  0
  187.5650  177.9810  142.1750 C   0  0  0  0  0  0  0  0  0  0  0  0
  188.2130  177.6330  144.8900 C   0  0  0  0  0  0  0  0  0  0  0  0
  186.3700  178.2890  146.8950 C   0  0  0  0  0  3  0  0  0  0  0  0
  187.9700  177.5520  148.6640 C   0  0  0  0  0  1  0  0  0  0  0  0
  186.9490  178.1600  144.5350 C   0  0  0  0  0  0  0  0  0  0  0  0
  188.5370  177.4320  146.2350 C   0  0  0  0  0  3  0  0  0  0  0  0
  186.0380  178.4880  145.5540 C   0  0  0  0  0  3  0  0  0  0  0  0
  186.6180  178.3400  143.1750 C   0  0  0  0  0  0  0  0  0  0  0  0
  188.8140  177.4860  142.5570 C   0  0  0  0  0  3  0  0  0  0  0  0
  189.1390  177.3120  143.9020 C   0  0  0  0  0  3  0  0  0  0  0  0
  188.2700  178.2890  139.8420 C   0  0  0  0  0  0  0  0  0  0  0  0
  189.2220  178.5140  138.9760 C   0  0  0  0  0  3  0  0  0  0  0  0
  187.3280  178.0870  140.7210 C   0  0  0  0  0  3  0  0  0  0  0  0
  191.3220  175.4240  137.9920 C   0  0  0  0  0  2  0  0  0  0  0  0
  189.7290  176.7480  135.6720 C   0  0  0  0  0  3  0  0  0  0  0  0
  190.5750  175.5140  135.6820 C   0  0  0  0  0  2  0  0  0  0  0  0
  190.5870  176.5190  138.6840 C   0  0  0  0  0  3  0  0  0  0  0  0
  189.8220  177.4740  138.1240 C   0  0  0  0  0  0  0  0  0  0  0  0
  190.4550  174.7340  136.9700 C   0  0  0  0  0  2  0  0  0  0  0  0
  189.4490  177.5620  136.6940 C   0  0  0  0  0  3  0  0  0  0  0  0
  184.3770  177.9330  142.3710 N   0  0  0  0  0  2  0  0  0  0  0  0
  183.2760  178.6020  141.6990 C   0  0  0  0  0  2  0  0  0  0  0  0
  183.2670  178.2550  140.2130 C   0  0  1  0  0  3  0  0  0  0  0  0
  181.8970  178.6230  136.7120 F   0  0  0  0  0  0  0  0  0  0  0  0
  180.8760  178.9090  137.6070 C   0  0  2  0  0  0  0  0  0  0  0  0
  181.9000  178.0030  139.7610 N   0  0  2  0  0  0  0  0  0  0  0  0
  183.8230  179.4220  139.4230 C   0  0  0  0  0  2  0  0  0  0  0  0
  181.9480  176.7940  138.9360 C   0  0  0  0  0  2  0  0  0  0  0  0
  181.4670  179.2000  139.0030 C   0  0  1  0  0  3  0  0  0  0  0  0
  179.9310  177.7080  137.6980 C   0  0  0  0  0  2  0  0  0  0  0  0
  182.6220  180.1890  138.9440 C   0  0  0  0  0  2  0  0  0  0  0  0
  180.5730  176.4830  138.3560 C   0  0  0  0  0  2  0  0  0  0  0  0
  180.0870  180.1310  137.1290 C   0  0  0  0  0  2  0  0  0  0  0  0
  180.7190  180.8120  135.9160 C   0  0  1  0  0  3  0  0  0  0  0  0
  179.9640  180.4140  134.6600 C   0  0  0  0  0  1  0  0  0  0  0  0
  180.7400  182.3010  136.0580 C   0  0  0  0  0  0  0  0  0  0  0  0
  180.8590  184.2290  137.4570 N   0  0  0  0  0  0  0  0  0  0  0  0
  180.7640  184.4970  135.1190 N   0  0  0  0  0  0  0  0  0  0  0  0
  180.8320  185.0370  136.3650 C   0  0  0  0  0  3  0  0  0  0  0  0
  180.7230  183.1510  134.9450 C   0  0  0  0  0  3  0  0  0  0  0  0
  180.8180  182.8770  137.3260 C   0  0  0  0  0  3  0  0  0  0  0  0
  1 10  1  0  0  0  0
  2  6  1  0  0  0  0
  3 11  2  0  0  0  0
  3 10  1  0  0  0  0
  4  8  1  0  0  0  0
  5  2  1  0  0  0  0
  7  4  1  0  0  0  0
  7  9  1  0  0  0  0
  8  2  2  0  0  0  0
  9  5  2  0  0  0  0
 10  7  2  0  0  0  0
 11 12  1  0  0  0  0
 12  4  2  0  0  0  0
 13 15  2  0  0  0  0
 14 13  2  0  0  0  0
 15  3  1  0  0  0  0
 16 19  1  0  0  0  0
 17 18  1  0  0  0  0
 17 22  2  0  0  0  0
 18 21  1  0  0  0  0
 20 19  2  0  0  0  0
 20 14  1  0  0  0  0
 21 16  1  0  0  0  0
 22 20  1  0  0  0  0
 23  1  1  0  0  0  0
 24 23  1  0  0  0  0
 25 24  1  1  0  0  0
 27 26  1  6  0  0  0
 27 32  1  0  0  0  0
 27 31  1  0  0  0  0
 28 30  1  6  0  0  0
 28 25  1  0  0  0  0
 29 25  1  0  0  0  0
 31 33  1  6  0  0  0
 31 28  1  0  0  0  0
 32 34  1  0  0  0  0
 33 29  1  0  0  0  0
 34 30  1  0  0  0  0
 35 27  1  0  0  0  0
 36 37  1  6  0  0  0
 36 38  1  0  0  0  0
 36 35  1  0  0  0  0
 38 43  1  0  0  0  0
 40 41  2  0  0  0  0
 41 39  1  0  0  0  0
 42 40  1  0  0  0  0
 42 38  2  0  0  0  0
 43 39  2  0  0  0  0
M  END
>  <MODEL>
7

>  <REMARK>
 VINA RESULT:      -9.4      3.739      9.749
  Name = 
  9 active torsions:
  status: ('A' for Active; 'I' for Inactive)
    1  A    between atoms: C_2  and  C_13
    2  A    between atoms: C_4  and  C_22
    3  A    between atoms: C_8  and  C_34
    4  A    between atoms: C_11  and  C_14
    5  A    between atoms: C_13  and  N_38
    6  A    between atoms: C_14  and  C_22
    7  A    between atoms: C_27  and  C_30
    8  A    between atoms: C_27  and  N_38
    9  A    between atoms: C_28  and  C_35
                            x       y       z     vdW  Elec       q    Type
                         _______ _______ _______ _____ _____    ______ ____

>  <TORSDO>
F 9

$$$$
=
 OpenBabel11052416303D

 43 48  0  0  1  0  0  0  0  0999 V2000
  189.1370  178.6980  137.5490 C   0  0  0  0  0  2  0  0  0  0  0  0
  184.6080  176.3010  137.3510 C   0  0  0  0  0  0  0  0  0  0  0  0
  189.6250  176.3580  136.6570 C   0  0  0  0  0  0  0  0  0  0  0  0
  186.8990  175.6900  136.8570 C   0  0  0  0  0  0  0  0  0  0  0  0
  185.0220  177.5870  137.7070 C   0  0  0  0  0  3  0  0  0  0  0  0
  183.1690  175.9360  137.4340 C   0  0  0  0  0  1  0  0  0  0  0  0
  187.3280  176.9930  137.2050 C   0  0  0  0  0  0  0  0  0  0  0  0
  185.5450  175.3540  136.9280 C   0  0  0  0  0  3  0  0  0  0  0  0
  186.3720  177.9300  137.6340 C   0  0  0  0  0  3  0  0  0  0  0  0
  188.6940  177.3340  137.1100 C   0  0  0  0  0  0  0  0  0  0  0  0
  189.1760  175.0730  136.3440 C   0  0  0  0  0  3  0  0  0  0  0  0
  187.8260  174.7380  136.4420 C   0  0  0  0  0  3  0  0  0  0  0  0
  191.9970  176.0540  137.2200 C   0  0  0  0  0  0  0  0  0  0  0  0
  192.9110  175.5180  137.9840 C   0  0  0  0  0  3  0  0  0  0  0  0
  191.0720  176.5990  136.4800 C   0  0  0  0  0  3  0  0  0  0  0  0
  195.9390  173.1210  137.8760 C   0  0  0  0  0  2  0  0  0  0  0  0
  193.5140  172.2870  136.1160 C   0  0  0  0  0  3  0  0  0  0  0  0
  194.8060  171.5800  136.3780 C   0  0  0  0  0  2  0  0  0  0  0  0
  194.9390  174.1850  138.1720 C   0  0  0  0  0  3  0  0  0  0  0  0
  193.7380  174.3640  137.5940 C   0  0  0  0  0  0  0  0  0  0  0  0
  195.2940  171.7610  137.7960 C   0  0  0  0  0  2  0  0  0  0  0  0
  193.1000  173.4570  136.6130 C   0  0  0  0  0  3  0  0  0  0  0  0
  189.0020  178.8130  138.9940 N   0  0  0  0  0  2  0  0  0  0  0  0
  190.1670  178.1770  139.5890 C   0  0  0  0  0  2  0  0  0  0  0  0
  189.7380  177.1300  140.6120 C   0  0  1  0  0  3  0  0  0  0  0  0
  188.6330  176.1110  144.0770 F   0  0  0  0  0  0  0  0  0  0  0  0
  189.3990  177.2620  144.1900 C   0  0  2  0  0  0  0  0  0  0  0  0
  190.4570  177.3270  141.8690 N   0  0  2  0  0  0  0  0  0  0  0  0
  188.2540  177.2720  140.8830 C   0  0  0  0  0  2  0  0  0  0  0  0
  190.9030  176.0030  142.3080 C   0  0  0  0  0  2  0  0  0  0  0  0
  189.5080  177.9580  142.8160 C   0  0  1  0  0  3  0  0  0  0  0  0
  190.8010  176.8920  144.6820 C   0  0  0  0  0  2  0  0  0  0  0  0
  188.1550  178.1000  142.1340 C   0  0  0  0  0  2  0  0  0  0  0  0
  191.6090  176.0930  143.6570 C   0  0  0  0  0  2  0  0  0  0  0  0
  188.7550  178.2250  145.1910 C   0  0  0  0  0  2  0  0  0  0  0  0
  187.6620  177.5670  146.0330 C   0  0  1  0  0  3  0  0  0  0  0  0
  187.9260  177.8320  147.5050 C   0  0  0  0  0  1  0  0  0  0  0  0
  186.2980  178.0500  145.6560 C   0  0  0  0  0  0  0  0  0  0  0  0
  184.6100  178.3450  143.9980 N   0  0  0  0  0  0  0  0  0  0  0  0
  184.1810  179.0030  146.2180 N   0  0  0  0  0  0  0  0  0  0  0  0
  183.7740  178.8800  144.9270 C   0  0  0  0  0  3  0  0  0  0  0  0
  185.4180  178.5960  146.6000 C   0  0  0  0  0  3  0  0  0  0  0  0
  185.8570  177.9270  144.3390 C   0  0  0  0  0  3  0  0  0  0  0  0
  1 23  1  0  0  0  0
  2  6  1  0  0  0  0
  2  5  1  0  0  0  0
  3 10  1  0  0  0  0
  4  8  1  0  0  0  0
  4  7  1  0  0  0  0
  7  9  1  0  0  0  0
  8  2  2  0  0  0  0
  9  5  2  0  0  0  0
 10  7  2  0  0  0  0
 10  1  1  0  0  0  0
 11 12  1  0  0  0  0
 11  3  2  0  0  0  0
 12  4  2  0  0  0  0
 13 14  2  0  0  0  0
 15  3  1  0  0  0  0
 15 13  2  0  0  0  0
 16 19  1  0  0  0  0
 17 18  1  0  0  0  0
 17 22  2  0  0  0  0
 18 21  1  0  0  0  0
 20 14  1  0  0  0  0
 20 19  2  0  0  0  0
 21 16  1  0  0  0  0
 22 20  1  0  0  0  0
 23 24  1  0  0  0  0
 25 24  1  6  0  0  0
 25 29  1  0  0  0  0
 25 28  1  0  0  0  0
 27 26  1  6  0  0  0
 27 32  1  0  0  0  0
 27 35  1  0  0  0  0
 28 30  1  1  0  0  0
 28 31  1  0  0  0  0
 29 33  1  0  0  0  0
 30 34  1  0  0  0  0
 31 33  1  6  0  0  0
 31 27  1  0  0  0  0
 34 32  1  0  0  0  0
 35 36  1  0  0  0  0
 36 37  1  1  0  0  0
 38 36  1  0  0  0  0
 38 42  1  0  0  0  0
 39 43  1  0  0  0  0
 39 41  2  0  0  0  0
 40 42  2  0  0  0  0
 41 40  1  0  0  0  0
 43 38  2  0  0  0  0
M  END
>  <MODEL>
8

>  <REMARK>
 VINA RESULT:      -9.2      2.487      8.860
  Name = 
  9 active torsions:
  status: ('A' for Active; 'I' for Inactive)
    1  A    between atoms: C_2  and  C_13
    2  A    between atoms: C_4  and  C_22
    3  A    between atoms: C_8  and  C_34
    4  A    between atoms: C_11  and  C_14
    5  A    between atoms: C_13  and  N_38
    6  A    between atoms: C_14  and  C_22
    7  A    between atoms: C_27  and  C_30
    8  A    between atoms: C_27  and  N_38
    9  A    between atoms: C_28  and  C_35
                            x       y       z     vdW  Elec       q    Type
                         _______ _______ _______ _____ _____    ______ ____

>  <TORSDO>
F 9

$$$$
=
 OpenBabel11052416303D

 43 48  0  0  1  0  0  0  0  0999 V2000
  182.4360  179.2100  139.4770 C   0  0  0  0  0  2  0  0  0  0  0  0
  179.7920  182.6570  136.7520 C   0  0  0  0  0  0  0  0  0  0  0  0
  182.3230  178.2840  137.1020 C   0  0  0  0  0  0  0  0  0  0  0  0
  180.8120  180.5110  136.2830 C   0  0  0  0  0  0  0  0  0  0  0  0
  180.2270  182.5800  138.0780 C   0  0  0  0  0  3  0  0  0  0  0  0
  179.0070  183.8350  136.2980 C   0  0  0  0  0  1  0  0  0  0  0  0
  181.2670  180.4280  137.6200 C   0  0  0  0  0  0  0  0  0  0  0  0
  180.0830  181.6240  135.8570 C   0  0  0  0  0  3  0  0  0  0  0  0
  180.9600  181.4730  138.5080 C   0  0  0  0  0  3  0  0  0  0  0  0
  182.0230  179.3120  138.0390 C   0  0  0  0  0  0  0  0  0  0  0  0
  181.8390  178.3810  135.7960 C   0  0  0  0  0  3  0  0  0  0  0  0
  181.0910  179.4840  135.3860 C   0  0  0  0  0  3  0  0  0  0  0  0
  184.3190  176.8640  136.9130 C   0  0  0  0  0  0  0  0  0  0  0  0
  185.4980  176.6470  136.3940 C   0  0  0  0  0  3  0  0  0  0  0  0
  183.1320  177.0850  137.4050 C   0  0  0  0  0  3  0  0  0  0  0  0
  188.0790  178.3060  138.7420 C   0  0  0  0  0  2  0  0  0  0  0  0
  189.0130  175.6670  137.3850 C   0  0  0  0  0  3  0  0  0  0  0  0
  189.7020  176.5300  138.3940 C   0  0  0  0  0  2  0  0  0  0  0  0
  186.8750  177.8920  137.9700 C   0  0  0  0  0  3  0  0  0  0  0  0
  186.7660  176.8610  137.1120 C   0  0  0  0  0  0  0  0  0  0  0  0
  188.7480  177.1260  139.4020 C   0  0  0  0  0  2  0  0  0  0  0  0
  187.8010  175.8370  136.8460 C   0  0  0  0  0  3  0  0  0  0  0  0
  183.8870  179.1330  139.5640 N   0  0  0  0  0  2  0  0  0  0  0  0
  184.2080  178.2860  140.7010 C   0  0  0  0  0  2  0  0  0  0  0  0
  184.6730  179.1320  141.8830 C   0  0  1  0  0  3  0  0  0  0  0  0
  186.3250  179.5230  145.2570 F   0  0  0  0  0  0  0  0  0  0  0  0
  185.7980  178.2410  145.1810 C   0  0  2  0  0  0  0  0  0  0  0  0
  184.2870  178.4990  143.1420 N   0  0  2  0  0  0  0  0  0  0  0  0
  186.1840  179.2480  141.8510 C   0  0  0  0  0  2  0  0  0  0  0  0
  183.7380  179.5580  143.9910 C   0  0  0  0  0  2  0  0  0  0  0  0
  185.5070  177.8800  143.7090 C   0  0  1  0  0  3  0  0  0  0  0  0
  184.4950  178.1810  145.9830 C   0  0  0  0  0  2  0  0  0  0  0  0
  186.6850  178.1910  142.7960 C   0  0  0  0  0  2  0  0  0  0  0  0
  183.3650  179.0080  145.3640 C   0  0  0  0  0  2  0  0  0  0  0  0
  186.7910  177.2310  145.7610 C   0  0  0  0  0  2  0  0  0  0  0  0
  187.9950  177.8920  146.4280 C   0  0  1  0  0  3  0  0  0  0  0  0
  187.9330  177.6670  147.9280 C   0  0  0  0  0  1  0  0  0  0  0  0
  189.2890  177.3800  145.8800 C   0  0  0  0  0  0  0  0  0  0  0  0
  191.5140  176.6050  146.2530 N   0  0  0  0  0  0  0  0  0  0  0  0
  190.6570  176.6540  144.0600 N   0  0  0  0  0  0  0  0  0  0  0  0
  191.6740  176.3870  144.9220 C   0  0  0  0  0  3  0  0  0  0  0  0
  189.4720  177.1400  144.5120 C   0  0  0  0  0  3  0  0  0  0  0  0
  190.3440  177.0910  146.7450 C   0  0  0  0  0  3  0  0  0  0  0  0
  1 23  1  0  0  0  0
  2  5  1  0  0  0  0
  3 15  1  0  0  0  0
  3 10  1  0  0  0  0
  4  7  1  0  0  0  0
  5  9  2  0  0  0  0
  6  2  1  0  0  0  0
  7 10  2  0  0  0  0
  7  9  1  0  0  0  0
  8  4  1  0  0  0  0
  8  2  2  0  0  0  0
 10  1  1  0  0  0  0
 11  3  2  0  0  0  0
 12 11  1  0  0  0  0
 12  4  2  0  0  0  0
 13 15  2  0  0  0  0
 14 13  2  0  0  0  0
 14 20  1  0  0  0  0
 16 21  1  0  0  0  0
 17 18  1  0  0  0  0
 18 21  1  0  0  0  0
 19 16  1  0  0  0  0
 20 19  2  0  0  0  0
 22 20  1  0  0  0  0
 22 17  2  0  0  0  0
 23 24  1  0  0  0  0
 25 24  1  6  0  0  0
 25 28  1  0  0  0  0
 27 26  1  1  0  0  0
 27 35  1  0  0  0  0
 27 32  1  0  0  0  0
 28 31  1  0  0  0  0
 28 30  1  1  0  0  0
 29 25  1  0  0  0  0
 29 33  1  0  0  0  0
 30 34  1  0  0  0  0
 31 33  1  6  0  0  0
 31 27  1  0  0  0  0
 34 32  1  0  0  0  0
 35 36  1  0  0  0  0
 36 37  1  1  0  0  0
 38 36  1  0  0  0  0
 38 43  1  0  0  0  0
 39 43  2  0  0  0  0
 40 42  1  0  0  0  0
 40 41  2  0  0  0  0
 41 39  1  0  0  0  0
 42 38  2  0  0  0  0
M  END
>  <MODEL>
9

>  <REMARK>
 VINA RESULT:      -9.2      3.311      7.993
  Name = 
  9 active torsions:
  status: ('A' for Active; 'I' for Inactive)
    1  A    between atoms: C_2  and  C_13
    2  A    between atoms: C_4  and  C_22
    3  A    between atoms: C_8  and  C_34
    4  A    between atoms: C_11  and  C_14
    5  A    between atoms: C_13  and  N_38
    6  A    between atoms: C_14  and  C_22
    7  A    between atoms: C_27  and  C_30
    8  A    between atoms: C_27  and  N_38
    9  A    between atoms: C_28  and  C_35
                            x       y       z     vdW  Elec       q    Type
                         _______ _______ _______ _____ _____    ______ ____

>  <TORSDO>
F 9

$$$$
