=
 OpenBabel11052416323D

 43 49  0  0  1  0  0  0  0  0999 V2000
  187.7830  177.5930  147.6810 C   0  0  0  0  0  0  0  0  0  0  0  0
  186.3030  178.5990  142.9430 C   0  0  0  0  0  0  0  0  0  0  0  0
  188.4430  177.8860  141.2510 C   0  0  0  0  0  0  0  0  0  0  0  0
  186.5220  178.2700  145.7270 C   0  0  0  0  0  0  0  0  0  0  0  0
  188.8600  177.2330  146.8680 C   0  0  0  0  0  3  0  0  0  0  0  0
  187.8700  177.4350  149.0570 O   0  0  0  0  0  1  0  0  0  0  0  0
  187.6090  177.9070  144.8930 C   0  0  0  0  0  0  0  0  0  0  0  0
  186.6160  178.1100  147.1120 C   0  0  0  0  0  3  0  0  0  0  0  0
  188.7750  177.3890  145.4820 C   0  0  0  0  0  3  0  0  0  0  0  0
  188.5520  177.7230  142.6370 C   0  0  0  0  0  3  0  0  0  0  0  0
  187.4980  178.0720  143.4960 C   0  0  0  0  0  0  0  0  0  0  0  0
  185.2430  178.9500  143.7900 C   0  0  0  0  0  3  0  0  0  0  0  0
  186.1820  178.7640  141.5530 C   0  0  0  0  0  0  0  0  0  0  0  0
  187.2550  178.4070  140.7220 C   0  0  0  0  0  3  0  0  0  0  0  0
  185.3530  178.7870  145.1710 C   0  0  0  0  0  3  0  0  0  0  0  0
  189.5740  177.5030  140.3760 C   0  0  0  0  0  0  0  0  0  0  0  0
  191.1110  177.4990  140.9660 S   0  0  0  0  0  0  0  0  0  0  0  0
  189.2900  177.0720  139.0350 N   0  0  0  0  0  2  0  0  0  0  0  0
  189.1660  177.8780  137.8550 C   0  0  0  0  0  0  0  0  0  0  0  0
  189.1760  179.1360  137.9140 O   0  0  0  0  0  0  0  0  0  0  0  0
  188.9590  177.2140  136.5410 C   0  0  0  0  0  2  0  0  0  0  0  0
  189.6220  175.9150  136.5360 N   0  0  0  0  0  0  0  0  0  0  0  0
  189.0440  174.3790  134.7250 C   0  0  0  0  0  2  0  0  0  0  0  0
  187.3600  174.7100  136.8150 C   0  0  2  0  0  3  0  0  0  0  0  0
  190.6330  175.9900  135.5520 N   0  0  0  0  0  2  0  0  0  0  0  0
  188.6740  174.9200  136.0660 C   0  0  2  0  0  0  0  0  0  0  0  0
  188.5450  173.7960  137.0760 C   0  0  0  0  0  2  0  0  0  0  0  0
  190.4550  174.8870  134.6020 C   0  0  0  0  0  2  0  0  0  0  0  0
  186.3230  174.0060  135.9440 C   0  0  0  0  0  3  0  0  0  0  0  0
  184.9860  172.8510  137.7280 C   0  0  0  0  0  2  0  0  0  0  0  0
  184.2220  174.8520  137.0280 C   0  0  0  0  0  2  0  0  0  0  0  0
  183.8310  173.5300  137.3040 O   0  0  0  0  0  0  0  0  0  0  0  0
  185.0830  174.8880  135.7640 C   0  0  0  0  0  2  0  0  0  0  0  0
  185.9390  172.6510  136.5470 C   0  0  0  0  0  2  0  0  0  0  0  0
  184.9970  179.2850  141.0140 O   0  0  0  0  0  0  0  0  0  0  0  0
  182.4190  176.9440  139.6140 C   0  0  0  0  0  2  0  0  0  0  0  0
  181.6630  177.9660  138.8720 N   0  0  0  0  0  0  0  0  0  0  0  0
  183.4290  179.6340  139.2210 C   0  0  0  0  0  2  0  0  0  0  0  0
  183.2840  177.6090  140.6800 C   0  0  0  0  0  2  0  0  0  0  0  0
  184.2300  178.6130  140.0210 C   0  0  0  0  0  3  0  0  0  0  0  0
  182.5590  178.9140  138.1950 C   0  0  0  0  0  2  0  0  0  0  0  0
  180.8600  175.9870  138.0620 C   0  0  0  0  0  1  0  0  0  0  0  0
  180.7740  177.3950  137.9920 O   0  0  0  0  0  0  0  0  0  0  0  0
  1  6  1  0  0  0  0
  2 11  1  0  0  0  0
  2 12  1  0  0  0  0
  3 10  1  0  0  0  0
  4  8  2  0  0  0  0
  5  1  2  0  0  0  0
  7  9  2  0  0  0  0
  7  4  1  0  0  0  0
  8  1  1  0  0  0  0
  9  5  1  0  0  0  0
 10 11  2  0  0  0  0
 11  7  1  0  0  0  0
 12 15  2  0  0  0  0
 13  2  2  0  0  0  0
 14  3  2  0  0  0  0
 14 13  1  0  0  0  0
 15  4  1  0  0  0  0
 16 17  2  0  0  0  0
 16  3  1  0  0  0  0
 18 16  1  0  0  0  0
 19 20  2  0  0  0  0
 19 18  1  0  0  0  0
 21 19  1  0  0  0  0
 22 21  1  0  0  0  0
 24 29  1  6  0  0  0
 24 27  1  0  0  0  0
 25 22  1  0  0  0  0
 26 23  1  6  0  0  0
 26 22  1  0  0  0  0
 26 24  1  0  0  0  0
 26 27  1  0  0  0  0
 28 23  1  0  0  0  0
 28 25  1  0  0  0  0
 29 34  1  0  0  0  0
 31 32  1  0  0  0  0
 32 30  1  0  0  0  0
 33 29  1  0  0  0  0
 33 31  1  0  0  0  0
 34 30  1  0  0  0  0
 35 13  1  0  0  0  0
 36 39  1  0  0  0  0
 37 36  1  0  0  0  0
 38 40  1  0  0  0  0
 40 39  1  0  0  0  0
 40 35  1  0  0  0  0
 41 37  1  0  0  0  0
 41 38  1  0  0  0  0
 43 42  1  0  0  0  0
 43 37  1  0  0  0  0
M  END
>  <MODEL>
1

>  <REMARK>
 VINA RESULT:      -9.4      0.000      0.000
  Name = 
  8 active torsions:
  status: ('A' for Active; 'I' for Inactive)
    1  A    between atoms: O_1  and  C_34
    2  A    between atoms: O_1  and  C_35
    3  A    between atoms: C_2  and  N_6
    4  A    between atoms: C_2  and  C_13
    5  A    between atoms: C_3  and  N_4
    6  A    between atoms: C_3  and  C_12
    7  A    between atoms: C_11  and  C_14
    8  A    between atoms: N_19  and  O_37
                            x       y       z     vdW  Elec       q    Type
                         _______ _______ _______ _____ _____    ______ ____

>  <TORSDO>
F 8

$$$$
=
 OpenBabel11052416323D

 43 49  0  0  1  0  0  0  0  0999 V2000
  191.1120  176.6270  146.9670 C   0  0  0  0  0  0  0  0  0  0  0  0
  189.4740  177.7340  142.3040 C   0  0  0  0  0  0  0  0  0  0  0  0
  186.7040  178.2200  142.5060 C   0  0  0  0  0  0  0  0  0  0  0  0
  190.9690  177.0610  144.5880 C   0  0  0  0  0  0  0  0  0  0  0  0
  189.7410  176.8610  147.0970 C   0  0  0  0  0  3  0  0  0  0  0  0
  191.8680  176.2970  148.0830 O   0  0  0  0  0  1  0  0  0  0  0  0
  189.5770  177.3010  144.7100 C   0  0  0  0  0  0  0  0  0  0  0  0
  191.7250  176.7270  145.7150 C   0  0  0  0  0  3  0  0  0  0  0  0
  188.9770  177.1950  145.9760 C   0  0  0  0  0  3  0  0  0  0  0  0
  187.4490  177.8850  143.6430 C   0  0  0  0  0  3  0  0  0  0  0  0
  188.8280  177.6390  143.5630 C   0  0  0  0  0  0  0  0  0  0  0  0
  190.8510  177.4920  142.2120 C   0  0  0  0  0  3  0  0  0  0  0  0
  188.7370  178.0740  141.1570 C   0  0  0  0  0  0  0  0  0  0  0  0
  187.3590  178.3120  141.2710 C   0  0  0  0  0  3  0  0  0  0  0  0
  191.5920  177.1580  143.3450 C   0  0  0  0  0  3  0  0  0  0  0  0
  185.2520  178.4770  142.6290 C   0  0  0  0  0  0  0  0  0  0  0  0
  184.6790  179.4060  143.8630 S   0  0  0  0  0  0  0  0  0  0  0  0
  184.3730  177.9590  141.6170 N   0  0  0  0  0  2  0  0  0  0  0  0
  184.0880  178.5130  140.3260 C   0  0  0  0  0  0  0  0  0  0  0  0
  184.5180  179.6470  139.9870 O   0  0  0  0  0  0  0  0  0  0  0  0
  183.2120  177.7590  139.3890 C   0  0  0  0  0  2  0  0  0  0  0  0
  183.3680  178.2840  138.0380 N   0  0  0  0  0  0  0  0  0  0  0  0
  182.2180  177.0910  136.2420 C   0  0  0  0  0  2  0  0  0  0  0  0
  184.5140  176.1040  137.2760 C   0  0  2  0  0  3  0  0  0  0  0  0
  182.1730  178.9760  137.7410 N   0  0  0  0  0  2  0  0  0  0  0  0
  183.4260  177.1640  137.1160 C   0  0  2  0  0  0  0  0  0  0  0  0
  184.6860  177.2350  136.2760 C   0  0  0  0  0  2  0  0  0  0  0  0
  181.6120  178.4460  136.4940 C   0  0  0  0  0  2  0  0  0  0  0  0
  184.1450  174.8090  136.5580 C   0  0  0  0  0  3  0  0  0  0  0  0
  186.3940  174.1870  135.6280 C   0  0  0  0  0  2  0  0  0  0  0  0
  185.8250  173.2610  137.6020 C   0  0  0  0  0  2  0  0  0  0  0  0
  186.3490  172.9700  136.3300 O   0  0  0  0  0  0  0  0  0  0  0  0
  184.3390  173.6050  137.4870 C   0  0  0  0  0  2  0  0  0  0  0  0
  184.9740  174.6430  135.2800 C   0  0  0  0  0  2  0  0  0  0  0  0
  189.3830  178.1670  139.9150 O   0  0  0  0  0  0  0  0  0  0  0  0
  188.6520  177.2590  136.3480 C   0  0  0  0  0  2  0  0  0  0  0  0
  189.7460  176.2850  136.2040 N   0  0  0  0  0  0  0  0  0  0  0  0
  190.1750  176.2990  138.6210 C   0  0  0  0  0  2  0  0  0  0  0  0
  188.9200  178.1710  137.5410 C   0  0  0  0  0  2  0  0  0  0  0  0
  189.0690  177.3300  138.8080 C   0  0  0  0  0  3  0  0  0  0  0  0
  189.8730  175.4370  137.3990 C   0  0  0  0  0  2  0  0  0  0  0  0
  190.1800  174.2560  135.2510 C   0  0  0  0  0  1  0  0  0  0  0  0
  189.6040  175.5320  135.0630 O   0  0  0  0  0  0  0  0  0  0  0  0
  1  5  1  0  0  0  0
  1  6  1  0  0  0  0
  2 11  1  0  0  0  0
  3 16  1  0  0  0  0
  3 10  1  0  0  0  0
  4  7  2  0  0  0  0
  4  8  1  0  0  0  0
  7  9  1  0  0  0  0
  8  1  2  0  0  0  0
  9  5  2  0  0  0  0
 11 10  2  0  0  0  0
 11  7  1  0  0  0  0
 12  2  1  0  0  0  0
 12 15  2  0  0  0  0
 13 14  1  0  0  0  0
 13  2  2  0  0  0  0
 14  3  2  0  0  0  0
 15  4  1  0  0  0  0
 16 17  2  0  0  0  0
 18 16  1  0  0  0  0
 19 18  1  0  0  0  0
 20 19  2  0  0  0  0
 21 19  1  0  0  0  0
 22 21  1  0  0  0  0
 23 28  1  0  0  0  0
 24 29  1  6  0  0  0
 25 22  1  0  0  0  0
 26 23  1  6  0  0  0
 26 24  1  0  0  0  0
 26 22  1  0  0  0  0
 27 26  1  0  0  0  0
 27 24  1  0  0  0  0
 28 25  1  0  0  0  0
 29 33  1  0  0  0  0
 30 32  1  0  0  0  0
 32 31  1  0  0  0  0
 33 31  1  0  0  0  0
 34 30  1  0  0  0  0
 34 29  1  0  0  0  0
 35 13  1  0  0  0  0
 36 39  1  0  0  0  0
 37 36  1  0  0  0  0
 37 41  1  0  0  0  0
 38 40  1  0  0  0  0
 39 40  1  0  0  0  0
 40 35  1  0  0  0  0
 41 38  1  0  0  0  0
 43 42  1  0  0  0  0
 43 37  1  0  0  0  0
M  END
>  <MODEL>
2

>  <REMARK>
 VINA RESULT:      -9.4      2.197      5.553
  Name = 
  8 active torsions:
  status: ('A' for Active; 'I' for Inactive)
    1  A    between atoms: O_1  and  C_34
    2  A    between atoms: O_1  and  C_35
    3  A    between atoms: C_2  and  N_6
    4  A    between atoms: C_2  and  C_13
    5  A    between atoms: C_3  and  N_4
    6  A    between atoms: C_3  and  C_12
    7  A    between atoms: C_11  and  C_14
    8  A    between atoms: N_19  and  O_37
                            x       y       z     vdW  Elec       q    Type
                         _______ _______ _______ _____ _____    ______ ____

>  <TORSDO>
F 8

$$$$
=
 OpenBabel11052416323D

 43 49  0  0  1  0  0  0  0  0999 V2000
  191.5410  176.2730  147.1620 C   0  0  0  0  0  0  0  0  0  0  0  0
  187.6350  177.9090  144.3850 C   0  0  0  0  0  0  0  0  0  0  0  0
  188.3950  177.6610  141.6810 C   0  0  0  0  0  0  0  0  0  0  0  0
  189.4050  177.1510  146.4340 C   0  0  0  0  0  0  0  0  0  0  0  0
  191.9460  176.1410  145.8320 C   0  0  0  0  0  3  0  0  0  0  0  0
  192.3990  175.9020  148.1880 O   0  0  0  0  0  1  0  0  0  0  0  0
  189.8060  177.0200  145.0810 C   0  0  0  0  0  0  0  0  0  0  0  0
  190.2730  176.7770  147.4630 C   0  0  0  0  0  3  0  0  0  0  0  0
  191.0850  176.5120  144.7960 C   0  0  0  0  0  3  0  0  0  0  0  0
  189.2770  177.2850  142.7020 C   0  0  0  0  0  3  0  0  0  0  0  0
  188.9170  177.4000  144.0530 C   0  0  0  0  0  0  0  0  0  0  0  0
  187.2640  178.0280  145.7310 C   0  0  0  0  0  3  0  0  0  0  0  0
  186.7410  178.2870  143.3690 C   0  0  0  0  0  0  0  0  0  0  0  0
  187.1330  178.1600  142.0280 C   0  0  0  0  0  3  0  0  0  0  0  0
  188.1420  177.6520  146.7470 C   0  0  0  0  0  3  0  0  0  0  0  0
  188.8080  177.5210  140.2670 C   0  0  0  0  0  0  0  0  0  0  0  0
  190.4000  177.3450  139.8840 S   0  0  0  0  0  0  0  0  0  0  0  0
  187.7880  177.4730  139.2550 N   0  0  0  0  0  2  0  0  0  0  0  0
  187.7070  178.2390  138.0460 C   0  0  0  0  0  0  0  0  0  0  0  0
  188.5140  179.1740  137.8030 O   0  0  0  0  0  0  0  0  0  0  0  0
  186.6050  177.9630  137.0850 C   0  0  0  0  0  2  0  0  0  0  0  0
  186.4840  176.5250  136.8750 N   0  0  0  0  0  0  0  0  0  0  0  0
  185.1500  175.7890  134.9640 C   0  0  0  0  0  2  0  0  0  0  0  0
  183.9320  176.6450  137.2220 C   0  0  2  0  0  3  0  0  0  0  0  0
  187.3650  176.2020  135.8190 N   0  0  0  0  0  2  0  0  0  0  0  0
  185.1460  176.2460  136.3850 C   0  0  2  0  0  0  0  0  0  0  0  0
  184.4620  175.2220  137.2700 C   0  0  0  0  0  2  0  0  0  0  0  0
  186.6150  175.5010  134.7710 C   0  0  0  0  0  2  0  0  0  0  0  0
  182.6650  176.7150  136.3750 C   0  0  0  0  0  3  0  0  0  0  0  0
  180.9350  176.5040  138.1840 C   0  0  0  0  0  2  0  0  0  0  0  0
  181.4820  178.5950  137.5460 C   0  0  0  0  0  2  0  0  0  0  0  0
  180.3930  177.7460  137.8120 O   0  0  0  0  0  0  0  0  0  0  0  0
  182.1770  178.1620  136.2530 C   0  0  0  0  0  2  0  0  0  0  0  0
  181.5680  175.8230  136.9670 C   0  0  0  0  0  2  0  0  0  0  0  0
  185.4750  178.7880  143.7050 O   0  0  0  0  0  0  0  0  0  0  0  0
  181.7850  178.5450  143.0690 C   0  0  0  0  0  2  0  0  0  0  0  0
  181.8380  178.9630  141.6600 N   0  0  0  0  0  0  0  0  0  0  0  0
  184.2840  178.7580  141.6140 C   0  0  0  0  0  2  0  0  0  0  0  0
  183.0640  178.9650  143.7860 C   0  0  0  0  0  2  0  0  0  0  0  0
  184.2730  178.3500  143.0830 C   0  0  0  0  0  3  0  0  0  0  0  0
  182.9710  178.3440  140.9560 C   0  0  0  0  0  2  0  0  0  0  0  0
  179.8360  177.8740  141.8050 C   0  0  0  0  0  1  0  0  0  0  0  0
  180.6480  178.7180  141.0160 O   0  0  0  0  0  0  0  0  0  0  0  0
  1  8  1  0  0  0  0
  1  6  1  0  0  0  0
  2 12  1  0  0  0  0
  3 14  2  0  0  0  0
  3 10  1  0  0  0  0
  4 15  1  0  0  0  0
  4  8  2  0  0  0  0
  5  1  2  0  0  0  0
  7  4  1  0  0  0  0
  9  7  2  0  0  0  0
  9  5  1  0  0  0  0
 10 11  2  0  0  0  0
 11  2  1  0  0  0  0
 11  7  1  0  0  0  0
 12 15  2  0  0  0  0
 13 35  1  0  0  0  0
 13  2  2  0  0  0  0
 14 13  1  0  0  0  0
 16  3  1  0  0  0  0
 17 16  2  0  0  0  0
 18 16  1  0  0  0  0
 19 18  1  0  0  0  0
 20 19  2  0  0  0  0
 21 19  1  0  0  0  0
 22 21  1  0  0  0  0
 24 29  1  6  0  0  0
 24 27  1  0  0  0  0
 25 22  1  0  0  0  0
 26 23  1  6  0  0  0
 26 22  1  0  0  0  0
 26 24  1  0  0  0  0
 26 27  1  0  0  0  0
 28 23  1  0  0  0  0
 28 25  1  0  0  0  0
 29 34  1  0  0  0  0
 31 32  1  0  0  0  0
 32 30  1  0  0  0  0
 33 29  1  0  0  0  0
 33 31  1  0  0  0  0
 34 30  1  0  0  0  0
 36 39  1  0  0  0  0
 37 36  1  0  0  0  0
 38 40  1  0  0  0  0
 40 35  1  0  0  0  0
 40 39  1  0  0  0  0
 41 38  1  0  0  0  0
 41 37  1  0  0  0  0
 43 37  1  0  0  0  0
 43 42  1  0  0  0  0
M  END
>  <MODEL>
3

>  <REMARK>
 VINA RESULT:      -9.2      2.145      3.368
  Name = 
  8 active torsions:
  status: ('A' for Active; 'I' for Inactive)
    1  A    between atoms: O_1  and  C_34
    2  A    between atoms: O_1  and  C_35
    3  A    between atoms: C_2  and  N_6
    4  A    between atoms: C_2  and  C_13
    5  A    between atoms: C_3  and  N_4
    6  A    between atoms: C_3  and  C_12
    7  A    between atoms: C_11  and  C_14
    8  A    between atoms: N_19  and  O_37
                            x       y       z     vdW  Elec       q    Type
                         _______ _______ _______ _____ _____    ______ ____

>  <TORSDO>
F 8

$$$$
=
 OpenBabel11052416323D

 43 49  0  0  1  0  0  0  0  0999 V2000
  189.9630  176.9610  146.6620 C   0  0  0  0  0  0  0  0  0  0  0  0
  187.8700  178.1310  142.2010 C   0  0  0  0  0  0  0  0  0  0  0  0
  185.1170  178.5240  142.6690 C   0  0  0  0  0  0  0  0  0  0  0  0
  189.5880  177.4490  144.3200 C   0  0  0  0  0  0  0  0  0  0  0  0
  188.6030  177.1480  146.9240 C   0  0  0  0  0  3  0  0  0  0  0  0
  190.8280  176.6270  147.6950 O   0  0  0  0  0  1  0  0  0  0  0  0
  188.2070  177.6410  144.5740 C   0  0  0  0  0  0  0  0  0  0  0  0
  190.4540  177.1110  145.3630 C   0  0  0  0  0  3  0  0  0  0  0  0
  187.7290  177.4860  145.8870 C   0  0  0  0  0  3  0  0  0  0  0  0
  185.9740  178.1840  143.7230 C   0  0  0  0  0  3  0  0  0  0  0  0
  187.3460  177.9840  143.5110 C   0  0  0  0  0  0  0  0  0  0  0  0
  189.2400  177.9350  141.9770 C   0  0  0  0  0  3  0  0  0  0  0  0
  187.0210  178.4760  141.1360 C   0  0  0  0  0  0  0  0  0  0  0  0
  185.6530  178.6670  141.3820 C   0  0  0  0  0  3  0  0  0  0  0  0
  190.0910  177.5970  143.0270 C   0  0  0  0  0  3  0  0  0  0  0  0
  183.6760  178.7320  142.9320 C   0  0  0  0  0  0  0  0  0  0  0  0
  183.1320  178.8930  144.4780 S   0  0  0  0  0  0  0  0  0  0  0  0
  182.7840  178.8580  141.8110 N   0  0  0  0  0  2  0  0  0  0  0  0
  181.3530  178.7730  141.8070 C   0  0  0  0  0  0  0  0  0  0  0  0
  180.7110  178.4370  142.8370 O   0  0  0  0  0  0  0  0  0  0  0  0
  180.6150  179.0280  140.5410 C   0  0  0  0  0  2  0  0  0  0  0  0
  181.4710  179.7530  139.6100 N   0  0  0  0  0  0  0  0  0  0  0  0
  180.8120  179.7410  137.2560 C   0  0  0  0  0  2  0  0  0  0  0  0
  182.0100  177.5740  138.3420 C   0  0  2  0  0  3  0  0  0  0  0  0
  180.8110  180.9700  139.3290 N   0  0  0  0  0  2  0  0  0  0  0  0
  181.5100  179.0170  138.3580 C   0  0  2  0  0  0  0  0  0  0  0  0
  182.9440  178.7130  137.9700 C   0  0  0  0  0  2  0  0  0  0  0  0
  180.6570  181.1040  137.8760 C   0  0  0  0  0  2  0  0  0  0  0  0
  181.5450  176.8330  137.0910 C   0  0  0  0  0  3  0  0  0  0  0  0
  183.1860  174.9310  137.0920 C   0  0  0  0  0  2  0  0  0  0  0  0
  181.1900  174.5470  138.0670 C   0  0  0  0  0  2  0  0  0  0  0  0
  182.1230  174.0140  137.1600 O   0  0  0  0  0  0  0  0  0  0  0  0
  180.5050  175.7680  137.4510 C   0  0  0  0  0  2  0  0  0  0  0  0
  182.7360  176.2000  136.3620 C   0  0  0  0  0  2  0  0  0  0  0  0
  187.5470  178.6200  139.8440 O   0  0  0  0  0  0  0  0  0  0  0  0
  186.4050  177.1370  136.5910 C   0  0  0  0  0  2  0  0  0  0  0  0
  187.7480  176.8190  136.0810 N   0  0  0  0  0  0  0  0  0  0  0  0
  188.7670  177.2700  138.2680 C   0  0  0  0  0  2  0  0  0  0  0  0
  186.5030  178.1710  137.7080 C   0  0  0  0  0  2  0  0  0  0  0  0
  187.3960  177.6370  138.8260 C   0  0  0  0  0  3  0  0  0  0  0  0
  188.6070  176.2600  137.1360 C   0  0  0  0  0  2  0  0  0  0  0  0
  186.3870  175.4540  134.8550 C   0  0  0  0  0  1  0  0  0  0  0  0
  187.6880  175.9890  134.9860 O   0  0  0  0  0  0  0  0  0  0  0  0
  1  5  1  0  0  0  0
  1  6  1  0  0  0  0
  2 11  1  0  0  0  0
  3 16  1  0  0  0  0
  3 10  1  0  0  0  0
  4  7  2  0  0  0  0
  4  8  1  0  0  0  0
  7  9  1  0  0  0  0
  8  1  2  0  0  0  0
  9  5  2  0  0  0  0
 11 10  2  0  0  0  0
 11  7  1  0  0  0  0
 12  2  1  0  0  0  0
 12 15  2  0  0  0  0
 13 14  1  0  0  0  0
 13  2  2  0  0  0  0
 14  3  2  0  0  0  0
 15  4  1  0  0  0  0
 16 17  2  0  0  0  0
 18 16  1  0  0  0  0
 19 18  1  0  0  0  0
 19 20  2  0  0  0  0
 21 19  1  0  0  0  0
 22 21  1  0  0  0  0
 23 28  1  0  0  0  0
 24 29  1  6  0  0  0
 24 26  1  0  0  0  0
 25 22  1  0  0  0  0
 26 23  1  6  0  0  0
 26 22  1  0  0  0  0
 27 24  1  0  0  0  0
 27 26  1  0  0  0  0
 28 25  1  0  0  0  0
 29 33  1  0  0  0  0
 30 32  1  0  0  0  0
 32 31  1  0  0  0  0
 33 31  1  0  0  0  0
 34 29  1  0  0  0  0
 34 30  1  0  0  0  0
 35 13  1  0  0  0  0
 36 39  1  0  0  0  0
 37 36  1  0  0  0  0
 37 41  1  0  0  0  0
 38 40  1  0  0  0  0
 39 40  1  0  0  0  0
 40 35  1  0  0  0  0
 41 38  1  0  0  0  0
 42 43  1  0  0  0  0
 43 37  1  0  0  0  0
M  END
>  <MODEL>
4

>  <REMARK>
 VINA RESULT:      -8.9      2.432      6.100
  Name = 
  8 active torsions:
  status: ('A' for Active; 'I' for Inactive)
    1  A    between atoms: O_1  and  C_34
    2  A    between atoms: O_1  and  C_35
    3  A    between atoms: C_2  and  N_6
    4  A    between atoms: C_2  and  C_13
    5  A    between atoms: C_3  and  N_4
    6  A    between atoms: C_3  and  C_12
    7  A    between atoms: C_11  and  C_14
    8  A    between atoms: N_19  and  O_37
                            x       y       z     vdW  Elec       q    Type
                         _______ _______ _______ _____ _____    ______ ____

>  <TORSDO>
F 8

$$$$
=
 OpenBabel11052416323D

 43 49  0  0  1  0  0  0  0  0999 V2000
  191.0190  176.7880  146.6530 C   0  0  0  0  0  0  0  0  0  0  0  0
  186.6160  177.9050  144.4130 C   0  0  0  0  0  0  0  0  0  0  0  0
  187.1400  178.1280  141.6510 C   0  0  0  0  0  0  0  0  0  0  0  0
  188.6920  177.2920  146.2070 C   0  0  0  0  0  0  0  0  0  0  0  0
  191.3080  176.8940  145.2910 C   0  0  0  0  0  3  0  0  0  0  0  0
  192.0290  176.4830  147.5550 O   0  0  0  0  0  1  0  0  0  0  0  0
  188.9750  177.4010  144.8230 C   0  0  0  0  0  0  0  0  0  0  0  0
  189.7130  176.9860  147.1110 C   0  0  0  0  0  3  0  0  0  0  0  0
  190.2940  177.1990  144.3800 C   0  0  0  0  0  3  0  0  0  0  0  0
  188.1730  177.8240  142.5460 C   0  0  0  0  0  3  0  0  0  0  0  0
  187.9330  177.7080  143.9230 C   0  0  0  0  0  0  0  0  0  0  0  0
  186.3640  177.7910  145.7870 C   0  0  0  0  0  3  0  0  0  0  0  0
  185.5710  178.2080  143.5240 C   0  0  0  0  0  0  0  0  0  0  0  0
  185.8450  178.3170  142.1530 C   0  0  0  0  0  3  0  0  0  0  0  0
  187.3930  177.4870  146.6760 C   0  0  0  0  0  3  0  0  0  0  0  0
  187.4300  178.2370  140.2040 C   0  0  0  0  0  0  0  0  0  0  0  0
  188.9450  178.6290  139.6920 S   0  0  0  0  0  0  0  0  0  0  0  0
  186.3840  177.9280  139.2680 N   0  0  0  0  0  2  0  0  0  0  0  0
  185.2280  178.7110  138.9440 C   0  0  0  0  0  0  0  0  0  0  0  0
  184.9420  179.7580  139.5820 O   0  0  0  0  0  0  0  0  0  0  0  0
  184.3120  178.2420  137.8690 C   0  0  0  0  0  2  0  0  0  0  0  0
  184.6310  176.8640  137.5170 N   0  0  0  0  0  0  0  0  0  0  0  0
  183.2480  175.8060  135.8010 C   0  0  0  0  0  2  0  0  0  0  0  0
  182.3130  176.0770  138.3240 C   0  0  2  0  0  3  0  0  0  0  0  0
  185.3290  176.9180  136.2900 N   0  0  0  0  0  2  0  0  0  0  0  0
  183.3880  176.1630  137.2440 C   0  0  2  0  0  0  0  0  0  0  0  0
  183.2790  174.9240  138.1100 C   0  0  0  0  0  2  0  0  0  0  0  0
  184.6530  176.0530  135.3180 C   0  0  0  0  0  2  0  0  0  0  0  0
  180.9460  175.7450  137.7300 C   0  0  0  0  0  3  0  0  0  0  0  0
  180.1510  174.0600  139.4140 C   0  0  0  0  0  2  0  0  0  0  0  0
  179.5000  176.1940  139.7330 C   0  0  0  0  0  2  0  0  0  0  0  0
  179.0350  174.8670  139.6960 O   0  0  0  0  0  0  0  0  0  0  0  0
  179.8660  176.6570  138.3210 C   0  0  0  0  0  2  0  0  0  0  0  0
  180.5970  174.2710  137.9650 C   0  0  0  0  0  2  0  0  0  0  0  0
  184.2720  178.4000  144.0160 O   0  0  0  0  0  0  0  0  0  0  0  0
  181.8710  178.8310  141.1630 C   0  0  0  0  0  2  0  0  0  0  0  0
  180.6470  178.7860  141.9780 N   0  0  0  0  0  0  0  0  0  0  0  0
  181.9350  178.9740  144.0590 C   0  0  0  0  0  2  0  0  0  0  0  0
  183.0370  178.2300  141.9420 C   0  0  0  0  0  2  0  0  0  0  0  0
  183.2280  178.9930  143.2520 C   0  0  0  0  0  3  0  0  0  0  0  0
  180.7990  179.5550  143.2220 C   0  0  0  0  0  2  0  0  0  0  0  0
  179.9050  180.2620  140.4000 C   0  0  0  0  0  1  0  0  0  0  0  0
  179.5490  179.1990  141.2600 O   0  0  0  0  0  0  0  0  0  0  0  0
  1  8  1  0  0  0  0
  1  6  1  0  0  0  0
  2 12  1  0  0  0  0
  3 14  2  0  0  0  0
  3 10  1  0  0  0  0
  4 15  1  0  0  0  0
  4  8  2  0  0  0  0
  5  1  2  0  0  0  0
  7  4  1  0  0  0  0
  9  7  2  0  0  0  0
  9  5  1  0  0  0  0
 10 11  2  0  0  0  0
 11  2  1  0  0  0  0
 11  7  1  0  0  0  0
 12 15  2  0  0  0  0
 13 35  1  0  0  0  0
 13  2  2  0  0  0  0
 14 13  1  0  0  0  0
 16  3  1  0  0  0  0
 17 16  2  0  0  0  0
 18 16  1  0  0  0  0
 19 18  1  0  0  0  0
 19 20  2  0  0  0  0
 21 19  1  0  0  0  0
 22 21  1  0  0  0  0
 24 29  1  6  0  0  0
 25 22  1  0  0  0  0
 26 23  1  6  0  0  0
 26 22  1  0  0  0  0
 26 27  1  0  0  0  0
 26 24  1  0  0  0  0
 27 24  1  0  0  0  0
 28 23  1  0  0  0  0
 28 25  1  0  0  0  0
 29 34  1  0  0  0  0
 29 33  1  0  0  0  0
 30 32  1  0  0  0  0
 32 31  1  0  0  0  0
 33 31  1  0  0  0  0
 34 30  1  0  0  0  0
 36 39  1  0  0  0  0
 36 37  1  0  0  0  0
 37 41  1  0  0  0  0
 39 40  1  0  0  0  0
 40 35  1  0  0  0  0
 40 38  1  0  0  0  0
 41 38  1  0  0  0  0
 42 43  1  0  0  0  0
 43 37  1  0  0  0  0
M  END
>  <MODEL>
5

>  <REMARK>
 VINA RESULT:      -8.6      2.914      4.114
  Name = 
  8 active torsions:
  status: ('A' for Active; 'I' for Inactive)
    1  A    between atoms: O_1  and  C_34
    2  A    between atoms: O_1  and  C_35
    3  A    between atoms: C_2  and  N_6
    4  A    between atoms: C_2  and  C_13
    5  A    between atoms: C_3  and  N_4
    6  A    between atoms: C_3  and  C_12
    7  A    between atoms: C_11  and  C_14
    8  A    between atoms: N_19  and  O_37
                            x       y       z     vdW  Elec       q    Type
                         _______ _______ _______ _____ _____    ______ ____

>  <TORSDO>
F 8

$$$$
=
 OpenBabel11052416323D

 43 49  0  0  1  0  0  0  0  0999 V2000
  191.2920  176.7130  147.0010 C   0  0  0  0  0  0  0  0  0  0  0  0
  187.1200  177.8540  144.3660 C   0  0  0  0  0  0  0  0  0  0  0  0
  187.8540  177.8770  141.6440 C   0  0  0  0  0  0  0  0  0  0  0  0
  189.0290  177.2780  146.3480 C   0  0  0  0  0  0  0  0  0  0  0  0
  191.6850  176.7200  145.6600 C   0  0  0  0  0  3  0  0  0  0  0  0
  192.2180  176.4290  147.9940 O   0  0  0  0  0  1  0  0  0  0  0  0
  189.4180  177.2860  144.9850 C   0  0  0  0  0  0  0  0  0  0  0  0
  189.9660  176.9920  147.3440 C   0  0  0  0  0  3  0  0  0  0  0  0
  190.7550  177.0040  144.6570 C   0  0  0  0  0  3  0  0  0  0  0  0
  188.8040  177.5910  142.6310 C   0  0  0  0  0  3  0  0  0  0  0  0
  188.4590  177.5750  143.9910 C   0  0  0  0  0  0  0  0  0  0  0  0
  186.7620  177.8400  145.7210 C   0  0  0  0  0  3  0  0  0  0  0  0
  186.1570  178.1400  143.3830 C   0  0  0  0  0  0  0  0  0  0  0  0
  186.5360  178.1490  142.0320 C   0  0  0  0  0  3  0  0  0  0  0  0
  187.7090  177.5540  146.7040 C   0  0  0  0  0  3  0  0  0  0  0  0
  188.2550  177.8810  140.2190 C   0  0  0  0  0  0  0  0  0  0  0  0
  187.1540  178.2530  139.0520 S   0  0  0  0  0  0  0  0  0  0  0  0
  189.6300  177.6220  139.8910 N   0  0  0  0  0  2  0  0  0  0  0  0
  190.1680  176.5300  139.1340 C   0  0  0  0  0  0  0  0  0  0  0  0
  189.4460  175.5660  138.7660 O   0  0  0  0  0  0  0  0  0  0  0  0
  191.6240  176.5040  138.8310 C   0  0  0  0  0  2  0  0  0  0  0  0
  191.8350  176.7530  137.4100 N   0  0  0  0  0  0  0  0  0  0  0  0
  192.0480  174.7970  135.9590 C   0  0  0  0  0  2  0  0  0  0  0  0
  194.1280  175.5790  137.5010 C   0  0  2  0  0  3  0  0  0  0  0  0
  190.5900  176.5320  136.7790 N   0  0  0  0  0  2  0  0  0  0  0  0
  192.7340  175.7350  136.8970 C   0  0  2  0  0  0  0  0  0  0  0  0
  193.9310  176.3780  136.2240 C   0  0  0  0  0  2  0  0  0  0  0  0
  190.7680  175.5480  135.7060 C   0  0  0  0  0  2  0  0  0  0  0  0
  194.7260  174.2100  137.1870 C   0  0  0  0  0  3  0  0  0  0  0  0
  197.1350  174.8570  136.8970 C   0  0  0  0  0  2  0  0  0  0  0  0
  196.5230  174.1280  138.9390 C   0  0  0  0  0  2  0  0  0  0  0  0
  197.4960  173.9820  137.9360 O   0  0  0  0  0  0  0  0  0  0  0  0
  195.1980  173.5220  138.4720 C   0  0  0  0  0  2  0  0  0  0  0  0
  195.8810  174.3390  136.1880 C   0  0  0  0  0  2  0  0  0  0  0  0
  184.8350  178.4140  143.7610 O   0  0  0  0  0  0  0  0  0  0  0  0
  182.6070  178.3240  140.7430 C   0  0  0  0  0  2  0  0  0  0  0  0
  181.3360  178.4060  141.4800 N   0  0  0  0  0  0  0  0  0  0  0  0
  182.4990  178.9620  143.5700 C   0  0  0  0  0  2  0  0  0  0  0  0
  183.7250  177.8780  141.6790 C   0  0  0  0  0  2  0  0  0  0  0  0
  183.8370  178.8560  142.8480 C   0  0  0  0  0  3  0  0  0  0  0  0
  181.4140  179.3780  142.5810 C   0  0  0  0  0  2  0  0  0  0  0  0
  180.7080  178.6180  139.2950 C   0  0  0  0  0  1  0  0  0  0  0  0
  180.2820  178.6780  140.6400 O   0  0  0  0  0  0  0  0  0  0  0  0
  1  8  1  0  0  0  0
  1  6  1  0  0  0  0
  2 12  1  0  0  0  0
  3 14  2  0  0  0  0
  3 10  1  0  0  0  0
  4 15  1  0  0  0  0
  4  8  2  0  0  0  0
  5  1  2  0  0  0  0
  7  4  1  0  0  0  0
  9  7  2  0  0  0  0
  9  5  1  0  0  0  0
 10 11  2  0  0  0  0
 11  2  1  0  0  0  0
 11  7  1  0  0  0  0
 12 15  2  0  0  0  0
 13 35  1  0  0  0  0
 13  2  2  0  0  0  0
 14 13  1  0  0  0  0
 16  3  1  0  0  0  0
 17 16  2  0  0  0  0
 18 16  1  0  0  0  0
 19 18  1  0  0  0  0
 20 19  2  0  0  0  0
 21 19  1  0  0  0  0
 22 21  1  0  0  0  0
 24 29  1  6  0  0  0
 25 22  1  0  0  0  0
 26 23  1  6  0  0  0
 26 22  1  0  0  0  0
 26 24  1  0  0  0  0
 27 26  1  0  0  0  0
 27 24  1  0  0  0  0
 28 23  1  0  0  0  0
 28 25  1  0  0  0  0
 29 33  1  0  0  0  0
 30 32  1  0  0  0  0
 32 31  1  0  0  0  0
 33 31  1  0  0  0  0
 34 30  1  0  0  0  0
 34 29  1  0  0  0  0
 36 37  1  0  0  0  0
 36 39  1  0  0  0  0
 37 41  1  0  0  0  0
 39 40  1  0  0  0  0
 40 38  1  0  0  0  0
 40 35  1  0  0  0  0
 41 38  1  0  0  0  0
 42 43  1  0  0  0  0
 43 37  1  0  0  0  0
M  END
>  <MODEL>
6

>  <REMARK>
 VINA RESULT:      -8.5      3.440      5.157
  Name = 
  8 active torsions:
  status: ('A' for Active; 'I' for Inactive)
    1  A    between atoms: O_1  and  C_34
    2  A    between atoms: O_1  and  C_35
    3  A    between atoms: C_2  and  N_6
    4  A    between atoms: C_2  and  C_13
    5  A    between atoms: C_3  and  N_4
    6  A    between atoms: C_3  and  C_12
    7  A    between atoms: C_11  and  C_14
    8  A    between atoms: N_19  and  O_37
                            x       y       z     vdW  Elec       q    Type
                         _______ _______ _______ _____ _____    ______ ____

>  <TORSDO>
F 8

$$$$
=
 OpenBabel11052416323D

 43 49  0  0  1  0  0  0  0  0999 V2000
  191.0380  176.6740  146.7650 C   0  0  0  0  0  0  0  0  0  0  0  0
  189.1350  178.0990  142.2930 C   0  0  0  0  0  0  0  0  0  0  0  0
  186.3420  178.3050  142.6230 C   0  0  0  0  0  0  0  0  0  0  0  0
  190.7680  177.3350  144.4510 C   0  0  0  0  0  0  0  0  0  0  0  0
  189.6580  176.7660  146.9580 C   0  0  0  0  0  3  0  0  0  0  0  0
  191.8620  176.3010  147.8180 O   0  0  0  0  0  1  0  0  0  0  0  0
  189.3670  177.4320  144.6360 C   0  0  0  0  0  0  0  0  0  0  0  0
  191.5930  176.9580  145.5140 C   0  0  0  0  0  3  0  0  0  0  0  0
  188.8250  177.1420  145.9000 C   0  0  0  0  0  3  0  0  0  0  0  0
  187.1560  177.9240  143.6970 C   0  0  0  0  0  3  0  0  0  0  0  0
  188.5480  177.8160  143.5530 C   0  0  0  0  0  0  0  0  0  0  0  0
  190.5240  177.9950  142.1370 C   0  0  0  0  0  3  0  0  0  0  0  0
  188.3280  178.4860  141.2100 C   0  0  0  0  0  0  0  0  0  0  0  0
  186.9400  178.5830  141.3870 C   0  0  0  0  0  3  0  0  0  0  0  0
  191.3340  177.6170  143.2080 C   0  0  0  0  0  3  0  0  0  0  0  0
  184.8790  178.4130  142.8140 C   0  0  0  0  0  0  0  0  0  0  0  0
  184.2690  179.3780  144.0010 S   0  0  0  0  0  0  0  0  0  0  0  0
  184.0140  177.7170  141.9010 N   0  0  0  0  0  2  0  0  0  0  0  0
  183.4850  178.1850  140.6540 C   0  0  0  0  0  0  0  0  0  0  0  0
  183.6450  179.3750  140.2760 O   0  0  0  0  0  0  0  0  0  0  0  0
  182.6770  177.2590  139.8150 C   0  0  0  0  0  2  0  0  0  0  0  0
  181.3120  177.7580  139.7060 N   0  0  0  0  0  0  0  0  0  0  0  0
  179.5080  176.1330  139.9910 C   0  0  0  0  0  2  0  0  0  0  0  0
  180.8770  176.2480  137.6620 C   0  0  2  0  0  3  0  0  0  0  0  0
  180.8220  177.8670  141.0270 N   0  0  0  0  0  2  0  0  0  0  0  0
  180.5030  176.7400  139.0590 C   0  0  2  0  0  0  0  0  0  0  0  0
  179.8080  177.3130  137.8400 C   0  0  0  0  0  2  0  0  0  0  0  0
  179.5710  177.1100  141.1360 C   0  0  0  0  0  2  0  0  0  0  0  0
  180.2380  174.8970  137.3530 C   0  0  0  0  0  3  0  0  0  0  0  0
  179.7510  175.2090  134.9090 C   0  0  0  0  0  2  0  0  0  0  0  0
  181.6870  174.1800  135.4310 C   0  0  0  0  0  2  0  0  0  0  0  0
  180.5520  174.0940  134.6060 O   0  0  0  0  0  0  0  0  0  0  0  0
  181.2980  173.8950  136.8830 C   0  0  0  0  0  2  0  0  0  0  0  0
  179.1340  175.0470  136.3010 C   0  0  0  0  0  2  0  0  0  0  0  0
  188.9170  178.7650  139.9680 O   0  0  0  0  0  0  0  0  0  0  0  0
  188.8360  177.9650  136.3020 C   0  0  0  0  0  2  0  0  0  0  0  0
  189.5940  176.7070  136.3970 N   0  0  0  0  0  0  0  0  0  0  0  0
  189.4100  176.6940  138.8450 C   0  0  0  0  0  2  0  0  0  0  0  0
  189.0650  178.8070  137.5530 C   0  0  0  0  0  2  0  0  0  0  0  0
  188.6470  178.0130  138.7900 C   0  0  0  0  0  3  0  0  0  0  0  0
  189.1720  175.9090  137.5580 C   0  0  0  0  0  2  0  0  0  0  0  0
  190.7260  175.2840  135.0150 C   0  0  0  0  0  1  0  0  0  0  0  0
  189.5170  175.9820  135.2310 O   0  0  0  0  0  0  0  0  0  0  0  0
  1  5  1  0  0  0  0
  1  6  1  0  0  0  0
  2 11  1  0  0  0  0
  3 16  1  0  0  0  0
  3 10  1  0  0  0  0
  4  7  2  0  0  0  0
  4  8  1  0  0  0  0
  7  9  1  0  0  0  0
  8  1  2  0  0  0  0
  9  5  2  0  0  0  0
 11 10  2  0  0  0  0
 11  7  1  0  0  0  0
 12  2  1  0  0  0  0
 12 15  2  0  0  0  0
 13 14  1  0  0  0  0
 13  2  2  0  0  0  0
 14  3  2  0  0  0  0
 15  4  1  0  0  0  0
 16 17  2  0  0  0  0
 18 16  1  0  0  0  0
 19 18  1  0  0  0  0
 20 19  2  0  0  0  0
 21 19  1  0  0  0  0
 22 21  1  0  0  0  0
 22 25  1  0  0  0  0
 23 28  1  0  0  0  0
 24 29  1  1  0  0  0
 24 27  1  0  0  0  0
 24 26  1  0  0  0  0
 25 28  1  0  0  0  0
 26 27  1  6  0  0  0
 26 22  1  0  0  0  0
 26 23  1  0  0  0  0
 30 34  1  0  0  0  0
 31 33  1  0  0  0  0
 32 30  1  0  0  0  0
 32 31  1  0  0  0  0
 33 29  1  0  0  0  0
 34 29  1  0  0  0  0
 35 13  1  0  0  0  0
 36 37  1  0  0  0  0
 36 39  1  0  0  0  0
 37 41  1  0  0  0  0
 39 40  1  0  0  0  0
 40 38  1  0  0  0  0
 40 35  1  0  0  0  0
 41 38  1  0  0  0  0
 42 43  1  0  0  0  0
 43 37  1  0  0  0  0
M  END
>  <MODEL>
7

>  <REMARK>
 VINA RESULT:      -8.3      2.496      6.509
  Name = 
  8 active torsions:
  status: ('A' for Active; 'I' for Inactive)
    1  A    between atoms: O_1  and  C_34
    2  A    between atoms: O_1  and  C_35
    3  A    between atoms: C_2  and  N_6
    4  A    between atoms: C_2  and  C_13
    5  A    between atoms: C_3  and  N_4
    6  A    between atoms: C_3  and  C_12
    7  A    between atoms: C_11  and  C_14
    8  A    between atoms: N_19  and  O_37
                            x       y       z     vdW  Elec       q    Type
                         _______ _______ _______ _____ _____    ______ ____

>  <TORSDO>
F 8

$$$$
=
 OpenBabel11052416323D

 43 49  0  0  1  0  0  0  0  0999 V2000
  181.6410  178.7690  143.5990 C   0  0  0  0  0  0  0  0  0  0  0  0
  186.5980  178.6220  142.5700 C   0  0  0  0  0  0  0  0  0  0  0  0
  186.8440  178.3400  139.7760 C   0  0  0  0  0  0  0  0  0  0  0  0
  184.0580  178.7640  143.7660 C   0  0  0  0  0  0  0  0  0  0  0  0
  181.7320  178.6280  142.2120 C   0  0  0  0  0  3  0  0  0  0  0  0
  180.3960  178.8440  144.2080 O   0  0  0  0  0  1  0  0  0  0  0  0
  184.1600  178.6210  142.3600 C   0  0  0  0  0  0  0  0  0  0  0  0
  182.8020  178.8370  144.3750 C   0  0  0  0  0  3  0  0  0  0  0  0
  182.9830  178.5540  141.5950 C   0  0  0  0  0  3  0  0  0  0  0  0
  185.5790  178.4100  140.3720 C   0  0  0  0  0  3  0  0  0  0  0  0
  185.4360  178.5500  141.7610 C   0  0  0  0  0  0  0  0  0  0  0  0
  186.4680  178.7630  143.9590 C   0  0  0  0  0  3  0  0  0  0  0  0
  187.8730  178.5560  141.9820 C   0  0  0  0  0  0  0  0  0  0  0  0
  187.9810  178.4140  140.5910 C   0  0  0  0  0  3  0  0  0  0  0  0
  185.2080  178.8330  144.5510 C   0  0  0  0  0  3  0  0  0  0  0  0
  186.9560  178.1970  138.3070 C   0  0  0  0  0  0  0  0  0  0  0  0
  188.4390  178.1410  137.5920 S   0  0  0  0  0  0  0  0  0  0  0  0
  185.7520  178.0390  137.5380 N   0  0  0  0  0  2  0  0  0  0  0  0
  185.1480  176.8210  137.0810 C   0  0  0  0  0  0  0  0  0  0  0  0
  185.7240  175.7100  137.2180 O   0  0  0  0  0  0  0  0  0  0  0  0
  183.8410  176.8810  136.3730 C   0  0  0  0  0  2  0  0  0  0  0  0
  182.8470  176.1120  137.1120 N   0  0  0  0  0  0  0  0  0  0  0  0
  180.5110  176.3870  136.4470 C   0  0  0  0  0  2  0  0  0  0  0  0
  181.7280  178.2790  137.9470 C   0  0  2  0  0  3  0  0  0  0  0  0
  182.4910  175.0240  136.2830 N   0  0  0  0  0  2  0  0  0  0  0  0
  181.6500  176.9240  137.2470 C   0  0  2  0  0  0  0  0  0  0  0  0
  181.2600  177.0490  138.7070 C   0  0  0  0  0  2  0  0  0  0  0  0
  181.0350  175.0180  136.1030 C   0  0  0  0  0  2  0  0  0  0  0  0
  180.5400  179.1670  137.5840 C   0  0  0  0  0  3  0  0  0  0  0  0
  180.3560  180.5100  139.6990 C   0  0  0  0  0  2  0  0  0  0  0  0
  181.5550  181.4210  138.0220 C   0  0  0  0  0  2  0  0  0  0  0  0
  180.5480  181.6930  138.9650 O   0  0  0  0  0  0  0  0  0  0  0  0
  181.0200  180.4740  136.9460 C   0  0  0  0  0  2  0  0  0  0  0  0
  179.6810  179.4530  138.8210 C   0  0  0  0  0  2  0  0  0  0  0  0
  189.0170  178.6280  142.7900 O   0  0  0  0  0  0  0  0  0  0  0  0
  191.3440  175.8880  143.8680 C   0  0  0  0  0  2  0  0  0  0  0  0
  191.5360  176.3740  145.2430 N   0  0  0  0  0  0  0  0  0  0  0  0
  189.7040  177.9910  145.0060 C   0  0  0  0  0  2  0  0  0  0  0  0
  190.8070  177.0120  142.9880 C   0  0  0  0  0  2  0  0  0  0  0  0
  189.4930  177.5350  143.5670 C   0  0  0  0  0  3  0  0  0  0  0  0
  190.2710  176.8390  145.8320 C   0  0  0  0  0  2  0  0  0  0  0  0
  192.0550  175.8030  147.3920 C   0  0  0  0  0  1  0  0  0  0  0  0
  192.1410  175.4260  146.0330 O   0  0  0  0  0  0  0  0  0  0  0  0
  1  6  1  0  0  0  0
  1  8  1  0  0  0  0
  2 12  1  0  0  0  0
  3 10  2  0  0  0  0
  3 14  1  0  0  0  0
  4  8  2  0  0  0  0
  4 15  1  0  0  0  0
  5  1  2  0  0  0  0
  7  4  1  0  0  0  0
  9  5  1  0  0  0  0
  9  7  2  0  0  0  0
 10 11  1  0  0  0  0
 11  7  1  0  0  0  0
 11  2  2  0  0  0  0
 12 15  2  0  0  0  0
 13  2  1  0  0  0  0
 13 35  1  0  0  0  0
 14 13  2  0  0  0  0
 16  3  1  0  0  0  0
 17 16  2  0  0  0  0
 18 16  1  0  0  0  0
 19 20  2  0  0  0  0
 19 18  1  0  0  0  0
 21 19  1  0  0  0  0
 21 22  1  0  0  0  0
 22 26  1  0  0  0  0
 24 29  1  6  0  0  0
 24 27  1  0  0  0  0
 25 22  1  0  0  0  0
 26 23  1  6  0  0  0
 26 24  1  0  0  0  0
 26 27  1  0  0  0  0
 28 25  1  0  0  0  0
 28 23  1  0  0  0  0
 29 34  1  0  0  0  0
 31 32  1  0  0  0  0
 32 30  1  0  0  0  0
 33 29  1  0  0  0  0
 33 31  1  0  0  0  0
 34 30  1  0  0  0  0
 35 40  1  0  0  0  0
 36 37  1  0  0  0  0
 37 41  1  0  0  0  0
 37 43  1  0  0  0  0
 38 41  1  0  0  0  0
 39 40  1  0  0  0  0
 39 36  1  0  0  0  0
 40 38  1  0  0  0  0
 43 42  1  0  0  0  0
M  END
>  <MODEL>
8

>  <REMARK>
 VINA RESULT:      -8.2      3.173      7.315
  Name = 
  8 active torsions:
  status: ('A' for Active; 'I' for Inactive)
    1  A    between atoms: O_1  and  C_34
    2  A    between atoms: O_1  and  C_35
    3  A    between atoms: C_2  and  N_6
    4  A    between atoms: C_2  and  C_13
    5  A    between atoms: C_3  and  N_4
    6  A    between atoms: C_3  and  C_12
    7  A    between atoms: C_11  and  C_14
    8  A    between atoms: N_19  and  O_37
                            x       y       z     vdW  Elec       q    Type
                         _______ _______ _______ _____ _____    ______ ____

>  <TORSDO>
F 8

$$$$
=
 OpenBabel11052416323D

 43 49  0  0  1  0  0  0  0  0999 V2000
  191.9170  176.6900  138.5840 C   0  0  0  0  0  0  0  0  0  0  0  0
  187.2030  176.5200  136.7420 C   0  0  0  0  0  0  0  0  0  0  0  0
  185.6160  178.1510  138.4070 C   0  0  0  0  0  0  0  0  0  0  0  0
  189.9480  176.2070  137.2580 C   0  0  0  0  0  0  0  0  0  0  0  0
  191.1560  177.5030  139.4270 C   0  0  0  0  0  3  0  0  0  0  0  0
  193.2750  176.5250  138.8210 O   0  0  0  0  0  1  0  0  0  0  0  0
  189.1670  177.0300  138.1080 C   0  0  0  0  0  0  0  0  0  0  0  0
  191.3150  176.0430  137.5020 C   0  0  0  0  0  3  0  0  0  0  0  0
  189.7890  177.6730  139.1920 C   0  0  0  0  0  3  0  0  0  0  0  0
  186.9830  177.9940  138.6640 C   0  0  0  0  0  3  0  0  0  0  0  0
  187.7890  177.1870  137.8470 C   0  0  0  0  0  0  0  0  0  0  0  0
  187.9980  175.7110  135.9180 C   0  0  0  0  0  3  0  0  0  0  0  0
  185.8320  176.6720  136.4720 C   0  0  0  0  0  0  0  0  0  0  0  0
  185.0540  177.4850  137.3090 C   0  0  0  0  0  3  0  0  0  0  0  0
  189.3590  175.5560  136.1750 C   0  0  0  0  0  3  0  0  0  0  0  0
  184.7980  179.0140  139.2870 C   0  0  0  0  0  0  0  0  0  0  0  0
  183.3020  179.5060  138.8040 S   0  0  0  0  0  0  0  0  0  0  0  0
  185.3090  179.3500  140.5880 N   0  0  0  0  0  2  0  0  0  0  0  0
  184.9900  178.7420  141.8470 C   0  0  0  0  0  0  0  0  0  0  0  0
  184.0790  177.8790  141.9480 O   0  0  0  0  0  0  0  0  0  0  0  0
  185.7100  179.1860  143.0700 C   0  0  0  0  0  2  0  0  0  0  0  0
  185.6060  178.1610  144.1020 N   0  0  0  0  0  0  0  0  0  0  0  0
  186.7350  178.6030  146.2250 C   0  0  0  0  0  2  0  0  0  0  0  0
  188.1590  177.8070  144.0680 C   0  0  2  0  0  3  0  0  0  0  0  0
  184.6440  178.6250  145.0270 N   0  0  0  0  0  2  0  0  0  0  0  0
  186.8660  178.1090  144.8230 C   0  0  2  0  0  0  0  0  0  0  0  0
  187.4250  176.7000  144.8060 C   0  0  0  0  0  2  0  0  0  0  0  0
  185.2360  178.6300  146.3690 C   0  0  0  0  0  2  0  0  0  0  0  0
  189.3870  178.2520  144.8590 C   0  0  0  0  0  3  0  0  0  0  0  0
  190.9200  176.3210  144.3820 C   0  0  0  0  0  2  0  0  0  0  0  0
  191.1200  178.1250  143.0460 C   0  0  0  0  0  2  0  0  0  0  0  0
  191.8540  177.2030  143.8110 O   0  0  0  0  0  0  0  0  0  0  0  0
  190.3360  179.0610  143.9680 C   0  0  0  0  0  2  0  0  0  0  0  0
  190.1110  177.0440  145.4620 C   0  0  0  0  0  2  0  0  0  0  0  0
  185.2590  176.0090  135.3770 O   0  0  0  0  0  0  0  0  0  0  0  0
  184.0190  172.8330  136.9440 C   0  0  0  0  0  2  0  0  0  0  0  0
  182.5950  173.2030  136.9490 N   0  0  0  0  0  0  0  0  0  0  0  0
  183.0180  175.1420  135.5040 C   0  0  0  0  0  2  0  0  0  0  0  0
  184.8810  174.0810  136.7890 C   0  0  0  0  0  2  0  0  0  0  0  0
  184.5050  174.8090  135.4990 C   0  0  0  0  0  3  0  0  0  0  0  0
  182.2050  173.8640  135.6940 C   0  0  0  0  0  2  0  0  0  0  0  0
  180.4920  172.5540  137.5580 C   0  0  0  0  0  1  0  0  0  0  0  0
  181.7930  172.1190  137.2190 O   0  0  0  0  0  0  0  0  0  0  0  0
  1  6  1  0  0  0  0
  1  5  1  0  0  0  0
  2 11  1  0  0  0  0
  3 10  1  0  0  0  0
  3 16  1  0  0  0  0
  4  8  1  0  0  0  0
  4  7  2  0  0  0  0
  7  9  1  0  0  0  0
  8  1  2  0  0  0  0
  9  5  2  0  0  0  0
 11  7  1  0  0  0  0
 11 10  2  0  0  0  0
 12 15  2  0  0  0  0
 12  2  1  0  0  0  0
 13  2  2  0  0  0  0
 13 14  1  0  0  0  0
 14  3  2  0  0  0  0
 15  4  1  0  0  0  0
 16 18  1  0  0  0  0
 17 16  2  0  0  0  0
 18 19  1  0  0  0  0
 19 20  2  0  0  0  0
 19 21  1  0  0  0  0
 21 22  1  0  0  0  0
 22 26  1  0  0  0  0
 22 25  1  0  0  0  0
 23 28  1  0  0  0  0
 24 27  1  0  0  0  0
 24 26  1  0  0  0  0
 24 29  1  1  0  0  0
 25 28  1  0  0  0  0
 26 27  1  1  0  0  0
 26 23  1  0  0  0  0
 29 34  1  0  0  0  0
 30 34  1  0  0  0  0
 31 32  1  0  0  0  0
 31 33  1  0  0  0  0
 32 30  1  0  0  0  0
 33 29  1  0  0  0  0
 35 40  1  0  0  0  0
 35 13  1  0  0  0  0
 36 37  1  0  0  0  0
 37 43  1  0  0  0  0
 38 41  1  0  0  0  0
 39 36  1  0  0  0  0
 40 38  1  0  0  0  0
 40 39  1  0  0  0  0
 41 37  1  0  0  0  0
 43 42  1  0  0  0  0
M  END
>  <MODEL>
9

>  <REMARK>
 VINA RESULT:      -8.2      3.138      8.173
  Name = 
  8 active torsions:
  status: ('A' for Active; 'I' for Inactive)
    1  A    between atoms: O_1  and  C_34
    2  A    between atoms: O_1  and  C_35
    3  A    between atoms: C_2  and  N_6
    4  A    between atoms: C_2  and  C_13
    5  A    between atoms: C_3  and  N_4
    6  A    between atoms: C_3  and  C_12
    7  A    between atoms: C_11  and  C_14
    8  A    between atoms: N_19  and  O_37
                            x       y       z     vdW  Elec       q    Type
                         _______ _______ _______ _____ _____    ______ ____

>  <TORSDO>
F 8

$$$$
