=
 OpenBabel11052417053D

 32 37  0  0  0  0  0  0  0  0999 V2000
  188.9450  177.3130  146.3700 C   0  0  0  0  0  0  0  0  0  0  0  0
  185.1050  178.4120  143.1790 C   0  0  0  0  0  0  0  0  0  0  0  0
  188.5650  177.7330  140.4820 O   0  0  0  0  0  0  0  0  0  0  0  0
  186.9490  178.2370  138.4040 S   0  0  0  0  0  0  0  0  0  0  0  0
  182.6680  179.0010  143.0870 N   0  0  0  0  0  0  0  0  0  0  0  0
  181.5340  179.3100  142.4050 C   0  0  0  0  0  0  0  0  0  0  0  0
  186.4870  177.9690  145.1810 C   0  0  0  0  0  0  0  0  0  0  0  0
  187.5380  177.8390  143.0000 O   0  0  0  0  0  0  0  0  0  0  0  0
  179.2590  179.9340  141.0210 N   0  0  0  0  0  0  0  0  0  0  0  0
  188.8470  177.4140  144.9810 C   0  0  0  0  0  3  0  0  0  0  0  0
  187.3970  178.0340  140.1170 C   0  0  0  0  0  0  0  0  0  0  0  0
  186.3350  178.1620  142.3640 C   0  0  0  0  0  0  0  0  0  0  0  0
  186.2880  178.2480  141.0250 C   0  0  0  0  0  0  0  0  0  0  0  0
  183.8690  178.8290  141.0350 C   0  0  0  0  0  0  0  0  0  0  0  0
  179.2400  179.8620  142.3800 C   0  0  0  0  0  3  0  0  0  0  0  0
  187.8210  177.5380  147.1690 C   0  0  0  0  0  3  0  0  0  0  0  0
  187.6240  177.7410  144.3860 C   0  0  0  0  0  0  0  0  0  0  0  0
  180.3730  179.5520  143.0660 N   0  0  0  0  0  0  0  0  0  0  0  0
  186.5970  177.8640  146.5770 C   0  0  0  0  0  3  0  0  0  0  0  0
  185.2140  178.6260  138.8820 C   0  0  0  0  0  2  0  0  0  0  0  0
  185.0920  178.5740  140.3360 N   0  0  0  0  0  0  0  0  0  0  0  0
  182.7330  179.1390  140.3510 N   0  0  0  0  0  0  0  0  0  0  0  0
  185.1930  178.3150  144.5340 C   0  0  0  0  0  0  0  0  0  0  0  0
  184.0130  178.5480  145.4280 C   0  0  0  0  0  1  0  0  0  0  0  0
  180.4020  179.6990  140.3220 C   0  0  0  0  0  3  0  0  0  0  0  0
  183.8430  178.7560  142.4420 C   0  0  0  0  0  0  0  0  0  0  0  0
  181.5720  179.3810  141.0060 C   0  0  0  0  0  0  0  0  0  0  0  0
  191.2570  176.6970  147.4880 C   0  0  0  0  0  0  0  0  0  0  0  0
  190.2020  176.9780  146.9790 C   0  0  0  0  0  0  0  0  0  0  0  0
  192.5140  176.3630  148.0960 C   0  0  0  0  0  0  0  0  0  0  0  0
  193.0120  177.1420  149.1320 O   0  0  0  0  0  1  0  0  0  0  0  0
  193.1630  175.3640  147.6900 O   0  0  0  0  0  0  0  0  0  0  0  0
  1 29  1  0  0  0  0
  1 16  1  0  0  0  0
  2 23  2  0  0  0  0
  4 20  1  0  0  0  0
  4 11  1  0  0  0  0
  6 18  1  0  0  0  0
  6  5  2  0  0  0  0
  7 19  1  0  0  0  0
  8 17  1  0  0  0  0
  9 15  1  0  0  0  0
 10  1  2  0  0  0  0
 11  3  2  0  0  0  0
 11 13  1  0  0  0  0
 12  8  1  0  0  0  0
 12  2  1  0  0  0  0
 13 12  2  0  0  0  0
 14 26  2  0  0  0  0
 15 18  2  0  0  0  0
 17 10  1  0  0  0  0
 17  7  2  0  0  0  0
 19 16  2  0  0  0  0
 20 21  1  0  0  0  0
 21 13  1  0  0  0  0
 21 14  1  0  0  0  0
 22 27  2  0  0  0  0
 22 14  1  0  0  0  0
 23  7  1  0  0  0  0
 23 24  1  0  0  0  0
 25 27  1  0  0  0  0
 25  9  2  0  0  0  0
 26  5  1  0  0  0  0
 26  2  1  0  0  0  0
 27  6  1  0  0  0  0
 28 30  1  0  0  0  0
 29 28  3  0  0  0  0
 30 31  1  0  0  0  0
 32 30  2  0  0  0  0
M  END
>  <MODEL>
1

>  <REMARK>
 VINA RESULT:     -10.5      0.000      0.000
  Name = 
  2 active torsions:
  status: ('A' for Active; 'I' for Inactive)
    1  A    between atoms: C_1  and  C_10
    2  A    between atoms: C_2  and  C_24
                            x       y       z     vdW  Elec       q    Type
                         _______ _______ _______ _____ _____    ______ ____

>  <TORSDO>
F 2

$$$$
=
 OpenBabel11052417053D

 32 37  0  0  0  0  0  0  0  0999 V2000
  183.2350  179.1880  139.7470 C   0  0  0  0  0  0  0  0  0  0  0  0
  187.4690  178.0110  142.3590 C   0  0  0  0  0  0  0  0  0  0  0  0
  188.8210  178.1000  138.1320 O   0  0  0  0  0  0  0  0  0  0  0  0
  191.2830  177.4750  138.9830 S   0  0  0  0  0  0  0  0  0  0  0  0
  188.3640  177.6010  144.6670 N   0  0  0  0  0  0  0  0  0  0  0  0
  189.3730  177.3000  145.5250 C   0  0  0  0  0  0  0  0  0  0  0  0
  185.1550  178.5830  141.7060 C   0  0  0  0  0  0  0  0  0  0  0  0
  186.8280  178.3720  139.9640 O   0  0  0  0  0  0  0  0  0  0  0  0
  191.4120  176.6900  147.2430 N   0  0  0  0  0  0  0  0  0  0  0  0
  184.5560  178.9290  139.3740 C   0  0  0  0  0  3  0  0  0  0  0  0
  189.5470  177.8460  139.1290 C   0  0  0  0  0  0  0  0  0  0  0  0
  187.8160  178.0680  140.9040 C   0  0  0  0  0  0  0  0  0  0  0  0
  189.0740  177.8260  140.4990 C   0  0  0  0  0  0  0  0  0  0  0  0
  189.8680  177.4360  142.8240 C   0  0  0  0  0  0  0  0  0  0  0  0
  190.1580  176.9250  147.7190 C   0  0  0  0  0  3  0  0  0  0  0  0
  182.8680  179.1450  141.0940 C   0  0  0  0  0  3  0  0  0  0  0  0
  185.5130  178.6280  140.3470 C   0  0  0  0  0  0  0  0  0  0  0  0
  189.1460  177.2270  146.8620 N   0  0  0  0  0  0  0  0  0  0  0  0
  183.8240  178.8450  142.0690 C   0  0  0  0  0  3  0  0  0  0  0  0
  191.4170  177.2790  140.8090 C   0  0  0  0  0  2  0  0  0  0  0  0
  190.1100  177.5130  141.4160 N   0  0  0  0  0  0  0  0  0  0  0  0
  190.8800  177.1340  143.6840 N   0  0  0  0  0  0  0  0  0  0  0  0
  186.1840  178.2610  142.7300 C   0  0  0  0  0  0  0  0  0  0  0  0
  185.7470  178.2270  144.1630 C   0  0  0  0  0  1  0  0  0  0  0  0
  191.6800  176.7530  145.9120 C   0  0  0  0  0  3  0  0  0  0  0  0
  188.5720  177.6780  143.3220 C   0  0  0  0  0  0  0  0  0  0  0  0
  190.6580  177.0600  145.0190 C   0  0  0  0  0  0  0  0  0  0  0  0
  181.4300  179.7550  137.9040 C   0  0  0  0  0  0  0  0  0  0  0  0
  182.2530  179.4970  138.7450 C   0  0  0  0  0  0  0  0  0  0  0  0
  180.4500  180.0630  136.9020 C   0  0  0  0  0  0  0  0  0  0  0  0
  180.8050  180.8180  135.7920 O   0  0  0  0  0  0  0  0  0  0  0  0
  179.2690  179.6490  137.0300 O   0  0  0  0  0  1  0  0  0  0  0  0
  1 16  1  0  0  0  0
  2 23  2  0  0  0  0
  2 26  1  0  0  0  0
  3 11  2  0  0  0  0
  4 11  1  0  0  0  0
  4 20  1  0  0  0  0
  5  6  2  0  0  0  0
  6 18  1  0  0  0  0
  7 19  1  0  0  0  0
  7 23  1  0  0  0  0
  8 17  1  0  0  0  0
  8 12  1  0  0  0  0
  9 15  1  0  0  0  0
 10  1  2  0  0  0  0
 10 17  1  0  0  0  0
 11 13  1  0  0  0  0
 12  2  1  0  0  0  0
 13 12  2  0  0  0  0
 13 21  1  0  0  0  0
 14 26  2  0  0  0  0
 14 22  1  0  0  0  0
 16 19  2  0  0  0  0
 17  7  2  0  0  0  0
 18 15  2  0  0  0  0
 20 21  1  0  0  0  0
 21 14  1  0  0  0  0
 22 27  2  0  0  0  0
 23 24  1  0  0  0  0
 25  9  2  0  0  0  0
 26  5  1  0  0  0  0
 27  6  1  0  0  0  0
 27 25  1  0  0  0  0
 28 29  3  0  0  0  0
 29  1  1  0  0  0  0
 30 32  1  0  0  0  0
 30 28  1  0  0  0  0
 31 30  2  0  0  0  0
M  END
>  <MODEL>
2

>  <REMARK>
 VINA RESULT:      -9.3      4.390      9.129
  Name = 
  2 active torsions:
  status: ('A' for Active; 'I' for Inactive)
    1  A    between atoms: C_1  and  C_10
    2  A    between atoms: C_2  and  C_24
                            x       y       z     vdW  Elec       q    Type
                         _______ _______ _______ _____ _____    ______ ____

>  <TORSDO>
F 2

$$$$
=
 OpenBabel11052417053D

 32 37  0  0  0  0  0  0  0  0999 V2000
  191.6440  176.7380  138.1150 C   0  0  0  0  0  0  0  0  0  0  0  0
  188.3920  177.6010  141.9650 C   0  0  0  0  0  0  0  0  0  0  0  0
  192.1320  176.3380  143.9970 O   0  0  0  0  0  0  0  0  0  0  0  0
  190.8710  176.6360  146.3420 S   0  0  0  0  0  0  0  0  0  0  0  0
  186.0480  178.3170  142.5010 N   0  0  0  0  0  0  0  0  0  0  0  0
  185.0510  178.5950  143.3800 C   0  0  0  0  0  0  0  0  0  0  0  0
  189.4380  177.3640  139.7380 C   0  0  0  0  0  0  0  0  0  0  0  0
  190.7720  176.8610  141.6990 O   0  0  0  0  0  0  0  0  0  0  0  0
  183.0510  179.1510  145.1610 N   0  0  0  0  0  0  0  0  0  0  0  0
  191.7500  176.6450  139.5050 C   0  0  0  0  0  3  0  0  0  0  0  0
  191.0550  176.6520  144.5700 C   0  0  0  0  0  0  0  0  0  0  0  0
  189.7010  177.1640  142.5450 C   0  0  0  0  0  0  0  0  0  0  0  0
  189.8510  177.0610  143.8760 C   0  0  0  0  0  0  0  0  0  0  0  0
  187.5080  177.7810  144.3080 C   0  0  0  0  0  0  0  0  0  0  0  0
  182.8350  179.2750  143.8230 C   0  0  0  0  0  3  0  0  0  0  0  0
  190.4400  177.1410  137.5320 C   0  0  0  0  0  3  0  0  0  0  0  0
  190.6540  176.9570  140.3150 C   0  0  0  0  0  0  0  0  0  0  0  0
  183.8310  178.9980  142.9400 N   0  0  0  0  0  2  0  0  0  0  0  0
  189.3430  177.4540  138.3400 C   0  0  0  0  0  3  0  0  0  0  0  0
  189.1220  177.1940  146.1870 C   0  0  0  0  0  2  0  0  0  0  0  0
  188.7930  177.3570  144.7740 N   0  0  0  0  0  0  0  0  0  0  0  0
  186.5090  178.0590  145.1900 N   0  0  0  0  0  0  0  0  0  0  0  0
  188.2810  177.6920  140.6120 C   0  0  0  0  0  0  0  0  0  0  0  0
  187.0090  178.1220  139.9450 C   0  0  0  0  0  1  0  0  0  0  0  0
  184.2580  178.7500  145.6430 C   0  0  0  0  0  2  0  0  0  0  0  0
  187.2790  177.9120  142.9240 C   0  0  0  0  0  0  0  0  0  0  0  0
  185.2900  178.4610  144.7540 C   0  0  0  0  0  0  0  0  0  0  0  0
  193.7170  176.1460  136.5890 C   0  0  0  0  0  0  0  0  0  0  0  0
  192.7710  176.4160  137.2860 C   0  0  0  0  0  0  0  0  0  0  0  0
  194.8430  175.8260  135.7600 C   0  0  0  0  0  0  0  0  0  0  0  0
  195.8990  176.7210  135.6470 O   0  0  0  0  0  1  0  0  0  0  0  0
  194.8740  174.7330  135.1370 O   0  0  0  0  0  0  0  0  0  0  0  0
  1 10  1  0  0  0  0
  2 12  1  0  0  0  0
  2 26  1  0  0  0  0
  3 11  2  0  0  0  0
  5 26  1  0  0  0  0
  5  6  2  0  0  0  0
  6 27  1  0  0  0  0
  7 17  1  0  0  0  0
  7 23  1  0  0  0  0
  8 12  1  0  0  0  0
  9 25  1  0  0  0  0
 10 17  2  0  0  0  0
 11  4  1  0  0  0  0
 12 13  2  0  0  0  0
 13 11  1  0  0  0  0
 13 21  1  0  0  0  0
 14 21  1  0  0  0  0
 14 22  1  0  0  0  0
 15  9  2  0  0  0  0
 16  1  2  0  0  0  0
 16 19  1  0  0  0  0
 17  8  1  0  0  0  0
 18  6  1  0  0  0  0
 18 15  1  0  0  0  0
 19  7  2  0  0  0  0
 20  4  1  0  0  0  0
 21 20  1  0  0  0  0
 23  2  2  0  0  0  0
 24 23  1  0  0  0  0
 26 14  2  0  0  0  0
 27 22  2  0  0  0  0
 27 25  1  0  0  0  0
 28 29  3  0  0  0  0
 29  1  1  0  0  0  0
 30 28  1  0  0  0  0
 31 30  1  0  0  0  0
 32 30  2  0  0  0  0
M  END
>  <MODEL>
3

>  <REMARK>
 VINA RESULT:      -9.3      4.372      7.288
  Name = 
  2 active torsions:
  status: ('A' for Active; 'I' for Inactive)
    1  A    between atoms: C_1  and  C_10
    2  A    between atoms: C_2  and  C_24
                            x       y       z     vdW  Elec       q    Type
                         _______ _______ _______ _____ _____    ______ ____

>  <TORSDO>
F 2

$$$$
=
 OpenBabel11052417053D

 32 37  0  0  0  0  0  0  0  0999 V2000
  182.8470  179.0170  142.3250 C   0  0  0  0  0  0  0  0  0  0  0  0
  187.5500  177.6290  143.7700 C   0  0  0  0  0  0  0  0  0  0  0  0
  187.8450  177.9390  139.3510 O   0  0  0  0  0  0  0  0  0  0  0  0
  190.4220  177.2310  139.5470 S   0  0  0  0  0  0  0  0  0  0  0  0
  188.9630  177.0740  145.7680 N   0  0  0  0  0  0  0  0  0  0  0  0
  190.1400  176.7090  146.3390 C   0  0  0  0  0  0  0  0  0  0  0  0
  185.1640  178.2720  143.7270 C   0  0  0  0  0  0  0  0  0  0  0  0
  186.3610  178.1360  141.6230 O   0  0  0  0  0  0  0  0  0  0  0  0
  192.5140  175.9710  147.4790 N   0  0  0  0  0  0  0  0  0  0  0  0
  184.0300  178.7600  141.6310 C   0  0  0  0  0  3  0  0  0  0  0  0
  188.7820  177.6190  140.1290 C   0  0  0  0  0  0  0  0  0  0  0  0
  187.5380  177.7640  142.2790 C   0  0  0  0  0  0  0  0  0  0  0  0
  188.6530  177.5270  141.5690 C   0  0  0  0  0  0  0  0  0  0  0  0
  189.9730  176.9930  143.6090 C   0  0  0  0  0  0  0  0  0  0  0  0
  191.4190  176.1970  148.2550 C   0  0  0  0  0  3  0  0  0  0  0  0
  182.8140  178.9030  143.7170 C   0  0  0  0  0  3  0  0  0  0  0  0
  185.1850  178.3890  142.3260 C   0  0  0  0  0  0  0  0  0  0  0  0
  190.2400  176.5630  147.6860 N   0  0  0  0  0  0  0  0  0  0  0  0
  183.9670  178.5330  144.4150 C   0  0  0  0  0  3  0  0  0  0  0  0
  190.9860  176.9280  141.2740 C   0  0  0  0  0  2  0  0  0  0  0  0
  189.8700  177.1460  142.1900 N   0  0  0  0  0  0  0  0  0  0  0  0
  191.1530  176.6260  144.1820 N   0  0  0  0  0  0  0  0  0  0  0  0
  186.4000  177.8770  144.4530 C   0  0  0  0  0  0  0  0  0  0  0  0
  186.3210  177.7670  145.9460 C   0  0  0  0  0  1  0  0  0  0  0  0
  192.4560  176.1060  146.1270 C   0  0  0  0  0  3  0  0  0  0  0  0
  188.8430  177.2250  144.4180 C   0  0  0  0  0  0  0  0  0  0  0  0
  191.2570  176.4800  145.5250 C   0  0  0  0  0  0  0  0  0  0  0  0
  180.6680  179.7170  141.0070 C   0  0  0  0  0  0  0  0  0  0  0  0
  181.6620  179.3970  141.6080 C   0  0  0  0  0  0  0  0  0  0  0  0
  179.4840  180.0960  140.2900 C   0  0  0  0  0  0  0  0  0  0  0  0
  178.9310  181.3560  140.4820 O   0  0  0  0  0  1  0  0  0  0  0  0
  178.9490  179.2890  139.4870 O   0  0  0  0  0  0  0  0  0  0  0  0
  1 16  1  0  0  0  0
  2 26  1  0  0  0  0
  2 23  2  0  0  0  0
  3 11  2  0  0  0  0
  4 11  1  0  0  0  0
  4 20  1  0  0  0  0
  5  6  2  0  0  0  0
  6 18  1  0  0  0  0
  7 19  1  0  0  0  0
  7 23  1  0  0  0  0
  8 12  1  0  0  0  0
  8 17  1  0  0  0  0
  9 15  1  0  0  0  0
 10  1  2  0  0  0  0
 10 17  1  0  0  0  0
 11 13  1  0  0  0  0
 12  2  1  0  0  0  0
 13 21  1  0  0  0  0
 13 12  2  0  0  0  0
 14 22  1  0  0  0  0
 14 26  2  0  0  0  0
 16 19  2  0  0  0  0
 17  7  2  0  0  0  0
 18 15  2  0  0  0  0
 20 21  1  0  0  0  0
 21 14  1  0  0  0  0
 22 27  2  0  0  0  0
 23 24  1  0  0  0  0
 25  9  2  0  0  0  0
 26  5  1  0  0  0  0
 27 25  1  0  0  0  0
 27  6  1  0  0  0  0
 28 29  3  0  0  0  0
 29  1  1  0  0  0  0
 30 31  1  0  0  0  0
 30 28  1  0  0  0  0
 32 30  2  0  0  0  0
M  END
>  <MODEL>
4

>  <REMARK>
 VINA RESULT:      -8.9      4.301      8.932
  Name = 
  2 active torsions:
  status: ('A' for Active; 'I' for Inactive)
    1  A    between atoms: C_1  and  C_10
    2  A    between atoms: C_2  and  C_24
                            x       y       z     vdW  Elec       q    Type
                         _______ _______ _______ _____ _____    ______ ____

>  <TORSDO>
F 2

$$$$
=
 OpenBabel11052417053D

 32 37  0  0  0  0  0  0  0  0999 V2000
  188.1750  177.9450  143.7850 C   0  0  0  0  0  0  0  0  0  0  0  0
  190.3070  176.9780  139.2410 C   0  0  0  0  0  0  0  0  0  0  0  0
  186.0470  177.7620  138.2690 O   0  0  0  0  0  0  0  0  0  0  0  0
  186.6350  177.3430  135.6880 S   0  0  0  0  0  0  0  0  0  0  0  0
  192.4720  176.3940  138.1140 N   0  0  0  0  0  0  0  0  0  0  0  0
  193.2100  176.1140  137.0090 C   0  0  0  0  0  0  0  0  0  0  0  0
  189.8980  177.3390  141.6520 C   0  0  0  0  0  0  0  0  0  0  0  0
  188.0320  177.5550  140.1180 O   0  0  0  0  0  0  0  0  0  0  0  0
  194.6860  175.5480  134.7770 N   0  0  0  0  0  0  0  0  0  0  0  0
  187.6800  177.8990  142.4800 C   0  0  0  0  0  3  0  0  0  0  0  0
  186.9490  177.4770  137.4380 C   0  0  0  0  0  0  0  0  0  0  0  0
  188.8520  177.2590  139.0260 C   0  0  0  0  0  0  0  0  0  0  0  0
  188.3330  177.2270  137.7880 C   0  0  0  0  0  0  0  0  0  0  0  0
  190.5240  176.6480  136.7620 C   0  0  0  0  0  0  0  0  0  0  0  0
  195.2740  175.5660  136.0040 C   0  0  0  0  0  3  0  0  0  0  0  0
  189.5260  177.6890  144.0300 C   0  0  0  0  0  3  0  0  0  0  0  0
  188.5360  177.5980  141.4160 C   0  0  0  0  0  0  0  0  0  0  0  0
  194.5370  175.8470  137.1120 N   0  0  0  0  0  0  0  0  0  0  0  0
  190.3840  177.3880  142.9680 C   0  0  0  0  0  3  0  0  0  0  0  0
  188.4050  176.9360  135.3800 C   0  0  0  0  0  2  0  0  0  0  0  0
  189.1260  176.9300  136.6500 N   0  0  0  0  0  0  0  0  0  0  0  0
  191.2640  176.3670  135.6540 N   0  0  0  0  0  0  0  0  0  0  0  0
  190.7960  177.0200  140.5100 C   0  0  0  0  0  0  0  0  0  0  0  0
  192.2380  176.7530  140.8170 C   0  0  0  0  0  1  0  0  0  0  0  0
  193.3600  175.8100  134.6300 C   0  0  0  0  0  3  0  0  0  0  0  0
  191.1380  176.6650  138.0300 C   0  0  0  0  0  0  0  0  0  0  0  0
  192.5890  176.1000  135.7530 C   0  0  0  0  0  0  0  0  0  0  0  0
  186.5540  178.5140  145.7920 C   0  0  0  0  0  0  0  0  0  0  0  0
  187.2930  178.2540  144.8770 C   0  0  0  0  0  0  0  0  0  0  0  0
  185.6740  178.8230  146.8820 C   0  0  0  0  0  0  0  0  0  0  0  0
  186.0550  179.7530  147.8400 O   0  0  0  0  0  1  0  0  0  0  0  0
  184.5550  178.2530  146.9680 O   0  0  0  0  0  0  0  0  0  0  0  0
  1 16  1  0  0  0  0
  1 29  1  0  0  0  0
  2 23  2  0  0  0  0
  4 11  1  0  0  0  0
  6 18  1  0  0  0  0
  6  5  2  0  0  0  0
  7 19  1  0  0  0  0
  8 17  1  0  0  0  0
  9 15  1  0  0  0  0
 10  1  2  0  0  0  0
 11 13  1  0  0  0  0
 11  3  2  0  0  0  0
 12  2  1  0  0  0  0
 12  8  1  0  0  0  0
 13 12  2  0  0  0  0
 14 26  2  0  0  0  0
 15 18  2  0  0  0  0
 17  7  2  0  0  0  0
 17 10  1  0  0  0  0
 19 16  2  0  0  0  0
 20  4  1  0  0  0  0
 20 21  1  0  0  0  0
 21 14  1  0  0  0  0
 21 13  1  0  0  0  0
 22 27  2  0  0  0  0
 22 14  1  0  0  0  0
 23 24  1  0  0  0  0
 23  7  1  0  0  0  0
 25  9  2  0  0  0  0
 25 27  1  0  0  0  0
 26  5  1  0  0  0  0
 26  2  1  0  0  0  0
 27  6  1  0  0  0  0
 28 30  1  0  0  0  0
 29 28  3  0  0  0  0
 30 32  2  0  0  0  0
 30 31  1  0  0  0  0
M  END
>  <MODEL>
5

>  <REMARK>
 VINA RESULT:      -8.3      5.311      8.711
  Name = 
  2 active torsions:
  status: ('A' for Active; 'I' for Inactive)
    1  A    between atoms: C_1  and  C_10
    2  A    between atoms: C_2  and  C_24
                            x       y       z     vdW  Elec       q    Type
                         _______ _______ _______ _____ _____    ______ ____

>  <TORSDO>
F 2

$$$$
=
 OpenBabel11052417053D

 32 37  0  0  0  0  0  0  0  0999 V2000
  187.8430  177.8250  145.1330 C   0  0  0  0  0  0  0  0  0  0  0  0
  184.5780  178.5970  141.2750 C   0  0  0  0  0  0  0  0  0  0  0  0
  188.4150  177.6650  139.2470 O   0  0  0  0  0  0  0  0  0  0  0  0
  187.1610  177.9600  136.8980 S   0  0  0  0  0  0  0  0  0  0  0  0
  182.1950  179.1700  140.7360 N   0  0  0  0  0  0  0  0  0  0  0  0
  181.1900  179.4080  139.8550 C   0  0  0  0  0  0  0  0  0  0  0  0
  185.6160  178.3550  143.5060 C   0  0  0  0  0  0  0  0  0  0  0  0
  187.0000  178.0150  141.5450 O   0  0  0  0  0  0  0  0  0  0  0  0
  179.1740  179.8880  138.0690 N   0  0  0  0  0  0  0  0  0  0  0  0
  187.9700  177.7900  143.7430 C   0  0  0  0  0  3  0  0  0  0  0  0
  187.3260  177.9270  138.6720 C   0  0  0  0  0  0  0  0  0  0  0  0
  185.9200  178.2720  140.6970 C   0  0  0  0  0  0  0  0  0  0  0  0
  186.0890  178.2270  139.3650 C   0  0  0  0  0  0  0  0  0  0  0  0
  183.7070  178.8000  138.9300 C   0  0  0  0  0  0  0  0  0  0  0  0
  178.9370  179.9490  139.4080 C   0  0  0  0  0  3  0  0  0  0  0  0
  186.6090  178.1240  145.7150 C   0  0  0  0  0  3  0  0  0  0  0  0
  186.8630  178.0540  142.9300 C   0  0  0  0  0  0  0  0  0  0  0  0
  179.9410  179.7110  140.2930 N   0  0  0  0  0  0  0  0  0  0  0  0
  185.5000  178.3880  144.9050 C   0  0  0  0  0  3  0  0  0  0  0  0
  185.3760  178.3900  137.0510 C   0  0  0  0  0  2  0  0  0  0  0  0
  185.0220  178.4810  138.4650 N   0  0  0  0  0  0  0  0  0  0  0  0
  182.6990  179.0390  138.0460 N   0  0  0  0  0  0  0  0  0  0  0  0
  184.4470  178.6340  142.6290 C   0  0  0  0  0  0  0  0  0  0  0  0
  183.1420  178.9500  143.2950 C   0  0  0  0  0  1  0  0  0  0  0  0
  180.4110  179.5880  137.5890 C   0  0  0  0  0  3  0  0  0  0  0  0
  183.4550  178.8650  140.3150 C   0  0  0  0  0  0  0  0  0  0  0  0
  181.4520  179.3410  138.4790 C   0  0  0  0  0  0  0  0  0  0  0  0
  189.9370  177.3260  146.6630 C   0  0  0  0  0  0  0  0  0  0  0  0
  188.9820  177.5540  145.9650 C   0  0  0  0  0  0  0  0  0  0  0  0
  191.0750  177.0550  147.4940 C   0  0  0  0  0  0  0  0  0  0  0  0
  191.9470  176.0260  147.1630 O   0  0  0  0  0  0  0  0  0  0  0  0
  191.2840  177.7500  148.5210 O   0  0  0  0  0  1  0  0  0  0  0  0
  1 16  1  0  0  0  0
  1 29  1  0  0  0  0
  2 23  2  0  0  0  0
  4 20  1  0  0  0  0
  4 11  1  0  0  0  0
  6 18  1  0  0  0  0
  6  5  2  0  0  0  0
  7 19  1  0  0  0  0
  8 17  1  0  0  0  0
  9 15  1  0  0  0  0
 10  1  2  0  0  0  0
 11  3  2  0  0  0  0
 11 13  1  0  0  0  0
 12  2  1  0  0  0  0
 12  8  1  0  0  0  0
 13 12  2  0  0  0  0
 14 26  2  0  0  0  0
 15 18  2  0  0  0  0
 17  7  2  0  0  0  0
 17 10  1  0  0  0  0
 19 16  2  0  0  0  0
 20 21  1  0  0  0  0
 21 14  1  0  0  0  0
 21 13  1  0  0  0  0
 22 27  2  0  0  0  0
 22 14  1  0  0  0  0
 23 24  1  0  0  0  0
 23  7  1  0  0  0  0
 25  9  2  0  0  0  0
 25 27  1  0  0  0  0
 26  5  1  0  0  0  0
 26  2  1  0  0  0  0
 27  6  1  0  0  0  0
 28 30  1  0  0  0  0
 29 28  3  0  0  0  0
 30 32  1  0  0  0  0
 31 30  2  0  0  0  0
M  END
>  <MODEL>
6

>  <REMARK>
 VINA RESULT:      -8.3      1.405      2.137
  Name = 
  2 active torsions:
  status: ('A' for Active; 'I' for Inactive)
    1  A    between atoms: C_1  and  C_10
    2  A    between atoms: C_2  and  C_24
                            x       y       z     vdW  Elec       q    Type
                         _______ _______ _______ _____ _____    ______ ____

>  <TORSDO>
F 2

$$$$
=
 OpenBabel11052417053D

 32 37  0  0  0  0  0  0  0  0999 V2000
  183.2850  178.6850  142.4060 C   0  0  0  0  0  0  0  0  0  0  0  0
  188.2720  177.7680  141.7530 C   0  0  0  0  0  0  0  0  0  0  0  0
  187.7730  177.8340  146.1640 O   0  0  0  0  0  0  0  0  0  0  0  0
  190.3980  177.3480  146.3940 S   0  0  0  0  0  0  0  0  0  0  0  0
  190.0510  177.4500  140.0130 N   0  0  0  0  0  0  0  0  0  0  0  0
  191.3360  177.2140  139.6420 C   0  0  0  0  0  0  0  0  0  0  0  0
  185.8650  178.2150  141.4030 C   0  0  0  0  0  0  0  0  0  0  0  0
  186.6900  178.0490  143.6770 O   0  0  0  0  0  0  0  0  0  0  0  0
  193.9280  176.7400  138.9070 N   0  0  0  0  0  0  0  0  0  0  0  0
  184.3500  178.4840  143.2860 C   0  0  0  0  0  3  0  0  0  0  0  0
  188.8560  177.6380  145.5500 C   0  0  0  0  0  0  0  0  0  0  0  0
  187.9910  177.8110  143.2230 C   0  0  0  0  0  0  0  0  0  0  0  0
  188.9840  177.6220  144.1070 C   0  0  0  0  0  0  0  0  0  0  0  0
  190.6780  177.3210  142.3090 C   0  0  0  0  0  0  0  0  0  0  0  0
  192.9670  176.9230  137.9610 C   0  0  0  0  0  3  0  0  0  0  0  0
  183.5020  178.6540  141.0270 C   0  0  0  0  0  3  0  0  0  0  0  0
  185.6360  178.2490  142.7900 C   0  0  0  0  0  0  0  0  0  0  0  0
  191.6790  177.1590  138.3290 N   0  0  0  0  0  0  0  0  0  0  0  0
  184.7870  178.4190  140.5270 C   0  0  0  0  0  3  0  0  0  0  0  0
  191.2750  177.1950  144.7810 C   0  0  0  0  0  2  0  0  0  0  0  0
  190.3190  177.3780  143.6930 N   0  0  0  0  0  0  0  0  0  0  0  0
  191.9670  177.0850  141.9380 N   0  0  0  0  0  0  0  0  0  0  0  0
  187.2380  177.9640  140.8890 C   0  0  0  0  0  0  0  0  0  0  0  0
  187.4270  177.9380  139.4020 C   0  0  0  0  0  1  0  0  0  0  0  0
  193.6260  176.7880  140.2320 C   0  0  0  0  0  3  0  0  0  0  0  0
  189.6880  177.5090  141.3250 C   0  0  0  0  0  0  0  0  0  0  0  0
  192.3130  177.0290  140.6290 C   0  0  0  0  0  0  0  0  0  0  0  0
  180.8580  179.1300  143.3500 C   0  0  0  0  0  0  0  0  0  0  0  0
  181.9650  178.9270  142.9190 C   0  0  0  0  0  0  0  0  0  0  0  0
  179.5400  179.3710  143.8620 C   0  0  0  0  0  0  0  0  0  0  0  0
  178.9350  178.4350  144.6900 O   0  0  0  0  0  1  0  0  0  0  0  0
  178.9330  180.4320  143.5630 O   0  0  0  0  0  0  0  0  0  0  0  0
  1 29  1  0  0  0  0
  1 10  1  0  0  0  0
  2 12  1  0  0  0  0
  5 26  1  0  0  0  0
  6  5  2  0  0  0  0
  6 27  1  0  0  0  0
  7 17  1  0  0  0  0
  9 25  2  0  0  0  0
 11  3  2  0  0  0  0
 11  4  1  0  0  0  0
 12  8  1  0  0  0  0
 12 13  2  0  0  0  0
 13 11  1  0  0  0  0
 14 21  1  0  0  0  0
 15 18  2  0  0  0  0
 15  9  1  0  0  0  0
 16  1  2  0  0  0  0
 17 10  2  0  0  0  0
 17  8  1  0  0  0  0
 18  6  1  0  0  0  0
 19 16  1  0  0  0  0
 19  7  2  0  0  0  0
 20  4  1  0  0  0  0
 21 13  1  0  0  0  0
 21 20  1  0  0  0  0
 22 14  1  0  0  0  0
 23  7  1  0  0  0  0
 23  2  2  0  0  0  0
 24 23  1  0  0  0  0
 25 27  1  0  0  0  0
 26  2  1  0  0  0  0
 26 14  2  0  0  0  0
 27 22  2  0  0  0  0
 28 30  1  0  0  0  0
 29 28  3  0  0  0  0
 30 31  1  0  0  0  0
 32 30  2  0  0  0  0
M  END
>  <MODEL>
7

>  <REMARK>
 VINA RESULT:      -8.1      4.523      9.166
  Name = 
  2 active torsions:
  status: ('A' for Active; 'I' for Inactive)
    1  A    between atoms: C_1  and  C_10
    2  A    between atoms: C_2  and  C_24
                            x       y       z     vdW  Elec       q    Type
                         _______ _______ _______ _____ _____    ______ ____

>  <TORSDO>
F 2

$$$$
=
 OpenBabel11052417053D

 32 37  0  0  0  0  0  0  0  0999 V2000
  189.6630  177.4100  139.1090 C   0  0  0  0  0  0  0  0  0  0  0  0
  185.2340  178.4470  141.4430 C   0  0  0  0  0  0  0  0  0  0  0  0
  188.0690  177.7810  144.7940 O   0  0  0  0  0  0  0  0  0  0  0  0
  186.0530  178.2510  146.4950 S   0  0  0  0  0  0  0  0  0  0  0  0
  182.8240  179.0110  141.0320 N   0  0  0  0  0  0  0  0  0  0  0  0
  181.5710  179.3050  141.4670 C   0  0  0  0  0  0  0  0  0  0  0  0
  187.0050  178.0320  139.7680 C   0  0  0  0  0  0  0  0  0  0  0  0
  187.5830  177.8950  142.1190 O   0  0  0  0  0  0  0  0  0  0  0  0
  179.0520  179.8950  142.3540 N   0  0  0  0  0  0  0  0  0  0  0  0
  189.2780  177.4990  140.4490 C   0  0  0  0  0  3  0  0  0  0  0  0
  186.8470  178.0660  144.9110 C   0  0  0  0  0  0  0  0  0  0  0  0
  186.2720  178.2020  142.4930 C   0  0  0  0  0  0  0  0  0  0  0  0
  185.9480  178.2780  143.7950 C   0  0  0  0  0  0  0  0  0  0  0  0
  183.5760  178.8330  143.2880 C   0  0  0  0  0  0  0  0  0  0  0  0
  179.3150  179.8340  141.0200 C   0  0  0  0  0  3  0  0  0  0  0  0
  188.7260  177.6300  138.0970 C   0  0  0  0  0  3  0  0  0  0  0  0
  187.9550  177.8080  140.7800 C   0  0  0  0  0  0  0  0  0  0  0  0
  180.5690  179.5400  140.5820 N   0  0  0  0  0  0  0  0  0  0  0  0
  187.4030  177.9400  138.4250 C   0  0  0  0  0  3  0  0  0  0  0  0
  184.4490  178.6280  145.6710 C   0  0  0  0  0  2  0  0  0  0  0  0
  184.6310  178.5860  144.2230 N   0  0  0  0  0  0  0  0  0  0  0  0
  182.3200  179.1280  143.7240 N   0  0  0  0  0  0  0  0  0  0  0  0
  185.6020  178.3610  140.1360 C   0  0  0  0  0  0  0  0  0  0  0  0
  184.6290  178.5900  139.0180 C   0  0  0  0  0  1  0  0  0  0  0  0
  180.0280  179.6660  143.2730 C   0  0  0  0  0  3  0  0  0  0  0  0
  183.8430  178.7720  141.9060 C   0  0  0  0  0  0  0  0  0  0  0  0
  181.3170  179.3630  142.8440 C   0  0  0  0  0  0  0  0  0  0  0  0
  192.1620  176.8230  138.4900 C   0  0  0  0  0  0  0  0  0  0  0  0
  191.0220  177.0910  138.7720 C   0  0  0  0  0  0  0  0  0  0  0  0
  193.5200  176.5030  138.1530 C   0  0  0  0  0  0  0  0  0  0  0  0
  193.9930  176.7490  136.8710 O   0  0  0  0  0  0  0  0  0  0  0  0
  194.2820  176.0020  139.0200 O   0  0  0  0  0  1  0  0  0  0  0  0
  1 10  1  0  0  0  0
  2 26  1  0  0  0  0
  2 12  1  0  0  0  0
  3 11  2  0  0  0  0
  5  6  2  0  0  0  0
  5 26  1  0  0  0  0
  6 27  1  0  0  0  0
  7 23  1  0  0  0  0
  7 17  1  0  0  0  0
  8 12  1  0  0  0  0
  9 25  2  0  0  0  0
 10 17  2  0  0  0  0
 11  4  1  0  0  0  0
 12 13  2  0  0  0  0
 13 21  1  0  0  0  0
 13 11  1  0  0  0  0
 14 22  1  0  0  0  0
 14 21  1  0  0  0  0
 15  9  1  0  0  0  0
 16 19  1  0  0  0  0
 16  1  2  0  0  0  0
 17  8  1  0  0  0  0
 18 15  2  0  0  0  0
 18  6  1  0  0  0  0
 19  7  2  0  0  0  0
 20  4  1  0  0  0  0
 21 20  1  0  0  0  0
 23  2  2  0  0  0  0
 24 23  1  0  0  0  0
 26 14  2  0  0  0  0
 27 25  1  0  0  0  0
 27 22  2  0  0  0  0
 28 29  3  0  0  0  0
 29  1  1  0  0  0  0
 30 28  1  0  0  0  0
 30 32  1  0  0  0  0
 31 30  2  0  0  0  0
M  END
>  <MODEL>
8

>  <REMARK>
 VINA RESULT:      -8.1      2.992      5.679
  Name = 
  2 active torsions:
  status: ('A' for Active; 'I' for Inactive)
    1  A    between atoms: C_1  and  C_10
    2  A    between atoms: C_2  and  C_24
                            x       y       z     vdW  Elec       q    Type
                         _______ _______ _______ _____ _____    ______ ____

>  <TORSDO>
F 2

$$$$
=
 OpenBabel11052417053D

 32 37  0  0  0  0  0  0  0  0999 V2000
  192.2420  176.8440  138.4830 C   0  0  0  0  0  0  0  0  0  0  0  0
  188.1890  177.8590  141.4280 C   0  0  0  0  0  0  0  0  0  0  0  0
  186.6080  178.1980  137.2940 O   0  0  0  0  0  0  0  0  0  0  0  0
  184.2130  178.7920  138.3370 S   0  0  0  0  0  0  0  0  0  0  0  0
  187.4320  178.0700  143.8110 N   0  0  0  0  0  0  0  0  0  0  0  0
  186.4790  178.3100  144.7490 C   0  0  0  0  0  0  0  0  0  0  0  0
  190.4490  177.3020  140.5950 C   0  0  0  0  0  0  0  0  0  0  0  0
  188.6900  177.7120  138.9770 O   0  0  0  0  0  0  0  0  0  0  0  0
  184.5540  178.7990  146.6290 N   0  0  0  0  0  0  0  0  0  0  0  0
  190.9110  177.1640  138.2110 C   0  0  0  0  0  3  0  0  0  0  0  0
  185.9440  178.3720  138.3500 C   0  0  0  0  0  0  0  0  0  0  0  0
  187.7620  177.9480  139.9960 C   0  0  0  0  0  0  0  0  0  0  0  0
  186.4910  178.2530  139.6870 C   0  0  0  0  0  0  0  0  0  0  0  0
  185.8350  178.4390  142.0790 C   0  0  0  0  0  0  0  0  0  0  0  0
  185.8240  178.4940  147.0090 C   0  0  0  0  0  3  0  0  0  0  0  0
  192.6830  176.7510  139.8050 C   0  0  0  0  0  3  0  0  0  0  0  0
  190.0160  177.3930  139.2600 C   0  0  0  0  0  0  0  0  0  0  0  0
  186.7800  178.2520  146.0720 N   0  0  0  0  0  0  0  0  0  0  0  0
  191.7900  176.9790  140.8570 C   0  0  0  0  0  3  0  0  0  0  0  0
  184.1840  178.8190  140.1790 C   0  0  0  0  0  2  0  0  0  0  0  0
  185.5150  178.5010  140.6860 N   0  0  0  0  0  0  0  0  0  0  0  0
  184.8800  178.6810  143.0200 N   0  0  0  0  0  0  0  0  0  0  0  0
  189.4850  177.5480  141.7010 C   0  0  0  0  0  0  0  0  0  0  0  0
  190.0000  177.4380  143.1050 C   0  0  0  0  0  1  0  0  0  0  0  0
  184.2110  178.8670  145.3150 C   0  0  0  0  0  3  0  0  0  0  0  0
  187.1490  178.1240  142.4790 C   0  0  0  0  0  0  0  0  0  0  0  0
  185.1760  178.6230  144.3410 C   0  0  0  0  0  0  0  0  0  0  0  0
  193.9290  176.4140  136.4970 C   0  0  0  0  0  0  0  0  0  0  0  0
  193.1600  176.6100  137.4030 C   0  0  0  0  0  0  0  0  0  0  0  0
  194.8460  176.1810  135.4180 C   0  0  0  0  0  0  0  0  0  0  0  0
  195.9710  176.9830  135.2780 O   0  0  0  0  0  1  0  0  0  0  0  0
  194.6320  175.2490  134.6000 O   0  0  0  0  0  0  0  0  0  0  0  0
  1 16  1  0  0  0  0
  2 23  2  0  0  0  0
  2 26  1  0  0  0  0
  3 11  2  0  0  0  0
  4 11  1  0  0  0  0
  4 20  1  0  0  0  0
  5  6  2  0  0  0  0
  6 18  1  0  0  0  0
  7 19  1  0  0  0  0
  7 23  1  0  0  0  0
  8 17  1  0  0  0  0
  8 12  1  0  0  0  0
  9 15  1  0  0  0  0
 10  1  2  0  0  0  0
 10 17  1  0  0  0  0
 11 13  1  0  0  0  0
 12  2  1  0  0  0  0
 13 12  2  0  0  0  0
 13 21  1  0  0  0  0
 14 26  2  0  0  0  0
 14 22  1  0  0  0  0
 16 19  2  0  0  0  0
 17  7  2  0  0  0  0
 18 15  2  0  0  0  0
 20 21  1  0  0  0  0
 21 14  1  0  0  0  0
 22 27  2  0  0  0  0
 23 24  1  0  0  0  0
 25  9  2  0  0  0  0
 26  5  1  0  0  0  0
 27  6  1  0  0  0  0
 27 25  1  0  0  0  0
 28 29  3  0  0  0  0
 29  1  1  0  0  0  0
 30 28  1  0  0  0  0
 31 30  1  0  0  0  0
 32 30  2  0  0  0  0
M  END
>  <MODEL>
9

>  <REMARK>
 VINA RESULT:      -8.0      4.202      7.000
  Name = 
  2 active torsions:
  status: ('A' for Active; 'I' for Inactive)
    1  A    between atoms: C_1  and  C_10
    2  A    between atoms: C_2  and  C_24
                            x       y       z     vdW  Elec       q    Type
                         _______ _______ _______ _____ _____    ______ ____

>  <TORSDO>
F 2

$$$$
