=
 OpenBabel11052412543D

 25 25  0  0  1  0  0  0  0  0999 V2000
  188.9320  178.3490  141.0470 C   0  0  1  0  0  3  0  0  0  0  0  0
  189.6330  176.5030  142.4270 O   0  0  0  0  0  0  0  0  0  0  0  0
  190.8720  178.6370  142.6550 C   0  0  0  0  0  2  0  0  0  0  0  0
  189.9980  176.5300  145.5320 O   0  0  0  0  0  1  0  0  0  0  0  0
  190.8360  176.9190  144.4870 C   0  0  2  0  0  3  0  0  0  0  0  0
  190.5460  178.3740  144.1230 C   0  0  0  0  0  2  0  0  0  0  0  0
  190.1290  177.6420  141.7260 C   0  0  2  0  0  0  0  0  0  0  0  0
  190.6300  175.9910  143.2870 C   0  0  0  0  0  2  0  0  0  0  0  0
  191.1090  177.1860  140.6390 C   0  0  0  0  0  2  0  0  0  0  0  0
  192.2880  177.9090  140.7070 F   0  0  0  0  0  0  0  0  0  0  0  0
  188.5910  176.9210  139.1640 O   0  0  0  0  0  0  0  0  0  0  0  0
  189.0390  179.1440  138.6310 N   0  0  0  0  0  2  0  0  0  0  0  0
  188.9450  178.9160  137.2990 O   0  0  0  0  0  1  0  0  0  0  0  0
  188.8500  178.0850  139.5700 C   0  0  0  0  0  0  0  0  0  0  0  0
  187.5950  178.0800  141.7400 C   0  0  0  0  0  2  0  0  0  0  0  0
  186.5500  178.6330  140.9990 O   0  0  0  0  0  0  0  0  0  0  0  0
  185.8340  179.3950  141.9210 C   0  0  0  0  0  2  0  0  0  0  0  0
  184.5290  178.2130  143.6240 N   0  0  0  0  0  0  0  0  0  0  0  0
  184.6500  178.6140  142.4040 C   0  0  0  0  0  3  0  0  0  0  0  0
  185.5160  178.4690  144.6480 C   0  0  0  0  0  2  0  0  0  0  0  0
  184.8440  178.6320  145.9980 C   0  0  0  0  0  2  0  0  0  0  0  0
  185.9020  178.7910  147.0700 C   0  0  0  0  0  2  0  0  0  0  0  0
  187.0440  177.8330  146.7980 C   0  0  0  0  0  2  0  0  0  0  0  0
  187.7320  177.4860  148.1020 C   0  0  0  0  0  2  0  0  0  0  0  0
  188.9490  178.3700  148.2840 C   0  0  0  0  0  1  0  0  0  0  0  0
  1  7  1  0  0  0  0
  1 15  1  1  0  0  0
  2  8  1  0  0  0  0
  3  6  1  0  0  0  0
  5  4  1  1  0  0  0
  6  5  1  0  0  0  0
  7  9  1  6  0  0  0
  7  2  1  0  0  0  0
  7  3  1  0  0  0  0
  8  5  1  0  0  0  0
  9 10  1  0  0  0  0
 11 14  2  0  0  0  0
 12 14  1  0  0  0  0
 13 12  1  0  0  0  0
 14  1  1  0  0  0  0
 16 15  1  0  0  0  0
 16 17  1  0  0  0  0
 17 19  1  0  0  0  0
 18 20  1  0  0  0  0
 19 18  2  0  0  0  0
 20 21  1  0  0  0  0
 21 22  1  0  0  0  0
 23 22  1  0  0  0  0
 23 24  1  0  0  0  0
 24 25  1  0  0  0  0
M  END
>  <MODEL>
1

>  <REMARK>
 VINA RESULT:      -6.3      0.000      0.000
  Name = 
  12 active torsions:
  status: ('A' for Active; 'I' for Inactive)
    1  A    between atoms: C_1  and  C_3
    2  A    between atoms: C_1  and  C_18
    3  A    between atoms: C_1  and  C_24
    4  A    between atoms: C_2  and  C_7
    5  A    between atoms: C_2  and  C_25
    6  A    between atoms: C_3  and  O_16
    7  A    between atoms: C_6  and  N_15
    8  A    between atoms: C_6  and  C_21
    9  A    between atoms: O_16  and  C_23
   10  A    between atoms: C_17  and  C_18
   11  A    between atoms: C_20  and  C_23
   12  A    between atoms: C_21  and  C_25
                            x       y       z     vdW  Elec       q    Type
                         _______ _______ _______ _____ _____    ______ ____

>  <TORSDO>
F 12

$$$$
=
 OpenBabel11052412543D

 25 25  0  0  1  0  0  0  0  0999 V2000
  189.8320  176.7770  145.4030 C   0  0  1  0  0  3  0  0  0  0  0  0
  190.1520  177.8430  143.2660 O   0  0  0  0  0  0  0  0  0  0  0  0
  188.5320  175.9720  143.3810 C   0  0  0  0  0  2  0  0  0  0  0  0
  187.9210  179.0110  141.4130 O   0  0  0  0  0  1  0  0  0  0  0  0
  188.4200  177.7190  141.5800 C   0  0  2  0  0  3  0  0  0  0  0  0
  187.6570  177.0250  142.7070 C   0  0  0  0  0  2  0  0  0  0  0  0
  189.8720  176.5810  143.8690 C   0  0  2  0  0  0  0  0  0  0  0  0
  189.9200  177.7780  141.8740 C   0  0  0  0  0  2  0  0  0  0  0  0
  190.9930  175.5930  143.5300 C   0  0  0  0  0  2  0  0  0  0  0  0
  192.0770  176.2520  142.9740 F   0  0  0  0  0  0  0  0  0  0  0  0
  191.9940  177.7700  145.6080 O   0  0  0  0  0  0  0  0  0  0  0  0
  191.5870  176.0100  147.0810 N   0  0  0  0  0  2  0  0  0  0  0  0
  192.8090  176.1170  147.6540 O   0  0  0  0  0  1  0  0  0  0  0  0
  191.1980  176.8840  146.0210 C   0  0  0  0  0  0  0  0  0  0  0  0
  188.9250  177.9270  145.8450 C   0  0  0  0  0  2  0  0  0  0  0  0
  188.4550  177.6980  147.1390 O   0  0  0  0  0  0  0  0  0  0  0  0
  187.0790  177.5410  146.9870 C   0  0  0  0  0  2  0  0  0  0  0  0
  185.3050  179.2120  146.7440 N   0  0  0  0  0  0  0  0  0  0  0  0
  186.3870  178.8240  147.3290 C   0  0  0  0  0  3  0  0  0  0  0  0
  184.6490  178.4550  145.7020 C   0  0  0  0  0  2  0  0  0  0  0  0
  185.0730  178.9630  144.3360 C   0  0  0  0  0  2  0  0  0  0  0  0
  183.8750  178.9750  143.4100 C   0  0  0  0  0  2  0  0  0  0  0  0
  182.6020  179.0130  144.2310 C   0  0  0  0  0  2  0  0  0  0  0  0
  181.4040  178.9810  143.3050 C   0  0  0  0  0  2  0  0  0  0  0  0
  180.2260  178.3540  144.0210 C   0  0  0  0  0  1  0  0  0  0  0  0
  1 15  1  6  0  0  0
  1 14  1  0  0  0  0
  2  7  1  0  0  0  0
  3  7  1  0  0  0  0
  5  4  1  1  0  0  0
  5  8  1  0  0  0  0
  5  6  1  0  0  0  0
  6  3  1  0  0  0  0
  7  9  1  6  0  0  0
  7  1  1  0  0  0  0
  8  2  1  0  0  0  0
 10  9  1  0  0  0  0
 11 14  2  0  0  0  0
 12 13  1  0  0  0  0
 14 12  1  0  0  0  0
 15 16  1  0  0  0  0
 17 16  1  0  0  0  0
 17 19  1  0  0  0  0
 18 19  2  0  0  0  0
 20 18  1  0  0  0  0
 21 20  1  0  0  0  0
 22 23  1  0  0  0  0
 22 21  1  0  0  0  0
 24 25  1  0  0  0  0
 24 23  1  0  0  0  0
M  END
>  <MODEL>
2

>  <REMARK>
 VINA RESULT:      -6.2      2.664      5.596
  Name = 
  12 active torsions:
  status: ('A' for Active; 'I' for Inactive)
    1  A    between atoms: C_1  and  C_3
    2  A    between atoms: C_1  and  C_18
    3  A    between atoms: C_1  and  C_24
    4  A    between atoms: C_2  and  C_7
    5  A    between atoms: C_2  and  C_25
    6  A    between atoms: C_3  and  O_16
    7  A    between atoms: C_6  and  N_15
    8  A    between atoms: C_6  and  C_21
    9  A    between atoms: O_16  and  C_23
   10  A    between atoms: C_17  and  C_18
   11  A    between atoms: C_20  and  C_23
   12  A    between atoms: C_21  and  C_25
                            x       y       z     vdW  Elec       q    Type
                         _______ _______ _______ _____ _____    ______ ____

>  <TORSDO>
F 12

$$$$
=
 OpenBabel11052412543D

 25 25  0  0  1  0  0  0  0  0999 V2000
  188.6370  177.4350  140.9610 C   0  0  1  0  0  3  0  0  0  0  0  0
  189.0000  178.9540  139.1260 O   0  0  0  0  0  0  0  0  0  0  0  0
  188.6110  176.5680  138.5780 C   0  0  0  0  0  2  0  0  0  0  0  0
  187.1690  179.3180  136.6190 O   0  0  0  0  0  1  0  0  0  0  0  0
  188.1770  178.4020  136.9170 C   0  0  2  0  0  3  0  0  0  0  0  0
  187.5740  177.2120  137.6620 C   0  0  0  0  0  2  0  0  0  0  0  0
  189.2330  177.6100  139.5440 C   0  0  2  0  0  0  0  0  0  0  0  0
  189.2680  179.0850  137.7460 C   0  0  0  0  0  2  0  0  0  0  0  0
  190.7430  177.3520  139.6120 C   0  0  0  0  0  2  0  0  0  0  0  0
  191.0480  176.0950  139.1180 F   0  0  0  0  0  0  0  0  0  0  0  0
  190.1790  178.1900  142.6200 O   0  0  0  0  0  0  0  0  0  0  0  0
  190.0900  175.8770  142.3550 N   0  0  0  0  0  2  0  0  0  0  0  0
  191.0150  175.6620  143.3210 O   0  0  0  0  0  1  0  0  0  0  0  0
  189.6810  177.2030  142.0170 C   0  0  0  0  0  0  0  0  0  0  0  0
  187.6770  178.5580  141.3590 C   0  0  0  0  0  2  0  0  0  0  0  0
  186.6720  178.0590  142.1880 O   0  0  0  0  0  0  0  0  0  0  0  0
  185.7510  179.1000  142.2850 C   0  0  0  0  0  2  0  0  0  0  0  0
  184.3050  178.5150  144.1730 N   0  0  0  0  0  0  0  0  0  0  0  0
  184.4820  178.5920  142.8980 C   0  0  0  0  0  3  0  0  0  0  0  0
  185.3040  178.9060  145.1410 C   0  0  0  0  0  2  0  0  0  0  0  0
  185.9090  177.6800  145.7990 C   0  0  0  0  0  2  0  0  0  0  0  0
  187.3700  177.9420  146.1020 C   0  0  0  0  0  2  0  0  0  0  0  0
  187.5650  178.0410  147.6010 C   0  0  0  0  0  2  0  0  0  0  0  0
  189.0330  177.8630  147.9300 C   0  0  0  0  0  2  0  0  0  0  0  0
  189.7280  177.1600  146.7820 C   0  0  0  0  0  1  0  0  0  0  0  0
  1 15  1  1  0  0  0
  1 14  1  0  0  0  0
  2  7  1  0  0  0  0
  3  7  1  0  0  0  0
  5  4  1  1  0  0  0
  5  6  1  0  0  0  0
  5  8  1  0  0  0  0
  6  3  1  0  0  0  0
  7  9  1  1  0  0  0
  7  1  1  0  0  0  0
  8  2  1  0  0  0  0
 10  9  1  0  0  0  0
 12 13  1  0  0  0  0
 14 12  1  0  0  0  0
 14 11  2  0  0  0  0
 15 16  1  0  0  0  0
 16 17  1  0  0  0  0
 17 19  1  0  0  0  0
 18 20  1  0  0  0  0
 19 18  2  0  0  0  0
 20 21  1  0  0  0  0
 21 22  1  0  0  0  0
 22 23  1  0  0  0  0
 23 24  1  0  0  0  0
 25 24  1  0  0  0  0
M  END
>  <MODEL>
3

>  <REMARK>
 VINA RESULT:      -6.2      1.827      4.153
  Name = 
  12 active torsions:
  status: ('A' for Active; 'I' for Inactive)
    1  A    between atoms: C_1  and  C_3
    2  A    between atoms: C_1  and  C_18
    3  A    between atoms: C_1  and  C_24
    4  A    between atoms: C_2  and  C_7
    5  A    between atoms: C_2  and  C_25
    6  A    between atoms: C_3  and  O_16
    7  A    between atoms: C_6  and  N_15
    8  A    between atoms: C_6  and  C_21
    9  A    between atoms: O_16  and  C_23
   10  A    between atoms: C_17  and  C_18
   11  A    between atoms: C_20  and  C_23
   12  A    between atoms: C_21  and  C_25
                            x       y       z     vdW  Elec       q    Type
                         _______ _______ _______ _____ _____    ______ ____

>  <TORSDO>
F 12

$$$$
=
 OpenBabel11052412543D

 25 25  0  0  1  0  0  0  0  0999 V2000
  189.8330  176.7820  139.7770 C   0  0  1  0  0  3  0  0  0  0  0  0
  187.7020  177.0360  138.6840 O   0  0  0  0  0  0  0  0  0  0  0  0
  189.3560  178.8590  138.4040 C   0  0  0  0  0  2  0  0  0  0  0  0
  187.2220  177.6750  135.6610 O   0  0  0  0  0  1  0  0  0  0  0  0
  187.4940  178.4900  136.7600 C   0  0  2  0  0  3  0  0  0  0  0  0
  189.0070  178.6070  136.9400 C   0  0  0  0  0  2  0  0  0  0  0  0
  188.7380  177.7760  139.3260 C   0  0  2  0  0  0  0  0  0  0  0  0
  186.8250  177.9140  138.0100 C   0  0  0  0  0  2  0  0  0  0  0  0
  188.1710  178.4760  140.5660 C   0  0  0  0  0  2  0  0  0  0  0  0
  187.6380  177.5540  141.4500 F   0  0  0  0  0  0  0  0  0  0  0  0
  190.0810  175.2380  137.9730 O   0  0  0  0  0  0  0  0  0  0  0  0
  191.8820  176.6860  138.2690 N   0  0  0  0  0  2  0  0  0  0  0  0
  192.5640  176.1620  137.2230 O   0  0  0  0  0  1  0  0  0  0  0  0
  190.5960  176.1810  138.6300 C   0  0  0  0  0  0  0  0  0  0  0  0
  190.7750  177.3560  140.8380 C   0  0  0  0  0  2  0  0  0  0  0  0
  190.7210  176.5800  141.9970 O   0  0  0  0  0  0  0  0  0  0  0  0
  191.4670  177.2970  142.9310 C   0  0  0  0  0  2  0  0  0  0  0  0
  190.7870  176.8820  145.2470 N   0  0  0  0  0  0  0  0  0  0  0  0
  191.5020  176.5480  144.2270 C   0  0  0  0  0  3  0  0  0  0  0  0
  189.8840  178.0090  145.2500 C   0  0  0  0  0  2  0  0  0  0  0  0
  188.5670  177.6280  145.9010 C   0  0  0  0  0  2  0  0  0  0  0  0
  187.5340  177.3620  144.8260 C   0  0  0  0  0  2  0  0  0  0  0  0
  186.1790  177.8540  145.2940 C   0  0  0  0  0  2  0  0  0  0  0  0
  185.3660  178.3020  144.0980 C   0  0  0  0  0  2  0  0  0  0  0  0
  184.0650  178.9180  144.5720 C   0  0  0  0  0  1  0  0  0  0  0  0
  1 15  1  1  0  0  0
  2  7  1  0  0  0  0
  3  7  1  0  0  0  0
  5  4  1  6  0  0  0
  5  6  1  0  0  0  0
  5  8  1  0  0  0  0
  6  3  1  0  0  0  0
  7  1  1  0  0  0  0
  7  9  1  1  0  0  0
  8  2  1  0  0  0  0
  9 10  1  0  0  0  0
 11 14  2  0  0  0  0
 12 14  1  0  0  0  0
 13 12  1  0  0  0  0
 14  1  1  0  0  0  0
 15 16  1  0  0  0  0
 16 17  1  0  0  0  0
 17 19  1  0  0  0  0
 18 20  1  0  0  0  0
 19 18  2  0  0  0  0
 20 21  1  0  0  0  0
 22 23  1  0  0  0  0
 22 21  1  0  0  0  0
 24 25  1  0  0  0  0
 24 23  1  0  0  0  0
M  END
>  <MODEL>
4

>  <REMARK>
 VINA RESULT:      -6.0      2.588      5.251
  Name = 
  12 active torsions:
  status: ('A' for Active; 'I' for Inactive)
    1  A    between atoms: C_1  and  C_3
    2  A    between atoms: C_1  and  C_18
    3  A    between atoms: C_1  and  C_24
    4  A    between atoms: C_2  and  C_7
    5  A    between atoms: C_2  and  C_25
    6  A    between atoms: C_3  and  O_16
    7  A    between atoms: C_6  and  N_15
    8  A    between atoms: C_6  and  C_21
    9  A    between atoms: O_16  and  C_23
   10  A    between atoms: C_17  and  C_18
   11  A    between atoms: C_20  and  C_23
   12  A    between atoms: C_21  and  C_25
                            x       y       z     vdW  Elec       q    Type
                         _______ _______ _______ _____ _____    ______ ____

>  <TORSDO>
F 12

$$$$
=
 OpenBabel11052412543D

 25 25  0  0  1  0  0  0  0  0999 V2000
  190.2460  177.2700  139.0630 C   0  0  1  0  0  3  0  0  0  0  0  0
  190.5610  174.9860  138.3640 O   0  0  0  0  0  0  0  0  0  0  0  0
  190.6890  176.7440  136.6220 C   0  0  0  0  0  2  0  0  0  0  0  0
  192.9580  173.8580  136.7040 O   0  0  0  0  0  1  0  0  0  0  0  0
  191.7780  174.4990  136.3280 C   0  0  2  0  0  3  0  0  0  0  0  0
  191.9980  176.0110  136.3400 C   0  0  0  0  0  2  0  0  0  0  0  0
  190.0300  176.2370  137.9310 C   0  0  2  0  0  0  0  0  0  0  0  0
  190.6450  174.0920  137.2740 C   0  0  0  0  0  2  0  0  0  0  0  0
  188.5250  176.0930  137.6800 C   0  0  0  0  0  2  0  0  0  0  0  0
  188.1900  176.5630  136.4210 F   0  0  0  0  0  0  0  0  0  0  0  0
  188.9880  179.2120  138.4760 O   0  0  0  0  0  0  0  0  0  0  0  0
  188.0910  177.9640  140.2270 N   0  0  0  0  0  2  0  0  0  0  0  0
  187.0340  178.7980  140.3710 O   0  0  0  0  0  1  0  0  0  0  0  0
  189.0860  178.2100  139.2340 C   0  0  0  0  0  0  0  0  0  0  0  0
  190.6550  176.6350  140.3940 C   0  0  0  0  0  2  0  0  0  0  0  0
  191.2140  177.6000  141.2330 O   0  0  0  0  0  0  0  0  0  0  0  0
  191.2070  177.0100  142.4960 C   0  0  0  0  0  2  0  0  0  0  0  0
  189.0500  176.1200  143.2410 N   0  0  0  0  0  0  0  0  0  0  0  0
  190.1330  175.9680  142.5560 C   0  0  0  0  0  3  0  0  0  0  0  0
  188.7610  177.3020  144.0210 C   0  0  0  0  0  2  0  0  0  0  0  0
  187.2680  177.5730  144.0320 C   0  0  0  0  0  2  0  0  0  0  0  0
  186.8240  177.8750  145.4490 C   0  0  0  0  0  2  0  0  0  0  0  0
  187.8870  177.4090  146.4220 C   0  0  0  0  0  2  0  0  0  0  0  0
  187.6100  177.9980  147.7900 C   0  0  0  0  0  2  0  0  0  0  0  0
  188.9220  178.2920  148.4900 C   0  0  0  0  0  1  0  0  0  0  0  0
  1 14  1  0  0  0  0
  1 15  1  1  0  0  0
  3  7  1  0  0  0  0
  5  6  1  0  0  0  0
  5  4  1  1  0  0  0
  5  8  1  0  0  0  0
  6  3  1  0  0  0  0
  7  9  1  6  0  0  0
  7  2  1  0  0  0  0
  7  1  1  0  0  0  0
  8  2  1  0  0  0  0
 10  9  1  0  0  0  0
 11 14  2  0  0  0  0
 12 13  1  0  0  0  0
 14 12  1  0  0  0  0
 15 16  1  0  0  0  0
 16 17  1  0  0  0  0
 17 19  1  0  0  0  0
 18 20  1  0  0  0  0
 19 18  2  0  0  0  0
 20 21  1  0  0  0  0
 21 22  1  0  0  0  0
 22 23  1  0  0  0  0
 23 24  1  0  0  0  0
 24 25  1  0  0  0  0
M  END
>  <MODEL>
5

>  <REMARK>
 VINA RESULT:      -5.9      3.047      4.889
  Name = 
  12 active torsions:
  status: ('A' for Active; 'I' for Inactive)
    1  A    between atoms: C_1  and  C_3
    2  A    between atoms: C_1  and  C_18
    3  A    between atoms: C_1  and  C_24
    4  A    between atoms: C_2  and  C_7
    5  A    between atoms: C_2  and  C_25
    6  A    between atoms: C_3  and  O_16
    7  A    between atoms: C_6  and  N_15
    8  A    between atoms: C_6  and  C_21
    9  A    between atoms: O_16  and  C_23
   10  A    between atoms: C_17  and  C_18
   11  A    between atoms: C_20  and  C_23
   12  A    between atoms: C_21  and  C_25
                            x       y       z     vdW  Elec       q    Type
                         _______ _______ _______ _____ _____    ______ ____

>  <TORSDO>
F 12

$$$$
=
 OpenBabel11052412543D

 25 25  0  0  1  0  0  0  0  0999 V2000
  188.2590  178.3700  141.3380 C   0  0  1  0  0  3  0  0  0  0  0  0
  189.1740  178.4890  143.5630 O   0  0  0  0  0  0  0  0  0  0  0  0
  190.4120  177.1470  141.8870 C   0  0  0  0  0  2  0  0  0  0  0  0
  192.0920  179.3050  144.3370 O   0  0  0  0  0  1  0  0  0  0  0  0
  191.5360  178.0940  143.9240 C   0  0  2  0  0  3  0  0  0  0  0  0
  191.5490  178.0270  142.3980 C   0  0  0  0  0  2  0  0  0  0  0  0
  189.0420  177.6190  142.4410 C   0  0  2  0  0  0  0  0  0  0  0  0
  190.1140  177.9630  144.4770 C   0  0  0  0  0  2  0  0  0  0  0  0
  188.2430  176.3770  142.8500 C   0  0  0  0  0  2  0  0  0  0  0  0
  187.9150  176.4240  144.1950 F   0  0  0  0  0  0  0  0  0  0  0  0
  188.7160  176.7780  139.6180 O   0  0  0  0  0  0  0  0  0  0  0  0
  189.0400  179.0020  138.9990 N   0  0  0  0  0  2  0  0  0  0  0  0
  189.4080  178.6690  137.7390 O   0  0  0  0  0  1  0  0  0  0  0  0
  188.6890  177.9940  139.9480 C   0  0  0  0  0  0  0  0  0  0  0  0
  186.7400  178.2760  141.5010 C   0  0  0  0  0  2  0  0  0  0  0  0
  186.1750  179.5520  141.4760 O   0  0  0  0  0  0  0  0  0  0  0  0
  185.4460  179.6330  142.6600 C   0  0  0  0  0  2  0  0  0  0  0  0
  184.7670  177.9900  144.3450 N   0  0  0  0  0  0  0  0  0  0  0  0
  185.0860  178.2550  143.1240 C   0  0  0  0  0  3  0  0  0  0  0  0
  184.7250  178.9870  145.3910 C   0  0  0  0  0  2  0  0  0  0  0  0
  185.2120  178.3970  146.7010 C   0  0  0  0  0  2  0  0  0  0  0  0
  186.7160  178.2240  146.6460 C   0  0  0  0  0  2  0  0  0  0  0  0
  187.3160  178.5930  147.9870 C   0  0  0  0  0  2  0  0  0  0  0  0
  188.7780  178.1950  148.0100 C   0  0  0  0  0  2  0  0  0  0  0  0
  188.9130  176.7390  147.6110 C   0  0  0  0  0  1  0  0  0  0  0  0
  1 15  1  6  0  0  0
  1  7  1  0  0  0  0
  2  8  1  0  0  0  0
  3  6  1  0  0  0  0
  3  7  1  0  0  0  0
  5  4  1  6  0  0  0
  5  8  1  0  0  0  0
  6  5  1  0  0  0  0
  7  9  1  1  0  0  0
  7  2  1  0  0  0  0
  9 10  1  0  0  0  0
 11 14  2  0  0  0  0
 12 14  1  0  0  0  0
 13 12  1  0  0  0  0
 14  1  1  0  0  0  0
 16 15  1  0  0  0  0
 16 17  1  0  0  0  0
 17 19  1  0  0  0  0
 18 20  1  0  0  0  0
 19 18  2  0  0  0  0
 20 21  1  0  0  0  0
 22 21  1  0  0  0  0
 22 23  1  0  0  0  0
 23 24  1  0  0  0  0
 25 24  1  0  0  0  0
M  END
>  <MODEL>
6

>  <REMARK>
 VINA RESULT:      -5.8      1.704      1.987
  Name = 
  12 active torsions:
  status: ('A' for Active; 'I' for Inactive)
    1  A    between atoms: C_1  and  C_3
    2  A    between atoms: C_1  and  C_18
    3  A    between atoms: C_1  and  C_24
    4  A    between atoms: C_2  and  C_7
    5  A    between atoms: C_2  and  C_25
    6  A    between atoms: C_3  and  O_16
    7  A    between atoms: C_6  and  N_15
    8  A    between atoms: C_6  and  C_21
    9  A    between atoms: O_16  and  C_23
   10  A    between atoms: C_17  and  C_18
   11  A    between atoms: C_20  and  C_23
   12  A    between atoms: C_21  and  C_25
                            x       y       z     vdW  Elec       q    Type
                         _______ _______ _______ _____ _____    ______ ____

>  <TORSDO>
F 12

$$$$
=
 OpenBabel11052412543D

 25 25  0  0  1  0  0  0  0  0999 V2000
  189.3270  176.7510  139.1580 C   0  0  1  0  0  3  0  0  0  0  0  0
  187.1710  177.7650  138.8060 O   0  0  0  0  0  0  0  0  0  0  0  0
  188.2550  176.6780  136.8610 C   0  0  0  0  0  2  0  0  0  0  0  0
  184.6570  176.4060  137.5380 O   0  0  0  0  0  1  0  0  0  0  0  0
  185.7700  177.0280  136.9740 C   0  0  2  0  0  3  0  0  0  0  0  0
  186.8890  176.0020  136.8010 C   0  0  0  0  0  2  0  0  0  0  0  0
  188.4170  177.5070  138.1620 C   0  0  2  0  0  0  0  0  0  0  0  0
  186.2150  178.1950  137.8590 C   0  0  0  0  0  2  0  0  0  0  0  0
  189.0870  178.8360  137.7970 C   0  0  0  0  0  2  0  0  0  0  0  0
  189.4430  178.8560  136.4590 F   0  0  0  0  0  0  0  0  0  0  0  0
  191.5600  176.8410  138.3160 O   0  0  0  0  0  0  0  0  0  0  0  0
  190.5310  174.7590  138.1260 N   0  0  0  0  0  2  0  0  0  0  0  0
  191.6230  174.1950  137.5570 O   0  0  0  0  0  1  0  0  0  0  0  0
  190.5340  176.1350  138.5060 C   0  0  0  0  0  0  0  0  0  0  0  0
  189.7140  177.5850  140.3800 C   0  0  0  0  0  2  0  0  0  0  0  0
  190.0810  176.7490  141.4350 O   0  0  0  0  0  0  0  0  0  0  0  0
  190.7340  177.5890  142.3360 C   0  0  0  0  0  2  0  0  0  0  0  0
  190.8120  176.8870  144.6810 N   0  0  0  0  0  0  0  0  0  0  0  0
  191.2670  176.7820  143.4790 C   0  0  0  0  0  3  0  0  0  0  0  0
  189.7470  177.7910  145.0520 C   0  0  0  0  0  2  0  0  0  0  0  0
  189.1190  177.3550  146.3630 C   0  0  0  0  0  2  0  0  0  0  0  0
  187.6300  177.6300  146.3230 C   0  0  0  0  0  2  0  0  0  0  0  0
  187.0980  177.3280  144.9370 C   0  0  0  0  0  2  0  0  0  0  0  0
  185.8680  178.1730  144.6750 C   0  0  0  0  0  2  0  0  0  0  0  0
  185.2540  178.5970  145.9940 C   0  0  0  0  0  1  0  0  0  0  0  0
  1 15  1  1  0  0  0
  3  7  1  0  0  0  0
  5  4  1  1  0  0  0
  5  8  1  0  0  0  0
  6  3  1  0  0  0  0
  6  5  1  0  0  0  0
  7  9  1  6  0  0  0
  7  2  1  0  0  0  0
  7  1  1  0  0  0  0
  8  2  1  0  0  0  0
 10  9  1  0  0  0  0
 11 14  2  0  0  0  0
 12 14  1  0  0  0  0
 13 12  1  0  0  0  0
 14  1  1  0  0  0  0
 15 16  1  0  0  0  0
 16 17  1  0  0  0  0
 17 19  1  0  0  0  0
 18 20  1  0  0  0  0
 19 18  2  0  0  0  0
 20 21  1  0  0  0  0
 22 21  1  0  0  0  0
 23 22  1  0  0  0  0
 24 23  1  0  0  0  0
 24 25  1  0  0  0  0
M  END
>  <MODEL>
7

>  <REMARK>
 VINA RESULT:      -5.7      2.995      5.371
  Name = 
  12 active torsions:
  status: ('A' for Active; 'I' for Inactive)
    1  A    between atoms: C_1  and  C_3
    2  A    between atoms: C_1  and  C_18
    3  A    between atoms: C_1  and  C_24
    4  A    between atoms: C_2  and  C_7
    5  A    between atoms: C_2  and  C_25
    6  A    between atoms: C_3  and  O_16
    7  A    between atoms: C_6  and  N_15
    8  A    between atoms: C_6  and  C_21
    9  A    between atoms: O_16  and  C_23
   10  A    between atoms: C_17  and  C_18
   11  A    between atoms: C_20  and  C_23
   12  A    between atoms: C_21  and  C_25
                            x       y       z     vdW  Elec       q    Type
                         _______ _______ _______ _____ _____    ______ ____

>  <TORSDO>
F 12

$$$$
=
 OpenBabel11052412543D

 25 25  0  0  1  0  0  0  0  0999 V2000
  190.1570  177.4260  138.5750 C   0  0  1  0  0  3  0  0  0  0  0  0
  189.7160  177.2570  136.2130 O   0  0  0  0  0  0  0  0  0  0  0  0
  189.5680  175.1800  137.5570 C   0  0  0  0  0  2  0  0  0  0  0  0
  187.1940  175.9840  134.8740 O   0  0  0  0  0  1  0  0  0  0  0  0
  188.3780  175.4290  135.3590 C   0  0  2  0  0  3  0  0  0  0  0  0
  188.2180  175.1200  136.8460 C   0  0  0  0  0  2  0  0  0  0  0  0
  190.2730  176.5390  137.3130 C   0  0  2  0  0  0  0  0  0  0  0  0
  189.5410  176.3930  135.1100 C   0  0  0  0  0  2  0  0  0  0  0  0
  191.7560  176.2630  137.0430 C   0  0  0  0  0  2  0  0  0  0  0  0
  192.0980  174.9820  137.4440 F   0  0  0  0  0  0  0  0  0  0  0  0
  189.0120  179.4510  138.0350 O   0  0  0  0  0  0  0  0  0  0  0  0
  187.7110  177.8600  139.1340 N   0  0  0  0  0  2  0  0  0  0  0  0
  186.6080  178.6460  139.1100 O   0  0  0  0  0  1  0  0  0  0  0  0
  188.9420  178.3100  138.5670 C   0  0  0  0  0  0  0  0  0  0  0  0
  190.2680  176.6380  139.8830 C   0  0  0  0  0  2  0  0  0  0  0  0
  191.0460  177.3430  140.8020 O   0  0  0  0  0  0  0  0  0  0  0  0
  190.3500  177.2320  142.0050 C   0  0  0  0  0  2  0  0  0  0  0  0
  191.1910  177.3330  144.3030 N   0  0  0  0  0  0  0  0  0  0  0  0
  191.3030  176.8720  143.1040 C   0  0  0  0  0  3  0  0  0  0  0  0
  190.1440  178.2410  144.7130 C   0  0  0  0  0  2  0  0  0  0  0  0
  189.2290  177.5690  145.7200 C   0  0  0  0  0  2  0  0  0  0  0  0
  187.8330  177.4690  145.1400 C   0  0  0  0  0  2  0  0  0  0  0  0
  186.8130  177.7400  146.2280 C   0  0  0  0  0  2  0  0  0  0  0  0
  185.7790  178.7210  145.7150 C   0  0  0  0  0  2  0  0  0  0  0  0
  185.3430  178.3150  144.3220 C   0  0  0  0  0  1  0  0  0  0  0  0
  1 15  1  1  0  0  0
  2  7  1  0  0  0  0
  5  4  1  1  0  0  0
  5  6  1  0  0  0  0
  6  3  1  0  0  0  0
  7  9  1  6  0  0  0
  7  3  1  0  0  0  0
  7  1  1  0  0  0  0
  8  5  1  0  0  0  0
  8  2  1  0  0  0  0
  9 10  1  0  0  0  0
 11 14  2  0  0  0  0
 13 12  1  0  0  0  0
 14  1  1  0  0  0  0
 14 12  1  0  0  0  0
 15 16  1  0  0  0  0
 16 17  1  0  0  0  0
 17 19  1  0  0  0  0
 18 20  1  0  0  0  0
 19 18  2  0  0  0  0
 20 21  1  0  0  0  0
 22 21  1  0  0  0  0
 22 23  1  0  0  0  0
 24 23  1  0  0  0  0
 25 24  1  0  0  0  0
M  END
>  <MODEL>
8

>  <REMARK>
 VINA RESULT:      -5.7      2.924      5.505
  Name = 
  12 active torsions:
  status: ('A' for Active; 'I' for Inactive)
    1  A    between atoms: C_1  and  C_3
    2  A    between atoms: C_1  and  C_18
    3  A    between atoms: C_1  and  C_24
    4  A    between atoms: C_2  and  C_7
    5  A    between atoms: C_2  and  C_25
    6  A    between atoms: C_3  and  O_16
    7  A    between atoms: C_6  and  N_15
    8  A    between atoms: C_6  and  C_21
    9  A    between atoms: O_16  and  C_23
   10  A    between atoms: C_17  and  C_18
   11  A    between atoms: C_20  and  C_23
   12  A    between atoms: C_21  and  C_25
                            x       y       z     vdW  Elec       q    Type
                         _______ _______ _______ _____ _____    ______ ____

>  <TORSDO>
F 12

$$$$
=
 OpenBabel11052412543D

 25 25  0  0  1  0  0  0  0  0999 V2000
  183.4660  178.0060  140.0450 C   0  0  1  0  0  3  0  0  0  0  0  0
  182.4750  178.3260  137.8730 O   0  0  0  0  0  0  0  0  0  0  0  0
  181.0910  178.8750  139.8540 C   0  0  0  0  0  2  0  0  0  0  0  0
  181.1100  180.9300  136.8120 O   0  0  0  0  0  1  0  0  0  0  0  0
  180.6380  179.8780  137.5960 C   0  0  2  0  0  3  0  0  0  0  0  0
  180.9340  180.1730  139.0660 C   0  0  0  0  0  2  0  0  0  0  0  0
  182.1620  177.9540  139.2140 C   0  0  2  0  0  0  0  0  0  0  0  0
  181.2870  178.5670  137.1480 C   0  0  0  0  0  2  0  0  0  0  0  0
  181.6260  176.5180  139.2340 C   0  0  0  0  0  2  0  0  0  0  0  0
  182.5040  175.6750  139.8930 F   0  0  0  0  0  0  0  0  0  0  0  0
  184.5530  180.0500  139.4590 O   0  0  0  0  0  0  0  0  0  0  0  0
  185.6140  178.1260  138.6850 N   0  0  0  0  0  2  0  0  0  0  0  0
  186.6140  178.8290  138.1020 O   0  0  0  0  0  1  0  0  0  0  0  0
  184.5610  178.7920  139.3800 C   0  0  0  0  0  0  0  0  0  0  0  0
  183.2470  178.4610  141.4900 C   0  0  0  0  0  2  0  0  0  0  0  0
  184.3750  178.1750  142.2590 O   0  0  0  0  0  0  0  0  0  0  0  0
  184.4470  179.2220  143.1760 C   0  0  0  0  0  2  0  0  0  0  0  0
  184.1720  178.9170  145.5910 N   0  0  0  0  0  0  0  0  0  0  0  0
  183.6680  178.8670  144.4050 C   0  0  0  0  0  3  0  0  0  0  0  0
  185.5350  179.3170  145.8600 C   0  0  0  0  0  2  0  0  0  0  0  0
  186.3010  178.1770  146.5040 C   0  0  0  0  0  2  0  0  0  0  0  0
  186.6100  177.1260  145.4580 C   0  0  0  0  0  2  0  0  0  0  0  0
  187.8270  177.5480  144.6610 C   0  0  0  0  0  2  0  0  0  0  0  0
  187.7930  176.8830  143.3000 C   0  0  0  0  0  2  0  0  0  0  0  0
  187.8690  177.9400  142.2170 C   0  0  0  0  0  1  0  0  0  0  0  0
  1 15  1  1  0  0  0
  2  7  1  0  0  0  0
  5  4  1  6  0  0  0
  5  6  1  0  0  0  0
  6  3  1  0  0  0  0
  7  9  1  1  0  0  0
  7  3  1  0  0  0  0
  7  1  1  0  0  0  0
  8  5  1  0  0  0  0
  8  2  1  0  0  0  0
  9 10  1  0  0  0  0
 12 14  1  0  0  0  0
 13 12  1  0  0  0  0
 14 11  2  0  0  0  0
 14  1  1  0  0  0  0
 15 16  1  0  0  0  0
 16 17  1  0  0  0  0
 17 19  1  0  0  0  0
 18 20  1  0  0  0  0
 19 18  2  0  0  0  0
 20 21  1  0  0  0  0
 22 21  1  0  0  0  0
 23 22  1  0  0  0  0
 24 23  1  0  0  0  0
 25 24  1  0  0  0  0
M  END
>  <MODEL>
9

>  <REMARK>
 VINA RESULT:      -5.7      4.110      7.046
  Name = 
  12 active torsions:
  status: ('A' for Active; 'I' for Inactive)
    1  A    between atoms: C_1  and  C_3
    2  A    between atoms: C_1  and  C_18
    3  A    between atoms: C_1  and  C_24
    4  A    between atoms: C_2  and  C_7
    5  A    between atoms: C_2  and  C_25
    6  A    between atoms: C_3  and  O_16
    7  A    between atoms: C_6  and  N_15
    8  A    between atoms: C_6  and  C_21
    9  A    between atoms: O_16  and  C_23
   10  A    between atoms: C_17  and  C_18
   11  A    between atoms: C_20  and  C_23
   12  A    between atoms: C_21  and  C_25
                            x       y       z     vdW  Elec       q    Type
                         _______ _______ _______ _____ _____    ______ ____

>  <TORSDO>
F 12

$$$$
