=
 OpenBabel11052414343D

 32 37  0  0  1  0  0  0  0  0999 V2000
  189.4120  177.6240  143.2950 C   0  0  2  0  0  3  0  0  0  0  0  0
  187.4560  177.5750  144.8300 C   0  0  0  0  0  0  0  0  0  0  0  0
  190.6910  176.8460  142.9780 C   0  0  0  0  0  2  0  0  0  0  0  0
  188.7900  176.9900  144.5390 C   0  0  2  0  0  3  0  0  0  0  0  0
  187.0180  177.6990  146.1530 C   0  0  0  0  0  0  0  0  0  0  0  0
  183.2260  179.3620  143.2300 C   0  0  0  0  0  2  0  0  0  0  0  0
  186.6160  177.8840  143.7550 C   0  0  0  0  0  0  0  0  0  0  0  0
  183.5270  178.7970  145.5710 O   0  0  0  0  0  0  0  0  0  0  0  0
  184.8490  178.4060  145.3380 C   0  0  0  0  0  0  0  0  0  0  0  0
  189.7120  177.1480  145.7440 C   0  0  1  0  0  3  0  0  0  0  0  0
  185.7080  178.1220  146.4080 C   0  0  0  0  0  3  0  0  0  0  0  0
  189.0860  176.6070  146.8910 O   0  0  0  0  0  0  0  0  0  0  0  0
  191.0200  176.4120  145.4520 C   0  0  0  0  0  2  0  0  0  0  0  0
  187.1330  177.8170  142.4140 N   0  0  0  0  0  0  0  0  0  0  0  0
  188.4040  177.6600  142.1520 C   0  0  0  0  0  0  0  0  0  0  0  0
  185.3090  178.3120  144.0120 C   0  0  0  0  0  0  0  0  0  0  0  0
  187.9940  177.4360  147.2790 C   0  0  1  0  0  3  0  0  0  0  0  0
  191.6610  176.9420  144.1620 C   0  0  0  0  0  2  0  0  0  0  0  0
  182.5740  178.8300  144.5090 C   0  0  0  0  0  2  0  0  0  0  0  0
  184.4430  178.6590  142.9700 O   0  0  0  0  0  0  0  0  0  0  0  0
  188.4720  178.2030  138.3870 C   0  0  0  0  0  0  0  0  0  0  0  0
  187.6990  178.7130  137.3980 F   0  0  0  0  0  0  0  0  0  0  0  0
  188.8340  177.6820  140.7360 C   0  0  0  0  0  0  0  0  0  0  0  0
  189.7210  177.6620  138.0740 C   0  0  0  0  0  3  0  0  0  0  0  0
  190.0780  177.1270  140.4030 C   0  0  0  0  0  3  0  0  0  0  0  0
  188.0180  178.2050  139.7110 C   0  0  0  0  0  0  0  0  0  0  0  0
  186.7500  178.7040  139.9930 O   0  0  0  0  0  1  0  0  0  0  0  0
  190.5290  177.1170  139.0810 C   0  0  0  0  0  0  0  0  0  0  0  0
  192.2900  176.3520  137.5480 C   0  0  0  0  0  2  0  0  0  0  0  0
  191.8440  176.5320  138.7860 C   0  0  0  0  0  3  0  0  0  0  0  0
  188.4690  178.7370  147.9190 C   0  0  0  0  0  2  0  0  0  0  0  0
  189.5080  178.4480  148.9850 C   0  0  0  0  0  1  0  0  0  0  0  0
  1  3  1  6  0  0  0
  1  4  1  0  0  0  0
  2  5  1  0  0  0  0
  3 18  1  0  0  0  0
  4  2  1  1  0  0  0
  4 10  1  0  0  0  0
  5 11  2  0  0  0  0
  5 17  1  0  0  0  0
  6 19  1  0  0  0  0
  7 16  1  0  0  0  0
  7  2  2  0  0  0  0
  9  8  1  0  0  0  0
  9 11  1  0  0  0  0
 10 13  1  6  0  0  0
 10 12  1  0  0  0  0
 12 17  1  0  0  0  0
 14  7  1  0  0  0  0
 15 14  2  0  0  0  0
 15  1  1  0  0  0  0
 16  9  2  0  0  0  0
 17 31  1  6  0  0  0
 18 13  1  0  0  0  0
 19  8  1  0  0  0  0
 20  6  1  0  0  0  0
 20 16  1  0  0  0  0
 21 26  1  0  0  0  0
 22 21  1  0  0  0  0
 23 15  1  0  0  0  0
 24 21  2  0  0  0  0
 24 28  1  0  0  0  0
 25 23  1  0  0  0  0
 26 27  1  0  0  0  0
 26 23  2  0  0  0  0
 28 25  2  0  0  0  0
 29 30  2  0  0  0  0
 30 28  1  0  0  0  0
 31 32  1  0  0  0  0
M  END
>  <MODEL>
1

>  <REMARK>
 VINA RESULT:     -11.0      0.000      0.000
  Name = 
  3 active torsions:
  status: ('A' for Active; 'I' for Inactive)
    1  A    between atoms: C_13  and  C_29
    2  A    between atoms: C_15  and  C_26
    3  A    between atoms: C_16  and  C_27
                            x       y       z     vdW  Elec       q    Type
                         _______ _______ _______ _____ _____    ______ ____

>  <TORSDO>
F 3

$$$$
=
 OpenBabel11052414343D

 32 37  0  0  1  0  0  0  0  0999 V2000
  186.7010  177.8230  144.8290 C   0  0  2  0  0  3  0  0  0  0  0  0
  189.1600  177.8260  144.4560 C   0  0  0  0  0  0  0  0  0  0  0  0
  185.6370  178.4520  145.7320 C   0  0  0  0  0  2  0  0  0  0  0  0
  188.0660  178.2540  145.3650 C   0  0  2  0  0  3  0  0  0  0  0  0
  190.4110  177.4810  144.9780 C   0  0  0  0  0  0  0  0  0  0  0  0
  190.8070  177.0860  139.9410 C   0  0  0  0  0  2  0  0  0  0  0  0
  188.9420  177.8890  143.0760 C   0  0  0  0  0  0  0  0  0  0  0  0
  192.3270  177.0710  141.8330 O   0  0  0  0  0  0  0  0  0  0  0  0
  191.2720  177.3020  142.7210 C   0  0  0  0  0  0  0  0  0  0  0  0
  188.2950  177.6990  146.7670 C   0  0  1  0  0  3  0  0  0  0  0  0
  191.4720  177.2130  144.1040 C   0  0  0  0  0  3  0  0  0  0  0  0
  189.5870  178.0620  147.2130 O   0  0  0  0  0  0  0  0  0  0  0  0
  187.2270  178.2770  147.6970 C   0  0  0  0  0  2  0  0  0  0  0  0
  187.6200  178.1710  142.5830 N   0  0  0  0  0  0  0  0  0  0  0  0
  186.5640  178.1900  143.3550 C   0  0  0  0  0  0  0  0  0  0  0  0
  190.0020  177.6160  142.2040 C   0  0  0  0  0  0  0  0  0  0  0  0
  190.5710  177.3410  146.4760 C   0  0  1  0  0  3  0  0  0  0  0  0
  185.8220  177.9540  147.1710 C   0  0  0  0  0  2  0  0  0  0  0  0
  192.2110  177.4150  140.4520 C   0  0  0  0  0  2  0  0  0  0  0  0
  189.8220  177.6390  140.8170 O   0  0  0  0  0  0  0  0  0  0  0  0
  183.8250  178.8680  140.8040 C   0  0  0  0  0  0  0  0  0  0  0  0
  183.6780  179.0960  139.4760 F   0  0  0  0  0  0  0  0  0  0  0  0
  185.2430  178.4160  142.7290 C   0  0  0  0  0  0  0  0  0  0  0  0
  182.7000  178.8570  141.6290 C   0  0  0  0  0  3  0  0  0  0  0  0
  184.1040  178.4230  143.5470 C   0  0  0  0  0  3  0  0  0  0  0  0
  185.0990  178.6620  141.3480 C   0  0  0  0  0  0  0  0  0  0  0  0
  186.2120  178.7280  140.5140 O   0  0  0  0  0  1  0  0  0  0  0  0
  182.8340  178.6380  143.0070 C   0  0  0  0  0  0  0  0  0  0  0  0
  180.4200  178.6280  143.4630 C   0  0  0  0  0  2  0  0  0  0  0  0
  181.6720  178.6270  143.9060 C   0  0  0  0  0  3  0  0  0  0  0  0
  190.6320  175.8750  146.8950 C   0  0  0  0  0  2  0  0  0  0  0  0
  192.0110  175.5380  147.4240 C   0  0  0  0  0  1  0  0  0  0  0  0
  1  4  1  0  0  0  0
  1  3  1  1  0  0  0
  2  5  1  0  0  0  0
  3 18  1  0  0  0  0
  4  2  1  6  0  0  0
  4 10  1  0  0  0  0
  5 17  1  0  0  0  0
  6 19  1  0  0  0  0
  6 20  1  0  0  0  0
  7  2  2  0  0  0  0
  8  9  1  0  0  0  0
  9 11  1  0  0  0  0
 10 12  1  0  0  0  0
 10 13  1  1  0  0  0
 11  5  2  0  0  0  0
 14  7  1  0  0  0  0
 14 15  2  0  0  0  0
 15  1  1  0  0  0  0
 16  9  2  0  0  0  0
 16  7  1  0  0  0  0
 17 31  1  6  0  0  0
 17 12  1  0  0  0  0
 18 13  1  0  0  0  0
 19  8  1  0  0  0  0
 20 16  1  0  0  0  0
 21 26  2  0  0  0  0
 21 24  1  0  0  0  0
 22 21  1  0  0  0  0
 23 15  1  0  0  0  0
 23 25  2  0  0  0  0
 24 28  2  0  0  0  0
 26 23  1  0  0  0  0
 27 26  1  0  0  0  0
 28 25  1  0  0  0  0
 28 30  1  0  0  0  0
 29 30  2  0  0  0  0
 31 32  1  0  0  0  0
M  END
>  <MODEL>
2

>  <REMARK>
 VINA RESULT:     -10.9      2.002      6.113
  Name = 
  3 active torsions:
  status: ('A' for Active; 'I' for Inactive)
    1  A    between atoms: C_13  and  C_29
    2  A    between atoms: C_15  and  C_26
    3  A    between atoms: C_16  and  C_27
                            x       y       z     vdW  Elec       q    Type
                         _______ _______ _______ _____ _____    ______ ____

>  <TORSDO>
F 3

$$$$
=
 OpenBabel11052414343D

 32 37  0  0  1  0  0  0  0  0999 V2000
  187.6680  177.6190  142.2610 C   0  0  2  0  0  3  0  0  0  0  0  0
  185.5780  178.5290  141.2660 C   0  0  0  0  0  0  0  0  0  0  0  0
  189.1880  177.7850  142.1860 C   0  0  0  0  0  2  0  0  0  0  0  0
  187.0600  178.4970  141.1680 C   0  0  2  0  0  3  0  0  0  0  0  0
  184.8010  178.6450  140.1080 C   0  0  0  0  0  0  0  0  0  0  0  0
  181.5620  178.5980  144.0060 C   0  0  0  0  0  2  0  0  0  0  0  0
  184.9960  178.5570  142.5370 C   0  0  0  0  0  0  0  0  0  0  0  0
  181.4490  179.0710  141.6280 O   0  0  0  0  0  0  0  0  0  0  0  0
  182.8260  178.8710  141.4920 C   0  0  0  0  0  0  0  0  0  0  0  0
  187.4900  178.0150  139.7860 C   0  0  1  0  0  3  0  0  0  0  0  0
  183.4160  178.8120  140.2230 C   0  0  0  0  0  3  0  0  0  0  0  0
  186.8650  178.8070  138.7940 O   0  0  0  0  0  0  0  0  0  0  0  0
  189.0100  178.1320  139.6830 C   0  0  0  0  0  2  0  0  0  0  0  0
  185.8230  178.3550  143.6960 N   0  0  0  0  0  0  0  0  0  0  0  0
  187.0680  177.9620  143.6190 C   0  0  0  0  0  0  0  0  0  0  0  0
  183.6100  178.7180  142.6490 C   0  0  0  0  0  0  0  0  0  0  0  0
  185.4700  178.5200  138.7570 C   0  0  1  0  0  3  0  0  0  0  0  0
  189.6900  177.3380  140.8080 C   0  0  0  0  0  2  0  0  0  0  0  0
  180.8770  179.3970  142.8950 C   0  0  0  0  0  2  0  0  0  0  0  0
  182.9810  178.7230  143.8980 O   0  0  0  0  0  0  0  0  0  0  0  0
  187.9320  177.6030  147.3070 C   0  0  0  0  0  0  0  0  0  0  0  0
  187.3510  177.7230  148.5250 F   0  0  0  0  0  0  0  0  0  0  0  0
  187.8030  177.7130  144.8790 C   0  0  0  0  0  0  0  0  0  0  0  0
  189.2780  177.2440  147.2190 C   0  0  0  0  0  3  0  0  0  0  0  0
  189.1600  177.3670  144.8090 C   0  0  0  0  0  3  0  0  0  0  0  0
  187.1930  177.8510  146.1430 C   0  0  0  0  0  0  0  0  0  0  0  0
  185.8670  178.2570  146.2560 O   0  0  0  0  0  1  0  0  0  0  0  0
  189.9000  177.1280  145.9690 C   0  0  0  0  0  0  0  0  0  0  0  0
  191.9590  176.0420  146.7540 C   0  0  0  0  0  2  0  0  0  0  0  0
  191.3170  176.7600  145.8400 C   0  0  0  0  0  3  0  0  0  0  0  0
  185.1880  177.1630  138.1180 C   0  0  0  0  0  2  0  0  0  0  0  0
  185.6030  177.1730  136.6610 C   0  0  0  0  0  1  0  0  0  0  0  0
  1  3  1  1  0  0  0
  1 15  1  0  0  0  0
  2  7  1  0  0  0  0
  4  2  1  6  0  0  0
  4  1  1  0  0  0  0
  5 11  1  0  0  0  0
  5  2  2  0  0  0  0
  7 16  2  0  0  0  0
  7 14  1  0  0  0  0
  8 19  1  0  0  0  0
  9  8  1  0  0  0  0
  9 16  1  0  0  0  0
 10 13  1  1  0  0  0
 10  4  1  0  0  0  0
 11  9  2  0  0  0  0
 12 10  1  0  0  0  0
 13 18  1  0  0  0  0
 15 14  2  0  0  0  0
 15 23  1  0  0  0  0
 16 20  1  0  0  0  0
 17 31  1  1  0  0  0
 17 12  1  0  0  0  0
 17  5  1  0  0  0  0
 18  3  1  0  0  0  0
 19  6  1  0  0  0  0
 20  6  1  0  0  0  0
 21 22  1  0  0  0  0
 23 26  1  0  0  0  0
 24 21  1  0  0  0  0
 25 23  2  0  0  0  0
 25 28  1  0  0  0  0
 26 27  1  0  0  0  0
 26 21  2  0  0  0  0
 28 24  2  0  0  0  0
 30 28  1  0  0  0  0
 30 29  2  0  0  0  0
 32 31  1  0  0  0  0
M  END
>  <MODEL>
3

>  <REMARK>
 VINA RESULT:     -10.5      2.708      6.423
  Name = 
  3 active torsions:
  status: ('A' for Active; 'I' for Inactive)
    1  A    between atoms: C_13  and  C_29
    2  A    between atoms: C_15  and  C_26
    3  A    between atoms: C_16  and  C_27
                            x       y       z     vdW  Elec       q    Type
                         _______ _______ _______ _____ _____    ______ ____

>  <TORSDO>
F 3

$$$$
=
 OpenBabel11052414343D

 32 37  0  0  1  0  0  0  0  0999 V2000
  188.5910  177.3440  142.3180 C   0  0  2  0  0  3  0  0  0  0  0  0
  187.4380  178.1570  140.2700 C   0  0  0  0  0  0  0  0  0  0  0  0
  189.9400  177.4360  143.0360 C   0  0  0  0  0  2  0  0  0  0  0  0
  188.7430  178.0520  140.9720 C   0  0  2  0  0  3  0  0  0  0  0  0
  187.3880  178.1090  138.8720 C   0  0  0  0  0  0  0  0  0  0  0  0
  182.6260  178.8380  140.4510 C   0  0  0  0  0  2  0  0  0  0  0  0
  186.2930  178.4190  141.0290 C   0  0  0  0  0  0  0  0  0  0  0  0
  183.8110  178.9130  138.3340 O   0  0  0  0  0  0  0  0  0  0  0  0
  185.0260  178.6400  138.9690 C   0  0  0  0  0  0  0  0  0  0  0  0
  189.7600  177.3300  140.0930 C   0  0  1  0  0  3  0  0  0  0  0  0
  186.1720  178.3480  138.2190 C   0  0  0  0  0  3  0  0  0  0  0  0
  189.8350  177.9710  138.8340 O   0  0  0  0  0  0  0  0  0  0  0  0
  191.1180  177.3690  140.7940 C   0  0  0  0  0  2  0  0  0  0  0  0
  186.3750  178.3800  142.4650 N   0  0  0  0  0  0  0  0  0  0  0  0
  187.4240  177.9310  143.1030 C   0  0  0  0  0  0  0  0  0  0  0  0
  185.0780  178.6510  140.3740 C   0  0  0  0  0  0  0  0  0  0  0  0
  188.6350  177.7360  138.1030 C   0  0  1  0  0  3  0  0  0  0  0  0
  191.0210  176.7470  142.1940 C   0  0  0  0  0  2  0  0  0  0  0  0
  182.7130  179.4680  139.0590 C   0  0  0  0  0  2  0  0  0  0  0  0
  183.9030  178.8880  141.0940 O   0  0  0  0  0  0  0  0  0  0  0  0
  186.2180  178.1540  146.7050 C   0  0  0  0  0  0  0  0  0  0  0  0
  185.1120  178.4970  147.4090 F   0  0  0  0  0  0  0  0  0  0  0  0
  187.3700  177.8670  144.5800 C   0  0  0  0  0  0  0  0  0  0  0  0
  187.3630  177.7350  147.3830 C   0  0  0  0  0  3  0  0  0  0  0  0
  188.5170  177.4630  145.2780 C   0  0  0  0  0  3  0  0  0  0  0  0
  186.2190  178.2350  145.3060 C   0  0  0  0  0  0  0  0  0  0  0  0
  185.0820  178.7030  144.6540 O   0  0  0  0  0  1  0  0  0  0  0  0
  188.5210  177.3910  146.6730 C   0  0  0  0  0  0  0  0  0  0  0  0
  190.9040  176.7960  146.7250 C   0  0  0  0  0  2  0  0  0  0  0  0
  189.7460  176.9530  147.3560 C   0  0  0  0  0  3  0  0  0  0  0  0
  188.5600  176.3040  137.5810 C   0  0  0  0  0  2  0  0  0  0  0  0
  189.6300  176.0710  136.5330 C   0  0  0  0  0  1  0  0  0  0  0  0
  1  3  1  1  0  0  0
  1 15  1  0  0  0  0
  2  7  1  0  0  0  0
  4  2  1  6  0  0  0
  4  1  1  0  0  0  0
  5  2  2  0  0  0  0
  6 20  1  0  0  0  0
  7 14  1  0  0  0  0
  8  9  1  0  0  0  0
  8 19  1  0  0  0  0
  9 16  1  0  0  0  0
 10 13  1  1  0  0  0
 10  4  1  0  0  0  0
 11  5  1  0  0  0  0
 11  9  2  0  0  0  0
 12 10  1  0  0  0  0
 13 18  1  0  0  0  0
 14 15  2  0  0  0  0
 15 23  1  0  0  0  0
 16  7  2  0  0  0  0
 16 20  1  0  0  0  0
 17 31  1  1  0  0  0
 17 12  1  0  0  0  0
 17  5  1  0  0  0  0
 18  3  1  0  0  0  0
 19  6  1  0  0  0  0
 21 24  1  0  0  0  0
 21 22  1  0  0  0  0
 23 25  2  0  0  0  0
 23 26  1  0  0  0  0
 25 28  1  0  0  0  0
 26 21  2  0  0  0  0
 27 26  1  0  0  0  0
 28 30  1  0  0  0  0
 28 24  2  0  0  0  0
 29 30  2  0  0  0  0
 32 31  1  0  0  0  0
M  END
>  <MODEL>
4

>  <REMARK>
 VINA RESULT:     -10.3      2.597      6.624
  Name = 
  3 active torsions:
  status: ('A' for Active; 'I' for Inactive)
    1  A    between atoms: C_13  and  C_29
    2  A    between atoms: C_15  and  C_26
    3  A    between atoms: C_16  and  C_27
                            x       y       z     vdW  Elec       q    Type
                         _______ _______ _______ _____ _____    ______ ____

>  <TORSDO>
F 3

$$$$
=
 OpenBabel11052414343D

 32 37  0  0  1  0  0  0  0  0999 V2000
  185.9740  177.8610  143.0580 C   0  0  2  0  0  3  0  0  0  0  0  0
  188.1130  178.0550  141.8010 C   0  0  0  0  0  0  0  0  0  0  0  0
  185.3320  178.2870  144.3790 C   0  0  0  0  0  2  0  0  0  0  0  0
  187.4430  178.2810  143.1080 C   0  0  2  0  0  3  0  0  0  0  0  0
  189.4670  177.7060  141.7580 C   0  0  0  0  0  0  0  0  0  0  0  0
  187.9350  178.0920  136.9420 C   0  0  0  0  0  2  0  0  0  0  0  0
  187.3910  178.3120  140.6310 C   0  0  0  0  0  0  0  0  0  0  0  0
  190.0560  177.8790  138.1040 O   0  0  0  0  0  0  0  0  0  0  0  0
  189.4140  177.9150  139.3450 C   0  0  0  0  0  0  0  0  0  0  0  0
  188.1800  177.5360  144.2170 C   0  0  1  0  0  3  0  0  0  0  0  0
  190.1190  177.6310  140.5210 C   0  0  0  0  0  3  0  0  0  0  0  0
  189.5470  177.8990  144.2010 O   0  0  0  0  0  0  0  0  0  0  0  0
  187.5440  177.9090  145.5560 C   0  0  0  0  0  2  0  0  0  0  0  0
  185.9830  178.5910  140.7170 N   0  0  0  0  0  0  0  0  0  0  0  0
  185.2960  178.4360  141.8190 C   0  0  0  0  0  0  0  0  0  0  0  0
  188.0440  178.2310  139.3960 C   0  0  0  0  0  0  0  0  0  0  0  0
  190.1770  177.3530  143.0460 C   0  0  1  0  0  3  0  0  0  0  0  0
  186.0420  177.5910  145.5470 C   0  0  0  0  0  2  0  0  0  0  0  0
  189.4310  178.4190  136.9390 C   0  0  0  0  0  2  0  0  0  0  0  0
  187.3560  178.4520  138.1980 O   0  0  0  0  0  0  0  0  0  0  0  0
  181.7830  179.2230  140.5880 C   0  0  0  0  0  0  0  0  0  0  0  0
  181.1300  179.5240  139.4400 F   0  0  0  0  0  0  0  0  0  0  0  0
  183.8370  178.6790  141.7750 C   0  0  0  0  0  0  0  0  0  0  0  0
  181.0700  179.1480  141.7860 C   0  0  0  0  0  3  0  0  0  0  0  0
  183.1090  178.6240  142.9720 C   0  0  0  0  0  3  0  0  0  0  0  0
  183.1660  179.0020  140.5770 C   0  0  0  0  0  0  0  0  0  0  0  0
  183.8640  179.1320  139.3800 O   0  0  0  0  0  1  0  0  0  0  0  0
  181.7310  178.8520  142.9860 C   0  0  0  0  0  0  0  0  0  0  0  0
  179.6960  178.6270  144.3430 C   0  0  0  0  0  2  0  0  0  0  0  0
  181.0140  178.7730  144.2650 C   0  0  0  0  0  3  0  0  0  0  0  0
  190.3840  175.8460  143.1730 C   0  0  0  0  0  2  0  0  0  0  0  0
  191.6410  175.5540  143.9690 C   0  0  0  0  0  1  0  0  0  0  0  0
  1  4  1  0  0  0  0
  1  3  1  1  0  0  0
  3 18  1  0  0  0  0
  4  2  1  6  0  0  0
  4 10  1  0  0  0  0
  5  2  1  0  0  0  0
  5 17  1  0  0  0  0
  6 20  1  0  0  0  0
  7 14  1  0  0  0  0
  7  2  2  0  0  0  0
  8  9  1  0  0  0  0
  9 16  2  0  0  0  0
  9 11  1  0  0  0  0
 10 13  1  1  0  0  0
 11  5  2  0  0  0  0
 12 10  1  0  0  0  0
 14 15  2  0  0  0  0
 15  1  1  0  0  0  0
 16  7  1  0  0  0  0
 17 31  1  1  0  0  0
 17 12  1  0  0  0  0
 18 13  1  0  0  0  0
 19  6  1  0  0  0  0
 19  8  1  0  0  0  0
 20 16  1  0  0  0  0
 21 24  1  0  0  0  0
 22 21  1  0  0  0  0
 23 15  1  0  0  0  0
 23 25  2  0  0  0  0
 24 28  2  0  0  0  0
 25 28  1  0  0  0  0
 26 21  2  0  0  0  0
 26 23  1  0  0  0  0
 27 26  1  0  0  0  0
 28 30  1  0  0  0  0
 30 29  2  0  0  0  0
 31 32  1  0  0  0  0
M  END
>  <MODEL>
5

>  <REMARK>
 VINA RESULT:      -9.9      2.443      6.784
  Name = 
  3 active torsions:
  status: ('A' for Active; 'I' for Inactive)
    1  A    between atoms: C_13  and  C_29
    2  A    between atoms: C_15  and  C_26
    3  A    between atoms: C_16  and  C_27
                            x       y       z     vdW  Elec       q    Type
                         _______ _______ _______ _____ _____    ______ ____

>  <TORSDO>
F 3

$$$$
=
 OpenBabel11052414343D

 32 37  0  0  1  0  0  0  0  0999 V2000
  189.0800  177.3460  143.1330 C   0  0  2  0  0  3  0  0  0  0  0  0
  189.0200  177.8650  140.7010 C   0  0  0  0  0  0  0  0  0  0  0  0
  189.9410  177.5840  144.3760 C   0  0  0  0  0  2  0  0  0  0  0  0
  189.8470  177.9030  141.9340 C   0  0  2  0  0  3  0  0  0  0  0  0
  189.6240  177.6570  139.4570 C   0  0  0  0  0  0  0  0  0  0  0  0
  184.6830  178.3290  138.5510 C   0  0  0  0  0  2  0  0  0  0  0  0
  187.6560  178.1560  140.8060 C   0  0  0  0  0  0  0  0  0  0  0  0
  186.7160  178.2200  137.2300 O   0  0  0  0  0  0  0  0  0  0  0  0
  187.4940  178.0800  138.3840 C   0  0  0  0  0  0  0  0  0  0  0  0
  191.1490  177.1370  141.7220 C   0  0  1  0  0  3  0  0  0  0  0  0
  188.8540  177.7610  138.2920 C   0  0  0  0  0  3  0  0  0  0  0  0
  191.8070  177.6330  140.5730 O   0  0  0  0  0  0  0  0  0  0  0  0
  192.0260  177.3200  142.9610 C   0  0  0  0  0  2  0  0  0  0  0  0
  187.0600  178.2840  142.1090 N   0  0  0  0  0  0  0  0  0  0  0  0
  187.6880  177.9620  143.2110 C   0  0  0  0  0  0  0  0  0  0  0  0
  186.8870  178.2530  139.6410 C   0  0  0  0  0  0  0  0  0  0  0  0
  191.0830  177.2590  139.4040 C   0  0  1  0  0  3  0  0  0  0  0  0
  191.2830  176.8570  144.2220 C   0  0  0  0  0  2  0  0  0  0  0  0
  185.4130  178.8000  137.2910 C   0  0  0  0  0  2  0  0  0  0  0  0
  185.5140  178.5130  139.6990 O   0  0  0  0  0  0  0  0  0  0  0  0
  184.9440  178.5240  145.7860 C   0  0  0  0  0  0  0  0  0  0  0  0
  183.6390  178.8800  145.8500 F   0  0  0  0  0  0  0  0  0  0  0  0
  186.9530  178.0630  144.4910 C   0  0  0  0  0  0  0  0  0  0  0  0
  185.6420  178.2510  146.9650 C   0  0  0  0  0  3  0  0  0  0  0  0
  187.6420  177.8080  145.6840 C   0  0  0  0  0  3  0  0  0  0  0  0
  185.5960  178.4440  144.5490 C   0  0  0  0  0  0  0  0  0  0  0  0
  184.8950  178.7700  143.3910 O   0  0  0  0  0  1  0  0  0  0  0  0
  186.9960  177.8950  146.9200 C   0  0  0  0  0  0  0  0  0  0  0  0
  188.8780  178.2550  148.4570 C   0  0  0  0  0  2  0  0  0  0  0  0
  187.7620  177.6090  148.1400 C   0  0  0  0  0  3  0  0  0  0  0  0
  191.2450  175.7750  139.0880 C   0  0  0  0  0  2  0  0  0  0  0  0
  192.0880  175.5940  137.8420 C   0  0  0  0  0  1  0  0  0  0  0  0
  1 15  1  0  0  0  0
  1  3  1  1  0  0  0
  2  7  1  0  0  0  0
  4  2  1  6  0  0  0
  4  1  1  0  0  0  0
  5  2  2  0  0  0  0
  6 20  1  0  0  0  0
  7 14  1  0  0  0  0
  8 19  1  0  0  0  0
  8  9  1  0  0  0  0
  9 16  1  0  0  0  0
 10  4  1  0  0  0  0
 10 13  1  1  0  0  0
 11  9  2  0  0  0  0
 11  5  1  0  0  0  0
 12 10  1  0  0  0  0
 13 18  1  0  0  0  0
 14 15  2  0  0  0  0
 15 23  1  0  0  0  0
 16 20  1  0  0  0  0
 16  7  2  0  0  0  0
 17 31  1  1  0  0  0
 17  5  1  0  0  0  0
 17 12  1  0  0  0  0
 18  3  1  0  0  0  0
 19  6  1  0  0  0  0
 21 22  1  0  0  0  0
 21 24  1  0  0  0  0
 23 26  1  0  0  0  0
 23 25  2  0  0  0  0
 25 28  1  0  0  0  0
 26 21  2  0  0  0  0
 27 26  1  0  0  0  0
 28 24  2  0  0  0  0
 28 30  1  0  0  0  0
 30 29  2  0  0  0  0
 32 31  1  0  0  0  0
M  END
>  <MODEL>
6

>  <REMARK>
 VINA RESULT:      -9.8      2.300      6.771
  Name = 
  3 active torsions:
  status: ('A' for Active; 'I' for Inactive)
    1  A    between atoms: C_13  and  C_29
    2  A    between atoms: C_15  and  C_26
    3  A    between atoms: C_16  and  C_27
                            x       y       z     vdW  Elec       q    Type
                         _______ _______ _______ _____ _____    ______ ____

>  <TORSDO>
F 3

$$$$
=
 OpenBabel11052414343D

 32 37  0  0  1  0  0  0  0  0999 V2000
  189.1240  177.4080  141.4220 C   0  0  2  0  0  3  0  0  0  0  0  0
  189.3060  177.4760  138.9420 C   0  0  0  0  0  0  0  0  0  0  0  0
  189.8390  177.9100  142.6780 C   0  0  0  0  0  2  0  0  0  0  0  0
  189.9960  177.7790  140.2230 C   0  0  2  0  0  3  0  0  0  0  0  0
  190.0470  177.0780  137.8230 C   0  0  0  0  0  0  0  0  0  0  0  0
  185.2100  177.3210  136.3250 C   0  0  0  0  0  2  0  0  0  0  0  0
  187.9300  177.7100  138.8560 C   0  0  0  0  0  0  0  0  0  0  0  0
  187.3760  177.0810  135.2550 O   0  0  0  0  0  0  0  0  0  0  0  0
  188.0300  177.1910  136.4850 C   0  0  0  0  0  0  0  0  0  0  0  0
  191.3370  177.0540  140.2850 C   0  0  1  0  0  3  0  0  0  0  0  0
  189.4020  176.9310  136.5890 C   0  0  0  0  0  3  0  0  0  0  0  0
  192.0980  177.3690  139.1350 O   0  0  0  0  0  0  0  0  0  0  0  0
  192.0700  177.5030  141.5500 C   0  0  0  0  0  2  0  0  0  0  0  0
  187.1950  178.0410  140.0480 N   0  0  0  0  0  0  0  0  0  0  0  0
  187.7120  177.9550  141.2460 C   0  0  0  0  0  0  0  0  0  0  0  0
  187.2870  177.5560  137.6230 C   0  0  0  0  0  0  0  0  0  0  0  0
  191.5150  176.7540  137.9890 C   0  0  1  0  0  3  0  0  0  0  0  0
  191.2120  177.2370  142.7940 C   0  0  0  0  0  2  0  0  0  0  0  0
  186.0550  177.5950  135.0780 C   0  0  0  0  0  2  0  0  0  0  0  0
  185.9080  177.7520  137.4960 O   0  0  0  0  0  0  0  0  0  0  0  0
  184.8740  179.2630  143.4160 C   0  0  0  0  0  0  0  0  0  0  0  0
  183.7370  179.9920  143.3080 F   0  0  0  0  0  0  0  0  0  0  0  0
  186.8410  178.2470  142.4060 C   0  0  0  0  0  0  0  0  0  0  0  0
  185.2600  178.7720  144.6650 C   0  0  0  0  0  3  0  0  0  0  0  0
  187.2230  177.7740  143.6700 C   0  0  0  0  0  3  0  0  0  0  0  0
  185.6650  179.0150  142.2870 C   0  0  0  0  0  0  0  0  0  0  0  0
  185.2860  179.5580  141.0620 O   0  0  0  0  0  1  0  0  0  0  0  0
  186.4400  178.0280  144.7980 C   0  0  0  0  0  0  0  0  0  0  0  0
  188.1520  177.5030  146.4800 C   0  0  0  0  0  2  0  0  0  0  0  0
  186.8810  177.5020  146.0980 C   0  0  0  0  0  3  0  0  0  0  0  0
  191.7570  175.2470  137.9700 C   0  0  0  0  0  2  0  0  0  0  0  0
  193.1970  174.9530  137.6000 C   0  0  0  0  0  1  0  0  0  0  0  0
  1  3  1  1  0  0  0
  3 18  1  0  0  0  0
  4  2  1  6  0  0  0
  4 10  1  0  0  0  0
  4  1  1  0  0  0  0
  5 17  1  0  0  0  0
  5  2  2  0  0  0  0
  6 20  1  0  0  0  0
  7  2  1  0  0  0  0
  7 14  1  0  0  0  0
  8  9  1  0  0  0  0
  9 11  2  0  0  0  0
  9 16  1  0  0  0  0
 10 13  1  1  0  0  0
 11  5  1  0  0  0  0
 12 10  1  0  0  0  0
 13 18  1  0  0  0  0
 14 15  2  0  0  0  0
 15  1  1  0  0  0  0
 15 23  1  0  0  0  0
 16  7  2  0  0  0  0
 17 31  1  1  0  0  0
 17 12  1  0  0  0  0
 19  8  1  0  0  0  0
 19  6  1  0  0  0  0
 20 16  1  0  0  0  0
 21 24  1  0  0  0  0
 22 21  1  0  0  0  0
 23 25  2  0  0  0  0
 24 28  2  0  0  0  0
 25 28  1  0  0  0  0
 26 23  1  0  0  0  0
 26 21  2  0  0  0  0
 27 26  1  0  0  0  0
 28 30  1  0  0  0  0
 30 29  2  0  0  0  0
 32 31  1  0  0  0  0
M  END
>  <MODEL>
7

>  <REMARK>
 VINA RESULT:      -9.6      2.511      7.211
  Name = 
  3 active torsions:
  status: ('A' for Active; 'I' for Inactive)
    1  A    between atoms: C_13  and  C_29
    2  A    between atoms: C_15  and  C_26
    3  A    between atoms: C_16  and  C_27
                            x       y       z     vdW  Elec       q    Type
                         _______ _______ _______ _____ _____    ______ ____

>  <TORSDO>
F 3

$$$$
=
 OpenBabel11052414343D

 32 37  0  0  1  0  0  0  0  0999 V2000
  184.1680  178.2480  142.5890 C   0  0  2  0  0  3  0  0  0  0  0  0
  186.6400  178.3650  142.8330 C   0  0  0  0  0  0  0  0  0  0  0  0
  182.8920  178.9200  143.1010 C   0  0  0  0  0  2  0  0  0  0  0  0
  185.3390  178.8380  143.3730 C   0  0  2  0  0  3  0  0  0  0  0  0
  187.7290  178.1780  143.6910 C   0  0  0  0  0  0  0  0  0  0  0  0
  189.3940  177.1350  139.0190 C   0  0  0  0  0  2  0  0  0  0  0  0
  186.7750  178.2270  141.4480 C   0  0  0  0  0  0  0  0  0  0  0  0
  190.3880  177.4770  141.2060 O   0  0  0  0  0  0  0  0  0  0  0  0
  189.1360  177.7550  141.7650 C   0  0  0  0  0  0  0  0  0  0  0  0
  185.2250  178.4940  144.8550 C   0  0  1  0  0  3  0  0  0  0  0  0
  188.9840  177.8670  143.1530 C   0  0  0  0  0  3  0  0  0  0  0  0
  186.3510  178.9990  145.5460 O   0  0  0  0  0  0  0  0  0  0  0  0
  183.9400  179.1190  145.3990 C   0  0  0  0  0  2  0  0  0  0  0  0
  185.6120  178.3510  140.6100 N   0  0  0  0  0  0  0  0  0  0  0  0
  184.3960  178.4030  141.0890 C   0  0  0  0  0  0  0  0  0  0  0  0
  188.0280  177.9100  140.9120 C   0  0  0  0  0  0  0  0  0  0  0  0
  187.5110  178.2530  145.1860 C   0  0  1  0  0  3  0  0  0  0  0  0
  182.7230  178.6350  144.5980 C   0  0  0  0  0  2  0  0  0  0  0  0
  190.6130  177.6240  139.8040 C   0  0  0  0  0  2  0  0  0  0  0  0
  188.2030  177.7340  139.5360 O   0  0  0  0  0  0  0  0  0  0  0  0
  182.0630  179.4770  138.2820 C   0  0  0  0  0  0  0  0  0  0  0  0
  181.9460  180.4480  137.3450 F   0  0  0  0  0  0  0  0  0  0  0  0
  183.2680  178.4540  140.1320 C   0  0  0  0  0  0  0  0  0  0  0  0
  181.0840  178.4850  138.3700 C   0  0  0  0  0  3  0  0  0  0  0  0
  182.2690  177.4740  140.2180 C   0  0  0  0  0  3  0  0  0  0  0  0
  183.1490  179.4740  139.1660 C   0  0  0  0  0  0  0  0  0  0  0  0
  184.0850  180.5010  139.0930 O   0  0  0  0  0  1  0  0  0  0  0  0
  181.1810  177.4800  139.3420 C   0  0  0  0  0  0  0  0  0  0  0  0
  179.6770  176.0340  140.6400 C   0  0  0  0  0  2  0  0  0  0  0  0
  180.1650  176.4260  139.4690 C   0  0  0  0  0  3  0  0  0  0  0  0
  187.5090  176.8640  145.8190 C   0  0  0  0  0  2  0  0  0  0  0  0
  188.2820  176.8810  147.1220 C   0  0  0  0  0  1  0  0  0  0  0  0
  1  3  1  1  0  0  0
  1  4  1  0  0  0  0
  2  5  1  0  0  0  0
  3 18  1  0  0  0  0
  4  2  1  6  0  0  0
  4 10  1  0  0  0  0
  5 17  1  0  0  0  0
  6 20  1  0  0  0  0
  6 19  1  0  0  0  0
  7  2  2  0  0  0  0
  8  9  1  0  0  0  0
  9 11  1  0  0  0  0
 10 13  1  1  0  0  0
 10 12  1  0  0  0  0
 11  5  2  0  0  0  0
 14 15  2  0  0  0  0
 14  7  1  0  0  0  0
 15  1  1  0  0  0  0
 16  7  1  0  0  0  0
 16  9  2  0  0  0  0
 17 12  1  0  0  0  0
 17 31  1  6  0  0  0
 18 13  1  0  0  0  0
 19  8  1  0  0  0  0
 20 16  1  0  0  0  0
 21 24  2  0  0  0  0
 21 26  1  0  0  0  0
 22 21  1  0  0  0  0
 23 25  1  0  0  0  0
 23 15  1  0  0  0  0
 24 28  1  0  0  0  0
 26 23  2  0  0  0  0
 27 26  1  0  0  0  0
 28 30  1  0  0  0  0
 28 25  2  0  0  0  0
 30 29  2  0  0  0  0
 31 32  1  0  0  0  0
M  END
>  <MODEL>
8

>  <REMARK>
 VINA RESULT:      -9.5      2.985      6.476
  Name = 
  3 active torsions:
  status: ('A' for Active; 'I' for Inactive)
    1  A    between atoms: C_13  and  C_29
    2  A    between atoms: C_15  and  C_26
    3  A    between atoms: C_16  and  C_27
                            x       y       z     vdW  Elec       q    Type
                         _______ _______ _______ _____ _____    ______ ____

>  <TORSDO>
F 3

$$$$
=
 OpenBabel11052414343D

 32 37  0  0  1  0  0  0  0  0999 V2000
  185.9300  178.6860  142.7480 C   0  0  2  0  0  3  0  0  0  0  0  0
  185.7330  178.2550  140.3060 C   0  0  0  0  0  0  0  0  0  0  0  0
  185.2130  178.3910  144.0670 C   0  0  0  0  0  2  0  0  0  0  0  0
  185.0440  178.1600  141.6190 C   0  0  2  0  0  3  0  0  0  0  0  0
  184.9930  178.4980  139.1430 C   0  0  0  0  0  0  0  0  0  0  0  0
  189.8150  177.9380  137.6840 C   0  0  0  0  0  2  0  0  0  0  0  0
  187.1030  177.9830  140.2520 C   0  0  0  0  0  0  0  0  0  0  0  0
  187.6490  178.0600  136.5960 O   0  0  0  0  0  0  0  0  0  0  0  0
  187.0000  178.1470  137.8310 C   0  0  0  0  0  0  0  0  0  0  0  0
  183.7180  178.9130  141.5780 C   0  0  1  0  0  3  0  0  0  0  0  0
  185.6330  178.4480  137.8980 C   0  0  0  0  0  3  0  0  0  0  0  0
  182.9450  178.4470  140.4890 O   0  0  0  0  0  0  0  0  0  0  0  0
  182.9830  178.6710  142.8960 C   0  0  0  0  0  2  0  0  0  0  0  0
  187.8390  177.8170  141.4770 N   0  0  0  0  0  0  0  0  0  0  0  0
  187.3300  178.0910  142.6510 C   0  0  0  0  0  0  0  0  0  0  0  0
  187.7420  177.9390  139.0080 C   0  0  0  0  0  0  0  0  0  0  0  0
  183.5330  178.8740  139.2630 C   0  0  1  0  0  3  0  0  0  0  0  0
  183.8540  179.1010  144.0860 C   0  0  0  0  0  2  0  0  0  0  0  0
  188.9580  177.4990  136.4940 C   0  0  0  0  0  2  0  0  0  0  0  0
  189.1160  177.6990  138.9070 O   0  0  0  0  0  0  0  0  0  0  0  0
  190.3880  177.7840  144.8940 C   0  0  0  0  0  0  0  0  0  0  0  0
  191.7400  177.7500  144.8060 F   0  0  0  0  0  0  0  0  0  0  0  0
  188.2020  177.9560  143.8390 C   0  0  0  0  0  0  0  0  0  0  0  0
  189.7770  177.6750  146.1450 C   0  0  0  0  0  3  0  0  0  0  0  0
  187.6030  177.8300  145.1010 C   0  0  0  0  0  3  0  0  0  0  0  0
  189.6080  177.9110  143.7380 C   0  0  0  0  0  0  0  0  0  0  0  0
  190.2370  177.9670  142.4980 O   0  0  0  0  0  1  0  0  0  0  0  0
  188.3800  177.6940  146.2540 C   0  0  0  0  0  0  0  0  0  0  0  0
  188.2530  177.9840  148.6900 C   0  0  0  0  0  2  0  0  0  0  0  0
  187.7040  177.5740  147.5530 C   0  0  0  0  0  3  0  0  0  0  0  0
  183.3200  180.3660  139.0210 C   0  0  0  0  0  2  0  0  0  0  0  0
  181.9270  180.6150  138.4780 C   0  0  0  0  0  1  0  0  0  0  0  0
  1  3  1  1  0  0  0
  3 18  1  0  0  0  0
  4  2  1  6  0  0  0
  4  1  1  0  0  0  0
  5 17  1  0  0  0  0
  5  2  2  0  0  0  0
  6 20  1  0  0  0  0
  7  2  1  0  0  0  0
  7 14  1  0  0  0  0
  8  9  1  0  0  0  0
  9 11  2  0  0  0  0
  9 16  1  0  0  0  0
 10  4  1  0  0  0  0
 10 13  1  1  0  0  0
 11  5  1  0  0  0  0
 12 10  1  0  0  0  0
 13 18  1  0  0  0  0
 14 15  2  0  0  0  0
 15  1  1  0  0  0  0
 15 23  1  0  0  0  0
 16  7  2  0  0  0  0
 17 31  1  1  0  0  0
 17 12  1  0  0  0  0
 19  8  1  0  0  0  0
 19  6  1  0  0  0  0
 20 16  1  0  0  0  0
 21 24  1  0  0  0  0
 22 21  1  0  0  0  0
 23 25  2  0  0  0  0
 24 28  2  0  0  0  0
 25 28  1  0  0  0  0
 26 23  1  0  0  0  0
 26 21  2  0  0  0  0
 27 26  1  0  0  0  0
 28 30  1  0  0  0  0
 30 29  2  0  0  0  0
 32 31  1  0  0  0  0
M  END
>  <MODEL>
9

>  <REMARK>
 VINA RESULT:      -9.5      2.708      7.606
  Name = 
  3 active torsions:
  status: ('A' for Active; 'I' for Inactive)
    1  A    between atoms: C_13  and  C_29
    2  A    between atoms: C_15  and  C_26
    3  A    between atoms: C_16  and  C_27
                            x       y       z     vdW  Elec       q    Type
                         _______ _______ _______ _____ _____    ______ ____

>  <TORSDO>
F 3

$$$$
