=
 OpenBabel11052414483D

 55 60  0  0  1  0  0  0  0  0999 V2000
  181.6750  178.0410  137.7640 N   0  0  0  0  0  0  0  0  0  0  0  0
  186.1440  178.1950  139.4270 C   0  0  0  0  0  2  0  0  0  0  0  0
  185.8180  179.4100  142.1890 O   0  0  0  0  0  1  0  0  0  0  0  0
  181.3820  178.2950  143.7710 C   0  0  0  0  0  3  0  0  0  0  0  0
  180.3740  178.4420  144.7290 C   0  0  0  0  0  3  0  0  0  0  0  0
  179.9360  179.3130  142.0990 C   0  0  0  0  0  0  0  0  0  0  0  0
  178.9310  179.4410  143.0670 C   0  0  0  0  0  3  0  0  0  0  0  0
  183.4720  179.4860  141.8200 C   0  0  0  0  0  2  0  0  0  0  0  0
  179.1510  179.0140  144.3780 C   0  0  0  0  0  3  0  0  0  0  0  0
  181.7320  177.6090  135.3910 C   0  0  0  0  0  2  0  0  0  0  0  0
  181.1780  178.7220  142.4520 C   0  0  0  0  0  0  0  0  0  0  0  0
  184.5460  177.1380  136.1830 C   0  0  1  0  0  3  0  0  0  0  0  0
  182.1500  177.9570  139.1090 C   0  0  0  0  0  3  0  0  0  0  0  0
  183.4020  176.4990  136.9640 C   0  0  0  0  0  2  0  0  0  0  0  0
  180.9100  180.0320  139.9080 C   0  0  1  0  0  3  0  0  0  0  0  0
  186.5250  178.5590  138.1320 O   0  0  0  0  0  0  0  0  0  0  0  0
  179.6290  179.7260  140.6820 C   0  0  0  0  0  2  0  0  0  0  0  0
  185.0920  179.1610  139.9400 C   0  0  0  0  0  2  0  0  0  0  0  0
  184.8000  178.8730  141.4040 C   0  0  1  0  0  3  0  0  0  0  0  0
  182.8960  178.2160  134.6070 C   0  0  0  0  0  2  0  0  0  0  0  0
  187.3780  177.5370  137.7070 C   0  0  1  0  0  3  0  0  0  0  0  0
  182.1800  177.3510  136.7900 C   0  0  0  0  0  0  0  0  0  0  0  0
  182.3080  178.5680  141.4550 C   0  0  1  0  0  3  0  0  0  0  0  0
  181.8390  178.8460  140.0580 C   0  0  0  0  0  0  0  0  0  0  0  0
  187.0380  177.1110  136.2890 C   0  0  0  0  0  2  0  0  0  0  0  0
  185.7790  176.2570  136.2750 C   0  0  0  0  0  2  0  0  0  0  0  0
  184.1500  177.3410  134.7160 C   0  0  0  0  0  2  0  0  0  0  0  0
  179.2030  180.9390  138.2670 C   0  0  0  0  0  2  0  0  0  0  0  0
  179.7700  182.5980  136.6550 C   0  0  2  0  0  3  0  0  0  0  0  0
  181.5320  181.7850  138.2180 C   0  0  0  0  0  2  0  0  0  0  0  0
  181.2660  182.3130  136.8140 C   0  0  0  0  0  2  0  0  0  0  0  0
  179.0020  181.3720  136.8820 N   0  0  0  0  0  2  0  0  0  0  0  0
  180.6650  180.5540  138.4860 C   0  0  1  0  0  3  0  0  0  0  0  0
  179.5010  183.1120  135.2500 C   0  0  0  0  0  3  0  0  0  0  0  0
  180.3920  184.3080  134.9750 C   0  0  0  0  0  2  0  0  0  0  0  0
  178.9330  184.5160  135.3150 C   0  0  0  0  0  2  0  0  0  0  0  0
  188.8240  178.0070  137.7560 C   0  0  0  0  0  2  0  0  0  0  0  0
  190.1890  175.5650  138.3020 O   0  0  0  0  0  0  0  0  0  0  0  0
  190.0310  176.3700  139.2630 C   0  0  0  0  0  0  0  0  0  0  0  0
  189.4180  177.6440  139.0370 N   0  0  0  0  0  2  0  0  0  0  0  0
  190.4440  176.0330  140.5580 O   0  0  0  0  0  0  0  0  0  0  0  0
  190.8040  176.9750  141.5780 C   0  0  2  0  0  3  0  0  0  0  0  0
  192.2820  177.3980  141.5020 C   0  0  0  0  0  3  0  0  0  0  0  0
  192.7710  177.1830  140.2120 O   0  0  0  0  0  1  0  0  0  0  0  0
  192.4320  178.7460  141.8230 O   0  0  0  0  0  1  0  0  0  0  0  0
  189.4890  175.2630  142.8840 C   0  0  0  0  0  1  0  0  0  0  0  0
  190.2760  176.5730  142.9870 C   0  0  2  0  0  0  0  0  0  0  0  0
  189.9830  178.9090  143.6200 O   0  0  0  0  0  1  0  0  0  0  0  0
  189.3340  177.6710  143.5350 C   0  0  2  0  0  3  0  0  0  0  0  0
  188.6640  177.3140  144.8700 C   0  0  1  0  0  3  0  0  0  0  0  0
  189.0390  178.2030  145.8840 O   0  0  0  0  0  1  0  0  0  0  0  0
  187.1470  177.2670  144.7390 C   0  0  0  0  0  2  0  0  0  0  0  0
  186.5330  177.9600  145.7840 O   0  0  0  0  0  1  0  0  0  0  0  0
  191.4320  176.4150  143.9920 C   0  0  0  0  0  2  0  0  0  0  0  0
  191.8960  175.0990  144.0650 O   0  0  0  0  0  1  0  0  0  0  0  0
  1 13  1  0  0  0  0
  2 18  1  0  0  0  0
  4  5  1  0  0  0  0
  6 11  1  0  0  0  0
  6  7  2  0  0  0  0
  7  9  1  0  0  0  0
  9  5  2  0  0  0  0
 10 22  1  0  0  0  0
 11  4  2  0  0  0  0
 12 27  1  6  0  0  0
 12 26  1  0  0  0  0
 12 14  1  0  0  0  0
 13 24  2  0  0  0  0
 15 24  1  0  0  0  0
 15 17  1  6  0  0  0
 16  2  1  0  0  0  0
 17  6  1  0  0  0  0
 18 19  1  0  0  0  0
 19  8  1  0  0  0  0
 19  3  1  1  0  0  0
 20 27  1  0  0  0  0
 20 10  1  0  0  0  0
 21 37  1  6  0  0  0
 21 16  1  0  0  0  0
 22 14  1  0  0  0  0
 22  1  2  0  0  0  0
 23  8  1  1  0  0  0
 23 11  1  0  0  0  0
 24 23  1  0  0  0  0
 25 21  1  0  0  0  0
 26 25  1  0  0  0  0
 28 33  1  0  0  0  0
 29 34  1  6  0  0  0
 29 31  1  0  0  0  0
 29 32  1  0  0  0  0
 31 30  1  0  0  0  0
 32 28  1  0  0  0  0
 33 30  1  1  0  0  0
 33 15  1  0  0  0  0
 34 36  1  0  0  0  0
 35 34  1  0  0  0  0
 35 36  1  0  0  0  0
 37 40  1  0  0  0  0
 38 39  2  0  0  0  0
 39 41  1  0  0  0  0
 40 39  1  0  0  0  0
 42 41  1  6  0  0  0
 42 47  1  0  0  0  0
 43 42  1  0  0  0  0
 43 45  1  0  0  0  0
 44 43  1  0  0  0  0
 47 46  1  6  0  0  0
 47 49  1  0  0  0  0
 47 54  1  0  0  0  0
 49 48  1  1  0  0  0
 49 50  1  0  0  0  0
 50 51  1  1  0  0  0
 52 50  1  0  0  0  0
 52 53  1  0  0  0  0
 54 55  1  0  0  0  0
M  END
>  <MODEL>
1

>  <REMARK>
 VINA RESULT:      -6.2      0.000      0.000
  Name = 
  12 active torsions:
  status: ('A' for Active; 'I' for Inactive)
    1  A    between atoms: C_1  and  C_53
    2  A    between atoms: C_6  and  C_14
    3  A    between atoms: C_8  and  N_22
    4  A    between atoms: C_8  and  C_43
    5  A    between atoms: C_10  and  C_32
    6  A    between atoms: C_11  and  C_29
    7  A    between atoms: C_14  and  C_38
    8  A    between atoms: C_14  and  C_53
    9  A    between atoms: C_20  and  O_42
   10  A    between atoms: C_29  and  C_38
   11  A    between atoms: C_33  and  C_52
   12  A    between atoms: O_42  and  C_53
                            x       y       z     vdW  Elec       q    Type
                         _______ _______ _______ _____ _____    ______ ____

>  <TORSDO>
F 12

$$$$
=
 OpenBabel11052414483D

 55 60  0  0  1  0  0  0  0  0999 V2000
  182.4090  177.7670  138.4440 N   0  0  0  0  0  0  0  0  0  0  0  0
  184.8740  178.8080  142.3940 C   0  0  0  0  0  2  0  0  0  0  0  0
  187.7490  178.2640  141.5850 O   0  0  0  0  0  1  0  0  0  0  0  0
  188.0820  178.9350  136.8030 C   0  0  0  0  0  3  0  0  0  0  0  0
  188.8320  178.8520  135.6260 C   0  0  0  0  0  3  0  0  0  0  0  0
  186.5110  177.3040  135.9140 C   0  0  0  0  0  0  0  0  0  0  0  0
  187.2650  177.2410  134.7350 C   0  0  0  0  0  3  0  0  0  0  0  0
  186.9720  177.6900  139.4130 C   0  0  0  0  0  2  0  0  0  0  0  0
  188.4250  178.0060  134.5940 C   0  0  0  0  0  3  0  0  0  0  0  0
  180.0660  177.6110  138.9960 C   0  0  0  0  0  2  0  0  0  0  0  0
  186.9180  178.1710  136.9620 C   0  0  0  0  0  0  0  0  0  0  0  0
  181.2220  178.7470  141.4750 C   0  0  1  0  0  3  0  0  0  0  0  0
  183.7440  178.2570  138.5830 C   0  0  0  0  0  3  0  0  0  0  0  0
  181.5620  179.3460  140.1140 C   0  0  0  0  0  2  0  0  0  0  0  0
  184.8310  176.2550  137.4460 C   0  0  1  0  0  3  0  0  0  0  0  0
  183.8270  178.2130  143.1040 O   0  0  0  0  0  0  0  0  0  0  0  0
  185.2310  176.5110  135.9940 C   0  0  0  0  0  2  0  0  0  0  0  0
  185.4230  177.8270  141.3740 C   0  0  0  0  0  2  0  0  0  0  0  0
  186.6660  178.4070  140.7200 C   0  0  1  0  0  3  0  0  0  0  0  0
  179.7180  177.0450  140.3740 C   0  0  0  0  0  2  0  0  0  0  0  0
  183.3100  179.2340  143.9050 C   0  0  1  0  0  3  0  0  0  0  0  0
  181.3980  178.2770  139.0760 C   0  0  0  0  0  0  0  0  0  0  0  0
  186.1520  178.2730  138.2650 C   0  0  1  0  0  3  0  0  0  0  0  0
  184.8240  177.5860  138.1680 C   0  0  0  0  0  0  0  0  0  0  0  0
  181.7910  179.2350  143.8540 C   0  0  0  0  0  2  0  0  0  0  0  0
  181.3020  179.8250  142.5400 C   0  0  0  0  0  2  0  0  0  0  0  0
  179.8190  178.1260  141.4560 C   0  0  0  0  0  2  0  0  0  0  0  0
  182.5810  175.6020  136.4760 C   0  0  0  0  0  2  0  0  0  0  0  0
  181.7600  173.3700  136.6020 C   0  0  2  0  0  3  0  0  0  0  0  0
  183.9880  173.8920  137.5890 C   0  0  0  0  0  2  0  0  0  0  0  0
  182.7480  173.0170  137.7170 C   0  0  0  0  0  2  0  0  0  0  0  0
  181.3870  174.7830  136.6950 N   0  0  0  0  0  2  0  0  0  0  0  0
  183.5890  175.3680  137.6000 C   0  0  1  0  0  3  0  0  0  0  0  0
  180.5170  172.5070  136.7360 C   0  0  0  0  0  3  0  0  0  0  0  0
  180.0420  172.0930  135.3570 C   0  0  0  0  0  2  0  0  0  0  0  0
  179.3330  173.2050  136.0970 C   0  0  0  0  0  2  0  0  0  0  0  0
  183.7620  179.0500  145.3460 C   0  0  0  0  0  2  0  0  0  0  0  0
  185.5950  176.9610  145.9790 O   0  0  0  0  0  0  0  0  0  0  0  0
  186.0680  178.1210  145.8220 C   0  0  0  0  0  0  0  0  0  0  0  0
  185.2100  179.1980  145.4310 N   0  0  0  0  0  2  0  0  0  0  0  0
  187.4300  178.3760  146.0290 O   0  0  0  0  0  0  0  0  0  0  0  0
  188.4050  177.3890  146.3970 C   0  0  2  0  0  3  0  0  0  0  0  0
  188.6100  177.2950  147.9200 C   0  0  0  0  0  3  0  0  0  0  0  0
  189.5250  178.2640  148.3350 O   0  0  0  0  0  1  0  0  0  0  0  0
  187.4080  177.4890  148.5970 O   0  0  0  0  0  1  0  0  0  0  0  0
  190.2610  178.8910  145.5780 C   0  0  0  0  0  1  0  0  0  0  0  0
  189.6980  177.4660  145.5330 C   0  0  2  0  0  0  0  0  0  0  0  0
  188.3520  176.1600  143.9750 O   0  0  0  0  0  1  0  0  0  0  0  0
  189.3760  177.1110  144.0620 C   0  0  2  0  0  3  0  0  0  0  0  0
  190.5980  176.6730  143.2410 C   0  0  1  0  0  3  0  0  0  0  0  0
  190.2980  175.5750  142.4250 O   0  0  0  0  0  1  0  0  0  0  0  0
  191.1500  177.8200  142.4040 C   0  0  0  0  0  2  0  0  0  0  0  0
  191.8170  177.3410  141.2750 O   0  0  0  0  0  1  0  0  0  0  0  0
  190.7590  176.4650  146.0260 C   0  0  0  0  0  2  0  0  0  0  0  0
  191.9280  177.0980  146.4560 O   0  0  0  0  0  1  0  0  0  0  0  0
  1 13  1  0  0  0  0
  1 22  2  0  0  0  0
  2 16  1  0  0  0  0
  4 11  1  0  0  0  0
  5  4  2  0  0  0  0
  6 17  1  0  0  0  0
  6 11  2  0  0  0  0
  7  6  1  0  0  0  0
  8 19  1  0  0  0  0
  9  7  2  0  0  0  0
  9  5  1  0  0  0  0
 10 22  1  0  0  0  0
 10 20  1  0  0  0  0
 11 23  1  0  0  0  0
 12 14  1  6  0  0  0
 12 26  1  0  0  0  0
 15 17  1  6  0  0  0
 15 33  1  0  0  0  0
 15 24  1  0  0  0  0
 16 21  1  0  0  0  0
 18  2  1  0  0  0  0
 19 18  1  0  0  0  0
 19  3  1  1  0  0  0
 20 27  1  0  0  0  0
 21 37  1  1  0  0  0
 22 14  1  0  0  0  0
 23  8  1  1  0  0  0
 24 23  1  0  0  0  0
 24 13  2  0  0  0  0
 25 21  1  0  0  0  0
 26 25  1  0  0  0  0
 27 12  1  0  0  0  0
 28 32  1  0  0  0  0
 29 32  1  0  0  0  0
 29 34  1  1  0  0  0
 29 31  1  0  0  0  0
 30 33  1  0  0  0  0
 30 31  1  0  0  0  0
 33 28  1  6  0  0  0
 35 36  1  0  0  0  0
 35 34  1  0  0  0  0
 36 34  1  0  0  0  0
 37 40  1  0  0  0  0
 39 38  2  0  0  0  0
 39 41  1  0  0  0  0
 40 39  1  0  0  0  0
 42 41  1  1  0  0  0
 42 43  1  0  0  0  0
 43 44  1  0  0  0  0
 43 45  1  0  0  0  0
 47 46  1  1  0  0  0
 47 54  1  0  0  0  0
 47 42  1  0  0  0  0
 49 48  1  1  0  0  0
 49 47  1  0  0  0  0
 50 51  1  6  0  0  0
 50 49  1  0  0  0  0
 52 50  1  0  0  0  0
 53 52  1  0  0  0  0
 54 55  1  0  0  0  0
M  END
>  <MODEL>
2

>  <REMARK>
 VINA RESULT:      -5.9      2.859      7.195
  Name = 
  12 active torsions:
  status: ('A' for Active; 'I' for Inactive)
    1  A    between atoms: C_1  and  C_53
    2  A    between atoms: C_6  and  C_14
    3  A    between atoms: C_8  and  N_22
    4  A    between atoms: C_8  and  C_43
    5  A    between atoms: C_10  and  C_32
    6  A    between atoms: C_11  and  C_29
    7  A    between atoms: C_14  and  C_38
    8  A    between atoms: C_14  and  C_53
    9  A    between atoms: C_20  and  O_42
   10  A    between atoms: C_29  and  C_38
   11  A    between atoms: C_33  and  C_52
   12  A    between atoms: O_42  and  C_53
                            x       y       z     vdW  Elec       q    Type
                         _______ _______ _______ _____ _____    ______ ____

>  <TORSDO>
F 12

$$$$
=
 OpenBabel11052414483D

 55 60  0  0  1  0  0  0  0  0999 V2000
  187.2080  176.5670  135.9890 N   0  0  0  0  0  0  0  0  0  0  0  0
  188.0380  178.0060  140.4610 C   0  0  0  0  0  2  0  0  0  0  0  0
  190.8360  176.9690  141.0190 O   0  0  0  0  0  1  0  0  0  0  0  0
  193.1720  176.6980  136.7890 C   0  0  0  0  0  3  0  0  0  0  0  0
  194.3000  176.3060  136.0610 C   0  0  0  0  0  3  0  0  0  0  0  0
  191.8090  175.1390  135.5130 C   0  0  0  0  0  0  0  0  0  0  0  0
  192.9440  174.7660  134.7810 C   0  0  0  0  0  3  0  0  0  0  0  0
  190.8980  176.1050  138.8060 C   0  0  0  0  0  2  0  0  0  0  0  0
  194.1860  175.3420  135.0580 C   0  0  0  0  0  3  0  0  0  0  0  0
  184.8570  176.8090  135.5080 C   0  0  0  0  0  2  0  0  0  0  0  0
  191.9200  176.1280  136.5260 C   0  0  0  0  0  0  0  0  0  0  0  0
  185.1180  178.2300  138.0930 C   0  0  1  0  0  3  0  0  0  0  0  0
  188.4430  176.9050  136.6240 C   0  0  0  0  0  3  0  0  0  0  0  0
  186.0810  178.5210  136.9450 C   0  0  0  0  0  2  0  0  0  0  0  0
  189.4910  174.6090  136.2970 C   0  0  1  0  0  3  0  0  0  0  0  0
  186.7030  177.6870  140.7240 O   0  0  0  0  0  0  0  0  0  0  0  0
  190.4790  174.5400  135.1330 C   0  0  0  0  0  2  0  0  0  0  0  0
  188.7510  176.7930  139.8920 C   0  0  0  0  0  2  0  0  0  0  0  0
  190.2380  177.0830  139.7660 C   0  0  1  0  0  3  0  0  0  0  0  0
  183.8860  176.5550  136.6630 C   0  0  0  0  0  2  0  0  0  0  0  0
  186.1120  178.8950  141.1050 C   0  0  1  0  0  3  0  0  0  0  0  0
  186.1460  177.3070  136.0680 C   0  0  0  0  0  0  0  0  0  0  0  0
  190.7330  176.5630  137.3590 C   0  0  1  0  0  3  0  0  0  0  0  0
  189.4490  176.0410  136.7880 C   0  0  0  0  0  0  0  0  0  0  0  0
  184.7710  179.0750  140.4130 C   0  0  0  0  0  2  0  0  0  0  0  0
  184.9700  179.4690  138.9580 C   0  0  0  0  0  2  0  0  0  0  0  0
  183.7500  177.7960  137.5510 C   0  0  0  0  0  2  0  0  0  0  0  0
  188.2680  172.8740  134.9090 C   0  0  0  0  0  2  0  0  0  0  0  0
  186.4900  171.5710  135.8120 C   0  0  2  0  0  3  0  0  0  0  0  0
  187.6200  173.2440  137.2730 C   0  0  0  0  0  2  0  0  0  0  0  0
  186.2990  172.5480  136.9760 C   0  0  0  0  0  2  0  0  0  0  0  0
  186.9540  172.2940  134.6260 N   0  0  0  0  0  2  0  0  0  0  0  0
  188.1470  173.9260  136.0100 C   0  0  1  0  0  3  0  0  0  0  0  0
  185.1690  170.8860  135.5060 C   0  0  0  0  0  3  0  0  0  0  0  0
  184.1850  171.9100  134.9720 C   0  0  0  0  0  2  0  0  0  0  0  0
  184.0810  171.4390  136.4060 C   0  0  0  0  0  2  0  0  0  0  0  0
  185.9080  178.9260  142.6110 C   0  0  0  0  0  2  0  0  0  0  0  0
  185.9130  178.2220  145.3740 O   0  0  0  0  0  0  0  0  0  0  0  0
  186.8820  177.8210  144.6700 C   0  0  0  0  0  0  0  0  0  0  0  0
  186.9000  178.0790  143.2620 N   0  0  0  0  0  2  0  0  0  0  0  0
  187.9510  177.1250  145.2490 O   0  0  0  0  0  0  0  0  0  0  0  0
  189.2300  177.6940  145.5630 C   0  0  2  0  0  3  0  0  0  0  0  0
  190.2750  177.4540  144.4580 C   0  0  0  0  0  3  0  0  0  0  0  0
  189.9920  176.2620  143.7880 O   0  0  0  0  0  1  0  0  0  0  0  0
  190.2750  178.5000  143.5370 O   0  0  0  0  0  1  0  0  0  0  0  0
  189.2720  178.5410  147.9400 C   0  0  0  0  0  1  0  0  0  0  0  0
  189.6870  177.3870  147.0190 C   0  0  2  0  0  0  0  0  0  0  0  0
  191.8330  177.7820  145.9320 O   0  0  0  0  0  1  0  0  0  0  0  0
  191.2260  177.2430  147.0730 C   0  0  2  0  0  3  0  0  0  0  0  0
  191.7130  175.8080  147.3250 C   0  0  1  0  0  3  0  0  0  0  0  0
  192.1530  175.2040  146.1410 O   0  0  0  0  0  1  0  0  0  0  0  0
  192.8100  175.7670  148.3810 C   0  0  0  0  0  2  0  0  0  0  0  0
  192.9410  177.0040  149.0160 O   0  0  0  0  0  1  0  0  0  0  0  0
  189.0830  176.0660  147.5270 C   0  0  0  0  0  2  0  0  0  0  0  0
  188.1830  176.2610  148.5780 O   0  0  0  0  0  1  0  0  0  0  0  0
  1 22  2  0  0  0  0
  1 13  1  0  0  0  0
  2 16  1  0  0  0  0
  5  4  2  0  0  0  0
  6 11  2  0  0  0  0
  7  9  2  0  0  0  0
  7  6  1  0  0  0  0
  8 19  1  0  0  0  0
  9  5  1  0  0  0  0
 10 22  1  0  0  0  0
 10 20  1  0  0  0  0
 11  4  1  0  0  0  0
 11 23  1  0  0  0  0
 12 14  1  6  0  0  0
 12 26  1  0  0  0  0
 13 24  2  0  0  0  0
 15 17  1  6  0  0  0
 15 24  1  0  0  0  0
 16 21  1  0  0  0  0
 17  6  1  0  0  0  0
 18  2  1  0  0  0  0
 19 18  1  0  0  0  0
 19  3  1  1  0  0  0
 20 27  1  0  0  0  0
 21 37  1  1  0  0  0
 22 14  1  0  0  0  0
 23  8  1  1  0  0  0
 24 23  1  0  0  0  0
 25 21  1  0  0  0  0
 26 25  1  0  0  0  0
 27 12  1  0  0  0  0
 29 34  1  6  0  0  0
 29 31  1  0  0  0  0
 31 30  1  0  0  0  0
 32 28  1  0  0  0  0
 32 29  1  0  0  0  0
 33 28  1  6  0  0  0
 33 15  1  0  0  0  0
 33 30  1  0  0  0  0
 34 36  1  0  0  0  0
 35 34  1  0  0  0  0
 35 36  1  0  0  0  0
 37 40  1  0  0  0  0
 39 41  1  0  0  0  0
 39 38  2  0  0  0  0
 40 39  1  0  0  0  0
 41 42  1  0  0  0  0
 42 43  1  6  0  0  0
 42 47  1  0  0  0  0
 44 43  1  0  0  0  0
 45 43  1  0  0  0  0
 47 49  1  0  0  0  0
 47 54  1  0  0  0  0
 47 46  1  1  0  0  0
 49 48  1  6  0  0  0
 49 50  1  0  0  0  0
 50 51  1  6  0  0  0
 50 52  1  0  0  0  0
 52 53  1  0  0  0  0
 54 55  1  0  0  0  0
M  END
>  <MODEL>
3

>  <REMARK>
 VINA RESULT:      -5.5      3.864      8.706
  Name = 
  12 active torsions:
  status: ('A' for Active; 'I' for Inactive)
    1  A    between atoms: C_1  and  C_53
    2  A    between atoms: C_6  and  C_14
    3  A    between atoms: C_8  and  N_22
    4  A    between atoms: C_8  and  C_43
    5  A    between atoms: C_10  and  C_32
    6  A    between atoms: C_11  and  C_29
    7  A    between atoms: C_14  and  C_38
    8  A    between atoms: C_14  and  C_53
    9  A    between atoms: C_20  and  O_42
   10  A    between atoms: C_29  and  C_38
   11  A    between atoms: C_33  and  C_52
   12  A    between atoms: O_42  and  C_53
                            x       y       z     vdW  Elec       q    Type
                         _______ _______ _______ _____ _____    ______ ____

>  <TORSDO>
F 12

$$$$
=
 OpenBabel11052414483D

 55 60  0  0  1  0  0  0  0  0999 V2000
  187.4020  176.3520  135.7100 N   0  0  0  0  0  0  0  0  0  0  0  0
  188.1930  178.0400  140.1010 C   0  0  0  0  0  2  0  0  0  0  0  0
  191.0150  177.1020  140.7100 O   0  0  0  0  0  1  0  0  0  0  0  0
  193.3610  176.6700  136.4990 C   0  0  0  0  0  3  0  0  0  0  0  0
  194.4980  176.2680  135.7920 C   0  0  0  0  0  3  0  0  0  0  0  0
  192.0370  175.0140  135.3060 C   0  0  0  0  0  0  0  0  0  0  0  0
  193.1820  174.6310  134.5950 C   0  0  0  0  0  3  0  0  0  0  0  0
  191.1000  176.1260  138.5450 C   0  0  0  0  0  2  0  0  0  0  0  0
  194.4090  175.2510  134.8410 C   0  0  0  0  0  3  0  0  0  0  0  0
  185.0460  176.5110  135.2170 C   0  0  0  0  0  2  0  0  0  0  0  0
  192.1230  176.0560  136.2660 C   0  0  0  0  0  0  0  0  0  0  0  0
  185.2710  178.0700  137.7250 C   0  0  1  0  0  3  0  0  0  0  0  0
  188.6280  176.7520  136.3250 C   0  0  0  0  0  3  0  0  0  0  0  0
  186.2270  178.3250  136.5640 C   0  0  0  0  0  2  0  0  0  0  0  0
  189.7320  174.4680  136.1180 C   0  0  1  0  0  3  0  0  0  0  0  0
  186.8660  177.7030  140.3800 O   0  0  0  0  0  0  0  0  0  0  0  0
  190.7220  174.3640  134.9580 C   0  0  0  0  0  2  0  0  0  0  0  0
  188.9360  176.8170  139.5960 C   0  0  0  0  0  2  0  0  0  0  0  0
  190.4150  177.1370  139.4530 C   0  0  1  0  0  3  0  0  0  0  0  0
  184.0810  176.2940  136.3850 C   0  0  0  0  0  2  0  0  0  0  0  0
  186.2460  178.9140  140.6980 C   0  0  1  0  0  3  0  0  0  0  0  0
  186.3220  177.0690  135.7500 C   0  0  0  0  0  0  0  0  0  0  0  0
  190.9250  176.5050  137.0770 C   0  0  1  0  0  3  0  0  0  0  0  0
  189.6550  175.9220  136.5340 C   0  0  0  0  0  0  0  0  0  0  0  0
  184.9010  179.0250  139.9990 C   0  0  0  0  0  2  0  0  0  0  0  0
  185.0910  179.3480  138.5250 C   0  0  0  0  0  2  0  0  0  0  0  0
  183.9140  177.5750  137.2080 C   0  0  0  0  0  2  0  0  0  0  0  0
  188.6060  172.4540  135.0660 C   0  0  0  0  0  2  0  0  0  0  0  0
  186.7160  171.4080  136.0690 C   0  0  2  0  0  3  0  0  0  0  0  0
  187.7400  173.3800  137.1970 C   0  0  0  0  0  2  0  0  0  0  0  0
  186.4370  172.6350  136.9410 C   0  0  0  0  0  2  0  0  0  0  0  0
  187.3110  171.8250  134.7970 N   0  0  0  0  0  2  0  0  0  0  0  0
  188.4050  173.7390  135.8670 C   0  0  1  0  0  3  0  0  0  0  0  0
  185.4140  170.6720  135.8020 C   0  0  0  0  0  3  0  0  0  0  0  0
  184.5640  171.4850  134.8440 C   0  0  0  0  0  2  0  0  0  0  0  0
  184.2450  171.4860  136.3230 C   0  0  0  0  0  2  0  0  0  0  0  0
  186.0390  179.0180  142.2020 C   0  0  0  0  0  2  0  0  0  0  0  0
  186.0840  177.4470  144.5800 O   0  0  0  0  0  0  0  0  0  0  0  0
  187.1930  177.8480  144.1270 C   0  0  0  0  0  0  0  0  0  0  0  0
  187.2420  178.5790  142.8970 N   0  0  0  0  0  2  0  0  0  0  0  0
  188.3860  177.5920  144.8160 O   0  0  0  0  0  0  0  0  0  0  0  0
  189.5850  177.0770  144.2200 C   0  0  2  0  0  3  0  0  0  0  0  0
  189.4160  175.6410  143.6890 C   0  0  0  0  0  3  0  0  0  0  0  0
  188.1590  175.4990  143.1000 O   0  0  0  0  0  1  0  0  0  0  0  0
  190.3950  175.3410  142.7440 O   0  0  0  0  0  1  0  0  0  0  0  0
  191.7550  176.1050  145.0670 C   0  0  0  0  0  1  0  0  0  0  0  0
  190.8530  177.3440  145.0850 C   0  0  2  0  0  0  0  0  0  0  0  0
  191.5360  177.5160  147.4180 O   0  0  0  0  0  1  0  0  0  0  0  0
  190.4460  177.6360  146.5480 C   0  0  2  0  0  3  0  0  0  0  0  0
  189.2560  176.8020  147.0460 C   0  0  1  0  0  3  0  0  0  0  0  0
  189.6840  175.6970  147.7920 O   0  0  0  0  0  1  0  0  0  0  0  0
  188.2820  177.6460  147.8590 C   0  0  0  0  0  2  0  0  0  0  0  0
  188.9510  178.3700  148.8480 O   0  0  0  0  0  1  0  0  0  0  0  0
  191.6300  178.5690  144.5700 C   0  0  0  0  0  2  0  0  0  0  0  0
  190.8070  179.4790  143.9020 O   0  0  0  0  0  1  0  0  0  0  0  0
  1 22  2  0  0  0  0
  1 13  1  0  0  0  0
  2 16  1  0  0  0  0
  5  4  2  0  0  0  0
  6 11  2  0  0  0  0
  7  9  2  0  0  0  0
  7  6  1  0  0  0  0
  8 19  1  0  0  0  0
  9  5  1  0  0  0  0
 10 22  1  0  0  0  0
 10 20  1  0  0  0  0
 11  4  1  0  0  0  0
 11 23  1  0  0  0  0
 12 14  1  6  0  0  0
 12 26  1  0  0  0  0
 13 24  2  0  0  0  0
 15 17  1  6  0  0  0
 15 24  1  0  0  0  0
 16 21  1  0  0  0  0
 17  6  1  0  0  0  0
 18  2  1  0  0  0  0
 19 18  1  0  0  0  0
 19  3  1  1  0  0  0
 20 27  1  0  0  0  0
 21 37  1  1  0  0  0
 22 14  1  0  0  0  0
 23  8  1  1  0  0  0
 24 23  1  0  0  0  0
 25 21  1  0  0  0  0
 26 25  1  0  0  0  0
 27 12  1  0  0  0  0
 29 34  1  6  0  0  0
 29 31  1  0  0  0  0
 31 30  1  0  0  0  0
 32 28  1  0  0  0  0
 32 29  1  0  0  0  0
 33 28  1  1  0  0  0
 33 15  1  0  0  0  0
 33 30  1  0  0  0  0
 34 36  1  0  0  0  0
 35 34  1  0  0  0  0
 35 36  1  0  0  0  0
 37 40  1  0  0  0  0
 39 38  2  0  0  0  0
 39 41  1  0  0  0  0
 40 39  1  0  0  0  0
 42 43  1  1  0  0  0
 42 41  1  0  0  0  0
 42 47  1  0  0  0  0
 44 43  1  0  0  0  0
 45 43  1  0  0  0  0
 47 46  1  6  0  0  0
 47 49  1  0  0  0  0
 49 50  1  0  0  0  0
 49 48  1  1  0  0  0
 50 51  1  1  0  0  0
 50 52  1  0  0  0  0
 52 53  1  0  0  0  0
 54 47  1  0  0  0  0
 55 54  1  0  0  0  0
M  END
>  <MODEL>
4

>  <REMARK>
 VINA RESULT:      -4.5      3.977      8.681
  Name = 
  12 active torsions:
  status: ('A' for Active; 'I' for Inactive)
    1  A    between atoms: C_1  and  C_53
    2  A    between atoms: C_6  and  C_14
    3  A    between atoms: C_8  and  N_22
    4  A    between atoms: C_8  and  C_43
    5  A    between atoms: C_10  and  C_32
    6  A    between atoms: C_11  and  C_29
    7  A    between atoms: C_14  and  C_38
    8  A    between atoms: C_14  and  C_53
    9  A    between atoms: C_20  and  O_42
   10  A    between atoms: C_29  and  C_38
   11  A    between atoms: C_33  and  C_52
   12  A    between atoms: O_42  and  C_53
                            x       y       z     vdW  Elec       q    Type
                         _______ _______ _______ _____ _____    ______ ____

>  <TORSDO>
F 12

$$$$
=
 OpenBabel11052414483D

 55 60  0  0  1  0  0  0  0  0999 V2000
  186.6830  178.6200  138.4230 N   0  0  0  0  0  0  0  0  0  0  0  0
  187.4590  174.6340  135.9190 C   0  0  0  0  0  2  0  0  0  0  0  0
  184.6720  173.8030  135.0510 O   0  0  0  0  0  1  0  0  0  0  0  0
  181.9630  177.8040  134.7760 C   0  0  0  0  0  3  0  0  0  0  0  0
  180.7110  178.3990  134.5940 C   0  0  0  0  0  3  0  0  0  0  0  0
  182.0410  178.6710  137.0480 C   0  0  0  0  0  0  0  0  0  0  0  0
  180.7920  179.2730  136.8470 C   0  0  0  0  0  3  0  0  0  0  0  0
  183.8150  175.7310  136.1430 C   0  0  0  0  0  2  0  0  0  0  0  0
  180.1260  179.1320  135.6270 C   0  0  0  0  0  3  0  0  0  0  0  0
  188.6780  179.1750  139.6590 C   0  0  0  0  0  2  0  0  0  0  0  0
  182.6430  177.9330  135.9950 C   0  0  0  0  0  0  0  0  0  0  0  0
  189.6290  177.0200  137.8640 C   0  0  1  0  0  3  0  0  0  0  0  0
  185.9460  178.0740  137.3270 C   0  0  0  0  0  3  0  0  0  0  0  0
  188.8230  178.1920  137.3120 C   0  0  0  0  0  2  0  0  0  0  0  0
  183.7770  177.8080  138.6330 C   0  0  1  0  0  3  0  0  0  0  0  0
  188.4230  174.3170  136.8800 O   0  0  0  0  0  0  0  0  0  0  0  0
  182.7510  178.9070  138.3570 C   0  0  0  0  0  2  0  0  0  0  0  0
  186.1230  174.8760  136.5970 C   0  0  0  0  0  2  0  0  0  0  0  0
  185.0380  175.0520  135.5460 C   0  0  1  0  0  3  0  0  0  0  0  0
  189.5120  178.0050  140.1850 C   0  0  0  0  0  2  0  0  0  0  0  0
  189.6280  174.2550  136.1740 C   0  0  1  0  0  3  0  0  0  0  0  0
  187.9730  178.7400  138.4190 C   0  0  0  0  0  0  0  0  0  0  0  0
  183.9840  177.2490  136.1560 C   0  0  1  0  0  3  0  0  0  0  0  0
  184.6690  177.6880  137.4150 C   0  0  0  0  0  0  0  0  0  0  0  0
  190.7270  174.9860  136.9280 C   0  0  0  0  0  2  0  0  0  0  0  0
  190.5600  176.4910  136.7880 C   0  0  0  0  0  2  0  0  0  0  0  0
  190.4370  177.4540  139.0940 C   0  0  0  0  0  2  0  0  0  0  0  0
  184.7950  179.3860  140.3360 C   0  0  0  0  0  2  0  0  0  0  0  0
  184.6120  178.9930  142.6780 C   0  0  2  0  0  3  0  0  0  0  0  0
  183.5670  177.3730  141.0990 C   0  0  0  0  0  2  0  0  0  0  0  0
  184.2470  177.5230  142.4530 C   0  0  0  0  0  2  0  0  0  0  0  0
  185.5070  179.4530  141.6150 N   0  0  0  0  0  2  0  0  0  0  0  0
  184.4670  177.9330  139.9970 C   0  0  1  0  0  3  0  0  0  0  0  0
  185.3030  179.1410  144.0230 C   0  0  0  0  0  3  0  0  0  0  0  0
  185.2890  177.8070  144.7440 C   0  0  0  0  0  2  0  0  0  0  0  0
  184.3120  178.8900  145.1430 C   0  0  0  0  0  2  0  0  0  0  0  0
  190.0400  172.8060  135.9680 C   0  0  0  0  0  2  0  0  0  0  0  0
  192.7300  172.2370  136.7220 O   0  0  0  0  0  0  0  0  0  0  0  0
  192.5130  172.5170  135.5090 C   0  0  0  0  0  0  0  0  0  0  0  0
  191.1740  172.7400  135.0540 N   0  0  0  0  0  2  0  0  0  0  0  0
  193.5690  172.6180  134.5950 O   0  0  0  0  0  0  0  0  0  0  0  0
  194.9620  172.5890  134.9400 C   0  0  2  0  0  3  0  0  0  0  0  0
  195.3840  171.2590  135.5920 C   0  0  0  0  0  3  0  0  0  0  0  0
  194.4330  170.2740  135.3200 O   0  0  0  0  0  1  0  0  0  0  0  0
  196.6220  170.8390  135.1070 O   0  0  0  0  0  1  0  0  0  0  0  0
  196.5850  174.5190  134.8680 C   0  0  0  0  0  1  0  0  0  0  0  0
  195.4340  173.8870  135.6580 C   0  0  2  0  0  0  0  0  0  0  0  0
  194.9550  173.7980  138.0470 O   0  0  0  0  0  1  0  0  0  0  0  0
  195.9400  173.5520  137.0820 C   0  0  2  0  0  3  0  0  0  0  0  0
  197.2580  174.2460  137.4580 C   0  0  1  0  0  3  0  0  0  0  0  0
  197.1510  174.9130  138.6840 O   0  0  0  0  0  1  0  0  0  0  0  0
  198.4190  173.2600  137.4890 C   0  0  0  0  0  2  0  0  0  0  0  0
  197.9590  171.9480  137.6190 O   0  0  0  0  0  1  0  0  0  0  0  0
  194.2800  174.8950  135.8050 C   0  0  0  0  0  2  0  0  0  0  0  0
  194.7300  176.1690  136.1640 O   0  0  0  0  0  1  0  0  0  0  0  0
  2 18  1  0  0  0  0
  2 16  1  0  0  0  0
  4 11  1  0  0  0  0
  5  4  2  0  0  0  0
  5  9  1  0  0  0  0
  6 17  1  0  0  0  0
  7  6  1  0  0  0  0
  9  7  2  0  0  0  0
 10 20  1  0  0  0  0
 11 23  1  0  0  0  0
 11  6  2  0  0  0  0
 12 26  1  6  0  0  0
 12 27  1  0  0  0  0
 13 24  2  0  0  0  0
 13  1  1  0  0  0  0
 14 12  1  0  0  0  0
 14 22  1  0  0  0  0
 15 17  1  6  0  0  0
 15 33  1  0  0  0  0
 19  3  1  1  0  0  0
 19  8  1  0  0  0  0
 19 18  1  0  0  0  0
 21 37  1  1  0  0  0
 21 16  1  0  0  0  0
 21 25  1  0  0  0  0
 22  1  2  0  0  0  0
 22 10  1  0  0  0  0
 23  8  1  1  0  0  0
 23 24  1  0  0  0  0
 24 15  1  0  0  0  0
 26 25  1  0  0  0  0
 27 20  1  0  0  0  0
 28 32  1  0  0  0  0
 29 34  1  1  0  0  0
 30 31  1  0  0  0  0
 31 29  1  0  0  0  0
 32 29  1  0  0  0  0
 33 28  1  1  0  0  0
 33 30  1  0  0  0  0
 34 35  1  0  0  0  0
 34 36  1  0  0  0  0
 35 36  1  0  0  0  0
 39 38  2  0  0  0  0
 40 39  1  0  0  0  0
 40 37  1  0  0  0  0
 41 39  1  0  0  0  0
 42 41  1  1  0  0  0
 42 43  1  0  0  0  0
 42 47  1  0  0  0  0
 44 43  1  0  0  0  0
 45 43  1  0  0  0  0
 47 46  1  6  0  0  0
 47 54  1  0  0  0  0
 47 49  1  0  0  0  0
 49 50  1  0  0  0  0
 49 48  1  1  0  0  0
 50 52  1  0  0  0  0
 50 51  1  1  0  0  0
 52 53  1  0  0  0  0
 54 55  1  0  0  0  0
M  END
>  <MODEL>
5

>  <REMARK>
 VINA RESULT:      -3.2      4.353      8.144
  Name = 
  12 active torsions:
  status: ('A' for Active; 'I' for Inactive)
    1  A    between atoms: C_1  and  C_53
    2  A    between atoms: C_6  and  C_14
    3  A    between atoms: C_8  and  N_22
    4  A    between atoms: C_8  and  C_43
    5  A    between atoms: C_10  and  C_32
    6  A    between atoms: C_11  and  C_29
    7  A    between atoms: C_14  and  C_38
    8  A    between atoms: C_14  and  C_53
    9  A    between atoms: C_20  and  O_42
   10  A    between atoms: C_29  and  C_38
   11  A    between atoms: C_33  and  C_52
   12  A    between atoms: O_42  and  C_53
                            x       y       z     vdW  Elec       q    Type
                         _______ _______ _______ _____ _____    ______ ____

>  <TORSDO>
F 12

$$$$
