=
 OpenBabel11052412253D

 30 37  0  0  1  0  0  0  0  0999 V2000
  188.9130  178.1610  141.9880 C   0  0  2  0  0  3  0  0  0  0  0  0
  191.0720  177.0090  142.7350 C   0  0  1  0  0  3  0  0  0  0  0  0
  187.7680  177.4350  146.2590 C   0  0  0  0  0  2  0  0  0  0  0  0
  187.3860  178.3480  142.1150 C   0  0  1  0  0  3  0  0  0  0  0  0
  189.3270  177.6270  140.2830 S   0  0  0  0  0  0  0  0  0  0  0  0
  185.0450  177.3740  139.0140 C   0  0  0  0  0  2  0  0  0  0  0  0
  184.5330  179.0000  142.9550 C   0  0  2  0  0  0  0  0  0  0  0  0
  185.3610  177.7930  140.4620 C   0  0  1  0  0  3  0  0  0  0  0  0
  187.4220  177.5670  138.3630 C   0  0  0  0  0  2  0  0  0  0  0  0
  185.2370  177.7750  143.4460 N   0  0  1  0  0  0  0  0  0  0  0  0
  186.4550  177.2290  145.5130 C   0  0  1  0  0  3  0  0  0  0  0  0
  187.8180  178.3630  139.5990 C   0  0  1  0  0  3  0  0  0  0  0  0
  186.7840  178.3070  140.7160 C   0  0  2  0  0  0  0  0  0  0  0  0
  192.0040  178.2190  142.9220 C   0  0  0  0  0  2  0  0  0  0  0  0
  183.9130  180.0170  144.3430 S   0  0  0  0  0  0  0  0  0  0  0  0
  183.1470  178.6120  142.4690 C   0  0  0  0  0  2  0  0  0  0  0  0
  185.6910  177.2670  136.6240 C   0  0  0  0  0  1  0  0  0  0  0  0
  191.6760  175.6150  143.6690 Cl  0  0  0  0  0  0  0  0  0  0  0  0
  188.9500  176.9000  145.4670 C   0  0  0  0  0  2  0  0  0  0  0  0
  191.4490  179.2900  143.8620 C   0  0  0  0  0  2  0  0  0  0  0  0
  186.0050  177.9100  137.9580 C   0  0  1  0  0  3  0  0  0  0  0  0
  189.5950  177.2960  143.0700 C   0  0  1  0  0  3  0  0  0  0  0  0
  186.6540  177.4320  143.0990 C   0  0  2  0  0  3  0  0  0  0  0  0
  185.3080  177.4900  146.4710 C   0  0  0  0  0  1  0  0  0  0  0  0
  186.3590  178.1720  144.3210 C   0  0  1  0  0  3  0  0  0  0  0  0
  182.4130  179.3840  143.5420 C   0  0  0  0  0  2  0  0  0  0  0  0
  185.2190  179.9150  141.9150 C   0  0  0  0  0  2  0  0  0  0  0  0
  190.6700  178.6500  145.0000 C   0  0  0  0  0  2  0  0  0  0  0  0
  189.4260  177.9370  144.4640 C   0  0  2  0  0  3  0  0  0  0  0  0
  185.6260  179.2940  140.5590 C   0  0  2  0  0  3  0  0  0  0  0  0
  1  5  1  6  0  0  0
  1  4  1  0  0  0  0
  1 22  1  0  0  0  0
  2 14  1  0  0  0  0
  2 22  1  0  0  0  0
  2 18  1  1  0  0  0
  4 23  1  0  0  0  0
  6  8  1  0  0  0  0
  7 10  1  0  0  0  0
  7 15  1  0  0  0  0
  8 30  1  0  0  0  0
  8 13  1  0  0  0  0
  9 12  1  0  0  0  0
 10 25  1  0  0  0  0
 11  3  1  0  0  0  0
 11 24  1  0  0  0  0
 12  5  1  0  0  0  0
 12 13  1  0  0  0  0
 13  4  1  0  0  0  0
 14 20  1  0  0  0  0
 16  7  1  0  0  0  0
 16 26  1  0  0  0  0
 17 21  1  0  0  0  0
 19  3  1  0  0  0  0
 20 28  1  0  0  0  0
 21  9  1  0  0  0  0
 21  6  1  0  0  0  0
 22 29  1  0  0  0  0
 23 10  1  0  0  0  0
 23 25  1  0  0  0  0
 25 11  1  0  0  0  0
 26 15  1  0  0  0  0
 27  7  1  0  0  0  0
 29 28  1  0  0  0  0
 29 19  1  0  0  0  0
 30 13  1  0  0  0  0
 30 27  1  0  0  0  0
M  END
>  <MODEL>
1

>  <REMARK>
 VINA RESULT:      -6.5      0.000      0.000
  Name = 
  0 active torsions:
  status: ('A' for Active; 'I' for Inactive)
                            x       y       z     vdW  Elec       q    Type
                         _______ _______ _______ _____ _____    ______ ____

>  <TORSDO>
F 0

$$$$
=
 OpenBabel11052412253D

 30 37  0  0  1  0  0  0  0  0999 V2000
  185.1220  178.5620  139.5180 C   0  0  2  0  0  3  0  0  0  0  0  0
  182.6860  178.2090  140.2170 C   0  0  1  0  0  3  0  0  0  0  0  0
  183.7110  176.5130  135.7910 C   0  0  0  0  0  2  0  0  0  0  0  0
  186.3620  178.1040  138.7210 C   0  0  1  0  0  3  0  0  0  0  0  0
  185.5290  178.6270  141.3040 S   0  0  0  0  0  0  0  0  0  0  0  0
  189.6590  177.0130  140.7180 C   0  0  0  0  0  2  0  0  0  0  0  0
  188.4420  177.3860  136.6170 C   0  0  2  0  0  0  0  0  0  0  0  0
  188.7540  177.1880  139.4840 C   0  0  1  0  0  3  0  0  0  0  0  0
  188.0740  178.2590  142.1470 C   0  0  0  0  0  2  0  0  0  0  0  0
  187.3240  176.4570  136.9670 N   0  0  1  0  0  0  0  0  0  0  0  0
  185.1300  175.9830  135.9560 C   0  0  1  0  0  3  0  0  0  0  0  0
  187.2980  178.8480  140.9770 C   0  0  1  0  0  3  0  0  0  0  0  0
  187.5670  178.1450  139.6530 C   0  0  2  0  0  0  0  0  0  0  0  0
  182.1020  179.6120  139.9750 C   0  0  0  0  0  2  0  0  0  0  0  0
  188.4810  177.7410  134.8230 S   0  0  0  0  0  0  0  0  0  0  0  0
  189.7460  176.6070  136.6070 C   0  0  0  0  0  2  0  0  0  0  0  0
  190.3260  177.7040  143.0030 C   0  0  0  0  0  1  0  0  0  0  0  0
  181.3830  176.9920  140.2240 Cl  0  0  0  0  0  0  0  0  0  0  0  0
  183.0150  176.6730  137.1330 C   0  0  0  0  0  2  0  0  0  0  0  0
  182.3290  180.1420  138.5580 C   0  0  0  0  0  2  0  0  0  0  0  0
  189.5320  178.1020  141.7770 C   0  0  1  0  0  3  0  0  0  0  0  0
  183.8020  177.8140  139.2300 C   0  0  1  0  0  3  0  0  0  0  0  0
  186.2500  176.7810  137.9610 C   0  0  2  0  0  3  0  0  0  0  0  0
  185.6480  175.5540  134.5970 C   0  0  0  0  0  1  0  0  0  0  0  0
  186.0400  177.0540  136.5430 C   0  0  1  0  0  3  0  0  0  0  0  0
  189.9830  176.7700  135.1220 C   0  0  0  0  0  2  0  0  0  0  0  0
  188.6220  178.7030  137.4050 C   0  0  0  0  0  2  0  0  0  0  0  0
  182.2400  179.0120  137.5440 C   0  0  0  0  0  2  0  0  0  0  0  0
  183.3770  178.0090  137.7590 C   0  0  2  0  0  3  0  0  0  0  0  0
  188.8350  178.6100  138.9340 C   0  0  2  0  0  3  0  0  0  0  0  0
  1  5  1  1  0  0  0
  2 18  1  6  0  0  0
  3 11  1  0  0  0  0
  3 19  1  0  0  0  0
  4  1  1  0  0  0  0
  4 13  1  0  0  0  0
  6 21  1  0  0  0  0
  7 10  1  0  0  0  0
  7 27  1  0  0  0  0
  8 13  1  0  0  0  0
  8  6  1  0  0  0  0
 10 23  1  0  0  0  0
 11 25  1  0  0  0  0
 12  5  1  0  0  0  0
 12  9  1  0  0  0  0
 13 12  1  0  0  0  0
 14  2  1  0  0  0  0
 15 26  1  0  0  0  0
 15  7  1  0  0  0  0
 16  7  1  0  0  0  0
 19 29  1  0  0  0  0
 20 14  1  0  0  0  0
 21  9  1  0  0  0  0
 21 17  1  0  0  0  0
 22  1  1  0  0  0  0
 22  2  1  0  0  0  0
 23  4  1  0  0  0  0
 24 11  1  0  0  0  0
 25 10  1  0  0  0  0
 25 23  1  0  0  0  0
 26 16  1  0  0  0  0
 27 30  1  0  0  0  0
 28 29  1  0  0  0  0
 28 20  1  0  0  0  0
 29 22  1  0  0  0  0
 30  8  1  0  0  0  0
 30 13  1  0  0  0  0
M  END
>  <MODEL>
2

>  <REMARK>
 VINA RESULT:      -6.4      3.364      7.995
  Name = 
  0 active torsions:
  status: ('A' for Active; 'I' for Inactive)
                            x       y       z     vdW  Elec       q    Type
                         _______ _______ _______ _____ _____    ______ ____

>  <TORSDO>
F 0

$$$$
=
 OpenBabel11052412253D

 30 37  0  0  1  0  0  0  0  0999 V2000
  185.8920  175.4400  136.2300 C   0  0  2  0  0  3  0  0  0  0  0  0
  188.2450  176.1080  136.9800 C   0  0  1  0  0  3  0  0  0  0  0  0
  184.7490  178.9580  138.7600 C   0  0  0  0  0  2  0  0  0  0  0  0
  184.3740  175.3640  136.5040 C   0  0  1  0  0  3  0  0  0  0  0  0
  186.5540  173.7510  135.9660 S   0  0  0  0  0  0  0  0  0  0  0  0
  182.6370  171.7690  136.8200 C   0  0  0  0  0  2  0  0  0  0  0  0
  181.4100  175.8810  136.9670 C   0  0  2  0  0  0  0  0  0  0  0  0
  182.7190  173.3040  136.9040 C   0  0  1  0  0  3  0  0  0  0  0  0
  184.8810  171.6320  135.7940 C   0  0  0  0  0  2  0  0  0  0  0  0
  182.4170  176.0400  138.0620 N   0  0  1  0  0  0  0  0  0  0  0  0
  183.6090  177.9760  139.0040 C   0  0  1  0  0  3  0  0  0  0  0  0
  184.9410  173.1120  135.4430 C   0  0  1  0  0  3  0  0  0  0  0  0
  183.9020  173.9530  136.1740 C   0  0  2  0  0  0  0  0  0  0  0  0
  188.7560  176.8460  135.7310 C   0  0  0  0  0  2  0  0  0  0  0  0
  180.4250  177.4050  136.7370 S   0  0  0  0  0  0  0  0  0  0  0  0
  180.2390  175.0660  137.4890 C   0  0  0  0  0  2  0  0  0  0  0  0
  183.4350  169.6280  135.8600 C   0  0  0  0  0  1  0  0  0  0  0  0
  189.1800  176.6040  138.4150 Cl  0  0  0  0  0  0  0  0  0  0  0  0
  186.0850  178.2420  138.6400 C   0  0  0  0  0  2  0  0  0  0  0  0
  187.8460  177.9850  135.2680 C   0  0  0  0  0  2  0  0  0  0  0  0
  183.4560  171.1330  135.7020 C   0  0  1  0  0  3  0  0  0  0  0  0
  186.7320  176.2660  137.2280 C   0  0  1  0  0  3  0  0  0  0  0  0
  183.8900  175.8420  137.8740 C   0  0  2  0  0  3  0  0  0  0  0  0
  182.3780  178.7580  139.4230 C   0  0  0  0  0  1  0  0  0  0  0  0
  183.3090  177.1740  137.7450 C   0  0  1  0  0  3  0  0  0  0  0  0
  179.2400  176.1970  137.3880 C   0  0  0  0  0  2  0  0  0  0  0  0
  181.8530  175.3420  135.5880 C   0  0  0  0  0  2  0  0  0  0  0  0
  187.2250  178.6920  136.4620 C   0  0  0  0  0  2  0  0  0  0  0  0
  186.2900  177.7440  137.2190 C   0  0  2  0  0  3  0  0  0  0  0  0
  182.5140  173.9450  135.5330 C   0  0  2  0  0  3  0  0  0  0  0  0
  1  5  1  1  0  0  0
  1  4  1  0  0  0  0
  1 22  1  0  0  0  0
  2 22  1  0  0  0  0
  2 18  1  1  0  0  0
  3 11  1  0  0  0  0
  4 23  1  0  0  0  0
  6  8  1  0  0  0  0
  7 16  1  0  0  0  0
  7 10  1  0  0  0  0
 11 24  1  0  0  0  0
 12  9  1  0  0  0  0
 12  5  1  0  0  0  0
 12 13  1  0  0  0  0
 13  4  1  0  0  0  0
 13  8  1  0  0  0  0
 14  2  1  0  0  0  0
 15  7  1  0  0  0  0
 15 26  1  0  0  0  0
 19  3  1  0  0  0  0
 20 14  1  0  0  0  0
 20 28  1  0  0  0  0
 21  9  1  0  0  0  0
 21 17  1  0  0  0  0
 21  6  1  0  0  0  0
 23 10  1  0  0  0  0
 25 23  1  0  0  0  0
 25 10  1  0  0  0  0
 25 11  1  0  0  0  0
 26 16  1  0  0  0  0
 27  7  1  0  0  0  0
 28 29  1  0  0  0  0
 29 22  1  0  0  0  0
 29 19  1  0  0  0  0
 30 27  1  0  0  0  0
 30 13  1  0  0  0  0
 30  8  1  0  0  0  0
M  END
>  <MODEL>
3

>  <REMARK>
 VINA RESULT:      -5.5      5.400      7.419
  Name = 
  0 active torsions:
  status: ('A' for Active; 'I' for Inactive)
                            x       y       z     vdW  Elec       q    Type
                         _______ _______ _______ _____ _____    ______ ____

>  <TORSDO>
F 0

$$$$
=
 OpenBabel11052412253D

 30 37  0  0  1  0  0  0  0  0999 V2000
  182.7310  176.2830  138.6520 C   0  0  2  0  0  3  0  0  0  0  0  0
  182.1490  178.6930  139.2880 C   0  0  1  0  0  3  0  0  0  0  0  0
  186.6730  178.1520  137.6290 C   0  0  0  0  0  2  0  0  0  0  0  0
  183.5240  175.2870  137.7800 C   0  0  1  0  0  3  0  0  0  0  0  0
  180.9330  176.0070  138.4220 S   0  0  0  0  0  0  0  0  0  0  0  0
  181.5250  172.8650  135.2930 C   0  0  0  0  0  2  0  0  0  0  0  0
  185.6140  173.5440  136.4150 C   0  0  2  0  0  0  0  0  0  0  0  0
  182.7670  173.5340  135.9090 C   0  0  1  0  0  3  0  0  0  0  0  0
  180.0430  173.8970  136.9810 C   0  0  0  0  0  2  0  0  0  0  0  0
  185.3870  174.9650  136.0080 N   0  0  1  0  0  0  0  0  0  0  0  0
  186.5090  177.0870  136.5510 C   0  0  1  0  0  3  0  0  0  0  0  0
  181.1800  174.2840  137.9160 C   0  0  1  0  0  3  0  0  0  0  0  0
  182.5530  174.2360  137.2570 C   0  0  2  0  0  0  0  0  0  0  0  0
  182.2830  178.6350  140.8200 C   0  0  0  0  0  2  0  0  0  0  0  0
  187.3660  173.2420  136.8450 S   0  0  0  0  0  0  0  0  0  0  0  0
  185.6500  172.6730  135.1700 C   0  0  0  0  0  2  0  0  0  0  0  0
  179.1660  172.1310  135.4890 C   0  0  0  0  0  1  0  0  0  0  0  0
  182.2960  180.3750  138.7190 Cl  0  0  0  0  0  0  0  0  0  0  0  0
  185.3460  178.8110  137.9680 C   0  0  0  0  0  2  0  0  0  0  0  0
  183.6370  178.1170  141.3050 C   0  0  0  0  0  2  0  0  0  0  0  0
  180.3770  172.6080  136.2620 C   0  0  1  0  0  3  0  0  0  0  0  0
  183.1300  177.7700  138.5370 C   0  0  1  0  0  3  0  0  0  0  0  0
  184.4040  175.8770  136.6760 C   0  0  2  0  0  3  0  0  0  0  0  0
  187.8840  176.6980  136.0410 C   0  0  0  0  0  1  0  0  0  0  0  0
  185.7980  175.8610  137.1080 C   0  0  1  0  0  3  0  0  0  0  0  0
  187.1060  172.2910  135.3230 C   0  0  0  0  0  2  0  0  0  0  0  0
  184.7040  172.8960  137.4830 C   0  0  0  0  0  2  0  0  0  0  0  0
  184.7510  178.5900  140.3850 C   0  0  0  0  0  2  0  0  0  0  0  0
  184.5900  177.9790  138.9900 C   0  0  2  0  0  3  0  0  0  0  0  0
  183.1840  172.8430  137.2060 C   0  0  2  0  0  3  0  0  0  0  0  0
  1  5  1  6  0  0  0
  2 18  1  6  0  0  0
  2 14  1  0  0  0  0
  3 19  1  0  0  0  0
  4  1  1  0  0  0  0
  6  8  1  0  0  0  0
  6 21  1  0  0  0  0
  7 15  1  0  0  0  0
  7 27  1  0  0  0  0
  8 30  1  0  0  0  0
  8 13  1  0  0  0  0
  9 12  1  0  0  0  0
 10  7  1  0  0  0  0
 10 23  1  0  0  0  0
 10 25  1  0  0  0  0
 11 25  1  0  0  0  0
 11  3  1  0  0  0  0
 12  5  1  0  0  0  0
 13  4  1  0  0  0  0
 13 12  1  0  0  0  0
 14 20  1  0  0  0  0
 16 26  1  0  0  0  0
 16  7  1  0  0  0  0
 17 21  1  0  0  0  0
 19 29  1  0  0  0  0
 21  9  1  0  0  0  0
 22  1  1  0  0  0  0
 22 29  1  0  0  0  0
 22  2  1  0  0  0  0
 23 25  1  0  0  0  0
 23  4  1  0  0  0  0
 24 11  1  0  0  0  0
 26 15  1  0  0  0  0
 28 20  1  0  0  0  0
 29 28  1  0  0  0  0
 30 13  1  0  0  0  0
 30 27  1  0  0  0  0
M  END
>  <MODEL>
4

>  <REMARK>
 VINA RESULT:      -5.4      5.224      8.588
  Name = 
  0 active torsions:
  status: ('A' for Active; 'I' for Inactive)
                            x       y       z     vdW  Elec       q    Type
                         _______ _______ _______ _____ _____    ______ ____

>  <TORSDO>
F 0

$$$$
=
 OpenBabel11052412253D

 30 37  0  0  1  0  0  0  0  0999 V2000
  188.9710  176.7230  139.4100 C   0  0  2  0  0  3  0  0  0  0  0  0
  189.6960  176.5870  136.9590 C   0  0  1  0  0  3  0  0  0  0  0  0
  185.1840  178.2570  137.5690 C   0  0  0  0  0  2  0  0  0  0  0  0
  188.1330  177.3940  140.5190 C   0  0  1  0  0  3  0  0  0  0  0  0
  190.7510  176.8260  139.8350 S   0  0  0  0  0  0  0  0  0  0  0  0
  190.0240  179.2420  143.5280 C   0  0  0  0  0  2  0  0  0  0  0  0
  185.9640  178.4360  142.3840 C   0  0  2  0  0  0  0  0  0  0  0  0
  188.8150  178.8260  142.6700 C   0  0  1  0  0  3  0  0  0  0  0  0
  191.5330  177.7580  142.2520 C   0  0  0  0  0  2  0  0  0  0  0  0
  186.2940  179.1250  141.0980 N   0  0  1  0  0  0  0  0  0  0  0  0
  185.3020  179.0810  138.8460 C   0  0  1  0  0  3  0  0  0  0  0  0
  190.4030  176.9660  141.6090 C   0  0  1  0  0  3  0  0  0  0  0  0
  189.0450  177.6490  141.7130 C   0  0  2  0  0  0  0  0  0  0  0  0
  189.5250  175.0840  136.6830 C   0  0  0  0  0  2  0  0  0  0  0  0
  184.1870  178.0160  142.4830 S   0  0  0  0  0  0  0  0  0  0  0  0
  185.8990  179.4710  143.4950 C   0  0  0  0  0  2  0  0  0  0  0  0
  192.3240  178.8120  144.3440 C   0  0  0  0  0  1  0  0  0  0  0  0
  189.6730  177.5030  135.4300 Cl  0  0  0  0  0  0  0  0  0  0  0  0
  186.5450  178.0160  136.9330 C   0  0  0  0  0  2  0  0  0  0  0  0
  188.1280  174.5490  137.0040 C   0  0  0  0  0  2  0  0  0  0  0  0
  191.1310  178.2000  143.6420 C   0  0  1  0  0  3  0  0  0  0  0  0
  188.6740  177.1620  137.9600 C   0  0  1  0  0  3  0  0  0  0  0  0
  187.3190  178.6280  140.1250 C   0  0  2  0  0  3  0  0  0  0  0  0
  183.9170  179.5460  139.2510 C   0  0  0  0  0  1  0  0  0  0  0  0
  185.9180  178.2530  139.9660 C   0  0  1  0  0  3  0  0  0  0  0  0
  184.4180  179.2930  143.7490 C   0  0  0  0  0  2  0  0  0  0  0  0
  186.8050  177.2240  142.8430 C   0  0  0  0  0  2  0  0  0  0  0  0
  187.0680  175.5880  136.6720 C   0  0  0  0  0  2  0  0  0  0  0  0
  187.2200  176.8160  137.5730 C   0  0  2  0  0  3  0  0  0  0  0  0
  188.3250  177.4290  143.0450 C   0  0  2  0  0  3  0  0  0  0  0  0
  1  5  1  1  0  0  0
  1  4  1  0  0  0  0
  2 18  1  6  0  0  0
  2 22  1  0  0  0  0
  3 11  1  0  0  0  0
  4 13  1  0  0  0  0
  5 12  1  0  0  0  0
  6 21  1  0  0  0  0
  7 15  1  0  0  0  0
  7 27  1  0  0  0  0
  7 16  1  0  0  0  0
  8 30  1  0  0  0  0
  8  6  1  0  0  0  0
  9 21  1  0  0  0  0
 10  7  1  0  0  0  0
 11 24  1  0  0  0  0
 11 25  1  0  0  0  0
 12 13  1  0  0  0  0
 12  9  1  0  0  0  0
 13  8  1  0  0  0  0
 13 30  1  0  0  0  0
 14  2  1  0  0  0  0
 14 20  1  0  0  0  0
 15 26  1  0  0  0  0
 16 26  1  0  0  0  0
 19  3  1  0  0  0  0
 19 29  1  0  0  0  0
 21 17  1  0  0  0  0
 22  1  1  0  0  0  0
 23  4  1  0  0  0  0
 23 10  1  0  0  0  0
 25 23  1  0  0  0  0
 25 10  1  0  0  0  0
 27 30  1  0  0  0  0
 28 20  1  0  0  0  0
 28 29  1  0  0  0  0
 29 22  1  0  0  0  0
M  END
>  <MODEL>
5

>  <REMARK>
 VINA RESULT:      -5.4      2.363      5.990
  Name = 
  0 active torsions:
  status: ('A' for Active; 'I' for Inactive)
                            x       y       z     vdW  Elec       q    Type
                         _______ _______ _______ _____ _____    ______ ____

>  <TORSDO>
F 0

$$$$
=
 OpenBabel11052412253D

 30 37  0  0  1  0  0  0  0  0999 V2000
  188.4450  176.9150  138.5080 C   0  0  2  0  0  3  0  0  0  0  0  0
  187.4080  177.6340  136.2830 C   0  0  1  0  0  3  0  0  0  0  0  0
  184.8420  179.0030  140.1640 C   0  0  0  0  0  2  0  0  0  0  0  0
  188.6810  177.1620  140.0140 C   0  0  1  0  0  3  0  0  0  0  0  0
  190.0560  176.8590  137.6350 S   0  0  0  0  0  0  0  0  0  0  0  0
  192.4100  177.8490  141.3070 C   0  0  0  0  0  2  0  0  0  0  0  0
  188.4930  177.5010  143.0340 C   0  0  2  0  0  0  0  0  0  0  0  0
  190.8760  177.7590  141.4170 C   0  0  1  0  0  3  0  0  0  0  0  0
  192.3750  176.8940  139.0270 C   0  0  0  0  0  2  0  0  0  0  0  0
  188.0890  178.5910  142.0930 N   0  0  1  0  0  0  0  0  0  0  0  0
  185.9260  179.3320  141.1820 C   0  0  1  0  0  3  0  0  0  0  0  0
  190.9470  176.3780  139.1380 C   0  0  1  0  0  3  0  0  0  0  0  0
  190.1680  176.9860  140.2970 C   0  0  2  0  0  0  0  0  0  0  0  0
  186.7540  176.3200  135.8220 C   0  0  0  0  0  2  0  0  0  0  0  0
  187.1400  177.0770  144.1890 S   0  0  0  0  0  0  0  0  0  0  0  0
  189.3870  178.0860  144.1140 C   0  0  0  0  0  2  0  0  0  0  0  0
  194.5260  177.1570  140.2180 C   0  0  0  0  0  1  0  0  0  0  0  0
  186.6430  179.0230  135.4680 Cl  0  0  0  0  0  0  0  0  0  0  0  0
  185.3920  178.9930  138.7460 C   0  0  0  0  0  2  0  0  0  0  0  0
  185.7960  175.7110  136.8490 C   0  0  0  0  0  2  0  0  0  0  0  0
  193.0560  176.8290  140.3770 C   0  0  1  0  0  3  0  0  0  0  0  0
  187.4150  177.8300  137.8120 C   0  0  1  0  0  3  0  0  0  0  0  0
  188.1190  178.4590  140.6010 C   0  0  2  0  0  3  0  0  0  0  0  0
  185.2650  179.6330  142.5140 C   0  0  0  0  0  1  0  0  0  0  0  0
  186.8930  178.1660  141.3360 C   0  0  1  0  0  3  0  0  0  0  0  0
  188.4090  177.8360  145.2400 C   0  0  0  0  0  2  0  0  0  0  0  0
  189.1210  176.2020  142.4790 C   0  0  0  0  0  2  0  0  0  0  0  0
  185.0460  176.8030  137.5940 C   0  0  0  0  0  2  0  0  0  0  0  0
  186.0140  177.6430  138.4310 C   0  0  2  0  0  3  0  0  0  0  0  0
  190.4210  176.3200  141.6510 C   0  0  2  0  0  3  0  0  0  0  0  0
  1  5  1  6  0  0  0
  1  4  1  0  0  0  0
  2 18  1  6  0  0  0
  2 22  1  0  0  0  0
  3 11  1  0  0  0  0
  4 13  1  0  0  0  0
  4 23  1  0  0  0  0
  5 12  1  0  0  0  0
  6  8  1  0  0  0  0
  7 16  1  0  0  0  0
  7 15  1  0  0  0  0
  8 30  1  0  0  0  0
  9 12  1  0  0  0  0
  9 21  1  0  0  0  0
 10  7  1  0  0  0  0
 11 25  1  0  0  0  0
 11 24  1  0  0  0  0
 12 13  1  0  0  0  0
 13  8  1  0  0  0  0
 13 30  1  0  0  0  0
 14  2  1  0  0  0  0
 14 20  1  0  0  0  0
 15 26  1  0  0  0  0
 16 26  1  0  0  0  0
 17 21  1  0  0  0  0
 19  3  1  0  0  0  0
 20 28  1  0  0  0  0
 21  6  1  0  0  0  0
 22 29  1  0  0  0  0
 22  1  1  0  0  0  0
 23 25  1  0  0  0  0
 23 10  1  0  0  0  0
 25 10  1  0  0  0  0
 27  7  1  0  0  0  0
 28 29  1  0  0  0  0
 29 19  1  0  0  0  0
 30 27  1  0  0  0  0
M  END
>  <MODEL>
6

>  <REMARK>
 VINA RESULT:      -5.4      2.785      6.306
  Name = 
  0 active torsions:
  status: ('A' for Active; 'I' for Inactive)
                            x       y       z     vdW  Elec       q    Type
                         _______ _______ _______ _____ _____    ______ ____

>  <TORSDO>
F 0

$$$$
=
 OpenBabel11052412253D

 30 37  0  0  1  0  0  0  0  0999 V2000
  182.3380  178.0990  138.9890 C   0  0  2  0  0  3  0  0  0  0  0  0
  181.3590  178.9400  141.1980 C   0  0  1  0  0  3  0  0  0  0  0  0
  179.1190  175.0150  139.4410 C   0  0  0  0  0  2  0  0  0  0  0  0
  182.6460  176.9360  138.0220 C   0  0  1  0  0  3  0  0  0  0  0  0
  183.9010  178.9260  139.4720 S   0  0  0  0  0  0  0  0  0  0  0  0
  186.4670  176.0280  137.2310 C   0  0  0  0  0  2  0  0  0  0  0  0
  182.5870  174.6370  136.0270 C   0  0  2  0  0  0  0  0  0  0  0  0
  184.9400  175.8300  137.2090 C   0  0  1  0  0  3  0  0  0  0  0  0
  186.2360  178.2530  138.2830 C   0  0  0  0  0  2  0  0  0  0  0  0
  182.3200  174.4220  137.4830 N   0  0  1  0  0  0  0  0  0  0  0  0
  180.2650  174.2240  138.8220 C   0  0  1  0  0  3  0  0  0  0  0  0
  184.7520  178.3790  137.9680 C   0  0  1  0  0  3  0  0  0  0  0  0
  184.0980  177.0590  137.5780 C   0  0  2  0  0  0  0  0  0  0  0  0
  180.5100  180.1270  140.7130 C   0  0  0  0  0  2  0  0  0  0  0  0
  181.2170  174.0020  134.9940 S   0  0  0  0  0  0  0  0  0  0  0  0
  183.5830  173.5940  135.5480 C   0  0  0  0  0  2  0  0  0  0  0  0
  188.4320  177.5280  137.4080 C   0  0  0  0  0  1  0  0  0  0  0  0
  180.7820  178.3780  142.7890 Cl  0  0  0  0  0  0  0  0  0  0  0  0
  179.6250  176.0430  140.4400 C   0  0  0  0  0  2  0  0  0  0  0  0
  179.5020  179.7640  139.6220 C   0  0  0  0  0  2  0  0  0  0  0  0
  186.9350  177.4780  137.1880 C   0  0  1  0  0  3  0  0  0  0  0  0
  181.4340  177.7700  140.1970 C   0  0  1  0  0  3  0  0  0  0  0  0
  182.2930  175.5250  138.4970 C   0  0  2  0  0  3  0  0  0  0  0  0
  179.6880  173.0280  138.0890 C   0  0  0  0  0  1  0  0  0  0  0  0
  181.0570  175.0920  137.8530 C   0  0  1  0  0  3  0  0  0  0  0  0
  182.6080  172.8990  134.6240 C   0  0  0  0  0  2  0  0  0  0  0  0
  183.0060  176.0350  135.5210 C   0  0  0  0  0  2  0  0  0  0  0  0
  178.9360  178.3730  139.8590 C   0  0  0  0  0  2  0  0  0  0  0  0
  180.0370  177.3170  139.7230 C   0  0  2  0  0  3  0  0  0  0  0  0
  184.2880  176.6670  136.1110 C   0  0  2  0  0  3  0  0  0  0  0  0
  1  5  1  1  0  0  0
  1 22  1  0  0  0  0
  2 18  1  1  0  0  0
  3 19  1  0  0  0  0
  4 23  1  0  0  0  0
  4  1  1  0  0  0  0
  7 10  1  0  0  0  0
  8  6  1  0  0  0  0
  8 13  1  0  0  0  0
 10 25  1  0  0  0  0
 10 23  1  0  0  0  0
 11  3  1  0  0  0  0
 12  9  1  0  0  0  0
 12  5  1  0  0  0  0
 13 12  1  0  0  0  0
 13  4  1  0  0  0  0
 14  2  1  0  0  0  0
 15  7  1  0  0  0  0
 16  7  1  0  0  0  0
 20 28  1  0  0  0  0
 20 14  1  0  0  0  0
 21  6  1  0  0  0  0
 21 17  1  0  0  0  0
 21  9  1  0  0  0  0
 22  2  1  0  0  0  0
 24 11  1  0  0  0  0
 25 23  1  0  0  0  0
 25 11  1  0  0  0  0
 26 15  1  0  0  0  0
 26 16  1  0  0  0  0
 27  7  1  0  0  0  0
 27 30  1  0  0  0  0
 29 28  1  0  0  0  0
 29 22  1  0  0  0  0
 29 19  1  0  0  0  0
 30  8  1  0  0  0  0
 30 13  1  0  0  0  0
M  END
>  <MODEL>
7

>  <REMARK>
 VINA RESULT:      -5.3      5.492      8.538
  Name = 
  0 active torsions:
  status: ('A' for Active; 'I' for Inactive)
                            x       y       z     vdW  Elec       q    Type
                         _______ _______ _______ _____ _____    ______ ____

>  <TORSDO>
F 0

$$$$
=
 OpenBabel11052412253D

 30 37  0  0  1  0  0  0  0  0999 V2000
  183.0820  177.8430  138.2690 C   0  0  2  0  0  3  0  0  0  0  0  0
  181.9400  178.9990  140.2460 C   0  0  1  0  0  3  0  0  0  0  0  0
  179.6530  174.9960  138.7400 C   0  0  0  0  0  2  0  0  0  0  0  0
  183.4140  176.5550  137.4850 C   0  0  1  0  0  3  0  0  0  0  0  0
  184.6360  178.6490  138.8140 S   0  0  0  0  0  0  0  0  0  0  0  0
  187.2330  175.3750  137.2180 C   0  0  0  0  0  2  0  0  0  0  0  0
  183.4150  174.0310  135.7830 C   0  0  2  0  0  0  0  0  0  0  0  0
  185.7060  175.2480  137.0590 C   0  0  1  0  0  3  0  0  0  0  0  0
  187.0330  177.7220  137.9680 C   0  0  0  0  0  2  0  0  0  0  0  0
  182.9920  174.0120  137.2180 N   0  0  1  0  0  0  0  0  0  0  0  0
  180.8060  174.0810  138.3450 C   0  0  1  0  0  3  0  0  0  0  0  0
  185.5980  177.8780  137.4850 C   0  0  1  0  0  3  0  0  0  0  0  0
  184.9080  176.5530  137.1870 C   0  0  2  0  0  0  0  0  0  0  0  0
  181.2170  180.1550  139.5350 C   0  0  0  0  0  2  0  0  0  0  0  0
  182.1190  173.3380  134.6940 S   0  0  0  0  0  0  0  0  0  0  0  0
  184.3890  172.8900  135.5410 C   0  0  0  0  0  2  0  0  0  0  0  0
  189.2570  176.7890  137.4240 C   0  0  0  0  0  1  0  0  0  0  0  0
  181.1750  178.6680  141.8220 Cl  0  0  0  0  0  0  0  0  0  0  0  0
  180.1190  176.1160  139.6590 C   0  0  0  0  0  2  0  0  0  0  0  0
  180.3020  179.7080  138.3940 C   0  0  0  0  0  2  0  0  0  0  0  0
  187.7900  176.7840  137.0530 C   0  0  1  0  0  3  0  0  0  0  0  0
  182.0440  177.7110  139.4050 C   0  0  1  0  0  3  0  0  0  0  0  0
  182.9310  175.2330  138.0850 C   0  0  2  0  0  3  0  0  0  0  0  0
  180.2330  172.8320  137.7030 C   0  0  0  0  0  1  0  0  0  0  0  0
  181.7410  174.7830  137.3700 C   0  0  1  0  0  3  0  0  0  0  0  0
  183.4710  172.1320  134.6080 C   0  0  0  0  0  2  0  0  0  0  0  0
  183.9660  175.3340  135.1620 C   0  0  0  0  0  2  0  0  0  0  0  0
  179.6330  178.3850  138.7340 C   0  0  0  0  0  2  0  0  0  0  0  0
  180.6760  177.2690  138.8430 C   0  0  2  0  0  3  0  0  0  0  0  0
  185.2180  175.9730  135.8050 C   0  0  2  0  0  3  0  0  0  0  0  0
  1  5  1  1  0  0  0
  1 22  1  0  0  0  0
  2 18  1  1  0  0  0
  3 19  1  0  0  0  0
  4 23  1  0  0  0  0
  4  1  1  0  0  0  0
  7 10  1  0  0  0  0
  8 13  1  0  0  0  0
  8  6  1  0  0  0  0
 10 25  1  0  0  0  0
 10 23  1  0  0  0  0
 11  3  1  0  0  0  0
 12  9  1  0  0  0  0
 12  5  1  0  0  0  0
 13 12  1  0  0  0  0
 13  4  1  0  0  0  0
 14  2  1  0  0  0  0
 15  7  1  0  0  0  0
 16  7  1  0  0  0  0
 20 28  1  0  0  0  0
 20 14  1  0  0  0  0
 21  6  1  0  0  0  0
 21 17  1  0  0  0  0
 21  9  1  0  0  0  0
 22  2  1  0  0  0  0
 24 11  1  0  0  0  0
 25 23  1  0  0  0  0
 25 11  1  0  0  0  0
 26 15  1  0  0  0  0
 26 16  1  0  0  0  0
 27  7  1  0  0  0  0
 27 30  1  0  0  0  0
 28 29  1  0  0  0  0
 29 22  1  0  0  0  0
 29 19  1  0  0  0  0
 30  8  1  0  0  0  0
 30 13  1  0  0  0  0
M  END
>  <MODEL>
8

>  <REMARK>
 VINA RESULT:      -5.3      5.548      8.586
  Name = 
  0 active torsions:
  status: ('A' for Active; 'I' for Inactive)
                            x       y       z     vdW  Elec       q    Type
                         _______ _______ _______ _____ _____    ______ ____

>  <TORSDO>
F 0

$$$$
=
 OpenBabel11052412253D

 30 37  0  0  1  0  0  0  0  0999 V2000
  186.4480  177.7020  140.5360 C   0  0  2  0  0  3  0  0  0  0  0  0
  184.7380  178.8760  139.0380 C   0  0  1  0  0  3  0  0  0  0  0  0
  183.7450  179.2220  143.7720 C   0  0  0  0  0  2  0  0  0  0  0  0
  187.2030  177.6060  141.8800 C   0  0  1  0  0  3  0  0  0  0  0  0
  187.6510  177.9070  139.1690 S   0  0  0  0  0  0  0  0  0  0  0  0
  191.1760  178.1110  141.9140 C   0  0  0  0  0  2  0  0  0  0  0  0
  188.0900  177.2330  144.7680 C   0  0  2  0  0  0  0  0  0  0  0  0
  189.7740  177.9430  142.5270 C   0  0  1  0  0  3  0  0  0  0  0  0
  190.3090  177.7050  139.6350 C   0  0  0  0  0  2  0  0  0  0  0  0
  187.4370  178.4960  144.3020 N   0  0  1  0  0  0  0  0  0  0  0  0
  185.1300  179.3480  144.3960 C   0  0  1  0  0  3  0  0  0  0  0  0
  188.9850  177.1260  140.1150 C   0  0  1  0  0  3  0  0  0  0  0  0
  188.6850  177.4230  141.5790 C   0  0  2  0  0  0  0  0  0  0  0  0
  183.9040  177.6810  138.5480 C   0  0  0  0  0  2  0  0  0  0  0  0
  187.2040  176.5070  146.1930 S   0  0  0  0  0  0  0  0  0  0  0  0
  189.3300  177.5870  145.5730 C   0  0  0  0  0  2  0  0  0  0  0  0
  192.7480  177.7650  140.0300 C   0  0  0  0  0  1  0  0  0  0  0  0
  183.8040  180.3870  138.8800 Cl  0  0  0  0  0  0  0  0  0  0  0  0
  183.7690  179.5580  142.2890 C   0  0  0  0  0  2  0  0  0  0  0  0
  183.3340  176.8170  139.6750 C   0  0  0  0  0  2  0  0  0  0  0  0
  191.4110  177.3560  140.6100 C   0  0  1  0  0  3  0  0  0  0  0  0
  185.2850  178.7160  140.4700 C   0  0  1  0  0  3  0  0  0  0  0  0
  186.9410  178.7110  142.9050 C   0  0  2  0  0  3  0  0  0  0  0  0
  184.9860  179.3100  145.9050 C   0  0  0  0  0  1  0  0  0  0  0  0
  186.0340  178.2130  143.9330 C   0  0  1  0  0  3  0  0  0  0  0  0
  188.7920  177.0490  146.8800 C   0  0  0  0  0  2  0  0  0  0  0  0
  188.4250  176.1200  143.7490 C   0  0  0  0  0  2  0  0  0  0  0  0
  182.9410  177.6820  140.8630 C   0  0  0  0  0  2  0  0  0  0  0  0
  184.1780  178.3410  141.4790 C   0  0  2  0  0  3  0  0  0  0  0  0
  189.3610  176.4730  142.5700 C   0  0  2  0  0  3  0  0  0  0  0  0
  1  5  1  6  0  0  0
  1  4  1  0  0  0  0
  2 18  1  1  0  0  0
  2 22  1  0  0  0  0
  3 11  1  0  0  0  0
  4 23  1  0  0  0  0
  5 12  1  0  0  0  0
  6  8  1  0  0  0  0
  7 16  1  0  0  0  0
  7 15  1  0  0  0  0
  8 30  1  0  0  0  0
  9 12  1  0  0  0  0
  9 21  1  0  0  0  0
 10  7  1  0  0  0  0
 11 24  1  0  0  0  0
 12 13  1  0  0  0  0
 13  4  1  0  0  0  0
 13  8  1  0  0  0  0
 13 30  1  0  0  0  0
 14  2  1  0  0  0  0
 14 20  1  0  0  0  0
 15 26  1  0  0  0  0
 16 26  1  0  0  0  0
 17 21  1  0  0  0  0
 19  3  1  0  0  0  0
 20 28  1  0  0  0  0
 21  6  1  0  0  0  0
 22  1  1  0  0  0  0
 22 29  1  0  0  0  0
 23 25  1  0  0  0  0
 23 10  1  0  0  0  0
 25 10  1  0  0  0  0
 25 11  1  0  0  0  0
 27  7  1  0  0  0  0
 28 29  1  0  0  0  0
 29 19  1  0  0  0  0
 30 27  1  0  0  0  0
M  END
>  <MODEL>
9

>  <REMARK>
 VINA RESULT:      -5.1      2.608      5.704
  Name = 
  0 active torsions:
  status: ('A' for Active; 'I' for Inactive)
                            x       y       z     vdW  Elec       q    Type
                         _______ _______ _______ _____ _____    ______ ____

>  <TORSDO>
F 0

$$$$
