=
 OpenBabel11052412433D

 25 27  0  0  1  0  0  0  0  0999 V2000
  187.4410  178.1720  144.6580 N   0  0  1  0  0  0  0  0  0  0  0  0
  186.1830  176.9080  146.2280 O   0  0  0  0  0  1  0  0  0  0  0  0
  185.7350  179.2220  145.9880 N   0  0  0  0  0  0  0  0  0  0  0  0
  185.1020  179.1600  147.1850 O   0  0  0  0  0  1  0  0  0  0  0  0
  186.4980  177.9230  143.5580 C   0  0  0  0  0  2  0  0  0  0  0  0
  184.7310  178.9750  144.9530 C   0  0  0  0  0  2  0  0  0  0  0  0
  185.3860  178.9690  143.5750 C   0  0  2  0  0  3  0  0  0  0  0  0
  186.7530  178.1620  145.9580 C   0  0  2  0  0  3  0  0  0  0  0  0
  188.6110  177.2760  144.6790 C   0  0  2  0  0  3  0  0  0  0  0  0
  188.9780  176.9810  142.0590 C   0  0  0  0  0  1  0  0  0  0  0  0
  189.5870  177.7480  145.7510 C   0  0  2  0  0  3  0  0  0  0  0  0
  191.4360  176.7400  147.0160 C   0  0  0  0  0  0  0  0  0  0  0  0
  190.8820  177.5920  145.0550 C   0  0  0  0  0  0  0  0  0  0  0  0
  191.8620  177.0730  145.7090 N   0  0  0  0  0  0  0  0  0  0  0  0
  192.2500  176.4960  147.9450 O   0  0  0  0  0  0  0  0  0  0  0  0
  189.4770  177.2870  143.4280 C   0  0  2  0  0  3  0  0  0  0  0  0
  190.7400  177.4290  143.6580 N   0  0  0  0  0  2  0  0  0  0  0  0
  189.6630  176.6960  147.2390 S   0  0  0  0  0  0  0  0  0  0  0  0
  184.3630  178.6540  142.5410 C   0  0  0  0  0  3  0  0  0  0  0  0
  184.6840  178.6240  141.2510 C   0  0  0  0  0  3  0  0  0  0  0  0
  183.7270  178.3180  140.1720 C   0  0  0  0  0  0  0  0  0  0  0  0
  183.1110  177.1840  140.2200 N   0  0  0  0  0  2  0  0  0  0  0  0
  183.4390  179.2360  139.0490 C   0  0  0  0  0  0  0  0  0  0  0  0
  184.1330  180.4350  138.9420 O   0  0  0  0  0  1  0  0  0  0  0  0
  182.5730  178.9520  138.1790 O   0  0  0  0  0  0  0  0  0  0  0  0
  1  5  1  6  0  0  0
  1  8  1  0  0  0  0
  3  4  1  0  0  0  0
  5  7  1  0  0  0  0
  6  3  1  0  0  0  0
  7 19  1  6  0  0  0
  7  6  1  0  0  0  0
  8  3  1  0  0  0  0
  8  2  1  6  0  0  0
  9  1  1  6  0  0  0
  9 11  1  0  0  0  0
 11 13  1  6  0  0  0
 11 18  1  0  0  0  0
 12 18  1  0  0  0  0
 12 15  2  0  0  0  0
 13 14  2  0  0  0  0
 14 12  1  0  0  0  0
 16 10  1  1  0  0  0
 16 17  1  0  0  0  0
 16  9  1  0  0  0  0
 17 13  1  0  0  0  0
 20 19  2  0  0  0  0
 21 22  2  0  0  0  0
 21 20  1  0  0  0  0
 23 21  1  0  0  0  0
 24 23  1  0  0  0  0
 25 23  2  0  0  0  0
M  END
>  <MODEL>
1

>  <REMARK>
 VINA RESULT:      -8.3      0.000      0.000
  Name = 
  4 active torsions:
  status: ('A' for Active; 'I' for Inactive)
    1  A    between atoms: C_1  and  N_3
    2  A    between atoms: C_2  and  CA_21
    3  A    between atoms: C_6  and  C_23
    4  A    between atoms: C_15  and  CA_21
                            x       y       z     vdW  Elec       q    Type
                         _______ _______ _______ _____ _____    ______ ____

>  <TORSDO>
F 4

$$$$
=
 OpenBabel11052412433D

 25 27  0  0  1  0  0  0  0  0999 V2000
  187.1990  178.2950  144.5640 N   0  0  1  0  0  0  0  0  0  0  0  0
  186.2430  177.0230  146.3280 O   0  0  0  0  0  1  0  0  0  0  0  0
  185.6950  179.3190  146.1360 N   0  0  0  0  0  0  0  0  0  0  0  0
  185.2620  179.2590  147.4180 O   0  0  0  0  0  1  0  0  0  0  0  0
  186.1020  178.0030  143.6300 C   0  0  0  0  0  2  0  0  0  0  0  0
  184.5480  179.0280  145.2760 C   0  0  0  0  0  2  0  0  0  0  0  0
  184.9770  179.0190  143.8120 C   0  0  2  0  0  3  0  0  0  0  0  0
  186.7260  178.2870  145.9570 C   0  0  2  0  0  3  0  0  0  0  0  0
  188.3840  177.4320  144.4100 C   0  0  2  0  0  3  0  0  0  0  0  0
  188.5180  177.3520  141.7520 C   0  0  0  0  0  1  0  0  0  0  0  0
  189.4440  177.8450  145.4250 C   0  0  2  0  0  3  0  0  0  0  0  0
  191.4190  176.7910  146.4370 C   0  0  0  0  0  0  0  0  0  0  0  0
  190.6730  177.7770  144.6070 C   0  0  0  0  0  0  0  0  0  0  0  0
  191.7180  177.2350  145.1270 N   0  0  0  0  0  0  0  0  0  0  0  0
  192.3180  176.4960  147.2670 O   0  0  0  0  0  0  0  0  0  0  0  0
  189.1320  177.5620  143.0920 C   0  0  2  0  0  3  0  0  0  0  0  0
  190.4080  177.7210  143.2200 N   0  0  0  0  0  2  0  0  0  0  0  0
  189.6750  176.6820  146.8110 S   0  0  0  0  0  0  0  0  0  0  0  0
  183.8120  178.6590  142.9570 C   0  0  0  0  0  3  0  0  0  0  0  0
  182.5810  179.0380  143.2880 C   0  0  0  0  0  3  0  0  0  0  0  0
  181.3810  178.7220  142.4920 C   0  0  0  0  0  0  0  0  0  0  0  0
  181.4940  178.7310  141.2060 N   0  0  0  0  0  2  0  0  0  0  0  0
  180.0670  178.3960  143.0870 C   0  0  0  0  0  0  0  0  0  0  0  0
  178.9760  178.1550  142.2600 O   0  0  0  0  0  0  0  0  0  0  0  0
  179.9130  178.3310  144.3350 O   0  0  0  0  0  1  0  0  0  0  0  0
  1  5  1  6  0  0  0
  1  8  1  0  0  0  0
  3  4  1  0  0  0  0
  5  7  1  0  0  0  0
  6  3  1  0  0  0  0
  7 19  1  6  0  0  0
  7  6  1  0  0  0  0
  8  3  1  0  0  0  0
  8  2  1  6  0  0  0
  9  1  1  6  0  0  0
  9 11  1  0  0  0  0
 11 13  1  6  0  0  0
 11 18  1  0  0  0  0
 12 18  1  0  0  0  0
 12 15  2  0  0  0  0
 13 14  2  0  0  0  0
 14 12  1  0  0  0  0
 16 10  1  6  0  0  0
 16 17  1  0  0  0  0
 16  9  1  0  0  0  0
 17 13  1  0  0  0  0
 19 20  2  0  0  0  0
 21 23  1  0  0  0  0
 21 20  1  0  0  0  0
 22 21  2  0  0  0  0
 23 25  1  0  0  0  0
 24 23  2  0  0  0  0
M  END
>  <MODEL>
2

>  <REMARK>
 VINA RESULT:      -8.1      2.104      2.422
  Name = 
  4 active torsions:
  status: ('A' for Active; 'I' for Inactive)
    1  A    between atoms: C_1  and  N_3
    2  A    between atoms: C_2  and  CA_21
    3  A    between atoms: C_6  and  C_23
    4  A    between atoms: C_15  and  CA_21
                            x       y       z     vdW  Elec       q    Type
                         _______ _______ _______ _____ _____    ______ ____

>  <TORSDO>
F 4

$$$$
=
 OpenBabel11052412433D

 25 27  0  0  1  0  0  0  0  0999 V2000
  189.9110  177.3450  142.3400 N   0  0  1  0  0  0  0  0  0  0  0  0
  189.7320  175.0370  142.8760 O   0  0  0  0  0  1  0  0  0  0  0  0
  191.5730  176.2740  143.7070 N   0  0  0  0  0  0  0  0  0  0  0  0
  192.1860  175.0880  143.9400 O   0  0  0  0  0  1  0  0  0  0  0  0
  189.1470  177.7760  143.5200 C   0  0  0  0  0  2  0  0  0  0  0  0
  190.8490  176.6350  144.9260 C   0  0  0  0  0  2  0  0  0  0  0  0
  190.0820  177.9370  144.7170 C   0  0  2  0  0  3  0  0  0  0  0  0
  190.6230  176.0850  142.6010 C   0  0  2  0  0  3  0  0  0  0  0  0
  189.1210  177.2500  141.0980 C   0  0  2  0  0  3  0  0  0  0  0  0
  186.8350  178.3100  141.9570 C   0  0  0  0  0  1  0  0  0  0  0  0
  189.9940  177.6500  139.9150 C   0  0  2  0  0  3  0  0  0  0  0  0
  189.9390  177.2920  137.4850 C   0  0  0  0  0  0  0  0  0  0  0  0
  189.0560  178.4760  139.1270 C   0  0  0  0  0  0  0  0  0  0  0  0
  189.0220  178.3050  137.8510 N   0  0  0  0  0  0  0  0  0  0  0  0
  190.3180  177.1290  136.2960 O   0  0  0  0  0  0  0  0  0  0  0  0
  187.9540  178.2180  140.9800 C   0  0  2  0  0  3  0  0  0  0  0  0
  187.9150  178.8670  139.8630 N   0  0  0  0  0  2  0  0  0  0  0  0
  190.5070  176.2700  138.8370 S   0  0  0  0  0  0  0  0  0  0  0  0
  189.3020  178.2560  145.9440 C   0  0  0  0  0  3  0  0  0  0  0  0
  188.0540  177.8190  146.0900 C   0  0  0  0  0  3  0  0  0  0  0  0
  187.2210  178.0910  147.2760 C   0  0  0  0  0  0  0  0  0  0  0  0
  187.5650  177.5390  148.3910 N   0  0  0  0  0  2  0  0  0  0  0  0
  186.0240  178.9580  147.2530 C   0  0  0  0  0  0  0  0  0  0  0  0
  184.8360  178.4800  146.7110 O   0  0  0  0  0  0  0  0  0  0  0  0
  186.0560  180.1280  147.7180 O   0  0  0  0  0  1  0  0  0  0  0  0
  1  8  1  0  0  0  0
  1  5  1  1  0  0  0
  3  4  1  0  0  0  0
  3  6  1  0  0  0  0
  5  7  1  0  0  0  0
  7  6  1  0  0  0  0
  7 19  1  1  0  0  0
  8  2  1  1  0  0  0
  8  3  1  0  0  0  0
  9  1  1  1  0  0  0
 11 18  1  6  0  0  0
 11  9  1  0  0  0  0
 12 14  1  0  0  0  0
 12 18  1  0  0  0  0
 13 17  1  0  0  0  0
 13 11  1  0  0  0  0
 14 13  2  0  0  0  0
 15 12  2  0  0  0  0
 16  9  1  0  0  0  0
 16 10  1  6  0  0  0
 17 16  1  0  0  0  0
 19 20  2  0  0  0  0
 20 21  1  0  0  0  0
 21 22  2  0  0  0  0
 23 21  1  0  0  0  0
 23 25  1  0  0  0  0
 24 23  2  0  0  0  0
M  END
>  <MODEL>
3

>  <REMARK>
 VINA RESULT:      -7.9      3.722      7.033
  Name = 
  4 active torsions:
  status: ('A' for Active; 'I' for Inactive)
    1  A    between atoms: C_1  and  N_3
    2  A    between atoms: C_2  and  CA_21
    3  A    between atoms: C_6  and  C_23
    4  A    between atoms: C_15  and  CA_21
                            x       y       z     vdW  Elec       q    Type
                         _______ _______ _______ _____ _____    ______ ____

>  <TORSDO>
F 4

$$$$
=
 OpenBabel11052412433D

 25 27  0  0  1  0  0  0  0  0999 V2000
  187.3610  178.1700  144.5650 N   0  0  1  0  0  0  0  0  0  0  0  0
  186.2240  176.9930  146.2870 O   0  0  0  0  0  1  0  0  0  0  0  0
  185.7060  179.2740  145.9160 N   0  0  0  0  0  0  0  0  0  0  0  0
  185.1430  179.2830  147.1470 O   0  0  0  0  0  1  0  0  0  0  0  0
  186.3650  177.8250  143.5390 C   0  0  0  0  0  2  0  0  0  0  0  0
  184.6530  178.9350  144.9590 C   0  0  0  0  0  2  0  0  0  0  0  0
  185.2300  178.8470  143.5490 C   0  0  2  0  0  3  0  0  0  0  0  0
  186.7470  178.2360  145.8990 C   0  0  2  0  0  3  0  0  0  0  0  0
  188.5530  177.3020  144.5800 C   0  0  2  0  0  3  0  0  0  0  0  0
  188.9210  177.0270  141.9580 C   0  0  0  0  0  1  0  0  0  0  0  0
  189.5190  177.7930  145.6520 C   0  0  2  0  0  3  0  0  0  0  0  0
  191.3940  176.8250  146.9100 C   0  0  0  0  0  0  0  0  0  0  0  0
  190.8160  177.6710  144.9530 C   0  0  0  0  0  0  0  0  0  0  0  0
  191.8090  177.1720  145.6030 N   0  0  0  0  0  0  0  0  0  0  0  0
  192.2150  176.5960  147.8360 O   0  0  0  0  0  0  0  0  0  0  0  0
  189.4150  177.3380  143.3280 C   0  0  2  0  0  3  0  0  0  0  0  0
  190.6750  177.5110  143.5560 N   0  0  0  0  0  2  0  0  0  0  0  0
  189.6230  176.7370  147.1350 S   0  0  0  0  0  0  0  0  0  0  0  0
  184.1590  178.4400  142.5990 C   0  0  0  0  0  3  0  0  0  0  0  0
  182.9340  178.9490  142.6940 C   0  0  0  0  0  3  0  0  0  0  0  0
  181.8240  178.5960  141.7900 C   0  0  0  0  0  0  0  0  0  0  0  0
  180.6440  178.4860  142.3040 N   0  0  0  0  0  2  0  0  0  0  0  0
  181.9910  178.3640  140.3400 C   0  0  0  0  0  0  0  0  0  0  0  0
  182.1240  179.4480  139.4790 O   0  0  0  0  0  0  0  0  0  0  0  0
  182.0180  177.1980  139.8630 O   0  0  0  0  0  1  0  0  0  0  0  0
  1  5  1  6  0  0  0
  1  8  1  0  0  0  0
  3  4  1  0  0  0  0
  5  7  1  0  0  0  0
  6  3  1  0  0  0  0
  7 19  1  6  0  0  0
  7  6  1  0  0  0  0
  8  3  1  0  0  0  0
  8  2  1  6  0  0  0
  9  1  1  6  0  0  0
  9 11  1  0  0  0  0
 11 13  1  6  0  0  0
 11 18  1  0  0  0  0
 12 18  1  0  0  0  0
 12 15  2  0  0  0  0
 13 14  2  0  0  0  0
 14 12  1  0  0  0  0
 16 10  1  1  0  0  0
 16 17  1  0  0  0  0
 16  9  1  0  0  0  0
 17 13  1  0  0  0  0
 19 20  2  0  0  0  0
 21 22  2  0  0  0  0
 21 20  1  0  0  0  0
 23 21  1  0  0  0  0
 24 23  2  0  0  0  0
 25 23  1  0  0  0  0
M  END
>  <MODEL>
4

>  <REMARK>
 VINA RESULT:      -7.9      1.138      1.267
  Name = 
  4 active torsions:
  status: ('A' for Active; 'I' for Inactive)
    1  A    between atoms: C_1  and  N_3
    2  A    between atoms: C_2  and  CA_21
    3  A    between atoms: C_6  and  C_23
    4  A    between atoms: C_15  and  CA_21
                            x       y       z     vdW  Elec       q    Type
                         _______ _______ _______ _____ _____    ______ ____

>  <TORSDO>
F 4

$$$$
=
 OpenBabel11052412433D

 25 27  0  0  1  0  0  0  0  0999 V2000
  189.5650  177.4650  143.1580 N   0  0  1  0  0  0  0  0  0  0  0  0
  187.3420  176.7230  142.7610 O   0  0  0  0  0  1  0  0  0  0  0  0
  188.1130  178.6850  141.6790 N   0  0  0  0  0  0  0  0  0  0  0  0
  186.8140  178.9910  141.4440 O   0  0  0  0  0  1  0  0  0  0  0  0
  190.1250  176.6860  142.0440 C   0  0  0  0  0  2  0  0  0  0  0  0
  188.5950  177.9240  140.5270 C   0  0  0  0  0  2  0  0  0  0  0  0
  190.0410  177.4910  140.7490 C   0  0  2  0  0  3  0  0  0  0  0  0
  188.1710  177.8490  142.8870 C   0  0  2  0  0  3  0  0  0  0  0  0
  189.6820  176.8200  144.4790 C   0  0  2  0  0  3  0  0  0  0  0  0
  191.9240  175.4400  144.0890 C   0  0  0  0  0  1  0  0  0  0  0  0
  189.3390  177.8330  145.5650 C   0  0  2  0  0  3  0  0  0  0  0  0
  188.6370  177.7230  147.9170 C   0  0  0  0  0  0  0  0  0  0  0  0
  190.3810  177.5420  146.5730 C   0  0  0  0  0  0  0  0  0  0  0  0
  190.0280  177.4900  147.8100 N   0  0  0  0  0  0  0  0  0  0  0  0
  188.0880  178.0160  149.0100 O   0  0  0  0  0  0  0  0  0  0  0  0
  191.0820  176.3790  144.8780 C   0  0  2  0  0  3  0  0  0  0  0  0
  191.4410  176.7610  146.0590 N   0  0  0  0  0  2  0  0  0  0  0  0
  187.7310  177.5680  146.3840 S   0  0  0  0  0  0  0  0  0  0  0  0
  190.4940  176.6660  139.5960 C   0  0  0  0  0  3  0  0  0  0  0  0
  191.7230  176.7970  139.1040 C   0  0  0  0  0  3  0  0  0  0  0  0
  192.2430  176.0150  137.9680 C   0  0  0  0  0  0  0  0  0  0  0  0
  191.3920  175.3540  137.2550 N   0  0  0  0  0  2  0  0  0  0  0  0
  193.6740  175.9510  137.6060 C   0  0  0  0  0  0  0  0  0  0  0  0
  194.1290  176.6070  136.4680 O   0  0  0  0  0  0  0  0  0  0  0  0
  194.4980  175.3100  138.3120 O   0  0  0  0  0  1  0  0  0  0  0  0
  1  5  1  6  0  0  0
  3  8  1  0  0  0  0
  4  3  1  0  0  0  0
  6  7  1  0  0  0  0
  6  3  1  0  0  0  0
  7 19  1  6  0  0  0
  7  5  1  0  0  0  0
  8  2  1  6  0  0  0
  8  1  1  0  0  0  0
  9  1  1  6  0  0  0
  9 16  1  0  0  0  0
  9 11  1  0  0  0  0
 11 18  1  1  0  0  0
 11 13  1  0  0  0  0
 12 15  2  0  0  0  0
 13 14  2  0  0  0  0
 14 12  1  0  0  0  0
 16 10  1  1  0  0  0
 16 17  1  0  0  0  0
 17 13  1  0  0  0  0
 18 12  1  0  0  0  0
 20 19  2  0  0  0  0
 21 20  1  0  0  0  0
 22 21  2  0  0  0  0
 23 21  1  0  0  0  0
 23 25  1  0  0  0  0
 24 23  2  0  0  0  0
M  END
>  <MODEL>
5

>  <REMARK>
 VINA RESULT:      -7.3      4.264      6.056
  Name = 
  4 active torsions:
  status: ('A' for Active; 'I' for Inactive)
    1  A    between atoms: C_1  and  N_3
    2  A    between atoms: C_2  and  CA_21
    3  A    between atoms: C_6  and  C_23
    4  A    between atoms: C_15  and  CA_21
                            x       y       z     vdW  Elec       q    Type
                         _______ _______ _______ _____ _____    ______ ____

>  <TORSDO>
F 4

$$$$
=
 OpenBabel11052412433D

 25 27  0  0  1  0  0  0  0  0999 V2000
  189.3680  178.0180  141.2920 N   0  0  1  0  0  0  0  0  0  0  0  0
  190.4250  175.9930  140.6370 O   0  0  0  0  0  1  0  0  0  0  0  0
  191.7440  177.9380  140.9330 N   0  0  0  0  0  0  0  0  0  0  0  0
  192.7120  177.3150  140.2190 O   0  0  0  0  0  1  0  0  0  0  0  0
  189.5270  177.7470  142.7290 C   0  0  0  0  0  2  0  0  0  0  0  0
  191.9790  177.6280  142.3440 C   0  0  0  0  0  2  0  0  0  0  0  0
  190.8860  178.2500  143.2080 C   0  0  2  0  0  3  0  0  0  0  0  0
  190.4460  177.3910  140.5130 C   0  0  2  0  0  3  0  0  0  0  0  0
  188.0490  177.6590  140.7410 C   0  0  2  0  0  3  0  0  0  0  0  0
  186.5340  178.1910  142.8650 C   0  0  0  0  0  1  0  0  0  0  0  0
  187.9400  178.1820  139.3140 C   0  0  2  0  0  3  0  0  0  0  0  0
  186.5540  177.6700  137.3510 C   0  0  0  0  0  0  0  0  0  0  0  0
  186.5590  178.7080  139.3010 C   0  0  0  0  0  0  0  0  0  0  0  0
  185.8240  178.4550  138.2750 N   0  0  0  0  0  0  0  0  0  0  0  0
  186.1890  177.5290  136.1550 O   0  0  0  0  0  0  0  0  0  0  0  0
  186.8500  178.3100  141.4150 C   0  0  2  0  0  3  0  0  0  0  0  0
  186.0150  178.8590  140.5960 N   0  0  0  0  0  2  0  0  0  0  0  0
  188.0230  176.9010  138.0170 S   0  0  0  0  0  0  0  0  0  0  0  0
  191.1050  177.8720  144.6320 C   0  0  0  0  0  3  0  0  0  0  0  0
  190.1760  177.2070  145.3110 C   0  0  0  0  0  3  0  0  0  0  0  0
  190.3210  176.7970  146.7190 C   0  0  0  0  0  0  0  0  0  0  0  0
  189.2540  176.7540  147.4450 N   0  0  0  0  0  2  0  0  0  0  0  0
  191.6140  176.4340  147.3370 C   0  0  0  0  0  0  0  0  0  0  0  0
  192.3100  175.3220  146.8780 O   0  0  0  0  0  0  0  0  0  0  0  0
  192.1040  177.1170  148.2760 O   0  0  0  0  0  1  0  0  0  0  0  0
  1  5  1  1  0  0  0
  3  6  1  0  0  0  0
  4  3  1  0  0  0  0
  5  7  1  0  0  0  0
  6  7  1  0  0  0  0
  7 19  1  1  0  0  0
  8  2  1  1  0  0  0
  8  3  1  0  0  0  0
  8  1  1  0  0  0  0
  9  1  1  1  0  0  0
  9 16  1  0  0  0  0
 11 18  1  6  0  0  0
 11  9  1  0  0  0  0
 12 18  1  0  0  0  0
 12 14  1  0  0  0  0
 13 11  1  0  0  0  0
 13 17  1  0  0  0  0
 14 13  2  0  0  0  0
 15 12  2  0  0  0  0
 16 10  1  6  0  0  0
 17 16  1  0  0  0  0
 19 20  2  0  0  0  0
 20 21  1  0  0  0  0
 21 23  1  0  0  0  0
 21 22  2  0  0  0  0
 23 25  1  0  0  0  0
 24 23  2  0  0  0  0
M  END
>  <MODEL>
6

>  <REMARK>
 VINA RESULT:      -7.3      3.690      8.488
  Name = 
  4 active torsions:
  status: ('A' for Active; 'I' for Inactive)
    1  A    between atoms: C_1  and  N_3
    2  A    between atoms: C_2  and  CA_21
    3  A    between atoms: C_6  and  C_23
    4  A    between atoms: C_15  and  CA_21
                            x       y       z     vdW  Elec       q    Type
                         _______ _______ _______ _____ _____    ______ ____

>  <TORSDO>
F 4

$$$$
=
 OpenBabel11052412433D

 25 27  0  0  1  0  0  0  0  0999 V2000
  184.9440  178.1700  143.8000 N   0  0  1  0  0  0  0  0  0  0  0  0
  185.2720  180.1180  145.1190 O   0  0  0  0  0  1  0  0  0  0  0  0
  185.2060  178.0030  146.1840 N   0  0  0  0  0  0  0  0  0  0  0  0
  184.9910  178.6640  147.3470 O   0  0  0  0  0  1  0  0  0  0  0  0
  186.3830  177.9610  143.5780 C   0  0  0  0  0  2  0  0  0  0  0  0
  186.6520  177.8280  146.0450 C   0  0  0  0  0  2  0  0  0  0  0  0
  186.9740  177.1400  144.7220 C   0  0  2  0  0  3  0  0  0  0  0  0
  184.6980  178.8380  145.0860 C   0  0  2  0  0  3  0  0  0  0  0  0
  184.2490  178.8710  142.7050 C   0  0  2  0  0  3  0  0  0  0  0  0
  186.2390  179.0030  140.9430 C   0  0  0  0  0  1  0  0  0  0  0  0
  182.8470  178.2930  142.5480 C   0  0  2  0  0  3  0  0  0  0  0  0
  180.7340  179.0470  141.5460 C   0  0  0  0  0  0  0  0  0  0  0  0
  182.7270  178.2170  141.0760 C   0  0  0  0  0  0  0  0  0  0  0  0
  181.6220  178.6010  140.5380 N   0  0  0  0  0  0  0  0  0  0  0  0
  179.5020  179.1960  141.3360 O   0  0  0  0  0  0  0  0  0  0  0  0
  184.8350  178.6760  141.3150 C   0  0  2  0  0  3  0  0  0  0  0  0
  183.9690  178.3460  140.4160 N   0  0  0  0  0  2  0  0  0  0  0  0
  181.4990  179.3780  143.1270 S   0  0  0  0  0  0  0  0  0  0  0  0
  188.4500  177.0280  144.5680 C   0  0  0  0  0  3  0  0  0  0  0  0
  189.2660  177.3630  145.5630 C   0  0  0  0  0  3  0  0  0  0  0  0
  190.7360  177.2770  145.4870 C   0  0  0  0  0  0  0  0  0  0  0  0
  191.3180  177.8340  144.4770 N   0  0  0  0  0  2  0  0  0  0  0  0
  191.5700  176.5930  146.4980 C   0  0  0  0  0  0  0  0  0  0  0  0
  191.6810  177.1270  147.7760 O   0  0  0  0  0  1  0  0  0  0  0  0
  192.1850  175.5270  146.2260 O   0  0  0  0  0  0  0  0  0  0  0  0
  1  5  1  6  0  0  0
  1  8  1  0  0  0  0
  3  4  1  0  0  0  0
  5  7  1  0  0  0  0
  6  3  1  0  0  0  0
  7 19  1  6  0  0  0
  7  6  1  0  0  0  0
  8  2  1  6  0  0  0
  8  3  1  0  0  0  0
  9  1  1  1  0  0  0
 11 13  1  6  0  0  0
 11  9  1  0  0  0  0
 11 18  1  0  0  0  0
 12 18  1  0  0  0  0
 14 13  2  0  0  0  0
 14 12  1  0  0  0  0
 15 12  2  0  0  0  0
 16 10  1  6  0  0  0
 16  9  1  0  0  0  0
 17 13  1  0  0  0  0
 17 16  1  0  0  0  0
 19 20  2  0  0  0  0
 21 20  1  0  0  0  0
 21 23  1  0  0  0  0
 22 21  2  0  0  0  0
 23 24  1  0  0  0  0
 25 23  2  0  0  0  0
M  END
>  <MODEL>
7

>  <REMARK>
 VINA RESULT:      -7.2      2.683      7.906
  Name = 
  4 active torsions:
  status: ('A' for Active; 'I' for Inactive)
    1  A    between atoms: C_1  and  N_3
    2  A    between atoms: C_2  and  CA_21
    3  A    between atoms: C_6  and  C_23
    4  A    between atoms: C_15  and  CA_21
                            x       y       z     vdW  Elec       q    Type
                         _______ _______ _______ _____ _____    ______ ____

>  <TORSDO>
F 4

$$$$
=
 OpenBabel11052412433D

 25 27  0  0  1  0  0  0  0  0999 V2000
  188.1940  177.4670  141.2410 N   0  0  1  0  0  0  0  0  0  0  0  0
  187.5710  179.7540  141.4030 O   0  0  0  0  0  1  0  0  0  0  0  0
  186.0070  178.0870  142.0250 N   0  0  0  0  0  0  0  0  0  0  0  0
  185.0460  179.0370  141.9180 O   0  0  0  0  0  1  0  0  0  0  0  0
  188.7240  177.4160  142.6120 C   0  0  0  0  0  2  0  0  0  0  0  0
  186.4710  178.0940  143.4120 C   0  0  0  0  0  2  0  0  0  0  0  0
  187.6020  177.0860  143.5940 C   0  0  2  0  0  3  0  0  0  0  0  0
  187.1120  178.4570  141.1280 C   0  0  2  0  0  3  0  0  0  0  0  0
  189.2110  177.6840  140.1960 C   0  0  2  0  0  3  0  0  0  0  0  0
  191.4050  177.1720  141.6150 C   0  0  0  0  0  1  0  0  0  0  0  0
  188.7310  177.0640  138.8900 C   0  0  2  0  0  3  0  0  0  0  0  0
  189.2690  177.3370  136.5080 C   0  0  0  0  0  0  0  0  0  0  0  0
  189.9720  176.4300  138.3950 C   0  0  0  0  0  0  0  0  0  0  0  0
  190.2620  176.5580  137.1470 N   0  0  0  0  0  0  0  0  0  0  0  0
  189.1470  177.3710  135.2560 O   0  0  0  0  0  0  0  0  0  0  0  0
  190.5450  176.9860  140.4150 C   0  0  2  0  0  3  0  0  0  0  0  0
  190.9690  176.3200  139.3920 N   0  0  0  0  0  2  0  0  0  0  0  0
  188.2130  178.2610  137.6150 S   0  0  0  0  0  0  0  0  0  0  0  0
  188.1040  177.1510  144.9940 C   0  0  0  0  0  3  0  0  0  0  0  0
  189.4030  177.0470  145.2570 C   0  0  0  0  0  3  0  0  0  0  0  0
  189.9750  177.1040  146.6150 C   0  0  0  0  0  0  0  0  0  0  0  0
  189.2200  177.5470  147.5660 N   0  0  0  0  0  2  0  0  0  0  0  0
  191.3540  176.6830  146.9410 C   0  0  0  0  0  0  0  0  0  0  0  0
  192.0490  175.8570  146.0650 O   0  0  0  0  0  0  0  0  0  0  0  0
  191.9180  177.0600  148.0030 O   0  0  0  0  0  1  0  0  0  0  0  0
  1  5  1  1  0  0  0
  3  6  1  0  0  0  0
  4  3  1  0  0  0  0
  5  7  1  0  0  0  0
  6  7  1  0  0  0  0
  7 19  1  1  0  0  0
  8  1  1  0  0  0  0
  8  2  1  1  0  0  0
  8  3  1  0  0  0  0
  9 16  1  0  0  0  0
  9  1  1  1  0  0  0
 11 18  1  6  0  0  0
 11  9  1  0  0  0  0
 12 14  1  0  0  0  0
 12 18  1  0  0  0  0
 13 11  1  0  0  0  0
 13 17  1  0  0  0  0
 14 13  2  0  0  0  0
 15 12  2  0  0  0  0
 16 10  1  6  0  0  0
 17 16  1  0  0  0  0
 19 20  2  0  0  0  0
 20 21  1  0  0  0  0
 21 23  1  0  0  0  0
 21 22  2  0  0  0  0
 23 25  1  0  0  0  0
 24 23  2  0  0  0  0
M  END
>  <MODEL>
8

>  <REMARK>
 VINA RESULT:      -7.2      3.777      7.580
  Name = 
  4 active torsions:
  status: ('A' for Active; 'I' for Inactive)
    1  A    between atoms: C_1  and  N_3
    2  A    between atoms: C_2  and  CA_21
    3  A    between atoms: C_6  and  C_23
    4  A    between atoms: C_15  and  CA_21
                            x       y       z     vdW  Elec       q    Type
                         _______ _______ _______ _____ _____    ______ ____

>  <TORSDO>
F 4

$$$$
=
 OpenBabel11052412433D

 25 27  0  0  1  0  0  0  0  0999 V2000
  191.0510  177.6740  142.6580 N   0  0  1  0  0  0  0  0  0  0  0  0
  190.2130  175.4520  142.5680 O   0  0  0  0  0  1  0  0  0  0  0  0
  191.8330  176.0060  144.2050 N   0  0  0  0  0  0  0  0  0  0  0  0
  192.0560  174.6770  144.3440 O   0  0  0  0  0  1  0  0  0  0  0  0
  190.0140  178.1290  143.5970 C   0  0  0  0  0  2  0  0  0  0  0  0
  190.8020  176.3780  145.1750 C   0  0  0  0  0  2  0  0  0  0  0  0
  190.4550  177.8570  145.0330 C   0  0  2  0  0  3  0  0  0  0  0  0
  191.3390  176.2430  142.8400 C   0  0  2  0  0  3  0  0  0  0  0  0
  190.7730  177.9740  141.2420 C   0  0  2  0  0  3  0  0  0  0  0  0
  193.1780  177.4810  140.2140 C   0  0  0  0  0  1  0  0  0  0  0  0
  189.4150  177.3950  140.8620 C   0  0  2  0  0  3  0  0  0  0  0  0
  187.7650  177.7940  139.0860 C   0  0  0  0  0  0  0  0  0  0  0  0
  189.7030  176.8300  139.5270 C   0  0  0  0  0  0  0  0  0  0  0  0
  188.8430  177.0240  138.5880 N   0  0  0  0  0  0  0  0  0  0  0  0
  186.6660  177.8790  138.4790 O   0  0  0  0  0  0  0  0  0  0  0  0
  191.6990  177.3160  140.2300 C   0  0  2  0  0  3  0  0  0  0  0  0
  191.0870  176.7130  139.2650 N   0  0  0  0  0  2  0  0  0  0  0  0
  188.0900  178.6280  140.6330 S   0  0  0  0  0  0  0  0  0  0  0  0
  189.3620  178.2020  145.9830 C   0  0  0  0  0  3  0  0  0  0  0  0
  188.1110  177.8150  145.7530 C   0  0  0  0  0  3  0  0  0  0  0  0
  186.9790  178.1160  146.6470 C   0  0  0  0  0  0  0  0  0  0  0  0
  187.1790  178.0310  147.9210 N   0  0  0  0  0  2  0  0  0  0  0  0
  185.6370  178.5090  146.1650 C   0  0  0  0  0  0  0  0  0  0  0  0
  184.5240  178.2910  146.9690 O   0  0  0  0  0  1  0  0  0  0  0  0
  185.4800  179.0420  145.0350 O   0  0  0  0  0  0  0  0  0  0  0  0
  1  8  1  0  0  0  0
  1  5  1  1  0  0  0
  3  4  1  0  0  0  0
  3  6  1  0  0  0  0
  5  7  1  0  0  0  0
  7  6  1  0  0  0  0
  7 19  1  1  0  0  0
  8  2  1  1  0  0  0
  8  3  1  0  0  0  0
  9  1  1  1  0  0  0
 11 13  1  6  0  0  0
 11  9  1  0  0  0  0
 12 18  1  0  0  0  0
 14 12  1  0  0  0  0
 14 13  2  0  0  0  0
 15 12  2  0  0  0  0
 16 10  1  6  0  0  0
 16  9  1  0  0  0  0
 17 13  1  0  0  0  0
 17 16  1  0  0  0  0
 18 11  1  0  0  0  0
 20 19  2  0  0  0  0
 20 21  1  0  0  0  0
 21 22  2  0  0  0  0
 23 21  1  0  0  0  0
 23 24  1  0  0  0  0
 25 23  2  0  0  0  0
M  END
>  <MODEL>
9

>  <REMARK>
 VINA RESULT:      -7.1      3.203      6.679
  Name = 
  4 active torsions:
  status: ('A' for Active; 'I' for Inactive)
    1  A    between atoms: C_1  and  N_3
    2  A    between atoms: C_2  and  CA_21
    3  A    between atoms: C_6  and  C_23
    4  A    between atoms: C_15  and  CA_21
                            x       y       z     vdW  Elec       q    Type
                         _______ _______ _______ _____ _____    ______ ____

>  <TORSDO>
F 4

$$$$
