=
 OpenBabel11052414593D

 55 59  0  0  1  0  0  0  0  0999 V2000
  189.4020  176.8750  137.0370 C   0  0  0  0  0  2  0  0  0  0  0  0
  190.2940  177.2230  139.7070 C   0  0  0  0  0  0  0  0  0  0  0  0
  189.4580  178.3540  139.1690 C   0  0  0  0  0  2  0  0  0  0  0  0
  190.8550  176.6060  137.3950 C   0  0  0  0  0  2  0  0  0  0  0  0
  188.8740  178.1240  137.7530 C   0  0  2  0  0  3  0  0  0  0  0  0
  190.9520  176.4080  138.8730 C   0  0  0  0  0  3  0  0  0  0  0  0
  190.3970  177.0800  141.0940 O   0  0  0  0  0  0  0  0  0  0  0  0
  191.5870  177.3760  141.8170 C   0  0  0  0  0  2  0  0  0  0  0  0
  191.2470  178.2050  143.0370 C   0  0  0  0  0  2  0  0  0  0  0  0
  191.5120  177.3920  144.2920 C   0  0  0  0  0  2  0  0  0  0  0  0
  190.5930  177.8170  145.4310 C   0  0  1  0  0  3  0  0  0  0  0  0
  189.2580  178.3430  144.9050 C   0  0  0  0  0  2  0  0  0  0  0  0
  187.1470  177.7390  142.6440 C   0  0  0  0  0  0  0  0  0  0  0  0
  187.1080  178.5020  146.5530 F   0  0  0  0  0  0  0  0  0  0  0  0
  188.2090  177.2350  144.8040 C   0  0  1  0  0  3  0  0  0  0  0  0
  183.7650  178.9910  143.0690 N   0  0  0  0  0  2  0  0  0  0  0  0
  186.4600  176.3940  146.1730 F   0  0  0  0  0  0  0  0  0  0  0  0
  186.8870  177.5570  145.5610 C   0  0  0  0  0  0  0  0  0  0  0  0
  187.1750  177.6400  141.3890 O   0  0  0  0  0  0  0  0  0  0  0  0
  183.7920  179.6360  144.3790 C   0  0  0  0  0  2  0  0  0  0  0  0
  184.6660  178.8410  145.3540 C   0  0  0  0  0  2  0  0  0  0  0  0
  186.2440  178.7120  143.3360 C   0  0  2  0  0  3  0  0  0  0  0  0
  185.7550  178.0370  144.6260 C   0  0  1  0  0  3  0  0  0  0  0  0
  185.0770  179.1650  142.4360 C   0  0  0  0  0  2  0  0  0  0  0  0
  187.9810  176.9370  143.4250 O   0  0  0  0  0  0  0  0  0  0  0  0
  190.4060  176.6800  146.4400 C   0  0  0  0  0  2  0  0  0  0  0  0
  192.1770  177.0150  148.1720 O   0  0  0  0  0  1  0  0  0  0  0  0
  191.6850  176.2740  147.1060 C   0  0  0  0  0  0  0  0  0  0  0  0
  192.3310  175.2810  146.6820 O   0  0  0  0  0  0  0  0  0  0  0  0
  187.3580  178.0490  137.8060 C   0  0  0  0  0  2  0  0  0  0  0  0
  186.8120  177.1610  136.7040 C   0  0  0  0  0  2  0  0  0  0  0  0
  186.0050  176.0400  137.3240 C   0  0  0  0  0  2  0  0  0  0  0  0
  185.6310  175.0220  136.2650 C   0  0  0  0  0  2  0  0  0  0  0  0
  184.1300  174.7010  136.3520 C   0  0  1  0  0  3  0  0  0  0  0  0
  184.3910  172.3290  136.4870 C   0  0  0  0  0  2  0  0  0  0  0  0
  182.1060  171.7250  136.0400 C   0  0  1  0  0  3  0  0  0  0  0  0
  183.7720  173.4180  135.7320 N   0  0  0  0  0  0  0  0  0  0  0  0
  182.3270  173.1920  135.7460 C   0  0  0  0  0  2  0  0  0  0  0  0
  183.3160  171.3210  136.8460 C   0  0  0  0  0  2  0  0  0  0  0  0
  180.8270  171.5080  136.7950 C   0  0  0  0  0  0  0  0  0  0  0  0
  179.8500  170.6480  136.3070 O   0  0  0  0  0  0  0  0  0  0  0  0
  180.6060  172.1570  137.8510 O   0  0  0  0  0  1  0  0  0  0  0  0
  183.6280  174.7440  137.7950 C   0  0  0  0  0  2  0  0  0  0  0  0
  180.0740  177.6170  138.2590 C   0  0  0  0  0  2  0  0  0  0  0  0
  180.5500  176.4960  139.1750 C   0  0  0  0  0  2  0  0  0  0  0  0
  182.6430  176.7480  136.7660 C   0  0  0  0  0  3  0  0  0  0  0  0
  182.7110  175.9320  138.0240 C   0  0  1  0  0  3  0  0  0  0  0  0
  181.3260  175.4290  138.4140 C   0  0  0  0  0  2  0  0  0  0  0  0
  181.9770  177.9070  136.6820 C   0  0  0  0  0  3  0  0  0  0  0  0
  181.2320  178.5140  137.8370 C   0  0  1  0  0  3  0  0  0  0  0  0
  180.6790  179.8760  137.4320 C   0  0  0  0  0  2  0  0  0  0  0  0
  182.5240  180.9090  138.7030 C   0  0  0  0  0  1  0  0  0  0  0  0
  180.2770  180.8840  139.7010 C   0  0  0  0  0  1  0  0  0  0  0  0
  180.7730  182.3610  137.7720 C   0  0  0  0  0  1  0  0  0  0  0  0
  181.0450  181.0050  138.3980 C   0  0  0  0  0  0  0  0  0  0  0  0
  1  4  1  0  0  0  0
  1  5  1  0  0  0  0
  2  7  1  0  0  0  0
  3  2  1  0  0  0  0
  4  6  1  0  0  0  0
  5 30  1  1  0  0  0
  5  3  1  0  0  0  0
  6  2  2  0  0  0  0
  7  8  1  0  0  0  0
  8  9  1  0  0  0  0
  9 10  1  0  0  0  0
 11 10  1  6  0  0  0
 11 26  1  0  0  0  0
 12 11  1  0  0  0  0
 13 22  1  0  0  0  0
 13 25  1  0  0  0  0
 15 12  1  6  0  0  0
 15 18  1  0  0  0  0
 16 20  1  0  0  0  0
 18 17  1  0  0  0  0
 18 14  1  0  0  0  0
 19 13  2  0  0  0  0
 20 21  1  0  0  0  0
 22 24  1  6  0  0  0
 22 23  1  0  0  0  0
 23 21  1  1  0  0  0
 23 18  1  0  0  0  0
 24 16  1  0  0  0  0
 25 15  1  0  0  0  0
 26 28  1  0  0  0  0
 28 27  1  0  0  0  0
 29 28  2  0  0  0  0
 31 32  1  0  0  0  0
 31 30  1  0  0  0  0
 33 32  1  0  0  0  0
 34 33  1  1  0  0  0
 34 43  1  0  0  0  0
 35 39  1  0  0  0  0
 36 40  1  1  0  0  0
 36 39  1  0  0  0  0
 37 38  1  0  0  0  0
 37 34  1  0  0  0  0
 37 35  1  0  0  0  0
 38 36  1  0  0  0  0
 40 42  1  0  0  0  0
 41 40  2  0  0  0  0
 44 45  1  0  0  0  0
 46 47  1  0  0  0  0
 47 43  1  6  0  0  0
 47 48  1  0  0  0  0
 48 45  1  0  0  0  0
 49 46  2  0  0  0  0
 49 50  1  0  0  0  0
 50 51  1  6  0  0  0
 50 44  1  0  0  0  0
 51 55  1  0  0  0  0
 54 55  1  0  0  0  0
 55 52  1  0  0  0  0
 55 53  1  0  0  0  0
M  END
>  <MODEL>
1

>  <REMARK>
 VINA RESULT:      -7.6      0.000      0.000
  Name = 
  20 active torsions:
  status: ('A' for Active; 'I' for Inactive)
    1  A    between atoms: C_2  and  C_28
    2  A    between atoms: C_2  and  C_44
    3  A    between atoms: C_6  and  C_46
    4  A    between atoms: C_8  and  C_20
    5  A    between atoms: C_8  and  C_22
    6  A    between atoms: C_10  and  C_32
    7  A    between atoms: C_17  and  C_36
    8  A    between atoms: C_19  and  C_40
    9  A    between atoms: C_19  and  C_45
   10  A    between atoms: C_22  and  C_35
   11  A    between atoms: C_22  and  C_46
   12  A    between atoms: C_27  and  O_54
   13  A    between atoms: C_28  and  C_49
   14  A    between atoms: C_33  and  C_49
   15  A    between atoms: C_33  and  C_52
   16  A    between atoms: N_34  and  C_52
   17  A    between atoms: C_35  and  C_43
   18  A    between atoms: C_36  and  C_52
   19  A    between atoms: C_43  and  C_51
   20  A    between atoms: C_51  and  O_54
                            x       y       z     vdW  Elec       q    Type
                         _______ _______ _______ _____ _____    ______ ____

>  <TORSDO>
F 20

$$$$
=
 OpenBabel11052414593D

 55 59  0  0  1  0  0  0  0  0999 V2000
  186.4700  177.1740  136.1040 C   0  0  0  0  0  2  0  0  0  0  0  0
  185.4340  178.3510  138.4690 C   0  0  0  0  0  0  0  0  0  0  0  0
  186.8210  177.7780  138.6030 C   0  0  0  0  0  2  0  0  0  0  0  0
  185.0560  176.8490  136.5590 C   0  0  0  0  0  2  0  0  0  0  0  0
  187.4380  177.2330  137.2920 C   0  0  2  0  0  3  0  0  0  0  0  0
  184.6080  177.9090  137.5120 C   0  0  0  0  0  3  0  0  0  0  0  0
  185.0260  179.3160  139.3930 O   0  0  0  0  0  0  0  0  0  0  0  0
  183.6650  179.5110  139.7590 C   0  0  0  0  0  2  0  0  0  0  0  0
  183.4190  178.9270  141.1330 C   0  0  0  0  0  2  0  0  0  0  0  0
  184.4760  177.8780  141.4340 C   0  0  0  0  0  2  0  0  0  0  0  0
  185.2710  178.2370  142.6840 C   0  0  1  0  0  3  0  0  0  0  0  0
  186.7380  178.5080  142.3540 C   0  0  0  0  0  2  0  0  0  0  0  0
  188.1580  177.0710  144.7730 C   0  0  0  0  0  0  0  0  0  0  0  0
  189.2160  178.6050  141.2530 F   0  0  0  0  0  0  0  0  0  0  0  0
  187.5760  177.2280  142.3890 C   0  0  1  0  0  3  0  0  0  0  0  0
  191.6810  177.7390  145.3430 N   0  0  0  0  0  2  0  0  0  0  0  0
  189.4680  176.3820  141.2320 F   0  0  0  0  0  0  0  0  0  0  0  0
  189.0690  177.4510  142.0110 C   0  0  0  0  0  0  0  0  0  0  0  0
  187.8230  176.7220  145.9360 O   0  0  0  0  0  0  0  0  0  0  0  0
  192.0490  178.6350  144.2500 C   0  0  0  0  0  2  0  0  0  0  0  0
  191.3310  178.2330  142.9590 C   0  0  0  0  0  2  0  0  0  0  0  0
  189.3200  177.9830  144.5310 C   0  0  2  0  0  3  0  0  0  0  0  0
  190.0040  177.5110  143.2390 C   0  0  1  0  0  3  0  0  0  0  0  0
  190.2930  178.0170  145.7270 C   0  0  0  0  0  2  0  0  0  0  0  0
  187.4310  176.6150  143.6720 O   0  0  0  0  0  0  0  0  0  0  0  0
  184.6230  179.4070  143.4310 C   0  0  0  0  0  2  0  0  0  0  0  0
  185.0380  178.3460  145.6550 O   0  0  0  0  0  1  0  0  0  0  0  0
  184.1800  179.0430  144.8150 C   0  0  0  0  0  0  0  0  0  0  0  0
  183.0230  179.3390  145.2080 O   0  0  0  0  0  0  0  0  0  0  0  0
  188.6500  178.0560  136.8900 C   0  0  0  0  0  2  0  0  0  0  0  0
  189.8070  177.8360  137.8460 C   0  0  0  0  0  2  0  0  0  0  0  0
  190.4940  176.5310  137.5010 C   0  0  0  0  0  2  0  0  0  0  0  0
  190.8370  176.5000  136.0240 C   0  0  0  0  0  2  0  0  0  0  0  0
  191.0070  175.0450  135.5570 C   0  0  1  0  0  3  0  0  0  0  0  0
  192.9800  175.9900  134.5940 C   0  0  0  0  0  2  0  0  0  0  0  0
  194.5940  174.7810  135.9060 C   0  0  1  0  0  3  0  0  0  0  0  0
  192.3560  174.7490  135.0530 N   0  0  0  0  0  0  0  0  0  0  0  0
  193.2150  174.1890  136.0960 C   0  0  0  0  0  2  0  0  0  0  0  0
  194.3370  176.1200  135.2580 C   0  0  0  0  0  2  0  0  0  0  0  0
  195.3110  174.9170  137.2170 C   0  0  0  0  0  0  0  0  0  0  0  0
  194.6030  175.0530  138.4050 O   0  0  0  0  0  1  0  0  0  0  0  0
  196.5690  174.9710  137.2400 O   0  0  0  0  0  0  0  0  0  0  0  0
  190.6280  174.0520  136.6550 C   0  0  0  0  0  2  0  0  0  0  0  0
  187.3140  171.5150  134.7340 C   0  0  0  0  0  2  0  0  0  0  0  0
  188.5930  171.0800  135.4390 C   0  0  0  0  0  2  0  0  0  0  0  0
  188.3910  174.2670  135.6560 C   0  0  0  0  0  3  0  0  0  0  0  0
  189.3470  173.3130  136.3110 C   0  0  1  0  0  3  0  0  0  0  0  0
  189.6720  172.1530  135.3770 C   0  0  0  0  0  2  0  0  0  0  0  0
  187.1420  173.9300  135.3120 C   0  0  0  0  0  3  0  0  0  0  0  0
  186.5640  172.5630  135.5490 C   0  0  1  0  0  3  0  0  0  0  0  0
  185.0960  172.5480  135.1370 C   0  0  0  0  0  2  0  0  0  0  0  0
  182.8950  173.1920  136.0480 C   0  0  0  0  0  1  0  0  0  0  0  0
  184.7490  172.8030  137.6160 C   0  0  0  0  0  1  0  0  0  0  0  0
  183.7030  170.9000  136.4180 C   0  0  0  0  0  1  0  0  0  0  0  0
  184.1280  172.3530  136.3070 C   0  0  0  0  0  0  0  0  0  0  0  0
  1  4  1  0  0  0  0
  1  5  1  0  0  0  0
  2  3  1  0  0  0  0
  2  7  1  0  0  0  0
  4  6  1  0  0  0  0
  5 30  1  6  0  0  0
  5  3  1  0  0  0  0
  6  2  2  0  0  0  0
  7  8  1  0  0  0  0
  8  9  1  0  0  0  0
  9 10  1  0  0  0  0
 11 10  1  6  0  0  0
 11 26  1  0  0  0  0
 12 11  1  0  0  0  0
 13 19  2  0  0  0  0
 14 18  1  0  0  0  0
 15 12  1  1  0  0  0
 15 25  1  0  0  0  0
 16 24  1  0  0  0  0
 17 18  1  0  0  0  0
 18 15  1  0  0  0  0
 18 23  1  0  0  0  0
 20 16  1  0  0  0  0
 21 20  1  0  0  0  0
 22 13  1  0  0  0  0
 22 24  1  1  0  0  0
 23 21  1  6  0  0  0
 23 22  1  0  0  0  0
 25 13  1  0  0  0  0
 26 28  1  0  0  0  0
 28 29  2  0  0  0  0
 28 27  1  0  0  0  0
 30 31  1  0  0  0  0
 32 31  1  0  0  0  0
 33 32  1  0  0  0  0
 34 33  1  1  0  0  0
 34 43  1  0  0  0  0
 35 37  1  0  0  0  0
 35 39  1  0  0  0  0
 36 38  1  0  0  0  0
 36 40  1  1  0  0  0
 37 34  1  0  0  0  0
 37 38  1  0  0  0  0
 39 36  1  0  0  0  0
 40 42  2  0  0  0  0
 40 41  1  0  0  0  0
 44 45  1  0  0  0  0
 44 50  1  0  0  0  0
 46 47  1  0  0  0  0
 47 43  1  6  0  0  0
 48 45  1  0  0  0  0
 48 47  1  0  0  0  0
 49 50  1  0  0  0  0
 49 46  2  0  0  0  0
 50 51  1  6  0  0  0
 51 55  1  0  0  0  0
 52 55  1  0  0  0  0
 55 54  1  0  0  0  0
 55 53  1  0  0  0  0
M  END
>  <MODEL>
2

>  <REMARK>
 VINA RESULT:      -7.2      3.497      8.008
  Name = 
  20 active torsions:
  status: ('A' for Active; 'I' for Inactive)
    1  A    between atoms: C_2  and  C_28
    2  A    between atoms: C_2  and  C_44
    3  A    between atoms: C_6  and  C_46
    4  A    between atoms: C_8  and  C_20
    5  A    between atoms: C_8  and  C_22
    6  A    between atoms: C_10  and  C_32
    7  A    between atoms: C_17  and  C_36
    8  A    between atoms: C_19  and  C_40
    9  A    between atoms: C_19  and  C_45
   10  A    between atoms: C_22  and  C_35
   11  A    between atoms: C_22  and  C_46
   12  A    between atoms: C_27  and  O_54
   13  A    between atoms: C_28  and  C_49
   14  A    between atoms: C_33  and  C_49
   15  A    between atoms: C_33  and  C_52
   16  A    between atoms: N_34  and  C_52
   17  A    between atoms: C_35  and  C_43
   18  A    between atoms: C_36  and  C_52
   19  A    between atoms: C_43  and  C_51
   20  A    between atoms: C_51  and  O_54
                            x       y       z     vdW  Elec       q    Type
                         _______ _______ _______ _____ _____    ______ ____

>  <TORSDO>
F 20

$$$$
=
 OpenBabel11052414593D

 55 59  0  0  1  0  0  0  0  0999 V2000
  188.8230  177.6730  146.1310 C   0  0  0  0  0  2  0  0  0  0  0  0
  190.7280  176.9970  144.1400 C   0  0  0  0  0  0  0  0  0  0  0  0
  189.3290  176.5120  143.8660 C   0  0  0  0  0  2  0  0  0  0  0  0
  190.1700  177.0920  146.5320 C   0  0  0  0  0  2  0  0  0  0  0  0
  188.2610  176.9680  144.8900 C   0  0  2  0  0  3  0  0  0  0  0  0
  191.1200  177.2640  145.3920 C   0  0  0  0  0  3  0  0  0  0  0  0
  191.6080  177.1170  143.0610 O   0  0  0  0  0  0  0  0  0  0  0  0
  191.2090  177.6070  141.7860 C   0  0  0  0  0  2  0  0  0  0  0  0
  190.4610  176.5250  141.0370 C   0  0  0  0  0  2  0  0  0  0  0  0
  189.5320  177.1620  140.0190 C   0  0  0  0  0  2  0  0  0  0  0  0
  190.2490  177.4190  138.6990 C   0  0  1  0  0  3  0  0  0  0  0  0
  190.6680  176.1120  138.0270 C   0  0  0  0  0  2  0  0  0  0  0  0
  191.6540  174.1910  135.7310 C   0  0  0  0  0  0  0  0  0  0  0  0
  193.2830  176.2270  138.7410 F   0  0  0  0  0  0  0  0  0  0  0  0
  191.6930  176.3460  136.9160 C   0  0  1  0  0  3  0  0  0  0  0  0
  194.7170  172.3130  136.2560 N   0  0  0  0  0  2  0  0  0  0  0  0
  193.9450  177.0850  136.7840 F   0  0  0  0  0  0  0  0  0  0  0  0
  193.1640  176.1040  137.3640 C   0  0  0  0  0  0  0  0  0  0  0  0
  191.0990  173.4490  134.8770 O   0  0  0  0  0  0  0  0  0  0  0  0
  195.1810  172.7600  137.5660 C   0  0  0  0  0  2  0  0  0  0  0  0
  194.9120  174.2560  137.7530 C   0  0  0  0  0  2  0  0  0  0  0  0
  192.6460  173.6540  136.7140 C   0  0  2  0  0  3  0  0  0  0  0  0
  193.7180  174.7350  136.9130 C   0  0  1  0  0  3  0  0  0  0  0  0
  193.2500  172.3100  136.2570 C   0  0  0  0  0  2  0  0  0  0  0  0
  191.3370  175.5500  135.7830 O   0  0  0  0  0  0  0  0  0  0  0  0
  189.4000  178.2960  137.7740 C   0  0  0  0  0  2  0  0  0  0  0  0
  187.0230  178.7250  138.4120 O   0  0  0  0  0  1  0  0  0  0  0  0
  187.9530  177.9150  137.7730 C   0  0  0  0  0  0  0  0  0  0  0  0
  187.5790  176.8470  137.2230 O   0  0  0  0  0  0  0  0  0  0  0  0
  187.2460  177.8860  144.2300 C   0  0  0  0  0  2  0  0  0  0  0  0
  186.8520  177.3750  142.8570 C   0  0  0  0  0  2  0  0  0  0  0  0
  186.8890  178.5240  141.8710 C   0  0  0  0  0  2  0  0  0  0  0  0
  185.5470  179.2300  141.8480 C   0  0  0  0  0  2  0  0  0  0  0  0
  184.4450  178.2490  141.4160 C   0  0  1  0  0  3  0  0  0  0  0  0
  183.6450  178.9560  143.5550 C   0  0  0  0  0  2  0  0  0  0  0  0
  181.2930  178.8990  143.0580 C   0  0  1  0  0  3  0  0  0  0  0  0
  183.4350  178.0120  142.4570 N   0  0  0  0  0  0  0  0  0  0  0  0
  182.0770  178.2220  141.9560 C   0  0  0  0  0  2  0  0  0  0  0  0
  182.3340  179.6600  143.8410 C   0  0  0  0  0  2  0  0  0  0  0  0
  180.2360  179.8040  142.4950 C   0  0  0  0  0  0  0  0  0  0  0  0
  179.5520  179.4630  141.3340 O   0  0  0  0  0  0  0  0  0  0  0  0
  180.0040  180.9130  143.0430 O   0  0  0  0  0  1  0  0  0  0  0  0
  183.7680  178.6950  140.1210 C   0  0  0  0  0  2  0  0  0  0  0  0
  183.3040  176.0810  136.3720 C   0  0  0  0  0  2  0  0  0  0  0  0
  184.1150  177.3540  136.5810 C   0  0  0  0  0  2  0  0  0  0  0  0
  182.8150  176.5490  139.3930 C   0  0  0  0  0  3  0  0  0  0  0  0
  183.8270  177.6070  139.0650 C   0  0  1  0  0  3  0  0  0  0  0  0
  183.5420  178.2180  137.6980 C   0  0  0  0  0  2  0  0  0  0  0  0
  182.6850  175.4170  138.6900 C   0  0  0  0  0  3  0  0  0  0  0  0
  183.5420  175.0840  137.5010 C   0  0  1  0  0  3  0  0  0  0  0  0
  183.2050  173.6830  137.0020 C   0  0  0  0  0  2  0  0  0  0  0  0
  185.4050  172.9070  137.8050 C   0  0  0  0  0  1  0  0  0  0  0  0
  185.1250  173.3740  135.4060 C   0  0  0  0  0  1  0  0  0  0  0  0
  184.0460  171.3890  136.4300 C   0  0  0  0  0  1  0  0  0  0  0  0
  184.4330  172.8410  136.6470 C   0  0  0  0  0  0  0  0  0  0  0  0
  1  4  1  0  0  0  0
  2  6  2  0  0  0  0
  3  2  1  0  0  0  0
  3  5  1  0  0  0  0
  5 30  1  6  0  0  0
  5  1  1  0  0  0  0
  6  4  1  0  0  0  0
  7  2  1  0  0  0  0
  8  7  1  0  0  0  0
  9  8  1  0  0  0  0
 10  9  1  0  0  0  0
 11 26  1  6  0  0  0
 11 10  1  0  0  0  0
 12 11  1  0  0  0  0
 13 25  1  0  0  0  0
 13 22  1  0  0  0  0
 15 18  1  0  0  0  0
 15 12  1  1  0  0  0
 16 24  1  0  0  0  0
 16 20  1  0  0  0  0
 17 18  1  0  0  0  0
 18 14  1  0  0  0  0
 19 13  2  0  0  0  0
 20 21  1  0  0  0  0
 22 24  1  6  0  0  0
 22 23  1  0  0  0  0
 23 18  1  0  0  0  0
 23 21  1  1  0  0  0
 25 15  1  0  0  0  0
 28 26  1  0  0  0  0
 28 27  1  0  0  0  0
 29 28  2  0  0  0  0
 31 30  1  0  0  0  0
 32 31  1  0  0  0  0
 33 32  1  0  0  0  0
 34 43  1  6  0  0  0
 34 33  1  0  0  0  0
 34 37  1  0  0  0  0
 35 39  1  0  0  0  0
 36 40  1  6  0  0  0
 36 39  1  0  0  0  0
 37 35  1  0  0  0  0
 38 37  1  0  0  0  0
 38 36  1  0  0  0  0
 40 42  1  0  0  0  0
 41 40  2  0  0  0  0
 44 45  1  0  0  0  0
 44 50  1  0  0  0  0
 45 48  1  0  0  0  0
 47 46  1  0  0  0  0
 47 43  1  1  0  0  0
 48 47  1  0  0  0  0
 49 46  2  0  0  0  0
 50 51  1  6  0  0  0
 50 49  1  0  0  0  0
 53 55  1  0  0  0  0
 54 55  1  0  0  0  0
 55 51  1  0  0  0  0
 55 52  1  0  0  0  0
M  END
>  <MODEL>
3

>  <REMARK>
 VINA RESULT:      -7.1      3.846      8.560
  Name = 
  20 active torsions:
  status: ('A' for Active; 'I' for Inactive)
    1  A    between atoms: C_2  and  C_28
    2  A    between atoms: C_2  and  C_44
    3  A    between atoms: C_6  and  C_46
    4  A    between atoms: C_8  and  C_20
    5  A    between atoms: C_8  and  C_22
    6  A    between atoms: C_10  and  C_32
    7  A    between atoms: C_17  and  C_36
    8  A    between atoms: C_19  and  C_40
    9  A    between atoms: C_19  and  C_45
   10  A    between atoms: C_22  and  C_35
   11  A    between atoms: C_22  and  C_46
   12  A    between atoms: C_27  and  O_54
   13  A    between atoms: C_28  and  C_49
   14  A    between atoms: C_33  and  C_49
   15  A    between atoms: C_33  and  C_52
   16  A    between atoms: N_34  and  C_52
   17  A    between atoms: C_35  and  C_43
   18  A    between atoms: C_36  and  C_52
   19  A    between atoms: C_43  and  C_51
   20  A    between atoms: C_51  and  O_54
                            x       y       z     vdW  Elec       q    Type
                         _______ _______ _______ _____ _____    ______ ____

>  <TORSDO>
F 20

$$$$
=
 OpenBabel11052414593D

 55 59  0  0  1  0  0  0  0  0999 V2000
  181.1880  180.0840  139.6630 C   0  0  0  0  0  2  0  0  0  0  0  0
  180.8410  178.9350  142.2340 C   0  0  0  0  0  0  0  0  0  0  0  0
  181.3110  177.9760  141.1720 C   0  0  0  0  0  2  0  0  0  0  0  0
  179.9250  180.3690  140.4600 C   0  0  0  0  0  2  0  0  0  0  0  0
  181.6080  178.6150  139.7940 C   0  0  2  0  0  3  0  0  0  0  0  0
  180.1880  180.0540  141.8970 C   0  0  0  0  0  3  0  0  0  0  0  0
  181.0680  178.6020  143.5720 O   0  0  0  0  0  0  0  0  0  0  0  0
  182.1950  179.0680  144.3060 C   0  0  0  0  0  2  0  0  0  0  0  0
  183.4680  178.6520  143.6010 C   0  0  0  0  0  2  0  0  0  0  0  0
  184.6640  179.2510  144.3190 C   0  0  0  0  0  2  0  0  0  0  0  0
  185.4390  178.1870  145.0880 C   0  0  1  0  0  3  0  0  0  0  0  0
  186.9450  178.3250  144.8690 C   0  0  0  0  0  2  0  0  0  0  0  0
  189.9710  177.5450  145.2790 C   0  0  0  0  0  0  0  0  0  0  0  0
  187.2320  177.2250  142.4050 F   0  0  0  0  0  0  0  0  0  0  0  0
  187.6340  176.9620  144.7810 C   0  0  1  0  0  3  0  0  0  0  0  0
  192.0850  177.2500  142.3410 N   0  0  0  0  0  2  0  0  0  0  0  0
  187.7600  175.1990  143.1950 F   0  0  0  0  0  0  0  0  0  0  0  0
  188.0170  176.5500  143.3290 C   0  0  0  0  0  0  0  0  0  0  0  0
  190.8530  177.7830  146.1460 O   0  0  0  0  0  0  0  0  0  0  0  0
  191.1750  177.5040  141.2280 C   0  0  0  0  0  2  0  0  0  0  0  0
  189.8000  176.8890  141.5040 C   0  0  0  0  0  2  0  0  0  0  0  0
  190.1730  177.8880  143.8360 C   0  0  2  0  0  3  0  0  0  0  0  0
  189.5120  176.7760  143.0090 C   0  0  1  0  0  3  0  0  0  0  0  0
  191.6640  178.0680  143.4840 C   0  0  0  0  0  2  0  0  0  0  0  0
  188.7630  176.9570  145.6580 O   0  0  0  0  0  0  0  0  0  0  0  0
  185.0690  178.2050  146.5750 C   0  0  0  0  0  2  0  0  0  0  0  0
  187.0600  178.1950  148.0840 O   0  0  0  0  0  1  0  0  0  0  0  0
  186.0790  178.9180  147.4190 C   0  0  0  0  0  0  0  0  0  0  0  0
  186.0230  180.1680  147.5540 O   0  0  0  0  0  0  0  0  0  0  0  0
  183.0860  178.5020  139.4610 C   0  0  0  0  0  2  0  0  0  0  0  0
  183.3580  177.3200  138.5490 C   0  0  0  0  0  2  0  0  0  0  0  0
  182.6080  177.5160  137.2480 C   0  0  0  0  0  2  0  0  0  0  0  0
  182.9880  176.4280  136.2620 C   0  0  0  0  0  2  0  0  0  0  0  0
  184.4660  176.0480  136.4440 C   0  0  1  0  0  3  0  0  0  0  0  0
  184.7910  173.8580  137.3460 C   0  0  0  0  0  2  0  0  0  0  0  0
  183.4960  172.6420  135.7240 C   0  0  1  0  0  3  0  0  0  0  0  0
  184.7510  174.6450  136.1130 N   0  0  0  0  0  0  0  0  0  0  0  0
  183.7150  174.0650  135.2600 C   0  0  0  0  0  2  0  0  0  0  0  0
  183.8640  172.6690  137.1870 C   0  0  0  0  0  2  0  0  0  0  0  0
  182.0740  172.2130  135.5080 C   0  0  0  0  0  0  0  0  0  0  0  0
  181.0190  172.9740  135.9980 O   0  0  0  0  0  1  0  0  0  0  0  0
  181.8310  171.1210  134.9300 O   0  0  0  0  0  0  0  0  0  0  0  0
  185.3880  176.9720  135.6500 C   0  0  0  0  0  2  0  0  0  0  0  0
  189.4730  177.9100  137.5290 C   0  0  0  0  0  2  0  0  0  0  0  0
  188.1140  177.7190  138.1910 C   0  0  0  0  0  2  0  0  0  0  0  0
  187.7700  177.1380  135.0630 C   0  0  0  0  0  3  0  0  0  0  0  0
  186.8050  176.9370  136.1940 C   0  0  1  0  0  3  0  0  0  0  0  0
  186.9670  178.0340  137.2400 C   0  0  0  0  0  2  0  0  0  0  0  0
  189.0990  177.0750  135.2150 C   0  0  0  0  0  3  0  0  0  0  0  0
  189.7630  176.7930  136.5330 C   0  0  1  0  0  3  0  0  0  0  0  0
  191.2720  176.6880  136.3350 C   0  0  0  0  0  2  0  0  0  0  0  0
  192.7770  175.7680  138.0590 C   0  0  0  0  0  1  0  0  0  0  0  0
  192.7190  174.6880  135.8510 C   0  0  0  0  0  1  0  0  0  0  0  0
  190.7970  174.4670  137.4030 C   0  0  0  0  0  1  0  0  0  0  0  0
  191.8810  175.4010  136.8960 C   0  0  0  0  0  0  0  0  0  0  0  0
  1  5  1  0  0  0  0
  1  4  1  0  0  0  0
  2  7  1  0  0  0  0
  3  2  1  0  0  0  0
  4  6  1  0  0  0  0
  5 30  1  1  0  0  0
  5  3  1  0  0  0  0
  6  2  2  0  0  0  0
  7  8  1  0  0  0  0
  9  8  1  0  0  0  0
  9 10  1  0  0  0  0
 11 10  1  6  0  0  0
 11 26  1  0  0  0  0
 12 11  1  0  0  0  0
 13 25  1  0  0  0  0
 13 19  2  0  0  0  0
 14 18  1  0  0  0  0
 15 12  1  6  0  0  0
 15 25  1  0  0  0  0
 16 24  1  0  0  0  0
 17 18  1  0  0  0  0
 18 15  1  0  0  0  0
 20 21  1  0  0  0  0
 20 16  1  0  0  0  0
 22 24  1  6  0  0  0
 22 13  1  0  0  0  0
 23 21  1  6  0  0  0
 23 18  1  0  0  0  0
 23 22  1  0  0  0  0
 26 28  1  0  0  0  0
 28 29  2  0  0  0  0
 28 27  1  0  0  0  0
 31 30  1  0  0  0  0
 32 31  1  0  0  0  0
 33 34  1  0  0  0  0
 33 32  1  0  0  0  0
 34 43  1  6  0  0  0
 36 40  1  1  0  0  0
 36 39  1  0  0  0  0
 37 34  1  0  0  0  0
 37 35  1  0  0  0  0
 38 36  1  0  0  0  0
 38 37  1  0  0  0  0
 39 35  1  0  0  0  0
 40 41  1  0  0  0  0
 42 40  2  0  0  0  0
 44 45  1  0  0  0  0
 46 49  2  0  0  0  0
 46 47  1  0  0  0  0
 47 43  1  6  0  0  0
 47 48  1  0  0  0  0
 48 45  1  0  0  0  0
 49 50  1  0  0  0  0
 50 51  1  6  0  0  0
 50 44  1  0  0  0  0
 51 55  1  0  0  0  0
 53 55  1  0  0  0  0
 55 54  1  0  0  0  0
 55 52  1  0  0  0  0
M  END
>  <MODEL>
4

>  <REMARK>
 VINA RESULT:      -7.1      2.474      7.019
  Name = 
  20 active torsions:
  status: ('A' for Active; 'I' for Inactive)
    1  A    between atoms: C_2  and  C_28
    2  A    between atoms: C_2  and  C_44
    3  A    between atoms: C_6  and  C_46
    4  A    between atoms: C_8  and  C_20
    5  A    between atoms: C_8  and  C_22
    6  A    between atoms: C_10  and  C_32
    7  A    between atoms: C_17  and  C_36
    8  A    between atoms: C_19  and  C_40
    9  A    between atoms: C_19  and  C_45
   10  A    between atoms: C_22  and  C_35
   11  A    between atoms: C_22  and  C_46
   12  A    between atoms: C_27  and  O_54
   13  A    between atoms: C_28  and  C_49
   14  A    between atoms: C_33  and  C_49
   15  A    between atoms: C_33  and  C_52
   16  A    between atoms: N_34  and  C_52
   17  A    between atoms: C_35  and  C_43
   18  A    between atoms: C_36  and  C_52
   19  A    between atoms: C_43  and  C_51
   20  A    between atoms: C_51  and  O_54
                            x       y       z     vdW  Elec       q    Type
                         _______ _______ _______ _____ _____    ______ ____

>  <TORSDO>
F 20

$$$$
=
 OpenBabel11052414593D

 55 59  0  0  1  0  0  0  0  0999 V2000
  191.7070  177.9570  142.9740 C   0  0  0  0  0  2  0  0  0  0  0  0
  189.2590  177.6280  144.3700 C   0  0  0  0  0  0  0  0  0  0  0  0
  189.1160  177.8410  142.8860 C   0  0  0  0  0  2  0  0  0  0  0  0
  191.4560  178.7250  144.2620 C   0  0  0  0  0  2  0  0  0  0  0  0
  190.4470  177.9120  142.0990 C   0  0  2  0  0  3  0  0  0  0  0  0
  190.3560  178.0470  145.0130 C   0  0  0  0  0  3  0  0  0  0  0  0
  188.2020  177.0230  145.0550 O   0  0  0  0  0  0  0  0  0  0  0  0
  187.4120  177.7080  146.0200 C   0  0  0  0  0  2  0  0  0  0  0  0
  186.4180  178.6070  145.3180 C   0  0  0  0  0  2  0  0  0  0  0  0
  185.7580  177.8450  144.1820 C   0  0  0  0  0  2  0  0  0  0  0  0
  185.1150  178.7940  143.1780 C   0  0  1  0  0  3  0  0  0  0  0  0
  184.4140  178.0280  142.0560 C   0  0  0  0  0  2  0  0  0  0  0  0
  181.7480  177.6370  140.4210 C   0  0  0  0  0  0  0  0  0  0  0  0
  185.5730  178.4190  139.6340 F   0  0  0  0  0  0  0  0  0  0  0  0
  183.7070  178.9700  141.0790 C   0  0  1  0  0  3  0  0  0  0  0  0
  181.9910  176.4990  136.9810 N   0  0  0  0  0  2  0  0  0  0  0  0
  184.3050  180.1940  139.1350 F   0  0  0  0  0  0  0  0  0  0  0  0
  184.2730  178.9040  139.6300 C   0  0  0  0  0  0  0  0  0  0  0  0
  180.5780  177.2510  140.6840 O   0  0  0  0  0  0  0  0  0  0  0  0
  183.4290  176.4030  136.7440 C   0  0  0  0  0  2  0  0  0  0  0  0
  184.1680  177.5460  137.4470 C   0  0  0  0  0  2  0  0  0  0  0  0
  182.5810  176.9630  139.3750 C   0  0  2  0  0  3  0  0  0  0  0  0
  183.4020  178.0570  138.6770 C   0  0  1  0  0  3  0  0  0  0  0  0
  181.7240  176.1530  138.3810 C   0  0  0  0  0  2  0  0  0  0  0  0
  182.3020  178.7100  141.1210 O   0  0  0  0  0  0  0  0  0  0  0  0
  184.1740  179.7790  143.8780 C   0  0  0  0  0  2  0  0  0  0  0  0
  181.9840  178.6510  144.3000 O   0  0  0  0  0  0  0  0  0  0  0  0
  183.1990  179.1070  144.7940 C   0  0  0  0  0  0  0  0  0  0  0  0
  183.4640  178.9810  146.0170 O   0  0  0  0  0  1  0  0  0  0  0  0
  190.5650  176.7390  141.1410 C   0  0  0  0  0  2  0  0  0  0  0  0
  191.3920  177.1030  139.9230 C   0  0  0  0  0  2  0  0  0  0  0  0
  191.2020  176.0420  138.8590 C   0  0  0  0  0  2  0  0  0  0  0  0
  191.8170  176.5020  137.5510 C   0  0  0  0  0  2  0  0  0  0  0  0
  191.4920  175.4960  136.4370 C   0  0  1  0  0  3  0  0  0  0  0  0
  189.2000  174.9100  136.0930 C   0  0  0  0  0  2  0  0  0  0  0  0
  188.2970  177.1380  136.0500 C   0  0  1  0  0  3  0  0  0  0  0  0
  190.2680  175.8260  135.6930 N   0  0  0  0  0  0  0  0  0  0  0  0
  189.8070  177.1840  135.9780 C   0  0  0  0  0  2  0  0  0  0  0  0
  187.9880  175.7290  136.4920 C   0  0  0  0  0  2  0  0  0  0  0  0
  187.7680  178.1610  137.0130 C   0  0  0  0  0  0  0  0  0  0  0  0
  188.2350  178.2140  138.3210 O   0  0  0  0  0  1  0  0  0  0  0  0
  186.8460  178.9410  136.6550 O   0  0  0  0  0  0  0  0  0  0  0  0
  192.6630  175.3270  135.4700 C   0  0  0  0  0  2  0  0  0  0  0  0
  193.8500  170.9890  136.4050 C   0  0  0  0  0  2  0  0  0  0  0  0
  193.1360  171.5660  135.1890 C   0  0  0  0  0  2  0  0  0  0  0  0
  193.9530  174.0050  137.0930 C   0  0  0  0  0  3  0  0  0  0  0  0
  193.3860  174.0130  135.7040 C   0  0  1  0  0  3  0  0  0  0  0  0
  192.4050  172.8610  135.5180 C   0  0  0  0  0  2  0  0  0  0  0  0
  194.7170  173.0130  137.5660 C   0  0  0  0  0  3  0  0  0  0  0  0
  195.0900  171.8040  136.7540 C   0  0  1  0  0  3  0  0  0  0  0  0
  196.0490  170.9260  137.5530 C   0  0  0  0  0  2  0  0  0  0  0  0
  198.1320  172.0920  136.9300 C   0  0  0  0  0  1  0  0  0  0  0  0
  197.2910  170.3140  135.4530 C   0  0  0  0  0  1  0  0  0  0  0  0
  198.2620  169.7500  137.6650 C   0  0  0  0  0  1  0  0  0  0  0  0
  197.4220  170.7560  136.8990 C   0  0  0  0  0  0  0  0  0  0  0  0
  1  4  1  0  0  0  0
  2  6  2  0  0  0  0
  2  7  1  0  0  0  0
  3  2  1  0  0  0  0
  4  6  1  0  0  0  0
  5 30  1  6  0  0  0
  5  3  1  0  0  0  0
  5  1  1  0  0  0  0
  7  8  1  0  0  0  0
  9  8  1  0  0  0  0
 10  9  1  0  0  0  0
 11 12  1  6  0  0  0
 11 26  1  0  0  0  0
 11 10  1  0  0  0  0
 13 19  2  0  0  0  0
 13 25  1  0  0  0  0
 15 25  1  0  0  0  0
 15 12  1  1  0  0  0
 16 24  1  0  0  0  0
 17 18  1  0  0  0  0
 18 14  1  0  0  0  0
 18 15  1  0  0  0  0
 20 16  1  0  0  0  0
 20 21  1  0  0  0  0
 22 24  1  6  0  0  0
 22 13  1  0  0  0  0
 23 21  1  6  0  0  0
 23 22  1  0  0  0  0
 23 18  1  0  0  0  0
 26 28  1  0  0  0  0
 27 28  2  0  0  0  0
 28 29  1  0  0  0  0
 31 30  1  0  0  0  0
 32 31  1  0  0  0  0
 33 32  1  0  0  0  0
 34 43  1  6  0  0  0
 34 33  1  0  0  0  0
 35 39  1  0  0  0  0
 36 39  1  0  0  0  0
 36 40  1  1  0  0  0
 37 38  1  0  0  0  0
 37 35  1  0  0  0  0
 37 34  1  0  0  0  0
 38 36  1  0  0  0  0
 40 41  1  0  0  0  0
 42 40  2  0  0  0  0
 44 50  1  0  0  0  0
 45 48  1  0  0  0  0
 45 44  1  0  0  0  0
 46 49  2  0  0  0  0
 47 43  1  1  0  0  0
 47 46  1  0  0  0  0
 48 47  1  0  0  0  0
 50 51  1  1  0  0  0
 50 49  1  0  0  0  0
 53 55  1  0  0  0  0
 55 52  1  0  0  0  0
 55 51  1  0  0  0  0
 55 54  1  0  0  0  0
M  END
>  <MODEL>
5

>  <REMARK>
 VINA RESULT:      -6.7      4.270      9.851
  Name = 
  20 active torsions:
  status: ('A' for Active; 'I' for Inactive)
    1  A    between atoms: C_2  and  C_28
    2  A    between atoms: C_2  and  C_44
    3  A    between atoms: C_6  and  C_46
    4  A    between atoms: C_8  and  C_20
    5  A    between atoms: C_8  and  C_22
    6  A    between atoms: C_10  and  C_32
    7  A    between atoms: C_17  and  C_36
    8  A    between atoms: C_19  and  C_40
    9  A    between atoms: C_19  and  C_45
   10  A    between atoms: C_22  and  C_35
   11  A    between atoms: C_22  and  C_46
   12  A    between atoms: C_27  and  O_54
   13  A    between atoms: C_28  and  C_49
   14  A    between atoms: C_33  and  C_49
   15  A    between atoms: C_33  and  C_52
   16  A    between atoms: N_34  and  C_52
   17  A    between atoms: C_35  and  C_43
   18  A    between atoms: C_36  and  C_52
   19  A    between atoms: C_43  and  C_51
   20  A    between atoms: C_51  and  O_54
                            x       y       z     vdW  Elec       q    Type
                         _______ _______ _______ _____ _____    ______ ____

>  <TORSDO>
F 20

$$$$
=
 OpenBabel11052414593D

 55 59  0  0  1  0  0  0  0  0999 V2000
  187.9230  177.8600  144.9360 C   0  0  0  0  0  2  0  0  0  0  0  0
  189.3180  177.4810  142.4950 C   0  0  0  0  0  0  0  0  0  0  0  0
  187.8770  177.0440  142.4730 C   0  0  0  0  0  2  0  0  0  0  0  0
  189.3040  177.2250  144.9390 C   0  0  0  0  0  2  0  0  0  0  0  0
  187.0780  177.3480  143.7630 C   0  0  2  0  0  3  0  0  0  0  0  0
  189.9850  177.5600  143.6530 C   0  0  0  0  0  3  0  0  0  0  0  0
  189.9430  177.7560  141.2750 O   0  0  0  0  0  0  0  0  0  0  0  0
  190.5320  176.7480  140.4620 C   0  0  0  0  0  2  0  0  0  0  0  0
  190.0470  176.8980  139.0360 C   0  0  0  0  0  2  0  0  0  0  0  0
  191.2280  177.1900  138.1270 C   0  0  0  0  0  2  0  0  0  0  0  0
  191.0800  176.4870  136.7830 C   0  0  1  0  0  3  0  0  0  0  0  0
  192.2920  175.6100  136.4750 C   0  0  0  0  0  2  0  0  0  0  0  0
  195.0930  176.8240  135.6920 C   0  0  0  0  0  0  0  0  0  0  0  0
  193.7300  173.5630  137.5260 F   0  0  0  0  0  0  0  0  0  0  0  0
  193.4930  175.9690  137.3520 C   0  0  1  0  0  3  0  0  0  0  0  0
  197.8830  174.5490  135.2170 N   0  0  0  0  0  2  0  0  0  0  0  0
  194.8210  174.8660  138.9820 F   0  0  0  0  0  0  0  0  0  0  0  0
  194.4210  174.7580  137.6630 C   0  0  0  0  0  0  0  0  0  0  0  0
  195.4910  177.7900  134.9870 O   0  0  0  0  0  0  0  0  0  0  0  0
  197.3210  173.2370  135.5250 C   0  0  0  0  0  2  0  0  0  0  0  0
  196.3310  173.3340  136.6890 C   0  0  0  0  0  2  0  0  0  0  0  0
  195.5390  175.4210  135.4260 C   0  0  2  0  0  3  0  0  0  0  0  0
  195.6940  174.7290  136.7880 C   0  0  1  0  0  3  0  0  0  0  0  0
  196.8380  175.3700  134.5950 C   0  0  0  0  0  2  0  0  0  0  0  0
  194.2040  177.0500  136.7430 O   0  0  0  0  0  0  0  0  0  0  0  0
  189.7670  175.7000  136.7160 C   0  0  0  0  0  2  0  0  0  0  0  0
  190.0000  173.6510  135.3050 O   0  0  0  0  0  0  0  0  0  0  0  0
  189.9770  174.2250  136.5690 C   0  0  0  0  0  0  0  0  0  0  0  0
  190.1010  173.4990  137.5890 O   0  0  0  0  0  1  0  0  0  0  0  0
  185.9750  178.3550  143.4840 C   0  0  0  0  0  2  0  0  0  0  0  0
  185.6260  178.3960  142.0080 C   0  0  0  0  0  2  0  0  0  0  0  0
  184.2140  177.8830  141.8180 C   0  0  0  0  0  2  0  0  0  0  0  0
  183.4050  178.8790  141.0110 C   0  0  0  0  0  2  0  0  0  0  0  0
  182.6580  178.1540  139.8800 C   0  0  1  0  0  3  0  0  0  0  0  0
  180.6380  177.0640  140.5470 C   0  0  0  0  0  2  0  0  0  0  0  0
  179.5910  178.9470  141.6170 C   0  0  1  0  0  3  0  0  0  0  0  0
  181.1970  178.2860  139.9680 N   0  0  0  0  0  0  0  0  0  0  0  0
  180.8020  179.3980  140.8310 C   0  0  0  0  0  2  0  0  0  0  0  0
  179.7470  177.4490  141.7110 C   0  0  0  0  0  2  0  0  0  0  0  0
  179.5480  179.5960  142.9690 C   0  0  0  0  0  0  0  0  0  0  0  0
  180.0840  180.8630  143.1670 O   0  0  0  0  0  0  0  0  0  0  0  0
  179.0760  178.9660  143.9520 O   0  0  0  0  0  1  0  0  0  0  0  0
  183.1430  178.6070  138.5030 C   0  0  0  0  0  2  0  0  0  0  0  0
  186.8210  176.7040  136.5140 C   0  0  0  0  0  2  0  0  0  0  0  0
  186.7110  177.4880  137.8160 C   0  0  0  0  0  2  0  0  0  0  0  0
  183.7580  177.1340  136.6330 C   0  0  0  0  0  3  0  0  0  0  0  0
  184.2080  177.6720  137.9590 C   0  0  1  0  0  3  0  0  0  0  0  0
  185.5190  178.4370  137.8110 C   0  0  0  0  0  2  0  0  0  0  0  0
  184.4490  176.2180  135.9420 C   0  0  0  0  0  3  0  0  0  0  0  0
  185.7440  175.6290  136.4240 C   0  0  1  0  0  3  0  0  0  0  0  0
  186.2080  174.5470  135.4550 C   0  0  0  0  0  2  0  0  0  0  0  0
  186.8630  172.1890  135.1420 C   0  0  0  0  0  1  0  0  0  0  0  0
  184.5690  172.6850  135.8770 C   0  0  0  0  0  1  0  0  0  0  0  0
  186.4790  173.0160  137.4250 C   0  0  0  0  0  1  0  0  0  0  0  0
  186.0190  173.1220  135.9820 C   0  0  0  0  0  0  0  0  0  0  0  0
  1  4  1  0  0  0  0
  2  6  2  0  0  0  0
  3  2  1  0  0  0  0
  3  5  1  0  0  0  0
  5 30  1  6  0  0  0
  5  1  1  0  0  0  0
  6  4  1  0  0  0  0
  7  2  1  0  0  0  0
  8  7  1  0  0  0  0
  9  8  1  0  0  0  0
 10  9  1  0  0  0  0
 11 12  1  1  0  0  0
 11 10  1  0  0  0  0
 13 25  1  0  0  0  0
 14 18  1  0  0  0  0
 15 12  1  6  0  0  0
 15 18  1  0  0  0  0
 16 20  1  0  0  0  0
 18 17  1  0  0  0  0
 19 13  2  0  0  0  0
 20 21  1  0  0  0  0
 22 24  1  1  0  0  0
 22 13  1  0  0  0  0
 22 23  1  0  0  0  0
 23 21  1  6  0  0  0
 23 18  1  0  0  0  0
 24 16  1  0  0  0  0
 25 15  1  0  0  0  0
 26 11  1  0  0  0  0
 27 28  2  0  0  0  0
 28 26  1  0  0  0  0
 28 29  1  0  0  0  0
 31 30  1  0  0  0  0
 32 31  1  0  0  0  0
 33 32  1  0  0  0  0
 34 43  1  6  0  0  0
 34 37  1  0  0  0  0
 34 33  1  0  0  0  0
 35 39  1  0  0  0  0
 36 39  1  0  0  0  0
 36 40  1  1  0  0  0
 37 35  1  0  0  0  0
 37 38  1  0  0  0  0
 38 36  1  0  0  0  0
 40 41  2  0  0  0  0
 40 42  1  0  0  0  0
 44 45  1  0  0  0  0
 46 47  1  0  0  0  0
 47 43  1  6  0  0  0
 48 45  1  0  0  0  0
 48 47  1  0  0  0  0
 49 50  1  0  0  0  0
 49 46  2  0  0  0  0
 50 51  1  6  0  0  0
 50 44  1  0  0  0  0
 51 55  1  0  0  0  0
 52 55  1  0  0  0  0
 53 55  1  0  0  0  0
 55 54  1  0  0  0  0
M  END
>  <MODEL>
6

>  <REMARK>
 VINA RESULT:      -6.7      4.550      9.131
  Name = 
  20 active torsions:
  status: ('A' for Active; 'I' for Inactive)
    1  A    between atoms: C_2  and  C_28
    2  A    between atoms: C_2  and  C_44
    3  A    between atoms: C_6  and  C_46
    4  A    between atoms: C_8  and  C_20
    5  A    between atoms: C_8  and  C_22
    6  A    between atoms: C_10  and  C_32
    7  A    between atoms: C_17  and  C_36
    8  A    between atoms: C_19  and  C_40
    9  A    between atoms: C_19  and  C_45
   10  A    between atoms: C_22  and  C_35
   11  A    between atoms: C_22  and  C_46
   12  A    between atoms: C_27  and  O_54
   13  A    between atoms: C_28  and  C_49
   14  A    between atoms: C_33  and  C_49
   15  A    between atoms: C_33  and  C_52
   16  A    between atoms: N_34  and  C_52
   17  A    between atoms: C_35  and  C_43
   18  A    between atoms: C_36  and  C_52
   19  A    between atoms: C_43  and  C_51
   20  A    between atoms: C_51  and  O_54
                            x       y       z     vdW  Elec       q    Type
                         _______ _______ _______ _____ _____    ______ ____

>  <TORSDO>
F 20

$$$$
=
 OpenBabel11052414593D

 55 59  0  0  1  0  0  0  0  0999 V2000
  191.7490  175.6210  143.8410 C   0  0  0  0  0  2  0  0  0  0  0  0
  190.2860  177.5540  145.3150 C   0  0  0  0  0  0  0  0  0  0  0  0
  190.7880  178.0270  143.9760 C   0  0  0  0  0  2  0  0  0  0  0  0
  192.0530  175.8450  145.3140 C   0  0  0  0  0  2  0  0  0  0  0  0
  191.4910  176.9480  143.1180 C   0  0  2  0  0  3  0  0  0  0  0  0
  190.8850  176.5330  145.9410 C   0  0  0  0  0  3  0  0  0  0  0  0
  189.2140  178.2360  145.8970 O   0  0  0  0  0  0  0  0  0  0  0  0
  187.9160  177.6680  146.0290 C   0  0  0  0  0  2  0  0  0  0  0  0
  187.1020  177.9670  144.7880 C   0  0  0  0  0  2  0  0  0  0  0  0
  185.6390  178.1150  145.1650 C   0  0  0  0  0  2  0  0  0  0  0  0
  184.8050  178.5820  143.9770 C   0  0  1  0  0  3  0  0  0  0  0  0
  185.3420  178.0180  142.6620 C   0  0  0  0  0  2  0  0  0  0  0  0
  184.8680  179.1920  139.7760 C   0  0  0  0  0  0  0  0  0  0  0  0
  187.7760  177.2830  141.7150 F   0  0  0  0  0  0  0  0  0  0  0  0
  186.1380  179.0630  141.8770 C   0  0  1  0  0  3  0  0  0  0  0  0
  186.7050  177.7350  137.0030 N   0  0  0  0  0  2  0  0  0  0  0  0
  188.4070  179.3790  141.2510 F   0  0  0  0  0  0  0  0  0  0  0  0
  187.3700  178.4740  141.1290 C   0  0  0  0  0  0  0  0  0  0  0  0
  183.8850  179.6670  139.1470 O   0  0  0  0  0  0  0  0  0  0  0  0
  187.5510  176.7260  137.6350 C   0  0  0  0  0  2  0  0  0  0  0  0
  188.0650  177.2240  138.9890 C   0  0  0  0  0  2  0  0  0  0  0  0
  185.6410  178.0200  139.2580 C   0  0  2  0  0  3  0  0  0  0  0  0
  187.1150  178.2530  139.6210 C   0  0  1  0  0  3  0  0  0  0  0  0
  185.4400  177.8140  137.7420 C   0  0  0  0  0  2  0  0  0  0  0  0
  185.2520  179.7540  140.9950 O   0  0  0  0  0  0  0  0  0  0  0  0
  183.3230  178.2540  144.1820 C   0  0  0  0  0  2  0  0  0  0  0  0
  181.2730  178.8330  142.8760 O   0  0  0  0  0  0  0  0  0  0  0  0
  182.4090  179.2580  143.5520 C   0  0  0  0  0  0  0  0  0  0  0  0
  182.6840  180.4850  143.6050 O   0  0  0  0  0  1  0  0  0  0  0  0
  190.6940  176.6660  141.8560 C   0  0  0  0  0  2  0  0  0  0  0  0
  191.1290  177.5680  140.7160 C   0  0  0  0  0  2  0  0  0  0  0  0
  192.3890  177.0070  140.0930 C   0  0  0  0  0  2  0  0  0  0  0  0
  192.0580  176.3140  138.7850 C   0  0  0  0  0  2  0  0  0  0  0  0
  193.3380  176.1180  137.9560 C   0  0  1  0  0  3  0  0  0  0  0  0
  194.9370  174.4950  137.2350 C   0  0  0  0  0  2  0  0  0  0  0  0
  196.3210  174.5050  139.2020 C   0  0  1  0  0  3  0  0  0  0  0  0
  194.1210  174.9430  138.3630 N   0  0  0  0  0  0  0  0  0  0  0  0
  195.0320  175.2510  139.4650 C   0  0  0  0  0  2  0  0  0  0  0  0
  196.3750  174.3760  137.7000 C   0  0  0  0  0  2  0  0  0  0  0  0
  197.5030  175.2530  139.7470 C   0  0  0  0  0  0  0  0  0  0  0  0
  198.5270  175.6740  138.9070 O   0  0  0  0  0  0  0  0  0  0  0  0
  197.6020  175.4510  140.9870 O   0  0  0  0  0  1  0  0  0  0  0  0
  193.0360  176.0540  136.4600 C   0  0  0  0  0  2  0  0  0  0  0  0
  190.0180  173.0680  134.7050 C   0  0  0  0  0  2  0  0  0  0  0  0
  191.3630  172.8180  135.3750 C   0  0  0  0  0  2  0  0  0  0  0  0
  190.7600  175.9570  135.5350 C   0  0  0  0  0  3  0  0  0  0  0  0
  191.8510  175.1500  136.1750 C   0  0  1  0  0  3  0  0  0  0  0  0
  192.2930  174.0180  135.2540 C   0  0  0  0  0  2  0  0  0  0  0  0
  189.5540  175.4540  135.2400 C   0  0  0  0  0  3  0  0  0  0  0  0
  189.1650  174.0310  135.5240 C   0  0  1  0  0  3  0  0  0  0  0  0
  187.6980  173.8190  135.1650 C   0  0  0  0  0  2  0  0  0  0  0  0
  185.7900  173.5130  136.6970 C   0  0  0  0  0  1  0  0  0  0  0  0
  187.8880  172.3260  137.1800 C   0  0  0  0  0  1  0  0  0  0  0  0
  186.4690  171.6330  135.2670 C   0  0  0  0  0  1  0  0  0  0  0  0
  186.9770  172.8170  136.0700 C   0  0  0  0  0  0  0  0  0  0  0  0
  1  4  1  0  0  0  0
  2  7  1  0  0  0  0
  2  6  2  0  0  0  0
  3  2  1  0  0  0  0
  4  6  1  0  0  0  0
  5 30  1  6  0  0  0
  5  1  1  0  0  0  0
  5  3  1  0  0  0  0
  7  8  1  0  0  0  0
  9 10  1  0  0  0  0
  9  8  1  0  0  0  0
 11 12  1  6  0  0  0
 11 26  1  0  0  0  0
 11 10  1  0  0  0  0
 13 25  1  0  0  0  0
 15 12  1  6  0  0  0
 16 20  1  0  0  0  0
 16 24  1  0  0  0  0
 18 17  1  0  0  0  0
 18 14  1  0  0  0  0
 18 15  1  0  0  0  0
 19 13  2  0  0  0  0
 20 21  1  0  0  0  0
 22 24  1  6  0  0  0
 22 23  1  0  0  0  0
 22 13  1  0  0  0  0
 23 21  1  1  0  0  0
 23 18  1  0  0  0  0
 25 15  1  0  0  0  0
 27 28  2  0  0  0  0
 28 29  1  0  0  0  0
 28 26  1  0  0  0  0
 31 30  1  0  0  0  0
 32 31  1  0  0  0  0
 33 32  1  0  0  0  0
 34 43  1  6  0  0  0
 34 37  1  0  0  0  0
 34 33  1  0  0  0  0
 35 39  1  0  0  0  0
 35 37  1  0  0  0  0
 36 38  1  0  0  0  0
 36 40  1  6  0  0  0
 37 38  1  0  0  0  0
 39 36  1  0  0  0  0
 40 42  1  0  0  0  0
 41 40  2  0  0  0  0
 44 45  1  0  0  0  0
 44 50  1  0  0  0  0
 46 47  1  0  0  0  0
 47 43  1  6  0  0  0
 48 45  1  0  0  0  0
 48 47  1  0  0  0  0
 49 50  1  0  0  0  0
 49 46  2  0  0  0  0
 50 51  1  6  0  0  0
 51 55  1  0  0  0  0
 54 55  1  0  0  0  0
 55 52  1  0  0  0  0
 55 53  1  0  0  0  0
M  END
>  <MODEL>
7

>  <REMARK>
 VINA RESULT:      -6.7      3.731      9.242
  Name = 
  20 active torsions:
  status: ('A' for Active; 'I' for Inactive)
    1  A    between atoms: C_2  and  C_28
    2  A    between atoms: C_2  and  C_44
    3  A    between atoms: C_6  and  C_46
    4  A    between atoms: C_8  and  C_20
    5  A    between atoms: C_8  and  C_22
    6  A    between atoms: C_10  and  C_32
    7  A    between atoms: C_17  and  C_36
    8  A    between atoms: C_19  and  C_40
    9  A    between atoms: C_19  and  C_45
   10  A    between atoms: C_22  and  C_35
   11  A    between atoms: C_22  and  C_46
   12  A    between atoms: C_27  and  O_54
   13  A    between atoms: C_28  and  C_49
   14  A    between atoms: C_33  and  C_49
   15  A    between atoms: C_33  and  C_52
   16  A    between atoms: N_34  and  C_52
   17  A    between atoms: C_35  and  C_43
   18  A    between atoms: C_36  and  C_52
   19  A    between atoms: C_43  and  C_51
   20  A    between atoms: C_51  and  O_54
                            x       y       z     vdW  Elec       q    Type
                         _______ _______ _______ _____ _____    ______ ____

>  <TORSDO>
F 20

$$$$
=
 OpenBabel11052414593D

 55 59  0  0  1  0  0  0  0  0999 V2000
  191.6920  176.9850  139.2290 C   0  0  0  0  0  2  0  0  0  0  0  0
  191.2970  175.9050  136.6350 C   0  0  0  0  0  0  0  0  0  0  0  0
  190.3260  175.4160  137.6770 C   0  0  0  0  0  2  0  0  0  0  0  0
  192.8760  176.4510  138.4380 C   0  0  0  0  0  2  0  0  0  0  0  0
  190.4630  176.0820  139.0680 C   0  0  2  0  0  3  0  0  0  0  0  0
  192.4940  176.3850  136.9950 C   0  0  0  0  0  3  0  0  0  0  0  0
  190.9310  175.8010  135.2910 O   0  0  0  0  0  0  0  0  0  0  0  0
  190.1920  176.8090  134.6100 C   0  0  0  0  0  2  0  0  0  0  0  0
  188.8540  177.0050  135.2890 C   0  0  0  0  0  2  0  0  0  0  0  0
  187.8180  176.1030  134.6410 C   0  0  0  0  0  2  0  0  0  0  0  0
  186.4950  176.1460  135.3960 C   0  0  1  0  0  3  0  0  0  0  0  0
  185.6970  174.8570  135.1980 C   0  0  0  0  0  2  0  0  0  0  0  0
  185.0340  171.8380  135.8130 C   0  0  0  0  0  0  0  0  0  0  0  0
  183.3120  175.3850  136.3790 F   0  0  0  0  0  0  0  0  0  0  0  0
  185.4000  174.1620  136.5280 C   0  0  1  0  0  3  0  0  0  0  0  0
  181.5470  170.8720  136.1190 N   0  0  0  0  0  2  0  0  0  0  0  0
  183.9060  174.4950  138.3440 F   0  0  0  0  0  0  0  0  0  0  0  0
  183.9140  174.2880  136.9780 C   0  0  0  0  0  0  0  0  0  0  0  0
  185.5300  170.7240  135.4980 O   0  0  0  0  0  0  0  0  0  0  0  0
  180.8190  172.1270  135.9540 C   0  0  0  0  0  2  0  0  0  0  0  0
  181.5730  173.2790  136.6240 C   0  0  0  0  0  2  0  0  0  0  0  0
  183.6050  172.1740  135.5170 C   0  0  2  0  0  3  0  0  0  0  0  0
  183.0850  173.0160  136.6910 C   0  0  1  0  0  3  0  0  0  0  0  0
  182.7480  170.9140  135.2780 C   0  0  0  0  0  2  0  0  0  0  0  0
  185.8240  172.8000  136.4440 O   0  0  0  0  0  0  0  0  0  0  0  0
  186.7180  176.4640  136.8780 C   0  0  0  0  0  2  0  0  0  0  0  0
  186.6440  178.6290  138.1220 O   0  0  0  0  0  1  0  0  0  0  0  0
  185.9950  177.6960  137.3260 C   0  0  0  0  0  0  0  0  0  0  0  0
  184.7900  177.8730  137.0100 O   0  0  0  0  0  0  0  0  0  0  0  0
  189.2210  176.8910  139.3980 C   0  0  0  0  0  2  0  0  0  0  0  0
  189.5780  178.1900  140.0960 C   0  0  0  0  0  2  0  0  0  0  0  0
  189.2050  178.0850  141.5600 C   0  0  0  0  0  2  0  0  0  0  0  0
  187.8150  177.4920  141.7000 C   0  0  0  0  0  2  0  0  0  0  0  0
  187.0760  178.1600  142.8710 C   0  0  1  0  0  3  0  0  0  0  0  0
  185.1230  178.2780  141.4980 C   0  0  0  0  0  2  0  0  0  0  0  0
  183.6790  179.3730  143.0790 C   0  0  1  0  0  3  0  0  0  0  0  0
  185.9610  179.0150  142.4430 N   0  0  0  0  0  0  0  0  0  0  0  0
  185.1100  179.4030  143.5680 C   0  0  0  0  0  2  0  0  0  0  0  0
  183.6860  178.3430  141.9760 C   0  0  0  0  0  2  0  0  0  0  0  0
  182.7350  179.0070  144.1860 C   0  0  0  0  0  0  0  0  0  0  0  0
  183.1580  179.0020  145.5110 O   0  0  0  0  0  1  0  0  0  0  0  0
  181.5610  178.6400  143.9140 O   0  0  0  0  0  0  0  0  0  0  0  0
  186.5870  177.1300  143.8890 C   0  0  0  0  0  2  0  0  0  0  0  0
  188.8020  178.1290  147.7880 C   0  0  0  0  0  2  0  0  0  0  0  0
  187.3360  177.7800  147.5580 C   0  0  0  0  0  2  0  0  0  0  0  0
  188.8560  177.5130  144.7540 C   0  0  0  0  0  3  0  0  0  0  0  0
  187.4560  177.1310  145.1340 C   0  0  1  0  0  3  0  0  0  0  0  0
  186.8840  178.1190  146.1440 C   0  0  0  0  0  2  0  0  0  0  0  0
  189.8730  177.5220  145.6250 C   0  0  0  0  0  3  0  0  0  0  0  0
  189.7210  177.1450  147.0720 C   0  0  1  0  0  3  0  0  0  0  0  0
  191.0860  177.1610  147.7530 C   0  0  0  0  0  2  0  0  0  0  0  0
  193.1450  175.9680  148.4000 C   0  0  0  0  0  1  0  0  0  0  0  0
  192.2590  175.6380  146.1300 C   0  0  0  0  0  1  0  0  0  0  0  0
  191.0790  174.6740  148.0870 C   0  0  0  0  0  1  0  0  0  0  0  0
  191.8770  175.8620  147.5810 C   0  0  0  0  0  0  0  0  0  0  0  0
  2  6  2  0  0  0  0
  2  3  1  0  0  0  0
  3  5  1  0  0  0  0
  4  1  1  0  0  0  0
  5  1  1  0  0  0  0
  5 30  1  6  0  0  0
  6  4  1  0  0  0  0
  7  2  1  0  0  0  0
  8  9  1  0  0  0  0
  8  7  1  0  0  0  0
 10  9  1  0  0  0  0
 11 10  1  6  0  0  0
 11 26  1  0  0  0  0
 12 11  1  0  0  0  0
 13 25  1  0  0  0  0
 14 18  1  0  0  0  0
 15 12  1  6  0  0  0
 15 18  1  0  0  0  0
 18 17  1  0  0  0  0
 19 13  2  0  0  0  0
 20 16  1  0  0  0  0
 20 21  1  0  0  0  0
 22 24  1  1  0  0  0
 22 13  1  0  0  0  0
 22 23  1  0  0  0  0
 23 21  1  6  0  0  0
 23 18  1  0  0  0  0
 24 16  1  0  0  0  0
 25 15  1  0  0  0  0
 26 28  1  0  0  0  0
 28 27  1  0  0  0  0
 29 28  2  0  0  0  0
 30 31  1  0  0  0  0
 31 32  1  0  0  0  0
 32 33  1  0  0  0  0
 34 33  1  6  0  0  0
 34 43  1  0  0  0  0
 35 39  1  0  0  0  0
 35 37  1  0  0  0  0
 36 38  1  0  0  0  0
 36 40  1  1  0  0  0
 37 34  1  0  0  0  0
 37 38  1  0  0  0  0
 39 36  1  0  0  0  0
 40 41  1  0  0  0  0
 42 40  2  0  0  0  0
 45 44  1  0  0  0  0
 46 47  1  0  0  0  0
 46 49  2  0  0  0  0
 47 43  1  6  0  0  0
 47 48  1  0  0  0  0
 48 45  1  0  0  0  0
 49 50  1  0  0  0  0
 50 51  1  1  0  0  0
 50 44  1  0  0  0  0
 53 55  1  0  0  0  0
 55 51  1  0  0  0  0
 55 54  1  0  0  0  0
 55 52  1  0  0  0  0
M  END
>  <MODEL>
8

>  <REMARK>
 VINA RESULT:      -6.4      3.832      9.951
  Name = 
  20 active torsions:
  status: ('A' for Active; 'I' for Inactive)
    1  A    between atoms: C_2  and  C_28
    2  A    between atoms: C_2  and  C_44
    3  A    between atoms: C_6  and  C_46
    4  A    between atoms: C_8  and  C_20
    5  A    between atoms: C_8  and  C_22
    6  A    between atoms: C_10  and  C_32
    7  A    between atoms: C_17  and  C_36
    8  A    between atoms: C_19  and  C_40
    9  A    between atoms: C_19  and  C_45
   10  A    between atoms: C_22  and  C_35
   11  A    between atoms: C_22  and  C_46
   12  A    between atoms: C_27  and  O_54
   13  A    between atoms: C_28  and  C_49
   14  A    between atoms: C_33  and  C_49
   15  A    between atoms: C_33  and  C_52
   16  A    between atoms: N_34  and  C_52
   17  A    between atoms: C_35  and  C_43
   18  A    between atoms: C_36  and  C_52
   19  A    between atoms: C_43  and  C_51
   20  A    between atoms: C_51  and  O_54
                            x       y       z     vdW  Elec       q    Type
                         _______ _______ _______ _____ _____    ______ ____

>  <TORSDO>
F 20

$$$$
=
 OpenBabel11052414593D

 55 59  0  0  1  0  0  0  0  0999 V2000
  189.7290  177.5710  145.3890 C   0  0  0  0  0  2  0  0  0  0  0  0
  190.9320  176.8780  142.9140 C   0  0  0  0  0  0  0  0  0  0  0  0
  189.5440  176.3290  143.1180 C   0  0  0  0  0  2  0  0  0  0  0  0
  191.1610  177.0610  145.3550 C   0  0  0  0  0  2  0  0  0  0  0  0
  188.8370  176.7910  144.4150 C   0  0  2  0  0  3  0  0  0  0  0  0
  191.6890  177.2170  143.9650 C   0  0  0  0  0  3  0  0  0  0  0  0
  191.4150  176.9820  141.6070 O   0  0  0  0  0  0  0  0  0  0  0  0
  190.6280  177.4690  140.5260 C   0  0  0  0  0  2  0  0  0  0  0  0
  190.4180  176.3650  139.5130 C   0  0  0  0  0  2  0  0  0  0  0  0
  189.5380  176.8720  138.3840 C   0  0  0  0  0  2  0  0  0  0  0  0
  190.1710  176.6030  137.0240 C   0  0  1  0  0  3  0  0  0  0  0  0
  191.1640  175.4430  137.0890 C   0  0  0  0  0  2  0  0  0  0  0  0
  192.9450  173.3550  135.5400 C   0  0  0  0  0  0  0  0  0  0  0  0
  193.4960  176.2570  138.2120 F   0  0  0  0  0  0  0  0  0  0  0  0
  192.3560  175.6620  136.1570 C   0  0  1  0  0  3  0  0  0  0  0  0
  196.0830  172.3210  137.0450 N   0  0  0  0  0  2  0  0  0  0  0  0
  194.4250  176.8240  136.2570 F   0  0  0  0  0  0  0  0  0  0  0  0
  193.7100  175.8360  136.9070 C   0  0  0  0  0  0  0  0  0  0  0  0
  192.7270  172.3550  134.8060 O   0  0  0  0  0  0  0  0  0  0  0  0
  196.1620  173.1110  138.2700 C   0  0  0  0  0  2  0  0  0  0  0  0
  195.6120  174.5210  138.0380 C   0  0  0  0  0  2  0  0  0  0  0  0
  193.7680  173.2520  136.7860 C   0  0  2  0  0  3  0  0  0  0  0  0
  194.5720  174.5540  136.9070 C   0  0  1  0  0  3  0  0  0  0  0  0
  194.6750  172.0050  136.7830 C   0  0  0  0  0  2  0  0  0  0  0  0
  192.4020  174.5960  135.2050 O   0  0  0  0  0  0  0  0  0  0  0  0
  189.0980  176.3840  135.9520 C   0  0  0  0  0  2  0  0  0  0  0  0
  188.9670  174.2840  134.6050 O   0  0  0  0  0  0  0  0  0  0  0  0
  188.7110  174.9460  135.7990 C   0  0  0  0  0  0  0  0  0  0  0  0
  188.1270  174.3440  136.7360 O   0  0  0  0  0  1  0  0  0  0  0  0
  187.6210  177.6390  144.0870 C   0  0  0  0  0  2  0  0  0  0  0  0
  186.9470  177.1660  142.8120 C   0  0  0  0  0  2  0  0  0  0  0  0
  187.3380  178.0860  141.6740 C   0  0  0  0  0  2  0  0  0  0  0  0
  186.4810  179.3370  141.7000 C   0  0  0  0  0  2  0  0  0  0  0  0
  185.0140  178.9720  141.4230 C   0  0  1  0  0  3  0  0  0  0  0  0
  183.1090  178.4380  142.7640 C   0  0  0  0  0  2  0  0  0  0  0  0
  183.8840  179.4000  144.8280 C   0  0  1  0  0  3  0  0  0  0  0  0
  184.0850  179.4790  142.4430 N   0  0  0  0  0  0  0  0  0  0  0  0
  184.7760  179.8270  143.6840 C   0  0  0  0  0  2  0  0  0  0  0  0
  183.0880  178.2470  144.2680 C   0  0  0  0  0  2  0  0  0  0  0  0
  184.6920  178.9990  146.0270 C   0  0  0  0  0  0  0  0  0  0  0  0
  185.7550  179.7830  146.4620 O   0  0  0  0  0  0  0  0  0  0  0  0
  184.4490  177.9110  146.6110 O   0  0  0  0  0  1  0  0  0  0  0  0
  184.5710  179.4340  140.0350 C   0  0  0  0  0  2  0  0  0  0  0  0
  184.9520  176.5010  136.5190 C   0  0  0  0  0  2  0  0  0  0  0  0
  185.9520  176.8470  137.6160 C   0  0  0  0  0  2  0  0  0  0  0  0
  183.2340  178.4180  138.2380 C   0  0  0  0  0  3  0  0  0  0  0  0
  184.4730  178.2650  139.0710 C   0  0  1  0  0  3  0  0  0  0  0  0
  185.7140  178.2390  138.1870 C   0  0  0  0  0  2  0  0  0  0  0  0
  182.8300  177.4990  137.3520 C   0  0  0  0  0  3  0  0  0  0  0  0
  183.5720  176.2170  137.1010 C   0  0  1  0  0  3  0  0  0  0  0  0
  182.7890  175.3560  136.1150 C   0  0  0  0  0  2  0  0  0  0  0  0
  182.9460  172.9830  136.7690 C   0  0  0  0  0  1  0  0  0  0  0  0
  180.7780  173.8490  135.9970 C   0  0  0  0  0  1  0  0  0  0  0  0
  181.6810  174.5230  138.2070 C   0  0  0  0  0  1  0  0  0  0  0  0
  182.0380  174.1930  136.7690 C   0  0  0  0  0  0  0  0  0  0  0  0
  2  3  1  0  0  0  0
  2  6  2  0  0  0  0
  3  5  1  0  0  0  0
  4  1  1  0  0  0  0
  5 30  1  6  0  0  0
  5  1  1  0  0  0  0
  6  4  1  0  0  0  0
  7  2  1  0  0  0  0
  8  7  1  0  0  0  0
  9  8  1  0  0  0  0
 10  9  1  0  0  0  0
 11 26  1  6  0  0  0
 11 12  1  0  0  0  0
 11 10  1  0  0  0  0
 13 22  1  0  0  0  0
 15 18  1  0  0  0  0
 15 12  1  1  0  0  0
 16 20  1  0  0  0  0
 17 18  1  0  0  0  0
 18 23  1  0  0  0  0
 18 14  1  0  0  0  0
 19 13  2  0  0  0  0
 21 20  1  0  0  0  0
 22 24  1  6  0  0  0
 22 23  1  0  0  0  0
 23 21  1  1  0  0  0
 24 16  1  0  0  0  0
 25 13  1  0  0  0  0
 25 15  1  0  0  0  0
 27 28  2  0  0  0  0
 28 26  1  0  0  0  0
 28 29  1  0  0  0  0
 31 30  1  0  0  0  0
 32 33  1  0  0  0  0
 32 31  1  0  0  0  0
 34 43  1  6  0  0  0
 34 33  1  0  0  0  0
 34 37  1  0  0  0  0
 35 39  1  0  0  0  0
 36 40  1  1  0  0  0
 37 35  1  0  0  0  0
 37 38  1  0  0  0  0
 38 36  1  0  0  0  0
 39 36  1  0  0  0  0
 40 41  2  0  0  0  0
 40 42  1  0  0  0  0
 44 50  1  0  0  0  0
 44 45  1  0  0  0  0
 45 48  1  0  0  0  0
 46 47  1  0  0  0  0
 47 43  1  1  0  0  0
 48 47  1  0  0  0  0
 49 46  2  0  0  0  0
 50 51  1  6  0  0  0
 50 49  1  0  0  0  0
 51 55  1  0  0  0  0
 53 55  1  0  0  0  0
 55 52  1  0  0  0  0
 55 54  1  0  0  0  0
M  END
>  <MODEL>
9

>  <REMARK>
 VINA RESULT:      -6.4      4.089      9.089
  Name = 
  20 active torsions:
  status: ('A' for Active; 'I' for Inactive)
    1  A    between atoms: C_2  and  C_28
    2  A    between atoms: C_2  and  C_44
    3  A    between atoms: C_6  and  C_46
    4  A    between atoms: C_8  and  C_20
    5  A    between atoms: C_8  and  C_22
    6  A    between atoms: C_10  and  C_32
    7  A    between atoms: C_17  and  C_36
    8  A    between atoms: C_19  and  C_40
    9  A    between atoms: C_19  and  C_45
   10  A    between atoms: C_22  and  C_35
   11  A    between atoms: C_22  and  C_46
   12  A    between atoms: C_27  and  O_54
   13  A    between atoms: C_28  and  C_49
   14  A    between atoms: C_33  and  C_49
   15  A    between atoms: C_33  and  C_52
   16  A    between atoms: N_34  and  C_52
   17  A    between atoms: C_35  and  C_43
   18  A    between atoms: C_36  and  C_52
   19  A    between atoms: C_43  and  C_51
   20  A    between atoms: C_51  and  O_54
                            x       y       z     vdW  Elec       q    Type
                         _______ _______ _______ _____ _____    ______ ____

>  <TORSDO>
F 20

$$$$
