=
 OpenBabel11052412573D

 31 36  0  0  1  0  0  0  0  0999 V2000
  182.1910  178.7220  143.9660 C   0  0  0  0  0  0  0  0  0  0  0  0
  183.9960  178.1800  140.7300 N   0  0  0  0  0  0  0  0  0  0  0  0
  183.0290  177.7980  139.7210 C   0  0  2  0  0  3  0  0  0  0  0  0
  181.2330  176.1710  139.0810 C   0  0  0  0  0  2  0  0  0  0  0  0
  183.7110  178.5520  142.0810 C   0  0  0  0  0  0  0  0  0  0  0  0
  183.1780  179.3910  144.6990 C   0  0  0  0  0  3  0  0  0  0  0  0
  182.5150  176.3790  139.8980 C   0  0  0  0  0  2  0  0  0  0  0  0
  186.4130  178.9410  141.0150 C   0  0  2  0  0  3  0  0  0  0  0  0
  180.9720  178.5000  144.5170 F   0  0  0  0  0  0  0  0  0  0  0  0
  185.1480  178.5400  138.6400 C   0  0  2  0  0  3  0  0  0  0  0  0
  181.4070  176.4070  137.5680 C   0  0  0  0  0  2  0  0  0  0  0  0
  185.9740  179.4690  142.2750 O   0  0  0  0  0  0  0  0  0  0  0  0
  185.2080  178.6600  140.1070 C   0  0  1  0  0  0  0  0  0  0  0  0
  182.4520  178.3090  142.6560 C   0  0  0  0  0  3  0  0  0  0  0  0
  181.5310  177.9040  137.2270 C   0  0  0  0  0  2  0  0  0  0  0  0
  184.7090  179.2070  142.8320 C   0  0  0  0  0  0  0  0  0  0  0  0
  184.4320  179.6320  144.1330 C   0  0  0  0  0  3  0  0  0  0  0  0
  184.9400  179.7750  139.2890 O   0  0  0  0  0  0  0  0  0  0  0  0
  183.8040  177.8360  138.4050 C   0  0  2  0  0  3  0  0  0  0  0  0
  182.9740  178.4470  137.2790 C   0  0  0  0  0  2  0  0  0  0  0  0
  188.6010  177.8540  140.3420 C   0  0  0  0  0  2  0  0  0  0  0  0
  188.7390  178.1750  141.8180 C   0  0  1  0  0  3  0  0  0  0  0  0
  187.3850  177.7680  141.2540 C   0  0  1  0  0  3  0  0  0  0  0  0
  189.3200  176.9810  142.5510 C   0  0  0  0  0  2  0  0  0  0  0  0
  189.6420  177.2960  144.0100 C   0  0  0  0  0  2  0  0  0  0  0  0
  191.8150  177.9120  143.2770 O   0  0  0  0  0  0  0  0  0  0  0  0
  191.1010  177.5690  144.2560 C   0  0  0  0  0  0  0  0  0  0  0  0
  191.7030  177.4670  145.5520 N   0  0  0  0  0  2  0  0  0  0  0  0
  191.2040  176.7510  146.6890 C   0  0  0  0  0  0  0  0  0  0  0  0
  190.0370  177.2350  147.3460 N   0  0  0  0  0  1  0  0  0  0  0  0
  192.1580  175.6720  147.4760 S   0  0  0  0  0  0  0  0  0  0  0  0
  1  9  1  0  0  0  0
  1  6  1  0  0  0  0
  2  5  1  0  0  0  0
  3  7  1  1  0  0  0
  3  2  1  0  0  0  0
  4  7  1  0  0  0  0
  5 14  1  0  0  0  0
  5 16  2  0  0  0  0
  8 23  1  0  0  0  0
  8 12  1  1  0  0  0
 10 18  1  6  0  0  0
 10 13  1  0  0  0  0
 11  4  1  0  0  0  0
 12 16  1  0  0  0  0
 13 18  1  6  0  0  0
 13  2  1  0  0  0  0
 13  8  1  0  0  0  0
 14  1  2  0  0  0  0
 15 20  1  0  0  0  0
 15 11  1  0  0  0  0
 16 17  1  0  0  0  0
 17  6  2  0  0  0  0
 19 20  1  6  0  0  0
 19 10  1  0  0  0  0
 19  3  1  0  0  0  0
 21 22  1  0  0  0  0
 22 24  1  1  0  0  0
 23 21  1  6  0  0  0
 23 22  1  0  0  0  0
 24 25  1  0  0  0  0
 25 27  1  0  0  0  0
 26 27  2  0  0  0  0
 27 28  1  0  0  0  0
 28 29  1  0  0  0  0
 29 30  1  0  0  0  0
 29 31  2  0  0  0  0
M  END
>  <MODEL>
1

>  <REMARK>
 VINA RESULT:      -8.1      0.000      0.000
  Name = 
  5 active torsions:
  status: ('A' for Active; 'I' for Inactive)
    1  A    between atoms: C_1  and  N_24
    2  A    between atoms: C_3  and  C_9
    3  A    between atoms: C_3  and  C_22
    4  A    between atoms: C_15  and  C_23
    5  A    between atoms: C_19  and  C_22
                            x       y       z     vdW  Elec       q    Type
                         _______ _______ _______ _____ _____    ______ ____

>  <TORSDO>
F 5

$$$$
=
 OpenBabel11052412573D

 31 36  0  0  1  0  0  0  0  0999 V2000
  183.5060  178.0970  138.5790 C   0  0  0  0  0  0  0  0  0  0  0  0
  187.2180  177.5970  138.5310 N   0  0  0  0  0  0  0  0  0  0  0  0
  187.5980  177.0890  137.2280 C   0  0  2  0  0  3  0  0  0  0  0  0
  187.2530  175.2820  135.5260 C   0  0  0  0  0  2  0  0  0  0  0  0
  185.9050  177.9940  138.9370 C   0  0  0  0  0  0  0  0  0  0  0  0
  183.3710  178.8810  139.7310 C   0  0  0  0  0  3  0  0  0  0  0  0
  187.2010  175.6370  137.0180 C   0  0  0  0  0  2  0  0  0  0  0  0
  188.1950  178.5860  140.6690 C   0  0  2  0  0  3  0  0  0  0  0  0
  182.4140  177.7860  137.8390 F   0  0  0  0  0  0  0  0  0  0  0  0
  189.5970  177.9800  138.4170 C   0  0  2  0  0  3  0  0  0  0  0  0
  188.6410  175.4730  134.8830 C   0  0  0  0  0  2  0  0  0  0  0  0
  186.8800  179.1200  140.8820 O   0  0  0  0  0  0  0  0  0  0  0  0
  188.3650  178.1610  139.2040 C   0  0  1  0  0  0  0  0  0  0  0  0
  184.7710  177.6590  138.1770 C   0  0  0  0  0  3  0  0  0  0  0  0
  188.9770  176.9610  134.6680 C   0  0  0  0  0  2  0  0  0  0  0  0
  185.7590  178.7650  140.1090 C   0  0  0  0  0  0  0  0  0  0  0  0
  184.4940  179.2140  140.4910 C   0  0  0  0  0  3  0  0  0  0  0  0
  188.9170  179.2150  138.4480 O   0  0  0  0  0  0  0  0  0  0  0  0
  189.1240  177.1470  137.2180 C   0  0  2  0  0  3  0  0  0  0  0  0
  189.6610  177.6350  135.8750 C   0  0  0  0  0  2  0  0  0  0  0  0
  189.9280  177.0030  141.6210 C   0  0  0  0  0  2  0  0  0  0  0  0
  189.5490  177.9300  142.7600 C   0  0  1  0  0  3  0  0  0  0  0  0
  188.5000  177.5170  141.7370 C   0  0  1  0  0  3  0  0  0  0  0  0
  189.3150  177.1210  144.0230 C   0  0  0  0  0  2  0  0  0  0  0  0
  189.3780  177.9830  145.2830 C   0  0  0  0  0  2  0  0  0  0  0  0
  189.3390  176.4460  147.0940 O   0  0  0  0  0  0  0  0  0  0  0  0
  188.7150  177.3490  146.4750 C   0  0  0  0  0  0  0  0  0  0  0  0
  187.4160  177.7370  146.9400 N   0  0  0  0  0  2  0  0  0  0  0  0
  186.4010  178.4310  146.2040 C   0  0  0  0  0  0  0  0  0  0  0  0
  185.5720  179.3620  146.8910 N   0  0  0  0  0  1  0  0  0  0  0  0
  185.9140  177.8780  144.7370 S   0  0  0  0  0  0  0  0  0  0  0  0
  1  6  1  0  0  0  0
  2  5  1  0  0  0  0
  2 13  1  0  0  0  0
  3  7  1  1  0  0  0
  3  2  1  0  0  0  0
  4  7  1  0  0  0  0
  5 16  2  0  0  0  0
  6 17  2  0  0  0  0
  8 12  1  6  0  0  0
  8 23  1  0  0  0  0
  9  1  1  0  0  0  0
 10 18  1  6  0  0  0
 10 13  1  0  0  0  0
 11  4  1  0  0  0  0
 13 18  1  6  0  0  0
 13  8  1  0  0  0  0
 14  1  2  0  0  0  0
 14  5  1  0  0  0  0
 15 11  1  0  0  0  0
 15 20  1  0  0  0  0
 16 17  1  0  0  0  0
 16 12  1  0  0  0  0
 19 20  1  6  0  0  0
 19  3  1  0  0  0  0
 19 10  1  0  0  0  0
 21 22  1  0  0  0  0
 22 24  1  1  0  0  0
 23 21  1  6  0  0  0
 23 22  1  0  0  0  0
 24 25  1  0  0  0  0
 25 27  1  0  0  0  0
 27 28  1  0  0  0  0
 27 26  2  0  0  0  0
 29 30  1  0  0  0  0
 29 28  1  0  0  0  0
 31 29  2  0  0  0  0
M  END
>  <MODEL>
2

>  <REMARK>
 VINA RESULT:      -8.0      3.463      4.795
  Name = 
  5 active torsions:
  status: ('A' for Active; 'I' for Inactive)
    1  A    between atoms: C_1  and  N_24
    2  A    between atoms: C_3  and  C_9
    3  A    between atoms: C_3  and  C_22
    4  A    between atoms: C_15  and  C_23
    5  A    between atoms: C_19  and  C_22
                            x       y       z     vdW  Elec       q    Type
                         _______ _______ _______ _____ _____    ______ ____

>  <TORSDO>
F 5

$$$$
=
 OpenBabel11052412573D

 31 36  0  0  1  0  0  0  0  0999 V2000
  189.2370  178.1960  148.4090 C   0  0  0  0  0  0  0  0  0  0  0  0
  188.5440  177.8040  144.7500 N   0  0  0  0  0  0  0  0  0  0  0  0
  189.8080  177.7630  144.0430 C   0  0  2  0  0  3  0  0  0  0  0  0
  191.9680  178.9500  143.5860 C   0  0  0  0  0  2  0  0  0  0  0  0
  188.3660  177.8670  146.1680 C   0  0  0  0  0  0  0  0  0  0  0  0
  187.9820  177.8790  148.9410 C   0  0  0  0  0  3  0  0  0  0  0  0
  190.4910  179.1180  143.9690 C   0  0  0  0  0  2  0  0  0  0  0  0
  186.0500  177.3670  144.4410 C   0  0  2  0  0  3  0  0  0  0  0  0
  190.2690  178.4880  149.2380 F   0  0  0  0  0  0  0  0  0  0  0  0
  187.9860  176.8790  142.5920 C   0  0  2  0  0  3  0  0  0  0  0  0
  192.1900  178.2530  142.2290 C   0  0  0  0  0  2  0  0  0  0  0  0
  186.0160  177.2420  145.8700 O   0  0  0  0  0  0  0  0  0  0  0  0
  187.4930  177.2450  143.9310 C   0  0  1  0  0  0  0  0  0  0  0  0
  189.4340  178.1840  147.0250 C   0  0  0  0  0  3  0  0  0  0  0  0
  191.9080  176.7400  142.3050 C   0  0  0  0  0  2  0  0  0  0  0  0
  187.0980  177.5700  146.7080 C   0  0  0  0  0  0  0  0  0  0  0  0
  186.9170  177.5670  148.0920 C   0  0  0  0  0  3  0  0  0  0  0  0
  187.7820  175.9080  143.5940 O   0  0  0  0  0  0  0  0  0  0  0  0
  189.4430  177.3630  142.6150 C   0  0  2  0  0  3  0  0  0  0  0  0
  190.4370  176.3570  142.0380 C   0  0  0  0  0  2  0  0  0  0  0  0
  185.2000  178.7510  142.4970 C   0  0  0  0  0  2  0  0  0  0  0  0
  183.9680  178.3430  143.2800 C   0  0  1  0  0  3  0  0  0  0  0  0
  185.2720  178.6270  144.0120 C   0  0  1  0  0  3  0  0  0  0  0  0
  183.0560  179.5430  143.4630 C   0  0  0  0  0  2  0  0  0  0  0  0
  181.5890  179.1400  143.5970 C   0  0  0  0  0  2  0  0  0  0  0  0
  180.0560  180.7920  142.8440 O   0  0  0  0  0  0  0  0  0  0  0  0
  180.7030  179.7520  142.5460 C   0  0  0  0  0  0  0  0  0  0  0  0
  180.5750  179.2110  141.2250 N   0  0  0  0  0  2  0  0  0  0  0  0
  180.8920  177.8810  140.7970 C   0  0  0  0  0  0  0  0  0  0  0  0
  182.1690  177.6330  140.2170 N   0  0  0  0  0  1  0  0  0  0  0  0
  179.7010  176.7730  140.5770 S   0  0  0  0  0  0  0  0  0  0  0  0
  1  6  1  0  0  0  0
  1  9  1  0  0  0  0
  2  5  1  0  0  0  0
  3  7  1  6  0  0  0
  3  2  1  0  0  0  0
  4  7  1  0  0  0  0
  5 16  2  0  0  0  0
  5 14  1  0  0  0  0
  8 12  1  1  0  0  0
 10 19  1  0  0  0  0
 10 18  1  1  0  0  0
 10 13  1  0  0  0  0
 11 15  1  0  0  0  0
 11  4  1  0  0  0  0
 12 16  1  0  0  0  0
 13 18  1  1  0  0  0
 13  8  1  0  0  0  0
 13  2  1  0  0  0  0
 14  1  2  0  0  0  0
 16 17  1  0  0  0  0
 17  6  2  0  0  0  0
 19 20  1  1  0  0  0
 19  3  1  0  0  0  0
 20 15  1  0  0  0  0
 21 22  1  0  0  0  0
 22 24  1  1  0  0  0
 22 23  1  0  0  0  0
 23 21  1  6  0  0  0
 23  8  1  0  0  0  0
 24 25  1  0  0  0  0
 27 26  2  0  0  0  0
 27 25  1  0  0  0  0
 28 27  1  0  0  0  0
 29 28  1  0  0  0  0
 30 29  1  0  0  0  0
 31 29  2  0  0  0  0
M  END
>  <MODEL>
3

>  <REMARK>
 VINA RESULT:      -7.9      4.166      8.573
  Name = 
  5 active torsions:
  status: ('A' for Active; 'I' for Inactive)
    1  A    between atoms: C_1  and  N_24
    2  A    between atoms: C_3  and  C_9
    3  A    between atoms: C_3  and  C_22
    4  A    between atoms: C_15  and  C_23
    5  A    between atoms: C_19  and  C_22
                            x       y       z     vdW  Elec       q    Type
                         _______ _______ _______ _____ _____    ______ ____

>  <TORSDO>
F 5

$$$$
=
 OpenBabel11052412573D

 31 36  0  0  1  0  0  0  0  0999 V2000
  183.6370  178.6090  140.6880 C   0  0  0  0  0  0  0  0  0  0  0  0
  186.8280  177.8490  138.8800 N   0  0  0  0  0  0  0  0  0  0  0  0
  186.5230  177.6200  137.4820 C   0  0  2  0  0  3  0  0  0  0  0  0
  185.1840  176.2740  135.8460 C   0  0  0  0  0  2  0  0  0  0  0  0
  185.9030  178.2440  139.8970 C   0  0  0  0  0  0  0  0  0  0  0  0
  184.1410  179.1210  141.8880 C   0  0  0  0  0  3  0  0  0  0  0  0
  185.8360  176.2880  137.2350 C   0  0  0  0  0  2  0  0  0  0  0  0
  188.7770  178.2540  140.4740 C   0  0  2  0  0  3  0  0  0  0  0  0
  182.2980  178.5570  140.4830 F   0  0  0  0  0  0  0  0  0  0  0  0
  188.9580  178.0640  137.7660 C   0  0  2  0  0  3  0  0  0  0  0  0
  186.1740  176.4980  134.6860 C   0  0  0  0  0  2  0  0  0  0  0  0
  187.7910  178.8250  141.3460 O   0  0  0  0  0  0  0  0  0  0  0  0
  188.2300  178.1580  139.0440 C   0  0  1  0  0  0  0  0  0  0  0  0
  184.5150  178.1770  139.6890 C   0  0  0  0  0  3  0  0  0  0  0  0
  186.6320  177.9670  134.5940 C   0  0  0  0  0  2  0  0  0  0  0  0
  186.4040  178.7410  141.1180 C   0  0  0  0  0  0  0  0  0  0  0  0
  185.5200  179.1870  142.1010 C   0  0  0  0  0  3  0  0  0  0  0  0
  188.5760  179.3090  138.3080 O   0  0  0  0  0  0  0  0  0  0  0  0
  187.8830  177.5610  136.7910 C   0  0  2  0  0  3  0  0  0  0  0  0
  187.8700  178.2970  135.4540 C   0  0  0  0  0  2  0  0  0  0  0  0
  190.6630  176.5630  140.4840 C   0  0  0  0  0  2  0  0  0  0  0  0
  190.6080  177.1230  141.8920 C   0  0  1  0  0  3  0  0  0  0  0  0
  189.3240  176.9520  141.0920 C   0  0  1  0  0  3  0  0  0  0  0  0
  190.6880  175.9910  142.8980 C   0  0  0  0  0  2  0  0  0  0  0  0
  191.3620  176.4200  144.2010 C   0  0  0  0  0  2  0  0  0  0  0  0
  192.0550  178.6830  144.3980 O   0  0  0  0  0  0  0  0  0  0  0  0
  191.1140  177.8610  144.5560 C   0  0  0  0  0  0  0  0  0  0  0  0
  189.8550  178.3340  145.0520 N   0  0  0  0  0  2  0  0  0  0  0  0
  188.8120  177.5580  145.6550 C   0  0  0  0  0  0  0  0  0  0  0  0
  187.5600  177.4540  144.9840 N   0  0  0  0  0  1  0  0  0  0  0  0
  188.8860  177.1580  147.2450 S   0  0  0  0  0  0  0  0  0  0  0  0
  1  6  1  0  0  0  0
  2 13  1  0  0  0  0
  2  5  1  0  0  0  0
  3  7  1  1  0  0  0
  3  2  1  0  0  0  0
  4  7  1  0  0  0  0
  5 16  2  0  0  0  0
  6 17  2  0  0  0  0
  8 23  1  0  0  0  0
  8 12  1  1  0  0  0
  9  1  1  0  0  0  0
 10 18  1  6  0  0  0
 10 13  1  0  0  0  0
 11  4  1  0  0  0  0
 13 18  1  6  0  0  0
 13  8  1  0  0  0  0
 14  5  1  0  0  0  0
 14  1  2  0  0  0  0
 15 11  1  0  0  0  0
 15 20  1  0  0  0  0
 16 12  1  0  0  0  0
 16 17  1  0  0  0  0
 19 20  1  6  0  0  0
 19  3  1  0  0  0  0
 19 10  1  0  0  0  0
 21 22  1  0  0  0  0
 22 24  1  1  0  0  0
 23 21  1  6  0  0  0
 23 22  1  0  0  0  0
 24 25  1  0  0  0  0
 25 27  1  0  0  0  0
 26 27  2  0  0  0  0
 27 28  1  0  0  0  0
 28 29  1  0  0  0  0
 29 31  2  0  0  0  0
 30 29  1  0  0  0  0
M  END
>  <MODEL>
4

>  <REMARK>
 VINA RESULT:      -7.8      2.562      3.452
  Name = 
  5 active torsions:
  status: ('A' for Active; 'I' for Inactive)
    1  A    between atoms: C_1  and  N_24
    2  A    between atoms: C_3  and  C_9
    3  A    between atoms: C_3  and  C_22
    4  A    between atoms: C_15  and  C_23
    5  A    between atoms: C_19  and  C_22
                            x       y       z     vdW  Elec       q    Type
                         _______ _______ _______ _____ _____    ______ ____

>  <TORSDO>
F 5

$$$$
=
 OpenBabel11052412573D

 31 36  0  0  1  0  0  0  0  0999 V2000
  185.0910  178.3270  143.8090 C   0  0  0  0  0  0  0  0  0  0  0  0
  183.3210  178.8360  140.5490 N   0  0  0  0  0  0  0  0  0  0  0  0
  181.9500  179.2180  140.8230 C   0  0  2  0  0  3  0  0  0  0  0  0
  179.8140  178.5910  141.9740 C   0  0  0  0  0  2  0  0  0  0  0  0
  184.3530  178.6240  141.5170 C   0  0  0  0  0  0  0  0  0  0  0  0
  186.4220  178.3070  143.3750 C   0  0  0  0  0  3  0  0  0  0  0  0
  181.1020  178.0640  141.3280 C   0  0  0  0  0  2  0  0  0  0  0  0
  185.0390  178.7180  138.6680 C   0  0  2  0  0  3  0  0  0  0  0  0
  184.8080  178.2120  145.1300 F   0  0  0  0  0  0  0  0  0  0  0  0
  182.5410  179.7760  138.4680 C   0  0  2  0  0  3  0  0  0  0  0  0
  178.9310  179.4250  141.0240 C   0  0  0  0  0  2  0  0  0  0  0  0
  186.0160  178.7210  139.7200 O   0  0  0  0  0  0  0  0  0  0  0  0
  183.6840  179.2050  139.2000 C   0  0  1  0  0  0  0  0  0  0  0  0
  184.0560  178.4920  142.8840 C   0  0  0  0  0  3  0  0  0  0  0  0
  179.5220  180.8240  140.7650 C   0  0  0  0  0  2  0  0  0  0  0  0
  185.6940  178.5820  141.0830 C   0  0  0  0  0  0  0  0  0  0  0  0
  186.7210  178.4350  142.0170 C   0  0  0  0  0  3  0  0  0  0  0  0
  183.5530  180.5950  139.0100 O   0  0  0  0  0  0  0  0  0  0  0  0
  181.3840  179.6350  139.4670 C   0  0  2  0  0  3  0  0  0  0  0  0
  180.5090  180.8820  139.5800 C   0  0  0  0  0  2  0  0  0  0  0  0
  184.4470  177.4470  136.5590 C   0  0  0  0  0  2  0  0  0  0  0  0
  185.9460  177.2910  136.7240 C   0  0  1  0  0  3  0  0  0  0  0  0
  185.0500  177.3530  137.9530 C   0  0  1  0  0  3  0  0  0  0  0  0
  186.3390  175.8430  136.5020 C   0  0  0  0  0  2  0  0  0  0  0  0
  187.6390  175.4790  137.2180 C   0  0  0  0  0  2  0  0  0  0  0  0
  189.3750  175.2780  135.6090 O   0  0  0  0  0  0  0  0  0  0  0  0
  188.8700  175.9890  136.5190 C   0  0  0  0  0  0  0  0  0  0  0  0
  189.4790  177.2460  136.8370 N   0  0  0  0  0  2  0  0  0  0  0  0
  189.3230  178.0090  138.0400 C   0  0  0  0  0  0  0  0  0  0  0  0
  188.9370  179.3760  137.9390 N   0  0  0  0  0  1  0  0  0  0  0  0
  189.9700  177.4770  139.4510 S   0  0  0  0  0  0  0  0  0  0  0  0
  1  9  1  0  0  0  0
  2  3  1  0  0  0  0
  2  5  1  0  0  0  0
  3  7  1  6  0  0  0
  5 14  1  0  0  0  0
  6  1  1  0  0  0  0
  7  4  1  0  0  0  0
  8 13  1  0  0  0  0
  8 12  1  1  0  0  0
 10 18  1  1  0  0  0
 10 13  1  0  0  0  0
 10 19  1  0  0  0  0
 11  4  1  0  0  0  0
 12 16  1  0  0  0  0
 13 18  1  1  0  0  0
 13  2  1  0  0  0  0
 14  1  2  0  0  0  0
 15 11  1  0  0  0  0
 16  5  2  0  0  0  0
 16 17  1  0  0  0  0
 17  6  2  0  0  0  0
 19 20  1  1  0  0  0
 19  3  1  0  0  0  0
 20 15  1  0  0  0  0
 21 22  1  0  0  0  0
 22 24  1  6  0  0  0
 22 23  1  0  0  0  0
 23 21  1  6  0  0  0
 23  8  1  0  0  0  0
 24 25  1  0  0  0  0
 26 27  2  0  0  0  0
 27 28  1  0  0  0  0
 27 25  1  0  0  0  0
 28 29  1  0  0  0  0
 29 31  2  0  0  0  0
 30 29  1  0  0  0  0
M  END
>  <MODEL>
5

>  <REMARK>
 VINA RESULT:      -7.4      3.848      5.215
  Name = 
  5 active torsions:
  status: ('A' for Active; 'I' for Inactive)
    1  A    between atoms: C_1  and  N_24
    2  A    between atoms: C_3  and  C_9
    3  A    between atoms: C_3  and  C_22
    4  A    between atoms: C_15  and  C_23
    5  A    between atoms: C_19  and  C_22
                            x       y       z     vdW  Elec       q    Type
                         _______ _______ _______ _____ _____    ______ ____

>  <TORSDO>
F 5

$$$$
=
 OpenBabel11052412573D

 31 36  0  0  1  0  0  0  0  0999 V2000
  185.5560  176.5770  136.0960 C   0  0  0  0  0  0  0  0  0  0  0  0
  188.8030  176.4390  137.9580 N   0  0  0  0  0  0  0  0  0  0  0  0
  189.7400  175.6430  137.1920 C   0  0  2  0  0  3  0  0  0  0  0  0
  190.1760  173.4240  136.1120 C   0  0  0  0  0  2  0  0  0  0  0  0
  187.4760  176.8030  137.5630 C   0  0  0  0  0  0  0  0  0  0  0  0
  184.9180  177.6220  136.7750 C   0  0  0  0  0  3  0  0  0  0  0  0
  189.4270  174.1560  137.2330 C   0  0  0  0  0  2  0  0  0  0  0  0
  188.6720  178.0500  139.9310 C   0  0  2  0  0  3  0  0  0  0  0  0
  184.9430  175.9770  135.0460 F   0  0  0  0  0  0  0  0  0  0  0  0
  190.9570  177.0050  138.8870 C   0  0  2  0  0  3  0  0  0  0  0  0
  191.7090  173.5690  136.1800 C   0  0  0  0  0  2  0  0  0  0  0  0
  187.4440  178.4930  139.3360 O   0  0  0  0  0  0  0  0  0  0  0  0
  189.5080  177.2700  138.9070 C   0  0  1  0  0  0  0  0  0  0  0  0
  186.8360  176.1710  136.4830 C   0  0  0  0  0  3  0  0  0  0  0  0
  192.1750  174.9720  135.7460 C   0  0  0  0  0  2  0  0  0  0  0  0
  186.8200  177.8400  138.2570 C   0  0  0  0  0  0  0  0  0  0  0  0
  185.5490  178.2510  137.8500 C   0  0  0  0  0  3  0  0  0  0  0  0
  190.4040  178.1320  138.2460 O   0  0  0  0  0  0  0  0  0  0  0  0
  191.0820  175.8410  137.8930 C   0  0  2  0  0  3  0  0  0  0  0  0
  192.2230  176.0050  136.8910 C   0  0  0  0  0  2  0  0  0  0  0  0
  189.6550  176.9790  142.0050 C   0  0  0  0  0  2  0  0  0  0  0  0
  188.7900  178.1190  142.5040 C   0  0  1  0  0  3  0  0  0  0  0  0
  188.3750  177.3380  141.2650 C   0  0  1  0  0  3  0  0  0  0  0  0
  187.9360  177.6460  143.6650 C   0  0  0  0  0  2  0  0  0  0  0  0
  188.7140  176.7520  144.6300 C   0  0  0  0  0  2  0  0  0  0  0  0
  187.6420  177.7890  146.4800 O   0  0  0  0  0  0  0  0  0  0  0  0
  188.6970  177.2480  146.0510 C   0  0  0  0  0  0  0  0  0  0  0  0
  189.8190  177.1200  146.9320 N   0  0  0  0  0  2  0  0  0  0  0  0
  191.1890  176.9060  146.5700 C   0  0  0  0  0  0  0  0  0  0  0  0
  191.6850  177.5090  145.3790 N   0  0  0  0  0  1  0  0  0  0  0  0
  192.0460  175.6800  147.2450 S   0  0  0  0  0  0  0  0  0  0  0  0
  1 14  2  0  0  0  0
  1  6  1  0  0  0  0
  2 13  1  0  0  0  0
  3  7  1  1  0  0  0
  3 19  1  0  0  0  0
  3  2  1  0  0  0  0
  4 11  1  0  0  0  0
  4  7  1  0  0  0  0
  5  2  1  0  0  0  0
  5 16  2  0  0  0  0
  6 17  2  0  0  0  0
  8 12  1  6  0  0  0
  8 23  1  0  0  0  0
  9  1  1  0  0  0  0
 10 18  1  6  0  0  0
 10 13  1  0  0  0  0
 13 18  1  6  0  0  0
 13  8  1  0  0  0  0
 14  5  1  0  0  0  0
 15 11  1  0  0  0  0
 15 20  1  0  0  0  0
 16 12  1  0  0  0  0
 17 16  1  0  0  0  0
 19 20  1  6  0  0  0
 19 10  1  0  0  0  0
 21 22  1  0  0  0  0
 22 24  1  1  0  0  0
 23 21  1  6  0  0  0
 23 22  1  0  0  0  0
 24 25  1  0  0  0  0
 25 27  1  0  0  0  0
 27 26  2  0  0  0  0
 27 28  1  0  0  0  0
 29 28  1  0  0  0  0
 29 31  2  0  0  0  0
 30 29  1  0  0  0  0
M  END
>  <MODEL>
6

>  <REMARK>
 VINA RESULT:      -7.4      3.941      6.310
  Name = 
  5 active torsions:
  status: ('A' for Active; 'I' for Inactive)
    1  A    between atoms: C_1  and  N_24
    2  A    between atoms: C_3  and  C_9
    3  A    between atoms: C_3  and  C_22
    4  A    between atoms: C_15  and  C_23
    5  A    between atoms: C_19  and  C_22
                            x       y       z     vdW  Elec       q    Type
                         _______ _______ _______ _____ _____    ______ ____

>  <TORSDO>
F 5

$$$$
=
 OpenBabel11052412573D

 31 36  0  0  1  0  0  0  0  0999 V2000
  185.2730  177.0370  136.8680 C   0  0  0  0  0  0  0  0  0  0  0  0
  188.7610  176.4320  138.0920 N   0  0  0  0  0  0  0  0  0  0  0  0
  189.4630  175.6340  137.1080 C   0  0  2  0  0  3  0  0  0  0  0  0
  189.4720  173.5020  135.7910 C   0  0  0  0  0  2  0  0  0  0  0  0
  187.4310  176.9480  137.9750 C   0  0  0  0  0  0  0  0  0  0  0  0
  184.8750  178.0630  137.7330 C   0  0  0  0  0  3  0  0  0  0  0  0
  189.0090  174.1840  137.0850 C   0  0  0  0  0  2  0  0  0  0  0  0
  189.1420  177.8470  140.1790 C   0  0  2  0  0  3  0  0  0  0  0  0
  184.4290  176.6000  135.9020 F   0  0  0  0  0  0  0  0  0  0  0  0
  191.0900  176.7110  138.6570 C   0  0  2  0  0  3  0  0  0  0  0  0
  191.0010  173.5040  135.5910 C   0  0  0  0  0  2  0  0  0  0  0  0
  187.8820  178.4530  139.8550 O   0  0  0  0  0  0  0  0  0  0  0  0
  189.7020  177.1000  138.9610 C   0  0  1  0  0  0  0  0  0  0  0  0
  186.5520  176.4830  136.9820 C   0  0  0  0  0  3  0  0  0  0  0  0
  191.5290  174.8950  135.1940 C   0  0  0  0  0  2  0  0  0  0  0  0
  187.0160  177.9660  138.8580 C   0  0  0  0  0  0  0  0  0  0  0  0
  185.7440  178.5250  138.7230 C   0  0  0  0  0  3  0  0  0  0  0  0
  190.5560  177.9400  138.2200 O   0  0  0  0  0  0  0  0  0  0  0  0
  190.9200  175.6440  137.5660 C   0  0  2  0  0  3  0  0  0  0  0  0
  191.8810  175.8030  136.3910 C   0  0  0  0  0  2  0  0  0  0  0  0
  190.3590  176.5440  141.9790 C   0  0  0  0  0  2  0  0  0  0  0  0
  189.6610  177.6810  142.6980 C   0  0  1  0  0  3  0  0  0  0  0  0
  189.0070  177.0370  141.4840 C   0  0  1  0  0  3  0  0  0  0  0  0
  188.9670  177.1540  143.9400 C   0  0  0  0  0  2  0  0  0  0  0  0
  189.2500  178.0130  145.1710 C   0  0  0  0  0  2  0  0  0  0  0  0
  189.4170  176.5380  147.0260 O   0  0  0  0  0  0  0  0  0  0  0  0
  188.7240  177.4190  146.4490 C   0  0  0  0  0  0  0  0  0  0  0  0
  187.4810  177.8200  147.0390 N   0  0  0  0  0  2  0  0  0  0  0  0
  186.3880  178.4870  146.3950 C   0  0  0  0  0  0  0  0  0  0  0  0
  185.6920  179.5050  147.1060 N   0  0  0  0  0  1  0  0  0  0  0  0
  185.6800  177.8300  145.0680 S   0  0  0  0  0  0  0  0  0  0  0  0
  1 14  2  0  0  0  0
  1  6  1  0  0  0  0
  2 13  1  0  0  0  0
  3  7  1  1  0  0  0
  3 19  1  0  0  0  0
  3  2  1  0  0  0  0
  4  7  1  0  0  0  0
  5  2  1  0  0  0  0
  5 16  2  0  0  0  0
  6 17  2  0  0  0  0
  8 12  1  6  0  0  0
  8 23  1  0  0  0  0
  9  1  1  0  0  0  0
 10 18  1  6  0  0  0
 10 13  1  0  0  0  0
 11  4  1  0  0  0  0
 13 18  1  6  0  0  0
 13  8  1  0  0  0  0
 14  5  1  0  0  0  0
 15 11  1  0  0  0  0
 15 20  1  0  0  0  0
 16 12  1  0  0  0  0
 17 16  1  0  0  0  0
 19 20  1  6  0  0  0
 19 10  1  0  0  0  0
 21 22  1  0  0  0  0
 22 24  1  1  0  0  0
 23 21  1  6  0  0  0
 23 22  1  0  0  0  0
 24 25  1  0  0  0  0
 25 27  1  0  0  0  0
 27 26  2  0  0  0  0
 27 28  1  0  0  0  0
 29 28  1  0  0  0  0
 29 30  1  0  0  0  0
 31 29  2  0  0  0  0
M  END
>  <MODEL>
7

>  <REMARK>
 VINA RESULT:      -7.3      4.213      6.283
  Name = 
  5 active torsions:
  status: ('A' for Active; 'I' for Inactive)
    1  A    between atoms: C_1  and  N_24
    2  A    between atoms: C_3  and  C_9
    3  A    between atoms: C_3  and  C_22
    4  A    between atoms: C_15  and  C_23
    5  A    between atoms: C_19  and  C_22
                            x       y       z     vdW  Elec       q    Type
                         _______ _______ _______ _____ _____    ______ ____

>  <TORSDO>
F 5

$$$$
=
 OpenBabel11052412573D

 31 36  0  0  1  0  0  0  0  0999 V2000
  190.2470  177.5070  141.2000 C   0  0  0  0  0  0  0  0  0  0  0  0
  186.6890  178.0930  142.2120 N   0  0  0  0  0  0  0  0  0  0  0  0
  186.6200  178.1250  143.6590 C   0  0  2  0  0  3  0  0  0  0  0  0
  187.1020  176.8890  145.7850 C   0  0  0  0  0  2  0  0  0  0  0  0
  187.8740  177.9700  141.4210 C   0  0  0  0  0  0  0  0  0  0  0  0
  190.1830  177.8400  139.8430 C   0  0  0  0  0  3  0  0  0  0  0  0
  186.7800  176.7530  144.2910 C   0  0  0  0  0  2  0  0  0  0  0  0
  185.3310  178.6280  140.1210 C   0  0  2  0  0  3  0  0  0  0  0  0
  191.4290  177.1410  141.7530 F   0  0  0  0  0  0  0  0  0  0  0  0
  184.5640  179.1370  142.6810 C   0  0  2  0  0  3  0  0  0  0  0  0
  186.0270  177.6410  146.5940 C   0  0  0  0  0  2  0  0  0  0  0  0
  186.6010  178.6870  139.4550 O   0  0  0  0  0  0  0  0  0  0  0  0
  185.5220  178.7250  141.6400 C   0  0  1  0  0  0  0  0  0  0  0  0
  189.0970  177.5780  141.9930 C   0  0  0  0  0  3  0  0  0  0  0  0
  186.0560  179.1570  146.3220 C   0  0  0  0  0  2  0  0  0  0  0  0
  187.8120  178.2830  140.0480 C   0  0  0  0  0  0  0  0  0  0  0  0
  188.9690  178.2280  139.2700 C   0  0  0  0  0  3  0  0  0  0  0  0
  185.4240  180.0660  142.0620 O   0  0  0  0  0  0  0  0  0  0  0  0
  185.2040  178.6040  143.9710 C   0  0  2  0  0  3  0  0  0  0  0  0
  185.1860  179.6010  145.1270 C   0  0  0  0  0  2  0  0  0  0  0  0
  183.0530  177.7490  139.4450 C   0  0  0  0  0  2  0  0  0  0  0  0
  183.9300  177.6030  138.2160 C   0  0  1  0  0  3  0  0  0  0  0  0
  184.5290  177.4170  139.6030 C   0  0  1  0  0  3  0  0  0  0  0  0
  183.7290  176.2300  137.6030 C   0  0  0  0  0  2  0  0  0  0  0  0
  184.6160  176.0060  136.3790 C   0  0  0  0  0  2  0  0  0  0  0  0
  186.7390  177.0600  136.5360 O   0  0  0  0  0  0  0  0  0  0  0  0
  186.0860  175.9950  136.6990 C   0  0  0  0  0  0  0  0  0  0  0  0
  186.7650  174.8330  137.1910 N   0  0  0  0  0  2  0  0  0  0  0  0
  186.3390  173.4680  137.0900 C   0  0  0  0  0  0  0  0  0  0  0  0
  185.3190  173.0030  137.9680 N   0  0  0  0  0  1  0  0  0  0  0  0
  187.2640  172.3640  136.3040 S   0  0  0  0  0  0  0  0  0  0  0  0
  1  9  1  0  0  0  0
  1 14  1  0  0  0  0
  2  3  1  0  0  0  0
  3 19  1  0  0  0  0
  3  7  1  1  0  0  0
  4 11  1  0  0  0  0
  5 14  2  0  0  0  0
  5  2  1  0  0  0  0
  6  1  2  0  0  0  0
  7  4  1  0  0  0  0
  8 12  1  6  0  0  0
  8 13  1  0  0  0  0
 10 18  1  1  0  0  0
 10 19  1  0  0  0  0
 12 16  1  0  0  0  0
 13 18  1  6  0  0  0
 13  2  1  0  0  0  0
 13 10  1  0  0  0  0
 15 11  1  0  0  0  0
 16  5  1  0  0  0  0
 17  6  1  0  0  0  0
 17 16  2  0  0  0  0
 19 20  1  1  0  0  0
 20 15  1  0  0  0  0
 22 24  1  6  0  0  0
 22 21  1  0  0  0  0
 22 23  1  0  0  0  0
 23 21  1  1  0  0  0
 23  8  1  0  0  0  0
 25 27  1  0  0  0  0
 25 24  1  0  0  0  0
 26 27  2  0  0  0  0
 27 28  1  0  0  0  0
 29 28  1  0  0  0  0
 29 30  1  0  0  0  0
 31 29  2  0  0  0  0
M  END
>  <MODEL>
8

>  <REMARK>
 VINA RESULT:      -7.2      3.977      7.605
  Name = 
  5 active torsions:
  status: ('A' for Active; 'I' for Inactive)
    1  A    between atoms: C_1  and  N_24
    2  A    between atoms: C_3  and  C_9
    3  A    between atoms: C_3  and  C_22
    4  A    between atoms: C_15  and  C_23
    5  A    between atoms: C_19  and  C_22
                            x       y       z     vdW  Elec       q    Type
                         _______ _______ _______ _____ _____    ______ ____

>  <TORSDO>
F 5

$$$$
=
 OpenBabel11052412573D

 31 36  0  0  1  0  0  0  0  0999 V2000
  179.6370  174.9560  139.3810 C   0  0  0  0  0  0  0  0  0  0  0  0
  182.9860  176.5780  138.9540 N   0  0  0  0  0  0  0  0  0  0  0  0
  183.6220  176.0200  137.7780 C   0  0  2  0  0  3  0  0  0  0  0  0
  184.4030  173.9290  136.6390 C   0  0  0  0  0  2  0  0  0  0  0  0
  181.6660  176.2870  139.4240 C   0  0  0  0  0  0  0  0  0  0  0  0
  179.0510  175.8230  140.3100 C   0  0  0  0  0  3  0  0  0  0  0  0
  184.1180  174.6000  137.9890 C   0  0  0  0  0  2  0  0  0  0  0  0
  183.1750  178.4930  140.6280 C   0  0  2  0  0  3  0  0  0  0  0  0
  178.9310  173.9050  138.8960 F   0  0  0  0  0  0  0  0  0  0  0  0
  184.7390  178.1500  138.4270 C   0  0  2  0  0  3  0  0  0  0  0  0
  185.4600  174.6590  135.7860 C   0  0  0  0  0  2  0  0  0  0  0  0
  181.7830  178.2550  140.8790 O   0  0  0  0  0  0  0  0  0  0  0  0
  183.5960  177.8400  139.3040 C   0  0  1  0  0  0  0  0  0  0  0  0
  180.9400  175.1890  138.9310 C   0  0  0  0  0  3  0  0  0  0  0  0
  184.9050  175.9550  135.1660 C   0  0  0  0  0  2  0  0  0  0  0  0
  181.0780  177.1440  140.3770 C   0  0  0  0  0  0  0  0  0  0  0  0
  179.7700  176.9130  140.8050 C   0  0  0  0  0  3  0  0  0  0  0  0
  183.4810  178.7610  138.2440 O   0  0  0  0  0  0  0  0  0  0  0  0
  184.8500  176.8980  137.5470 C   0  0  2  0  0  3  0  0  0  0  0  0
  185.0570  177.2010  136.0640 C   0  0  0  0  0  2  0  0  0  0  0  0
  185.2600  178.9630  141.9890 C   0  0  0  0  0  2  0  0  0  0  0  0
  184.0930  179.2160  142.9240 C   0  0  1  0  0  3  0  0  0  0  0  0
  184.0000  178.1170  141.8750 C   0  0  1  0  0  3  0  0  0  0  0  0
  184.3610  178.5610  144.2660 C   0  0  0  0  0  2  0  0  0  0  0  0
  185.5460  179.1930  144.9940 C   0  0  0  0  0  2  0  0  0  0  0  0
  185.2850  178.6910  147.3010 O   0  0  0  0  0  0  0  0  0  0  0  0
  185.9380  178.4600  146.2480 C   0  0  0  0  0  0  0  0  0  0  0  0
  187.0090  177.5090  146.2900 N   0  0  0  0  0  2  0  0  0  0  0  0
  188.0930  177.3790  145.3610 C   0  0  0  0  0  0  0  0  0  0  0  0
  187.8190  176.8830  144.0540 N   0  0  0  0  0  1  0  0  0  0  0  0
  189.6470  177.3840  145.8900 S   0  0  0  0  0  0  0  0  0  0  0  0
  1  6  1  0  0  0  0
  2 13  1  0  0  0  0
  2  5  1  0  0  0  0
  3  7  1  1  0  0  0
  3  2  1  0  0  0  0
  4  7  1  0  0  0  0
  5 16  2  0  0  0  0
  6 17  2  0  0  0  0
  8 12  1  1  0  0  0
  8 23  1  0  0  0  0
  9  1  1  0  0  0  0
 10 18  1  6  0  0  0
 10 13  1  0  0  0  0
 11  4  1  0  0  0  0
 13 18  1  6  0  0  0
 13  8  1  0  0  0  0
 14  1  2  0  0  0  0
 14  5  1  0  0  0  0
 15 11  1  0  0  0  0
 15 20  1  0  0  0  0
 16 17  1  0  0  0  0
 16 12  1  0  0  0  0
 19 20  1  6  0  0  0
 19  3  1  0  0  0  0
 19 10  1  0  0  0  0
 21 22  1  0  0  0  0
 22 24  1  1  0  0  0
 23 21  1  6  0  0  0
 23 22  1  0  0  0  0
 24 25  1  0  0  0  0
 25 27  1  0  0  0  0
 27 28  1  0  0  0  0
 27 26  2  0  0  0  0
 29 31  2  0  0  0  0
 29 28  1  0  0  0  0
 30 29  1  0  0  0  0
M  END
>  <MODEL>
9

>  <REMARK>
 VINA RESULT:      -7.2      3.082      4.564
  Name = 
  5 active torsions:
  status: ('A' for Active; 'I' for Inactive)
    1  A    between atoms: C_1  and  N_24
    2  A    between atoms: C_3  and  C_9
    3  A    between atoms: C_3  and  C_22
    4  A    between atoms: C_15  and  C_23
    5  A    between atoms: C_19  and  C_22
                            x       y       z     vdW  Elec       q    Type
                         _______ _______ _______ _____ _____    ______ ____

>  <TORSDO>
F 5

$$$$
