=
 OpenBabel11052414003D

 34 39  0  0  1  0  0  0  0  0999 V2000
  185.5120  178.3390  144.2650 C   0  0  0  0  0  0  0  0  0  0  0  0
  186.6740  177.8480  142.1970 C   0  0  0  0  0  0  0  0  0  0  0  0
  187.9440  177.9730  144.2980 C   0  0  0  0  0  0  0  0  0  0  0  0
  190.5240  178.0090  143.7460 C   0  0  2  0  0  0  0  0  0  0  0  0
  184.3200  178.1850  142.1800 C   0  0  0  0  0  3  0  0  0  0  0  0
  191.1130  176.7670  146.8920 C   0  0  1  0  0  3  0  0  0  0  0  0
  185.4880  177.9270  141.5350 N   0  0  0  0  0  0  0  0  0  0  0  0
  188.9690  176.9030  142.2650 C   0  0  1  0  0  3  0  0  0  0  0  0
  189.0600  176.3700  148.0690 O   0  0  0  0  0  1  0  0  0  0  0  0
  186.7180  178.0530  143.5900 C   0  0  0  0  0  0  0  0  0  0  0  0
  191.7110  177.5230  145.8520 O   0  0  0  0  0  0  0  0  0  0  0  0
  191.1480  177.9410  142.3640 C   0  0  0  0  0  2  0  0  0  0  0  0
  184.3110  178.3980  143.5580 C   0  0  0  0  0  3  0  0  0  0  0  0
  187.9220  178.2290  145.6990 C   0  0  0  0  0  0  0  0  0  0  0  0
  189.5840  176.7960  146.8470 C   0  0  1  0  0  3  0  0  0  0  0  0
  185.5180  178.5700  145.6360 C   0  0  0  0  0  3  0  0  0  0  0  0
  187.9320  177.6460  141.4180 C   0  0  0  0  0  2  0  0  0  0  0  0
  190.6170  179.4550  144.2210 C   0  0  0  0  0  1  0  0  0  0  0  0
  191.2970  176.9990  144.6130 C   0  0  0  0  0  2  0  0  0  0  0  0
  189.1300  178.2150  146.5660 C   0  0  0  0  0  2  0  0  0  0  0  0
  190.3550  176.8860  141.6230 C   0  0  2  0  0  3  0  0  0  0  0  0
  189.1330  177.5720  143.5550 N   0  0  0  0  0  0  0  0  0  0  0  0
  186.7150  178.5200  146.3430 C   0  0  0  0  0  3  0  0  0  0  0  0
  191.6560  175.3410  146.9720 C   0  0  0  0  0  2  0  0  0  0  0  0
  192.8070  175.2710  147.9580 C   0  0  0  0  0  1  0  0  0  0  0  0
  190.3310  177.1640  140.2520 O   0  0  0  0  0  0  0  0  0  0  0  0
  190.8120  176.0540  139.6730 O   0  0  0  0  0  0  0  0  0  0  0  0
  193.3160  177.2770  139.6220 F   0  0  0  0  0  0  0  0  0  0  0  0
  191.5790  176.1150  138.5070 C   0  0  0  0  0  0  0  0  0  0  0  0
  193.0660  176.3530  138.6250 C   0  0  1  0  0  3  0  0  0  0  0  0
  193.2990  175.8850  136.3080 C   0  0  0  0  0  2  0  0  0  0  0  0
  191.8010  175.9760  136.0330 C   0  0  0  0  0  2  0  0  0  0  0  0
  191.0170  175.8930  137.3110 C   0  0  0  0  0  3  0  0  0  0  0  0
  193.6480  176.8280  137.3660 N   0  0  0  0  0  2  0  0  0  0  0  0
  1 16  1  0  0  0  0
  2 10  1  0  0  0  0
  3 14  2  0  0  0  0
  4 18  1  1  0  0  0
  4 19  1  0  0  0  0
  5 13  2  0  0  0  0
  6 24  1  6  0  0  0
  7  5  1  0  0  0  0
  7  2  2  0  0  0  0
  8 17  1  6  0  0  0
  8 22  1  0  0  0  0
 10  1  2  0  0  0  0
 10  3  1  0  0  0  0
 11  6  1  0  0  0  0
 12  4  1  0  0  0  0
 13  1  1  0  0  0  0
 14 23  1  0  0  0  0
 14 20  1  0  0  0  0
 15  6  1  0  0  0  0
 15  9  1  1  0  0  0
 16 23  2  0  0  0  0
 17  2  1  0  0  0  0
 19 11  1  0  0  0  0
 20 15  1  0  0  0  0
 21 26  1  6  0  0  0
 21  8  1  0  0  0  0
 21 12  1  0  0  0  0
 22  4  1  0  0  0  0
 22  3  1  0  0  0  0
 24 25  1  0  0  0  0
 27 26  1  0  0  0  0
 29 30  1  0  0  0  0
 29 27  1  0  0  0  0
 30 28  1  1  0  0  0
 31 34  1  0  0  0  0
 32 31  1  0  0  0  0
 32 33  1  0  0  0  0
 33 29  2  0  0  0  0
 34 30  1  0  0  0  0
M  END
>  <MODEL>
1

>  <REMARK>
 VINA RESULT:      -9.6      0.000      0.000
  Name = 
  4 active torsions:
  status: ('A' for Active; 'I' for Inactive)
    1  A    between atoms: O_3  and  C_13
    2  A    between atoms: O_3  and  O_17
    3  A    between atoms: C_7  and  C_8
    4  A    between atoms: O_17  and  C_29
                            x       y       z     vdW  Elec       q    Type
                         _______ _______ _______ _____ _____    ______ ____

>  <TORSDO>
F 4

$$$$
=
 OpenBabel11052414003D

 34 39  0  0  1  0  0  0  0  0999 V2000
  185.5610  178.3440  144.2090 C   0  0  0  0  0  0  0  0  0  0  0  0
  186.8110  177.8860  142.1850 C   0  0  0  0  0  0  0  0  0  0  0  0
  187.9910  177.9840  144.3400 C   0  0  0  0  0  0  0  0  0  0  0  0
  190.5920  178.0350  143.8980 C   0  0  2  0  0  0  0  0  0  0  0  0
  184.4590  178.2170  142.0730 C   0  0  0  0  0  3  0  0  0  0  0  0
  191.0520  176.7500  147.0480 C   0  0  1  0  0  3  0  0  0  0  0  0
  185.6550  177.9700  141.4740 N   0  0  0  0  0  0  0  0  0  0  0  0
  189.1040  176.9450  142.3370 C   0  0  1  0  0  3  0  0  0  0  0  0
  188.9510  176.3320  148.1320 O   0  0  0  0  0  1  0  0  0  0  0  0
  186.7960  178.0710  143.5820 C   0  0  0  0  0  0  0  0  0  0  0  0
  191.6900  177.5220  146.0450 O   0  0  0  0  0  0  0  0  0  0  0  0
  191.2750  177.9870  142.5430 C   0  0  0  0  0  2  0  0  0  0  0  0
  184.3910  178.4100  143.4520 C   0  0  0  0  0  3  0  0  0  0  0  0
  187.9100  178.2210  145.7420 C   0  0  0  0  0  0  0  0  0  0  0  0
  189.5250  176.7760  146.9390 C   0  0  1  0  0  3  0  0  0  0  0  0
  185.5090  178.5560  145.5820 C   0  0  0  0  0  3  0  0  0  0  0  0
  188.1030  177.6970  141.4580 C   0  0  0  0  0  2  0  0  0  0  0  0
  190.6610  179.4740  144.3970 C   0  0  0  0  0  1  0  0  0  0  0  0
  191.3310  177.0140  144.7830 C   0  0  0  0  0  2  0  0  0  0  0  0
  189.0790  178.1970  146.6590 C   0  0  0  0  0  2  0  0  0  0  0  0
  190.5170  176.9410  141.7540 C   0  0  2  0  0  3  0  0  0  0  0  0
  189.2120  177.5970  143.6420 N   0  0  0  0  0  0  0  0  0  0  0  0
  186.6750  178.4990  146.3380 C   0  0  0  0  0  3  0  0  0  0  0  0
  191.5950  175.3240  147.1310 C   0  0  0  0  0  2  0  0  0  0  0  0
  192.7650  175.2630  148.0950 C   0  0  0  0  0  1  0  0  0  0  0  0
  190.5500  177.2380  140.3880 O   0  0  0  0  0  0  0  0  0  0  0  0
  190.6280  176.0430  139.7830 O   0  0  0  0  0  0  0  0  0  0  0  0
  188.3320  176.5420  138.2840 F   0  0  0  0  0  0  0  0  0  0  0  0
  190.6180  175.9300  138.3910 C   0  0  0  0  0  0  0  0  0  0  0  0
  189.5350  176.6370  137.6110 C   0  0  1  0  0  3  0  0  0  0  0  0
  190.6800  176.1150  135.5970 C   0  0  0  0  0  2  0  0  0  0  0  0
  191.6030  175.0990  136.2630 C   0  0  0  0  0  2  0  0  0  0  0  0
  191.5930  175.2660  137.7550 C   0  0  0  0  0  3  0  0  0  0  0  0
  189.3800  176.0860  136.2620 N   0  0  0  0  0  2  0  0  0  0  0  0
  1 16  1  0  0  0  0
  2 10  1  0  0  0  0
  3 14  2  0  0  0  0
  4 18  1  1  0  0  0
  4 19  1  0  0  0  0
  5 13  2  0  0  0  0
  6 24  1  6  0  0  0
  7  5  1  0  0  0  0
  7  2  2  0  0  0  0
  8 17  1  6  0  0  0
  8 22  1  0  0  0  0
 10  1  2  0  0  0  0
 10  3  1  0  0  0  0
 11  6  1  0  0  0  0
 12  4  1  0  0  0  0
 13  1  1  0  0  0  0
 14 23  1  0  0  0  0
 14 20  1  0  0  0  0
 15  6  1  0  0  0  0
 15  9  1  1  0  0  0
 16 23  2  0  0  0  0
 17  2  1  0  0  0  0
 19 11  1  0  0  0  0
 20 15  1  0  0  0  0
 21 26  1  6  0  0  0
 21  8  1  0  0  0  0
 21 12  1  0  0  0  0
 22  4  1  0  0  0  0
 22  3  1  0  0  0  0
 24 25  1  0  0  0  0
 27 26  1  0  0  0  0
 29 27  1  0  0  0  0
 30 28  1  1  0  0  0
 30 29  1  0  0  0  0
 31 34  1  0  0  0  0
 31 32  1  0  0  0  0
 32 33  1  0  0  0  0
 33 29  2  0  0  0  0
 34 30  1  0  0  0  0
M  END
>  <MODEL>
2

>  <REMARK>
 VINA RESULT:      -9.4      1.308      1.451
  Name = 
  4 active torsions:
  status: ('A' for Active; 'I' for Inactive)
    1  A    between atoms: O_3  and  C_13
    2  A    between atoms: O_3  and  O_17
    3  A    between atoms: C_7  and  C_8
    4  A    between atoms: O_17  and  C_29
                            x       y       z     vdW  Elec       q    Type
                         _______ _______ _______ _____ _____    ______ ____

>  <TORSDO>
F 4

$$$$
=
 OpenBabel11052414003D

 34 39  0  0  1  0  0  0  0  0999 V2000
  185.6940  178.4170  145.9560 C   0  0  0  0  0  0  0  0  0  0  0  0
  185.9730  178.1010  143.5710 C   0  0  0  0  0  0  0  0  0  0  0  0
  187.9310  177.9470  145.0500 C   0  0  0  0  0  0  0  0  0  0  0  0
  190.1230  177.9310  143.5800 C   0  0  2  0  0  0  0  0  0  0  0  0
  183.8110  178.5380  144.4600 C   0  0  0  0  0  3  0  0  0  0  0  0
  191.7250  176.3360  146.1640 C   0  0  1  0  0  3  0  0  0  0  0  0
  184.6370  178.3000  143.4070 N   0  0  0  0  0  0  0  0  0  0  0  0
  188.0500  177.0560  142.6990 C   0  0  1  0  0  3  0  0  0  0  0  0
  190.2220  175.9050  147.9850 O   0  0  0  0  0  1  0  0  0  0  0  0
  186.5420  178.1540  144.8590 C   0  0  0  0  0  0  0  0  0  0  0  0
  191.9570  177.1730  145.0430 O   0  0  0  0  0  0  0  0  0  0  0  0
  190.1890  177.9840  142.0650 C   0  0  0  0  0  2  0  0  0  0  0  0
  184.3260  178.6030  145.7550 C   0  0  0  0  0  3  0  0  0  0  0  0
  188.4460  178.0530  146.3730 C   0  0  0  0  0  0  0  0  0  0  0  0
  190.2930  176.4360  146.6960 C   0  0  1  0  0  3  0  0  0  0  0  0
  186.2200  178.5010  147.2400 C   0  0  0  0  0  3  0  0  0  0  0  0
  186.8380  177.9290  142.3650 C   0  0  0  0  0  2  0  0  0  0  0  0
  190.4980  179.3130  144.1040 C   0  0  0  0  0  1  0  0  0  0  0  0
  191.0770  176.8020  144.0090 C   0  0  0  0  0  2  0  0  0  0  0  0
  189.8820  177.8940  146.7230 C   0  0  0  0  0  2  0  0  0  0  0  0
  189.0980  177.0490  141.5870 C   0  0  2  0  0  3  0  0  0  0  0  0
  188.7290  177.5770  143.8860 N   0  0  0  0  0  0  0  0  0  0  0  0
  187.5850  178.3240  147.4430 C   0  0  0  0  0  3  0  0  0  0  0  0
  192.1440  174.8880  145.9170 C   0  0  0  0  0  2  0  0  0  0  0  0
  192.1460  174.5880  144.4300 C   0  0  0  0  0  1  0  0  0  0  0  0
  188.5950  177.4720  140.3530 O   0  0  0  0  0  0  0  0  0  0  0  0
  189.6840  177.7760  139.6290 O   0  0  0  0  0  0  0  0  0  0  0  0
  188.3110  178.4650  137.3030 F   0  0  0  0  0  0  0  0  0  0  0  0
  189.9440  177.1510  138.4080 C   0  0  0  0  0  0  0  0  0  0  0  0
  189.5360  177.8480  137.1320 C   0  0  1  0  0  3  0  0  0  0  0  0
  190.7310  176.2160  135.8880 C   0  0  0  0  0  2  0  0  0  0  0  0
  190.8850  175.2720  137.0770 C   0  0  0  0  0  2  0  0  0  0  0  0
  190.6090  175.9880  138.3670 C   0  0  0  0  0  3  0  0  0  0  0  0
  189.4580  176.9210  136.0000 N   0  0  0  0  0  2  0  0  0  0  0  0
  1 16  1  0  0  0  0
  2 10  1  0  0  0  0
  3 14  2  0  0  0  0
  4 22  1  0  0  0  0
  4 19  1  0  0  0  0
  4 18  1  1  0  0  0
  5 13  2  0  0  0  0
  6 24  1  6  0  0  0
  6 15  1  0  0  0  0
  7  2  2  0  0  0  0
  7  5  1  0  0  0  0
  8 17  1  6  0  0  0
  8 22  1  0  0  0  0
 10  3  1  0  0  0  0
 10  1  2  0  0  0  0
 11  6  1  0  0  0  0
 12  4  1  0  0  0  0
 13  1  1  0  0  0  0
 14 20  1  0  0  0  0
 14 23  1  0  0  0  0
 15 20  1  0  0  0  0
 15  9  1  1  0  0  0
 16 23  2  0  0  0  0
 17  2  1  0  0  0  0
 19 11  1  0  0  0  0
 21 26  1  6  0  0  0
 21 12  1  0  0  0  0
 21  8  1  0  0  0  0
 22  3  1  0  0  0  0
 25 24  1  0  0  0  0
 27 26  1  0  0  0  0
 29 27  1  0  0  0  0
 30 28  1  1  0  0  0
 30 29  1  0  0  0  0
 31 34  1  0  0  0  0
 31 32  1  0  0  0  0
 32 33  1  0  0  0  0
 33 29  2  0  0  0  0
 34 30  1  0  0  0  0
M  END
>  <MODEL>
3

>  <REMARK>
 VINA RESULT:      -8.3      1.737      2.063
  Name = 
  4 active torsions:
  status: ('A' for Active; 'I' for Inactive)
    1  A    between atoms: O_3  and  C_13
    2  A    between atoms: O_3  and  O_17
    3  A    between atoms: C_7  and  C_8
    4  A    between atoms: O_17  and  C_29
                            x       y       z     vdW  Elec       q    Type
                         _______ _______ _______ _____ _____    ______ ____

>  <TORSDO>
F 4

$$$$
=
 OpenBabel11052414003D

 34 39  0  0  1  0  0  0  0  0999 V2000
  183.1410  178.7410  144.2740 C   0  0  0  0  0  0  0  0  0  0  0  0
  185.1950  178.5700  143.0020 C   0  0  0  0  0  0  0  0  0  0  0  0
  183.0440  178.6860  141.8180 C   0  0  0  0  0  0  0  0  0  0  0  0
  183.4250  178.0940  139.2750 C   0  0  2  0  0  0  0  0  0  0  0  0
  185.2780  178.6420  145.3770 C   0  0  0  0  0  3  0  0  0  0  0  0
  180.5790  179.8670  138.5370 C   0  0  1  0  0  3  0  0  0  0  0  0
  185.8940  178.5530  144.1690 N   0  0  0  0  0  0  0  0  0  0  0  0
  185.1930  179.1030  140.5770 C   0  0  1  0  0  3  0  0  0  0  0  0
  179.6320  180.8510  140.5100 O   0  0  0  0  0  1  0  0  0  0  0  0
  183.7890  178.6650  143.0230 C   0  0  0  0  0  0  0  0  0  0  0  0
  181.4020  178.8140  138.0630 O   0  0  0  0  0  0  0  0  0  0  0  0
  184.7520  177.7560  138.6200 C   0  0  0  0  0  2  0  0  0  0  0  0
  183.8890  178.7360  145.4520 C   0  0  0  0  0  3  0  0  0  0  0  0
  181.6240  178.7460  141.9130 C   0  0  0  0  0  0  0  0  0  0  0  0
  180.7050  180.0890  140.0460 C   0  0  1  0  0  3  0  0  0  0  0  0
  181.7540  178.8130  144.3380 C   0  0  0  0  0  3  0  0  0  0  0  0
  185.9240  178.3820  141.7110 C   0  0  0  0  0  2  0  0  0  0  0  0
  182.6550  176.7900  139.4500 C   0  0  0  0  0  1  0  0  0  0  0  0
  182.7450  179.1220  138.3520 C   0  0  0  0  0  2  0  0  0  0  0  0
  180.7100  178.7410  140.7400 C   0  0  0  0  0  2  0  0  0  0  0  0
  185.7420  178.7450  139.1970 C   0  0  2  0  0  3  0  0  0  0  0  0
  183.7840  178.7100  140.5600 N   0  0  0  0  0  0  0  0  0  0  0  0
  181.0050  178.8110  143.1650 C   0  0  0  0  0  3  0  0  0  0  0  0
  180.7670  181.1630  137.7500 C   0  0  0  0  0  2  0  0  0  0  0  0
  180.2750  180.9890  136.3260 C   0  0  0  0  0  1  0  0  0  0  0  0
  187.0240  178.1870  139.2420 O   0  0  0  0  0  0  0  0  0  0  0  0
  187.6810  178.7620  138.2240 O   0  0  0  0  0  0  0  0  0  0  0  0
  190.1410  177.9730  139.2700 F   0  0  0  0  0  0  0  0  0  0  0  0
  188.6110  178.0510  137.4630 C   0  0  0  0  0  0  0  0  0  0  0  0
  189.6850  177.2630  138.1750 C   0  0  1  0  0  3  0  0  0  0  0  0
  190.3020  176.2800  136.1040 C   0  0  0  0  0  2  0  0  0  0  0  0
  189.5030  177.2780  135.2720 C   0  0  0  0  0  2  0  0  0  0  0  0
  188.5080  178.0100  136.1270 C   0  0  0  0  0  3  0  0  0  0  0  0
  190.8140  176.9510  137.2940 N   0  0  0  0  0  2  0  0  0  0  0  0
  1 16  1  0  0  0  0
  1 13  2  0  0  0  0
  2 10  2  0  0  0  0
  2  7  1  0  0  0  0
  3 14  2  0  0  0  0
  3 10  1  0  0  0  0
  4 18  1  1  0  0  0
  4 22  1  0  0  0  0
  5 13  1  0  0  0  0
  6 24  1  6  0  0  0
  6 15  1  0  0  0  0
  7  5  2  0  0  0  0
  8 17  1  1  0  0  0
 10  1  1  0  0  0  0
 11 19  1  0  0  0  0
 11  6  1  0  0  0  0
 12 21  1  0  0  0  0
 12  4  1  0  0  0  0
 14 23  1  0  0  0  0
 15  9  1  1  0  0  0
 15 20  1  0  0  0  0
 17  2  1  0  0  0  0
 19  4  1  0  0  0  0
 20 14  1  0  0  0  0
 21 26  1  1  0  0  0
 21  8  1  0  0  0  0
 22  8  1  0  0  0  0
 22  3  1  0  0  0  0
 23 16  2  0  0  0  0
 25 24  1  0  0  0  0
 27 26  1  0  0  0  0
 29 30  1  0  0  0  0
 29 27  1  0  0  0  0
 30 28  1  1  0  0  0
 31 34  1  0  0  0  0
 32 31  1  0  0  0  0
 32 33  1  0  0  0  0
 33 29  2  0  0  0  0
 34 30  1  0  0  0  0
M  END
>  <MODEL>
4

>  <REMARK>
 VINA RESULT:      -8.2      4.299      7.767
  Name = 
  4 active torsions:
  status: ('A' for Active; 'I' for Inactive)
    1  A    between atoms: O_3  and  C_13
    2  A    between atoms: O_3  and  O_17
    3  A    between atoms: C_7  and  C_8
    4  A    between atoms: O_17  and  C_29
                            x       y       z     vdW  Elec       q    Type
                         _______ _______ _______ _____ _____    ______ ____

>  <TORSDO>
F 4

$$$$
=
 OpenBabel11052414003D

 34 39  0  0  1  0  0  0  0  0999 V2000
  192.3500  175.9270  135.9520 C   0  0  0  0  0  0  0  0  0  0  0  0
  192.3230  176.3490  138.3370 C   0  0  0  0  0  0  0  0  0  0  0  0
  190.3060  176.7980  137.0060 C   0  0  0  0  0  0  0  0  0  0  0  0
  188.5910  178.1660  138.4740 C   0  0  2  0  0  0  0  0  0  0  0  0
  194.2880  175.4900  137.3100 C   0  0  0  0  0  3  0  0  0  0  0  0
  186.0730  176.9640  136.4740 C   0  0  1  0  0  3  0  0  0  0  0  0
  193.6140  175.9250  138.4070 N   0  0  0  0  0  0  0  0  0  0  0  0
  190.1580  176.6490  139.5140 C   0  0  1  0  0  3  0  0  0  0  0  0
  186.9270  175.4600  134.8100 O   0  0  0  0  0  1  0  0  0  0  0  0
  191.6510  176.3620  137.0990 C   0  0  0  0  0  0  0  0  0  0  0  0
  186.4140  178.0470  137.3230 O   0  0  0  0  0  0  0  0  0  0  0  0
  188.7860  178.5970  139.9160 C   0  0  0  0  0  2  0  0  0  0  0  0
  193.6680  175.4850  136.0610 C   0  0  0  0  0  3  0  0  0  0  0  0
  189.6990  176.8220  135.7180 C   0  0  0  0  0  0  0  0  0  0  0  0
  187.2980  176.2470  135.9020 C   0  0  1  0  0  3  0  0  0  0  0  0
  191.7290  175.9470  134.7080 C   0  0  0  0  0  3  0  0  0  0  0  0
  191.6670  176.8950  139.5640 C   0  0  0  0  0  2  0  0  0  0  0  0
  188.8010  179.3940  137.5950 C   0  0  0  0  0  1  0  0  0  0  0  0
  187.1790  177.5580  138.3990 C   0  0  0  0  0  2  0  0  0  0  0  0
  188.3100  177.2850  135.4600 C   0  0  0  0  0  2  0  0  0  0  0  0
  189.4000  177.3990  140.6080 C   0  0  2  0  0  3  0  0  0  0  0  0
  189.6130  177.1340  138.2460 N   0  0  0  0  0  0  0  0  0  0  0  0
  190.4160  176.3950  134.5950 C   0  0  0  0  0  3  0  0  0  0  0  0
  185.0910  175.9910  137.1230 C   0  0  0  0  0  2  0  0  0  0  0  0
  183.7240  176.6340  137.2570 C   0  0  0  0  0  1  0  0  0  0  0  0
  190.2200  177.8090  141.6640 O   0  0  0  0  0  0  0  0  0  0  0  0
  190.1190  176.8270  142.5730 O   0  0  0  0  0  0  0  0  0  0  0  0
  191.7200  176.4160  144.8180 F   0  0  0  0  0  0  0  0  0  0  0  0
  189.6540  177.0770  143.8660 C   0  0  0  0  0  0  0  0  0  0  0  0
  190.6580  177.2870  144.9740 C   0  0  1  0  0  3  0  0  0  0  0  0
  188.8920  177.9580  146.4130 C   0  0  0  0  0  2  0  0  0  0  0  0
  187.7980  177.4410  145.4830 C   0  0  0  0  0  2  0  0  0  0  0  0
  188.3400  177.2000  144.1040 C   0  0  0  0  0  3  0  0  0  0  0  0
  190.0630  177.0940  146.2990 N   0  0  0  0  0  2  0  0  0  0  0  0
  1 13  2  0  0  0  0
  1 10  1  0  0  0  0
  2  7  1  0  0  0  0
  2 17  1  0  0  0  0
  3 10  1  0  0  0  0
  3 22  1  0  0  0  0
  4 18  1  6  0  0  0
  4 12  1  0  0  0  0
  5  7  2  0  0  0  0
  6 24  1  1  0  0  0
  6 11  1  0  0  0  0
  8 17  1  6  0  0  0
  8 21  1  0  0  0  0
 10  2  2  0  0  0  0
 11 19  1  0  0  0  0
 12 21  1  0  0  0  0
 13  5  1  0  0  0  0
 14  3  2  0  0  0  0
 15  9  1  6  0  0  0
 15  6  1  0  0  0  0
 16  1  1  0  0  0  0
 19  4  1  0  0  0  0
 20 14  1  0  0  0  0
 20 15  1  0  0  0  0
 21 26  1  1  0  0  0
 22  4  1  0  0  0  0
 22  8  1  0  0  0  0
 23 16  2  0  0  0  0
 23 14  1  0  0  0  0
 24 25  1  0  0  0  0
 26 27  1  0  0  0  0
 27 29  1  0  0  0  0
 29 33  2  0  0  0  0
 29 30  1  0  0  0  0
 30 28  1  6  0  0  0
 30 34  1  0  0  0  0
 32 31  1  0  0  0  0
 33 32  1  0  0  0  0
 34 31  1  0  0  0  0
M  END
>  <MODEL>
5

>  <REMARK>
 VINA RESULT:      -7.9      3.014      9.079
  Name = 
  4 active torsions:
  status: ('A' for Active; 'I' for Inactive)
    1  A    between atoms: O_3  and  C_13
    2  A    between atoms: O_3  and  O_17
    3  A    between atoms: C_7  and  C_8
    4  A    between atoms: O_17  and  C_29
                            x       y       z     vdW  Elec       q    Type
                         _______ _______ _______ _____ _____    ______ ____

>  <TORSDO>
F 4

$$$$
=
 OpenBabel11052414003D

 34 39  0  0  1  0  0  0  0  0999 V2000
  190.5380  177.0620  145.1510 C   0  0  0  0  0  0  0  0  0  0  0  0
  188.1480  177.3580  145.4190 C   0  0  0  0  0  0  0  0  0  0  0  0
  189.1600  177.6350  143.1960 C   0  0  0  0  0  0  0  0  0  0  0  0
  187.3870  178.7180  141.5690 C   0  0  2  0  0  0  0  0  0  0  0  0
  189.4870  176.7870  147.2990 C   0  0  0  0  0  3  0  0  0  0  0  0
  189.1010  177.3320  138.9370 C   0  0  1  0  0  3  0  0  0  0  0  0
  188.2820  177.0850  146.7450 N   0  0  0  0  0  0  0  0  0  0  0  0
  186.6710  177.3440  143.4230 C   0  0  1  0  0  3  0  0  0  0  0  0
  190.9610  176.0230  139.7040 O   0  0  0  0  0  1  0  0  0  0  0  0
  189.2800  177.3540  144.5800 C   0  0  0  0  0  0  0  0  0  0  0  0
  188.2360  178.4030  139.2760 O   0  0  0  0  0  0  0  0  0  0  0  0
  185.9590  179.0960  141.9190 C   0  0  0  0  0  2  0  0  0  0  0  0
  190.6380  176.7720  146.5120 C   0  0  0  0  0  3  0  0  0  0  0  0
  190.3500  177.6520  142.4130 C   0  0  0  0  0  0  0  0  0  0  0  0
  189.8800  176.7920  140.1390 C   0  0  1  0  0  3  0  0  0  0  0  0
  191.6810  177.0710  144.3610 C   0  0  0  0  0  3  0  0  0  0  0  0
  186.8110  177.7610  144.8890 C   0  0  0  0  0  2  0  0  0  0  0  0
  188.2030  180.0050  141.5170 C   0  0  0  0  0  1  0  0  0  0  0  0
  187.3090  177.9530  140.2350 C   0  0  0  0  0  2  0  0  0  0  0  0
  190.3860  177.9610  140.9600 C   0  0  0  0  0  2  0  0  0  0  0  0
  185.4370  177.9440  142.7520 C   0  0  2  0  0  3  0  0  0  0  0  0
  187.8190  177.8250  142.6540 N   0  0  0  0  0  0  0  0  0  0  0  0
  191.5850  177.3680  143.0050 C   0  0  0  0  0  3  0  0  0  0  0  0
  188.3900  176.2190  138.1690 C   0  0  0  0  0  2  0  0  0  0  0  0
  188.4030  176.5150  136.6820 C   0  0  0  0  0  1  0  0  0  0  0  0
  184.4770  178.3940  143.6640 O   0  0  0  0  0  0  0  0  0  0  0  0
  183.6920  179.2180  142.9530 O   0  0  0  0  0  0  0  0  0  0  0  0
  182.6130  179.2660  140.3840 F   0  0  0  0  0  0  0  0  0  0  0  0
  182.3510  178.9170  142.7120 C   0  0  0  0  0  0  0  0  0  0  0  0
  181.9340  178.5070  141.3190 C   0  0  1  0  0  3  0  0  0  0  0  0
  179.7920  177.9210  142.1590 C   0  0  0  0  0  2  0  0  0  0  0  0
  180.0060  178.6290  143.4940 C   0  0  0  0  0  2  0  0  0  0  0  0
  181.4620  178.9210  143.7160 C   0  0  0  0  0  3  0  0  0  0  0  0
  180.4910  178.6570  141.1100 N   0  0  0  0  0  2  0  0  0  0  0  0
  1 13  2  0  0  0  0
  2  7  1  0  0  0  0
  3 10  1  0  0  0  0
  4 18  1  6  0  0  0
  4 12  1  0  0  0  0
  4 22  1  0  0  0  0
  6 24  1  1  0  0  0
  6 11  1  0  0  0  0
  6 15  1  0  0  0  0
  7  5  2  0  0  0  0
  8 17  1  1  0  0  0
 10  1  1  0  0  0  0
 10  2  2  0  0  0  0
 11 19  1  0  0  0  0
 12 21  1  0  0  0  0
 13  5  1  0  0  0  0
 14 23  1  0  0  0  0
 14  3  2  0  0  0  0
 15  9  1  6  0  0  0
 15 20  1  0  0  0  0
 16  1  1  0  0  0  0
 17  2  1  0  0  0  0
 19  4  1  0  0  0  0
 20 14  1  0  0  0  0
 21  8  1  0  0  0  0
 21 26  1  1  0  0  0
 22  3  1  0  0  0  0
 22  8  1  0  0  0  0
 23 16  2  0  0  0  0
 25 24  1  0  0  0  0
 27 26  1  0  0  0  0
 29 27  1  0  0  0  0
 29 33  2  0  0  0  0
 30 28  1  6  0  0  0
 30 29  1  0  0  0  0
 31 32  1  0  0  0  0
 32 33  1  0  0  0  0
 34 30  1  0  0  0  0
 34 31  1  0  0  0  0
M  END
>  <MODEL>
6

>  <REMARK>
 VINA RESULT:      -7.7      3.373      8.011
  Name = 
  4 active torsions:
  status: ('A' for Active; 'I' for Inactive)
    1  A    between atoms: O_3  and  C_13
    2  A    between atoms: O_3  and  O_17
    3  A    between atoms: C_7  and  C_8
    4  A    between atoms: O_17  and  C_29
                            x       y       z     vdW  Elec       q    Type
                         _______ _______ _______ _____ _____    ______ ____

>  <TORSDO>
F 4

$$$$
=
 OpenBabel11052414003D

 34 39  0  0  1  0  0  0  0  0999 V2000
  187.0010  177.9710  137.5420 C   0  0  0  0  0  0  0  0  0  0  0  0
  187.0120  178.4820  139.9090 C   0  0  0  0  0  0  0  0  0  0  0  0
  184.8840  177.9670  138.7930 C   0  0  0  0  0  0  0  0  0  0  0  0
  182.8900  178.5750  140.4110 C   0  0  2  0  0  0  0  0  0  0  0  0
  189.0560  178.4650  138.6940 C   0  0  0  0  0  3  0  0  0  0  0  0
  180.9480  176.3150  138.7080 C   0  0  1  0  0  3  0  0  0  0  0  0
  188.3620  178.6420  139.8490 N   0  0  0  0  0  0  0  0  0  0  0  0
  185.0370  177.9160  141.3040 C   0  0  1  0  0  3  0  0  0  0  0  0
  182.2040  175.2120  136.9860 O   0  0  0  0  0  1  0  0  0  0  0  0
  186.2900  178.1400  138.7490 C   0  0  0  0  0  0  0  0  0  0  0  0
  180.8740  177.4890  139.5000 O   0  0  0  0  0  0  0  0  0  0  0  0
  183.0130  179.1320  141.8190 C   0  0  0  0  0  2  0  0  0  0  0  0
  188.3870  178.1280  137.5180 C   0  0  0  0  0  3  0  0  0  0  0  0
  184.2120  177.6590  137.5750 C   0  0  0  0  0  0  0  0  0  0  0  0
  182.3040  176.1440  138.0200 C   0  0  1  0  0  3  0  0  0  0  0  0
  186.3210  177.6560  136.3700 C   0  0  0  0  0  3  0  0  0  0  0  0
  186.3000  178.7740  141.1900 C   0  0  0  0  0  2  0  0  0  0  0  0
  182.4830  179.7250  139.4970 C   0  0  0  0  0  1  0  0  0  0  0  0
  181.8670  177.4280  140.4960 C   0  0  0  0  0  2  0  0  0  0  0  0
  182.7400  177.4830  137.4590 C   0  0  0  0  0  2  0  0  0  0  0  0
  184.1350  178.3430  142.4600 C   0  0  2  0  0  3  0  0  0  0  0  0
  184.2280  178.0540  140.0930 N   0  0  0  0  0  0  0  0  0  0  0  0
  184.9380  177.5070  136.3900 C   0  0  0  0  0  3  0  0  0  0  0  0
  180.5310  175.0600  139.4720 C   0  0  0  0  0  2  0  0  0  0  0  0
  179.0250  175.0270  139.6480 C   0  0  0  0  0  1  0  0  0  0  0  0
  184.7950  179.1200  143.4170 O   0  0  0  0  0  0  0  0  0  0  0  0
  184.8510  178.3400  144.5080 O   0  0  0  0  0  0  0  0  0  0  0  0
  185.3040  179.1230  147.1440 F   0  0  0  0  0  0  0  0  0  0  0  0
  186.0590  178.0800  145.1560 C   0  0  0  0  0  0  0  0  0  0  0  0
  186.0940  178.0950  146.6660 C   0  0  1  0  0  3  0  0  0  0  0  0
  188.2970  177.2090  146.5990 C   0  0  0  0  0  2  0  0  0  0  0  0
  188.4760  177.4890  145.1100 C   0  0  0  0  0  2  0  0  0  0  0  0
  187.1510  177.7500  144.4520 C   0  0  0  0  0  3  0  0  0  0  0  0
  187.4570  178.2500  147.1830 N   0  0  0  0  0  2  0  0  0  0  0  0
  1 10  1  0  0  0  0
  2 17  1  0  0  0  0
  3 22  1  0  0  0  0
  4 18  1  6  0  0  0
  4 19  1  0  0  0  0
  4 12  1  0  0  0  0
  5  7  2  0  0  0  0
  6 24  1  1  0  0  0
  6 11  1  0  0  0  0
  7  2  1  0  0  0  0
  8 17  1  6  0  0  0
  8 21  1  0  0  0  0
 10  3  1  0  0  0  0
 10  2  2  0  0  0  0
 11 19  1  0  0  0  0
 12 21  1  0  0  0  0
 13  1  2  0  0  0  0
 13  5  1  0  0  0  0
 14  3  2  0  0  0  0
 15  9  1  6  0  0  0
 15  6  1  0  0  0  0
 16 23  2  0  0  0  0
 16  1  1  0  0  0  0
 20 14  1  0  0  0  0
 20 15  1  0  0  0  0
 21 26  1  1  0  0  0
 22  4  1  0  0  0  0
 22  8  1  0  0  0  0
 23 14  1  0  0  0  0
 24 25  1  0  0  0  0
 26 27  1  0  0  0  0
 27 29  1  0  0  0  0
 29 30  1  0  0  0  0
 30 28  1  6  0  0  0
 30 34  1  0  0  0  0
 31 34  1  0  0  0  0
 32 31  1  0  0  0  0
 33 32  1  0  0  0  0
 33 29  2  0  0  0  0
M  END
>  <MODEL>
7

>  <REMARK>
 VINA RESULT:      -7.3      4.674      9.353
  Name = 
  4 active torsions:
  status: ('A' for Active; 'I' for Inactive)
    1  A    between atoms: O_3  and  C_13
    2  A    between atoms: O_3  and  O_17
    3  A    between atoms: C_7  and  C_8
    4  A    between atoms: O_17  and  C_29
                            x       y       z     vdW  Elec       q    Type
                         _______ _______ _______ _____ _____    ______ ____

>  <TORSDO>
F 4

$$$$
=
 OpenBabel11052414003D

 34 39  0  0  1  0  0  0  0  0999 V2000
  184.3250  178.5280  144.4620 C   0  0  0  0  0  0  0  0  0  0  0  0
  185.9140  178.4060  142.6370 C   0  0  0  0  0  0  0  0  0  0  0  0
  183.5150  178.6120  142.1410 C   0  0  0  0  0  0  0  0  0  0  0  0
  183.1230  178.1580  139.5720 C   0  0  2  0  0  0  0  0  0  0  0  0
  186.6880  178.3450  144.8850 C   0  0  0  0  0  3  0  0  0  0  0  0
  180.2330  179.9990  139.7890 C   0  0  1  0  0  3  0  0  0  0  0  0
  186.9220  178.3170  143.5460 N   0  0  0  0  0  0  0  0  0  0  0  0
  185.2190  179.0750  140.3490 C   0  0  1  0  0  3  0  0  0  0  0  0
  179.9280  180.8810  142.0000 O   0  0  0  0  0  1  0  0  0  0  0  0
  184.5790  178.5150  143.0730 C   0  0  0  0  0  0  0  0  0  0  0  0
  180.8540  178.9650  139.0430 O   0  0  0  0  0  0  0  0  0  0  0  0
  184.1920  177.8430  138.5410 C   0  0  0  0  0  2  0  0  0  0  0  0
  185.3840  178.4500  145.3670 C   0  0  0  0  0  3  0  0  0  0  0  0
  182.1860  178.6800  142.6500 C   0  0  0  0  0  0  0  0  0  0  0  0
  180.7990  180.1350  141.2040 C   0  0  1  0  0  3  0  0  0  0  0  0
  183.0190  178.6110  144.9320 C   0  0  0  0  0  3  0  0  0  0  0  0
  186.2300  178.2840  141.1820 C   0  0  0  0  0  2  0  0  0  0  0  0
  182.4030  176.8550  139.8990 C   0  0  0  0  0  1  0  0  0  0  0  0
  182.2300  179.2430  138.9410 C   0  0  0  0  0  2  0  0  0  0  0  0
  180.9710  178.7510  141.7970 C   0  0  0  0  0  2  0  0  0  0  0  0
  185.3330  178.7880  138.8520 C   0  0  2  0  0  3  0  0  0  0  0  0
  183.8560  178.6980  140.7260 N   0  0  0  0  0  0  0  0  0  0  0  0
  181.9610  178.6820  144.0310 C   0  0  0  0  0  3  0  0  0  0  0  0
  180.2170  181.3350  139.0480 C   0  0  0  0  0  2  0  0  0  0  0  0
  178.9360  181.4770  138.2480 C   0  0  0  0  0  1  0  0  0  0  0  0
  186.5570  178.2150  138.4930 O   0  0  0  0  0  0  0  0  0  0  0  0
  186.2610  177.3980  137.4700 O   0  0  0  0  0  0  0  0  0  0  0  0
  185.7460  175.8970  135.1790 F   0  0  0  0  0  0  0  0  0  0  0  0
  187.2230  176.5550  136.9100 C   0  0  0  0  0  0  0  0  0  0  0  0
  187.0760  176.1410  135.4650 C   0  0  1  0  0  3  0  0  0  0  0  0
  189.2520  175.1920  135.5420 C   0  0  0  0  0  2  0  0  0  0  0  0
  189.3390  175.2540  137.0640 C   0  0  0  0  0  2  0  0  0  0  0  0
  188.2960  176.1800  137.6210 C   0  0  0  0  0  3  0  0  0  0  0  0
  187.8670  174.9470  135.1520 N   0  0  0  0  0  2  0  0  0  0  0  0
  1 16  1  0  0  0  0
  1 13  2  0  0  0  0
  2 10  2  0  0  0  0
  2  7  1  0  0  0  0
  3 14  2  0  0  0  0
  3 10  1  0  0  0  0
  4 18  1  1  0  0  0
  4 22  1  0  0  0  0
  5 13  1  0  0  0  0
  6 24  1  6  0  0  0
  6 15  1  0  0  0  0
  7  5  2  0  0  0  0
  8 22  1  0  0  0  0
  8 17  1  1  0  0  0
 10  1  1  0  0  0  0
 11  6  1  0  0  0  0
 12 21  1  0  0  0  0
 12  4  1  0  0  0  0
 14 23  1  0  0  0  0
 15 20  1  0  0  0  0
 15  9  1  1  0  0  0
 17  2  1  0  0  0  0
 19 11  1  0  0  0  0
 19  4  1  0  0  0  0
 20 14  1  0  0  0  0
 21 26  1  1  0  0  0
 21  8  1  0  0  0  0
 22  3  1  0  0  0  0
 23 16  2  0  0  0  0
 25 24  1  0  0  0  0
 27 26  1  0  0  0  0
 29 27  1  0  0  0  0
 29 33  2  0  0  0  0
 30 28  1  1  0  0  0
 30 29  1  0  0  0  0
 31 32  1  0  0  0  0
 32 33  1  0  0  0  0
 34 30  1  0  0  0  0
 34 31  1  0  0  0  0
M  END
>  <MODEL>
8

>  <REMARK>
 VINA RESULT:      -7.3      4.468      7.855
  Name = 
  4 active torsions:
  status: ('A' for Active; 'I' for Inactive)
    1  A    between atoms: O_3  and  C_13
    2  A    between atoms: O_3  and  O_17
    3  A    between atoms: C_7  and  C_8
    4  A    between atoms: O_17  and  C_29
                            x       y       z     vdW  Elec       q    Type
                         _______ _______ _______ _____ _____    ______ ____

>  <TORSDO>
F 4

$$$$
=
 OpenBabel11052414003D

 34 39  0  0  1  0  0  0  0  0999 V2000
  190.0340  174.4750  135.5970 C   0  0  0  0  0  0  0  0  0  0  0  0
  190.9440  175.1310  137.7440 C   0  0  0  0  0  0  0  0  0  0  0  0
  188.8720  176.1780  136.9370 C   0  0  0  0  0  0  0  0  0  0  0  0
  188.3020  178.2540  138.4630 C   0  0  2  0  0  0  0  0  0  0  0  0
  192.0500  173.4710  136.4490 C   0  0  0  0  0  3  0  0  0  0  0  0
  185.0160  177.9110  137.5340 C   0  0  1  0  0  3  0  0  0  0  0  0
  191.9640  174.2510  137.5600 N   0  0  0  0  0  0  0  0  0  0  0  0
  189.5240  176.3720  139.3590 C   0  0  1  0  0  3  0  0  0  0  0  0
  184.7150  176.0220  136.0840 O   0  0  0  0  0  1  0  0  0  0  0  0
  189.9440  175.2680  136.7610 C   0  0  0  0  0  0  0  0  0  0  0  0
  185.9600  178.8630  137.9950 O   0  0  0  0  0  0  0  0  0  0  0  0
  189.0970  178.7310  139.6650 C   0  0  0  0  0  2  0  0  0  0  0  0
  191.0860  173.5710  135.4460 C   0  0  0  0  0  3  0  0  0  0  0  0
  187.9170  176.2940  135.8870 C   0  0  0  0  0  0  0  0  0  0  0  0
  185.6670  176.7180  136.8310 C   0  0  1  0  0  3  0  0  0  0  0  0
  189.0800  174.5980  134.5940 C   0  0  0  0  0  3  0  0  0  0  0  0
  190.9550  176.0180  138.9460 C   0  0  0  0  0  2  0  0  0  0  0  0
  188.6060  179.2020  137.3080 C   0  0  0  0  0  1  0  0  0  0  0  0
  186.8290  178.2360  138.9080 C   0  0  0  0  0  2  0  0  0  0  0  0
  186.7600  177.2280  135.9130 C   0  0  0  0  0  2  0  0  0  0  0  0
  189.4690  177.4710  140.4190 C   0  0  2  0  0  3  0  0  0  0  0  0
  188.7840  176.8890  138.2080 N   0  0  0  0  0  0  0  0  0  0  0  0
  188.0340  175.5040  134.7390 C   0  0  0  0  0  3  0  0  0  0  0  0
  184.0400  177.4710  138.6240 C   0  0  0  0  0  2  0  0  0  0  0  0
  183.2030  178.6480  139.0860 C   0  0  0  0  0  1  0  0  0  0  0  0
  190.6800  177.6450  141.0970 O   0  0  0  0  0  0  0  0  0  0  0  0
  190.6230  176.7800  142.1210 O   0  0  0  0  0  0  0  0  0  0  0  0
  188.0550  175.9930  142.8650 F   0  0  0  0  0  0  0  0  0  0  0  0
  190.0680  177.1430  143.3500 C   0  0  0  0  0  0  0  0  0  0  0  0
  188.9110  176.3370  143.8930 C   0  0  1  0  0  3  0  0  0  0  0  0
  189.1020  177.5020  145.9540 C   0  0  0  0  0  2  0  0  0  0  0  0
  190.0170  178.5790  145.3810 C   0  0  0  0  0  2  0  0  0  0  0  0
  190.6000  178.1420  144.0680 C   0  0  0  0  0  3  0  0  0  0  0  0
  188.1660  177.0700  144.9210 N   0  0  0  0  0  2  0  0  0  0  0  0
  1 10  1  0  0  0  0
  2 17  1  0  0  0  0
  3 22  1  0  0  0  0
  4 18  1  6  0  0  0
  4 19  1  0  0  0  0
  4 12  1  0  0  0  0
  5  7  2  0  0  0  0
  6 11  1  0  0  0  0
  6 24  1  1  0  0  0
  7  2  1  0  0  0  0
  8 17  1  6  0  0  0
  8 21  1  0  0  0  0
 10  3  1  0  0  0  0
 10  2  2  0  0  0  0
 11 19  1  0  0  0  0
 12 21  1  0  0  0  0
 13  1  2  0  0  0  0
 13  5  1  0  0  0  0
 14 20  1  0  0  0  0
 14  3  2  0  0  0  0
 15  9  1  6  0  0  0
 15  6  1  0  0  0  0
 16 23  2  0  0  0  0
 16  1  1  0  0  0  0
 20 15  1  0  0  0  0
 21 26  1  6  0  0  0
 22  4  1  0  0  0  0
 22  8  1  0  0  0  0
 23 14  1  0  0  0  0
 24 25  1  0  0  0  0
 26 27  1  0  0  0  0
 27 29  1  0  0  0  0
 29 30  1  0  0  0  0
 29 33  2  0  0  0  0
 30 28  1  6  0  0  0
 30 34  1  0  0  0  0
 32 31  1  0  0  0  0
 33 32  1  0  0  0  0
 34 31  1  0  0  0  0
M  END
>  <MODEL>
9

>  <REMARK>
 VINA RESULT:      -7.1      3.311      8.760
  Name = 
  4 active torsions:
  status: ('A' for Active; 'I' for Inactive)
    1  A    between atoms: O_3  and  C_13
    2  A    between atoms: O_3  and  O_17
    3  A    between atoms: C_7  and  C_8
    4  A    between atoms: O_17  and  C_29
                            x       y       z     vdW  Elec       q    Type
                         _______ _______ _______ _____ _____    ______ ____

>  <TORSDO>
F 4

$$$$
