=
 OpenBabel11052413273D

 28 34  0  0  1  0  0  0  0  0999 V2000
  188.8300  177.1460  145.4100 C   0  0  2  0  0  3  0  0  0  0  0  0
  188.9660  176.5140  144.0080 C   0  0  1  0  0  3  0  0  0  0  0  0
  186.9700  177.6060  143.2120 C   0  0  2  0  0  3  0  0  0  0  0  0
  183.0320  179.2530  144.0230 C   0  0  0  0  0  2  0  0  0  0  0  0
  189.1470  179.1780  148.0670 C   0  0  0  0  0  1  0  0  0  0  0  0
  191.1880  176.9690  142.6940 C   0  0  1  0  0  3  0  0  0  0  0  0
  188.3950  177.3490  142.9440 N   0  0  1  0  0  0  0  0  0  0  0  0
  191.4720  177.0420  144.1770 C   0  0  0  0  0  2  0  0  0  0  0  0
  184.0400  177.9410  141.3550 C   0  0  0  0  0  2  0  0  0  0  0  0
  185.3850  178.8650  144.8570 C   0  0  2  0  0  3  0  0  0  0  0  0
  190.4100  176.0670  143.6750 C   0  0  1  0  0  3  0  0  0  0  0  0
  181.7990  178.9390  141.8700 C   0  0  0  0  0  0  0  0  0  0  0  0
  184.3430  178.5030  143.7870 C   0  0  2  0  0  3  0  0  0  0  0  0
  186.3440  178.4970  142.1360 C   0  0  0  0  0  2  0  0  0  0  0  0
  182.7700  178.6540  140.9910 C   0  0  0  0  0  3  0  0  0  0  0  0
  187.1830  178.2260  146.9710 N   0  0  0  0  0  0  0  0  0  0  0  0
  186.6930  178.1430  144.5990 C   0  0  0  0  0  0  0  0  0  0  0  0
  184.8480  178.7600  142.3520 C   0  0  1  0  0  3  0  0  0  0  0  0
  188.9160  176.6930  147.9140 C   0  0  0  0  0  2  0  0  0  0  0  0
  185.9160  178.8830  147.2890 C   0  0  0  0  0  2  0  0  0  0  0  0
  188.1560  178.0280  148.0460 C   0  0  1  0  0  3  0  0  0  0  0  0
  190.5150  178.2700  142.2110 C   0  0  0  0  0  2  0  0  0  0  0  0
  180.6870  179.5840  141.4290 F   0  0  0  0  0  0  0  0  0  0  0  0
  181.8770  178.5520  143.3190 C   0  0  0  0  0  2  0  0  0  0  0  0
  184.8590  178.5250  146.2530 C   0  0  0  0  0  2  0  0  0  0  0  0
  188.9500  176.0870  146.5000 C   0  0  0  0  0  2  0  0  0  0  0  0
  187.5320  177.8760  145.6170 C   0  0  0  0  0  0  0  0  0  0  0  0
  189.1720  178.5820  142.8560 C   0  0  0  0  0  2  0  0  0  0  0  0
  1 27  1  0  0  0  0
  1 26  1  1  0  0  0
  2  1  1  0  0  0  0
  3 17  1  0  0  0  0
  6 11  1  0  0  0  0
  6  8  1  0  0  0  0
  7  3  1  0  0  0  0
  7  2  1  0  0  0  0
  9 18  1  0  0  0  0
 10 25  1  0  0  0  0
 11  2  1  0  0  0  0
 11  8  1  0  0  0  0
 12 24  1  0  0  0  0
 13  4  1  0  0  0  0
 13 10  1  0  0  0  0
 14 18  1  0  0  0  0
 14  3  1  0  0  0  0
 15  9  1  0  0  0  0
 15 12  2  0  0  0  0
 16 20  1  0  0  0  0
 16 21  1  0  0  0  0
 17 10  1  0  0  0  0
 17 27  2  0  0  0  0
 18 13  1  0  0  0  0
 19 21  1  0  0  0  0
 21  5  1  0  0  0  0
 22  6  1  0  0  0  0
 22 28  1  0  0  0  0
 23 12  1  0  0  0  0
 24  4  1  0  0  0  0
 25 20  1  0  0  0  0
 26 19  1  0  0  0  0
 27 16  1  0  0  0  0
 28  7  1  0  0  0  0
M  END
>  <MODEL>
1

>  <REMARK>
 VINA RESULT:      -8.8      0.000      0.000
  Name = 
  0 active torsions:
  status: ('A' for Active; 'I' for Inactive)
                            x       y       z     vdW  Elec       q    Type
                         _______ _______ _______ _____ _____    ______ ____

>  <TORSDO>
F 0

$$$$
=
 OpenBabel11052413273D

 28 34  0  0  1  0  0  0  0  0999 V2000
  189.7850  177.0130  142.2150 C   0  0  2  0  0  3  0  0  0  0  0  0
  189.1000  176.6480  140.8820 C   0  0  1  0  0  3  0  0  0  0  0  0
  187.0490  177.7430  141.5190 C   0  0  2  0  0  3  0  0  0  0  0  0
  184.2860  178.9860  144.6320 C   0  0  0  0  0  2  0  0  0  0  0  0
  191.6050  178.5610  144.5780 C   0  0  0  0  0  1  0  0  0  0  0  0
  190.2560  177.4570  138.6730 C   0  0  1  0  0  3  0  0  0  0  0  0
  188.0800  177.6220  140.4740 N   0  0  1  0  0  0  0  0  0  0  0  0
  191.3100  177.2840  139.7430 C   0  0  0  0  0  2  0  0  0  0  0  0
  183.6010  178.2260  141.6650 C   0  0  0  0  0  2  0  0  0  0  0  0
  186.6890  178.5970  143.9560 C   0  0  2  0  0  3  0  0  0  0  0  0
  190.1020  176.3520  139.7380 C   0  0  1  0  0  3  0  0  0  0  0  0
  182.0610  178.9840  143.4910 C   0  0  0  0  0  0  0  0  0  0  0  0
  185.2150  178.3680  143.5880 C   0  0  2  0  0  3  0  0  0  0  0  0
  185.9800  178.7710  141.1420 C   0  0  0  0  0  2  0  0  0  0  0  0
  182.3750  178.9160  142.1900 C   0  0  0  0  0  3  0  0  0  0  0  0
  189.3180  177.7030  144.5860 N   0  0  0  0  0  0  0  0  0  0  0  0
  187.6050  178.0100  142.9000 C   0  0  0  0  0  0  0  0  0  0  0  0
  184.8620  178.9030  142.1840 C   0  0  1  0  0  3  0  0  0  0  0  0
  191.2090  176.1330  144.1330 C   0  0  0  0  0  2  0  0  0  0  0  0
  188.4670  178.2170  145.6570 C   0  0  0  0  0  2  0  0  0  0  0  0
  190.7100  177.3760  144.8970 C   0  0  1  0  0  3  0  0  0  0  0  0
  189.4930  178.7800  138.8790 C   0  0  0  0  0  2  0  0  0  0  0  0
  180.9220  179.6290  143.8540 F   0  0  0  0  0  0  0  0  0  0  0  0
  182.9020  178.3530  144.5620 C   0  0  0  0  0  2  0  0  0  0  0  0
  186.9990  177.9860  145.3250 C   0  0  0  0  0  2  0  0  0  0  0  0
  190.4330  175.7880  142.8510 C   0  0  0  0  0  2  0  0  0  0  0  0
  188.8510  177.6180  143.2260 C   0  0  0  0  0  0  0  0  0  0  0  0
  188.7400  178.8940  140.1970 C   0  0  0  0  0  2  0  0  0  0  0  0
  1 26  1  1  0  0  0
  1 27  1  0  0  0  0
  2  1  1  0  0  0  0
  3 17  1  0  0  0  0
  5 21  1  0  0  0  0
  6 22  1  0  0  0  0
  6 11  1  0  0  0  0
  6  8  1  0  0  0  0
  7  2  1  0  0  0  0
  7  3  1  0  0  0  0
  9 18  1  0  0  0  0
  9 15  1  0  0  0  0
 10 25  1  0  0  0  0
 11  8  1  0  0  0  0
 11  2  1  0  0  0  0
 12 23  1  0  0  0  0
 12 24  1  0  0  0  0
 13 10  1  0  0  0  0
 13  4  1  0  0  0  0
 14  3  1  0  0  0  0
 14 18  1  0  0  0  0
 15 12  2  0  0  0  0
 16 21  1  0  0  0  0
 16 20  1  0  0  0  0
 17 27  2  0  0  0  0
 17 10  1  0  0  0  0
 18 13  1  0  0  0  0
 19 21  1  0  0  0  0
 22 28  1  0  0  0  0
 24  4  1  0  0  0  0
 25 20  1  0  0  0  0
 26 19  1  0  0  0  0
 27 16  1  0  0  0  0
 28  7  1  0  0  0  0
M  END
>  <MODEL>
2

>  <REMARK>
 VINA RESULT:      -8.3      1.801      2.870
  Name = 
  0 active torsions:
  status: ('A' for Active; 'I' for Inactive)
                            x       y       z     vdW  Elec       q    Type
                         _______ _______ _______ _____ _____    ______ ____

>  <TORSDO>
F 0

$$$$
=
 OpenBabel11052413273D

 28 34  0  0  1  0  0  0  0  0999 V2000
  187.7010  177.5830  144.4750 C   0  0  2  0  0  3  0  0  0  0  0  0
  188.9530  176.8440  143.9560 C   0  0  1  0  0  3  0  0  0  0  0  0
  188.5320  177.5210  141.6810 C   0  0  2  0  0  3  0  0  0  0  0  0
  185.7060  178.5950  138.5620 C   0  0  0  0  0  2  0  0  0  0  0  0
  185.6400  179.8950  145.7770 C   0  0  0  0  0  1  0  0  0  0  0  0
  191.2630  177.5120  144.9990 C   0  0  1  0  0  3  0  0  0  0  0  0
  189.5330  177.4680  142.7600 N   0  0  1  0  0  0  0  0  0  0  0  0
  190.1730  177.7770  146.0120 C   0  0  0  0  0  2  0  0  0  0  0  0
  188.4950  177.2000  138.2110 C   0  0  0  0  0  2  0  0  0  0  0  0
  186.2870  178.6710  141.0190 C   0  0  2  0  0  3  0  0  0  0  0  0
  190.0190  176.6000  145.0520 C   0  0  1  0  0  3  0  0  0  0  0  0
  186.8410  177.8770  136.4530 C   0  0  0  0  0  0  0  0  0  0  0  0
  186.6180  178.0430  139.6560 C   0  0  2  0  0  3  0  0  0  0  0  0
  189.0920  178.1900  140.4230 C   0  0  0  0  0  2  0  0  0  0  0  0
  188.1080  177.6630  136.8360 C   0  0  0  0  0  3  0  0  0  0  0  0
  185.4930  178.5390  143.7510 N   0  0  0  0  0  0  0  0  0  0  0  0
  187.2170  178.1430  142.0940 C   0  0  0  0  0  0  0  0  0  0  0  0
  188.0960  178.2320  139.2570 C   0  0  1  0  0  3  0  0  0  0  0  0
  185.6490  177.4020  145.9710 C   0  0  0  0  0  2  0  0  0  0  0  0
  184.5350  179.0150  142.7540 C   0  0  0  0  0  2  0  0  0  0  0  0
  185.1210  178.6060  145.1650 C   0  0  1  0  0  3  0  0  0  0  0  0
  191.2990  178.6350  143.9430 C   0  0  0  0  0  2  0  0  0  0  0  0
  186.6050  178.2890  135.1810 F   0  0  0  0  0  0  0  0  0  0  0  0
  185.6700  177.6530  137.3650 C   0  0  0  0  0  2  0  0  0  0  0  0
  184.8300  178.3930  141.3960 C   0  0  0  0  0  2  0  0  0  0  0  0
  186.8550  176.6710  145.3560 C   0  0  0  0  0  2  0  0  0  0  0  0
  186.8190  178.1150  143.3810 C   0  0  0  0  0  0  0  0  0  0  0  0
  190.0270  178.7930  143.1220 C   0  0  0  0  0  2  0  0  0  0  0  0
  1 26  1  6  0  0  0
  2  1  1  0  0  0  0
  2 11  1  0  0  0  0
  3 17  1  0  0  0  0
  3  7  1  0  0  0  0
  4 13  1  0  0  0  0
  6 11  1  0  0  0  0
  6  8  1  0  0  0  0
  7 28  1  0  0  0  0
  7  2  1  0  0  0  0
  9 18  1  0  0  0  0
 10 25  1  0  0  0  0
 10 17  1  0  0  0  0
 11  8  1  0  0  0  0
 12 15  2  0  0  0  0
 12 24  1  0  0  0  0
 13 10  1  0  0  0  0
 14  3  1  0  0  0  0
 15  9  1  0  0  0  0
 16 21  1  0  0  0  0
 17 27  2  0  0  0  0
 18 13  1  0  0  0  0
 18 14  1  0  0  0  0
 20 16  1  0  0  0  0
 21  5  1  0  0  0  0
 21 19  1  0  0  0  0
 22  6  1  0  0  0  0
 23 12  1  0  0  0  0
 24  4  1  0  0  0  0
 25 20  1  0  0  0  0
 26 19  1  0  0  0  0
 27 16  1  0  0  0  0
 27  1  1  0  0  0  0
 28 22  1  0  0  0  0
M  END
>  <MODEL>
3

>  <REMARK>
 VINA RESULT:      -8.3      2.978      4.313
  Name = 
  0 active torsions:
  status: ('A' for Active; 'I' for Inactive)
                            x       y       z     vdW  Elec       q    Type
                         _______ _______ _______ _____ _____    ______ ____

>  <TORSDO>
F 0

$$$$
=
 OpenBabel11052413273D

 28 34  0  0  1  0  0  0  0  0999 V2000
  187.6050  177.7370  143.7670 C   0  0  2  0  0  3  0  0  0  0  0  0
  188.8830  176.8740  143.8120 C   0  0  1  0  0  3  0  0  0  0  0  0
  189.3150  177.2130  141.4650 C   0  0  2  0  0  3  0  0  0  0  0  0
  187.8120  177.9210  137.4510 C   0  0  0  0  0  2  0  0  0  0  0  0
  185.4530  180.3100  143.9690 C   0  0  0  0  0  1  0  0  0  0  0  0
  190.7620  177.5900  145.4930 C   0  0  1  0  0  3  0  0  0  0  0  0
  189.8870  177.2800  142.8200 N   0  0  1  0  0  0  0  0  0  0  0  0
  189.4250  178.0540  146.0250 C   0  0  0  0  0  2  0  0  0  0  0  0
  190.4140  176.3680  138.2670 C   0  0  0  0  0  2  0  0  0  0  0  0
  187.5400  178.3460  139.9260 C   0  0  2  0  0  3  0  0  0  0  0  0
  189.4930  176.7530  145.2300 C   0  0  1  0  0  3  0  0  0  0  0  0
  189.5170  176.8400  135.9750 C   0  0  0  0  0  0  0  0  0  0  0  0
  188.2490  177.5030  138.8540 C   0  0  2  0  0  3  0  0  0  0  0  0
  190.3250  177.6560  140.4030 C   0  0  0  0  0  2  0  0  0  0  0  0
  190.5550  176.6310  136.7960 C   0  0  0  0  0  3  0  0  0  0  0  0
  185.8680  178.6680  142.2080 N   0  0  0  0  0  0  0  0  0  0  0  0
  188.0020  177.9480  141.3150 C   0  0  0  0  0  0  0  0  0  0  0  0
  189.7860  177.5630  138.9690 C   0  0  1  0  0  3  0  0  0  0  0  0
  185.1630  177.8780  144.4720 C   0  0  0  0  0  2  0  0  0  0  0  0
  185.3490  179.0280  140.8900 C   0  0  0  0  0  2  0  0  0  0  0  0
  185.0510  178.9670  143.3850 C   0  0  1  0  0  3  0  0  0  0  0  0
  191.2560  178.5350  144.3800 C   0  0  0  0  0  2  0  0  0  0  0  0
  189.7600  177.0630  134.6580 F   0  0  0  0  0  0  0  0  0  0  0  0
  188.0920  176.8110  136.4470 C   0  0  0  0  0  2  0  0  0  0  0  0
  186.0220  178.1930  139.8090 C   0  0  0  0  0  2  0  0  0  0  0  0
  186.4310  177.0090  144.4110 C   0  0  0  0  0  2  0  0  0  0  0  0
  187.1960  178.1350  142.3770 C   0  0  0  0  0  0  0  0  0  0  0  0
  190.3520  178.6220  143.1580 C   0  0  0  0  0  2  0  0  0  0  0  0
  1  2  1  0  0  0  0
  1 26  1  6  0  0  0
  2 11  1  0  0  0  0
  3  7  1  0  0  0  0
  4 13  1  0  0  0  0
  6  8  1  0  0  0  0
  7 28  1  0  0  0  0
  7  2  1  0  0  0  0
  9 18  1  0  0  0  0
 10 17  1  0  0  0  0
 11  6  1  0  0  0  0
 11  8  1  0  0  0  0
 12 24  1  0  0  0  0
 12 15  2  0  0  0  0
 13 18  1  0  0  0  0
 13 10  1  0  0  0  0
 14  3  1  0  0  0  0
 15  9  1  0  0  0  0
 16 27  1  0  0  0  0
 16 21  1  0  0  0  0
 17  3  1  0  0  0  0
 17 27  2  0  0  0  0
 18 14  1  0  0  0  0
 20 16  1  0  0  0  0
 21  5  1  0  0  0  0
 21 19  1  0  0  0  0
 22  6  1  0  0  0  0
 23 12  1  0  0  0  0
 24  4  1  0  0  0  0
 25 10  1  0  0  0  0
 25 20  1  0  0  0  0
 26 19  1  0  0  0  0
 27  1  1  0  0  0  0
 28 22  1  0  0  0  0
M  END
>  <MODEL>
4

>  <REMARK>
 VINA RESULT:      -8.2      3.632      5.762
  Name = 
  0 active torsions:
  status: ('A' for Active; 'I' for Inactive)
                            x       y       z     vdW  Elec       q    Type
                         _______ _______ _______ _____ _____    ______ ____

>  <TORSDO>
F 0

$$$$
=
 OpenBabel11052413273D

 28 34  0  0  1  0  0  0  0  0999 V2000
  189.6480  177.9700  145.1660 C   0  0  2  0  0  3  0  0  0  0  0  0
  188.9040  178.6580  146.3300 C   0  0  1  0  0  3  0  0  0  0  0  0
  186.7630  178.3840  145.2560 C   0  0  2  0  0  3  0  0  0  0  0  0
  184.4220  178.0780  141.6100 C   0  0  0  0  0  2  0  0  0  0  0  0
  191.1640  175.6900  143.2180 C   0  0  0  0  0  1  0  0  0  0  0  0
  189.1890  177.6220  148.7210 C   0  0  1  0  0  3  0  0  0  0  0  0
  187.5280  178.1750  146.4980 N   0  0  1  0  0  0  0  0  0  0  0  0
  190.4190  177.3080  147.9010 C   0  0  0  0  0  2  0  0  0  0  0  0
  183.5020  179.2400  144.3770 C   0  0  0  0  0  2  0  0  0  0  0  0
  186.5990  177.5680  142.7850 C   0  0  2  0  0  3  0  0  0  0  0  0
  189.6910  178.6280  147.6640 C   0  0  1  0  0  3  0  0  0  0  0  0
  182.1890  179.0030  142.2540 C   0  0  0  0  0  0  0  0  0  0  0  0
  185.2870  178.3660  142.8370 C   0  0  2  0  0  3  0  0  0  0  0  0
  185.3280  177.8680  145.3830 C   0  0  0  0  0  2  0  0  0  0  0  0
  182.2370  179.0340  143.5940 C   0  0  0  0  0  3  0  0  0  0  0  0
  189.4380  177.3510  142.7400 N   0  0  0  0  0  0  0  0  0  0  0  0
  187.4380  177.8330  144.0200 C   0  0  0  0  0  0  0  0  0  0  0  0
  184.4800  178.1010  144.1260 C   0  0  1  0  0  3  0  0  0  0  0  0
  191.6550  178.1110  143.6070 C   0  0  0  0  0  2  0  0  0  0  0  0
  188.6890  177.1280  141.5050 C   0  0  0  0  0  2  0  0  0  0  0  0
  190.8800  177.1020  142.7360 C   0  0  1  0  0  3  0  0  0  0  0  0
  188.0320  176.6770  148.3370 C   0  0  0  0  0  2  0  0  0  0  0  0
  180.9890  178.8160  141.6480 F   0  0  0  0  0  0  0  0  0  0  0  0
  183.4060  179.1920  141.3950 C   0  0  0  0  0  2  0  0  0  0  0  0
  187.3890  177.9220  141.5230 C   0  0  0  0  0  2  0  0  0  0  0  0
  190.8320  178.8110  144.7010 C   0  0  0  0  0  2  0  0  0  0  0  0
  188.7770  177.6990  143.9720 C   0  0  0  0  0  0  0  0  0  0  0  0
  187.5750  176.7690  146.8880 C   0  0  0  0  0  2  0  0  0  0  0  0
  1 26  1  6  0  0  0
  1  2  1  0  0  0  0
  2  7  1  0  0  0  0
  2 11  1  0  0  0  0
  3 14  1  0  0  0  0
  3  7  1  0  0  0  0
  4 13  1  0  0  0  0
  7 28  1  0  0  0  0
  8  6  1  0  0  0  0
 10 13  1  0  0  0  0
 10 17  1  0  0  0  0
 11  8  1  0  0  0  0
 11  6  1  0  0  0  0
 12 15  2  0  0  0  0
 13 18  1  0  0  0  0
 15  9  1  0  0  0  0
 16 27  1  0  0  0  0
 17  3  1  0  0  0  0
 18  9  1  0  0  0  0
 18 14  1  0  0  0  0
 19 26  1  0  0  0  0
 20 25  1  0  0  0  0
 20 16  1  0  0  0  0
 21 16  1  0  0  0  0
 21  5  1  0  0  0  0
 21 19  1  0  0  0  0
 22  6  1  0  0  0  0
 23 12  1  0  0  0  0
 24  4  1  0  0  0  0
 24 12  1  0  0  0  0
 25 10  1  0  0  0  0
 27 17  2  0  0  0  0
 27  1  1  0  0  0  0
 28 22  1  0  0  0  0
M  END
>  <MODEL>
5

>  <REMARK>
 VINA RESULT:      -7.7      1.116      4.045
  Name = 
  0 active torsions:
  status: ('A' for Active; 'I' for Inactive)
                            x       y       z     vdW  Elec       q    Type
                         _______ _______ _______ _____ _____    ______ ____

>  <TORSDO>
F 0

$$$$
=
 OpenBabel11052413273D

 28 34  0  0  1  0  0  0  0  0999 V2000
  182.1020  178.2710  140.9780 C   0  0  2  0  0  3  0  0  0  0  0  0
  181.2130  177.8600  142.1710 C   0  0  1  0  0  3  0  0  0  0  0  0
  182.9530  178.3490  143.7660 C   0  0  2  0  0  3  0  0  0  0  0  0
  187.1830  178.5940  144.7270 C   0  0  0  0  0  2  0  0  0  0  0  0
  183.5660  180.0190  138.5110 C   0  0  0  0  0  1  0  0  0  0  0  0
  178.9310  179.1160  142.4620 C   0  0  1  0  0  3  0  0  0  0  0  0
  181.5430  178.5780  143.4090 N   0  0  1  0  0  0  0  0  0  0  0  0
  179.3120  179.1220  140.9990 C   0  0  0  0  0  2  0  0  0  0  0  0
  184.8160  177.9410  146.6830 C   0  0  0  0  0  2  0  0  0  0  0  0
  185.3830  178.8770  142.9780 C   0  0  2  0  0  3  0  0  0  0  0  0
  179.6980  177.9210  141.8570 C   0  0  1  0  0  3  0  0  0  0  0  0
  187.2650  178.1320  147.1840 C   0  0  0  0  0  0  0  0  0  0  0  0
  185.7230  178.3180  144.3680 C   0  0  2  0  0  3  0  0  0  0  0  0
  183.3440  179.1050  145.0380 C   0  0  0  0  0  2  0  0  0  0  0  0
  185.9870  178.2550  147.5690 C   0  0  0  0  0  3  0  0  0  0  0  0
  184.4920  178.6190  140.2850 N   0  0  0  0  0  0  0  0  0  0  0  0
  183.9250  178.6290  142.6410 C   0  0  0  0  0  0  0  0  0  0  0  0
  184.7950  178.8640  145.4730 C   0  0  1  0  0  3  0  0  0  0  0  0
  182.8920  177.6150  138.6490 C   0  0  0  0  0  2  0  0  0  0  0  0
  185.9170  178.8110  140.5470 C   0  0  0  0  0  2  0  0  0  0  0  0
  184.0300  178.6260  138.8970 C   0  0  1  0  0  3  0  0  0  0  0  0
  179.7340  180.1840  143.2310 C   0  0  0  0  0  2  0  0  0  0  0  0
  188.2470  178.4380  148.0700 F   0  0  0  0  0  0  0  0  0  0  0  0
  187.6570  177.6430  145.8190 C   0  0  0  0  0  2  0  0  0  0  0  0
  186.2860  178.2490  141.9140 C   0  0  0  0  0  2  0  0  0  0  0  0
  182.0940  177.1970  139.8960 C   0  0  0  0  0  2  0  0  0  0  0  0
  183.5320  178.5350  141.3570 C   0  0  0  0  0  0  0  0  0  0  0  0
  181.2450  179.9940  143.2140 C   0  0  0  0  0  2  0  0  0  0  0  0
  1 26  1  6  0  0  0
  1 27  1  0  0  0  0
  1  2  1  0  0  0  0
  2  7  1  0  0  0  0
  3 14  1  0  0  0  0
  4 24  1  0  0  0  0
  5 21  1  0  0  0  0
  6 22  1  0  0  0  0
  7  3  1  0  0  0  0
  8 11  1  0  0  0  0
  8  6  1  0  0  0  0
  9 15  1  0  0  0  0
 10 13  1  0  0  0  0
 11  2  1  0  0  0  0
 11  6  1  0  0  0  0
 12 15  2  0  0  0  0
 12 23  1  0  0  0  0
 13  4  1  0  0  0  0
 13 18  1  0  0  0  0
 14 18  1  0  0  0  0
 16 20  1  0  0  0  0
 16 27  1  0  0  0  0
 17 10  1  0  0  0  0
 17  3  1  0  0  0  0
 18  9  1  0  0  0  0
 19 21  1  0  0  0  0
 19 26  1  0  0  0  0
 20 25  1  0  0  0  0
 21 16  1  0  0  0  0
 24 12  1  0  0  0  0
 25 10  1  0  0  0  0
 27 17  2  0  0  0  0
 28 22  1  0  0  0  0
 28  7  1  0  0  0  0
M  END
>  <MODEL>
6

>  <REMARK>
 VINA RESULT:      -7.4      3.207      7.932
  Name = 
  0 active torsions:
  status: ('A' for Active; 'I' for Inactive)
                            x       y       z     vdW  Elec       q    Type
                         _______ _______ _______ _____ _____    ______ ____

>  <TORSDO>
F 0

$$$$
=
 OpenBabel11052413273D

 28 34  0  0  1  0  0  0  0  0999 V2000
  184.8860  177.7180  137.9930 C   0  0  2  0  0  3  0  0  0  0  0  0
  183.4770  177.4860  138.5800 C   0  0  1  0  0  3  0  0  0  0  0  0
  184.1600  178.2150  140.7740 C   0  0  2  0  0  3  0  0  0  0  0  0
  187.2700  178.6150  143.7800 C   0  0  0  0  0  2  0  0  0  0  0  0
  187.5500  179.0840  136.4690 C   0  0  0  0  0  1  0  0  0  0  0  0
  181.4810  178.7640  137.4590 C   0  0  1  0  0  3  0  0  0  0  0  0
  183.1660  178.3830  139.7000 N   0  0  1  0  0  0  0  0  0  0  0  0
  182.5690  178.5530  136.4300 C   0  0  0  0  0  2  0  0  0  0  0  0
  184.1900  178.2530  144.2580 C   0  0  0  0  0  2  0  0  0  0  0  0
  186.6750  178.6280  141.3250 C   0  0  2  0  0  3  0  0  0  0  0  0
  182.3580  177.4950  137.5090 C   0  0  1  0  0  3  0  0  0  0  0  0
  186.0230  178.5260  145.9460 C   0  0  0  0  0  0  0  0  0  0  0  0
  186.1970  178.2840  142.7440 C   0  0  2  0  0  3  0  0  0  0  0  0
  183.8850  179.1540  141.9510 C   0  0  0  0  0  2  0  0  0  0  0  0
  184.7460  178.7000  145.5790 C   0  0  0  0  0  3  0  0  0  0  0  0
  187.3050  177.9680  138.6270 N   0  0  0  0  0  0  0  0  0  0  0  0
  185.5940  178.3270  140.3050 C   0  0  0  0  0  0  0  0  0  0  0  0
  184.8730  178.9860  143.1120 C   0  0  1  0  0  3  0  0  0  0  0  0
  186.7230  176.7250  136.5380 C   0  0  0  0  0  2  0  0  0  0  0  0
  188.3930  178.2020  139.5740 C   0  0  0  0  0  2  0  0  0  0  0  0
  187.6370  177.7650  137.2160 C   0  0  1  0  0  3  0  0  0  0  0  0
  181.8430  179.9370  138.3910 C   0  0  0  0  0  2  0  0  0  0  0  0
  186.4180  178.9650  147.1680 F   0  0  0  0  0  0  0  0  0  0  0  0
  187.0310  177.8400  145.0690 C   0  0  0  0  0  2  0  0  0  0  0  0
  187.9510  177.8520  140.9880 C   0  0  0  0  0  2  0  0  0  0  0  0
  185.3630  176.4950  137.2180 C   0  0  0  0  0  2  0  0  0  0  0  0
  185.9230  178.0410  139.0320 C   0  0  0  0  0  0  0  0  0  0  0  0
  183.1210  179.7530  139.1970 C   0  0  0  0  0  2  0  0  0  0  0  0
  1 26  1  1  0  0  0
  1  2  1  0  0  0  0
  1 27  1  0  0  0  0
  2  7  1  0  0  0  0
  3 14  1  0  0  0  0
  4 24  1  0  0  0  0
  5 21  1  0  0  0  0
  6 11  1  0  0  0  0
  6 22  1  0  0  0  0
  7  3  1  0  0  0  0
  8  6  1  0  0  0  0
  8 11  1  0  0  0  0
  9 15  1  0  0  0  0
 10 13  1  0  0  0  0
 11  2  1  0  0  0  0
 12 23  1  0  0  0  0
 13 18  1  0  0  0  0
 13  4  1  0  0  0  0
 14 18  1  0  0  0  0
 15 12  2  0  0  0  0
 16 27  1  0  0  0  0
 16 20  1  0  0  0  0
 17  3  1  0  0  0  0
 17 10  1  0  0  0  0
 18  9  1  0  0  0  0
 19 21  1  0  0  0  0
 19 26  1  0  0  0  0
 20 25  1  0  0  0  0
 21 16  1  0  0  0  0
 22 28  1  0  0  0  0
 24 12  1  0  0  0  0
 25 10  1  0  0  0  0
 27 17  2  0  0  0  0
 28  7  1  0  0  0  0
M  END
>  <MODEL>
7

>  <REMARK>
 VINA RESULT:      -7.2      3.565      7.644
  Name = 
  0 active torsions:
  status: ('A' for Active; 'I' for Inactive)
                            x       y       z     vdW  Elec       q    Type
                         _______ _______ _______ _____ _____    ______ ____

>  <TORSDO>
F 0

$$$$
=
 OpenBabel11052413273D

 28 34  0  0  1  0  0  0  0  0999 V2000
  187.6270  177.7110  145.0840 C   0  0  2  0  0  3  0  0  0  0  0  0
  188.4850  177.0350  143.9930 C   0  0  1  0  0  3  0  0  0  0  0  0
  187.0500  177.8350  142.2280 C   0  0  2  0  0  3  0  0  0  0  0  0
  183.0980  179.0220  140.8710 C   0  0  0  0  0  2  0  0  0  0  0  0
  186.4310  179.8910  147.3440 C   0  0  0  0  0  1  0  0  0  0  0  0
  191.0180  177.6960  143.8730 C   0  0  1  0  0  3  0  0  0  0  0  0
  188.4400  177.7420  142.7070 N   0  0  1  0  0  0  0  0  0  0  0  0
  190.5320  177.8740  145.2930 C   0  0  0  0  0  2  0  0  0  0  0  0
  185.3890  177.7190  139.1670 C   0  0  0  0  0  2  0  0  0  0  0  0
  184.7640  178.9660  142.7690 C   0  0  2  0  0  3  0  0  0  0  0  0
  189.9390  176.7530  144.4440 C   0  0  1  0  0  3  0  0  0  0  0  0
  183.1080  178.4570  138.4350 C   0  0  0  0  0  0  0  0  0  0  0  0
  184.4140  178.4280  141.3730 C   0  0  2  0  0  3  0  0  0  0  0  0
  186.9590  178.5900  140.9000 C   0  0  0  0  0  2  0  0  0  0  0  0
  184.4050  178.2520  138.1660 C   0  0  0  0  0  3  0  0  0  0  0  0
  185.3420  178.6540  145.5400 N   0  0  0  0  0  0  0  0  0  0  0  0
  186.0860  178.3990  143.2480 C   0  0  0  0  0  0  0  0  0  0  0  0
  185.5330  178.6770  140.3410 C   0  0  1  0  0  3  0  0  0  0  0  0
  186.5140  177.3920  147.3510 C   0  0  0  0  0  2  0  0  0  0  0  0
  184.0320  179.1640  145.1410 C   0  0  0  0  0  2  0  0  0  0  0  0
  185.6770  178.6280  146.9650 C   0  0  1  0  0  3  0  0  0  0  0  0
  190.5620  178.8800  142.9960 C   0  0  0  0  0  2  0  0  0  0  0  0
  182.3050  178.9390  137.4510 F   0  0  0  0  0  0  0  0  0  0  0  0
  182.5000  178.1520  139.7730 C   0  0  0  0  0  2  0  0  0  0  0  0
  183.6520  178.6310  143.7660 C   0  0  0  0  0  2  0  0  0  0  0  0
  187.2870  176.7280  146.1980 C   0  0  0  0  0  2  0  0  0  0  0  0
  186.3380  178.2850  144.5660 C   0  0  0  0  0  0  0  0  0  0  0  0
  189.0540  179.0550  142.8800 C   0  0  0  0  0  2  0  0  0  0  0  0
  1 26  1  1  0  0  0
  2 11  1  0  0  0  0
  2  1  1  0  0  0  0
  3  7  1  0  0  0  0
  3 17  1  0  0  0  0
  4 13  1  0  0  0  0
  6 11  1  0  0  0  0
  6  8  1  0  0  0  0
  7 28  1  0  0  0  0
  7  2  1  0  0  0  0
  9 18  1  0  0  0  0
 10 17  1  0  0  0  0
 10 25  1  0  0  0  0
 11  8  1  0  0  0  0
 12 24  1  0  0  0  0
 13 10  1  0  0  0  0
 14  3  1  0  0  0  0
 15 12  2  0  0  0  0
 15  9  1  0  0  0  0
 16 21  1  0  0  0  0
 17 27  2  0  0  0  0
 18 14  1  0  0  0  0
 18 13  1  0  0  0  0
 20 16  1  0  0  0  0
 21  5  1  0  0  0  0
 21 19  1  0  0  0  0
 22  6  1  0  0  0  0
 23 12  1  0  0  0  0
 24  4  1  0  0  0  0
 25 20  1  0  0  0  0
 26 19  1  0  0  0  0
 27  1  1  0  0  0  0
 27 16  1  0  0  0  0
 28 22  1  0  0  0  0
M  END
>  <MODEL>
8

>  <REMARK>
 VINA RESULT:      -7.1      1.629      2.341
  Name = 
  0 active torsions:
  status: ('A' for Active; 'I' for Inactive)
                            x       y       z     vdW  Elec       q    Type
                         _______ _______ _______ _____ _____    ______ ____

>  <TORSDO>
F 0

$$$$
=
 OpenBabel11052413273D

 28 34  0  0  1  0  0  0  0  0999 V2000
  185.8860  178.5130  138.8580 C   0  0  2  0  0  3  0  0  0  0  0  0
  187.2560  178.7310  138.1830 C   0  0  1  0  0  3  0  0  0  0  0  0
  188.4510  177.9710  140.1340 C   0  0  2  0  0  3  0  0  0  0  0  0
  188.6670  177.5330  144.4510 C   0  0  0  0  0  2  0  0  0  0  0  0
  182.9670  177.1800  139.8530 C   0  0  0  0  0  1  0  0  0  0  0  0
  187.7050  177.4650  135.9320 C   0  0  1  0  0  3  0  0  0  0  0  0
  188.2930  177.8160  138.6780 N   0  0  1  0  0  0  0  0  0  0  0  0
  186.2180  177.6960  136.0780 C   0  0  0  0  0  2  0  0  0  0  0  0
  191.0560  177.8780  142.4460 C   0  0  0  0  0  2  0  0  0  0  0  0
  187.2070  177.5570  142.3890 C   0  0  2  0  0  3  0  0  0  0  0  0
  187.1840  178.7360  136.6360 C   0  0  1  0  0  3  0  0  0  0  0  0
  191.1190  177.5850  144.9350 C   0  0  0  0  0  0  0  0  0  0  0  0
  188.5960  177.8770  142.9640 C   0  0  2  0  0  3  0  0  0  0  0  0
  189.5050  177.0130  140.6930 C   0  0  0  0  0  2  0  0  0  0  0  0
  191.6810  177.4120  143.7300 C   0  0  0  0  0  3  0  0  0  0  0  0
  184.7700  178.2620  141.0960 N   0  0  0  0  0  0  0  0  0  0  0  0
  187.1540  177.8700  140.9070 C   0  0  0  0  0  0  0  0  0  0  0  0
  189.7340  177.1650  142.2020 C   0  0  1  0  0  3  0  0  0  0  0  0
  183.5950  179.5350  139.2950 C   0  0  0  0  0  2  0  0  0  0  0  0
  184.7650  178.0160  142.5370 C   0  0  0  0  0  2  0  0  0  0  0  0
  183.4910  178.4870  140.4210 C   0  0  1  0  0  3  0  0  0  0  0  0
  188.1530  176.2780  136.8080 C   0  0  0  0  0  2  0  0  0  0  0  0
  191.7760  177.1270  146.0320 F   0  0  0  0  0  0  0  0  0  0  0  0
  189.8060  178.2870  145.1240 C   0  0  0  0  0  2  0  0  0  0  0  0
  186.1260  178.3420  143.1350 C   0  0  0  0  0  2  0  0  0  0  0  0
  185.0050  179.7500  138.7190 C   0  0  0  0  0  2  0  0  0  0  0  0
  185.9810  178.1780  140.3200 C   0  0  0  0  0  0  0  0  0  0  0  0
  187.9240  176.4540  138.3030 C   0  0  0  0  0  2  0  0  0  0  0  0
  1 26  1  1  0  0  0
  1 27  1  0  0  0  0
  2  7  1  0  0  0  0
  2  1  1  0  0  0  0
  3 14  1  0  0  0  0
  3 17  1  0  0  0  0
  4 24  1  0  0  0  0
  5 21  1  0  0  0  0
  6  8  1  0  0  0  0
  6 11  1  0  0  0  0
  6 22  1  0  0  0  0
  7  3  1  0  0  0  0
  8 11  1  0  0  0  0
  9 15  1  0  0  0  0
 10 13  1  0  0  0  0
 10 25  1  0  0  0  0
 11  2  1  0  0  0  0
 12 24  1  0  0  0  0
 12 23  1  0  0  0  0
 13  4  1  0  0  0  0
 14 18  1  0  0  0  0
 15 12  2  0  0  0  0
 16 20  1  0  0  0  0
 17 10  1  0  0  0  0
 18  9  1  0  0  0  0
 18 13  1  0  0  0  0
 19 21  1  0  0  0  0
 20 25  1  0  0  0  0
 21 16  1  0  0  0  0
 22 28  1  0  0  0  0
 26 19  1  0  0  0  0
 27 17  2  0  0  0  0
 27 16  1  0  0  0  0
 28  7  1  0  0  0  0
M  END
>  <MODEL>
9

>  <REMARK>
 VINA RESULT:      -6.7      3.896      7.270
  Name = 
  0 active torsions:
  status: ('A' for Active; 'I' for Inactive)
                            x       y       z     vdW  Elec       q    Type
                         _______ _______ _______ _____ _____    ______ ____

>  <TORSDO>
F 0

$$$$
