=
 OpenBabel11052413123D

 31 34  0  0  1  0  0  0  0  0999 V2000
  188.1250  177.1630  145.9780 C   0  0  0  0  0  0  0  0  0  0  0  0
  186.4130  178.2120  142.8330 C   0  0  0  0  0  0  0  0  0  0  0  0
  184.9630  178.2950  143.2730 C   0  0  1  0  0  3  0  0  0  0  0  0
  183.2660  179.9610  144.3110 C   0  0  0  0  0  2  0  0  0  0  0  0
  187.4210  177.8430  143.7520 C   0  0  0  0  0  0  0  0  0  0  0  0
  189.4560  177.1250  145.5530 C   0  0  0  0  0  3  0  0  0  0  0  0
  184.7370  179.5210  144.1760 C   0  0  0  0  0  2  0  0  0  0  0  0
  188.1130  178.4510  141.0850 C   0  0  0  0  0  0  0  0  0  0  0  0
  187.8160  176.8540  147.2600 F   0  0  0  0  0  0  0  0  0  0  0  0
  184.4460  178.0510  140.7760 C   0  0  0  0  0  2  0  0  0  0  0  0
  182.2550  178.9170  143.8310 C   0  0  0  0  0  2  0  0  0  0  0  0
  189.1020  178.1030  142.0120 C   0  0  0  0  0  3  0  0  0  0  0  0
  186.7680  178.4960  141.4930 C   0  0  0  0  0  0  0  0  0  0  0  0
  187.1130  177.5190  145.0830 C   0  0  0  0  0  3  0  0  0  0  0  0
  181.7370  178.3000  141.5820 O   0  0  0  0  0  0  0  0  0  0  0  0
  188.7700  177.7970  143.3300 C   0  0  0  0  0  0  0  0  0  0  0  0
  189.7770  177.4410  144.2310 C   0  0  0  0  0  3  0  0  0  0  0  0
  185.7020  178.8600  140.5010 C   0  0  0  0  0  2  0  0  0  0  0  0
  184.0130  178.2900  142.1490 N   0  0  0  0  0  0  0  0  0  0  0  0
  182.6280  178.4860  142.4530 C   0  0  0  0  0  0  0  0  0  0  0  0
  188.6980  176.5980  138.8630 O   0  0  0  0  0  0  0  0  0  0  0  0
  188.7700  177.8440  138.6770 C   0  0  0  0  0  0  0  0  0  0  0  0
  188.4520  178.7690  139.7240 N   0  0  0  0  0  2  0  0  0  0  0  0
  188.8660  179.7330  137.2680 O   0  0  0  0  0  1  0  0  0  0  0  0
  189.1810  178.3750  137.3420 C   0  0  2  0  0  3  0  0  0  0  0  0
  189.4410  177.4900  135.0160 C   0  0  0  0  0  1  0  0  0  0  0  0
  188.5020  177.6070  136.2070 C   0  0  2  0  0  3  0  0  0  0  0  0
  187.3300  178.2760  135.8030 O   0  0  0  0  0  0  0  0  0  0  0  0
  186.2460  177.3680  135.8230 C   0  0  1  0  0  3  0  0  0  0  0  0
  185.4130  177.4760  137.0950 C   0  0  0  0  0  1  0  0  0  0  0  0
  185.4420  177.4840  134.6840 O   0  0  0  0  0  1  0  0  0  0  0  0
  1  9  1  0  0  0  0
  2  3  1  0  0  0  0
  2  5  1  0  0  0  0
  3  7  1  6  0  0  0
  5 14  1  0  0  0  0
  6  1  1  0  0  0  0
  7  4  1  0  0  0  0
  8 13  1  0  0  0  0
  8 12  2  0  0  0  0
 10 19  1  0  0  0  0
 11  4  1  0  0  0  0
 12 16  1  0  0  0  0
 13  2  2  0  0  0  0
 14  1  2  0  0  0  0
 15 20  2  0  0  0  0
 16  5  2  0  0  0  0
 16 17  1  0  0  0  0
 17  6  2  0  0  0  0
 18 10  1  0  0  0  0
 18 13  1  0  0  0  0
 19 20  1  0  0  0  0
 19  3  1  0  0  0  0
 20 11  1  0  0  0  0
 22 21  2  0  0  0  0
 22 23  1  0  0  0  0
 23  8  1  0  0  0  0
 25 24  1  1  0  0  0
 25 22  1  0  0  0  0
 27 26  1  6  0  0  0
 27 25  1  0  0  0  0
 28 29  1  0  0  0  0
 28 27  1  0  0  0  0
 29 30  1  1  0  0  0
 31 29  1  0  0  0  0
M  END
>  <MODEL>
1

>  <REMARK>
 VINA RESULT:      -8.8      0.000      0.000
  Name = 
  5 active torsions:
  status: ('A' for Active; 'I' for Inactive)
    1  A    between atoms: C_1  and  O_24
    2  A    between atoms: C_9  and  C_22
    3  A    between atoms: C_15  and  N_23
    4  A    between atoms: C_19  and  C_22
    5  A    between atoms: C_19  and  O_24
                            x       y       z     vdW  Elec       q    Type
                         _______ _______ _______ _____ _____    ______ ____

>  <TORSDO>
F 5

$$$$
=
 OpenBabel11052413123D

 31 34  0  0  1  0  0  0  0  0999 V2000
  189.4460  177.8160  147.7380 C   0  0  0  0  0  0  0  0  0  0  0  0
  187.6950  177.8260  144.4420 C   0  0  0  0  0  0  0  0  0  0  0  0
  188.8470  177.6500  143.4690 C   0  0  1  0  0  3  0  0  0  0  0  0
  190.2340  175.7900  142.3060 C   0  0  0  0  0  2  0  0  0  0  0  0
  187.9330  177.8690  145.8340 C   0  0  0  0  0  0  0  0  0  0  0  0
  188.3630  177.9480  148.6110 C   0  0  0  0  0  3  0  0  0  0  0  0
  189.3940  176.2110  143.5290 C   0  0  0  0  0  2  0  0  0  0  0  0
  185.2960  178.0900  144.8570 C   0  0  0  0  0  0  0  0  0  0  0  0
  190.7040  177.7250  148.2300 F   0  0  0  0  0  0  0  0  0  0  0  0
  187.2350  178.6610  141.7560 C   0  0  0  0  0  2  0  0  0  0  0  0
  190.6790  176.9560  141.4220 C   0  0  0  0  0  2  0  0  0  0  0  0
  185.5450  178.1120  146.2340 C   0  0  0  0  0  3  0  0  0  0  0  0
  186.3720  177.9580  143.9610 C   0  0  0  0  0  0  0  0  0  0  0  0
  189.2320  177.7770  146.3570 C   0  0  0  0  0  3  0  0  0  0  0  0
  189.3510  178.2460  139.9120 O   0  0  0  0  0  0  0  0  0  0  0  0
  186.8440  178.0080  146.7260 C   0  0  0  0  0  0  0  0  0  0  0  0
  187.0640  178.0440  148.1050 C   0  0  0  0  0  3  0  0  0  0  0  0
  186.1110  177.9430  142.4820 C   0  0  0  0  0  2  0  0  0  0  0  0
  188.5050  178.0240  142.0890 N   0  0  0  0  0  0  0  0  0  0  0  0
  189.4850  177.7790  141.0750 C   0  0  0  0  0  0  0  0  0  0  0  0
  183.8780  180.5060  143.9220 O   0  0  0  0  0  0  0  0  0  0  0  0
  183.2830  179.3930  143.9360 C   0  0  0  0  0  0  0  0  0  0  0  0
  183.9560  178.1960  144.3450 N   0  0  0  0  0  2  0  0  0  0  0  0
  181.2130  178.2990  144.2300 O   0  0  0  0  0  1  0  0  0  0  0  0
  181.8530  179.3090  143.5080 C   0  0  2  0  0  3  0  0  0  0  0  0
  180.4540  178.2880  141.7020 C   0  0  0  0  0  1  0  0  0  0  0  0
  181.7380  179.0440  142.0060 C   0  0  2  0  0  3  0  0  0  0  0  0
  182.8360  178.2810  141.5630 O   0  0  0  0  0  0  0  0  0  0  0  0
  182.9040  178.3380  140.1520 C   0  0  1  0  0  3  0  0  0  0  0  0
  183.9600  179.3160  139.6530 C   0  0  0  0  0  1  0  0  0  0  0  0
  183.0810  177.0720  139.5830 O   0  0  0  0  0  1  0  0  0  0  0  0
  1  9  1  0  0  0  0
  1  6  1  0  0  0  0
  2  5  1  0  0  0  0
  3  7  1  6  0  0  0
  3  2  1  0  0  0  0
  4  7  1  0  0  0  0
  5 14  1  0  0  0  0
  5 16  2  0  0  0  0
  8 12  2  0  0  0  0
 10 19  1  0  0  0  0
 10 18  1  0  0  0  0
 11  4  1  0  0  0  0
 12 16  1  0  0  0  0
 13  2  2  0  0  0  0
 13  8  1  0  0  0  0
 14  1  2  0  0  0  0
 15 20  2  0  0  0  0
 16 17  1  0  0  0  0
 17  6  2  0  0  0  0
 18 13  1  0  0  0  0
 19  3  1  0  0  0  0
 20 11  1  0  0  0  0
 20 19  1  0  0  0  0
 21 22  2  0  0  0  0
 22 23  1  0  0  0  0
 23  8  1  0  0  0  0
 25 22  1  0  0  0  0
 25 24  1  1  0  0  0
 27 26  1  1  0  0  0
 27 25  1  0  0  0  0
 28 27  1  0  0  0  0
 29 30  1  1  0  0  0
 29 28  1  0  0  0  0
 31 29  1  0  0  0  0
M  END
>  <MODEL>
2

>  <REMARK>
 VINA RESULT:      -8.7      2.696      6.180
  Name = 
  5 active torsions:
  status: ('A' for Active; 'I' for Inactive)
    1  A    between atoms: C_1  and  O_24
    2  A    between atoms: C_9  and  C_22
    3  A    between atoms: C_15  and  N_23
    4  A    between atoms: C_19  and  C_22
    5  A    between atoms: C_19  and  O_24
                            x       y       z     vdW  Elec       q    Type
                         _______ _______ _______ _____ _____    ______ ____

>  <TORSDO>
F 5

$$$$
=
 OpenBabel11052413123D

 31 34  0  0  1  0  0  0  0  0999 V2000
  186.7080  177.9310  147.0030 C   0  0  0  0  0  0  0  0  0  0  0  0
  187.4680  178.1000  143.3540 C   0  0  0  0  0  0  0  0  0  0  0  0
  188.8880  177.5660  143.2990 C   0  0  1  0  0  3  0  0  0  0  0  0
  190.1910  175.3320  143.0870 C   0  0  0  0  0  2  0  0  0  0  0  0
  186.7860  178.1980  144.5870 C   0  0  0  0  0  0  0  0  0  0  0  0
  185.3910  178.3970  147.0190 C   0  0  0  0  0  3  0  0  0  0  0  0
  188.9070  176.0470  143.5530 C   0  0  0  0  0  2  0  0  0  0  0  0
  185.4910  178.9810  142.2060 C   0  0  0  0  0  0  0  0  0  0  0  0
  187.3130  177.5730  148.1610 F   0  0  0  0  0  0  0  0  0  0  0  0
  189.0060  178.7980  141.0580 C   0  0  0  0  0  2  0  0  0  0  0  0
  191.3570  176.2750  142.7860 C   0  0  0  0  0  2  0  0  0  0  0  0
  184.8220  179.0540  143.4330 C   0  0  0  0  0  3  0  0  0  0  0  0
  186.8180  178.5140  142.1670 C   0  0  0  0  0  0  0  0  0  0  0  0
  187.4020  177.8320  145.7940 C   0  0  0  0  0  3  0  0  0  0  0  0
  191.6270  177.7240  140.9050 O   0  0  0  0  0  0  0  0  0  0  0  0
  185.4540  178.6740  144.6140 C   0  0  0  0  0  0  0  0  0  0  0  0
  184.7650  178.7680  145.8270 C   0  0  0  0  0  3  0  0  0  0  0  0
  187.5430  178.4420  140.8550 C   0  0  0  0  0  2  0  0  0  0  0  0
  189.5860  177.8970  142.0480 N   0  0  0  0  0  0  0  0  0  0  0  0
  190.8870  177.3360  141.8480 C   0  0  0  0  0  0  0  0  0  0  0  0
  183.4440  177.5110  140.6690 O   0  0  0  0  0  0  0  0  0  0  0  0
  183.8790  178.6150  140.2400 C   0  0  0  0  0  0  0  0  0  0  0  0
  184.8420  179.3720  140.9830 N   0  0  0  0  0  2  0  0  0  0  0  0
  183.8880  180.4440  138.7500 O   0  0  0  0  0  1  0  0  0  0  0  0
  183.3790  179.1580  138.9400 C   0  0  2  0  0  3  0  0  0  0  0  0
  181.3570  178.9020  137.4880 C   0  0  0  0  0  1  0  0  0  0  0  0
  181.8490  179.1800  138.9000 C   0  0  2  0  0  3  0  0  0  0  0  0
  181.3720  180.4380  139.3140 O   0  0  0  0  0  0  0  0  0  0  0  0
  180.2210  180.2580  140.1150 C   0  0  1  0  0  3  0  0  0  0  0  0
  180.5180  179.5150  141.4120 C   0  0  0  0  0  1  0  0  0  0  0  0
  179.5630  181.4670  140.3680 O   0  0  0  0  0  1  0  0  0  0  0  0
  1  6  1  0  0  0  0
  1  9  1  0  0  0  0
  2  5  1  0  0  0  0
  3  2  1  0  0  0  0
  3  7  1  6  0  0  0
  4  7  1  0  0  0  0
  5 16  2  0  0  0  0
  5 14  1  0  0  0  0
  8 12  2  0  0  0  0
 10 19  1  0  0  0  0
 11  4  1  0  0  0  0
 12 16  1  0  0  0  0
 13  8  1  0  0  0  0
 13  2  2  0  0  0  0
 14  1  2  0  0  0  0
 15 20  2  0  0  0  0
 16 17  1  0  0  0  0
 17  6  2  0  0  0  0
 18 10  1  0  0  0  0
 18 13  1  0  0  0  0
 19  3  1  0  0  0  0
 20 19  1  0  0  0  0
 20 11  1  0  0  0  0
 22 21  2  0  0  0  0
 22 23  1  0  0  0  0
 23  8  1  0  0  0  0
 25 24  1  1  0  0  0
 25 22  1  0  0  0  0
 27 26  1  6  0  0  0
 27 25  1  0  0  0  0
 27 28  1  0  0  0  0
 28 29  1  0  0  0  0
 29 31  1  0  0  0  0
 29 30  1  1  0  0  0
M  END
>  <MODEL>
3

>  <REMARK>
 VINA RESULT:      -8.7      2.872      5.805
  Name = 
  5 active torsions:
  status: ('A' for Active; 'I' for Inactive)
    1  A    between atoms: C_1  and  O_24
    2  A    between atoms: C_9  and  C_22
    3  A    between atoms: C_15  and  N_23
    4  A    between atoms: C_19  and  C_22
    5  A    between atoms: C_19  and  O_24
                            x       y       z     vdW  Elec       q    Type
                         _______ _______ _______ _____ _____    ______ ____

>  <TORSDO>
F 5

$$$$
=
 OpenBabel11052413123D

 31 34  0  0  1  0  0  0  0  0999 V2000
  186.4730  178.1160  146.8300 C   0  0  0  0  0  0  0  0  0  0  0  0
  187.2520  178.0980  143.1800 C   0  0  0  0  0  0  0  0  0  0  0  0
  188.6920  177.6170  143.1650 C   0  0  1  0  0  3  0  0  0  0  0  0
  190.0820  175.4270  143.0920 C   0  0  0  0  0  2  0  0  0  0  0  0
  186.5580  178.2430  144.4020 C   0  0  0  0  0  0  0  0  0  0  0  0
  185.1390  178.5310  146.8110 C   0  0  0  0  0  3  0  0  0  0  0  0
  188.7680  176.1180  143.5080 C   0  0  0  0  0  2  0  0  0  0  0  0
  185.2520  178.8320  141.9720 C   0  0  0  0  0  0  0  0  0  0  0  0
  187.0820  177.8510  148.0100 F   0  0  0  0  0  0  0  0  0  0  0  0
  188.7790  178.7180  140.8540 C   0  0  0  0  0  2  0  0  0  0  0  0
  191.2130  176.3950  142.7410 C   0  0  0  0  0  2  0  0  0  0  0  0
  184.5720  178.9520  143.1890 C   0  0  0  0  0  3  0  0  0  0  0  0
  186.5950  178.4150  141.9680 C   0  0  0  0  0  0  0  0  0  0  0  0
  187.1790  177.9730  145.6320 C   0  0  0  0  0  3  0  0  0  0  0  0
  191.4410  177.7390  140.7790 O   0  0  0  0  0  0  0  0  0  0  0  0
  185.2090  178.6670  144.3950 C   0  0  0  0  0  0  0  0  0  0  0  0
  184.5080  178.8070  145.5960 C   0  0  0  0  0  3  0  0  0  0  0  0
  187.3330  178.2940  140.6660 C   0  0  0  0  0  2  0  0  0  0  0  0
  189.3860  177.9010  141.8990 N   0  0  0  0  0  0  0  0  0  0  0  0
  190.7100  177.3790  141.7400 C   0  0  0  0  0  0  0  0  0  0  0  0
  183.2070  177.2380  140.5600 O   0  0  0  0  0  0  0  0  0  0  0  0
  183.6350  178.3080  140.0460 C   0  0  0  0  0  0  0  0  0  0  0  0
  184.5970  179.1240  140.7250 N   0  0  0  0  0  2  0  0  0  0  0  0
  181.7450  178.5700  138.6590 O   0  0  0  0  0  1  0  0  0  0  0  0
  183.1290  178.7470  138.7100 C   0  0  2  0  0  3  0  0  0  0  0  0
  182.9280  176.8110  137.1370 C   0  0  0  0  0  1  0  0  0  0  0  0
  183.8070  177.9710  137.5780 C   0  0  2  0  0  3  0  0  0  0  0  0
  185.0490  177.4680  138.0120 O   0  0  0  0  0  0  0  0  0  0  0  0
  185.9060  177.3200  136.8980 C   0  0  1  0  0  3  0  0  0  0  0  0
  186.9080  178.4600  136.7710 C   0  0  0  0  0  1  0  0  0  0  0  0
  186.5520  176.0790  136.8930 O   0  0  0  0  0  1  0  0  0  0  0  0
  1  9  1  0  0  0  0
  2  5  1  0  0  0  0
  3  2  1  0  0  0  0
  3  7  1  6  0  0  0
  4  7  1  0  0  0  0
  5 14  1  0  0  0  0
  6  1  1  0  0  0  0
  8 12  2  0  0  0  0
 10 19  1  0  0  0  0
 11  4  1  0  0  0  0
 12 16  1  0  0  0  0
 13  8  1  0  0  0  0
 13  2  2  0  0  0  0
 14  1  2  0  0  0  0
 15 20  2  0  0  0  0
 16  5  2  0  0  0  0
 16 17  1  0  0  0  0
 17  6  2  0  0  0  0
 18 10  1  0  0  0  0
 18 13  1  0  0  0  0
 19  3  1  0  0  0  0
 20 19  1  0  0  0  0
 20 11  1  0  0  0  0
 22 21  2  0  0  0  0
 22 23  1  0  0  0  0
 23  8  1  0  0  0  0
 25 24  1  1  0  0  0
 25 22  1  0  0  0  0
 27 26  1  1  0  0  0
 27 28  1  0  0  0  0
 27 25  1  0  0  0  0
 29 30  1  1  0  0  0
 29 28  1  0  0  0  0
 31 29  1  0  0  0  0
M  END
>  <MODEL>
4

>  <REMARK>
 VINA RESULT:      -8.6      1.954      5.039
  Name = 
  5 active torsions:
  status: ('A' for Active; 'I' for Inactive)
    1  A    between atoms: C_1  and  O_24
    2  A    between atoms: C_9  and  C_22
    3  A    between atoms: C_15  and  N_23
    4  A    between atoms: C_19  and  C_22
    5  A    between atoms: C_19  and  O_24
                            x       y       z     vdW  Elec       q    Type
                         _______ _______ _______ _____ _____    ______ ____

>  <TORSDO>
F 5

$$$$
=
 OpenBabel11052413123D

 31 34  0  0  1  0  0  0  0  0999 V2000
  187.9670  177.2650  146.0190 C   0  0  0  0  0  0  0  0  0  0  0  0
  186.1940  178.1880  142.8680 C   0  0  0  0  0  0  0  0  0  0  0  0
  184.7530  178.2950  143.3340 C   0  0  1  0  0  3  0  0  0  0  0  0
  183.0820  180.0100  144.3360 C   0  0  0  0  0  2  0  0  0  0  0  0
  187.2190  177.8540  143.7810 C   0  0  0  0  0  0  0  0  0  0  0  0
  189.2880  177.2040  145.5680 C   0  0  0  0  0  3  0  0  0  0  0  0
  184.5490  179.5590  144.1890 C   0  0  0  0  0  2  0  0  0  0  0  0
  187.8580  178.3480  141.0780 C   0  0  0  0  0  0  0  0  0  0  0  0
  187.6840  177.0120  147.3190 F   0  0  0  0  0  0  0  0  0  0  0  0
  184.1840  177.9480  140.8610 C   0  0  0  0  0  2  0  0  0  0  0  0
  182.0590  178.9510  143.9210 C   0  0  0  0  0  2  0  0  0  0  0  0
  188.8640  178.0350  141.9980 C   0  0  0  0  0  3  0  0  0  0  0  0
  186.5210  178.4140  141.5110 C   0  0  0  0  0  0  0  0  0  0  0  0
  186.9380  177.5880  145.1300 C   0  0  0  0  0  3  0  0  0  0  0  0
  181.4930  178.2420  141.7110 O   0  0  0  0  0  0  0  0  0  0  0  0
  188.5590  177.7850  143.3340 C   0  0  0  0  0  0  0  0  0  0  0  0
  189.5830  177.4640  144.2280 C   0  0  0  0  0  3  0  0  0  0  0  0
  185.4360  178.7410  140.5260 C   0  0  0  0  0  2  0  0  0  0  0  0
  183.7800  178.2460  142.2310 N   0  0  0  0  0  0  0  0  0  0  0  0
  182.4030  178.4610  142.5550 C   0  0  0  0  0  0  0  0  0  0  0  0
  189.7200  176.8840  139.3150 O   0  0  0  0  0  0  0  0  0  0  0  0
  189.1100  177.9000  138.8800 C   0  0  0  0  0  0  0  0  0  0  0  0
  188.1690  178.6070  139.6980 N   0  0  0  0  0  2  0  0  0  0  0  0
  189.0690  179.7400  137.4040 O   0  0  0  0  0  1  0  0  0  0  0  0
  189.3570  178.3760  137.4850 C   0  0  2  0  0  3  0  0  0  0  0  0
  187.2950  178.4030  136.0680 C   0  0  0  0  0  1  0  0  0  0  0  0
  188.5160  177.5930  136.4750 C   0  0  2  0  0  3  0  0  0  0  0  0
  188.0920  176.3750  137.0390 O   0  0  0  0  0  0  0  0  0  0  0  0
  188.4880  175.3090  136.1990 C   0  0  1  0  0  3  0  0  0  0  0  0
  189.5770  174.4440  136.8200 C   0  0  0  0  0  1  0  0  0  0  0  0
  187.4010  174.5310  135.7880 O   0  0  0  0  0  1  0  0  0  0  0  0
  1  9  1  0  0  0  0
  2  3  1  0  0  0  0
  2  5  1  0  0  0  0
  3  7  1  6  0  0  0
  5 14  1  0  0  0  0
  6  1  1  0  0  0  0
  7  4  1  0  0  0  0
  8 13  1  0  0  0  0
  8 12  2  0  0  0  0
 10 19  1  0  0  0  0
 11  4  1  0  0  0  0
 12 16  1  0  0  0  0
 13  2  2  0  0  0  0
 14  1  2  0  0  0  0
 15 20  2  0  0  0  0
 16  5  2  0  0  0  0
 16 17  1  0  0  0  0
 17  6  2  0  0  0  0
 18 10  1  0  0  0  0
 18 13  1  0  0  0  0
 19 20  1  0  0  0  0
 19  3  1  0  0  0  0
 20 11  1  0  0  0  0
 22 21  2  0  0  0  0
 22 23  1  0  0  0  0
 23  8  1  0  0  0  0
 25 24  1  1  0  0  0
 25 22  1  0  0  0  0
 27 26  1  1  0  0  0
 27 28  1  0  0  0  0
 27 25  1  0  0  0  0
 29 30  1  1  0  0  0
 29 28  1  0  0  0  0
 31 29  1  0  0  0  0
M  END
>  <MODEL>
5

>  <REMARK>
 VINA RESULT:      -8.1      1.126      1.447
  Name = 
  5 active torsions:
  status: ('A' for Active; 'I' for Inactive)
    1  A    between atoms: C_1  and  O_24
    2  A    between atoms: C_9  and  C_22
    3  A    between atoms: C_15  and  N_23
    4  A    between atoms: C_19  and  C_22
    5  A    between atoms: C_19  and  O_24
                            x       y       z     vdW  Elec       q    Type
                         _______ _______ _______ _____ _____    ______ ____

>  <TORSDO>
F 5

$$$$
=
 OpenBabel11052413123D

 31 34  0  0  1  0  0  0  0  0999 V2000
  187.9900  177.1340  145.7830 C   0  0  0  0  0  0  0  0  0  0  0  0
  186.2210  178.2040  142.6770 C   0  0  0  0  0  0  0  0  0  0  0  0
  184.7820  178.3060  143.1500 C   0  0  1  0  0  3  0  0  0  0  0  0
  183.1310  179.9940  144.2250 C   0  0  0  0  0  2  0  0  0  0  0  0
  187.2450  177.8230  143.5730 C   0  0  0  0  0  0  0  0  0  0  0  0
  189.3100  177.0790  145.3280 C   0  0  0  0  0  3  0  0  0  0  0  0
  184.5930  179.5360  144.0570 C   0  0  0  0  0  2  0  0  0  0  0  0
  187.8840  178.4210  140.8920 C   0  0  0  0  0  0  0  0  0  0  0  0
  187.7070  176.8300  147.0720 F   0  0  0  0  0  0  0  0  0  0  0  0
  184.2060  178.0680  140.6660 C   0  0  0  0  0  2  0  0  0  0  0  0
  182.0960  178.9640  143.7690 C   0  0  0  0  0  2  0  0  0  0  0  0
  188.8890  178.0600  141.7960 C   0  0  0  0  0  3  0  0  0  0  0  0
  186.5490  178.4830  141.3290 C   0  0  0  0  0  0  0  0  0  0  0  0
  186.9630  177.5030  144.9110 C   0  0  0  0  0  3  0  0  0  0  0  0
  181.5190  178.3520  141.5320 O   0  0  0  0  0  0  0  0  0  0  0  0
  188.5830  177.7590  143.1210 C   0  0  0  0  0  0  0  0  0  0  0  0
  189.6060  177.3910  143.9990 C   0  0  0  0  0  3  0  0  0  0  0  0
  185.4650  178.8610  140.3610 C   0  0  0  0  0  2  0  0  0  0  0  0
  183.8070  178.3130  142.0480 N   0  0  0  0  0  0  0  0  0  0  0  0
  182.4320  178.5280  142.3830 C   0  0  0  0  0  0  0  0  0  0  0  0
  187.7250  176.6590  138.5280 O   0  0  0  0  0  0  0  0  0  0  0  0
  188.1460  177.8420  138.4020 C   0  0  0  0  0  0  0  0  0  0  0  0
  188.1960  178.7340  139.5230 N   0  0  0  0  0  2  0  0  0  0  0  0
  187.6200  178.0290  136.1100 O   0  0  0  0  0  1  0  0  0  0  0  0
  188.5920  178.3360  137.0640 C   0  0  2  0  0  3  0  0  0  0  0  0
  189.7230  176.5130  135.7770 C   0  0  0  0  0  1  0  0  0  0  0  0
  189.9380  177.7260  136.6690 C   0  0  2  0  0  3  0  0  0  0  0  0
  190.6470  177.3300  137.8190 O   0  0  0  0  0  0  0  0  0  0  0  0
  191.3130  176.1100  137.5590 C   0  0  1  0  0  3  0  0  0  0  0  0
  192.8300  176.2450  137.6100 C   0  0  0  0  0  1  0  0  0  0  0  0
  190.8720  175.0810  138.3990 O   0  0  0  0  0  1  0  0  0  0  0  0
  1  9  1  0  0  0  0
  2  3  1  0  0  0  0
  2  5  1  0  0  0  0
  3  7  1  6  0  0  0
  5 14  1  0  0  0  0
  6  1  1  0  0  0  0
  7  4  1  0  0  0  0
  8 13  1  0  0  0  0
  8 12  2  0  0  0  0
 10 19  1  0  0  0  0
 11  4  1  0  0  0  0
 12 16  1  0  0  0  0
 13  2  2  0  0  0  0
 14  1  2  0  0  0  0
 15 20  2  0  0  0  0
 16  5  2  0  0  0  0
 16 17  1  0  0  0  0
 17  6  2  0  0  0  0
 18 10  1  0  0  0  0
 18 13  1  0  0  0  0
 19 20  1  0  0  0  0
 19  3  1  0  0  0  0
 20 11  1  0  0  0  0
 22 21  2  0  0  0  0
 22 23  1  0  0  0  0
 23  8  1  0  0  0  0
 25 24  1  6  0  0  0
 25 22  1  0  0  0  0
 27 26  1  6  0  0  0
 27 25  1  0  0  0  0
 27 28  1  0  0  0  0
 29 30  1  1  0  0  0
 29 28  1  0  0  0  0
 29 31  1  0  0  0  0
M  END
>  <MODEL>
6

>  <REMARK>
 VINA RESULT:      -8.0      1.230      2.307
  Name = 
  5 active torsions:
  status: ('A' for Active; 'I' for Inactive)
    1  A    between atoms: C_1  and  O_24
    2  A    between atoms: C_9  and  C_22
    3  A    between atoms: C_15  and  N_23
    4  A    between atoms: C_19  and  C_22
    5  A    between atoms: C_19  and  O_24
                            x       y       z     vdW  Elec       q    Type
                         _______ _______ _______ _____ _____    ______ ____

>  <TORSDO>
F 5

$$$$
=
 OpenBabel11052413123D

 31 34  0  0  1  0  0  0  0  0999 V2000
  185.8500  178.3480  146.3160 C   0  0  0  0  0  0  0  0  0  0  0  0
  186.9130  178.0720  142.7500 C   0  0  0  0  0  0  0  0  0  0  0  0
  188.3700  177.6690  142.8830 C   0  0  1  0  0  3  0  0  0  0  0  0
  189.8640  175.5580  143.1020 C   0  0  0  0  0  2  0  0  0  0  0  0
  186.1190  178.2790  143.9000 C   0  0  0  0  0  0  0  0  0  0  0  0
  184.5040  178.6880  146.1630 C   0  0  0  0  0  3  0  0  0  0  0  0
  188.4900  176.2100  143.3590 C   0  0  0  0  0  2  0  0  0  0  0  0
  184.9810  178.5960  141.3380 C   0  0  0  0  0  0  0  0  0  0  0  0
  186.3770  178.2140  147.5570 F   0  0  0  0  0  0  0  0  0  0  0  0
  188.5860  178.5800  140.4990 C   0  0  0  0  0  2  0  0  0  0  0  0
  190.9720  176.5540  142.7540 C   0  0  0  0  0  2  0  0  0  0  0  0
  184.2020  178.7780  142.4870 C   0  0  0  0  0  3  0  0  0  0  0  0
  186.3380  178.2530  141.4700 C   0  0  0  0  0  0  0  0  0  0  0  0
  186.6540  178.1450  145.1910 C   0  0  0  0  0  3  0  0  0  0  0  0
  191.2890  177.7420  140.7050 O   0  0  0  0  0  0  0  0  0  0  0  0
  184.7560  178.6280  143.7560 C   0  0  0  0  0  0  0  0  0  0  0  0
  183.9580  178.8280  144.8860 C   0  0  0  0  0  3  0  0  0  0  0  0
  187.1800  178.0640  140.2410 C   0  0  0  0  0  2  0  0  0  0  0  0
  189.1470  177.8850  141.6520 N   0  0  0  0  0  0  0  0  0  0  0  0
  190.5020  177.4240  141.6370 C   0  0  0  0  0  0  0  0  0  0  0  0
  182.9690  176.8950  140.0050 O   0  0  0  0  0  0  0  0  0  0  0  0
  183.4640  177.8810  139.3920 C   0  0  0  0  0  0  0  0  0  0  0  0
  184.4120  178.7480  140.0260 N   0  0  0  0  0  2  0  0  0  0  0  0
  181.7160  178.5570  137.9600 O   0  0  0  0  0  1  0  0  0  0  0  0
  183.0550  178.1640  137.9820 C   0  0  2  0  0  3  0  0  0  0  0  0
  183.8900  177.3590  135.7650 C   0  0  0  0  0  1  0  0  0  0  0  0
  183.2660  176.9410  137.0870 C   0  0  2  0  0  3  0  0  0  0  0  0
  182.0340  176.3080  136.8340 O   0  0  0  0  0  0  0  0  0  0  0  0
  182.1240  174.9480  137.2090 C   0  0  1  0  0  3  0  0  0  0  0  0
  183.5440  174.5290  137.5700 C   0  0  0  0  0  1  0  0  0  0  0  0
  181.2280  174.6250  138.2350 O   0  0  0  0  0  1  0  0  0  0  0  0
  1  9  1  0  0  0  0
  2  3  1  0  0  0  0
  2  5  1  0  0  0  0
  3  7  1  6  0  0  0
  4  7  1  0  0  0  0
  5 14  1  0  0  0  0
  6  1  1  0  0  0  0
  8 13  1  0  0  0  0
  8 12  2  0  0  0  0
 10 19  1  0  0  0  0
 11  4  1  0  0  0  0
 12 16  1  0  0  0  0
 13  2  2  0  0  0  0
 14  1  2  0  0  0  0
 15 20  2  0  0  0  0
 16  5  2  0  0  0  0
 16 17  1  0  0  0  0
 17  6  2  0  0  0  0
 18 10  1  0  0  0  0
 18 13  1  0  0  0  0
 19  3  1  0  0  0  0
 20 19  1  0  0  0  0
 20 11  1  0  0  0  0
 22 21  2  0  0  0  0
 22 23  1  0  0  0  0
 23  8  1  0  0  0  0
 25 24  1  1  0  0  0
 25 22  1  0  0  0  0
 27 26  1  6  0  0  0
 27 25  1  0  0  0  0
 28 27  1  0  0  0  0
 28 29  1  0  0  0  0
 29 30  1  1  0  0  0
 29 31  1  0  0  0  0
M  END
>  <MODEL>
7

>  <REMARK>
 VINA RESULT:      -7.8      2.592      5.255
  Name = 
  5 active torsions:
  status: ('A' for Active; 'I' for Inactive)
    1  A    between atoms: C_1  and  O_24
    2  A    between atoms: C_9  and  C_22
    3  A    between atoms: C_15  and  N_23
    4  A    between atoms: C_19  and  C_22
    5  A    between atoms: C_19  and  O_24
                            x       y       z     vdW  Elec       q    Type
                         _______ _______ _______ _____ _____    ______ ____

>  <TORSDO>
F 5

$$$$
=
 OpenBabel11052413123D

 31 34  0  0  1  0  0  0  0  0999 V2000
  186.9520  178.2260  147.1810 C   0  0  0  0  0  0  0  0  0  0  0  0
  186.7060  178.0300  143.4630 C   0  0  0  0  0  0  0  0  0  0  0  0
  188.1330  177.6960  143.0670 C   0  0  1  0  0  3  0  0  0  0  0  0
  189.6960  175.6580  142.6980 C   0  0  0  0  0  2  0  0  0  0  0  0
  186.3580  178.1890  144.8230 C   0  0  0  0  0  0  0  0  0  0  0  0
  185.6250  178.5020  147.5180 C   0  0  0  0  0  3  0  0  0  0  0  0
  188.4740  176.2400  143.4350 C   0  0  0  0  0  2  0  0  0  0  0  0
  184.3810  178.4710  142.8300 C   0  0  0  0  0  0  0  0  0  0  0  0
  187.8860  178.1080  148.1550 F   0  0  0  0  0  0  0  0  0  0  0  0
  187.4600  178.6340  140.7810 C   0  0  0  0  0  2  0  0  0  0  0  0
  190.5690  176.7080  142.0080 C   0  0  0  0  0  2  0  0  0  0  0  0
  184.0490  178.6070  144.1830 C   0  0  0  0  0  3  0  0  0  0  0  0
  185.7120  178.1920  142.4700 C   0  0  0  0  0  0  0  0  0  0  0  0
  187.3180  178.0710  145.8410 C   0  0  0  0  0  3  0  0  0  0  0  0
  190.0960  177.9270  140.0080 O   0  0  0  0  0  0  0  0  0  0  0  0
  185.0180  178.4740  145.1740 C   0  0  0  0  0  0  0  0  0  0  0  0
  184.6600  178.6260  146.5160 C   0  0  0  0  0  3  0  0  0  0  0  0
  186.0760  178.0540  141.0200 C   0  0  0  0  0  2  0  0  0  0  0  0
  188.4190  177.9580  141.6480 N   0  0  0  0  0  0  0  0  0  0  0  0
  189.7010  177.5630  141.1480 C   0  0  0  0  0  0  0  0  0  0  0  0
  181.5440  179.2330  143.1260 O   0  0  0  0  0  0  0  0  0  0  0  0
  182.0010  178.9400  141.9860 C   0  0  0  0  0  0  0  0  0  0  0  0
  183.3820  178.6060  141.8040 N   0  0  0  0  0  2  0  0  0  0  0  0
  179.9880  178.1410  141.0510 O   0  0  0  0  0  1  0  0  0  0  0  0
  181.0960  178.9500  140.7960 C   0  0  2  0  0  3  0  0  0  0  0  0
  182.3340  179.6610  138.7410 C   0  0  0  0  0  1  0  0  0  0  0  0
  181.8280  178.4710  139.5400 C   0  0  2  0  0  3  0  0  0  0  0  0
  180.9590  177.7120  138.7330 O   0  0  0  0  0  0  0  0  0  0  0  0
  181.5140  176.4280  138.5300 C   0  0  1  0  0  3  0  0  0  0  0  0
  182.6800  176.1360  139.4670 C   0  0  0  0  0  1  0  0  0  0  0  0
  180.5470  175.4190  138.6030 O   0  0  0  0  0  1  0  0  0  0  0  0
  1  6  1  0  0  0  0
  1  9  1  0  0  0  0
  2  5  1  0  0  0  0
  3  7  1  6  0  0  0
  3  2  1  0  0  0  0
  4  7  1  0  0  0  0
  5 16  2  0  0  0  0
  5 14  1  0  0  0  0
  8 12  2  0  0  0  0
 10 18  1  0  0  0  0
 10 19  1  0  0  0  0
 11  4  1  0  0  0  0
 12 16  1  0  0  0  0
 13  8  1  0  0  0  0
 13  2  2  0  0  0  0
 14  1  2  0  0  0  0
 15 20  2  0  0  0  0
 16 17  1  0  0  0  0
 17  6  2  0  0  0  0
 18 13  1  0  0  0  0
 19  3  1  0  0  0  0
 20 19  1  0  0  0  0
 20 11  1  0  0  0  0
 22 21  2  0  0  0  0
 23 22  1  0  0  0  0
 23  8  1  0  0  0  0
 25 24  1  1  0  0  0
 25 22  1  0  0  0  0
 27 26  1  6  0  0  0
 27 25  1  0  0  0  0
 28 27  1  0  0  0  0
 29 31  1  0  0  0  0
 29 28  1  0  0  0  0
 29 30  1  1  0  0  0
M  END
>  <MODEL>
8

>  <REMARK>
 VINA RESULT:      -7.8      2.801      5.857
  Name = 
  5 active torsions:
  status: ('A' for Active; 'I' for Inactive)
    1  A    between atoms: C_1  and  O_24
    2  A    between atoms: C_9  and  C_22
    3  A    between atoms: C_15  and  N_23
    4  A    between atoms: C_19  and  C_22
    5  A    between atoms: C_19  and  O_24
                            x       y       z     vdW  Elec       q    Type
                         _______ _______ _______ _____ _____    ______ ____

>  <TORSDO>
F 5

$$$$
=
 OpenBabel11052413123D

 31 34  0  0  1  0  0  0  0  0999 V2000
  192.1400  176.3440  138.4950 C   0  0  0  0  0  0  0  0  0  0  0  0
  189.4860  177.4560  140.8710 C   0  0  0  0  0  0  0  0  0  0  0  0
  190.1440  177.2170  142.2180 C   0  0  1  0  0  3  0  0  0  0  0  0
  191.6700  178.3990  143.9520 C   0  0  0  0  0  2  0  0  0  0  0  0
  190.1760  177.1630  139.6740 C   0  0  0  0  0  0  0  0  0  0  0  0
  191.5200  176.6040  137.2700 C   0  0  0  0  0  3  0  0  0  0  0  0
  191.2510  178.2560  142.4750 C   0  0  0  0  0  2  0  0  0  0  0  0
  187.5640  178.2220  139.5600 C   0  0  0  0  0  0  0  0  0  0  0  0
  193.3900  175.8230  138.5240 F   0  0  0  0  0  0  0  0  0  0  0  0
  187.7450  177.2030  143.1140 C   0  0  0  0  0  2  0  0  0  0  0  0
  191.1890  177.2590  144.8510 C   0  0  0  0  0  2  0  0  0  0  0  0
  188.2680  177.9440  138.3830 C   0  0  0  0  0  3  0  0  0  0  0  0
  188.1690  177.9680  140.8040 C   0  0  0  0  0  0  0  0  0  0  0  0
  191.4710  176.6210  139.6900 C   0  0  0  0  0  3  0  0  0  0  0  0
  188.9740  176.8500  145.6470 O   0  0  0  0  0  0  0  0  0  0  0  0
  189.5560  177.4170  138.4280 C   0  0  0  0  0  0  0  0  0  0  0  0
  190.2310  177.1390  137.2370 C   0  0  0  0  0  3  0  0  0  0  0  0
  187.4150  178.2560  142.0700 C   0  0  0  0  0  2  0  0  0  0  0  0
  189.1880  177.1820  143.3350 N   0  0  0  0  0  0  0  0  0  0  0  0
  189.7210  177.0830  144.6590 C   0  0  0  0  0  0  0  0  0  0  0  0
  185.2690  177.3260  137.9330 O   0  0  0  0  0  0  0  0  0  0  0  0
  185.1510  178.3320  138.6850 C   0  0  0  0  0  0  0  0  0  0  0  0
  186.2340  178.7670  139.5170 N   0  0  0  0  0  2  0  0  0  0  0  0
  184.1090  180.4090  139.0930 O   0  0  0  0  0  1  0  0  0  0  0  0
  183.8600  179.0850  138.7250 C   0  0  2  0  0  3  0  0  0  0  0  0
  181.5880  178.0670  138.9680 C   0  0  0  0  0  1  0  0  0  0  0  0
  182.8710  178.4380  139.6960 C   0  0  2  0  0  3  0  0  0  0  0  0
  182.5640  179.3300  140.7410 O   0  0  0  0  0  0  0  0  0  0  0  0
  182.5410  178.6240  141.9650 C   0  0  1  0  0  3  0  0  0  0  0  0
  183.8900  178.6290  142.6730 C   0  0  0  0  0  1  0  0  0  0  0  0
  181.5250  179.0770  142.8150 O   0  0  0  0  0  1  0  0  0  0  0  0
  1  9  1  0  0  0  0
  1 14  1  0  0  0  0
  2  3  1  0  0  0  0
  3  7  1  1  0  0  0
  3 19  1  0  0  0  0
  4 11  1  0  0  0  0
  5 14  2  0  0  0  0
  5  2  1  0  0  0  0
  6  1  2  0  0  0  0
  7  4  1  0  0  0  0
  8 13  1  0  0  0  0
 10 19  1  0  0  0  0
 12 16  1  0  0  0  0
 12  8  2  0  0  0  0
 13  2  2  0  0  0  0
 13 18  1  0  0  0  0
 16  5  1  0  0  0  0
 17  6  1  0  0  0  0
 17 16  2  0  0  0  0
 18 10  1  0  0  0  0
 19 20  1  0  0  0  0
 20 11  1  0  0  0  0
 20 15  2  0  0  0  0
 21 22  2  0  0  0  0
 22 25  1  0  0  0  0
 22 23  1  0  0  0  0
 23  8  1  0  0  0  0
 25 24  1  1  0  0  0
 25 27  1  0  0  0  0
 27 26  1  6  0  0  0
 27 28  1  0  0  0  0
 28 29  1  0  0  0  0
 29 30  1  1  0  0  0
 29 31  1  0  0  0  0
M  END
>  <MODEL>
9

>  <REMARK>
 VINA RESULT:      -7.7      3.069      6.424
  Name = 
  5 active torsions:
  status: ('A' for Active; 'I' for Inactive)
    1  A    between atoms: C_1  and  O_24
    2  A    between atoms: C_9  and  C_22
    3  A    between atoms: C_15  and  N_23
    4  A    between atoms: C_19  and  C_22
    5  A    between atoms: C_19  and  O_24
                            x       y       z     vdW  Elec       q    Type
                         _______ _______ _______ _____ _____    ______ ____

>  <TORSDO>
F 5

$$$$
