=
 OpenBabel11052413263D

 28 31  0  0  1  0  0  0  0  0999 V2000
  191.1230  176.9620  142.6870 C   0  0  1  0  0  3  0  0  0  0  0  0
  191.0040  176.5740  138.6520 O   0  0  0  0  0  0  0  0  0  0  0  0
  187.8180  177.2810  142.7360 N   0  0  0  0  0  0  0  0  0  0  0  0
  189.6690  176.7370  140.5960 C   0  0  1  0  0  3  0  0  0  0  0  0
  188.7190  176.1190  142.8640 C   0  0  0  0  0  2  0  0  0  0  0  0
  192.0880  177.6440  140.4570 C   0  0  0  0  0  2  0  0  0  0  0  0
  188.8530  178.0370  140.6420 C   0  0  0  0  0  2  0  0  0  0  0  0
  190.9310  176.9440  139.8140 C   0  0  0  0  0  0  0  0  0  0  0  0
  188.4470  178.4170  142.0640 C   0  0  0  0  0  2  0  0  0  0  0  0
  192.3840  177.0200  141.8180 C   0  0  0  0  0  2  0  0  0  0  0  0
  189.9900  176.1710  141.9930 C   0  0  2  0  0  3  0  0  0  0  0  0
  191.4380  176.4570  144.0710 C   0  0  0  0  0  0  0  0  0  0  0  0
  191.9880  175.1730  144.1760 C   0  0  0  0  0  3  0  0  0  0  0  0
  191.5770  176.6770  146.4970 C   0  0  0  0  0  0  0  0  0  0  0  0
  192.3300  174.6430  145.4210 C   0  0  0  0  0  3  0  0  0  0  0  0
  190.6520  178.5990  145.1820 C   0  0  0  0  0  1  0  0  0  0  0  0
  191.2220  177.2180  145.2450 C   0  0  0  0  0  0  0  0  0  0  0  0
  191.3850  177.4040  147.6680 O   0  0  0  0  0  1  0  0  0  0  0  0
  192.1270  175.3950  146.5790 C   0  0  0  0  0  3  0  0  0  0  0  0
  187.5210  177.7210  144.0890 C   0  0  0  0  0  2  0  0  0  0  0  0
  186.0650  177.4440  144.4280 C   0  0  0  0  0  2  0  0  0  0  0  0
  185.2600  178.7490  144.4080 C   0  0  2  0  0  3  0  0  0  0  0  0
  184.8580  179.2650  145.6930 N   0  0  0  0  0  0  0  0  0  0  0  0
  183.0800  179.4790  144.2170 C   0  0  0  0  0  1  0  0  0  0  0  0
  183.9370  178.5100  144.8790 N   0  0  0  0  0  0  0  0  0  0  0  0
  185.1900  178.4140  146.8350 C   0  0  0  0  0  2  0  0  0  0  0  0
  187.4280  178.1380  147.8090 C   0  0  0  0  0  2  0  0  0  0  0  0
  186.4010  178.9380  147.5380 C   0  0  0  0  0  3  0  0  0  0  0  0
  1 12  1  1  0  0  0
  2  8  2  0  0  0  0
  3  5  1  0  0  0  0
  3 20  1  0  0  0  0
  4  7  1  1  0  0  0
  4 11  1  0  0  0  0
  6 10  1  0  0  0  0
  7  9  1  0  0  0  0
  8  6  1  0  0  0  0
  8  4  1  0  0  0  0
  9  3  1  0  0  0  0
 10  1  1  0  0  0  0
 11  1  1  0  0  0  0
 11  5  1  1  0  0  0
 12 13  2  0  0  0  0
 12 17  1  0  0  0  0
 13 15  1  0  0  0  0
 14 19  1  0  0  0  0
 14 18  1  0  0  0  0
 15 19  2  0  0  0  0
 16 17  1  0  0  0  0
 17 14  2  0  0  0  0
 20 21  1  0  0  0  0
 22 21  1  1  0  0  0
 22 25  1  0  0  0  0
 22 23  1  0  0  0  0
 23 26  1  0  0  0  0
 24 25  1  0  0  0  0
 25 23  1  0  0  0  0
 26 28  1  0  0  0  0
 28 27  2  0  0  0  0
M  END
>  <MODEL>
1

>  <REMARK>
 VINA RESULT:      -7.5      0.000      0.000
  Name = 
  6 active torsions:
  status: ('A' for Active; 'I' for Inactive)
    1  A    between atoms: C_1  and  C_2
    2  A    between atoms: C_4  and  C_12
    3  A    between atoms: C_4  and  C_13
    4  A    between atoms: C_9  and  N_15
    5  A    between atoms: C_9  and  C_18
    6  A    between atoms: N_10  and  C_13
                            x       y       z     vdW  Elec       q    Type
                         _______ _______ _______ _____ _____    ______ ____

>  <TORSDO>
F 6

$$$$
=
 OpenBabel11052413263D

 28 31  0  0  1  0  0  0  0  0999 V2000
  191.0890  176.9690  142.7670 C   0  0  1  0  0  3  0  0  0  0  0  0
  191.0450  176.6080  138.7280 O   0  0  0  0  0  0  0  0  0  0  0  0
  187.7720  177.1160  142.7740 N   0  0  0  0  0  0  0  0  0  0  0  0
  189.6770  176.6860  140.6560 C   0  0  1  0  0  3  0  0  0  0  0  0
  188.7300  176.0020  142.9050 C   0  0  0  0  0  2  0  0  0  0  0  0
  192.0470  177.7180  140.5560 C   0  0  0  0  0  2  0  0  0  0  0  0
  188.7940  177.9410  140.6990 C   0  0  0  0  0  2  0  0  0  0  0  0
  190.9370  176.9640  139.8920 C   0  0  0  0  0  0  0  0  0  0  0  0
  188.3500  178.2880  142.1180 C   0  0  0  0  0  2  0  0  0  0  0  0
  192.3570  177.0990  141.9160 C   0  0  0  0  0  2  0  0  0  0  0  0
  190.0090  176.1260  142.0530 C   0  0  2  0  0  3  0  0  0  0  0  0
  191.4120  176.4700  144.1510 C   0  0  0  0  0  0  0  0  0  0  0  0
  191.9930  175.2000  144.2570 C   0  0  0  0  0  3  0  0  0  0  0  0
  191.5350  176.6900  146.5780 C   0  0  0  0  0  0  0  0  0  0  0  0
  192.3440  174.6770  145.5030 C   0  0  0  0  0  3  0  0  0  0  0  0
  190.5670  178.5900  145.2630 C   0  0  0  0  0  1  0  0  0  0  0  0
  191.1720  177.2240  145.3260 C   0  0  0  0  0  0  0  0  0  0  0  0
  191.3210  177.4100  147.7500 O   0  0  0  0  0  1  0  0  0  0  0  0
  192.1170  175.4220  146.6610 C   0  0  0  0  0  3  0  0  0  0  0  0
  187.4340  177.5300  144.1250 C   0  0  0  0  0  2  0  0  0  0  0  0
  185.9610  177.8960  144.2140 C   0  0  0  0  0  2  0  0  0  0  0  0
  185.5380  178.0320  145.6810 C   0  0  2  0  0  3  0  0  0  0  0  0
  184.3390  178.7940  145.9280 N   0  0  0  0  0  0  0  0  0  0  0  0
  185.9270  179.3750  147.5170 C   0  0  0  0  0  1  0  0  0  0  0  0
  185.6410  179.3920  146.0930 N   0  0  0  0  0  0  0  0  0  0  0  0
  183.7470  179.4170  144.7450 C   0  0  0  0  0  2  0  0  0  0  0  0
  181.8280  179.0480  143.2570 C   0  0  0  0  0  2  0  0  0  0  0  0
  182.4840  178.7130  144.3640 C   0  0  0  0  0  3  0  0  0  0  0  0
  1 12  1  1  0  0  0
  2  8  2  0  0  0  0
  3  5  1  0  0  0  0
  3 20  1  0  0  0  0
  4  7  1  1  0  0  0
  4 11  1  0  0  0  0
  6 10  1  0  0  0  0
  7  9  1  0  0  0  0
  8  6  1  0  0  0  0
  8  4  1  0  0  0  0
  9  3  1  0  0  0  0
 10  1  1  0  0  0  0
 11  1  1  0  0  0  0
 11  5  1  1  0  0  0
 12 13  2  0  0  0  0
 12 17  1  0  0  0  0
 13 15  1  0  0  0  0
 14 19  1  0  0  0  0
 14 18  1  0  0  0  0
 15 19  2  0  0  0  0
 16 17  1  0  0  0  0
 17 14  2  0  0  0  0
 20 21  1  0  0  0  0
 22 21  1  6  0  0  0
 22 23  1  0  0  0  0
 22 25  1  0  0  0  0
 23 25  1  0  0  0  0
 25 24  1  0  0  0  0
 26 23  1  0  0  0  0
 27 28  2  0  0  0  0
 28 26  1  0  0  0  0
M  END
>  <MODEL>
2

>  <REMARK>
 VINA RESULT:      -7.5      0.606      2.012
  Name = 
  6 active torsions:
  status: ('A' for Active; 'I' for Inactive)
    1  A    between atoms: C_1  and  C_2
    2  A    between atoms: C_4  and  C_12
    3  A    between atoms: C_4  and  C_13
    4  A    between atoms: C_9  and  N_15
    5  A    between atoms: C_9  and  C_18
    6  A    between atoms: N_10  and  C_13
                            x       y       z     vdW  Elec       q    Type
                         _______ _______ _______ _____ _____    ______ ____

>  <TORSDO>
F 6

$$$$
=
 OpenBabel11052413263D

 28 31  0  0  1  0  0  0  0  0999 V2000
  188.1260  177.9830  145.3130 C   0  0  1  0  0  3  0  0  0  0  0  0
  190.9300  175.9620  147.4350 O   0  0  0  0  0  0  0  0  0  0  0  0
  190.0130  177.7120  142.5940 N   0  0  0  0  0  0  0  0  0  0  0  0
  190.3200  176.6720  145.2630 C   0  0  1  0  0  3  0  0  0  0  0  0
  188.9300  176.8810  143.1540 C   0  0  0  0  0  2  0  0  0  0  0  0
  189.5090  177.8490  147.4200 C   0  0  0  0  0  2  0  0  0  0  0  0
  191.2930  177.7120  144.6900 C   0  0  0  0  0  2  0  0  0  0  0  0
  190.2930  176.7570  146.7610 C   0  0  0  0  0  0  0  0  0  0  0  0
  190.6520  178.5640  143.5970 C   0  0  0  0  0  2  0  0  0  0  0  0
  188.0970  177.8990  146.8430 C   0  0  0  0  0  2  0  0  0  0  0  0
  188.8930  176.7930  144.6930 C   0  0  2  0  0  3  0  0  0  0  0  0
  186.7390  178.1530  144.7510 C   0  0  0  0  0  0  0  0  0  0  0  0
  186.5420  177.7980  143.4100 C   0  0  0  0  0  3  0  0  0  0  0  0
  184.3730  178.7260  144.9090 C   0  0  0  0  0  0  0  0  0  0  0  0
  185.2810  177.9030  142.8210 C   0  0  0  0  0  3  0  0  0  0  0  0
  185.8010  179.0060  146.9490 C   0  0  0  0  0  1  0  0  0  0  0  0
  185.6440  178.6290  145.5100 C   0  0  0  0  0  0  0  0  0  0  0  0
  183.2750  179.1830  145.6320 O   0  0  0  0  0  1  0  0  0  0  0  0
  184.1980  178.3640  143.5710 C   0  0  0  0  0  3  0  0  0  0  0  0
  189.3900  178.6080  141.6350 C   0  0  0  0  0  2  0  0  0  0  0  0
  188.6830  177.8140  140.5480 C   0  0  0  0  0  2  0  0  0  0  0  0
  188.8230  178.5250  139.1980 C   0  0  2  0  0  3  0  0  0  0  0  0
  187.6210  178.6280  138.4080 N   0  0  0  0  0  0  0  0  0  0  0  0
  189.3840  178.0660  137.0070 C   0  0  0  0  0  1  0  0  0  0  0  0
  188.5980  177.6010  138.1370 N   0  0  0  0  0  0  0  0  0  0  0  0
  186.4530  177.9480  138.9660 C   0  0  0  0  0  2  0  0  0  0  0  0
  184.4110  179.2190  139.4640 C   0  0  0  0  0  2  0  0  0  0  0  0
  185.1990  178.6500  138.5560 C   0  0  0  0  0  3  0  0  0  0  0  0
  1 12  1  6  0  0  0
  1 10  1  0  0  0  0
  3  5  1  0  0  0  0
  3  9  1  0  0  0  0
  4  7  1  6  0  0  0
  4  8  1  0  0  0  0
  8  6  1  0  0  0  0
  8  2  2  0  0  0  0
  9  7  1  0  0  0  0
 10  6  1  0  0  0  0
 11  5  1  6  0  0  0
 11  4  1  0  0  0  0
 11  1  1  0  0  0  0
 12 17  1  0  0  0  0
 13 12  2  0  0  0  0
 14 17  2  0  0  0  0
 14 18  1  0  0  0  0
 15 13  1  0  0  0  0
 15 19  2  0  0  0  0
 17 16  1  0  0  0  0
 19 14  1  0  0  0  0
 20  3  1  0  0  0  0
 21 20  1  0  0  0  0
 22 21  1  1  0  0  0
 23 26  1  0  0  0  0
 23 22  1  0  0  0  0
 24 25  1  0  0  0  0
 25 23  1  0  0  0  0
 25 22  1  0  0  0  0
 28 26  1  0  0  0  0
 28 27  2  0  0  0  0
M  END
>  <MODEL>
3

>  <REMARK>
 VINA RESULT:      -7.1      2.901      6.634
  Name = 
  6 active torsions:
  status: ('A' for Active; 'I' for Inactive)
    1  A    between atoms: C_1  and  C_2
    2  A    between atoms: C_4  and  C_12
    3  A    between atoms: C_4  and  C_13
    4  A    between atoms: C_9  and  N_15
    5  A    between atoms: C_9  and  C_18
    6  A    between atoms: N_10  and  C_13
                            x       y       z     vdW  Elec       q    Type
                         _______ _______ _______ _____ _____    ______ ____

>  <TORSDO>
F 6

$$$$
=
 OpenBabel11052413263D

 28 31  0  0  1  0  0  0  0  0999 V2000
  190.7420  177.1200  143.2700 C   0  0  1  0  0  3  0  0  0  0  0  0
  191.1450  176.4970  139.2830 O   0  0  0  0  0  0  0  0  0  0  0  0
  187.4420  176.9430  142.9460 N   0  0  0  0  0  0  0  0  0  0  0  0
  189.5850  176.5650  141.0590 C   0  0  1  0  0  3  0  0  0  0  0  0
  188.4780  175.9380  143.2510 C   0  0  0  0  0  2  0  0  0  0  0  0
  191.8500  177.8150  141.1120 C   0  0  0  0  0  2  0  0  0  0  0  0
  188.5930  177.7290  140.9250 C   0  0  0  0  0  2  0  0  0  0  0  0
  190.8870  176.9150  140.4010 C   0  0  0  0  0  0  0  0  0  0  0  0
  187.9760  178.1210  142.2650 C   0  0  0  0  0  2  0  0  0  0  0  0
  192.0740  177.3170  142.5380 C   0  0  0  0  0  2  0  0  0  0  0  0
  189.8210  176.1310  142.5190 C   0  0  2  0  0  3  0  0  0  0  0  0
  190.9640  176.7450  144.7120 C   0  0  0  0  0  0  0  0  0  0  0  0
  191.8520  175.6930  144.9720 C   0  0  0  0  0  3  0  0  0  0  0  0
  190.6310  177.0110  147.1140 C   0  0  0  0  0  0  0  0  0  0  0  0
  192.1300  175.3010  146.2830 C   0  0  0  0  0  3  0  0  0  0  0  0
  189.3960  178.5470  145.5670 C   0  0  0  0  0  1  0  0  0  0  0  0
  190.3390  177.4090  145.7940 C   0  0  0  0  0  0  0  0  0  0  0  0
  190.0390  177.6510  148.1990 O   0  0  0  0  0  1  0  0  0  0  0  0
  191.5220  175.9610  147.3510 C   0  0  0  0  0  3  0  0  0  0  0  0
  186.9310  177.4080  144.2250 C   0  0  0  0  0  2  0  0  0  0  0  0
  186.0300  178.6170  144.0270 C   0  0  0  0  0  2  0  0  0  0  0  0
  184.5850  178.1660  143.7870 C   0  0  2  0  0  3  0  0  0  0  0  0
  184.0300  178.4770  142.4930 N   0  0  0  0  0  0  0  0  0  0  0  0
  182.4240  178.9060  144.1130 C   0  0  0  0  0  1  0  0  0  0  0  0
  183.7400  179.3030  143.6400 N   0  0  0  0  0  0  0  0  0  0  0  0
  184.8960  179.2720  141.6230 C   0  0  0  0  0  2  0  0  0  0  0  0
  184.1960  179.3740  139.2710 C   0  0  0  0  0  2  0  0  0  0  0  0
  184.8630  178.7360  140.2280 C   0  0  0  0  0  3  0  0  0  0  0  0
  1 12  1  1  0  0  0
  2  8  2  0  0  0  0
  3  5  1  0  0  0  0
  3 20  1  0  0  0  0
  4  7  1  1  0  0  0
  4 11  1  0  0  0  0
  6 10  1  0  0  0  0
  7  9  1  0  0  0  0
  8  4  1  0  0  0  0
  8  6  1  0  0  0  0
  9  3  1  0  0  0  0
 10  1  1  0  0  0  0
 11  5  1  1  0  0  0
 11  1  1  0  0  0  0
 12 13  2  0  0  0  0
 12 17  1  0  0  0  0
 13 15  1  0  0  0  0
 14 19  1  0  0  0  0
 14 18  1  0  0  0  0
 15 19  2  0  0  0  0
 16 17  1  0  0  0  0
 17 14  2  0  0  0  0
 21 20  1  0  0  0  0
 22 21  1  6  0  0  0
 23 25  1  0  0  0  0
 23 22  1  0  0  0  0
 25 22  1  0  0  0  0
 25 24  1  0  0  0  0
 26 23  1  0  0  0  0
 27 28  2  0  0  0  0
 28 26  1  0  0  0  0
M  END
>  <MODEL>
4

>  <REMARK>
 VINA RESULT:      -7.1      1.629      2.680
  Name = 
  6 active torsions:
  status: ('A' for Active; 'I' for Inactive)
    1  A    between atoms: C_1  and  C_2
    2  A    between atoms: C_4  and  C_12
    3  A    between atoms: C_4  and  C_13
    4  A    between atoms: C_9  and  N_15
    5  A    between atoms: C_9  and  C_18
    6  A    between atoms: N_10  and  C_13
                            x       y       z     vdW  Elec       q    Type
                         _______ _______ _______ _____ _____    ______ ____

>  <TORSDO>
F 6

$$$$
=
 OpenBabel11052413263D

 28 31  0  0  1  0  0  0  0  0999 V2000
  186.5600  178.5120  144.8650 C   0  0  1  0  0  3  0  0  0  0  0  0
  187.6410  177.0910  148.5060 O   0  0  0  0  0  0  0  0  0  0  0  0
  189.3340  177.2360  143.5620 N   0  0  0  0  0  0  0  0  0  0  0  0
  188.2110  177.0990  146.2110 C   0  0  1  0  0  3  0  0  0  0  0  0
  187.9630  176.7130  143.7180 C   0  0  0  0  0  2  0  0  0  0  0  0
  186.8180  178.9690  147.3330 C   0  0  0  0  0  2  0  0  0  0  0  0
  189.5370  177.8220  145.9370 C   0  0  0  0  0  2  0  0  0  0  0  0
  187.5520  177.6680  147.4330 C   0  0  0  0  0  0  0  0  0  0  0  0
  189.6400  178.3170  144.4970 C   0  0  0  0  0  2  0  0  0  0  0  0
  185.8480  178.9320  146.1560 C   0  0  0  0  0  2  0  0  0  0  0  0
  187.2400  177.1320  145.0140 C   0  0  2  0  0  3  0  0  0  0  0  0
  185.6310  178.5910  143.6820 C   0  0  0  0  0  0  0  0  0  0  0  0
  186.2110  178.5450  142.4070 C   0  0  0  0  0  3  0  0  0  0  0  0
  183.4300  178.7250  142.6370 C   0  0  0  0  0  0  0  0  0  0  0  0
  185.4170  178.5870  141.2590 C   0  0  0  0  0  3  0  0  0  0  0  0
  183.5590  178.7260  145.1390 C   0  0  0  0  0  1  0  0  0  0  0  0
  184.2240  178.6890  143.8010 C   0  0  0  0  0  0  0  0  0  0  0  0
  182.0440  178.8130  142.7220 O   0  0  0  0  0  1  0  0  0  0  0  0
  184.0290  178.6750  141.3760 C   0  0  0  0  0  3  0  0  0  0  0  0
  189.4040  177.8150  142.2310 C   0  0  0  0  0  2  0  0  0  0  0  0
  189.6200  176.7270  141.1900 C   0  0  0  0  0  2  0  0  0  0  0  0
  190.5470  177.2340  140.0800 C   0  0  2  0  0  3  0  0  0  0  0  0
  189.9470  177.4030  138.7800 N   0  0  0  0  0  0  0  0  0  0  0  0
  192.0350  176.4260  138.5120 C   0  0  0  0  0  1  0  0  0  0  0  0
  190.7180  176.2240  139.0910 N   0  0  0  0  0  0  0  0  0  0  0  0
  188.5540  176.9690  138.6800 C   0  0  0  0  0  2  0  0  0  0  0  0
  186.5480  177.9150  137.6230 C   0  0  0  0  0  2  0  0  0  0  0  0
  187.6790  178.1180  138.2940 C   0  0  0  0  0  3  0  0  0  0  0  0
  1 12  1  6  0  0  0
  1 11  1  0  0  0  0
  1 10  1  0  0  0  0
  3  5  1  0  0  0  0
  3  9  1  0  0  0  0
  4  7  1  6  0  0  0
  4  8  1  0  0  0  0
  6  8  1  0  0  0  0
  8  2  2  0  0  0  0
  9  7  1  0  0  0  0
 10  6  1  0  0  0  0
 11  5  1  6  0  0  0
 11  4  1  0  0  0  0
 12 17  1  0  0  0  0
 13 12  2  0  0  0  0
 14 18  1  0  0  0  0
 14 17  2  0  0  0  0
 15 19  2  0  0  0  0
 15 13  1  0  0  0  0
 17 16  1  0  0  0  0
 19 14  1  0  0  0  0
 20  3  1  0  0  0  0
 21 20  1  0  0  0  0
 22 21  1  1  0  0  0
 23 25  1  0  0  0  0
 23 22  1  0  0  0  0
 24 25  1  0  0  0  0
 25 22  1  0  0  0  0
 26 23  1  0  0  0  0
 27 28  2  0  0  0  0
 28 26  1  0  0  0  0
M  END
>  <MODEL>
5

>  <REMARK>
 VINA RESULT:      -7.0      3.121      7.675
  Name = 
  6 active torsions:
  status: ('A' for Active; 'I' for Inactive)
    1  A    between atoms: C_1  and  C_2
    2  A    between atoms: C_4  and  C_12
    3  A    between atoms: C_4  and  C_13
    4  A    between atoms: C_9  and  N_15
    5  A    between atoms: C_9  and  C_18
    6  A    between atoms: N_10  and  C_13
                            x       y       z     vdW  Elec       q    Type
                         _______ _______ _______ _____ _____    ______ ____

>  <TORSDO>
F 6

$$$$
=
 OpenBabel11052413263D

 28 31  0  0  1  0  0  0  0  0999 V2000
  190.5600  177.5280  142.8740 C   0  0  1  0  0  3  0  0  0  0  0  0
  191.2690  176.1990  139.1090 O   0  0  0  0  0  0  0  0  0  0  0  0
  187.3100  177.6440  142.2030 N   0  0  0  0  0  0  0  0  0  0  0  0
  189.5640  176.7300  140.6590 C   0  0  1  0  0  3  0  0  0  0  0  0
  188.1810  176.6030  142.7800 C   0  0  0  0  0  2  0  0  0  0  0  0
  191.9480  177.7280  140.7770 C   0  0  0  0  0  2  0  0  0  0  0  0
  188.7380  177.9510  140.2300 C   0  0  0  0  0  2  0  0  0  0  0  0
  190.9560  176.8260  140.1100 C   0  0  0  0  0  0  0  0  0  0  0  0
  188.0470  178.6280  141.4110 C   0  0  0  0  0  2  0  0  0  0  0  0
  191.9700  177.4590  142.2790 C   0  0  0  0  0  2  0  0  0  0  0  0
  189.6020  176.5280  142.1870 C   0  0  2  0  0  3  0  0  0  0  0  0
  190.5930  177.3820  144.3730 C   0  0  0  0  0  0  0  0  0  0  0  0
  189.8780  178.3220  145.1260 C   0  0  0  0  0  3  0  0  0  0  0  0
  191.2400  176.2680  146.4450 C   0  0  0  0  0  0  0  0  0  0  0  0
  189.8390  178.2410  146.5190 C   0  0  0  0  0  3  0  0  0  0  0  0
  192.0550  175.3100  144.2780 C   0  0  0  0  0  1  0  0  0  0  0  0
  191.2900  176.3450  145.0390 C   0  0  0  0  0  0  0  0  0  0  0  0
  191.9070  175.2550  147.1270 O   0  0  0  0  0  1  0  0  0  0  0  0
  190.5180  177.2140  147.1760 C   0  0  0  0  0  3  0  0  0  0  0  0
  186.7380  178.3700  143.3240 C   0  0  0  0  0  2  0  0  0  0  0  0
  185.3300  177.8740  143.6150 C   0  0  0  0  0  2  0  0  0  0  0  0
  184.3750  179.0610  143.7830 C   0  0  2  0  0  3  0  0  0  0  0  0
  183.9910  179.3790  145.1360 N   0  0  0  0  0  0  0  0  0  0  0  0
  182.1150  179.5270  143.7780 C   0  0  0  0  0  1  0  0  0  0  0  0
  183.1200  178.6080  144.2830 N   0  0  0  0  0  0  0  0  0  0  0  0
  184.4910  178.4560  146.1550 C   0  0  0  0  0  2  0  0  0  0  0  0
  186.6060  178.2530  147.3870 C   0  0  0  0  0  2  0  0  0  0  0  0
  185.6800  179.0400  146.8460 C   0  0  0  0  0  3  0  0  0  0  0  0
  1 12  1  1  0  0  0
  2  8  2  0  0  0  0
  3  5  1  0  0  0  0
  3 20  1  0  0  0  0
  4  7  1  1  0  0  0
  4 11  1  0  0  0  0
  6 10  1  0  0  0  0
  7  9  1  0  0  0  0
  8  4  1  0  0  0  0
  8  6  1  0  0  0  0
  9  3  1  0  0  0  0
 10  1  1  0  0  0  0
 11  5  1  1  0  0  0
 11  1  1  0  0  0  0
 12 17  2  0  0  0  0
 12 13  1  0  0  0  0
 13 15  2  0  0  0  0
 14 18  1  0  0  0  0
 14 19  2  0  0  0  0
 15 19  1  0  0  0  0
 16 17  1  0  0  0  0
 17 14  1  0  0  0  0
 20 21  1  0  0  0  0
 22 21  1  1  0  0  0
 22 25  1  0  0  0  0
 22 23  1  0  0  0  0
 23 26  1  0  0  0  0
 24 25  1  0  0  0  0
 25 23  1  0  0  0  0
 26 28  1  0  0  0  0
 28 27  2  0  0  0  0
M  END
>  <MODEL>
6

>  <REMARK>
 VINA RESULT:      -6.8      0.968      1.669
  Name = 
  6 active torsions:
  status: ('A' for Active; 'I' for Inactive)
    1  A    between atoms: C_1  and  C_2
    2  A    between atoms: C_4  and  C_12
    3  A    between atoms: C_4  and  C_13
    4  A    between atoms: C_9  and  N_15
    5  A    between atoms: C_9  and  C_18
    6  A    between atoms: N_10  and  C_13
                            x       y       z     vdW  Elec       q    Type
                         _______ _______ _______ _____ _____    ______ ____

>  <TORSDO>
F 6

$$$$
=
 OpenBabel11052413263D

 28 31  0  0  1  0  0  0  0  0999 V2000
  186.5400  178.5160  144.9270 C   0  0  1  0  0  3  0  0  0  0  0  0
  187.9300  177.0940  148.4620 O   0  0  0  0  0  0  0  0  0  0  0  0
  189.2260  177.2990  143.4010 N   0  0  0  0  0  0  0  0  0  0  0  0
  188.3170  177.1260  146.1290 C   0  0  1  0  0  3  0  0  0  0  0  0
  187.8820  176.7500  143.6600 C   0  0  0  0  0  2  0  0  0  0  0  0
  186.9840  178.9630  147.3710 C   0  0  0  0  0  2  0  0  0  0  0  0
  189.6050  177.8760  145.7570 C   0  0  0  0  0  2  0  0  0  0  0  0
  187.7470  177.6750  147.4030 C   0  0  0  0  0  0  0  0  0  0  0  0
  189.5850  178.3810  144.3160 C   0  0  0  0  0  2  0  0  0  0  0  0
  185.9250  178.9150  146.2730 C   0  0  0  0  0  2  0  0  0  0  0  0
  187.2560  177.1480  145.0120 C   0  0  2  0  0  3  0  0  0  0  0  0
  185.5200  178.5840  143.8210 C   0  0  0  0  0  0  0  0  0  0  0  0
  186.0000  178.5780  142.5040 C   0  0  0  0  0  3  0  0  0  0  0  0
  183.2420  178.6650  142.9520 C   0  0  0  0  0  0  0  0  0  0  0  0
  185.1180  178.6140  141.4230 C   0  0  0  0  0  3  0  0  0  0  0  0
  183.5640  178.6280  145.4370 C   0  0  0  0  0  1  0  0  0  0  0  0
  184.1250  178.6350  144.0500 C   0  0  0  0  0  0  0  0  0  0  0  0
  181.8640  178.7060  143.1460 O   0  0  0  0  0  1  0  0  0  0  0  0
  183.7410  178.6550  141.6480 C   0  0  0  0  0  3  0  0  0  0  0  0
  189.1810  177.8870  142.0730 C   0  0  0  0  0  2  0  0  0  0  0  0
  190.0040  177.0590  141.0980 C   0  0  0  0  0  2  0  0  0  0  0  0
  189.3430  177.0600  139.7150 C   0  0  2  0  0  3  0  0  0  0  0  0
  190.2220  176.8440  138.5920 N   0  0  0  0  0  0  0  0  0  0  0  0
  188.7260  178.5340  138.0510 C   0  0  0  0  0  1  0  0  0  0  0  0
  189.8030  178.1760  138.9580 N   0  0  0  0  0  0  0  0  0  0  0  0
  191.6430  176.7540  138.9260 C   0  0  0  0  0  2  0  0  0  0  0  0
  192.4130  174.8390  137.5950 C   0  0  0  0  0  2  0  0  0  0  0  0
  192.4060  176.1550  137.7890 C   0  0  0  0  0  3  0  0  0  0  0  0
  1 12  1  6  0  0  0
  1 11  1  0  0  0  0
  1 10  1  0  0  0  0
  3  5  1  0  0  0  0
  3  9  1  0  0  0  0
  4  7  1  6  0  0  0
  4  8  1  0  0  0  0
  6  8  1  0  0  0  0
  8  2  2  0  0  0  0
  9  7  1  0  0  0  0
 10  6  1  0  0  0  0
 11  5  1  6  0  0  0
 11  4  1  0  0  0  0
 12 17  1  0  0  0  0
 13 12  2  0  0  0  0
 14 18  1  0  0  0  0
 14 17  2  0  0  0  0
 15 19  2  0  0  0  0
 15 13  1  0  0  0  0
 17 16  1  0  0  0  0
 19 14  1  0  0  0  0
 20  3  1  0  0  0  0
 21 20  1  0  0  0  0
 22 21  1  1  0  0  0
 23 26  1  0  0  0  0
 23 25  1  0  0  0  0
 23 22  1  0  0  0  0
 24 25  1  0  0  0  0
 25 22  1  0  0  0  0
 27 28  2  0  0  0  0
 28 26  1  0  0  0  0
M  END
>  <MODEL>
7

>  <REMARK>
 VINA RESULT:      -6.7      3.130      7.790
  Name = 
  6 active torsions:
  status: ('A' for Active; 'I' for Inactive)
    1  A    between atoms: C_1  and  C_2
    2  A    between atoms: C_4  and  C_12
    3  A    between atoms: C_4  and  C_13
    4  A    between atoms: C_9  and  N_15
    5  A    between atoms: C_9  and  C_18
    6  A    between atoms: N_10  and  C_13
                            x       y       z     vdW  Elec       q    Type
                         _______ _______ _______ _____ _____    ______ ____

>  <TORSDO>
F 6

$$$$
=
 OpenBabel11052413263D

 28 31  0  0  1  0  0  0  0  0999 V2000
  189.1320  177.5270  144.6900 C   0  0  1  0  0  3  0  0  0  0  0  0
  192.3230  175.0880  145.2460 O   0  0  0  0  0  0  0  0  0  0  0  0
  189.5140  177.2510  141.4030 N   0  0  0  0  0  0  0  0  0  0  0  0
  190.8790  176.0040  143.6130 C   0  0  1  0  0  3  0  0  0  0  0  0
  188.7150  176.5000  142.3890 C   0  0  0  0  0  2  0  0  0  0  0  0
  191.2970  177.1070  145.9150 C   0  0  0  0  0  2  0  0  0  0  0  0
  191.6000  176.9750  142.6680 C   0  0  0  0  0  2  0  0  0  0  0  0
  191.5510  175.9880  144.9530 C   0  0  0  0  0  0  0  0  0  0  0  0
  190.6410  177.9620  142.0070 C   0  0  0  0  0  2  0  0  0  0  0  0
  189.7960  177.3410  146.0590 C   0  0  0  0  0  2  0  0  0  0  0  0
  189.3760  176.3100  143.7690 C   0  0  2  0  0  3  0  0  0  0  0  0
  187.6740  177.8770  144.8360 C   0  0  0  0  0  0  0  0  0  0  0  0
  186.9120  177.9540  143.6630 C   0  0  0  0  0  3  0  0  0  0  0  0
  185.6720  178.4000  146.1290 C   0  0  0  0  0  0  0  0  0  0  0  0
  185.5480  178.2490  143.7150 C   0  0  0  0  0  3  0  0  0  0  0  0
  187.8180  178.0230  147.3650 C   0  0  0  0  0  1  0  0  0  0  0  0
  187.0500  178.1090  146.0850 C   0  0  0  0  0  0  0  0  0  0  0  0
  185.0280  178.6240  147.3420 O   0  0  0  0  0  1  0  0  0  0  0  0
  184.9300  178.4690  144.9470 C   0  0  0  0  0  3  0  0  0  0  0  0
  188.6370  178.2710  140.8540 C   0  0  0  0  0  2  0  0  0  0  0  0
  188.8300  178.3820  139.3490 C   0  0  0  0  0  2  0  0  0  0  0  0
  188.3030  177.1220  138.6540 C   0  0  2  0  0  3  0  0  0  0  0  0
  189.2500  176.4050  137.8370 N   0  0  0  0  0  0  0  0  0  0  0  0
  187.2190  176.4930  136.7170 C   0  0  0  0  0  1  0  0  0  0  0  0
  188.2980  177.3110  137.2430 N   0  0  0  0  0  0  0  0  0  0  0  0
  190.5610  177.0400  137.7050 C   0  0  0  0  0  2  0  0  0  0  0  0
  192.8900  176.3770  138.1130 C   0  0  0  0  0  2  0  0  0  0  0  0
  191.6020  176.2340  138.4110 C   0  0  0  0  0  3  0  0  0  0  0  0
  1 12  1  1  0  0  0
  1 10  1  0  0  0  0
  3  9  1  0  0  0  0
  3  5  1  0  0  0  0
  4  7  1  6  0  0  0
  4 11  1  0  0  0  0
  4  8  1  0  0  0  0
  6 10  1  0  0  0  0
  8  2  2  0  0  0  0
  8  6  1  0  0  0  0
  9  7  1  0  0  0  0
 11  5  1  6  0  0  0
 11  1  1  0  0  0  0
 12 17  1  0  0  0  0
 13 15  1  0  0  0  0
 13 12  2  0  0  0  0
 14 18  1  0  0  0  0
 15 19  2  0  0  0  0
 17 14  2  0  0  0  0
 17 16  1  0  0  0  0
 19 14  1  0  0  0  0
 20  3  1  0  0  0  0
 21 20  1  0  0  0  0
 22 21  1  1  0  0  0
 23 22  1  0  0  0  0
 24 25  1  0  0  0  0
 25 23  1  0  0  0  0
 25 22  1  0  0  0  0
 26 23  1  0  0  0  0
 26 28  1  0  0  0  0
 27 28  2  0  0  0  0
M  END
>  <MODEL>
8

>  <REMARK>
 VINA RESULT:      -6.7      2.627      6.451
  Name = 
  6 active torsions:
  status: ('A' for Active; 'I' for Inactive)
    1  A    between atoms: C_1  and  C_2
    2  A    between atoms: C_4  and  C_12
    3  A    between atoms: C_4  and  C_13
    4  A    between atoms: C_9  and  N_15
    5  A    between atoms: C_9  and  C_18
    6  A    between atoms: N_10  and  C_13
                            x       y       z     vdW  Elec       q    Type
                         _______ _______ _______ _____ _____    ______ ____

>  <TORSDO>
F 6

$$$$
=
 OpenBabel11052413263D

 28 31  0  0  1  0  0  0  0  0999 V2000
  187.6930  177.7720  141.6070 C   0  0  1  0  0  3  0  0  0  0  0  0
  189.0670  179.3500  138.1330 O   0  0  0  0  0  0  0  0  0  0  0  0
  190.8210  177.2150  142.5710 N   0  0  0  0  0  0  0  0  0  0  0  0
  189.7250  178.5110  140.2440 C   0  0  1  0  0  3  0  0  0  0  0  0
  189.8950  178.3460  142.7670 C   0  0  0  0  0  2  0  0  0  0  0  0
  187.4990  177.8660  139.0930 C   0  0  0  0  0  2  0  0  0  0  0  0
  190.5210  177.2030  140.1350 C   0  0  0  0  0  2  0  0  0  0  0  0
  188.7800  178.6420  139.0860 C   0  0  0  0  0  0  0  0  0  0  0  0
  190.4680  176.3830  141.4210 C   0  0  0  0  0  2  0  0  0  0  0  0
  186.7720  178.0710  140.4190 C   0  0  0  0  0  2  0  0  0  0  0  0
  188.9640  178.6520  141.5770 C   0  0  2  0  0  3  0  0  0  0  0  0
  186.9440  177.8580  142.9110 C   0  0  0  0  0  0  0  0  0  0  0  0
  187.4770  177.1620  144.0040 C   0  0  0  0  0  3  0  0  0  0  0  0
  185.1410  178.6600  144.3460 C   0  0  0  0  0  0  0  0  0  0  0  0
  186.8550  177.2110  145.2530 C   0  0  0  0  0  3  0  0  0  0  0  0
  185.1590  179.3820  141.9470 C   0  0  0  0  0  1  0  0  0  0  0  0
  185.7570  178.6110  143.0800 C   0  0  0  0  0  0  0  0  0  0  0  0
  183.9780  179.3990  144.5450 O   0  0  0  0  0  1  0  0  0  0  0  0
  185.6900  177.9600  145.4230 C   0  0  0  0  0  3  0  0  0  0  0  0
  190.6890  176.3670  143.7440 C   0  0  0  0  0  2  0  0  0  0  0  0
  191.2080  177.0850  144.9790 C   0  0  0  0  0  2  0  0  0  0  0  0
  191.3440  176.1010  146.1460 C   0  0  2  0  0  3  0  0  0  0  0  0
  190.5290  176.3730  147.3040 N   0  0  0  0  0  0  0  0  0  0  0  0
  192.6470  175.7440  148.0160 C   0  0  0  0  0  1  0  0  0  0  0  0
  191.9200  176.7570  147.2710 N   0  0  0  0  0  0  0  0  0  0  0  0
  189.7590  177.6140  147.2420 C   0  0  0  0  0  2  0  0  0  0  0  0
  187.7600  178.5040  148.3580 C   0  0  0  0  0  2  0  0  0  0  0  0
  188.8200  177.7020  148.4020 C   0  0  0  0  0  3  0  0  0  0  0  0
  1 12  1  1  0  0  0
  2  8  2  0  0  0  0
  3  5  1  0  0  0  0
  3 20  1  0  0  0  0
  4  7  1  1  0  0  0
  4 11  1  0  0  0  0
  6 10  1  0  0  0  0
  7  9  1  0  0  0  0
  8  6  1  0  0  0  0
  8  4  1  0  0  0  0
  9  3  1  0  0  0  0
 10  1  1  0  0  0  0
 11  1  1  0  0  0  0
 11  5  1  1  0  0  0
 12 17  2  0  0  0  0
 12 13  1  0  0  0  0
 13 15  2  0  0  0  0
 14 18  1  0  0  0  0
 14 19  2  0  0  0  0
 15 19  1  0  0  0  0
 16 17  1  0  0  0  0
 17 14  1  0  0  0  0
 20 21  1  0  0  0  0
 22 21  1  6  0  0  0
 22 25  1  0  0  0  0
 22 23  1  0  0  0  0
 25 23  1  0  0  0  0
 25 24  1  0  0  0  0
 26 23  1  0  0  0  0
 26 28  1  0  0  0  0
 27 28  2  0  0  0  0
M  END
>  <MODEL>
9

>  <REMARK>
 VINA RESULT:      -6.6      2.849      5.383
  Name = 
  6 active torsions:
  status: ('A' for Active; 'I' for Inactive)
    1  A    between atoms: C_1  and  C_2
    2  A    between atoms: C_4  and  C_12
    3  A    between atoms: C_4  and  C_13
    4  A    between atoms: C_9  and  N_15
    5  A    between atoms: C_9  and  C_18
    6  A    between atoms: N_10  and  C_13
                            x       y       z     vdW  Elec       q    Type
                         _______ _______ _______ _____ _____    ______ ____

>  <TORSDO>
F 6

$$$$
