=
 OpenBabel11052417043D

 32 36  0  0  0  0  0  0  0  0999 V2000
  189.0560  177.2700  146.6040 C   0  0  0  0  0  0  0  0  0  0  0  0
  185.4930  178.3280  143.2160 C   0  0  0  0  0  0  0  0  0  0  0  0
  183.0250  178.6800  143.2340 C   0  0  0  0  0  0  0  0  0  0  0  0
  181.8550  178.9590  142.5130 C   0  0  0  0  0  0  0  0  0  0  0  0
  186.6750  177.8470  145.2340 C   0  0  0  0  0  0  0  0  0  0  0  0
  187.8930  177.9620  143.1570 C   0  0  0  0  0  3  0  0  0  0  0  0
  179.5490  179.5160  141.0640 C   0  0  0  0  0  3  0  0  0  0  0  0
  189.0750  177.4730  145.2150 C   0  0  0  0  0  3  0  0  0  0  0  0
  186.6990  178.2530  142.4750 C   0  0  0  0  0  0  0  0  0  0  0  0
  186.6960  178.4590  141.0800 C   0  0  0  0  0  0  0  0  0  0  0  0
  184.2850  178.8170  141.1520 C   0  0  0  0  0  0  0  0  0  0  0  0
  179.4890  179.3170  142.4070 N   0  0  0  0  0  0  0  0  0  0  0  0
  187.8420  177.3580  147.2980 C   0  0  0  0  0  3  0  0  0  0  0  0
  187.8900  177.7590  144.5320 C   0  0  0  0  0  0  0  0  0  0  0  0
  180.6030  179.0430  143.1380 C   0  0  0  0  0  3  0  0  0  0  0  0
  186.6550  177.6460  146.6170 C   0  0  0  0  0  3  0  0  0  0  0  0
  185.4820  178.7680  140.4200 C   0  0  0  0  0  0  0  0  0  0  0  0
  183.1260  179.0890  140.4920 N   0  0  0  0  0  2  0  0  0  0  0  0
  185.5270  178.1240  144.5650 N   0  0  0  0  0  0  0  0  0  0  0  0
  182.9500  178.4990  144.4810 O   0  0  0  0  0  0  0  0  0  0  0  0
  180.7730  179.4420  140.3960 C   0  0  0  0  0  3  0  0  0  0  0  0
  184.2720  178.6050  142.5550 C   0  0  0  0  0  0  0  0  0  0  0  0
  181.9300  179.1620  141.1240 C   0  0  0  0  0  0  0  0  0  0  0  0
  188.9070  178.1530  139.7360 N   0  0  0  0  0  0  0  0  0  0  0  0
  187.9260  178.2860  140.3350 C   0  0  0  0  0  0  0  0  0  0  0  0
  185.2920  178.0070  138.0410 C   0  0  0  0  0  1  0  0  0  0  0  0
  185.3990  179.0140  139.0370 O   0  0  0  0  0  0  0  0  0  0  0  0
  190.2210  176.9820  147.3190 O   0  0  0  0  0  0  0  0  0  0  0  0
  191.5110  176.9930  146.7190 C   0  0  0  0  0  2  0  0  0  0  0  0
  192.2410  175.7520  147.0860 C   0  0  0  0  0  0  0  0  0  0  0  0
  192.3920  174.8370  146.2370 O   0  0  0  0  0  0  0  0  0  0  0  0
  192.7940  175.6210  148.3520 O   0  0  0  0  0  1  0  0  0  0  0  0
  1 13  1  0  0  0  0
  1 28  1  0  0  0  0
  2 19  2  0  0  0  0
  3 20  2  0  0  0  0
  4 15  1  0  0  0  0
  4  3  1  0  0  0  0
  5 16  1  0  0  0  0
  6 14  1  0  0  0  0
  7 12  1  0  0  0  0
  8  1  2  0  0  0  0
  9  6  2  0  0  0  0
  9  2  1  0  0  0  0
 10  9  1  0  0  0  0
 11 22  2  0  0  0  0
 12 15  2  0  0  0  0
 14  8  1  0  0  0  0
 14  5  2  0  0  0  0
 16 13  2  0  0  0  0
 17 10  2  0  0  0  0
 17 11  1  0  0  0  0
 18 23  1  0  0  0  0
 18 11  1  0  0  0  0
 19  5  1  0  0  0  0
 21  7  2  0  0  0  0
 21 23  1  0  0  0  0
 22  2  1  0  0  0  0
 22  3  1  0  0  0  0
 23  4  2  0  0  0  0
 24 25  3  0  0  0  0
 25 10  1  0  0  0  0
 26 27  1  0  0  0  0
 27 17  1  0  0  0  0
 29 30  1  0  0  0  0
 29 28  1  0  0  0  0
 30 32  1  0  0  0  0
 31 30  2  0  0  0  0
M  END
>  <MODEL>
1

>  <REMARK>
 VINA RESULT:      -9.6      0.000      0.000
  Name = 
  5 active torsions:
  status: ('A' for Active; 'I' for Inactive)
    1  A    between atoms: C_1  and  C_10
    2  A    between atoms: C_2  and  O_24
    3  A    between atoms: C_10  and  O_24
    4  A    between atoms: C_13  and  C_15
    5  A    between atoms: O_25  and  C_26
                            x       y       z     vdW  Elec       q    Type
                         _______ _______ _______ _____ _____    ______ ____

>  <TORSDO>
F 5

$$$$
=
 OpenBabel11052417043D

 32 36  0  0  0  0  0  0  0  0999 V2000
  181.8620  179.1040  142.2620 C   0  0  0  0  0  0  0  0  0  0  0  0
  186.6690  178.0190  143.2630 C   0  0  0  0  0  0  0  0  0  0  0  0
  188.0240  177.5020  145.2910 C   0  0  0  0  0  0  0  0  0  0  0  0
  189.2760  177.1900  145.8410 C   0  0  0  0  0  0  0  0  0  0  0  0
  184.3280  178.4540  143.4340 C   0  0  0  0  0  0  0  0  0  0  0  0
  185.3870  178.5490  141.2700 C   0  0  0  0  0  3  0  0  0  0  0  0
  191.7670  176.5690  146.9090 C   0  0  0  0  0  3  0  0  0  0  0  0
  183.0120  178.9890  141.4640 C   0  0  0  0  0  3  0  0  0  0  0  0
  186.6190  178.2210  141.8610 C   0  0  0  0  0  0  0  0  0  0  0  0
  187.7860  178.1010  141.0770 C   0  0  0  0  0  0  0  0  0  0  0  0
  189.0640  177.5780  143.0870 C   0  0  0  0  0  0  0  0  0  0  0  0
  190.6770  176.6810  147.7150 N   0  0  0  0  0  0  0  0  0  0  0  0
  181.9570  178.8920  143.6430 C   0  0  0  0  0  3  0  0  0  0  0  0
  184.2400  178.6660  142.0470 C   0  0  0  0  0  0  0  0  0  0  0  0
  189.4490  176.9840  147.2160 C   0  0  0  0  0  3  0  0  0  0  0  0
  183.1840  178.5680  144.2290 C   0  0  0  0  0  3  0  0  0  0  0  0
  189.0120  177.7530  141.6950 C   0  0  0  0  0  0  0  0  0  0  0  0
  190.2580  177.2700  143.6620 N   0  0  0  0  0  2  0  0  0  0  0  0
  185.5240  178.1420  143.9950 N   0  0  0  0  0  0  0  0  0  0  0  0
  187.0240  177.6010  146.0550 O   0  0  0  0  0  0  0  0  0  0  0  0
  191.6450  176.7660  145.5320 C   0  0  0  0  0  3  0  0  0  0  0  0
  187.9000  177.7030  143.8880 C   0  0  0  0  0  0  0  0  0  0  0  0
  190.3940  177.0780  144.9970 C   0  0  0  0  0  0  0  0  0  0  0  0
  187.6780  178.6490  138.5330 N   0  0  0  0  0  0  0  0  0  0  0  0
  187.7230  178.4020  139.6620 C   0  0  0  0  0  0  0  0  0  0  0  0
  190.4560  176.5530  140.0370 C   0  0  0  0  0  1  0  0  0  0  0  0
  190.2130  177.5870  140.9820 O   0  0  0  0  0  0  0  0  0  0  0  0
  180.6180  179.4260  141.7130 O   0  0  0  0  0  0  0  0  0  0  0  0
  180.0860  178.7570  140.5760 C   0  0  0  0  0  2  0  0  0  0  0  0
  179.8410  177.3290  140.9090 C   0  0  0  0  0  0  0  0  0  0  0  0
  179.0010  177.0240  141.7950 O   0  0  0  0  0  1  0  0  0  0  0  0
  180.5070  176.3300  140.2130 O   0  0  0  0  0  0  0  0  0  0  0  0
  1 13  1  0  0  0  0
  2 22  1  0  0  0  0
  2 19  2  0  0  0  0
  3  4  1  0  0  0  0
  3 20  2  0  0  0  0
  4 15  1  0  0  0  0
  5 19  1  0  0  0  0
  5 16  1  0  0  0  0
  6  9  2  0  0  0  0
  6 14  1  0  0  0  0
  7 12  1  0  0  0  0
  8 14  1  0  0  0  0
  8  1  2  0  0  0  0
  9  2  1  0  0  0  0
 10 17  2  0  0  0  0
 10  9  1  0  0  0  0
 11 18  1  0  0  0  0
 11 22  2  0  0  0  0
 13 16  2  0  0  0  0
 14  5  2  0  0  0  0
 15 12  2  0  0  0  0
 17 11  1  0  0  0  0
 18 23  1  0  0  0  0
 21  7  2  0  0  0  0
 22  3  1  0  0  0  0
 23 21  1  0  0  0  0
 23  4  2  0  0  0  0
 24 25  3  0  0  0  0
 25 10  1  0  0  0  0
 26 27  1  0  0  0  0
 27 17  1  0  0  0  0
 28  1  1  0  0  0  0
 29 30  1  0  0  0  0
 29 28  1  0  0  0  0
 30 31  1  0  0  0  0
 32 30  2  0  0  0  0
M  END
>  <MODEL>
2

>  <REMARK>
 VINA RESULT:      -9.5      2.673      8.214
  Name = 
  5 active torsions:
  status: ('A' for Active; 'I' for Inactive)
    1  A    between atoms: C_1  and  C_10
    2  A    between atoms: C_2  and  O_24
    3  A    between atoms: C_10  and  O_24
    4  A    between atoms: C_13  and  C_15
    5  A    between atoms: O_25  and  C_26
                            x       y       z     vdW  Elec       q    Type
                         _______ _______ _______ _____ _____    ______ ____

>  <TORSDO>
F 5

$$$$
=
 OpenBabel11052417043D

 32 36  0  0  0  0  0  0  0  0999 V2000
  183.0590  178.7230  143.7420 C   0  0  0  0  0  0  0  0  0  0  0  0
  187.9190  177.8940  142.7470 C   0  0  0  0  0  0  0  0  0  0  0  0
  189.3180  177.5540  140.7120 C   0  0  0  0  0  0  0  0  0  0  0  0
  190.5870  177.3160  140.1620 C   0  0  0  0  0  0  0  0  0  0  0  0
  185.5680  178.2700  142.5670 C   0  0  0  0  0  0  0  0  0  0  0  0
  186.5820  178.1910  144.7520 C   0  0  0  0  0  3  0  0  0  0  0  0
  193.1100  176.8450  139.0960 C   0  0  0  0  0  3  0  0  0  0  0  0
  184.1980  178.5700  144.5500 C   0  0  0  0  0  3  0  0  0  0  0  0
  187.8370  177.9670  144.1600 C   0  0  0  0  0  0  0  0  0  0  0  0
  188.9930  177.8110  144.9530 C   0  0  0  0  0  0  0  0  0  0  0  0
  190.3220  177.5060  142.9320 C   0  0  0  0  0  0  0  0  0  0  0  0
  192.0300  176.9790  138.2810 N   0  0  0  0  0  0  0  0  0  0  0  0
  183.1870  178.6470  142.3480 C   0  0  0  0  0  3  0  0  0  0  0  0
  185.4460  178.3440  143.9660 C   0  0  0  0  0  0  0  0  0  0  0  0
  190.7850  177.2090  138.7790 C   0  0  0  0  0  3  0  0  0  0  0  0
  184.4370  178.4230  141.7610 C   0  0  0  0  0  3  0  0  0  0  0  0
  190.2470  177.6030  144.3310 C   0  0  0  0  0  0  0  0  0  0  0  0
  191.5340  177.2790  142.3570 N   0  0  0  0  0  2  0  0  0  0  0  0
  186.7840  178.0490  142.0050 N   0  0  0  0  0  0  0  0  0  0  0  0
  188.3270  177.6760  139.9390 O   0  0  0  0  0  0  0  0  0  0  0  0
  192.9620  176.9440  140.4810 C   0  0  0  0  0  3  0  0  0  0  0  0
  189.1670  177.6540  142.1220 C   0  0  0  0  0  0  0  0  0  0  0  0
  191.6950  177.1800  141.0150 C   0  0  0  0  0  0  0  0  0  0  0  0
  188.7660  177.7960  147.5490 N   0  0  0  0  0  0  0  0  0  0  0  0
  188.8650  177.7990  146.3960 C   0  0  0  0  0  0  0  0  0  0  0  0
  191.7780  176.3530  145.8690 C   0  0  0  0  0  1  0  0  0  0  0  0
  191.4490  177.4650  145.0490 O   0  0  0  0  0  0  0  0  0  0  0  0
  181.7950  178.9500  144.2920 O   0  0  0  0  0  0  0  0  0  0  0  0
  180.7100  179.4650  143.5310 C   0  0  0  0  0  2  0  0  0  0  0  0
  179.5630  178.5220  143.5980 C   0  0  0  0  0  0  0  0  0  0  0  0
  178.9720  178.3260  144.6900 O   0  0  0  0  0  1  0  0  0  0  0  0
  179.1180  177.8900  142.4450 O   0  0  0  0  0  0  0  0  0  0  0  0
  1 28  1  0  0  0  0
  1  8  1  0  0  0  0
  2  9  1  0  0  0  0
  3 22  1  0  0  0  0
  4  3  1  0  0  0  0
  4 23  1  0  0  0  0
  5 14  1  0  0  0  0
  7 21  1  0  0  0  0
  9  6  2  0  0  0  0
  9 10  1  0  0  0  0
 10 25  1  0  0  0  0
 11 17  1  0  0  0  0
 12 15  1  0  0  0  0
 12  7  2  0  0  0  0
 13  1  2  0  0  0  0
 14  8  2  0  0  0  0
 14  6  1  0  0  0  0
 15  4  2  0  0  0  0
 16 13  1  0  0  0  0
 16  5  2  0  0  0  0
 17 10  2  0  0  0  0
 17 27  1  0  0  0  0
 18 11  1  0  0  0  0
 19  5  1  0  0  0  0
 19  2  2  0  0  0  0
 20  3  2  0  0  0  0
 21 23  2  0  0  0  0
 22  2  1  0  0  0  0
 22 11  2  0  0  0  0
 23 18  1  0  0  0  0
 25 24  3  0  0  0  0
 27 26  1  0  0  0  0
 29 30  1  0  0  0  0
 29 28  1  0  0  0  0
 30 31  1  0  0  0  0
 32 30  2  0  0  0  0
M  END
>  <MODEL>
3

>  <REMARK>
 VINA RESULT:      -9.0      2.666      8.709
  Name = 
  5 active torsions:
  status: ('A' for Active; 'I' for Inactive)
    1  A    between atoms: C_1  and  C_10
    2  A    between atoms: C_2  and  O_24
    3  A    between atoms: C_10  and  O_24
    4  A    between atoms: C_13  and  C_15
    5  A    between atoms: O_25  and  C_26
                            x       y       z     vdW  Elec       q    Type
                         _______ _______ _______ _____ _____    ______ ____

>  <TORSDO>
F 5

$$$$
=
 OpenBabel11052417043D

 32 36  0  0  0  0  0  0  0  0999 V2000
  192.3860  176.9970  139.4510 C   0  0  0  0  0  0  0  0  0  0  0  0
  188.6720  177.6310  142.7820 C   0  0  0  0  0  0  0  0  0  0  0  0
  186.2590  178.2530  142.7070 C   0  0  0  0  0  0  0  0  0  0  0  0
  185.0670  178.4960  143.4060 C   0  0  0  0  0  0  0  0  0  0  0  0
  189.9590  177.4770  140.7770 C   0  0  0  0  0  0  0  0  0  0  0  0
  191.0270  177.0520  142.8960 C   0  0  0  0  0  3  0  0  0  0  0  0
  182.7170  178.9720  144.8120 C   0  0  0  0  0  3  0  0  0  0  0  0
  192.3180  176.9020  140.8510 C   0  0  0  0  0  3  0  0  0  0  0  0
  189.8090  177.2910  143.5560 C   0  0  0  0  0  0  0  0  0  0  0  0
  189.7200  177.2010  144.9610 C   0  0  0  0  0  0  0  0  0  0  0  0
  187.3570  177.7910  144.8330 C   0  0  0  0  0  0  0  0  0  0  0  0
  182.7460  179.0820  143.4570 N   0  0  0  0  0  0  0  0  0  0  0  0
  191.2350  177.3330  138.7250 C   0  0  0  0  0  3  0  0  0  0  0  0
  191.1100  177.1420  141.5110 C   0  0  0  0  0  0  0  0  0  0  0  0
  183.8830  178.8550  142.7470 C   0  0  0  0  0  3  0  0  0  0  0  0
  190.0250  177.5710  139.3850 C   0  0  0  0  0  3  0  0  0  0  0  0
  188.4770  177.4300  145.5990 C   0  0  0  0  0  0  0  0  0  0  0  0
  186.1800  178.0330  145.4710 N   0  0  0  0  0  2  0  0  0  0  0  0
  188.7890  177.7100  141.4250 N   0  0  0  0  0  0  0  0  0  0  0  0
  186.2660  178.3600  141.4490 O   0  0  0  0  0  0  0  0  0  0  0  0
  183.8710  178.6170  145.5130 C   0  0  0  0  0  3  0  0  0  0  0  0
  187.4350  177.8920  143.4200 C   0  0  0  0  0  0  0  0  0  0  0  0
  185.0510  178.3790  144.8060 C   0  0  0  0  0  0  0  0  0  0  0  0
  191.8780  176.7330  146.3420 N   0  0  0  0  0  0  0  0  0  0  0  0
  190.9180  176.9410  145.7320 C   0  0  0  0  0  0  0  0  0  0  0  0
  188.6950  178.3240  147.9290 C   0  0  0  0  0  1  0  0  0  0  0  0
  188.2980  177.3330  146.9910 O   0  0  0  0  0  0  0  0  0  0  0  0
  193.5760  176.7650  138.7580 O   0  0  0  0  0  0  0  0  0  0  0  0
  193.6670  175.8420  137.6800 C   0  0  0  0  0  2  0  0  0  0  0  0
  194.5680  174.7210  138.0590 C   0  0  0  0  0  0  0  0  0  0  0  0
  195.4950  174.9120  138.8870 O   0  0  0  0  0  1  0  0  0  0  0  0
  194.3590  173.4550  137.5310 O   0  0  0  0  0  0  0  0  0  0  0  0
  1  8  1  0  0  0  0
  2 22  1  0  0  0  0
  2  9  1  0  0  0  0
  3  4  1  0  0  0  0
  3 22  1  0  0  0  0
  4 23  1  0  0  0  0
  5 19  1  0  0  0  0
  5 14  1  0  0  0  0
  6  9  2  0  0  0  0
  7 21  1  0  0  0  0
  8 14  2  0  0  0  0
  9 10  1  0  0  0  0
 10 17  2  0  0  0  0
 10 25  1  0  0  0  0
 11 18  1  0  0  0  0
 11 17  1  0  0  0  0
 12  7  2  0  0  0  0
 13 16  1  0  0  0  0
 13  1  2  0  0  0  0
 14  6  1  0  0  0  0
 15  4  2  0  0  0  0
 15 12  1  0  0  0  0
 16  5  2  0  0  0  0
 17 27  1  0  0  0  0
 19  2  2  0  0  0  0
 20  3  2  0  0  0  0
 22 11  2  0  0  0  0
 23 18  1  0  0  0  0
 23 21  2  0  0  0  0
 25 24  3  0  0  0  0
 27 26  1  0  0  0  0
 28  1  1  0  0  0  0
 29 30  1  0  0  0  0
 29 28  1  0  0  0  0
 30 31  1  0  0  0  0
 32 30  2  0  0  0  0
M  END
>  <MODEL>
4

>  <REMARK>
 VINA RESULT:      -9.0      3.939      6.509
  Name = 
  5 active torsions:
  status: ('A' for Active; 'I' for Inactive)
    1  A    between atoms: C_1  and  C_10
    2  A    between atoms: C_2  and  O_24
    3  A    between atoms: C_10  and  O_24
    4  A    between atoms: C_13  and  C_15
    5  A    between atoms: O_25  and  C_26
                            x       y       z     vdW  Elec       q    Type
                         _______ _______ _______ _____ _____    ______ ____

>  <TORSDO>
F 5

$$$$
=
 OpenBabel11052417043D

 32 36  0  0  0  0  0  0  0  0999 V2000
  187.5960  178.3610  137.2000 C   0  0  0  0  0  0  0  0  0  0  0  0
  188.0990  177.8350  142.1760 C   0  0  0  0  0  0  0  0  0  0  0  0
  189.9430  177.2840  143.7610 C   0  0  0  0  0  0  0  0  0  0  0  0
  190.3550  177.0760  145.0860 C   0  0  0  0  0  0  0  0  0  0  0  0
  188.5000  177.9520  139.8250 C   0  0  0  0  0  0  0  0  0  0  0  0
  186.2730  178.3450  140.6590 C   0  0  0  0  0  3  0  0  0  0  0  0
  191.1490  176.6690  147.7190 C   0  0  0  0  0  3  0  0  0  0  0  0
  186.6990  178.4570  138.2760 C   0  0  0  0  0  3  0  0  0  0  0  0
  186.7300  178.1410  141.9720 C   0  0  0  0  0  0  0  0  0  0  0  0
  185.8460  178.2330  143.0670 C   0  0  0  0  0  0  0  0  0  0  0  0
  187.6870  177.7130  144.5790 C   0  0  0  0  0  0  0  0  0  0  0  0
  192.0450  176.5590  146.7020 N   0  0  0  0  0  0  0  0  0  0  0  0
  188.9410  178.0600  137.4480 C   0  0  0  0  0  3  0  0  0  0  0  0
  187.1480  178.2530  139.5830 C   0  0  0  0  0  0  0  0  0  0  0  0
  191.6800  176.7530  145.4060 C   0  0  0  0  0  3  0  0  0  0  0  0
  189.3940  177.8560  138.7550 C   0  0  0  0  0  3  0  0  0  0  0  0
  186.3360  178.0400  144.3820 C   0  0  0  0  0  0  0  0  0  0  0  0
  188.1300  177.5050  145.8490 N   0  0  0  0  0  2  0  0  0  0  0  0
  188.9310  177.7530  141.0970 N   0  0  0  0  0  0  0  0  0  0  0  0
  190.7900  177.1780  142.8300 O   0  0  0  0  0  0  0  0  0  0  0  0
  189.8170  176.9890  147.4490 C   0  0  0  0  0  3  0  0  0  0  0  0
  188.5860  177.6100  143.4860 C   0  0  0  0  0  0  0  0  0  0  0  0
  189.4190  177.1930  146.1270 C   0  0  0  0  0  0  0  0  0  0  0  0
  183.3090  178.6280  142.6280 N   0  0  0  0  0  0  0  0  0  0  0  0
  184.4360  178.4570  142.8230 C   0  0  0  0  0  0  0  0  0  0  0  0
  185.3600  179.3240  146.2980 C   0  0  0  0  0  1  0  0  0  0  0  0
  185.5270  178.1420  145.5270 O   0  0  0  0  0  0  0  0  0  0  0  0
  187.1810  178.5580  135.8800 O   0  0  0  0  0  0  0  0  0  0  0  0
  187.2970  177.5530  134.8820 C   0  0  0  0  0  2  0  0  0  0  0  0
  186.4460  176.3900  135.2440 C   0  0  0  0  0  0  0  0  0  0  0  0
  186.9740  175.2720  135.4780 O   0  0  0  0  0  1  0  0  0  0  0  0
  185.0730  176.5470  135.3670 O   0  0  0  0  0  0  0  0  0  0  0  0
  1 13  2  0  0  0  0
  1  8  1  0  0  0  0
  2 22  1  0  0  0  0
  3  4  1  0  0  0  0
  4 15  2  0  0  0  0
  4 23  1  0  0  0  0
  5 19  1  0  0  0  0
  6  9  2  0  0  0  0
  8 14  2  0  0  0  0
  9  2  1  0  0  0  0
  9 10  1  0  0  0  0
 10 17  2  0  0  0  0
 11 18  1  0  0  0  0
 12  7  2  0  0  0  0
 13 16  1  0  0  0  0
 14  5  1  0  0  0  0
 14  6  1  0  0  0  0
 15 12  1  0  0  0  0
 16  5  2  0  0  0  0
 17 11  1  0  0  0  0
 17 27  1  0  0  0  0
 18 23  1  0  0  0  0
 19  2  2  0  0  0  0
 20  3  2  0  0  0  0
 21  7  1  0  0  0  0
 22  3  1  0  0  0  0
 22 11  2  0  0  0  0
 23 21  2  0  0  0  0
 24 25  3  0  0  0  0
 25 10  1  0  0  0  0
 27 26  1  0  0  0  0
 28  1  1  0  0  0  0
 29 30  1  0  0  0  0
 29 28  1  0  0  0  0
 30 32  2  0  0  0  0
 30 31  1  0  0  0  0
M  END
>  <MODEL>
5

>  <REMARK>
 VINA RESULT:      -8.6      2.706      8.807
  Name = 
  5 active torsions:
  status: ('A' for Active; 'I' for Inactive)
    1  A    between atoms: C_1  and  C_10
    2  A    between atoms: C_2  and  O_24
    3  A    between atoms: C_10  and  O_24
    4  A    between atoms: C_13  and  C_15
    5  A    between atoms: O_25  and  C_26
                            x       y       z     vdW  Elec       q    Type
                         _______ _______ _______ _____ _____    ______ ____

>  <TORSDO>
F 5

$$$$
=
 OpenBabel11052417043D

 32 36  0  0  0  0  0  0  0  0999 V2000
  191.0530  176.5930  146.8190 C   0  0  0  0  0  0  0  0  0  0  0  0
  188.6410  177.6180  142.5260 C   0  0  0  0  0  0  0  0  0  0  0  0
  189.1860  177.5940  140.0940 C   0  0  0  0  0  0  0  0  0  0  0  0
  188.7630  177.8130  138.7740 C   0  0  0  0  0  0  0  0  0  0  0  0
  190.2730  176.9880  144.1520 C   0  0  0  0  0  0  0  0  0  0  0  0
  188.0850  177.6820  144.8890 C   0  0  0  0  0  3  0  0  0  0  0  0
  187.9030  178.2530  136.1680 C   0  0  0  0  0  3  0  0  0  0  0  0
  189.7550  177.0410  146.5240 C   0  0  0  0  0  3  0  0  0  0  0  0
  187.6980  177.8770  143.5520 C   0  0  0  0  0  0  0  0  0  0  0  0
  186.4000  178.3260  143.2340 C   0  0  0  0  0  0  0  0  0  0  0  0
  186.9740  178.2650  140.8650 C   0  0  0  0  0  0  0  0  0  0  0  0
  189.1700  177.8270  136.4140 N   0  0  0  0  0  0  0  0  0  0  0  0
  191.9520  176.3460  145.7730 C   0  0  0  0  0  3  0  0  0  0  0  0
  189.3670  177.2390  145.1970 C   0  0  0  0  0  0  0  0  0  0  0  0
  189.6150  177.6060  137.6810 C   0  0  0  0  0  3  0  0  0  0  0  0
  191.5650  176.5420  144.4440 C   0  0  0  0  0  3  0  0  0  0  0  0
  186.0300  178.4980  141.8790 C   0  0  0  0  0  0  0  0  0  0  0  0
  186.6040  178.4630  139.5710 N   0  0  0  0  0  2  0  0  0  0  0  0
  189.8910  177.1830  142.8650 N   0  0  0  0  0  0  0  0  0  0  0  0
  190.3670  177.1980  140.3030 O   0  0  0  0  0  0  0  0  0  0  0  0
  187.0180  178.4750  137.2250 C   0  0  0  0  0  3  0  0  0  0  0  0
  188.2860  177.8190  141.1710 C   0  0  0  0  0  0  0  0  0  0  0  0
  187.4510  178.2540  138.5330 C   0  0  0  0  0  0  0  0  0  0  0  0
  184.7630  178.9490  145.1640 N   0  0  0  0  0  0  0  0  0  0  0  0
  185.4870  178.6700  144.3050 C   0  0  0  0  0  0  0  0  0  0  0  0
  183.6300  178.0540  141.3150 C   0  0  0  0  0  1  0  0  0  0  0  0
  184.7480  178.9160  141.4770 O   0  0  0  0  0  0  0  0  0  0  0  0
  191.4750  176.3850  148.1350 O   0  0  0  0  0  0  0  0  0  0  0  0
  192.8050  176.0040  148.4610 C   0  0  0  0  0  2  0  0  0  0  0  0
  193.3940  177.0010  149.3940 C   0  0  0  0  0  0  0  0  0  0  0  0
  194.4830  176.7560  149.9720 O   0  0  0  0  0  1  0  0  0  0  0  0
  192.7620  178.2210  149.5940 O   0  0  0  0  0  0  0  0  0  0  0  0
  1 28  1  0  0  0  0
  2 19  2  0  0  0  0
  2  9  1  0  0  0  0
  3 20  2  0  0  0  0
  3 22  1  0  0  0  0
  4  3  1  0  0  0  0
  5 16  2  0  0  0  0
  5 14  1  0  0  0  0
  6 14  1  0  0  0  0
  7 12  2  0  0  0  0
  7 21  1  0  0  0  0
  8  1  1  0  0  0  0
  9  6  2  0  0  0  0
 10  9  1  0  0  0  0
 10 25  1  0  0  0  0
 11 22  2  0  0  0  0
 11 17  1  0  0  0  0
 12 15  1  0  0  0  0
 13  1  2  0  0  0  0
 14  8  2  0  0  0  0
 15  4  2  0  0  0  0
 16 13  1  0  0  0  0
 17 10  2  0  0  0  0
 18 11  1  0  0  0  0
 19  5  1  0  0  0  0
 21 23  2  0  0  0  0
 22  2  1  0  0  0  0
 23  4  1  0  0  0  0
 23 18  1  0  0  0  0
 25 24  3  0  0  0  0
 26 27  1  0  0  0  0
 27 17  1  0  0  0  0
 28 29  1  0  0  0  0
 29 30  1  0  0  0  0
 30 32  2  0  0  0  0
 30 31  1  0  0  0  0
M  END
>  <MODEL>
6

>  <REMARK>
 VINA RESULT:      -8.6      2.314      5.336
  Name = 
  5 active torsions:
  status: ('A' for Active; 'I' for Inactive)
    1  A    between atoms: C_1  and  C_10
    2  A    between atoms: C_2  and  O_24
    3  A    between atoms: C_10  and  O_24
    4  A    between atoms: C_13  and  C_15
    5  A    between atoms: O_25  and  C_26
                            x       y       z     vdW  Elec       q    Type
                         _______ _______ _______ _____ _____    ______ ____

>  <TORSDO>
F 5

$$$$
=
 OpenBabel11052417043D

 32 36  0  0  0  0  0  0  0  0999 V2000
  182.3470  179.0520  140.4270 C   0  0  0  0  0  0  0  0  0  0  0  0
  186.8360  178.1160  142.4910 C   0  0  0  0  0  0  0  0  0  0  0  0
  187.7110  177.6110  144.7710 C   0  0  0  0  0  0  0  0  0  0  0  0
  188.8150  177.3320  145.5900 C   0  0  0  0  0  0  0  0  0  0  0  0
  184.5030  178.4670  142.1260 C   0  0  0  0  0  0  0  0  0  0  0  0
  186.0230  178.6360  140.2630 C   0  0  0  0  0  3  0  0  0  0  0  0
  191.0170  176.7790  147.1940 C   0  0  0  0  0  3  0  0  0  0  0  0
  183.6520  178.9910  139.9120 C   0  0  0  0  0  3  0  0  0  0  0  0
  187.1000  178.3400  141.1170 C   0  0  0  0  0  0  0  0  0  0  0  0
  188.4180  178.2740  140.6200 C   0  0  0  0  0  0  0  0  0  0  0  0
  189.2220  177.7600  142.8640 C   0  0  0  0  0  0  0  0  0  0  0  0
  189.7690  176.8390  147.7300 N   0  0  0  0  0  0  0  0  0  0  0  0
  182.1310  178.8190  141.7920 C   0  0  0  0  0  3  0  0  0  0  0  0
  184.7250  178.7000  140.7580 C   0  0  0  0  0  0  0  0  0  0  0  0
  188.6760  177.1080  146.9660 C   0  0  0  0  0  3  0  0  0  0  0  0
  183.2040  178.5270  142.6400 C   0  0  0  0  0  3  0  0  0  0  0  0
  189.4820  177.9580  141.4980 C   0  0  0  0  0  0  0  0  0  0  0  0
  190.2650  177.4840  143.6940 N   0  0  0  0  0  2  0  0  0  0  0  0
  185.5500  178.1870  142.9430 N   0  0  0  0  0  0  0  0  0  0  0  0
  186.5600  177.6610  145.2870 O   0  0  0  0  0  0  0  0  0  0  0  0
  191.2050  176.9960  145.8270 C   0  0  0  0  0  3  0  0  0  0  0  0
  187.9020  177.8310  143.3790 C   0  0  0  0  0  0  0  0  0  0  0  0
  190.0990  177.2730  145.0230 C   0  0  0  0  0  0  0  0  0  0  0  0
  188.8690  178.8630  138.1220 N   0  0  0  0  0  0  0  0  0  0  0  0
  188.6690  178.5970  139.2310 C   0  0  0  0  0  0  0  0  0  0  0  0
  191.2610  177.0430  139.9910 C   0  0  0  0  0  1  0  0  0  0  0  0
  190.8200  177.8450  141.0780 O   0  0  0  0  0  0  0  0  0  0  0  0
  181.2500  179.3400  139.6110 O   0  0  0  0  0  0  0  0  0  0  0  0
  181.2560  180.4020  138.6650 C   0  0  0  0  0  2  0  0  0  0  0  0
  180.4060  181.5160  139.1620 C   0  0  0  0  0  0  0  0  0  0  0  0
  180.2930  182.5710  138.4860 O   0  0  0  0  0  0  0  0  0  0  0  0
  179.7040  181.3750  140.3500 O   0  0  0  0  0  1  0  0  0  0  0  0
  1 13  1  0  0  0  0
  2 19  2  0  0  0  0
  2 22  1  0  0  0  0
  3 20  2  0  0  0  0
  3  4  1  0  0  0  0
  4 15  1  0  0  0  0
  5 16  1  0  0  0  0
  5 19  1  0  0  0  0
  6 14  1  0  0  0  0
  6  9  2  0  0  0  0
  7 12  1  0  0  0  0
  8  1  2  0  0  0  0
  8 14  1  0  0  0  0
  9  2  1  0  0  0  0
 10  9  1  0  0  0  0
 10 17  2  0  0  0  0
 11 22  2  0  0  0  0
 11 18  1  0  0  0  0
 13 16  2  0  0  0  0
 14  5  2  0  0  0  0
 15 12  2  0  0  0  0
 17 11  1  0  0  0  0
 18 23  1  0  0  0  0
 21  7  2  0  0  0  0
 22  3  1  0  0  0  0
 23  4  2  0  0  0  0
 23 21  1  0  0  0  0
 24 25  3  0  0  0  0
 25 10  1  0  0  0  0
 26 27  1  0  0  0  0
 27 17  1  0  0  0  0
 28  1  1  0  0  0  0
 29 30  1  0  0  0  0
 29 28  1  0  0  0  0
 30 32  1  0  0  0  0
 31 30  2  0  0  0  0
M  END
>  <MODEL>
7

>  <REMARK>
 VINA RESULT:      -8.5      2.705      8.543
  Name = 
  5 active torsions:
  status: ('A' for Active; 'I' for Inactive)
    1  A    between atoms: C_1  and  C_10
    2  A    between atoms: C_2  and  O_24
    3  A    between atoms: C_10  and  O_24
    4  A    between atoms: C_13  and  C_15
    5  A    between atoms: O_25  and  C_26
                            x       y       z     vdW  Elec       q    Type
                         _______ _______ _______ _____ _____    ______ ____

>  <TORSDO>
F 5

$$$$
=
 OpenBabel11052417043D

 32 36  0  0  0  0  0  0  0  0999 V2000
  190.1730  177.0750  137.4510 C   0  0  0  0  0  0  0  0  0  0  0  0
  188.1640  177.7970  142.0040 C   0  0  0  0  0  0  0  0  0  0  0  0
  188.8360  177.3730  144.3680 C   0  0  0  0  0  0  0  0  0  0  0  0
  188.5160  177.4530  145.7310 C   0  0  0  0  0  0  0  0  0  0  0  0
  189.6150  177.2210  140.1980 C   0  0  0  0  0  0  0  0  0  0  0  0
  187.4650  178.1970  139.7140 C   0  0  0  0  0  3  0  0  0  0  0  0
  187.8630  177.6220  148.4280 C   0  0  0  0  0  3  0  0  0  0  0  0
  188.9500  177.6040  137.8930 C   0  0  0  0  0  3  0  0  0  0  0  0
  187.1900  178.2700  141.0900 C   0  0  0  0  0  0  0  0  0  0  0  0
  185.9670  178.7980  141.5550 C   0  0  0  0  0  0  0  0  0  0  0  0
  186.6790  178.3840  143.8510 C   0  0  0  0  0  0  0  0  0  0  0  0
  189.0540  177.0960  148.0370 N   0  0  0  0  0  0  0  0  0  0  0  0
  191.1090  176.6230  138.3900 C   0  0  0  0  0  3  0  0  0  0  0  0
  188.6710  177.6760  139.2600 C   0  0  0  0  0  0  0  0  0  0  0  0
  189.3960  177.0020  146.7240 C   0  0  0  0  0  3  0  0  0  0  0  0
  190.8330  176.6950  139.7590 C   0  0  0  0  0  3  0  0  0  0  0  0
  185.7230  178.8760  142.9480 C   0  0  0  0  0  0  0  0  0  0  0  0
  186.4110  178.4450  145.1840 N   0  0  0  0  0  2  0  0  0  0  0  0
  189.3380  177.2920  141.5240 N   0  0  0  0  0  0  0  0  0  0  0  0
  189.9470  176.8820  144.0240 O   0  0  0  0  0  0  0  0  0  0  0  0
  186.9530  178.0850  147.4750 C   0  0  0  0  0  3  0  0  0  0  0  0
  187.9100  177.8440  143.3970 C   0  0  0  0  0  0  0  0  0  0  0  0
  187.2820  177.9990  146.1210 C   0  0  0  0  0  0  0  0  0  0  0  0
  184.1470  179.5070  139.8320 N   0  0  0  0  0  0  0  0  0  0  0  0
  184.9540  179.1880  140.5970 C   0  0  0  0  0  0  0  0  0  0  0  0
  183.3230  178.6990  143.6420 C   0  0  0  0  0  1  0  0  0  0  0  0
  184.5420  179.4130  143.4930 O   0  0  0  0  0  0  0  0  0  0  0  0
  190.4850  176.9870  136.0920 O   0  0  0  0  0  0  0  0  0  0  0  0
  189.4920  176.8270  135.0860 C   0  0  0  0  0  2  0  0  0  0  0  0
  189.0780  175.4000  135.0190 C   0  0  0  0  0  0  0  0  0  0  0  0
  189.8840  174.5300  134.5990 O   0  0  0  0  0  0  0  0  0  0  0  0
  187.8180  175.0230  135.4600 O   0  0  0  0  0  1  0  0  0  0  0  0
  1  8  2  0  0  0  0
  1 13  1  0  0  0  0
  2 22  1  0  0  0  0
  3  4  1  0  0  0  0
  4 23  2  0  0  0  0
  4 15  1  0  0  0  0
  5 19  1  0  0  0  0
  6  9  2  0  0  0  0
  8 14  1  0  0  0  0
  9 10  1  0  0  0  0
  9  2  1  0  0  0  0
 10 17  2  0  0  0  0
 11 18  1  0  0  0  0
 12  7  1  0  0  0  0
 13 16  2  0  0  0  0
 14  6  1  0  0  0  0
 14  5  2  0  0  0  0
 15 12  2  0  0  0  0
 16  5  1  0  0  0  0
 17 27  1  0  0  0  0
 17 11  1  0  0  0  0
 18 23  1  0  0  0  0
 19  2  2  0  0  0  0
 20  3  2  0  0  0  0
 21  7  2  0  0  0  0
 22 11  2  0  0  0  0
 22  3  1  0  0  0  0
 23 21  1  0  0  0  0
 24 25  3  0  0  0  0
 25 10  1  0  0  0  0
 27 26  1  0  0  0  0
 28  1  1  0  0  0  0
 29 28  1  0  0  0  0
 30 29  1  0  0  0  0
 30 32  1  0  0  0  0
 31 30  2  0  0  0  0
M  END
>  <MODEL>
8

>  <REMARK>
 VINA RESULT:      -8.4      3.094      7.823
  Name = 
  5 active torsions:
  status: ('A' for Active; 'I' for Inactive)
    1  A    between atoms: C_1  and  C_10
    2  A    between atoms: C_2  and  O_24
    3  A    between atoms: C_10  and  O_24
    4  A    between atoms: C_13  and  C_15
    5  A    between atoms: O_25  and  C_26
                            x       y       z     vdW  Elec       q    Type
                         _______ _______ _______ _____ _____    ______ ____

>  <TORSDO>
F 5

$$$$
=
 OpenBabel11052417043D

 32 36  0  0  0  0  0  0  0  0999 V2000
  190.3290  177.0460  145.8520 C   0  0  0  0  0  0  0  0  0  0  0  0
  189.4640  177.2560  140.9020 C   0  0  0  0  0  0  0  0  0  0  0  0
  190.6760  176.6040  138.8230 C   0  0  0  0  0  0  0  0  0  0  0  0
  190.6940  176.5460  137.4220 C   0  0  0  0  0  0  0  0  0  0  0  0
  190.4290  176.8730  143.0520 C   0  0  0  0  0  0  0  0  0  0  0  0
  188.2680  177.9320  142.9050 C   0  0  0  0  0  3  0  0  0  0  0  0
  190.7070  176.4380  134.6440 C   0  0  0  0  0  3  0  0  0  0  0  0
  189.2650  177.5370  145.0780 C   0  0  0  0  0  3  0  0  0  0  0  0
  188.3210  177.8410  141.5030 C   0  0  0  0  0  0  0  0  0  0  0  0
  187.2630  178.3280  140.7080 C   0  0  0  0  0  0  0  0  0  0  0  0
  188.4780  177.6520  138.7040 C   0  0  0  0  0  0  0  0  0  0  0  0
  191.7610  175.9610  135.3590 N   0  0  0  0  0  0  0  0  0  0  0  0
  191.4380  176.4720  145.2160 C   0  0  0  0  0  3  0  0  0  0  0  0
  189.3140  177.4510  143.6840 C   0  0  0  0  0  0  0  0  0  0  0  0
  191.7780  176.0030  136.7180 C   0  0  0  0  0  3  0  0  0  0  0  0
  191.4890  176.3840  143.8210 C   0  0  0  0  0  3  0  0  0  0  0  0
  187.3340  178.2090  139.2980 C   0  0  0  0  0  0  0  0  0  0  0  0
  188.5360  177.5730  137.3470 N   0  0  0  0  0  2  0  0  0  0  0  0
  190.4720  176.7950  141.6980 N   0  0  0  0  0  0  0  0  0  0  0  0
  191.6630  176.1550  139.4700 O   0  0  0  0  0  0  0  0  0  0  0  0
  189.6050  176.9890  135.3000 C   0  0  0  0  0  3  0  0  0  0  0  0
  189.5530  177.1650  139.4920 C   0  0  0  0  0  0  0  0  0  0  0  0
  189.5990  177.0420  136.6940 C   0  0  0  0  0  0  0  0  0  0  0  0
  185.2650  179.5410  141.8580 N   0  0  0  0  0  0  0  0  0  0  0  0
  186.1510  179.0030  141.3440 C   0  0  0  0  0  0  0  0  0  0  0  0
  185.1780  177.8670  138.0700 C   0  0  0  0  0  1  0  0  0  0  0  0
  186.3110  178.6430  138.4370 O   0  0  0  0  0  0  0  0  0  0  0  0
  190.3130  177.1150  147.2470 O   0  0  0  0  0  0  0  0  0  0  0  0
  189.6140  178.1300  147.9560 C   0  0  0  0  0  2  0  0  0  0  0  0
  188.2010  177.7130  148.1580 C   0  0  0  0  0  0  0  0  0  0  0  0
  187.9340  176.5240  148.4690 O   0  0  0  0  0  1  0  0  0  0  0  0
  187.1800  178.6460  148.0440 O   0  0  0  0  0  0  0  0  0  0  0  0
  1 28  1  0  0  0  0
  2  9  1  0  0  0  0
  2 19  1  0  0  0  0
  3 20  2  0  0  0  0
  3 22  1  0  0  0  0
  4  3  1  0  0  0  0
  5 14  1  0  0  0  0
  5 16  1  0  0  0  0
  6 14  2  0  0  0  0
  7 21  2  0  0  0  0
  7 12  1  0  0  0  0
  8  1  2  0  0  0  0
  9  6  1  0  0  0  0
 10 25  1  0  0  0  0
 10  9  2  0  0  0  0
 11 17  2  0  0  0  0
 11 22  1  0  0  0  0
 12 15  2  0  0  0  0
 13  1  1  0  0  0  0
 14  8  1  0  0  0  0
 15  4  1  0  0  0  0
 16 13  2  0  0  0  0
 17 10  1  0  0  0  0
 18 11  1  0  0  0  0
 19  5  2  0  0  0  0
 21 23  1  0  0  0  0
 22  2  2  0  0  0  0
 23 18  1  0  0  0  0
 23  4  2  0  0  0  0
 25 24  3  0  0  0  0
 26 27  1  0  0  0  0
 27 17  1  0  0  0  0
 28 29  1  0  0  0  0
 29 30  1  0  0  0  0
 30 31  1  0  0  0  0
 32 30  2  0  0  0  0
M  END
>  <MODEL>
9

>  <REMARK>
 VINA RESULT:      -8.4      3.149      6.669
  Name = 
  5 active torsions:
  status: ('A' for Active; 'I' for Inactive)
    1  A    between atoms: C_1  and  C_10
    2  A    between atoms: C_2  and  O_24
    3  A    between atoms: C_10  and  O_24
    4  A    between atoms: C_13  and  C_15
    5  A    between atoms: O_25  and  C_26
                            x       y       z     vdW  Elec       q    Type
                         _______ _______ _______ _____ _____    ______ ____

>  <TORSDO>
F 5

$$$$
