=
 OpenBabel11052415233D

 37 42  0  0  1  0  0  0  0  0999 V2000
  184.6450  173.3490  137.8560 C   0  0  0  0  0  2  0  0  0  0  0  0
  182.2760  176.8620  136.6460 N   0  0  0  0  0  0  0  0  0  0  0  0
  181.9880  177.4020  139.9410 C   0  0  0  0  0  2  0  0  0  0  0  0
  183.0700  174.5210  136.2010 C   0  0  2  0  0  3  0  0  0  0  0  0
  182.7530  178.0880  137.2640 C   0  0  1  0  0  3  0  0  0  0  0  0
  182.9470  175.6960  137.1920 C   0  0  1  0  0  3  0  0  0  0  0  0
  181.6150  178.8440  137.9080 C   0  0  0  0  0  0  0  0  0  0  0  0
  181.7530  174.3160  135.4550 C   0  0  0  0  0  2  0  0  0  0  0  0
  184.2440  176.2300  137.8220 C   0  0  1  0  0  3  0  0  0  0  0  0
  185.8950  174.6940  136.0720 C   0  0  0  0  0  2  0  0  0  0  0  0
  181.0890  177.8540  134.8860 O   0  0  0  0  0  0  0  0  0  0  0  0
  181.3530  175.5450  134.7790 N   0  0  0  0  0  2  0  0  0  0  0  0
  185.6830  176.4080  136.6840 S   0  0  0  0  0  0  0  0  0  0  0  0
  181.1580  178.5130  139.3100 C   0  0  0  0  0  2  0  0  0  0  0  0
  181.5350  176.8060  135.4210 C   0  0  0  0  0  0  0  0  0  0  0  0
  183.8630  177.6450  138.2470 C   0  0  2  0  0  3  0  0  0  0  0  0
  183.4510  173.2100  136.9040 C   0  0  0  0  0  2  0  0  0  0  0  0
  185.9790  173.6250  137.1580 C   0  0  0  0  0  2  0  0  0  0  0  0
  183.4790  177.6550  139.7350 C   0  0  1  0  0  3  0  0  0  0  0  0
  181.0350  179.7660  137.2180 N   0  0  0  0  0  0  0  0  0  0  0  0
  183.8610  178.8750  140.3230 O   0  0  0  0  0  0  0  0  0  0  0  0
  184.9950  178.6580  141.1390 C   0  0  2  0  0  3  0  0  0  0  0  0
  184.8990  179.3590  142.4940 C   0  0  0  0  0  2  0  0  0  0  0  0
  185.5690  178.2980  144.6250 C   0  0  0  0  0  1  0  0  0  0  0  0
  184.4850  178.3760  143.5720 C   0  0  0  0  0  2  0  0  0  0  0  0
  186.1820  179.0080  140.4820 O   0  0  0  0  0  0  0  0  0  0  0  0
  188.3430  178.1420  140.1590 C   0  0  0  0  0  2  0  0  0  0  0  0
  187.1620  178.1900  141.0460 C   0  0  1  0  0  3  0  0  0  0  0  0
  188.3130  178.9590  141.3030 O   0  0  0  0  0  0  0  0  0  0  0  0
  179.9280  180.5490  137.7140 C   0  0  0  0  0  2  0  0  0  0  0  0
  180.0890  181.9510  135.7650 O   0  0  0  0  0  0  0  0  0  0  0  0
  179.9870  181.9700  137.1700 C   0  0  2  0  0  3  0  0  0  0  0  0
  181.1680  182.7320  137.7790 C   0  0  0  0  0  2  0  0  0  0  0  0
  182.3490  184.8020  137.6120 O   0  0  0  0  0  1  0  0  0  0  0  0
  181.0410  184.1590  135.7190 C   0  0  0  0  0  2  0  0  0  0  0  0
  181.1700  184.1600  137.2400 C   0  0  1  0  0  3  0  0  0  0  0  0
  179.8650  183.2670  135.3210 C   0  0  0  0  0  2  0  0  0  0  0  0
  2  5  1  0  0  0  0
  4  8  1  1  0  0  0
  4 17  1  0  0  0  0
  4  6  1  0  0  0  0
  5  7  1  1  0  0  0
  5 16  1  0  0  0  0
  6  2  1  6  0  0  0
  6  9  1  0  0  0  0
  7 14  1  0  0  0  0
  9 13  1  6  0  0  0
  9 16  1  0  0  0  0
 10 13  1  0  0  0  0
 10 18  1  0  0  0  0
 11 15  2  0  0  0  0
 12 15  1  0  0  0  0
 12  8  1  0  0  0  0
 14  3  1  0  0  0  0
 15  2  1  0  0  0  0
 16 19  1  0  0  0  0
 17  1  1  0  0  0  0
 18  1  1  0  0  0  0
 19  3  1  0  0  0  0
 19 21  1  0  0  0  0
 20 30  1  0  0  0  0
 20  7  2  0  0  0  0
 21 22  1  0  0  0  0
 22 23  1  0  0  0  0
 23 25  1  0  0  0  0
 25 24  1  0  0  0  0
 26 28  1  0  0  0  0
 26 22  1  0  0  0  0
 27 28  1  0  0  0  0
 27 29  1  0  0  0  0
 28 29  1  0  0  0  0
 31 32  1  0  0  0  0
 32 30  1  0  0  0  0
 32 33  1  0  0  0  0
 35 36  1  0  0  0  0
 36 34  1  0  0  0  0
 36 33  1  0  0  0  0
 37 35  1  0  0  0  0
 37 31  1  0  0  0  0
M  END
>  <MODEL>
1

>  <REMARK>
 VINA RESULT:      -6.5      0.000      0.000
  Name = 
  8 active torsions:
  status: ('A' for Active; 'I' for Inactive)
    1  A    between atoms: O_1  and  C_33
    2  A    between atoms: O_1  and  C_36
    3  A    between atoms: C_5  and  C_23
    4  A    between atoms: C_5  and  C_33
    5  A    between atoms: C_6  and  C_31
    6  A    between atoms: O_17  and  C_26
    7  A    between atoms: O_17  and  C_33
    8  A    between atoms: C_31  and  N_37
                            x       y       z     vdW  Elec       q    Type
                         _______ _______ _______ _____ _____    ______ ____

>  <TORSDO>
F 8

$$$$
=
 OpenBabel11052415233D

 37 42  0  0  1  0  0  0  0  0999 V2000
  189.5350  175.6610  137.3680 C   0  0  0  0  0  2  0  0  0  0  0  0
  186.4090  178.0060  139.4040 N   0  0  0  0  0  0  0  0  0  0  0  0
  187.8010  176.8210  142.2140 C   0  0  0  0  0  2  0  0  0  0  0  0
  187.1800  176.6860  137.4120 C   0  0  2  0  0  3  0  0  0  0  0  0
  186.9570  178.8920  140.4180 C   0  0  1  0  0  3  0  0  0  0  0  0
  187.4250  177.1140  138.8730 C   0  0  1  0  0  3  0  0  0  0  0  0
  186.2250  178.7270  141.7280 C   0  0  0  0  0  0  0  0  0  0  0  0
  185.7130  176.3180  137.2050 C   0  0  0  0  0  2  0  0  0  0  0  0
  188.7670  177.7870  139.1990 C   0  0  1  0  0  3  0  0  0  0  0  0
  189.4690  178.0480  136.4440 C   0  0  0  0  0  2  0  0  0  0  0  0
  184.3530  179.0960  139.1310 O   0  0  0  0  0  0  0  0  0  0  0  0
  184.8490  177.4290  137.5860 N   0  0  0  0  0  2  0  0  0  0  0  0
  189.3640  179.0370  137.9820 S   0  0  0  0  0  0  0  0  0  0  0  0
  186.6160  177.6420  142.7060 C   0  0  0  0  0  2  0  0  0  0  0  0
  185.1560  178.2100  138.7400 C   0  0  0  0  0  0  0  0  0  0  0  0
  188.4660  178.5550  140.4820 C   0  0  2  0  0  3  0  0  0  0  0  0
  188.0530  175.4890  137.0080 C   0  0  0  0  0  2  0  0  0  0  0  0
  190.2560  176.7460  136.5640 C   0  0  0  0  0  2  0  0  0  0  0  0
  188.9140  177.7300  141.6990 C   0  0  1  0  0  3  0  0  0  0  0  0
  185.2470  179.5280  141.9790 N   0  0  0  0  0  0  0  0  0  0  0  0
  189.3680  178.5860  142.7200 O   0  0  0  0  0  0  0  0  0  0  0  0
  189.9520  177.8080  143.7470 C   0  0  2  0  0  3  0  0  0  0  0  0
  189.5540  178.2730  145.1470 C   0  0  0  0  0  2  0  0  0  0  0  0
  187.4340  177.5970  146.2290 C   0  0  0  0  0  1  0  0  0  0  0  0
  188.8430  177.1590  145.8930 C   0  0  0  0  0  2  0  0  0  0  0  0
  191.3460  177.7490  143.6220 O   0  0  0  0  0  0  0  0  0  0  0  0
  191.9610  175.5200  144.0500 C   0  0  0  0  0  2  0  0  0  0  0  0
  191.6010  176.5160  143.0180 C   0  0  1  0  0  3  0  0  0  0  0  0
  190.6710  175.5700  143.4910 O   0  0  0  0  0  0  0  0  0  0  0  0
  184.4600  179.4650  143.1880 C   0  0  0  0  0  2  0  0  0  0  0  0
  182.6360  179.1530  141.6500 O   0  0  0  0  0  0  0  0  0  0  0  0
  183.1190  178.7920  142.9230 C   0  0  2  0  0  3  0  0  0  0  0  0
  182.1030  179.1690  144.0060 C   0  0  0  0  0  2  0  0  0  0  0  0
  179.7920  178.9360  144.5690 O   0  0  0  0  0  1  0  0  0  0  0  0
  180.3700  178.6350  142.2700 C   0  0  0  0  0  2  0  0  0  0  0  0
  180.7880  178.4460  143.7260 C   0  0  1  0  0  3  0  0  0  0  0  0
  181.5550  178.2970  141.3660 C   0  0  0  0  0  2  0  0  0  0  0  0
  2  5  1  0  0  0  0
  3 14  1  0  0  0  0
  4 17  1  1  0  0  0
  4  6  1  0  0  0  0
  5 16  1  0  0  0  0
  5  7  1  1  0  0  0
  6  9  1  0  0  0  0
  6  2  1  6  0  0  0
  7 20  2  0  0  0  0
  7 14  1  0  0  0  0
  8  4  1  0  0  0  0
  8 12  1  0  0  0  0
  9 13  1  6  0  0  0
  9 16  1  0  0  0  0
 10 18  1  0  0  0  0
 10 13  1  0  0  0  0
 12 15  1  0  0  0  0
 15 11  2  0  0  0  0
 15  2  1  0  0  0  0
 16 19  1  0  0  0  0
 17  1  1  0  0  0  0
 18  1  1  0  0  0  0
 19  3  1  0  0  0  0
 19 21  1  0  0  0  0
 20 30  1  0  0  0  0
 21 22  1  0  0  0  0
 22 23  1  0  0  0  0
 23 25  1  0  0  0  0
 25 24  1  0  0  0  0
 26 22  1  0  0  0  0
 28 29  1  0  0  0  0
 28 26  1  0  0  0  0
 28 27  1  0  0  0  0
 29 27  1  0  0  0  0
 31 32  1  0  0  0  0
 32 30  1  0  0  0  0
 32 33  1  0  0  0  0
 35 36  1  0  0  0  0
 36 33  1  0  0  0  0
 36 34  1  0  0  0  0
 37 31  1  0  0  0  0
 37 35  1  0  0  0  0
M  END
>  <MODEL>
2

>  <REMARK>
 VINA RESULT:      -6.1      4.030      6.015
  Name = 
  8 active torsions:
  status: ('A' for Active; 'I' for Inactive)
    1  A    between atoms: O_1  and  C_33
    2  A    between atoms: O_1  and  C_36
    3  A    between atoms: C_5  and  C_23
    4  A    between atoms: C_5  and  C_33
    5  A    between atoms: C_6  and  C_31
    6  A    between atoms: O_17  and  C_26
    7  A    between atoms: O_17  and  C_33
    8  A    between atoms: C_31  and  N_37
                            x       y       z     vdW  Elec       q    Type
                         _______ _______ _______ _____ _____    ______ ____

>  <TORSDO>
F 8

$$$$
=
 OpenBabel11052415233D

 37 42  0  0  1  0  0  0  0  0999 V2000
  189.2780  175.7350  137.5230 C   0  0  0  0  0  2  0  0  0  0  0  0
  186.3320  178.2180  139.6630 N   0  0  0  0  0  0  0  0  0  0  0  0
  187.5340  176.7110  142.4060 C   0  0  0  0  0  2  0  0  0  0  0  0
  187.0290  176.9740  137.5950 C   0  0  2  0  0  3  0  0  0  0  0  0
  186.9340  178.9740  140.7490 C   0  0  1  0  0  3  0  0  0  0  0  0
  187.2740  177.2730  139.0880 C   0  0  1  0  0  3  0  0  0  0  0  0
  186.1560  178.7880  142.0290 C   0  0  0  0  0  0  0  0  0  0  0  0
  185.5400  176.7620  137.3340 C   0  0  0  0  0  2  0  0  0  0  0  0
  188.6650  177.7910  139.4880 C   0  0  1  0  0  3  0  0  0  0  0  0
  189.4590  178.1760  136.7740 C   0  0  0  0  0  2  0  0  0  0  0  0
  184.3950  179.5150  139.4300 O   0  0  0  0  0  0  0  0  0  0  0  0
  184.7730  177.9210  137.7780 N   0  0  0  0  0  2  0  0  0  0  0  0
  189.4070  179.0610  138.3770 S   0  0  0  0  0  0  0  0  0  0  0  0
  186.4180  177.6050  142.9330 C   0  0  0  0  0  2  0  0  0  0  0  0
  185.1220  178.5860  138.9910 C   0  0  0  0  0  0  0  0  0  0  0  0
  188.4030  178.4920  140.8170 C   0  0  2  0  0  3  0  0  0  0  0  0
  187.7970  175.7300  137.1230 C   0  0  0  0  0  2  0  0  0  0  0  0
  190.1180  176.8000  136.8150 C   0  0  0  0  0  2  0  0  0  0  0  0
  188.7400  177.5440  141.9800 C   0  0  1  0  0  3  0  0  0  0  0  0
  185.2510  179.6590  142.3180 N   0  0  0  0  0  0  0  0  0  0  0  0
  189.2450  178.2790  143.0690 O   0  0  0  0  0  0  0  0  0  0  0  0
  190.4450  177.6780  143.5140 C   0  0  2  0  0  3  0  0  0  0  0  0
  191.1060  176.8050  142.4470 C   0  0  0  0  0  2  0  0  0  0  0  0
  192.1490  177.4150  140.2880 C   0  0  0  0  0  1  0  0  0  0  0  0
  192.2550  177.5470  141.7920 C   0  0  0  0  0  2  0  0  0  0  0  0
  190.2550  176.9550  144.6990 O   0  0  0  0  0  0  0  0  0  0  0  0
  191.1890  176.7160  146.8430 C   0  0  0  0  0  2  0  0  0  0  0  0
  191.3890  177.2210  145.4680 C   0  0  1  0  0  3  0  0  0  0  0  0
  191.9500  176.0030  145.8990 O   0  0  0  0  0  0  0  0  0  0  0  0
  184.4300  179.5860  143.5040 C   0  0  0  0  0  2  0  0  0  0  0  0
  182.7000  179.1460  141.8900 O   0  0  0  0  0  0  0  0  0  0  0  0
  183.1180  178.8720  143.2070 C   0  0  2  0  0  3  0  0  0  0  0  0
  182.0360  179.2920  144.2080 C   0  0  0  0  0  2  0  0  0  0  0  0
  179.7020  179.0470  144.6570 O   0  0  0  0  0  1  0  0  0  0  0  0
  180.4120  178.6210  142.4150 C   0  0  0  0  0  2  0  0  0  0  0  0
  180.7510  178.5280  143.9010 C   0  0  1  0  0  3  0  0  0  0  0  0
  181.6510  178.2540  141.6000 C   0  0  0  0  0  2  0  0  0  0  0  0
  2  5  1  0  0  0  0
  3 14  1  0  0  0  0
  4 17  1  1  0  0  0
  4  6  1  0  0  0  0
  5 16  1  0  0  0  0
  5  7  1  1  0  0  0
  6  9  1  0  0  0  0
  6  2  1  6  0  0  0
  7 20  2  0  0  0  0
  7 14  1  0  0  0  0
  8  4  1  0  0  0  0
  8 12  1  0  0  0  0
  9 13  1  6  0  0  0
  9 16  1  0  0  0  0
 10 18  1  0  0  0  0
 10 13  1  0  0  0  0
 12 15  1  0  0  0  0
 15 11  2  0  0  0  0
 15  2  1  0  0  0  0
 16 19  1  0  0  0  0
 17  1  1  0  0  0  0
 18  1  1  0  0  0  0
 19  3  1  0  0  0  0
 19 21  1  0  0  0  0
 20 30  1  0  0  0  0
 21 22  1  0  0  0  0
 22 26  1  0  0  0  0
 23 22  1  0  0  0  0
 24 25  1  0  0  0  0
 25 23  1  0  0  0  0
 26 28  1  0  0  0  0
 28 29  1  0  0  0  0
 28 27  1  0  0  0  0
 29 27  1  0  0  0  0
 31 32  1  0  0  0  0
 32 30  1  0  0  0  0
 32 33  1  0  0  0  0
 35 36  1  0  0  0  0
 36 33  1  0  0  0  0
 36 34  1  0  0  0  0
 37 31  1  0  0  0  0
 37 35  1  0  0  0  0
M  END
>  <MODEL>
3

>  <REMARK>
 VINA RESULT:      -6.1      4.087      6.453
  Name = 
  8 active torsions:
  status: ('A' for Active; 'I' for Inactive)
    1  A    between atoms: O_1  and  C_33
    2  A    between atoms: O_1  and  C_36
    3  A    between atoms: C_5  and  C_23
    4  A    between atoms: C_5  and  C_33
    5  A    between atoms: C_6  and  C_31
    6  A    between atoms: O_17  and  C_26
    7  A    between atoms: O_17  and  C_33
    8  A    between atoms: C_31  and  N_37
                            x       y       z     vdW  Elec       q    Type
                         _______ _______ _______ _____ _____    ______ ____

>  <TORSDO>
F 8

$$$$
=
 OpenBabel11052415233D

 37 42  0  0  1  0  0  0  0  0999 V2000
  192.6840  174.3690  138.2750 C   0  0  0  0  0  2  0  0  0  0  0  0
  189.3920  177.2200  138.9520 N   0  0  0  0  0  0  0  0  0  0  0  0
  189.4150  176.0100  142.0780 C   0  0  0  0  0  2  0  0  0  0  0  0
  190.6680  175.7030  137.4090 C   0  0  2  0  0  3  0  0  0  0  0  0
  189.6320  178.0760  140.1010 C   0  0  1  0  0  3  0  0  0  0  0  0
  190.3930  176.1720  138.8520 C   0  0  1  0  0  3  0  0  0  0  0  0
  188.4400  178.0830  141.0260 C   0  0  0  0  0  0  0  0  0  0  0  0
  189.3550  175.5260  136.6500 C   0  0  0  0  0  2  0  0  0  0  0  0
  191.5910  176.6740  139.6740 C   0  0  1  0  0  3  0  0  0  0  0  0
  193.3240  176.6900  137.4050 C   0  0  0  0  0  2  0  0  0  0  0  0
  187.7790  178.5610  137.9080 O   0  0  0  0  0  0  0  0  0  0  0  0
  188.5810  176.7620  136.6700 N   0  0  0  0  0  2  0  0  0  0  0  0
  192.7820  177.7650  138.7860 S   0  0  0  0  0  0  0  0  0  0  0  0
  188.2640  177.0080  142.0750 C   0  0  0  0  0  2  0  0  0  0  0  0
  188.5330  177.5550  137.8550 C   0  0  0  0  0  0  0  0  0  0  0  0
  190.9360  177.5430  140.7430 C   0  0  2  0  0  3  0  0  0  0  0  0
  191.4450  174.3790  137.3700 C   0  0  0  0  0  2  0  0  0  0  0  0
  193.8070  175.3020  137.8170 C   0  0  0  0  0  2  0  0  0  0  0  0
  190.7590  176.7310  142.0350 C   0  0  1  0  0  3  0  0  0  0  0  0
  187.5670  179.0210  140.8810 N   0  0  0  0  0  0  0  0  0  0  0  0
  190.9060  177.5710  143.1550 O   0  0  0  0  0  0  0  0  0  0  0  0
  190.5490  176.8530  144.3200 C   0  0  2  0  0  3  0  0  0  0  0  0
  189.7190  177.6810  145.3000 C   0  0  0  0  0  2  0  0  0  0  0  0
  187.5340  177.8980  146.4400 C   0  0  0  0  0  1  0  0  0  0  0  0
  188.2930  177.1670  145.3540 C   0  0  0  0  0  2  0  0  0  0  0  0
  191.6710  176.3080  144.9580 O   0  0  0  0  0  0  0  0  0  0  0  0
  192.2090  175.3460  147.0340 C   0  0  0  0  0  2  0  0  0  0  0  0
  191.3510  176.3130  146.3160 C   0  0  1  0  0  3  0  0  0  0  0  0
  192.4770  176.7260  147.0540 O   0  0  0  0  0  0  0  0  0  0  0  0
  186.3770  179.1290  141.6920 C   0  0  0  0  0  2  0  0  0  0  0  0
  184.9460  179.7460  139.8590 O   0  0  0  0  0  0  0  0  0  0  0  0
  185.1370  178.7900  140.8750 C   0  0  2  0  0  3  0  0  0  0  0  0
  183.9000  178.7160  141.7760 C   0  0  0  0  0  2  0  0  0  0  0  0
  181.5250  178.4730  141.6830 O   0  0  0  0  0  1  0  0  0  0  0  0
  182.6050  179.2210  139.6870 C   0  0  0  0  0  2  0  0  0  0  0  0
  182.6900  178.3370  140.9280 C   0  0  1  0  0  3  0  0  0  0  0  0
  183.9650  179.2290  138.9910 C   0  0  0  0  0  2  0  0  0  0  0  0
  2  5  1  0  0  0  0
  4  8  1  1  0  0  0
  4  6  1  0  0  0  0
  5 16  1  0  0  0  0
  5  7  1  1  0  0  0
  6  2  1  6  0  0  0
  6  9  1  0  0  0  0
  7 14  1  0  0  0  0
  8 12  1  0  0  0  0
  9 13  1  6  0  0  0
  9 16  1  0  0  0  0
 10 18  1  0  0  0  0
 10 13  1  0  0  0  0
 12 15  1  0  0  0  0
 14  3  1  0  0  0  0
 15 11  2  0  0  0  0
 15  2  1  0  0  0  0
 16 19  1  0  0  0  0
 17  4  1  0  0  0  0
 17  1  1  0  0  0  0
 18  1  1  0  0  0  0
 19  3  1  0  0  0  0
 19 21  1  0  0  0  0
 20  7  2  0  0  0  0
 20 30  1  0  0  0  0
 21 22  1  0  0  0  0
 22 26  1  0  0  0  0
 22 23  1  0  0  0  0
 23 25  1  0  0  0  0
 25 24  1  0  0  0  0
 26 28  1  0  0  0  0
 27 29  1  0  0  0  0
 28 27  1  0  0  0  0
 28 29  1  0  0  0  0
 31 32  1  0  0  0  0
 32 30  1  0  0  0  0
 32 33  1  0  0  0  0
 35 36  1  0  0  0  0
 36 34  1  0  0  0  0
 36 33  1  0  0  0  0
 37 35  1  0  0  0  0
 37 31  1  0  0  0  0
M  END
>  <MODEL>
4

>  <REMARK>
 VINA RESULT:      -6.1      4.589      7.291
  Name = 
  8 active torsions:
  status: ('A' for Active; 'I' for Inactive)
    1  A    between atoms: O_1  and  C_33
    2  A    between atoms: O_1  and  C_36
    3  A    between atoms: C_5  and  C_23
    4  A    between atoms: C_5  and  C_33
    5  A    between atoms: C_6  and  C_31
    6  A    between atoms: O_17  and  C_26
    7  A    between atoms: O_17  and  C_33
    8  A    between atoms: C_31  and  N_37
                            x       y       z     vdW  Elec       q    Type
                         _______ _______ _______ _____ _____    ______ ____

>  <TORSDO>
F 8

$$$$
=
 OpenBabel11052415233D

 37 42  0  0  1  0  0  0  0  0999 V2000
  191.7080  178.0400  143.6520 C   0  0  0  0  0  2  0  0  0  0  0  0
  187.4110  177.8120  144.6020 N   0  0  0  0  0  0  0  0  0  0  0  0
  187.0690  180.0180  142.1020 C   0  0  0  0  0  2  0  0  0  0  0  0
  189.8080  177.6800  145.3410 C   0  0  2  0  0  3  0  0  0  0  0  0
  186.6020  177.5200  143.4300 C   0  0  1  0  0  3  0  0  0  0  0  0
  188.7960  178.0620  144.2420 C   0  0  1  0  0  3  0  0  0  0  0  0
  185.4600  178.4980  143.3080 C   0  0  0  0  0  0  0  0  0  0  0  0
  189.3160  178.1580  146.7050 C   0  0  0  0  0  2  0  0  0  0  0  0
  188.9790  177.4220  142.8570 C   0  0  1  0  0  3  0  0  0  0  0  0
  190.9590  175.5970  143.8040 C   0  0  0  0  0  2  0  0  0  0  0  0
  185.8410  177.1700  146.2190 O   0  0  0  0  0  0  0  0  0  0  0  0
  187.9910  177.6160  146.9890 N   0  0  0  0  0  2  0  0  0  0  0  0
  189.3990  175.6270  142.8430 S   0  0  0  0  0  0  0  0  0  0  0  0
  185.6530  179.8380  142.6330 C   0  0  0  0  0  2  0  0  0  0  0  0
  187.0170  177.5320  145.9510 C   0  0  0  0  0  0  0  0  0  0  0  0
  187.5890  177.5360  142.2380 C   0  0  2  0  0  3  0  0  0  0  0  0
  191.1980  178.2770  145.0790 C   0  0  0  0  0  2  0  0  0  0  0  0
  192.0280  176.5780  143.3330 C   0  0  0  0  0  2  0  0  0  0  0  0
  187.5230  178.7780  141.3360 C   0  0  1  0  0  3  0  0  0  0  0  0
  184.3210  178.1650  143.8120 N   0  0  0  0  0  0  0  0  0  0  0  0
  186.6730  178.5330  140.2410 O   0  0  0  0  0  0  0  0  0  0  0  0
  187.4560  178.1630  139.1230 C   0  0  2  0  0  3  0  0  0  0  0  0
  188.9160  178.5960  139.2470 C   0  0  0  0  0  2  0  0  0  0  0  0
  190.8820  177.1750  139.7310 C   0  0  0  0  0  1  0  0  0  0  0  0
  189.8370  177.5250  138.6940 C   0  0  0  0  0  2  0  0  0  0  0  0
  186.9010  178.6270  137.9240 O   0  0  0  0  0  0  0  0  0  0  0  0
  186.0470  177.4630  136.0690 C   0  0  0  0  0  2  0  0  0  0  0  0
  185.9990  177.6350  137.5360 C   0  0  1  0  0  3  0  0  0  0  0  0
  186.7090  176.5760  136.9370 O   0  0  0  0  0  0  0  0  0  0  0  0
  183.1560  179.0180  143.7730 C   0  0  0  0  0  2  0  0  0  0  0  0
  182.8300  178.6250  141.4220 O   0  0  0  0  0  0  0  0  0  0  0  0
  182.1970  178.5690  142.6790 C   0  0  2  0  0  3  0  0  0  0  0  0
  180.9340  179.4360  142.6790 C   0  0  0  0  0  2  0  0  0  0  0  0
  178.9310  179.8300  141.4370 O   0  0  0  0  0  1  0  0  0  0  0  0
  180.7220  178.7600  140.2710 C   0  0  0  0  0  2  0  0  0  0  0  0
  179.9840  178.9300  141.5960 C   0  0  1  0  0  3  0  0  0  0  0  0
  181.9950  177.9490  140.5130 C   0  0  0  0  0  2  0  0  0  0  0  0
  1 17  1  0  0  0  0
  2 15  1  0  0  0  0
  3 14  1  0  0  0  0
  4 17  1  6  0  0  0
  4  8  1  0  0  0  0
  5  7  1  6  0  0  0
  5  2  1  0  0  0  0
  6  2  1  1  0  0  0
  6  4  1  0  0  0  0
  7 20  2  0  0  0  0
  8 12  1  0  0  0  0
  9 13  1  1  0  0  0
  9  6  1  0  0  0  0
 13 10  1  0  0  0  0
 14  7  1  0  0  0  0
 15 11  2  0  0  0  0
 15 12  1  0  0  0  0
 16  9  1  0  0  0  0
 16  5  1  0  0  0  0
 18  1  1  0  0  0  0
 18 10  1  0  0  0  0
 19  3  1  0  0  0  0
 19 16  1  0  0  0  0
 21 19  1  0  0  0  0
 22 23  1  0  0  0  0
 22 21  1  0  0  0  0
 25 23  1  0  0  0  0
 25 24  1  0  0  0  0
 26 22  1  0  0  0  0
 27 29  1  0  0  0  0
 27 28  1  0  0  0  0
 28 26  1  0  0  0  0
 29 28  1  0  0  0  0
 30 20  1  0  0  0  0
 31 32  1  0  0  0  0
 32 30  1  0  0  0  0
 33 32  1  0  0  0  0
 34 36  1  0  0  0  0
 35 37  1  0  0  0  0
 35 36  1  0  0  0  0
 36 33  1  0  0  0  0
 37 31  1  0  0  0  0
M  END
>  <MODEL>
5

>  <REMARK>
 VINA RESULT:      -5.8      4.579      8.096
  Name = 
  8 active torsions:
  status: ('A' for Active; 'I' for Inactive)
    1  A    between atoms: O_1  and  C_33
    2  A    between atoms: O_1  and  C_36
    3  A    between atoms: C_5  and  C_23
    4  A    between atoms: C_5  and  C_33
    5  A    between atoms: C_6  and  C_31
    6  A    between atoms: O_17  and  C_26
    7  A    between atoms: O_17  and  C_33
    8  A    between atoms: C_31  and  N_37
                            x       y       z     vdW  Elec       q    Type
                         _______ _______ _______ _____ _____    ______ ____

>  <TORSDO>
F 8

$$$$
=
 OpenBabel11052415233D

 37 42  0  0  1  0  0  0  0  0999 V2000
  180.6050  178.2120  143.9420 C   0  0  0  0  0  2  0  0  0  0  0  0
  183.4400  178.5210  140.5840 N   0  0  0  0  0  0  0  0  0  0  0  0
  182.2380  175.5160  139.7120 C   0  0  0  0  0  2  0  0  0  0  0  0
  182.8140  179.0690  142.9540 C   0  0  2  0  0  3  0  0  0  0  0  0
  182.7990  178.2980  139.2980 C   0  0  1  0  0  3  0  0  0  0  0  0
  182.5360  178.2380  141.6850 C   0  0  1  0  0  3  0  0  0  0  0  0
  183.5600  177.2780  138.4870 C   0  0  0  0  0  0  0  0  0  0  0  0
  184.3130  179.1140  143.2400 C   0  0  0  0  0  2  0  0  0  0  0  0
  181.1250  178.3160  141.0820 C   0  0  1  0  0  3  0  0  0  0  0  0
  180.3640  180.4800  142.7800 C   0  0  0  0  0  2  0  0  0  0  0  0
  185.3420  179.6310  139.7820 O   0  0  0  0  0  0  0  0  0  0  0  0
  185.0380  179.6410  142.0890 N   0  0  0  0  0  2  0  0  0  0  0  0
  180.3640  179.9930  141.0140 S   0  0  0  0  0  0  0  0  0  0  0  0
  183.3190  175.7970  138.6750 C   0  0  0  0  0  2  0  0  0  0  0  0
  184.6500  179.2660  140.7680 C   0  0  0  0  0  0  0  0  0  0  0  0
  181.3430  177.8910  139.6330 C   0  0  2  0  0  3  0  0  0  0  0  0
  182.0910  178.5020  144.1840 C   0  0  0  0  0  2  0  0  0  0  0  0
  179.7450  179.4610  143.7330 C   0  0  0  0  0  2  0  0  0  0  0  0
  181.0160  176.3980  139.4740 C   0  0  1  0  0  3  0  0  0  0  0  0
  184.4350  177.7080  137.6430 N   0  0  0  0  0  0  0  0  0  0  0  0
  180.4720  176.1580  138.1980 O   0  0  0  0  0  0  0  0  0  0  0  0
  179.3200  175.3490  138.3330 C   0  0  2  0  0  3  0  0  0  0  0  0
  178.9540  175.0690  139.7910 C   0  0  0  0  0  2  0  0  0  0  0  0
  179.4030  173.4840  141.6360 C   0  0  0  0  0  1  0  0  0  0  0  0
  179.2350  173.6190  140.1380 C   0  0  0  0  0  2  0  0  0  0  0  0
  179.4380  174.1540  137.6130 O   0  0  0  0  0  0  0  0  0  0  0  0
  181.2860  173.1380  136.5740 C   0  0  0  0  0  2  0  0  0  0  0  0
  180.4880  174.3740  136.7200 C   0  0  1  0  0  3  0  0  0  0  0  0
  180.3360  173.5210  135.6100 O   0  0  0  0  0  0  0  0  0  0  0  0
  185.2390  176.8350  136.8190 C   0  0  0  0  0  2  0  0  0  0  0  0
  187.4920  176.4870  136.0510 O   0  0  0  0  0  0  0  0  0  0  0  0
  186.5990  177.4600  136.5400 C   0  0  2  0  0  3  0  0  0  0  0  0
  187.1630  178.1140  137.8050 C   0  0  0  0  0  2  0  0  0  0  0  0
  189.1310  179.1740  138.6490 O   0  0  0  0  0  1  0  0  0  0  0  0
  189.4040  177.7810  136.7270 C   0  0  0  0  0  2  0  0  0  0  0  0
  188.5040  178.7610  137.4740 C   0  0  1  0  0  3  0  0  0  0  0  0
  188.6190  177.1750  135.5640 C   0  0  0  0  0  2  0  0  0  0  0  0
  1 17  1  0  0  0  0
  2 15  1  0  0  0  0
  4  8  1  1  0  0  0
  4 17  1  0  0  0  0
  5  7  1  1  0  0  0
  5 16  1  0  0  0  0
  5  2  1  0  0  0  0
  6  2  1  6  0  0  0
  6  4  1  0  0  0  0
  7 14  1  0  0  0  0
  9 13  1  6  0  0  0
  9  6  1  0  0  0  0
 10 18  1  0  0  0  0
 11 15  2  0  0  0  0
 12  8  1  0  0  0  0
 13 10  1  0  0  0  0
 14  3  1  0  0  0  0
 15 12  1  0  0  0  0
 16  9  1  0  0  0  0
 18  1  1  0  0  0  0
 19 16  1  0  0  0  0
 19  3  1  0  0  0  0
 20  7  2  0  0  0  0
 21 22  1  0  0  0  0
 21 19  1  0  0  0  0
 22 23  1  0  0  0  0
 23 25  1  0  0  0  0
 25 24  1  0  0  0  0
 26 22  1  0  0  0  0
 27 28  1  0  0  0  0
 28 26  1  0  0  0  0
 29 27  1  0  0  0  0
 29 28  1  0  0  0  0
 30 20  1  0  0  0  0
 31 32  1  0  0  0  0
 32 30  1  0  0  0  0
 32 33  1  0  0  0  0
 35 36  1  0  0  0  0
 36 33  1  0  0  0  0
 36 34  1  0  0  0  0
 37 31  1  0  0  0  0
 37 35  1  0  0  0  0
M  END
>  <MODEL>
6

>  <REMARK>
 VINA RESULT:      -5.6      3.656      7.671
  Name = 
  8 active torsions:
  status: ('A' for Active; 'I' for Inactive)
    1  A    between atoms: O_1  and  C_33
    2  A    between atoms: O_1  and  C_36
    3  A    between atoms: C_5  and  C_23
    4  A    between atoms: C_5  and  C_33
    5  A    between atoms: C_6  and  C_31
    6  A    between atoms: O_17  and  C_26
    7  A    between atoms: O_17  and  C_33
    8  A    between atoms: C_31  and  N_37
                            x       y       z     vdW  Elec       q    Type
                         _______ _______ _______ _____ _____    ______ ____

>  <TORSDO>
F 8

$$$$
=
 OpenBabel11052415233D

 37 42  0  0  1  0  0  0  0  0999 V2000
  188.6840  176.9590  140.9380 C   0  0  0  0  0  2  0  0  0  0  0  0
  191.8390  176.3010  137.9340 N   0  0  0  0  0  0  0  0  0  0  0  0
  190.1480  173.4920  137.2410 C   0  0  0  0  0  2  0  0  0  0  0  0
  191.1070  177.2510  140.1400 C   0  0  2  0  0  3  0  0  0  0  0  0
  191.2960  176.0430  136.6110 C   0  0  1  0  0  3  0  0  0  0  0  0
  190.7930  176.3350  138.9410 C   0  0  1  0  0  3  0  0  0  0  0  0
  191.9120  174.8040  136.0080 C   0  0  0  0  0  0  0  0  0  0  0  0
  192.5490  177.0480  140.6000 C   0  0  0  0  0  2  0  0  0  0  0  0
  189.4920  176.6010  138.1670 C   0  0  1  0  0  3  0  0  0  0  0  0
  189.0210  179.0670  139.5260 C   0  0  0  0  0  2  0  0  0  0  0  0
  193.9950  176.9220  137.2570 O   0  0  0  0  0  0  0  0  0  0  0  0
  193.4750  177.2800  139.4960 N   0  0  0  0  0  2  0  0  0  0  0  0
  189.0960  178.3700  137.8330 S   0  0  0  0  0  0  0  0  0  0  0  0
  191.3590  173.4310  136.3190 C   0  0  0  0  0  2  0  0  0  0  0  0
  193.1510  176.8210  138.1850 C   0  0  0  0  0  0  0  0  0  0  0  0
  189.7620  175.9640  136.8080 C   0  0  2  0  0  3  0  0  0  0  0  0
  190.1680  176.9910  141.3270 C   0  0  0  0  0  2  0  0  0  0  0  0
  188.1190  178.3110  140.4970 C   0  0  0  0  0  2  0  0  0  0  0  0
  189.1570  174.5520  136.7660 C   0  0  1  0  0  3  0  0  0  0  0  0
  192.9340  174.9510  135.2360 N   0  0  0  0  0  0  0  0  0  0  0  0
  188.7040  174.2600  135.4660 O   0  0  0  0  0  0  0  0  0  0  0  0
  187.2920  174.3390  135.4420 C   0  0  2  0  0  3  0  0  0  0  0  0
  186.7780  175.6470  134.8410 C   0  0  0  0  0  2  0  0  0  0  0  0
  184.7900  176.9200  135.5790 C   0  0  0  0  0  1  0  0  0  0  0  0
  186.2140  176.5440  135.9260 C   0  0  0  0  0  2  0  0  0  0  0  0
  186.7390  174.1250  136.7110 O   0  0  0  0  0  0  0  0  0  0  0  0
  184.9430  172.9140  137.6250 C   0  0  0  0  0  2  0  0  0  0  0  0
  185.9930  172.9520  136.5840 C   0  0  1  0  0  3  0  0  0  0  0  0
  184.6550  173.2860  136.3000 O   0  0  0  0  0  0  0  0  0  0  0  0
  193.6210  173.8450  134.6110 C   0  0  0  0  0  2  0  0  0  0  0  0
  194.8900  172.9700  136.4580 O   0  0  0  0  0  0  0  0  0  0  0  0
  194.9990  173.6500  135.2290 C   0  0  2  0  0  3  0  0  0  0  0  0
  195.6990  174.9980  135.4260 C   0  0  0  0  0  2  0  0  0  0  0  0
  197.6550  175.9710  136.3930 O   0  0  0  0  0  1  0  0  0  0  0  0
  197.0100  173.8220  137.2130 C   0  0  0  0  0  2  0  0  0  0  0  0
  197.0880  174.7570  136.0100 C   0  0  1  0  0  3  0  0  0  0  0  0
  196.1930  172.5880  136.8310 C   0  0  0  0  0  2  0  0  0  0  0  0
  1 17  1  0  0  0  0
  2 15  1  0  0  0  0
  4  8  1  1  0  0  0
  4 17  1  0  0  0  0
  5  7  1  1  0  0  0
  5 16  1  0  0  0  0
  5  2  1  0  0  0  0
  6  2  1  6  0  0  0
  6  4  1  0  0  0  0
  7 14  1  0  0  0  0
  9 13  1  6  0  0  0
  9  6  1  0  0  0  0
 10 18  1  0  0  0  0
 11 15  2  0  0  0  0
 12  8  1  0  0  0  0
 13 10  1  0  0  0  0
 14  3  1  0  0  0  0
 15 12  1  0  0  0  0
 16  9  1  0  0  0  0
 18  1  1  0  0  0  0
 19 16  1  0  0  0  0
 19  3  1  0  0  0  0
 20  7  2  0  0  0  0
 21 19  1  0  0  0  0
 22 21  1  0  0  0  0
 22 26  1  0  0  0  0
 23 22  1  0  0  0  0
 23 25  1  0  0  0  0
 24 25  1  0  0  0  0
 28 26  1  0  0  0  0
 28 27  1  0  0  0  0
 29 28  1  0  0  0  0
 29 27  1  0  0  0  0
 30 32  1  0  0  0  0
 30 20  1  0  0  0  0
 31 37  1  0  0  0  0
 32 33  1  0  0  0  0
 32 31  1  0  0  0  0
 33 36  1  0  0  0  0
 36 34  1  0  0  0  0
 36 35  1  0  0  0  0
 37 35  1  0  0  0  0
M  END
>  <MODEL>
7

>  <REMARK>
 VINA RESULT:      -5.5      6.472     11.496
  Name = 
  8 active torsions:
  status: ('A' for Active; 'I' for Inactive)
    1  A    between atoms: O_1  and  C_33
    2  A    between atoms: O_1  and  C_36
    3  A    between atoms: C_5  and  C_23
    4  A    between atoms: C_5  and  C_33
    5  A    between atoms: C_6  and  C_31
    6  A    between atoms: O_17  and  C_26
    7  A    between atoms: O_17  and  C_33
    8  A    between atoms: C_31  and  N_37
                            x       y       z     vdW  Elec       q    Type
                         _______ _______ _______ _____ _____    ______ ____

>  <TORSDO>
F 8

$$$$
=
 OpenBabel11052415233D

 37 42  0  0  1  0  0  0  0  0999 V2000
  180.4540  177.1070  139.8560 C   0  0  0  0  0  2  0  0  0  0  0  0
  184.4810  177.5780  138.1300 N   0  0  0  0  0  0  0  0  0  0  0  0
  184.3300  174.2590  137.6870 C   0  0  0  0  0  2  0  0  0  0  0  0
  182.7060  178.3370  139.7360 C   0  0  2  0  0  3  0  0  0  0  0  0
  184.5890  176.9780  136.8110 C   0  0  1  0  0  3  0  0  0  0  0  0
  183.2110  177.2580  138.7570 C   0  0  1  0  0  3  0  0  0  0  0  0
  185.7950  176.0730  136.7290 C   0  0  0  0  0  0  0  0  0  0  0  0
  183.8490  178.8250  140.6230 C   0  0  0  0  0  2  0  0  0  0  0  0
  182.2780  176.8550  137.6040 C   0  0  1  0  0  3  0  0  0  0  0  0
  180.4670  178.9980  138.1300 C   0  0  0  0  0  2  0  0  0  0  0  0
  186.3380  178.9980  137.9670 O   0  0  0  0  0  0  0  0  0  0  0  0
  184.9520  179.3210  139.8080 N   0  0  0  0  0  2  0  0  0  0  0  0
  181.4010  178.2350  136.7510 S   0  0  0  0  0  0  0  0  0  0  0  0
  185.7210  174.6360  137.1930 C   0  0  0  0  0  2  0  0  0  0  0  0
  185.3180  178.6370  138.6110 C   0  0  0  0  0  0  0  0  0  0  0  0
  183.2360  176.2630  136.5750 C   0  0  2  0  0  3  0  0  0  0  0  0
  181.5710  177.8170  140.6310 C   0  0  0  0  0  2  0  0  0  0  0  0
  179.6270  178.0290  138.9570 C   0  0  0  0  0  2  0  0  0  0  0  0
  183.2600  174.7320  136.7070 C   0  0  1  0  0  3  0  0  0  0  0  0
  186.8930  176.5680  136.2690 N   0  0  0  0  0  0  0  0  0  0  0  0
  183.4490  174.1430  135.4430 O   0  0  0  0  0  0  0  0  0  0  0  0
  182.4000  173.2270  135.1990 C   0  0  2  0  0  3  0  0  0  0  0  0
  181.4520  173.0750  136.3890 C   0  0  0  0  0  2  0  0  0  0  0  0
  179.4930  174.5610  136.6580 C   0  0  0  0  0  1  0  0  0  0  0  0
  180.0190  173.3260  135.9590 C   0  0  0  0  0  2  0  0  0  0  0  0
  182.8860  171.9780  134.7900 O   0  0  0  0  0  0  0  0  0  0  0  0
  183.5580  169.8990  135.6570 C   0  0  0  0  0  2  0  0  0  0  0  0
  183.0470  171.2500  135.9710 C   0  0  1  0  0  3  0  0  0  0  0  0
  184.4070  170.9180  136.1240 O   0  0  0  0  0  0  0  0  0  0  0  0
  188.1170  175.8120  136.1540 C   0  0  0  0  0  2  0  0  0  0  0  0
  190.3680  175.6330  136.9860 O   0  0  0  0  0  0  0  0  0  0  0  0
  189.2290  176.4610  136.9680 C   0  0  2  0  0  3  0  0  0  0  0  0
  188.7550  176.7470  138.3970 C   0  0  0  0  0  2  0  0  0  0  0  0
  189.5490  177.5050  140.5180 O   0  0  0  0  0  1  0  0  0  0  0  0
  191.1890  176.6630  138.9990 C   0  0  0  0  0  2  0  0  0  0  0  0
  189.8810  177.4300  139.1660 C   0  0  1  0  0  3  0  0  0  0  0  0
  191.4240  176.4020  137.5110 C   0  0  0  0  0  2  0  0  0  0  0  0
  1 17  1  0  0  0  0
  2 15  1  0  0  0  0
  4  8  1  1  0  0  0
  4 17  1  0  0  0  0
  5  7  1  1  0  0  0
  5  2  1  0  0  0  0
  6  2  1  6  0  0  0
  6  4  1  0  0  0  0
  7 14  1  0  0  0  0
  9 13  1  6  0  0  0
  9  6  1  0  0  0  0
 10 18  1  0  0  0  0
 11 15  2  0  0  0  0
 12  8  1  0  0  0  0
 13 10  1  0  0  0  0
 14  3  1  0  0  0  0
 15 12  1  0  0  0  0
 16 19  1  0  0  0  0
 16  5  1  0  0  0  0
 16  9  1  0  0  0  0
 18  1  1  0  0  0  0
 19  3  1  0  0  0  0
 20  7  2  0  0  0  0
 21 19  1  0  0  0  0
 22 21  1  0  0  0  0
 22 23  1  0  0  0  0
 25 23  1  0  0  0  0
 25 24  1  0  0  0  0
 26 22  1  0  0  0  0
 26 28  1  0  0  0  0
 27 28  1  0  0  0  0
 27 29  1  0  0  0  0
 28 29  1  0  0  0  0
 30 20  1  0  0  0  0
 30 32  1  0  0  0  0
 31 37  1  0  0  0  0
 32 31  1  0  0  0  0
 32 33  1  0  0  0  0
 33 36  1  0  0  0  0
 35 36  1  0  0  0  0
 36 34  1  0  0  0  0
 37 35  1  0  0  0  0
M  END
>  <MODEL>
8

>  <REMARK>
 VINA RESULT:      -5.4      3.296      8.144
  Name = 
  8 active torsions:
  status: ('A' for Active; 'I' for Inactive)
    1  A    between atoms: O_1  and  C_33
    2  A    between atoms: O_1  and  C_36
    3  A    between atoms: C_5  and  C_23
    4  A    between atoms: C_5  and  C_33
    5  A    between atoms: C_6  and  C_31
    6  A    between atoms: O_17  and  C_26
    7  A    between atoms: O_17  and  C_33
    8  A    between atoms: C_31  and  N_37
                            x       y       z     vdW  Elec       q    Type
                         _______ _______ _______ _____ _____    ______ ____

>  <TORSDO>
F 8

$$$$
=
 OpenBabel11052415233D

 37 42  0  0  1  0  0  0  0  0999 V2000
  191.7530  177.9960  143.5980 C   0  0  0  0  0  2  0  0  0  0  0  0
  187.4640  177.8260  144.5930 N   0  0  0  0  0  0  0  0  0  0  0  0
  187.1120  179.9520  142.0260 C   0  0  0  0  0  2  0  0  0  0  0  0
  189.8670  177.7030  145.3150 C   0  0  2  0  0  3  0  0  0  0  0  0
  186.6430  177.5010  143.4390 C   0  0  1  0  0  3  0  0  0  0  0  0
  188.8470  178.0560  144.2130 C   0  0  1  0  0  3  0  0  0  0  0  0
  185.5050  178.4820  143.2940 C   0  0  0  0  0  0  0  0  0  0  0  0
  189.3890  178.2280  146.6670 C   0  0  0  0  0  2  0  0  0  0  0  0
  189.0130  177.3700  142.8480 C   0  0  1  0  0  3  0  0  0  0  0  0
  190.9910  175.5640  143.8360 C   0  0  0  0  0  2  0  0  0  0  0  0
  185.9050  177.2460  146.2440 O   0  0  0  0  0  0  0  0  0  0  0  0
  188.0640  177.7040  146.9800 N   0  0  0  0  0  2  0  0  0  0  0  0
  189.4230  175.5730  142.8880 S   0  0  0  0  0  0  0  0  0  0  0  0
  185.7000  179.7980  142.5750 C   0  0  0  0  0  2  0  0  0  0  0  0
  187.0800  177.5930  145.9540 C   0  0  0  0  0  0  0  0  0  0  0  0
  187.6190  177.4730  142.2380 C   0  0  2  0  0  3  0  0  0  0  0  0
  191.2570  178.2830  145.0210 C   0  0  0  0  0  2  0  0  0  0  0  0
  192.0620  176.5230  143.3230 C   0  0  0  0  0  2  0  0  0  0  0  0
  187.5520  178.6850  141.2960 C   0  0  1  0  0  3  0  0  0  0  0  0
  184.3690  178.1720  143.8200 N   0  0  0  0  0  0  0  0  0  0  0  0
  186.6900  178.4100  140.2180 O   0  0  0  0  0  0  0  0  0  0  0  0
  187.4590  178.2590  139.0400 C   0  0  2  0  0  3  0  0  0  0  0  0
  186.6110  178.2630  137.7690 C   0  0  0  0  0  2  0  0  0  0  0  0
  184.4400  177.0890  137.6030 C   0  0  0  0  0  1  0  0  0  0  0  0
  185.1360  178.3310  138.1150 C   0  0  0  0  0  2  0  0  0  0  0  0
  188.2690  177.1170  139.0930 O   0  0  0  0  0  0  0  0  0  0  0  0
  190.5560  176.5930  139.2400 C   0  0  0  0  0  2  0  0  0  0  0  0
  189.5500  177.5690  138.7710 C   0  0  1  0  0  3  0  0  0  0  0  0
  190.1560  176.6490  137.8930 O   0  0  0  0  0  0  0  0  0  0  0  0
  183.2090  179.0300  143.7640 C   0  0  0  0  0  2  0  0  0  0  0  0
  182.8570  178.5450  141.4330 O   0  0  0  0  0  0  0  0  0  0  0  0
  182.2350  178.5490  142.6970 C   0  0  2  0  0  3  0  0  0  0  0  0
  180.9820  179.4310  142.6710 C   0  0  0  0  0  2  0  0  0  0  0  0
  178.9730  179.7990  141.4310 O   0  0  0  0  0  1  0  0  0  0  0  0
  180.7400  178.6590  140.2960 C   0  0  0  0  0  2  0  0  0  0  0  0
  180.0170  178.8940  141.6190 C   0  0  1  0  0  3  0  0  0  0  0  0
  182.0050  177.8420  140.5600 C   0  0  0  0  0  2  0  0  0  0  0  0
  1 17  1  0  0  0  0
  2 15  1  0  0  0  0
  3 14  1  0  0  0  0
  4 17  1  6  0  0  0
  4  8  1  0  0  0  0
  5  7  1  6  0  0  0
  5  2  1  0  0  0  0
  6  2  1  1  0  0  0
  6  4  1  0  0  0  0
  7 20  2  0  0  0  0
  8 12  1  0  0  0  0
  9 13  1  1  0  0  0
  9  6  1  0  0  0  0
 13 10  1  0  0  0  0
 14  7  1  0  0  0  0
 15 11  2  0  0  0  0
 15 12  1  0  0  0  0
 16  9  1  0  0  0  0
 16  5  1  0  0  0  0
 18  1  1  0  0  0  0
 18 10  1  0  0  0  0
 19  3  1  0  0  0  0
 19 16  1  0  0  0  0
 21 19  1  0  0  0  0
 22 26  1  0  0  0  0
 22 21  1  0  0  0  0
 23 25  1  0  0  0  0
 23 22  1  0  0  0  0
 24 25  1  0  0  0  0
 28 26  1  0  0  0  0
 28 27  1  0  0  0  0
 29 28  1  0  0  0  0
 29 27  1  0  0  0  0
 30 20  1  0  0  0  0
 31 32  1  0  0  0  0
 32 30  1  0  0  0  0
 33 32  1  0  0  0  0
 34 36  1  0  0  0  0
 35 37  1  0  0  0  0
 35 36  1  0  0  0  0
 36 33  1  0  0  0  0
 37 31  1  0  0  0  0
M  END
>  <MODEL>
9

>  <REMARK>
 VINA RESULT:      -5.4      4.446      8.039
  Name = 
  8 active torsions:
  status: ('A' for Active; 'I' for Inactive)
    1  A    between atoms: O_1  and  C_33
    2  A    between atoms: O_1  and  C_36
    3  A    between atoms: C_5  and  C_23
    4  A    between atoms: C_5  and  C_33
    5  A    between atoms: C_6  and  C_31
    6  A    between atoms: O_17  and  C_26
    7  A    between atoms: O_17  and  C_33
    8  A    between atoms: C_31  and  N_37
                            x       y       z     vdW  Elec       q    Type
                         _______ _______ _______ _____ _____    ______ ____

>  <TORSDO>
F 8

$$$$
