=
 OpenBabel11052412463D

 25 29  0  0  1  0  0  0  0  0999 V2000
  187.2220  177.9540  145.7550 C   0  0  0  0  0  0  0  0  0  0  0  0
  188.5400  177.6550  145.4230 C   0  0  0  0  0  0  0  0  0  0  0  0
  187.6690  177.7210  148.0740 N   0  0  0  0  0  0  0  0  0  0  0  0
  186.1040  178.2780  145.0220 C   0  0  0  0  0  0  0  0  0  0  0  0
  190.3100  176.9470  143.7590 C   0  0  2  0  0  0  0  0  0  0  0  0
  183.5590  178.9550  144.1740 C   0  0  0  0  0  3  0  0  0  0  0  0
  188.9450  177.4330  147.7880 N   0  0  0  0  0  0  0  0  0  0  0  0
  185.0950  178.4700  145.9470 C   0  0  0  0  0  0  0  0  0  0  0  0
  183.8030  178.8120  145.5530 C   0  0  0  0  0  3  0  0  0  0  0  0
  190.8210  177.0440  146.2390 C   0  0  0  0  0  0  0  0  0  0  0  0
  191.6530  177.0720  147.1840 O   0  0  0  0  0  0  0  0  0  0  0  0
  189.0280  177.7470  144.0090 C   0  0  0  0  0  2  0  0  0  0  0  0
  184.5940  178.7580  143.2320 C   0  0  0  0  0  3  0  0  0  0  0  0
  186.8090  177.9790  147.0630 C   0  0  0  0  0  0  0  0  0  0  0  0
  185.5340  178.2870  147.1770 O   0  0  0  0  0  0  0  0  0  0  0  0
  191.2830  176.5960  144.8830 C   0  0  2  0  0  3  0  0  0  0  0  0
  185.8900  178.4130  143.6520 C   0  0  0  0  0  3  0  0  0  0  0  0
  191.5420  177.7970  143.9850 C   0  0  0  0  0  2  0  0  0  0  0  0
  189.4140  177.3890  146.4980 C   0  0  0  0  0  0  0  0  0  0  0  0
  190.4170  176.1290  142.4870 C   0  0  0  0  0  2  0  0  0  0  0  0
  190.9210  176.9970  141.3460 C   0  0  0  0  0  2  0  0  0  0  0  0
  189.0200  177.5100  139.7600 C   0  0  0  0  0  0  0  0  0  0  0  0
  188.6490  178.4900  140.4600 O   0  0  0  0  0  0  0  0  0  0  0  0
  188.2710  177.1640  138.5240 C   0  0  0  0  0  1  0  0  0  0  0  0
  190.1550  176.7300  140.1390 N   0  0  0  0  0  2  0  0  0  0  0  0
  1 14  1  0  0  0  0
  2  1  2  0  0  0  0
  2 19  1  0  0  0  0
  4  1  1  0  0  0  0
  4  8  1  0  0  0  0
  5 20  1  6  0  0  0
  5 18  1  0  0  0  0
  5 12  1  0  0  0  0
  5 16  1  0  0  0  0
  6  9  1  0  0  0  0
  7  3  1  0  0  0  0
  8 15  1  0  0  0  0
  9  8  2  0  0  0  0
 10 19  1  0  0  0  0
 10 11  2  0  0  0  0
 12  2  1  0  0  0  0
 13 17  1  0  0  0  0
 13  6  2  0  0  0  0
 14 15  1  0  0  0  0
 14  3  2  0  0  0  0
 16 18  1  6  0  0  0
 16 10  1  0  0  0  0
 17  4  2  0  0  0  0
 19  7  2  0  0  0  0
 21 20  1  0  0  0  0
 22 25  1  0  0  0  0
 22 23  2  0  0  0  0
 24 22  1  0  0  0  0
 25 21  1  0  0  0  0
M  END
>  <MODEL>
1

>  <REMARK>
 VINA RESULT:     -10.6      0.000      0.000
  Name = 
  3 active torsions:
  status: ('A' for Active; 'I' for Inactive)
    1  A    between atoms: C_6  and  C_15
    2  A    between atoms: C_15  and  C_25
    3  A    between atoms: N_21  and  C_25
                            x       y       z     vdW  Elec       q    Type
                         _______ _______ _______ _____ _____    ______ ____

>  <TORSDO>
F 3

$$$$
=
 OpenBabel11052412463D

 25 29  0  0  1  0  0  0  0  0999 V2000
  187.9290  177.7770  145.9110 C   0  0  0  0  0  0  0  0  0  0  0  0
  186.8590  178.0760  145.0720 C   0  0  0  0  0  0  0  0  0  0  0  0
  186.7180  178.4660  147.8320 N   0  0  0  0  0  0  0  0  0  0  0  0
  189.1880  177.2630  145.7040 C   0  0  0  0  0  0  0  0  0  0  0  0
  185.8930  178.5480  142.7810 C   0  0  2  0  0  0  0  0  0  0  0  0
  191.7700  176.3050  145.9760 C   0  0  0  0  0  3  0  0  0  0  0  0
  185.6710  178.7610  147.0520 N   0  0  0  0  0  0  0  0  0  0  0  0
  189.7730  177.1960  146.9550 C   0  0  0  0  0  0  0  0  0  0  0  0
  191.0710  176.7190  147.1260 C   0  0  0  0  0  3  0  0  0  0  0  0
  184.5270  178.9480  144.8780 C   0  0  0  0  0  0  0  0  0  0  0  0
  183.4160  179.1420  145.4390 O   0  0  0  0  0  0  0  0  0  0  0  0
  186.8980  177.7440  143.6100 C   0  0  0  0  0  2  0  0  0  0  0  0
  191.1670  176.3740  144.7000 C   0  0  0  0  0  3  0  0  0  0  0  0
  187.8440  177.9770  147.2650 C   0  0  0  0  0  0  0  0  0  0  0  0
  188.9510  177.6310  147.8890 O   0  0  0  0  0  0  0  0  0  0  0  0
  184.6320  179.1550  143.3950 C   0  0  2  0  0  3  0  0  0  0  0  0
  189.8560  176.8590  144.5500 C   0  0  0  0  0  3  0  0  0  0  0  0
  184.5690  177.8210  142.6650 C   0  0  0  0  0  2  0  0  0  0  0  0
  185.6980  178.5850  145.6900 C   0  0  0  0  0  0  0  0  0  0  0  0
  186.3410  179.1150  141.4490 C   0  0  0  0  0  2  0  0  0  0  0  0
  187.6730  178.5090  141.0420 C   0  0  0  0  0  2  0  0  0  0  0  0
  189.0870  178.2990  138.9560 C   0  0  0  0  0  0  0  0  0  0  0  0
  190.0700  177.8720  139.6170 O   0  0  0  0  0  0  0  0  0  0  0  0
  189.2070  178.4640  137.4830 C   0  0  0  0  0  1  0  0  0  0  0  0
  187.8560  178.6240  139.6030 N   0  0  0  0  0  2  0  0  0  0  0  0
  1 14  1  0  0  0  0
  2 19  1  0  0  0  0
  2  1  2  0  0  0  0
  4  1  1  0  0  0  0
  4  8  1  0  0  0  0
  5 20  1  6  0  0  0
  5 16  1  0  0  0  0
  5 12  1  0  0  0  0
  6  9  1  0  0  0  0
  7  3  1  0  0  0  0
  8  9  2  0  0  0  0
  8 15  1  0  0  0  0
 10 11  2  0  0  0  0
 10 19  1  0  0  0  0
 12  2  1  0  0  0  0
 13  6  2  0  0  0  0
 14  3  2  0  0  0  0
 14 15  1  0  0  0  0
 16 18  1  6  0  0  0
 16 10  1  0  0  0  0
 17 13  1  0  0  0  0
 17  4  2  0  0  0  0
 18  5  1  0  0  0  0
 19  7  2  0  0  0  0
 21 20  1  0  0  0  0
 22 25  1  0  0  0  0
 22 23  2  0  0  0  0
 24 22  1  0  0  0  0
 25 21  1  0  0  0  0
M  END
>  <MODEL>
2

>  <REMARK>
 VINA RESULT:     -10.5      1.660      4.894
  Name = 
  3 active torsions:
  status: ('A' for Active; 'I' for Inactive)
    1  A    between atoms: C_6  and  C_15
    2  A    between atoms: C_15  and  C_25
    3  A    between atoms: N_21  and  C_25
                            x       y       z     vdW  Elec       q    Type
                         _______ _______ _______ _____ _____    ______ ____

>  <TORSDO>
F 3

$$$$
=
 OpenBabel11052412463D

 25 29  0  0  1  0  0  0  0  0999 V2000
  186.9440  178.2060  142.7910 C   0  0  0  0  0  0  0  0  0  0  0  0
  188.2500  177.7240  142.7570 C   0  0  0  0  0  0  0  0  0  0  0  0
  186.9420  178.5890  140.4480 N   0  0  0  0  0  0  0  0  0  0  0  0
  186.0150  178.3730  143.7910 C   0  0  0  0  0  0  0  0  0  0  0  0
  190.4270  177.1170  143.8950 C   0  0  2  0  0  0  0  0  0  0  0  0
  183.7570  178.9520  145.2810 C   0  0  0  0  0  3  0  0  0  0  0  0
  188.1970  178.1290  140.3830 N   0  0  0  0  0  0  0  0  0  0  0  0
  184.8930  178.8930  143.1730 C   0  0  0  0  0  0  0  0  0  0  0  0
  183.7400  179.1960  143.8950 C   0  0  0  0  0  3  0  0  0  0  0  0
  190.2630  177.2190  141.3680 C   0  0  0  0  0  0  0  0  0  0  0  0
  190.7250  176.9390  140.2300 O   0  0  0  0  0  0  0  0  0  0  0  0
  188.8980  177.1440  143.9770 C   0  0  0  0  0  2  0  0  0  0  0  0
  184.9060  178.4200  145.9080 C   0  0  0  0  0  3  0  0  0  0  0  0
  186.3170  178.6300  141.6470 C   0  0  0  0  0  0  0  0  0  0  0  0
  185.0880  179.0440  141.8780 O   0  0  0  0  0  0  0  0  0  0  0  0
  191.1700  177.1160  142.5600 C   0  0  2  0  0  3  0  0  0  0  0  0
  186.0590  178.1230  145.1600 C   0  0  0  0  0  3  0  0  0  0  0  0
  190.9230  175.8130  143.3060 C   0  0  0  0  0  2  0  0  0  0  0  0
  188.8770  177.6940  141.4930 C   0  0  0  0  0  0  0  0  0  0  0  0
  191.2260  177.5210  145.1170 C   0  0  0  0  0  2  0  0  0  0  0  0
  190.8170  176.6790  146.3140 C   0  0  0  0  0  2  0  0  0  0  0  0
  188.8720  177.3250  147.7950 C   0  0  0  0  0  0  0  0  0  0  0  0
  188.1650  176.3840  147.3450 O   0  0  0  0  0  0  0  0  0  0  0  0
  188.3090  178.2390  148.8230 C   0  0  0  0  0  1  0  0  0  0  0  0
  190.2090  177.5210  147.3330 N   0  0  0  0  0  2  0  0  0  0  0  0
  1  4  1  0  0  0  0
  2  1  2  0  0  0  0
  2 12  1  0  0  0  0
  3 14  2  0  0  0  0
  4 17  1  0  0  0  0
  5 12  1  0  0  0  0
  5 20  1  1  0  0  0
  6 13  1  0  0  0  0
  7  3  1  0  0  0  0
  7 19  2  0  0  0  0
  8  4  2  0  0  0  0
  8  9  1  0  0  0  0
  9  6  2  0  0  0  0
 10 19  1  0  0  0  0
 10 16  1  0  0  0  0
 11 10  2  0  0  0  0
 14 15  1  0  0  0  0
 14  1  1  0  0  0  0
 15  8  1  0  0  0  0
 16 18  1  6  0  0  0
 16  5  1  0  0  0  0
 17 13  2  0  0  0  0
 18  5  1  0  0  0  0
 19  2  1  0  0  0  0
 20 21  1  0  0  0  0
 21 25  1  0  0  0  0
 22 24  1  0  0  0  0
 23 22  2  0  0  0  0
 25 22  1  0  0  0  0
M  END
>  <MODEL>
3

>  <REMARK>
 VINA RESULT:      -9.9      1.763      5.036
  Name = 
  3 active torsions:
  status: ('A' for Active; 'I' for Inactive)
    1  A    between atoms: C_6  and  C_15
    2  A    between atoms: C_15  and  C_25
    3  A    between atoms: N_21  and  C_25
                            x       y       z     vdW  Elec       q    Type
                         _______ _______ _______ _____ _____    ______ ____

>  <TORSDO>
F 3

$$$$
=
 OpenBabel11052412463D

 25 29  0  0  1  0  0  0  0  0999 V2000
  186.4220  178.4160  142.5620 C   0  0  0  0  0  0  0  0  0  0  0  0
  187.6970  178.0700  142.1250 C   0  0  0  0  0  0  0  0  0  0  0  0
  185.7260  178.9550  140.3580 N   0  0  0  0  0  0  0  0  0  0  0  0
  185.8050  178.4210  143.7910 C   0  0  0  0  0  0  0  0  0  0  0  0
  190.1480  177.6080  142.5550 C   0  0  2  0  0  0  0  0  0  0  0  0
  184.0240  178.6690  145.8950 C   0  0  0  0  0  3  0  0  0  0  0  0
  186.9430  178.6280  139.9060 N   0  0  0  0  0  0  0  0  0  0  0  0
  184.5160  178.8670  143.5590 C   0  0  0  0  0  0  0  0  0  0  0  0
  183.5960  179.0030  144.5960 C   0  0  0  0  0  3  0  0  0  0  0  0
  189.2670  177.8640  140.1930 C   0  0  0  0  0  0  0  0  0  0  0  0
  189.4070  177.7100  138.9500 O   0  0  0  0  0  0  0  0  0  0  0  0
  188.7080  177.4760  143.0590 C   0  0  0  0  0  2  0  0  0  0  0  0
  185.3410  178.2120  146.1270 C   0  0  0  0  0  3  0  0  0  0  0  0
  185.4650  178.8520  141.6810 C   0  0  0  0  0  0  0  0  0  0  0  0
  184.3240  179.1240  142.2800 O   0  0  0  0  0  0  0  0  0  0  0  0
  190.4790  177.7720  141.0730 C   0  0  2  0  0  3  0  0  0  0  0  0
  186.2540  178.0840  145.0660 C   0  0  0  0  0  3  0  0  0  0  0  0
  190.5550  176.4030  141.7330 C   0  0  0  0  0  2  0  0  0  0  0  0
  187.9410  178.1890  140.7400 C   0  0  0  0  0  0  0  0  0  0  0  0
  191.2270  178.0060  143.5410 C   0  0  0  0  0  2  0  0  0  0  0  0
  190.7210  177.8480  144.9650 C   0  0  0  0  0  2  0  0  0  0  0  0
  191.3140  176.3880  146.9430 C   0  0  0  0  0  0  0  0  0  0  0  0
  190.1190  176.3780  147.3430 O   0  0  0  0  0  0  0  0  0  0  0  0
  192.3540  175.6560  147.7130 C   0  0  0  0  0  1  0  0  0  0  0  0
  191.6810  177.0930  145.7560 N   0  0  0  0  0  2  0  0  0  0  0  0
  1  4  1  0  0  0  0
  2  1  2  0  0  0  0
  2 12  1  0  0  0  0
  3 14  2  0  0  0  0
  4 17  1  0  0  0  0
  5 12  1  0  0  0  0
  5 20  1  1  0  0  0
  6 13  1  0  0  0  0
  7  3  1  0  0  0  0
  7 19  2  0  0  0  0
  8  4  2  0  0  0  0
  8  9  1  0  0  0  0
  9  6  2  0  0  0  0
 10 19  1  0  0  0  0
 10 16  1  0  0  0  0
 11 10  2  0  0  0  0
 14 15  1  0  0  0  0
 14  1  1  0  0  0  0
 15  8  1  0  0  0  0
 16 18  1  6  0  0  0
 16  5  1  0  0  0  0
 17 13  2  0  0  0  0
 18  5  1  0  0  0  0
 19  2  1  0  0  0  0
 20 21  1  0  0  0  0
 21 25  1  0  0  0  0
 22 23  2  0  0  0  0
 22 24  1  0  0  0  0
 25 22  1  0  0  0  0
M  END
>  <MODEL>
4

>  <REMARK>
 VINA RESULT:      -9.8      2.068      5.221
  Name = 
  3 active torsions:
  status: ('A' for Active; 'I' for Inactive)
    1  A    between atoms: C_6  and  C_15
    2  A    between atoms: C_15  and  C_25
    3  A    between atoms: N_21  and  C_25
                            x       y       z     vdW  Elec       q    Type
                         _______ _______ _______ _____ _____    ______ ____

>  <TORSDO>
F 3

$$$$
=
 OpenBabel11052412463D

 25 29  0  0  1  0  0  0  0  0999 V2000
  187.7950  177.7710  145.7490 C   0  0  0  0  0  0  0  0  0  0  0  0
  186.6980  178.0920  144.9550 C   0  0  0  0  0  0  0  0  0  0  0  0
  186.6030  178.2720  147.7390 N   0  0  0  0  0  0  0  0  0  0  0  0
  189.0660  177.3190  145.4800 C   0  0  0  0  0  0  0  0  0  0  0  0
  185.6650  178.6970  142.7250 C   0  0  2  0  0  0  0  0  0  0  0  0
  191.6850  176.4380  145.6310 C   0  0  0  0  0  3  0  0  0  0  0  0
  185.5290  178.5860  147.0030 N   0  0  0  0  0  0  0  0  0  0  0  0
  189.6800  177.1810  146.7110 C   0  0  0  0  0  0  0  0  0  0  0  0
  190.9970  176.7410  146.8210 C   0  0  0  0  0  3  0  0  0  0  0  0
  184.3330  178.8910  144.8720 C   0  0  0  0  0  0  0  0  0  0  0  0
  183.2280  179.0030  145.4670 O   0  0  0  0  0  0  0  0  0  0  0  0
  186.7160  177.8710  143.4730 C   0  0  0  0  0  2  0  0  0  0  0  0
  191.0530  176.5800  144.3750 C   0  0  0  0  0  3  0  0  0  0  0  0
  187.7330  177.8680  147.1150 C   0  0  0  0  0  0  0  0  0  0  0  0
  188.8640  177.5160  147.6910 O   0  0  0  0  0  0  0  0  0  0  0  0
  184.3980  179.2110  143.4070 C   0  0  2  0  0  3  0  0  0  0  0  0
  189.7230  177.0270  144.2870 C   0  0  0  0  0  3  0  0  0  0  0  0
  184.3660  177.9340  142.5800 C   0  0  0  0  0  2  0  0  0  0  0  0
  185.5330  178.5120  145.6320 C   0  0  0  0  0  0  0  0  0  0  0  0
  186.0640  179.3770  141.4310 C   0  0  0  0  0  2  0  0  0  0  0  0
  185.3480  178.7310  140.2560 C   0  0  0  0  0  2  0  0  0  0  0  0
  183.1270  179.6030  139.4190 C   0  0  0  0  0  0  0  0  0  0  0  0
  182.5090  178.6300  139.9280 O   0  0  0  0  0  0  0  0  0  0  0  0
  182.3730  180.6430  138.6710 C   0  0  0  0  0  1  0  0  0  0  0  0
  184.5440  179.7210  139.5570 N   0  0  0  0  0  2  0  0  0  0  0  0
  1 14  1  0  0  0  0
  2 19  1  0  0  0  0
  2  1  2  0  0  0  0
  4  1  1  0  0  0  0
  4  8  1  0  0  0  0
  5 20  1  6  0  0  0
  5 16  1  0  0  0  0
  5 12  1  0  0  0  0
  6  9  1  0  0  0  0
  7  3  1  0  0  0  0
  8  9  2  0  0  0  0
  8 15  1  0  0  0  0
 10 11  2  0  0  0  0
 10 19  1  0  0  0  0
 12  2  1  0  0  0  0
 13  6  2  0  0  0  0
 14 15  1  0  0  0  0
 14  3  2  0  0  0  0
 16 18  1  6  0  0  0
 16 10  1  0  0  0  0
 17 13  1  0  0  0  0
 17  4  2  0  0  0  0
 18  5  1  0  0  0  0
 19  7  2  0  0  0  0
 21 20  1  0  0  0  0
 22 25  1  0  0  0  0
 22 23  2  0  0  0  0
 24 22  1  0  0  0  0
 25 21  1  0  0  0  0
M  END
>  <MODEL>
5

>  <REMARK>
 VINA RESULT:      -9.7      2.642      5.573
  Name = 
  3 active torsions:
  status: ('A' for Active; 'I' for Inactive)
    1  A    between atoms: C_6  and  C_15
    2  A    between atoms: C_15  and  C_25
    3  A    between atoms: N_21  and  C_25
                            x       y       z     vdW  Elec       q    Type
                         _______ _______ _______ _____ _____    ______ ____

>  <TORSDO>
F 3

$$$$
=
 OpenBabel11052412463D

 25 29  0  0  1  0  0  0  0  0999 V2000
  186.0930  178.1960  145.1860 C   0  0  0  0  0  0  0  0  0  0  0  0
  185.3230  178.2990  144.0300 C   0  0  0  0  0  0  0  0  0  0  0  0
  184.2740  178.8740  146.5520 N   0  0  0  0  0  0  0  0  0  0  0  0
  187.3930  177.8250  145.4350 C   0  0  0  0  0  0  0  0  0  0  0  0
  185.0980  178.4790  141.5160 C   0  0  2  0  0  0  0  0  0  0  0  0
  189.8300  177.2130  146.5950 C   0  0  0  0  0  3  0  0  0  0  0  0
  183.5070  178.9810  145.4590 N   0  0  0  0  0  0  0  0  0  0  0  0
  187.5520  177.9240  146.8050 C   0  0  0  0  0  0  0  0  0  0  0  0
  188.7660  177.6230  147.4200 C   0  0  0  0  0  3  0  0  0  0  0  0
  183.1040  178.8640  143.0320 C   0  0  0  0  0  0  0  0  0  0  0  0
  181.8600  178.9620  143.1980 O   0  0  0  0  0  0  0  0  0  0  0  0
  185.8560  177.8670  142.6980 C   0  0  0  0  0  2  0  0  0  0  0  0
  189.6620  177.1130  145.1950 C   0  0  0  0  0  3  0  0  0  0  0  0
  185.5620  178.4850  146.4170 C   0  0  0  0  0  0  0  0  0  0  0  0
  186.4390  178.3230  147.3870 O   0  0  0  0  0  0  0  0  0  0  0  0
  183.6580  178.9720  141.6410 C   0  0  2  0  0  3  0  0  0  0  0  0
  188.4290  177.4220  144.5960 C   0  0  0  0  0  3  0  0  0  0  0  0
  183.9540  177.5900  141.0770 C   0  0  0  0  0  2  0  0  0  0  0  0
  183.9840  178.7080  144.2010 C   0  0  0  0  0  0  0  0  0  0  0  0
  185.8940  178.9960  140.3340 C   0  0  0  0  0  2  0  0  0  0  0  0
  187.2180  178.2590  140.2300 C   0  0  0  0  0  2  0  0  0  0  0  0
  188.3050  177.7680  138.0000 C   0  0  0  0  0  0  0  0  0  0  0  0
  188.0050  176.5470  138.0780 O   0  0  0  0  0  0  0  0  0  0  0  0
  189.0530  178.2670  136.8170 C   0  0  0  0  0  1  0  0  0  0  0  0
  187.9320  178.6800  139.0340 N   0  0  0  0  0  2  0  0  0  0  0  0
  1  4  1  0  0  0  0
  1 14  1  0  0  0  0
  2 19  1  0  0  0  0
  2  1  2  0  0  0  0
  4  8  1  0  0  0  0
  5 20  1  6  0  0  0
  5 16  1  0  0  0  0
  5 12  1  0  0  0  0
  6  9  1  0  0  0  0
  7  3  1  0  0  0  0
  8 15  1  0  0  0  0
  8  9  2  0  0  0  0
 10 11  2  0  0  0  0
 10 19  1  0  0  0  0
 12  2  1  0  0  0  0
 13  6  2  0  0  0  0
 14  3  2  0  0  0  0
 14 15  1  0  0  0  0
 16 18  1  6  0  0  0
 16 10  1  0  0  0  0
 17 13  1  0  0  0  0
 17  4  2  0  0  0  0
 18  5  1  0  0  0  0
 19  7  2  0  0  0  0
 21 20  1  0  0  0  0
 22 23  2  0  0  0  0
 22 25  1  0  0  0  0
 24 22  1  0  0  0  0
 25 21  1  0  0  0  0
M  END
>  <MODEL>
6

>  <REMARK>
 VINA RESULT:      -9.3      2.355      5.243
  Name = 
  3 active torsions:
  status: ('A' for Active; 'I' for Inactive)
    1  A    between atoms: C_6  and  C_15
    2  A    between atoms: C_15  and  C_25
    3  A    between atoms: N_21  and  C_25
                            x       y       z     vdW  Elec       q    Type
                         _______ _______ _______ _____ _____    ______ ____

>  <TORSDO>
F 3

$$$$
=
 OpenBabel11052412463D

 25 29  0  0  1  0  0  0  0  0999 V2000
  188.4190  177.5450  142.8140 C   0  0  0  0  0  0  0  0  0  0  0  0
  188.8690  177.5740  141.4970 C   0  0  0  0  0  0  0  0  0  0  0  0
  190.5370  176.8240  143.6060 N   0  0  0  0  0  0  0  0  0  0  0  0
  187.2190  177.8400  143.4180 C   0  0  0  0  0  0  0  0  0  0  0  0
  188.4480  177.6240  139.0020 C   0  0  2  0  0  0  0  0  0  0  0  0
  185.1490  178.2510  145.2080 C   0  0  0  0  0  3  0  0  0  0  0  0
  191.0010  176.8440  142.3500 N   0  0  0  0  0  0  0  0  0  0  0  0
  187.4160  177.6170  144.7680 C   0  0  0  0  0  0  0  0  0  0  0  0
  186.3950  177.8140  145.6940 C   0  0  0  0  0  3  0  0  0  0  0  0
  190.7690  177.1880  139.9220 C   0  0  0  0  0  0  0  0  0  0  0  0
  192.0160  177.1260  139.7580 O   0  0  0  0  0  0  0  0  0  0  0  0
  188.0070  178.0990  140.3900 C   0  0  0  0  0  2  0  0  0  0  0  0
  184.9520  178.4800  143.8270 C   0  0  0  0  0  3  0  0  0  0  0  0
  189.2510  177.1710  143.8380 C   0  0  0  0  0  0  0  0  0  0  0  0
  188.6480  177.2120  145.0090 O   0  0  0  0  0  0  0  0  0  0  0  0
  189.8810  177.1810  138.7120 C   0  0  2  0  0  3  0  0  0  0  0  0
  185.9970  178.2740  142.9090 C   0  0  0  0  0  3  0  0  0  0  0  0
  189.4270  178.5930  138.3750 C   0  0  0  0  0  2  0  0  0  0  0  0
  190.2140  177.2060  141.2850 C   0  0  0  0  0  0  0  0  0  0  0  0
  187.3860  177.1810  138.0160 C   0  0  0  0  0  2  0  0  0  0  0  0
  186.3550  178.2810  137.8260 C   0  0  0  0  0  2  0  0  0  0  0  0
  184.4340  178.6650  139.4240 C   0  0  0  0  0  0  0  0  0  0  0  0
  184.9300  179.7530  139.8210 O   0  0  0  0  0  0  0  0  0  0  0  0
  183.1510  178.1870  140.0040 C   0  0  0  0  0  1  0  0  0  0  0  0
  185.0880  177.8860  138.4210 N   0  0  0  0  0  2  0  0  0  0  0  0
  1  4  1  0  0  0  0
  1 14  1  0  0  0  0
  2  1  2  0  0  0  0
  3 14  2  0  0  0  0
  4  8  1  0  0  0  0
  5 20  1  6  0  0  0
  5 12  1  0  0  0  0
  6  9  1  0  0  0  0
  7  3  1  0  0  0  0
  8 15  1  0  0  0  0
  8  9  2  0  0  0  0
 10 19  1  0  0  0  0
 11 10  2  0  0  0  0
 12  2  1  0  0  0  0
 13  6  2  0  0  0  0
 14 15  1  0  0  0  0
 16 18  1  6  0  0  0
 16  5  1  0  0  0  0
 16 10  1  0  0  0  0
 17  4  2  0  0  0  0
 17 13  1  0  0  0  0
 18  5  1  0  0  0  0
 19  2  1  0  0  0  0
 19  7  2  0  0  0  0
 21 20  1  0  0  0  0
 21 25  1  0  0  0  0
 22 23  2  0  0  0  0
 22 24  1  0  0  0  0
 25 22  1  0  0  0  0
M  END
>  <MODEL>
7

>  <REMARK>
 VINA RESULT:      -8.8      2.416      4.689
  Name = 
  3 active torsions:
  status: ('A' for Active; 'I' for Inactive)
    1  A    between atoms: C_6  and  C_15
    2  A    between atoms: C_15  and  C_25
    3  A    between atoms: N_21  and  C_25
                            x       y       z     vdW  Elec       q    Type
                         _______ _______ _______ _____ _____    ______ ____

>  <TORSDO>
F 3

$$$$
=
 OpenBabel11052412463D

 25 29  0  0  1  0  0  0  0  0999 V2000
  187.7800  178.0050  143.1330 C   0  0  0  0  0  0  0  0  0  0  0  0
  187.1380  178.1800  144.3560 C   0  0  0  0  0  0  0  0  0  0  0  0
  185.7390  178.2260  141.9410 N   0  0  0  0  0  0  0  0  0  0  0  0
  189.0890  177.8030  142.7640 C   0  0  0  0  0  0  0  0  0  0  0  0
  187.0670  177.9900  146.8790 C   0  0  2  0  0  0  0  0  0  0  0  0
  191.4500  177.3840  141.3830 C   0  0  0  0  0  3  0  0  0  0  0  0
  185.0940  178.4010  143.1010 N   0  0  0  0  0  0  0  0  0  0  0  0
  189.0770  177.7140  141.3850 C   0  0  0  0  0  0  0  0  0  0  0  0
  190.2480  177.5030  140.6600 C   0  0  0  0  0  3  0  0  0  0  0  0
  184.9800  178.5580  145.5570 C   0  0  0  0  0  0  0  0  0  0  0  0
  183.8030  179.0030  145.5100 O   0  0  0  0  0  0  0  0  0  0  0  0
  187.9120  178.2810  145.6360 C   0  0  0  0  0  2  0  0  0  0  0  0
  191.4570  177.4770  142.7930 C   0  0  0  0  0  3  0  0  0  0  0  0
  187.0770  178.0270  141.9560 C   0  0  0  0  0  0  0  0  0  0  0  0
  187.8560  177.8510  140.9080 O   0  0  0  0  0  0  0  0  0  0  0  0
  185.5480  178.1590  146.8880 C   0  0  2  0  0  3  0  0  0  0  0  0
  190.2630  177.6890  143.5050 C   0  0  0  0  0  3  0  0  0  0  0  0
  186.4500  179.2570  147.4330 C   0  0  0  0  0  2  0  0  0  0  0  0
  185.7430  178.3840  144.3110 C   0  0  0  0  0  0  0  0  0  0  0  0
  187.6610  177.1290  147.9750 C   0  0  0  0  0  2  0  0  0  0  0  0
  189.1460  177.4180  148.1220 C   0  0  0  0  0  2  0  0  0  0  0  0
  191.3370  176.4640  147.2960 C   0  0  0  0  0  0  0  0  0  0  0  0
  191.9910  177.1280  148.1440 O   0  0  0  0  0  0  0  0  0  0  0  0
  192.0560  175.5740  146.3470 C   0  0  0  0  0  1  0  0  0  0  0  0
  189.9130  176.5520  147.2390 N   0  0  0  0  0  2  0  0  0  0  0  0
  1  2  2  0  0  0  0
  2 12  1  0  0  0  0
  3 14  2  0  0  0  0
  3  7  1  0  0  0  0
  4  1  1  0  0  0  0
  4 17  1  0  0  0  0
  5 16  1  0  0  0  0
  5 18  1  0  0  0  0
  5 20  1  1  0  0  0
  6 13  1  0  0  0  0
  7 19  2  0  0  0  0
  8  4  2  0  0  0  0
  9  6  2  0  0  0  0
  9  8  1  0  0  0  0
 10 16  1  0  0  0  0
 11 10  2  0  0  0  0
 12  5  1  0  0  0  0
 13 17  2  0  0  0  0
 14  1  1  0  0  0  0
 15  8  1  0  0  0  0
 15 14  1  0  0  0  0
 16 18  1  1  0  0  0
 19  2  1  0  0  0  0
 19 10  1  0  0  0  0
 20 21  1  0  0  0  0
 22 23  2  0  0  0  0
 24 22  1  0  0  0  0
 25 22  1  0  0  0  0
 25 21  1  0  0  0  0
M  END
>  <MODEL>
8

>  <REMARK>
 VINA RESULT:      -8.8      1.985      6.330
  Name = 
  3 active torsions:
  status: ('A' for Active; 'I' for Inactive)
    1  A    between atoms: C_6  and  C_15
    2  A    between atoms: C_15  and  C_25
    3  A    between atoms: N_21  and  C_25
                            x       y       z     vdW  Elec       q    Type
                         _______ _______ _______ _____ _____    ______ ____

>  <TORSDO>
F 3

$$$$
=
 OpenBabel11052412463D

 25 29  0  0  1  0  0  0  0  0999 V2000
  189.4410  177.3610  143.7730 C   0  0  0  0  0  0  0  0  0  0  0  0
  188.3040  177.8430  143.1300 C   0  0  0  0  0  0  0  0  0  0  0  0
  190.5450  176.9790  141.7060 N   0  0  0  0  0  0  0  0  0  0  0  0
  189.7910  177.1930  145.0920 C   0  0  0  0  0  0  0  0  0  0  0  0
  185.8470  178.4490  143.1110 C   0  0  2  0  0  0  0  0  0  0  0  0
  191.0840  176.6140  147.4690 C   0  0  0  0  0  3  0  0  0  0  0  0
  189.4670  177.4390  141.0590 N   0  0  0  0  0  0  0  0  0  0  0  0
  191.0720  176.6740  145.0740 C   0  0  0  0  0  0  0  0  0  0  0  0
  191.7500  176.3710  146.2530 C   0  0  0  0  0  3  0  0  0  0  0  0
  187.1800  178.3480  140.9570 C   0  0  0  0  0  0  0  0  0  0  0  0
  187.3070  178.6280  139.7360 O   0  0  0  0  0  0  0  0  0  0  0  0
  187.1580  178.4220  143.9020 C   0  0  0  0  0  2  0  0  0  0  0  0
  189.7750  177.1460  147.4820 C   0  0  0  0  0  3  0  0  0  0  0  0
  190.5320  176.9370  143.0580 C   0  0  0  0  0  0  0  0  0  0  0  0
  191.5090  176.5240  143.8400 O   0  0  0  0  0  0  0  0  0  0  0  0
  185.8190  178.4500  141.5830 C   0  0  2  0  0  3  0  0  0  0  0  0
  189.1080  177.4430  146.2810 C   0  0  0  0  0  3  0  0  0  0  0  0
  185.6860  179.7530  142.3590 C   0  0  0  0  0  2  0  0  0  0  0  0
  188.3450  177.8730  141.7200 C   0  0  0  0  0  0  0  0  0  0  0  0
  184.5670  178.0440  143.8140 C   0  0  0  0  0  2  0  0  0  0  0  0
  183.7350  179.2730  144.1370 C   0  0  0  0  0  2  0  0  0  0  0  0
  181.3180  178.8350  143.5330 C   0  0  0  0  0  0  0  0  0  0  0  0
  181.5280  179.1200  142.3230 O   0  0  0  0  0  0  0  0  0  0  0  0
  179.9520  178.4450  143.9690 C   0  0  0  0  0  1  0  0  0  0  0  0
  182.3790  178.8800  144.4880 N   0  0  0  0  0  2  0  0  0  0  0  0
  1  4  1  0  0  0  0
  2  1  2  0  0  0  0
  2 12  1  0  0  0  0
  3 14  2  0  0  0  0
  4 17  1  0  0  0  0
  5 20  1  1  0  0  0
  5 12  1  0  0  0  0
  6 13  1  0  0  0  0
  7  3  1  0  0  0  0
  7 19  2  0  0  0  0
  8  4  2  0  0  0  0
  8  9  1  0  0  0  0
  9  6  2  0  0  0  0
 10 16  1  0  0  0  0
 10 19  1  0  0  0  0
 11 10  2  0  0  0  0
 14  1  1  0  0  0  0
 14 15  1  0  0  0  0
 15  8  1  0  0  0  0
 16 18  1  6  0  0  0
 16  5  1  0  0  0  0
 17 13  2  0  0  0  0
 18  5  1  0  0  0  0
 19  2  1  0  0  0  0
 20 21  1  0  0  0  0
 21 25  1  0  0  0  0
 22 24  1  0  0  0  0
 22 25  1  0  0  0  0
 23 22  2  0  0  0  0
M  END
>  <MODEL>
9

>  <REMARK>
 VINA RESULT:      -8.4      2.697      6.715
  Name = 
  3 active torsions:
  status: ('A' for Active; 'I' for Inactive)
    1  A    between atoms: C_6  and  C_15
    2  A    between atoms: C_15  and  C_25
    3  A    between atoms: N_21  and  C_25
                            x       y       z     vdW  Elec       q    Type
                         _______ _______ _______ _____ _____    ______ ____

>  <TORSDO>
F 3

$$$$
