=
 OpenBabel11052414153D

 34 38  0  0  1  0  0  0  0  0999 V2000
  191.6250  174.5800  135.6350 N   0  0  0  0  0  0  0  0  0  0  0  0
  194.1960  177.0960  136.2420 O   0  0  0  0  0  0  0  0  0  0  0  0
  192.7670  176.1440  137.9080 N   0  0  0  0  0  0  0  0  0  0  0  0
  191.8830  177.5230  139.8670 C   0  0  2  0  0  3  0  0  0  0  0  0
  194.0810  174.7280  136.2380 C   0  0  1  0  0  3  0  0  0  0  0  0
  195.3130  175.1200  135.4720 C   0  0  0  0  0  2  0  0  0  0  0  0
  194.0700  176.5180  139.8180 O   0  0  0  0  0  0  0  0  0  0  0  0
  193.9550  175.9940  137.0620 C   0  0  1  0  0  3  0  0  0  0  0  0
  193.0030  174.5120  135.1650 C   0  0  0  0  0  2  0  0  0  0  0  0
  191.3930  175.9990  137.4280 C   0  0  1  0  0  3  0  0  0  0  0  0
  191.2930  173.4880  136.5630 C   0  0  0  0  0  1  0  0  0  0  0  0
  195.2000  176.6450  135.3620 C   0  0  0  0  0  2  0  0  0  0  0  0
  190.5470  177.1980  139.3610 N   0  0  0  0  0  2  0  0  0  0  0  0
  190.5640  177.1930  137.9000 C   0  0  2  0  0  3  0  0  0  0  0  0
  192.9600  176.6650  139.2370 C   0  0  0  0  0  0  0  0  0  0  0  0
  191.3280  175.8650  136.0260 O   0  0  0  0  0  0  0  0  0  0  0  0
  187.0270  176.1010  137.0090 C   0  0  0  0  0  0  0  0  0  0  0  0
  186.5860  177.2110  136.2820 C   0  0  0  0  0  3  0  0  0  0  0  0
  189.1720  177.1790  137.3570 C   0  0  0  0  0  0  0  0  0  0  0  0
  187.4410  178.2970  136.0870 C   0  0  0  0  0  3  0  0  0  0  0  0
  188.3160  176.0840  137.5440 C   0  0  0  0  0  3  0  0  0  0  0  0
  188.7290  178.2810  136.6230 C   0  0  0  0  0  3  0  0  0  0  0  0
  186.1970  175.0480  137.2020 F   0  0  0  0  0  0  0  0  0  0  0  0
  191.8900  177.4280  141.6950 S   0  0  0  0  0  0  0  0  0  0  0  0
  190.3130  176.5320  141.7960 C   0  0  0  0  0  2  0  0  0  0  0  0
  190.1270  175.9700  143.1920 C   0  0  0  0  0  2  0  0  0  0  0  0
  190.6180  176.9720  144.2290 C   0  0  0  0  0  2  0  0  0  0  0  0
  191.0000  176.7500  147.0420 O   0  0  0  0  0  0  0  0  0  0  0  0
  189.5910  177.2420  145.2310 N   0  0  0  0  0  0  0  0  0  0  0  0
  189.8380  177.0210  146.6330 C   0  0  0  0  0  0  0  0  0  0  0  0
  187.5360  177.8620  147.1270 C   0  0  0  0  0  2  0  0  0  0  0  0
  187.1730  177.4780  145.6970 C   0  0  0  0  0  2  0  0  0  0  0  0
  188.3320  177.8400  144.7750 C   0  0  0  0  0  2  0  0  0  0  0  0
  188.7040  177.0120  147.6150 C   0  0  0  0  0  2  0  0  0  0  0  0
  1 16  1  0  0  0  0
  1 11  1  0  0  0  0
  3 15  1  0  0  0  0
  4 24  1  1  0  0  0
  5  9  1  6  0  0  0
  5  8  1  0  0  0  0
  6  5  1  0  0  0  0
  8  2  1  6  0  0  0
  8  3  1  0  0  0  0
  9  1  1  0  0  0  0
 10 16  1  6  0  0  0
 10 14  1  0  0  0  0
 10  3  1  0  0  0  0
 12  6  1  0  0  0  0
 12  2  1  0  0  0  0
 13  4  1  0  0  0  0
 14 19  1  6  0  0  0
 14 13  1  0  0  0  0
 15  7  2  0  0  0  0
 15  4  1  0  0  0  0
 17 23  1  0  0  0  0
 17 21  1  0  0  0  0
 18 17  2  0  0  0  0
 19 21  2  0  0  0  0
 20 18  1  0  0  0  0
 20 22  2  0  0  0  0
 22 19  1  0  0  0  0
 24 25  1  0  0  0  0
 25 26  1  0  0  0  0
 26 27  1  0  0  0  0
 27 29  1  0  0  0  0
 29 30  1  0  0  0  0
 30 28  2  0  0  0  0
 30 34  1  0  0  0  0
 31 34  1  0  0  0  0
 32 31  1  0  0  0  0
 33 29  1  0  0  0  0
 33 32  1  0  0  0  0
M  END
>  <MODEL>
1

>  <REMARK>
 VINA RESULT:      -7.7      0.000      0.000
  Name = 
  6 active torsions:
  status: ('A' for Active; 'I' for Inactive)
    1  A    between atoms: C_3  and  N_13
    2  A    between atoms: C_3  and  C_17
    3  A    between atoms: C_5  and  S_18
    4  A    between atoms: C_12  and  C_28
    5  A    between atoms: C_17  and  C_29
    6  A    between atoms: S_18  and  C_29
                            x       y       z     vdW  Elec       q    Type
                         _______ _______ _______ _____ _____    ______ ____

>  <TORSDO>
F 6

$$$$
=
 OpenBabel11052414153D

 34 38  0  0  1  0  0  0  0  0999 V2000
  189.6670  174.3130  136.2140 N   0  0  0  0  0  0  0  0  0  0  0  0
  192.2850  176.6920  137.1060 O   0  0  0  0  0  0  0  0  0  0  0  0
  190.3720  176.1670  138.4450 N   0  0  0  0  0  0  0  0  0  0  0  0
  189.1930  177.9400  139.8550 C   0  0  2  0  0  3  0  0  0  0  0  0
  191.8870  174.3770  137.4330 C   0  0  1  0  0  3  0  0  0  0  0  0
  193.3120  174.5300  136.9810 C   0  0  0  0  0  2  0  0  0  0  0  0
  191.1800  176.7770  140.5580 O   0  0  0  0  0  0  0  0  0  0  0  0
  191.7100  175.7770  137.9880 C   0  0  1  0  0  3  0  0  0  0  0  0
  191.1000  174.0560  136.1530 C   0  0  0  0  0  2  0  0  0  0  0  0
  189.1600  176.0450  137.6380 C   0  0  1  0  0  3  0  0  0  0  0  0
  188.9790  173.4350  137.1720 C   0  0  0  0  0  1  0  0  0  0  0  0
  193.4180  176.0150  136.6130 C   0  0  0  0  0  2  0  0  0  0  0  0
  188.0010  177.6330  139.0610 N   0  0  0  0  0  2  0  0  0  0  0  0
  188.3890  177.3640  137.6780 C   0  0  2  0  0  3  0  0  0  0  0  0
  190.2820  176.9030  139.6810 C   0  0  0  0  0  0  0  0  0  0  0  0
  189.4390  175.6670  136.3080 O   0  0  0  0  0  0  0  0  0  0  0  0
  184.8430  176.9200  136.3660 C   0  0  0  0  0  0  0  0  0  0  0  0
  184.9970  177.3490  135.0440 C   0  0  0  0  0  3  0  0  0  0  0  0
  187.1910  177.3600  136.7850 C   0  0  0  0  0  0  0  0  0  0  0  0
  186.2480  177.7740  134.5940 C   0  0  0  0  0  3  0  0  0  0  0  0
  185.9360  176.9230  137.2340 C   0  0  0  0  0  3  0  0  0  0  0  0
  187.3410  177.7800  135.4620 C   0  0  0  0  0  3  0  0  0  0  0  0
  183.6290  176.5100  136.8050 F   0  0  0  0  0  0  0  0  0  0  0  0
  188.7210  178.1750  141.6080 S   0  0  0  0  0  0  0  0  0  0  0  0
  187.0120  178.6600  141.2300 C   0  0  0  0  0  2  0  0  0  0  0  0
  186.0850  178.1860  142.3340 C   0  0  0  0  0  2  0  0  0  0  0  0
  186.8680  177.3870  143.3670 C   0  0  0  0  0  2  0  0  0  0  0  0
  188.7640  177.3110  145.4900 O   0  0  0  0  0  0  0  0  0  0  0  0
  186.6250  177.8870  144.7170 N   0  0  0  0  0  0  0  0  0  0  0  0
  187.6070  177.7310  145.7610 C   0  0  0  0  0  0  0  0  0  0  0  0
  186.0830  178.9590  147.3180 C   0  0  0  0  0  2  0  0  0  0  0  0
  184.9370  178.5350  146.4060 C   0  0  0  0  0  2  0  0  0  0  0  0
  185.3900  178.6420  144.9540 C   0  0  0  0  0  2  0  0  0  0  0  0
  187.2390  177.9720  147.1950 C   0  0  0  0  0  2  0  0  0  0  0  0
  1 16  1  0  0  0  0
  1 11  1  0  0  0  0
  3 15  1  0  0  0  0
  4 24  1  1  0  0  0
  5  9  1  6  0  0  0
  5  8  1  0  0  0  0
  6  5  1  0  0  0  0
  8  2  1  6  0  0  0
  8  3  1  0  0  0  0
  9  1  1  0  0  0  0
 10 16  1  6  0  0  0
 10 14  1  0  0  0  0
 10  3  1  0  0  0  0
 12  6  1  0  0  0  0
 12  2  1  0  0  0  0
 13  4  1  0  0  0  0
 14 19  1  6  0  0  0
 14 13  1  0  0  0  0
 15  4  1  0  0  0  0
 15  7  2  0  0  0  0
 17 23  1  0  0  0  0
 17 21  1  0  0  0  0
 18 17  2  0  0  0  0
 19 21  2  0  0  0  0
 20 18  1  0  0  0  0
 20 22  2  0  0  0  0
 22 19  1  0  0  0  0
 25 24  1  0  0  0  0
 25 26  1  0  0  0  0
 26 27  1  0  0  0  0
 27 29  1  0  0  0  0
 28 30  2  0  0  0  0
 29 33  1  0  0  0  0
 29 30  1  0  0  0  0
 30 34  1  0  0  0  0
 32 31  1  0  0  0  0
 33 32  1  0  0  0  0
 34 31  1  0  0  0  0
M  END
>  <MODEL>
2

>  <REMARK>
 VINA RESULT:      -7.6      2.066      2.656
  Name = 
  6 active torsions:
  status: ('A' for Active; 'I' for Inactive)
    1  A    between atoms: C_3  and  N_13
    2  A    between atoms: C_3  and  C_17
    3  A    between atoms: C_5  and  S_18
    4  A    between atoms: C_12  and  C_28
    5  A    between atoms: C_17  and  C_29
    6  A    between atoms: S_18  and  C_29
                            x       y       z     vdW  Elec       q    Type
                         _______ _______ _______ _____ _____    ______ ____

>  <TORSDO>
F 6

$$$$
=
 OpenBabel11052414153D

 34 38  0  0  1  0  0  0  0  0999 V2000
  179.8020  176.3100  138.8140 N   0  0  0  0  0  0  0  0  0  0  0  0
  181.4950  178.3200  136.2830 O   0  0  0  0  0  0  0  0  0  0  0  0
  182.4770  177.5410  138.3210 N   0  0  0  0  0  0  0  0  0  0  0  0
  184.1630  178.9490  139.6230 C   0  0  2  0  0  3  0  0  0  0  0  0
  181.2020  176.0090  136.7240 C   0  0  1  0  0  3  0  0  0  0  0  0
  180.9370  176.2250  135.2610 C   0  0  0  0  0  2  0  0  0  0  0  0
  184.7410  177.5920  137.7210 O   0  0  0  0  0  0  0  0  0  0  0  0
  182.0660  177.2340  136.9460 C   0  0  1  0  0  3  0  0  0  0  0  0
  179.8140  176.0340  137.3830 C   0  0  0  0  0  2  0  0  0  0  0  0
  181.5540  177.6560  139.4480 C   0  0  1  0  0  3  0  0  0  0  0  0
  180.4450  175.2450  139.5980 C   0  0  0  0  0  1  0  0  0  0  0  0
  180.9580  177.7510  135.1100 C   0  0  0  0  0  2  0  0  0  0  0  0
  183.2090  178.8810  140.7320 N   0  0  0  0  0  2  0  0  0  0  0  0
  181.8450  178.9470  140.2110 C   0  0  2  0  0  3  0  0  0  0  0  0
  183.8420  177.9540  138.5280 C   0  0  0  0  0  0  0  0  0  0  0  0
  180.2040  177.6060  139.0420 O   0  0  0  0  0  0  0  0  0  0  0  0
  179.8210  178.5860  143.4160 C   0  0  0  0  0  0  0  0  0  0  0  0
  178.9970  179.7130  143.3340 C   0  0  0  0  0  3  0  0  0  0  0  0
  180.8710  179.1970  141.3160 C   0  0  0  0  0  0  0  0  0  0  0  0
  179.1070  180.5740  142.2400 C   0  0  0  0  0  3  0  0  0  0  0  0
  180.7540  178.3270  142.4100 C   0  0  0  0  0  3  0  0  0  0  0  0
  180.0400  180.3170  141.2350 C   0  0  0  0  0  3  0  0  0  0  0  0
  179.7180  177.7520  144.4780 F   0  0  0  0  0  0  0  0  0  0  0  0
  185.8680  178.7620  140.2630 S   0  0  0  0  0  0  0  0  0  0  0  0
  185.4210  179.1750  141.9750 C   0  0  0  0  0  2  0  0  0  0  0  0
  185.8800  178.0710  142.9090 C   0  0  0  0  0  2  0  0  0  0  0  0
  185.3310  178.3100  144.3090 C   0  0  0  0  0  2  0  0  0  0  0  0
  184.9480  178.6610  147.1090 O   0  0  0  0  0  0  0  0  0  0  0  0
  186.3350  178.0200  145.3280 N   0  0  0  0  0  0  0  0  0  0  0  0
  186.0950  178.3080  146.7190 C   0  0  0  0  0  0  0  0  0  0  0  0
  188.3420  177.3550  147.2610 C   0  0  0  0  0  2  0  0  0  0  0  0
  188.7330  177.6620  145.8200 C   0  0  0  0  0  2  0  0  0  0  0  0
  187.5600  177.3330  144.9040 C   0  0  0  0  0  2  0  0  0  0  0  0
  187.2230  178.2900  147.7080 C   0  0  0  0  0  2  0  0  0  0  0  0
  1 16  1  0  0  0  0
  1 11  1  0  0  0  0
  3 15  1  0  0  0  0
  3 10  1  0  0  0  0
  4 24  1  1  0  0  0
  4 13  1  0  0  0  0
  5  6  1  6  0  0  0
  5  8  1  0  0  0  0
  5  9  1  0  0  0  0
  7 15  2  0  0  0  0
  8  2  1  1  0  0  0
  8  3  1  0  0  0  0
  9  1  1  0  0  0  0
 10 16  1  6  0  0  0
 10 14  1  0  0  0  0
 12  6  1  0  0  0  0
 12  2  1  0  0  0  0
 14 13  1  0  0  0  0
 14 19  1  1  0  0  0
 15  4  1  0  0  0  0
 17 23  1  0  0  0  0
 18 17  1  0  0  0  0
 19 21  1  0  0  0  0
 20 18  2  0  0  0  0
 21 17  2  0  0  0  0
 22 19  2  0  0  0  0
 22 20  1  0  0  0  0
 24 25  1  0  0  0  0
 25 26  1  0  0  0  0
 26 27  1  0  0  0  0
 27 29  1  0  0  0  0
 29 30  1  0  0  0  0
 30 28  2  0  0  0  0
 30 34  1  0  0  0  0
 31 34  1  0  0  0  0
 32 31  1  0  0  0  0
 33 29  1  0  0  0  0
 33 32  1  0  0  0  0
M  END
>  <MODEL>
3

>  <REMARK>
 VINA RESULT:      -7.5      7.208      9.364
  Name = 
  6 active torsions:
  status: ('A' for Active; 'I' for Inactive)
    1  A    between atoms: C_3  and  N_13
    2  A    between atoms: C_3  and  C_17
    3  A    between atoms: C_5  and  S_18
    4  A    between atoms: C_12  and  C_28
    5  A    between atoms: C_17  and  C_29
    6  A    between atoms: S_18  and  C_29
                            x       y       z     vdW  Elec       q    Type
                         _______ _______ _______ _____ _____    ______ ____

>  <TORSDO>
F 6

$$$$
=
 OpenBabel11052414153D

 34 38  0  0  1  0  0  0  0  0999 V2000
  179.7590  179.3640  140.3880 N   0  0  0  0  0  0  0  0  0  0  0  0
  180.4820  178.0640  143.7200 O   0  0  0  0  0  0  0  0  0  0  0  0
  182.0800  179.0590  142.2420 N   0  0  0  0  0  0  0  0  0  0  0  0
  184.4880  178.2220  142.1100 C   0  0  2  0  0  3  0  0  0  0  0  0
  179.8380  180.1500  142.7950 C   0  0  1  0  0  3  0  0  0  0  0  0
  178.9680  179.9020  143.9940 C   0  0  0  0  0  2  0  0  0  0  0  0
  183.6930  179.7450  143.7960 O   0  0  0  0  0  0  0  0  0  0  0  0
  180.9910  179.2560  143.2050 C   0  0  1  0  0  3  0  0  0  0  0  0
  179.0050  179.6690  141.5970 C   0  0  0  0  0  2  0  0  0  0  0  0
  181.8850  178.6260  140.8590 C   0  0  1  0  0  3  0  0  0  0  0  0
  180.3920  180.5560  139.8040 C   0  0  0  0  0  1  0  0  0  0  0  0
  179.3170  178.4660  144.4040 C   0  0  0  0  0  2  0  0  0  0  0  0
  184.2110  177.9540  140.6970 N   0  0  0  0  0  2  0  0  0  0  0  0
  182.8380  177.4730  140.5500 C   0  0  2  0  0  3  0  0  0  0  0  0
  183.4280  179.0940  142.7480 C   0  0  0  0  0  0  0  0  0  0  0  0
  180.5490  178.2570  140.5980 O   0  0  0  0  0  0  0  0  0  0  0  0
  182.5780  177.0930  136.7700 C   0  0  0  0  0  0  0  0  0  0  0  0
  182.1740  175.7580  136.6690 C   0  0  0  0  0  3  0  0  0  0  0  0
  182.6250  176.8970  139.1880 C   0  0  0  0  0  0  0  0  0  0  0  0
  181.9890  175.0000  137.8260 C   0  0  0  0  0  3  0  0  0  0  0  0
  182.8010  177.6620  138.0250 C   0  0  0  0  0  3  0  0  0  0  0  0
  182.2140  175.5670  139.0810 C   0  0  0  0  0  3  0  0  0  0  0  0
  182.7610  177.8290  135.6490 F   0  0  0  0  0  0  0  0  0  0  0  0
  186.1710  178.9230  142.2850 S   0  0  0  0  0  0  0  0  0  0  0  0
  186.9080  177.3720  142.8780 C   0  0  0  0  0  2  0  0  0  0  0  0
  187.5990  177.6050  144.2090 C   0  0  0  0  0  2  0  0  0  0  0  0
  189.0820  177.8710  143.9880 C   0  0  0  0  0  2  0  0  0  0  0  0
  191.7130  176.7910  143.8430 O   0  0  0  0  0  0  0  0  0  0  0  0
  189.8720  177.4500  145.1410 N   0  0  0  0  0  0  0  0  0  0  0  0
  191.1630  176.8300  144.9770 C   0  0  0  0  0  0  0  0  0  0  0  0
  191.3770  176.7180  147.4660 C   0  0  0  0  0  2  0  0  0  0  0  0
  189.8550  176.7770  147.5210 C   0  0  0  0  0  2  0  0  0  0  0  0
  189.3560  177.7690  146.4760 C   0  0  0  0  0  2  0  0  0  0  0  0
  191.8280  176.1380  146.1300 C   0  0  0  0  0  2  0  0  0  0  0  0
  1 16  1  0  0  0  0
  1  9  1  0  0  0  0
  2 12  1  0  0  0  0
  3 15  1  0  0  0  0
  3  8  1  0  0  0  0
  4 24  1  6  0  0  0
  4 15  1  0  0  0  0
  5  9  1  6  0  0  0
  5  8  1  0  0  0  0
  5  6  1  0  0  0  0
  6 12  1  0  0  0  0
  8  2  1  6  0  0  0
 10 16  1  1  0  0  0
 10  3  1  0  0  0  0
 11  1  1  0  0  0  0
 13  4  1  0  0  0  0
 14 19  1  6  0  0  0
 14 13  1  0  0  0  0
 14 10  1  0  0  0  0
 15  7  2  0  0  0  0
 17 21  1  0  0  0  0
 18 17  2  0  0  0  0
 18 20  1  0  0  0  0
 20 22  2  0  0  0  0
 21 19  2  0  0  0  0
 22 19  1  0  0  0  0
 23 17  1  0  0  0  0
 24 25  1  0  0  0  0
 25 26  1  0  0  0  0
 27 26  1  0  0  0  0
 27 29  1  0  0  0  0
 28 30  2  0  0  0  0
 29 33  1  0  0  0  0
 30 29  1  0  0  0  0
 30 34  1  0  0  0  0
 31 32  1  0  0  0  0
 33 32  1  0  0  0  0
 34 31  1  0  0  0  0
M  END
>  <MODEL>
4

>  <REMARK>
 VINA RESULT:      -7.3      6.242      9.757
  Name = 
  6 active torsions:
  status: ('A' for Active; 'I' for Inactive)
    1  A    between atoms: C_3  and  N_13
    2  A    between atoms: C_3  and  C_17
    3  A    between atoms: C_5  and  S_18
    4  A    between atoms: C_12  and  C_28
    5  A    between atoms: C_17  and  C_29
    6  A    between atoms: S_18  and  C_29
                            x       y       z     vdW  Elec       q    Type
                         _______ _______ _______ _____ _____    ______ ____

>  <TORSDO>
F 6

$$$$
=
 OpenBabel11052414153D

 34 38  0  0  1  0  0  0  0  0999 V2000
  189.0000  176.6750  134.8680 N   0  0  0  0  0  0  0  0  0  0  0  0
  186.4950  175.7080  137.3370 O   0  0  0  0  0  0  0  0  0  0  0  0
  188.5250  176.8830  137.8080 N   0  0  0  0  0  0  0  0  0  0  0  0
  189.8460  176.4730  139.9550 C   0  0  2  0  0  3  0  0  0  0  0  0
  186.9100  177.5960  135.9630 C   0  0  1  0  0  3  0  0  0  0  0  0
  185.4490  177.2660  135.8460 C   0  0  0  0  0  2  0  0  0  0  0  0
  187.9310  177.9250  139.8200 O   0  0  0  0  0  0  0  0  0  0  0  0
  187.1470  176.9400  137.3090 C   0  0  1  0  0  3  0  0  0  0  0  0
  187.5660  176.9100  134.7550 C   0  0  0  0  0  2  0  0  0  0  0  0
  189.6530  176.3470  137.0470 C   0  0  1  0  0  3  0  0  0  0  0  0
  189.7730  177.9250  134.9120 C   0  0  0  0  0  1  0  0  0  0  0  0
  185.3150  175.9380  136.6000 C   0  0  0  0  0  2  0  0  0  0  0  0
  190.9530  176.0830  139.0790 N   0  0  0  0  0  2  0  0  0  0  0  0
  190.4310  175.3630  137.9190 C   0  0  2  0  0  3  0  0  0  0  0  0
  188.7400  177.1800  139.2020 C   0  0  0  0  0  0  0  0  0  0  0  0
  189.2430  175.7360  135.8430 O   0  0  0  0  0  0  0  0  0  0  0  0
  192.4420  172.7950  135.9550 C   0  0  0  0  0  0  0  0  0  0  0  0
  193.6650  173.4600  135.8310 C   0  0  0  0  0  3  0  0  0  0  0  0
  191.5360  174.6840  137.1780 C   0  0  0  0  0  0  0  0  0  0  0  0
  193.8240  174.7300  136.3880 C   0  0  0  0  0  3  0  0  0  0  0  0
  191.3810  173.4030  136.6280 C   0  0  0  0  0  3  0  0  0  0  0  0
  192.7630  175.3410  137.0580 C   0  0  0  0  0  3  0  0  0  0  0  0
  192.2850  171.5630  135.4140 F   0  0  0  0  0  0  0  0  0  0  0  0
  190.4880  177.4650  141.3540 S   0  0  0  0  0  0  0  0  0  0  0  0
  190.1820  176.1730  142.5940 C   0  0  0  0  0  2  0  0  0  0  0  0
  188.7960  176.3440  143.1870 C   0  0  0  0  0  2  0  0  0  0  0  0
  188.6470  177.7420  143.7710 C   0  0  0  0  0  2  0  0  0  0  0  0
  186.0770  178.0900  144.9470 O   0  0  0  0  0  0  0  0  0  0  0  0
  188.3750  177.6900  145.2050 N   0  0  0  0  0  0  0  0  0  0  0  0
  187.0600  177.9640  145.7270 C   0  0  0  0  0  0  0  0  0  0  0  0
  187.9240  177.5000  148.0270 C   0  0  0  0  0  2  0  0  0  0  0  0
  189.3100  177.8380  147.4900 C   0  0  0  0  0  2  0  0  0  0  0  0
  189.4590  177.2520  146.0900 C   0  0  0  0  0  2  0  0  0  0  0  0
  186.8570  178.2020  147.1940 C   0  0  0  0  0  2  0  0  0  0  0  0
  1 11  1  0  0  0  0
  1 16  1  0  0  0  0
  3 15  1  0  0  0  0
  4 24  1  1  0  0  0
  5  9  1  6  0  0  0
  5  8  1  0  0  0  0
  6  5  1  0  0  0  0
  6 12  1  0  0  0  0
  8  2  1  6  0  0  0
  8  3  1  0  0  0  0
  9  1  1  0  0  0  0
 10 16  1  6  0  0  0
 10  3  1  0  0  0  0
 10 14  1  0  0  0  0
 12  2  1  0  0  0  0
 13  4  1  0  0  0  0
 14 19  1  6  0  0  0
 14 13  1  0  0  0  0
 15  7  2  0  0  0  0
 15  4  1  0  0  0  0
 17 21  1  0  0  0  0
 18 17  2  0  0  0  0
 18 20  1  0  0  0  0
 20 22  2  0  0  0  0
 21 19  2  0  0  0  0
 22 19  1  0  0  0  0
 23 17  1  0  0  0  0
 24 25  1  0  0  0  0
 25 26  1  0  0  0  0
 26 27  1  0  0  0  0
 27 29  1  0  0  0  0
 28 30  2  0  0  0  0
 29 30  1  0  0  0  0
 29 33  1  0  0  0  0
 30 34  1  0  0  0  0
 32 31  1  0  0  0  0
 33 32  1  0  0  0  0
 34 31  1  0  0  0  0
M  END
>  <MODEL>
5

>  <REMARK>
 VINA RESULT:      -7.2      2.555      5.064
  Name = 
  6 active torsions:
  status: ('A' for Active; 'I' for Inactive)
    1  A    between atoms: C_3  and  N_13
    2  A    between atoms: C_3  and  C_17
    3  A    between atoms: C_5  and  S_18
    4  A    between atoms: C_12  and  C_28
    5  A    between atoms: C_17  and  C_29
    6  A    between atoms: S_18  and  C_29
                            x       y       z     vdW  Elec       q    Type
                         _______ _______ _______ _____ _____    ______ ____

>  <TORSDO>
F 6

$$$$
=
 OpenBabel11052414153D

 34 38  0  0  1  0  0  0  0  0999 V2000
  188.7700  176.5250  134.8090 N   0  0  0  0  0  0  0  0  0  0  0  0
  186.1660  175.7680  137.2500 O   0  0  0  0  0  0  0  0  0  0  0  0
  188.1230  177.0790  137.6710 N   0  0  0  0  0  0  0  0  0  0  0  0
  189.3350  176.9990  139.9170 C   0  0  2  0  0  3  0  0  0  0  0  0
  186.5890  177.4850  135.6700 C   0  0  1  0  0  3  0  0  0  0  0  0
  185.1500  177.0800  135.5210 C   0  0  0  0  0  2  0  0  0  0  0  0
  187.3790  178.3380  139.5000 O   0  0  0  0  0  0  0  0  0  0  0  0
  186.7740  177.0140  137.0990 C   0  0  1  0  0  3  0  0  0  0  0  0
  187.3360  176.6820  134.5940 C   0  0  0  0  0  2  0  0  0  0  0  0
  189.3100  176.5010  137.0430 C   0  0  1  0  0  3  0  0  0  0  0  0
  189.4930  177.8030  134.7330 C   0  0  0  0  0  1  0  0  0  0  0  0
  185.0220  175.8530  136.4310 C   0  0  0  0  0  2  0  0  0  0  0  0
  190.5030  176.5500  139.1550 N   0  0  0  0  0  2  0  0  0  0  0  0
  190.0730  175.6690  138.0720 C   0  0  2  0  0  3  0  0  0  0  0  0
  188.2480  177.5580  139.0240 C   0  0  0  0  0  0  0  0  0  0  0  0
  188.9910  175.7270  135.9080 O   0  0  0  0  0  0  0  0  0  0  0  0
  193.5940  174.8160  136.8990 C   0  0  0  0  0  0  0  0  0  0  0  0
  193.3810  173.5580  136.3260 C   0  0  0  0  0  3  0  0  0  0  0  0
  191.2430  174.9500  137.4810 C   0  0  0  0  0  0  0  0  0  0  0  0
  192.1000  173.0040  136.3240 C   0  0  0  0  0  3  0  0  0  0  0  0
  192.5280  175.5110  137.4730 C   0  0  0  0  0  3  0  0  0  0  0  0
  191.0340  173.6970  136.9010 C   0  0  0  0  0  3  0  0  0  0  0  0
  194.8360  175.3530  136.9030 F   0  0  0  0  0  0  0  0  0  0  0  0
  189.8610  178.1860  141.2090 S   0  0  0  0  0  0  0  0  0  0  0  0
  191.2650  177.1760  141.7640 C   0  0  0  0  0  2  0  0  0  0  0  0
  190.8690  176.3670  142.9850 C   0  0  0  0  0  2  0  0  0  0  0  0
  191.4530  176.9990  144.2410 C   0  0  0  0  0  2  0  0  0  0  0  0
  191.8540  176.7990  147.0540 O   0  0  0  0  0  0  0  0  0  0  0  0
  190.4190  177.2290  145.2460 N   0  0  0  0  0  0  0  0  0  0  0  0
  190.6800  177.0210  146.6490 C   0  0  0  0  0  0  0  0  0  0  0  0
  188.3470  177.7690  147.1490 C   0  0  0  0  0  2  0  0  0  0  0  0
  187.9960  177.3680  145.7210 C   0  0  0  0  0  2  0  0  0  0  0  0
  189.1360  177.7740  144.7940 C   0  0  0  0  0  2  0  0  0  0  0  0
  189.5510  176.9680  147.6340 C   0  0  0  0  0  2  0  0  0  0  0  0
  1 16  1  0  0  0  0
  3 15  1  0  0  0  0
  4 24  1  1  0  0  0
  5  9  1  6  0  0  0
  5  8  1  0  0  0  0
  6  5  1  0  0  0  0
  6 12  1  0  0  0  0
  8  2  1  6  0  0  0
  8  3  1  0  0  0  0
  9  1  1  0  0  0  0
 10 16  1  6  0  0  0
 10  3  1  0  0  0  0
 10 14  1  0  0  0  0
 11  1  1  0  0  0  0
 12  2  1  0  0  0  0
 13  4  1  0  0  0  0
 14 19  1  6  0  0  0
 14 13  1  0  0  0  0
 15  7  2  0  0  0  0
 15  4  1  0  0  0  0
 17 23  1  0  0  0  0
 17 21  1  0  0  0  0
 18 17  2  0  0  0  0
 20 18  1  0  0  0  0
 20 22  2  0  0  0  0
 21 19  2  0  0  0  0
 22 19  1  0  0  0  0
 24 25  1  0  0  0  0
 25 26  1  0  0  0  0
 26 27  1  0  0  0  0
 27 29  1  0  0  0  0
 29 30  1  0  0  0  0
 30 28  2  0  0  0  0
 30 34  1  0  0  0  0
 31 34  1  0  0  0  0
 32 31  1  0  0  0  0
 33 29  1  0  0  0  0
 33 32  1  0  0  0  0
M  END
>  <MODEL>
6

>  <REMARK>
 VINA RESULT:      -7.2      2.560      5.089
  Name = 
  6 active torsions:
  status: ('A' for Active; 'I' for Inactive)
    1  A    between atoms: C_3  and  N_13
    2  A    between atoms: C_3  and  C_17
    3  A    between atoms: C_5  and  S_18
    4  A    between atoms: C_12  and  C_28
    5  A    between atoms: C_17  and  C_29
    6  A    between atoms: S_18  and  C_29
                            x       y       z     vdW  Elec       q    Type
                         _______ _______ _______ _____ _____    ______ ____

>  <TORSDO>
F 6

$$$$
=
 OpenBabel11052414153D

 34 38  0  0  1  0  0  0  0  0999 V2000
  191.9240  174.4690  135.5160 N   0  0  0  0  0  0  0  0  0  0  0  0
  194.2480  177.2030  136.1750 O   0  0  0  0  0  0  0  0  0  0  0  0
  192.8290  176.1660  137.7990 N   0  0  0  0  0  0  0  0  0  0  0  0
  191.7470  177.5040  139.6860 C   0  0  2  0  0  3  0  0  0  0  0  0
  194.3300  174.8340  136.2200 C   0  0  1  0  0  3  0  0  0  0  0  0
  195.5580  175.3130  135.4990 C   0  0  0  0  0  2  0  0  0  0  0  0
  194.0090  176.6840  139.7550 O   0  0  0  0  0  0  0  0  0  0  0  0
  194.0630  176.1000  137.0090 C   0  0  1  0  0  3  0  0  0  0  0  0
  193.3220  174.5080  135.1070 C   0  0  0  0  0  2  0  0  0  0  0  0
  191.4950  175.8980  137.2640 C   0  0  1  0  0  3  0  0  0  0  0  0
  191.6420  173.3720  136.4530 C   0  0  0  0  0  1  0  0  0  0  0  0
  195.3250  176.8210  135.3500 C   0  0  0  0  0  2  0  0  0  0  0  0
  190.4670  177.0590  139.1310 N   0  0  0  0  0  2  0  0  0  0  0  0
  190.5500  177.0270  137.6720 C   0  0  2  0  0  3  0  0  0  0  0  0
  192.9190  176.7270  139.1230 C   0  0  0  0  0  0  0  0  0  0  0  0
  191.5050  175.7330  135.8630 O   0  0  0  0  0  0  0  0  0  0  0  0
  187.3770  177.6970  135.6770 C   0  0  0  0  0  0  0  0  0  0  0  0
  186.6170  176.5700  136.0070 C   0  0  0  0  0  3  0  0  0  0  0  0
  189.1890  176.8860  137.0710 C   0  0  0  0  0  0  0  0  0  0  0  0
  187.1420  175.6100  136.8730 C   0  0  0  0  0  3  0  0  0  0  0  0
  188.6580  177.8560  136.2080 C   0  0  0  0  0  3  0  0  0  0  0  0
  188.4230  175.7670  137.4030 C   0  0  0  0  0  3  0  0  0  0  0  0
  186.8710  178.6280  134.8340 F   0  0  0  0  0  0  0  0  0  0  0  0
  191.6800  177.4450  141.5150 S   0  0  0  0  0  0  0  0  0  0  0  0
  190.1800  176.4220  141.5670 C   0  0  0  0  0  2  0  0  0  0  0  0
  189.3430  176.7950  142.7770 C   0  0  0  0  0  2  0  0  0  0  0  0
  188.8390  178.2250  142.6420 C   0  0  0  0  0  2  0  0  0  0  0  0
  187.5320  178.6300  140.1450 O   0  0  0  0  0  0  0  0  0  0  0  0
  187.3910  178.2610  142.4580 N   0  0  0  0  0  0  0  0  0  0  0  0
  186.8080  178.5590  141.1740 C   0  0  0  0  0  0  0  0  0  0  0  0
  184.5400  178.2440  142.1810 C   0  0  0  0  0  2  0  0  0  0  0  0
  185.1810  178.5550  143.5280 C   0  0  0  0  0  2  0  0  0  0  0  0
  186.5480  177.8850  143.5980 C   0  0  0  0  0  2  0  0  0  0  0  0
  185.3480  178.8860  141.0580 C   0  0  0  0  0  2  0  0  0  0  0  0
  1 16  1  0  0  0  0
  1 11  1  0  0  0  0
  3 15  1  0  0  0  0
  4 24  1  1  0  0  0
  5  9  1  6  0  0  0
  5  8  1  0  0  0  0
  6  5  1  0  0  0  0
  8  2  1  6  0  0  0
  8  3  1  0  0  0  0
  9  1  1  0  0  0  0
 10 16  1  6  0  0  0
 10 14  1  0  0  0  0
 10  3  1  0  0  0  0
 12  6  1  0  0  0  0
 12  2  1  0  0  0  0
 13  4  1  0  0  0  0
 14 19  1  6  0  0  0
 14 13  1  0  0  0  0
 15  4  1  0  0  0  0
 15  7  2  0  0  0  0
 17 18  2  0  0  0  0
 17 21  1  0  0  0  0
 18 20  1  0  0  0  0
 19 22  1  0  0  0  0
 20 22  2  0  0  0  0
 21 19  2  0  0  0  0
 23 17  1  0  0  0  0
 24 25  1  0  0  0  0
 25 26  1  0  0  0  0
 27 26  1  0  0  0  0
 28 30  2  0  0  0  0
 29 27  1  0  0  0  0
 29 33  1  0  0  0  0
 30 29  1  0  0  0  0
 31 32  1  0  0  0  0
 32 33  1  0  0  0  0
 34 30  1  0  0  0  0
 34 31  1  0  0  0  0
M  END
>  <MODEL>
7

>  <REMARK>
 VINA RESULT:      -7.2      2.187      2.858
  Name = 
  6 active torsions:
  status: ('A' for Active; 'I' for Inactive)
    1  A    between atoms: C_3  and  N_13
    2  A    between atoms: C_3  and  C_17
    3  A    between atoms: C_5  and  S_18
    4  A    between atoms: C_12  and  C_28
    5  A    between atoms: C_17  and  C_29
    6  A    between atoms: S_18  and  C_29
                            x       y       z     vdW  Elec       q    Type
                         _______ _______ _______ _____ _____    ______ ____

>  <TORSDO>
F 6

$$$$
=
 OpenBabel11052414153D

 34 38  0  0  1  0  0  0  0  0999 V2000
  189.7120  177.6280  145.4370 N   0  0  0  0  0  0  0  0  0  0  0  0
  190.3220  174.7820  143.2370 O   0  0  0  0  0  0  0  0  0  0  0  0
  189.8810  177.0220  142.5180 N   0  0  0  0  0  0  0  0  0  0  0  0
  188.5140  177.5130  140.4190 C   0  0  2  0  0  3  0  0  0  0  0  0
  191.6380  176.4550  144.2830 C   0  0  1  0  0  3  0  0  0  0  0  0
  192.3270  175.1380  144.5010 C   0  0  0  0  0  2  0  0  0  0  0  0
  190.8570  176.9620  140.3900 O   0  0  0  0  0  0  0  0  0  0  0  0
  190.8520  176.0590  143.0490 C   0  0  1  0  0  3  0  0  0  0  0  0
  190.8160  176.6840  145.5610 C   0  0  0  0  0  2  0  0  0  0  0  0
  188.8290  177.6510  143.3150 C   0  0  1  0  0  3  0  0  0  0  0  0
  190.1700  178.9990  145.1720 C   0  0  0  0  0  1  0  0  0  0  0  0
  191.3220  174.1100  143.9680 C   0  0  0  0  0  2  0  0  0  0  0  0
  187.5970  178.2320  141.3060 N   0  0  0  0  0  2  0  0  0  0  0  0
  187.4950  177.5260  142.5810 C   0  0  2  0  0  3  0  0  0  0  0  0
  189.8340  177.1980  141.0890 C   0  0  0  0  0  0  0  0  0  0  0  0
  188.7420  177.1050  144.6130 O   0  0  0  0  0  0  0  0  0  0  0  0
  185.2870  178.5920  145.4950 C   0  0  0  0  0  0  0  0  0  0  0  0
  184.1370  179.0030  144.8150 C   0  0  0  0  0  3  0  0  0  0  0  0
  186.3450  178.0460  143.3810 C   0  0  0  0  0  0  0  0  0  0  0  0
  184.0900  178.9270  143.4220 C   0  0  0  0  0  3  0  0  0  0  0  0
  186.3880  178.1130  144.7810 C   0  0  0  0  0  3  0  0  0  0  0  0
  185.1900  178.4510  142.7070 C   0  0  0  0  0  3  0  0  0  0  0  0
  185.3360  178.6670  146.8460 F   0  0  0  0  0  0  0  0  0  0  0  0
  188.7260  178.4510  138.8600 S   0  0  0  0  0  0  0  0  0  0  0  0
  188.5580  176.9910  137.7930 C   0  0  0  0  0  2  0  0  0  0  0  0
  187.2180  177.0220  137.0820 C   0  0  0  0  0  2  0  0  0  0  0  0
  186.4290  178.2530  137.5090 C   0  0  0  0  0  2  0  0  0  0  0  0
  184.9300  179.7530  139.4100 O   0  0  0  0  0  0  0  0  0  0  0  0
  185.1020  177.8860  137.9970 N   0  0  0  0  0  0  0  0  0  0  0  0
  184.4470  178.6530  139.0270 C   0  0  0  0  0  0  0  0  0  0  0  0
  182.4730  177.1280  138.8450 C   0  0  0  0  0  2  0  0  0  0  0  0
  183.4300  176.0860  138.2760 C   0  0  0  0  0  2  0  0  0  0  0  0
  184.4150  176.7720  137.3370 C   0  0  0  0  0  2  0  0  0  0  0  0
  183.2370  178.1090  139.7280 C   0  0  0  0  0  2  0  0  0  0  0  0
  1  9  1  0  0  0  0
  2 12  1  0  0  0  0
  3  8  1  0  0  0  0
  3 10  1  0  0  0  0
  4 24  1  6  0  0  0
  4 15  1  0  0  0  0
  4 13  1  0  0  0  0
  5  6  1  1  0  0  0
  5  9  1  0  0  0  0
  7 15  2  0  0  0  0
  8  2  1  1  0  0  0
  8  5  1  0  0  0  0
 10 16  1  1  0  0  0
 11  1  1  0  0  0  0
 12  6  1  0  0  0  0
 13 14  1  0  0  0  0
 14 10  1  0  0  0  0
 14 19  1  1  0  0  0
 15  3  1  0  0  0  0
 16  1  1  0  0  0  0
 17 23  1  0  0  0  0
 18 17  1  0  0  0  0
 19 21  1  0  0  0  0
 20 18  2  0  0  0  0
 21 17  2  0  0  0  0
 22 19  2  0  0  0  0
 22 20  1  0  0  0  0
 25 24  1  0  0  0  0
 26 27  1  0  0  0  0
 26 25  1  0  0  0  0
 27 29  1  0  0  0  0
 29 30  1  0  0  0  0
 30 28  2  0  0  0  0
 30 34  1  0  0  0  0
 31 34  1  0  0  0  0
 32 31  1  0  0  0  0
 33 29  1  0  0  0  0
 33 32  1  0  0  0  0
M  END
>  <MODEL>
8

>  <REMARK>
 VINA RESULT:      -7.2      4.161      8.010
  Name = 
  6 active torsions:
  status: ('A' for Active; 'I' for Inactive)
    1  A    between atoms: C_3  and  N_13
    2  A    between atoms: C_3  and  C_17
    3  A    between atoms: C_5  and  S_18
    4  A    between atoms: C_12  and  C_28
    5  A    between atoms: C_17  and  C_29
    6  A    between atoms: S_18  and  C_29
                            x       y       z     vdW  Elec       q    Type
                         _______ _______ _______ _____ _____    ______ ____

>  <TORSDO>
F 6

$$$$
=
 OpenBabel11052414153D

 34 38  0  0  1  0  0  0  0  0999 V2000
  192.5540  176.4420  139.1760 N   0  0  0  0  0  0  0  0  0  0  0  0
  189.7630  174.4580  137.9170 O   0  0  0  0  0  0  0  0  0  0  0  0
  189.6300  176.7340  138.6440 N   0  0  0  0  0  0  0  0  0  0  0  0
  187.5810  177.6330  139.8740 C   0  0  2  0  0  3  0  0  0  0  0  0
  191.3920  175.9090  136.9890 C   0  0  1  0  0  3  0  0  0  0  0  0
  191.3320  174.6850  136.1200 C   0  0  0  0  0  2  0  0  0  0  0  0
  187.7160  177.4170  137.4800 O   0  0  0  0  0  0  0  0  0  0  0  0
  190.0030  175.7910  137.5840 C   0  0  1  0  0  3  0  0  0  0  0  0
  192.5620  175.6520  137.9510 C   0  0  0  0  0  2  0  0  0  0  0  0
  190.4200  176.9660  139.8520 C   0  0  1  0  0  3  0  0  0  0  0  0
  192.7360  177.8790  138.9200 C   0  0  0  0  0  1  0  0  0  0  0  0
  190.4100  173.7360  136.8940 C   0  0  0  0  0  2  0  0  0  0  0  0
  188.5000  177.9410  140.9710 N   0  0  0  0  0  2  0  0  0  0  0  0
  189.5090  176.8880  141.0760 C   0  0  2  0  0  3  0  0  0  0  0  0
  188.3100  177.3080  138.5870 C   0  0  0  0  0  0  0  0  0  0  0  0
  191.4960  176.0610  139.9690 O   0  0  0  0  0  0  0  0  0  0  0  0
  191.5480  178.2770  143.9760 C   0  0  0  0  0  0  0  0  0  0  0  0
  191.6800  177.1360  144.7730 C   0  0  0  0  0  3  0  0  0  0  0  0
  190.2590  177.0040  142.3630 C   0  0  0  0  0  0  0  0  0  0  0  0
  191.1100  175.9310  144.3600 C   0  0  0  0  0  3  0  0  0  0  0  0
  190.8420  178.2120  142.7740 C   0  0  0  0  0  3  0  0  0  0  0  0
  190.4010  175.8650  143.1590 C   0  0  0  0  0  3  0  0  0  0  0  0
  192.0990  179.4480  144.3770 F   0  0  0  0  0  0  0  0  0  0  0  0
  186.3800  179.0010  139.6730 S   0  0  0  0  0  0  0  0  0  0  0  0
  185.2730  178.4090  140.9860 C   0  0  0  0  0  2  0  0  0  0  0  0
  185.5110  179.2010  142.2580 C   0  0  0  0  0  2  0  0  0  0  0  0
  184.7720  178.5550  143.4220 C   0  0  0  0  0  2  0  0  0  0  0  0
  184.1650  179.0030  146.1680 O   0  0  0  0  0  0  0  0  0  0  0  0
  185.6780  178.2700  144.5310 N   0  0  0  0  0  0  0  0  0  0  0  0
  185.3290  178.6080  145.8880 C   0  0  0  0  0  0  0  0  0  0  0  0
  187.4940  177.6120  146.6460 C   0  0  0  0  0  2  0  0  0  0  0  0
  188.0140  177.8640  145.2350 C   0  0  0  0  0  2  0  0  0  0  0  0
  186.9130  177.5370  144.2320 C   0  0  0  0  0  2  0  0  0  0  0  0
  186.3690  178.5900  146.9690 C   0  0  0  0  0  2  0  0  0  0  0  0
  1 16  1  0  0  0  0
  3 10  1  0  0  0  0
  4 24  1  6  0  0  0
  4 13  1  0  0  0  0
  5  6  1  6  0  0  0
  5  8  1  0  0  0  0
  5  9  1  0  0  0  0
  6 12  1  0  0  0  0
  7 15  2  0  0  0  0
  8  2  1  1  0  0  0
  8  3  1  0  0  0  0
  9  1  1  0  0  0  0
 10 16  1  1  0  0  0
 10 14  1  0  0  0  0
 11  1  1  0  0  0  0
 12  2  1  0  0  0  0
 13 14  1  0  0  0  0
 14 19  1  1  0  0  0
 15  3  1  0  0  0  0
 15  4  1  0  0  0  0
 17 23  1  0  0  0  0
 17 18  1  0  0  0  0
 19 21  1  0  0  0  0
 19 22  2  0  0  0  0
 20 18  2  0  0  0  0
 21 17  2  0  0  0  0
 22 20  1  0  0  0  0
 24 25  1  0  0  0  0
 25 26  1  0  0  0  0
 26 27  1  0  0  0  0
 27 29  1  0  0  0  0
 29 30  1  0  0  0  0
 30 28  2  0  0  0  0
 30 34  1  0  0  0  0
 31 34  1  0  0  0  0
 32 31  1  0  0  0  0
 33 29  1  0  0  0  0
 33 32  1  0  0  0  0
M  END
>  <MODEL>
9

>  <REMARK>
 VINA RESULT:      -7.0      3.252      5.478
  Name = 
  6 active torsions:
  status: ('A' for Active; 'I' for Inactive)
    1  A    between atoms: C_3  and  N_13
    2  A    between atoms: C_3  and  C_17
    3  A    between atoms: C_5  and  S_18
    4  A    between atoms: C_12  and  C_28
    5  A    between atoms: C_17  and  C_29
    6  A    between atoms: S_18  and  C_29
                            x       y       z     vdW  Elec       q    Type
                         _______ _______ _______ _____ _____    ______ ____

>  <TORSDO>
F 6

$$$$
