=
 OpenBabel11052412513D

 25 28  0  0  1  0  0  0  0  0999 V2000
  187.6050  177.9100  143.0650 N   0  0  0  0  0  0  0  0  0  0  0  0
  187.3960  177.7860  144.4790 C   0  0  0  0  0  0  0  0  0  0  0  0
  185.3310  178.6050  142.6900 C   0  0  0  0  0  3  0  0  0  0  0  0
  188.7950  177.6460  142.2550 C   0  0  0  0  0  0  0  0  0  0  0  0
  189.1290  178.6480  139.7960 C   0  0  0  0  0  2  0  0  0  0  0  0
  185.0890  178.5140  144.1510 C   0  0  0  0  0  3  0  0  0  0  0  0
  188.2700  177.9680  140.8370 C   0  0  0  0  0  0  0  0  0  0  0  0
  188.7080  177.1890  139.6170 C   0  0  0  0  0  2  0  0  0  0  0  0
  185.7950  178.0860  146.4870 C   0  0  2  0  0  3  0  0  0  0  0  0
  185.5280  179.4240  146.9860 N   0  0  0  0  0  1  0  0  0  0  0  0
  188.3440  177.3400  145.3000 C   0  0  0  0  0  3  0  0  0  0  0  0
  189.9320  178.5680  142.6710 C   0  0  0  0  0  1  0  0  0  0  0  0
  186.5420  178.3130  142.2120 C   0  0  0  0  0  0  0  0  0  0  0  0
  186.9070  178.3580  140.8800 O   0  0  0  0  0  0  0  0  0  0  0  0
  186.9150  177.5030  147.2400 N   0  0  0  0  0  0  0  0  0  0  0  0
  189.2160  176.1890  142.3900 C   0  0  0  0  0  1  0  0  0  0  0  0
  188.0730  177.1800  146.7360 C   0  0  0  0  0  0  0  0  0  0  0  0
  186.0580  178.1350  145.0050 C   0  0  0  0  0  0  0  0  0  0  0  0
  189.0820  176.6600  147.5500 O   0  0  0  0  0  0  0  0  0  0  0  0
  190.3450  177.2950  147.6910 C   0  0  0  0  0  2  0  0  0  0  0  0
  191.3940  176.4720  147.0260 C   0  0  0  0  0  0  0  0  0  0  0  0
  191.9620  175.5540  147.6740 O   0  0  0  0  0  0  0  0  0  0  0  0
  191.7380  176.7020  145.6170 C   0  0  0  0  0  0  0  0  0  0  0  0
  191.8430  175.6300  144.7380 O   0  0  0  0  0  0  0  0  0  0  0  0
  191.9410  177.8700  145.1960 O   0  0  0  0  0  1  0  0  0  0  0  0
  1  2  1  0  0  0  0
  2 18  1  0  0  0  0
  2 11  2  0  0  0  0
  3  6  1  0  0  0  0
  4 16  1  0  0  0  0
  4 12  1  0  0  0  0
  4  1  1  0  0  0  0
  5  7  1  0  0  0  0
  6 18  2  0  0  0  0
  7 14  1  0  0  0  0
  7  4  1  0  0  0  0
  8  5  1  0  0  0  0
  8  7  1  0  0  0  0
  9 10  1  1  0  0  0
  9 15  1  0  0  0  0
 11 17  1  0  0  0  0
 13  3  2  0  0  0  0
 13  1  1  0  0  0  0
 14 13  1  0  0  0  0
 17 15  2  0  0  0  0
 17 19  1  0  0  0  0
 18  9  1  0  0  0  0
 19 20  1  0  0  0  0
 21 22  2  0  0  0  0
 21 20  1  0  0  0  0
 23 21  1  0  0  0  0
 24 23  2  0  0  0  0
 25 23  1  0  0  0  0
M  END
>  <MODEL>
1

>  <REMARK>
 VINA RESULT:      -8.5      0.000      0.000
  Name = 
  4 active torsions:
  status: ('A' for Active; 'I' for Inactive)
    1  A    between atoms: C_2  and  C_21
    2  A    between atoms: O_6  and  C_15
    3  A    between atoms: O_6  and  C_23
    4  A    between atoms: C_15  and  C_21
                            x       y       z     vdW  Elec       q    Type
                         _______ _______ _______ _____ _____    ______ ____

>  <TORSDO>
F 4

$$$$
=
 OpenBabel11052412513D

 25 28  0  0  1  0  0  0  0  0999 V2000
  188.4040  177.5890  144.9690 N   0  0  0  0  0  0  0  0  0  0  0  0
  187.0520  178.0480  145.1180 C   0  0  0  0  0  0  0  0  0  0  0  0
  188.8530  177.8420  147.3200 C   0  0  0  0  0  3  0  0  0  0  0  0
  189.1400  177.1820  143.7720 C   0  0  0  0  0  0  0  0  0  0  0  0
  191.3630  175.6940  143.8730 C   0  0  0  0  0  2  0  0  0  0  0  0
  187.4530  178.2940  147.5130 C   0  0  0  0  0  3  0  0  0  0  0  0
  190.5260  176.8490  144.3720 C   0  0  0  0  0  0  0  0  0  0  0  0
  191.8150  177.1360  143.6350 C   0  0  0  0  0  2  0  0  0  0  0  0
  185.1670  178.8160  146.7130 C   0  0  2  0  0  3  0  0  0  0  0  0
  184.4800  177.8270  147.5250 N   0  0  0  0  0  1  0  0  0  0  0  0
  186.2370  178.2050  144.0770 C   0  0  0  0  0  3  0  0  0  0  0  0
  188.4820  175.9660  143.1360 C   0  0  0  0  0  1  0  0  0  0  0  0
  189.2660  177.5120  146.0950 C   0  0  0  0  0  0  0  0  0  0  0  0
  190.5360  177.0740  145.7720 O   0  0  0  0  0  0  0  0  0  0  0  0
  184.4270  179.0110  145.4580 N   0  0  0  0  0  0  0  0  0  0  0  0
  189.2110  178.3300  142.7760 C   0  0  0  0  0  1  0  0  0  0  0  0
  184.8750  178.7260  144.2670 C   0  0  0  0  0  0  0  0  0  0  0  0
  186.5930  178.3890  146.4820 C   0  0  0  0  0  0  0  0  0  0  0  0
  184.0750  178.9230  143.1400 O   0  0  0  0  0  0  0  0  0  0  0  0
  184.2420  178.1650  141.9500 C   0  0  0  0  0  2  0  0  0  0  0  0
  184.7240  179.0530  140.8570 C   0  0  0  0  0  0  0  0  0  0  0  0
  185.9120  179.4740  140.8810 O   0  0  0  0  0  0  0  0  0  0  0  0
  183.8400  179.4060  139.7390 C   0  0  0  0  0  0  0  0  0  0  0  0
  182.6180  178.7630  139.5830 O   0  0  0  0  0  1  0  0  0  0  0  0
  184.1830  180.2940  138.9150 O   0  0  0  0  0  0  0  0  0  0  0  0
  1  2  1  0  0  0  0
  1 13  1  0  0  0  0
  2 18  1  0  0  0  0
  3  6  1  0  0  0  0
  4  7  1  0  0  0  0
  4  1  1  0  0  0  0
  5  7  1  0  0  0  0
  7 14  1  0  0  0  0
  8  5  1  0  0  0  0
  8  7  1  0  0  0  0
  9 10  1  1  0  0  0
 11 17  1  0  0  0  0
 11  2  2  0  0  0  0
 12  4  1  0  0  0  0
 13  3  2  0  0  0  0
 14 13  1  0  0  0  0
 15  9  1  0  0  0  0
 16  4  1  0  0  0  0
 17 15  2  0  0  0  0
 18  9  1  0  0  0  0
 18  6  2  0  0  0  0
 19 17  1  0  0  0  0
 20 19  1  0  0  0  0
 21 22  2  0  0  0  0
 21 20  1  0  0  0  0
 23 21  1  0  0  0  0
 24 23  1  0  0  0  0
 25 23  2  0  0  0  0
M  END
>  <MODEL>
2

>  <REMARK>
 VINA RESULT:      -8.3      2.074      5.978
  Name = 
  4 active torsions:
  status: ('A' for Active; 'I' for Inactive)
    1  A    between atoms: C_2  and  C_21
    2  A    between atoms: O_6  and  C_15
    3  A    between atoms: O_6  and  C_23
    4  A    between atoms: C_15  and  C_21
                            x       y       z     vdW  Elec       q    Type
                         _______ _______ _______ _____ _____    ______ ____

>  <TORSDO>
F 4

$$$$
=
 OpenBabel11052412513D

 25 28  0  0  1  0  0  0  0  0999 V2000
  187.4610  177.9630  144.1280 N   0  0  0  0  0  0  0  0  0  0  0  0
  186.8800  178.2360  142.8440 C   0  0  0  0  0  0  0  0  0  0  0  0
  185.3950  178.4230  145.2730 C   0  0  0  0  0  3  0  0  0  0  0  0
  188.8300  177.5890  144.4880 C   0  0  0  0  0  0  0  0  0  0  0  0
  189.4510  176.4370  146.8230 C   0  0  0  0  0  2  0  0  0  0  0  0
  184.7550  178.6850  143.9590 C   0  0  0  0  0  3  0  0  0  0  0  0
  188.7170  177.4920  146.0280 C   0  0  0  0  0  0  0  0  0  0  0  0
  189.8430  177.9110  146.9460 C   0  0  0  0  0  2  0  0  0  0  0  0
  184.7610  178.8310  141.4870 C   0  0  2  0  0  3  0  0  0  0  0  0
  183.7550  177.8070  141.2600 N   0  0  0  0  0  1  0  0  0  0  0  0
  187.5940  178.2120  141.7220 C   0  0  0  0  0  3  0  0  0  0  0  0
  189.1970  176.2560  143.8530 C   0  0  0  0  0  1  0  0  0  0  0  0
  186.6840  178.0780  145.3110 C   0  0  0  0  0  0  0  0  0  0  0  0
  187.4020  177.8030  146.4580 O   0  0  0  0  0  0  0  0  0  0  0  0
  185.7020  178.8410  140.3580 N   0  0  0  0  0  0  0  0  0  0  0  0
  189.8080  178.6720  144.0550 C   0  0  0  0  0  1  0  0  0  0  0  0
  186.9710  178.5480  140.4330 C   0  0  0  0  0  0  0  0  0  0  0  0
  185.4450  178.5940  142.8070 C   0  0  0  0  0  0  0  0  0  0  0  0
  187.7720  178.5600  139.2890 O   0  0  0  0  0  0  0  0  0  0  0  0
  189.1910  178.5740  139.3580 C   0  0  0  0  0  2  0  0  0  0  0  0
  189.7410  177.4480  138.5530 C   0  0  0  0  0  0  0  0  0  0  0  0
  189.6200  177.4690  137.2990 O   0  0  0  0  0  0  0  0  0  0  0  0
  190.4500  176.3410  139.2070 C   0  0  0  0  0  0  0  0  0  0  0  0
  190.5560  176.2980  140.5920 O   0  0  0  0  0  1  0  0  0  0  0  0
  190.9660  175.4230  138.5170 O   0  0  0  0  0  0  0  0  0  0  0  0
  1  4  1  0  0  0  0
  1 13  1  0  0  0  0
  2  1  1  0  0  0  0
  3 13  2  0  0  0  0
  4  7  1  0  0  0  0
  5  8  1  0  0  0  0
  6  3  1  0  0  0  0
  7 14  1  0  0  0  0
  7  5  1  0  0  0  0
  7  8  1  0  0  0  0
  9 10  1  6  0  0  0
  9 18  1  0  0  0  0
 11  2  2  0  0  0  0
 12  4  1  0  0  0  0
 13 14  1  0  0  0  0
 15 17  2  0  0  0  0
 15  9  1  0  0  0  0
 16  4  1  0  0  0  0
 17 11  1  0  0  0  0
 18  2  1  0  0  0  0
 18  6  2  0  0  0  0
 19 20  1  0  0  0  0
 19 17  1  0  0  0  0
 21 23  1  0  0  0  0
 21 20  1  0  0  0  0
 22 21  2  0  0  0  0
 23 24  1  0  0  0  0
 25 23  2  0  0  0  0
M  END
>  <MODEL>
3

>  <REMARK>
 VINA RESULT:      -7.9      2.295      5.802
  Name = 
  4 active torsions:
  status: ('A' for Active; 'I' for Inactive)
    1  A    between atoms: C_2  and  C_21
    2  A    between atoms: O_6  and  C_15
    3  A    between atoms: O_6  and  C_23
    4  A    between atoms: C_15  and  C_21
                            x       y       z     vdW  Elec       q    Type
                         _______ _______ _______ _____ _____    ______ ____

>  <TORSDO>
F 4

$$$$
=
 OpenBabel11052412513D

 25 28  0  0  1  0  0  0  0  0999 V2000
  187.5750  177.9380  144.2310 N   0  0  0  0  0  0  0  0  0  0  0  0
  187.0430  178.2110  142.9260 C   0  0  0  0  0  0  0  0  0  0  0  0
  185.4640  178.3880  145.2950 C   0  0  0  0  0  3  0  0  0  0  0  0
  188.9290  177.5670  144.6440 C   0  0  0  0  0  0  0  0  0  0  0  0
  189.4630  176.4130  146.9990 C   0  0  0  0  0  2  0  0  0  0  0  0
  184.8750  178.6510  143.9580 C   0  0  0  0  0  3  0  0  0  0  0  0
  188.7570  177.4670  146.1780 C   0  0  0  0  0  0  0  0  0  0  0  0
  189.8450  177.8880  147.1400 C   0  0  0  0  0  2  0  0  0  0  0  0
  184.9770  178.8010  141.4880 C   0  0  2  0  0  3  0  0  0  0  0  0
  183.9840  177.7740  141.2210 N   0  0  0  0  0  1  0  0  0  0  0  0
  187.8010  178.1910  141.8330 C   0  0  0  0  0  3  0  0  0  0  0  0
  189.3260  176.2370  144.0210 C   0  0  0  0  0  1  0  0  0  0  0  0
  186.7510  178.0470  145.3830 C   0  0  0  0  0  0  0  0  0  0  0  0
  187.4250  177.7730  146.5570 O   0  0  0  0  0  0  0  0  0  0  0  0
  185.9610  178.8160  140.3970 N   0  0  0  0  0  0  0  0  0  0  0  0
  189.9190  178.6550  144.2510 C   0  0  0  0  0  1  0  0  0  0  0  0
  187.2270  178.5270  140.5210 C   0  0  0  0  0  0  0  0  0  0  0  0
  185.6090  178.5640  142.8340 C   0  0  0  0  0  0  0  0  0  0  0  0
  188.0720  178.5440  139.4090 O   0  0  0  0  0  0  0  0  0  0  0  0
  189.4450  178.1890  139.4960 C   0  0  0  0  0  2  0  0  0  0  0  0
  189.6670  176.8840  138.8140 C   0  0  0  0  0  0  0  0  0  0  0  0
  190.4180  176.0260  139.3510 O   0  0  0  0  0  0  0  0  0  0  0  0
  188.9890  176.5800  137.5480 C   0  0  0  0  0  0  0  0  0  0  0  0
  189.3930  177.2000  136.3710 O   0  0  0  0  0  0  0  0  0  0  0  0
  188.0370  175.7570  137.5190 O   0  0  0  0  0  1  0  0  0  0  0  0
  1  4  1  0  0  0  0
  1 13  1  0  0  0  0
  2  1  1  0  0  0  0
  3 13  2  0  0  0  0
  4  7  1  0  0  0  0
  5  8  1  0  0  0  0
  6  3  1  0  0  0  0
  7 14  1  0  0  0  0
  7  5  1  0  0  0  0
  7  8  1  0  0  0  0
  9 10  1  6  0  0  0
  9 18  1  0  0  0  0
 11  2  2  0  0  0  0
 12  4  1  0  0  0  0
 13 14  1  0  0  0  0
 15 17  2  0  0  0  0
 15  9  1  0  0  0  0
 16  4  1  0  0  0  0
 17 11  1  0  0  0  0
 18  2  1  0  0  0  0
 18  6  2  0  0  0  0
 19 20  1  0  0  0  0
 19 17  1  0  0  0  0
 21 22  2  0  0  0  0
 21 20  1  0  0  0  0
 23 21  1  0  0  0  0
 24 23  2  0  0  0  0
 25 23  1  0  0  0  0
M  END
>  <MODEL>
4

>  <REMARK>
 VINA RESULT:      -7.6      2.347      6.023
  Name = 
  4 active torsions:
  status: ('A' for Active; 'I' for Inactive)
    1  A    between atoms: C_2  and  C_21
    2  A    between atoms: O_6  and  C_15
    3  A    between atoms: O_6  and  C_23
    4  A    between atoms: C_15  and  C_21
                            x       y       z     vdW  Elec       q    Type
                         _______ _______ _______ _____ _____    ______ ____

>  <TORSDO>
F 4

$$$$
=
 OpenBabel11052412513D

 25 28  0  0  1  0  0  0  0  0999 V2000
  188.3750  177.6060  144.9450 N   0  0  0  0  0  0  0  0  0  0  0  0
  187.0210  178.0410  145.1350 C   0  0  0  0  0  0  0  0  0  0  0  0
  188.8980  177.8910  147.2770 C   0  0  0  0  0  3  0  0  0  0  0  0
  189.0780  177.1990  143.7280 C   0  0  0  0  0  0  0  0  0  0  0  0
  191.3300  175.7530  143.7680 C   0  0  0  0  0  2  0  0  0  0  0  0
  187.4970  178.3190  147.5130 C   0  0  0  0  0  3  0  0  0  0  0  0
  190.4900  176.8980  144.2850 C   0  0  0  0  0  0  0  0  0  0  0  0
  191.7470  177.2000  143.5020 C   0  0  0  0  0  2  0  0  0  0  0  0
  185.1770  178.7920  146.7850 C   0  0  2  0  0  3  0  0  0  0  0  0
  184.5350  177.7990  147.6290 N   0  0  0  0  0  1  0  0  0  0  0  0
  186.1690  178.1720  144.1210 C   0  0  0  0  0  3  0  0  0  0  0  0
  188.4220  175.9650  143.1260 C   0  0  0  0  0  1  0  0  0  0  0  0
  189.2760  177.5550  146.0420 C   0  0  0  0  0  0  0  0  0  0  0  0
  190.5420  177.1370  145.6820 O   0  0  0  0  0  0  0  0  0  0  0  0
  184.3910  178.9600  145.5540 N   0  0  0  0  0  0  0  0  0  0  0  0
  189.0950  178.3390  142.7190 C   0  0  0  0  0  1  0  0  0  0  0  0
  184.8050  178.6710  144.3520 C   0  0  0  0  0  0  0  0  0  0  0  0
  186.6010  178.3880  146.5110 C   0  0  0  0  0  0  0  0  0  0  0  0
  183.9630  178.8420  143.2500 O   0  0  0  0  0  0  0  0  0  0  0  0
  182.5900  179.1750  143.3900 C   0  0  0  0  0  2  0  0  0  0  0  0
  181.8440  178.7410  142.1760 C   0  0  0  0  0  0  0  0  0  0  0  0
  182.4820  178.2850  141.1900 O   0  0  0  0  0  0  0  0  0  0  0  0
  180.3780  178.8060  142.1390 C   0  0  0  0  0  0  0  0  0  0  0  0
  179.6210  177.6540  142.3110 O   0  0  0  0  0  1  0  0  0  0  0  0
  179.7970  179.9070  141.9520 O   0  0  0  0  0  0  0  0  0  0  0  0
  1  2  1  0  0  0  0
  1 13  1  0  0  0  0
  2 18  1  0  0  0  0
  3  6  1  0  0  0  0
  4  7  1  0  0  0  0
  4  1  1  0  0  0  0
  5  7  1  0  0  0  0
  7 14  1  0  0  0  0
  8  5  1  0  0  0  0
  8  7  1  0  0  0  0
  9 10  1  1  0  0  0
 11 17  1  0  0  0  0
 11  2  2  0  0  0  0
 12  4  1  0  0  0  0
 13  3  2  0  0  0  0
 14 13  1  0  0  0  0
 15  9  1  0  0  0  0
 16  4  1  0  0  0  0
 17 15  2  0  0  0  0
 18  9  1  0  0  0  0
 18  6  2  0  0  0  0
 19 20  1  0  0  0  0
 19 17  1  0  0  0  0
 21 20  1  0  0  0  0
 22 21  2  0  0  0  0
 23 21  1  0  0  0  0
 23 24  1  0  0  0  0
 25 23  2  0  0  0  0
M  END
>  <MODEL>
5

>  <REMARK>
 VINA RESULT:      -7.5      3.023      6.654
  Name = 
  4 active torsions:
  status: ('A' for Active; 'I' for Inactive)
    1  A    between atoms: C_2  and  C_21
    2  A    between atoms: O_6  and  C_15
    3  A    between atoms: O_6  and  C_23
    4  A    between atoms: C_15  and  C_21
                            x       y       z     vdW  Elec       q    Type
                         _______ _______ _______ _____ _____    ______ ____

>  <TORSDO>
F 4

$$$$
=
 OpenBabel11052412513D

 25 28  0  0  1  0  0  0  0  0999 V2000
  188.6380  177.5460  143.8510 N   0  0  0  0  0  0  0  0  0  0  0  0
  187.7800  177.9550  142.7760 C   0  0  0  0  0  0  0  0  0  0  0  0
  186.9020  177.8620  145.4890 C   0  0  0  0  0  3  0  0  0  0  0  0
  190.0440  177.1430  143.8410 C   0  0  0  0  0  0  0  0  0  0  0  0
  191.1670  175.7430  145.8270 C   0  0  0  0  0  2  0  0  0  0  0  0
  185.9810  178.2640  144.3960 C   0  0  0  0  0  3  0  0  0  0  0  0
  190.2900  176.8750  145.3440 C   0  0  0  0  0  0  0  0  0  0  0  0
  191.6060  177.1960  146.0170 C   0  0  0  0  0  2  0  0  0  0  0  0
  185.4160  178.6830  142.0210 C   0  0  2  0  0  3  0  0  0  0  0  0
  184.3660  177.6840  141.9250 N   0  0  0  0  0  1  0  0  0  0  0  0
  188.2150  178.0600  141.5230 C   0  0  0  0  0  3  0  0  0  0  0  0
  190.2290  175.8900  142.9960 C   0  0  0  0  0  1  0  0  0  0  0  0
  188.1570  177.5240  145.1880 C   0  0  0  0  0  0  0  0  0  0  0  0
  189.1170  177.1280  146.1000 O   0  0  0  0  0  0  0  0  0  0  0  0
  186.0710  178.8240  140.7120 N   0  0  0  0  0  0  0  0  0  0  0  0
  190.9160  178.2730  143.3130 C   0  0  0  0  0  1  0  0  0  0  0  0
  187.3160  178.5320  140.4580 C   0  0  0  0  0  0  0  0  0  0  0  0
  186.3830  178.3060  143.1130 C   0  0  0  0  0  0  0  0  0  0  0  0
  187.8310  178.6760  139.1680 O   0  0  0  0  0  0  0  0  0  0  0  0
  189.1710  178.3340  138.8440 C   0  0  0  0  0  2  0  0  0  0  0  0
  189.1960  177.0150  138.1530 C   0  0  0  0  0  0  0  0  0  0  0  0
  189.9920  176.1230  138.5510 O   0  0  0  0  0  0  0  0  0  0  0  0
  188.2760  176.7380  137.0420 C   0  0  0  0  0  0  0  0  0  0  0  0
  188.4900  177.3160  135.7960 O   0  0  0  0  0  0  0  0  0  0  0  0
  187.2880  175.9780  137.2110 O   0  0  0  0  0  1  0  0  0  0  0  0
  1 13  1  0  0  0  0
  2 18  1  0  0  0  0
  2  1  1  0  0  0  0
  4  1  1  0  0  0  0
  4  7  1  0  0  0  0
  5  8  1  0  0  0  0
  6  3  1  0  0  0  0
  7  5  1  0  0  0  0
  7  8  1  0  0  0  0
  7 14  1  0  0  0  0
  9 10  1  6  0  0  0
  9 18  1  0  0  0  0
 11  2  2  0  0  0  0
 12  4  1  0  0  0  0
 13  3  2  0  0  0  0
 13 14  1  0  0  0  0
 15  9  1  0  0  0  0
 16  4  1  0  0  0  0
 17 15  2  0  0  0  0
 17 11  1  0  0  0  0
 18  6  2  0  0  0  0
 19 17  1  0  0  0  0
 20 19  1  0  0  0  0
 21 22  2  0  0  0  0
 21 20  1  0  0  0  0
 23 25  1  0  0  0  0
 23 21  1  0  0  0  0
 24 23  2  0  0  0  0
M  END
>  <MODEL>
6

>  <REMARK>
 VINA RESULT:      -7.3      2.227      6.192
  Name = 
  4 active torsions:
  status: ('A' for Active; 'I' for Inactive)
    1  A    between atoms: C_2  and  C_21
    2  A    between atoms: O_6  and  C_15
    3  A    between atoms: O_6  and  C_23
    4  A    between atoms: C_15  and  C_21
                            x       y       z     vdW  Elec       q    Type
                         _______ _______ _______ _____ _____    ______ ____

>  <TORSDO>
F 4

$$$$
=
 OpenBabel11052412513D

 25 28  0  0  1  0  0  0  0  0999 V2000
  187.9250  177.8530  144.3500 N   0  0  0  0  0  0  0  0  0  0  0  0
  186.8550  178.3120  143.5110 C   0  0  0  0  0  0  0  0  0  0  0  0
  186.6740  178.2980  146.3570 C   0  0  0  0  0  3  0  0  0  0  0  0
  189.2560  177.3560  144.0010 C   0  0  0  0  0  0  0  0  0  0  0  0
  190.7460  175.8990  145.6810 C   0  0  0  0  0  2  0  0  0  0  0  0
  185.5380  178.7540  145.5180 C   0  0  0  0  0  3  0  0  0  0  0  0
  189.8500  177.0830  145.4030 C   0  0  0  0  0  0  0  0  0  0  0  0
  191.3100  177.3200  145.7210 C   0  0  0  0  0  2  0  0  0  0  0  0
  184.4290  179.1910  143.3460 C   0  0  2  0  0  3  0  0  0  0  0  0
  183.3260  178.2660  143.5370 N   0  0  0  0  0  1  0  0  0  0  0  0
  186.9700  178.3770  142.1870 C   0  0  0  0  0  3  0  0  0  0  0  0
  189.1450  176.0880  143.1670 C   0  0  0  0  0  1  0  0  0  0  0  0
  187.7910  177.8730  145.7640 C   0  0  0  0  0  0  0  0  0  0  0  0
  188.9200  177.4210  146.4190 O   0  0  0  0  0  0  0  0  0  0  0  0
  184.7450  179.2790  141.9140 N   0  0  0  0  0  0  0  0  0  0  0  0
  190.0400  178.4210  143.2470 C   0  0  0  0  0  1  0  0  0  0  0  0
  185.8680  178.9010  141.3660 C   0  0  0  0  0  0  0  0  0  0  0  0
  185.6100  178.7580  144.1740 C   0  0  0  0  0  0  0  0  0  0  0  0
  186.0540  179.0010  139.9860 O   0  0  0  0  0  0  0  0  0  0  0  0
  185.2520  178.2820  139.0600 C   0  0  0  0  0  2  0  0  0  0  0  0
  186.0660  177.9280  137.8640 C   0  0  0  0  0  0  0  0  0  0  0  0
  185.4860  177.5520  136.8100 O   0  0  0  0  0  0  0  0  0  0  0  0
  187.5290  178.0510  137.8960 C   0  0  0  0  0  0  0  0  0  0  0  0
  188.2960  177.1080  138.5690 O   0  0  0  0  0  1  0  0  0  0  0  0
  188.0970  179.0110  137.3140 O   0  0  0  0  0  0  0  0  0  0  0  0
  1 13  1  0  0  0  0
  2 18  1  0  0  0  0
  2  1  1  0  0  0  0
  4  1  1  0  0  0  0
  4  7  1  0  0  0  0
  5  8  1  0  0  0  0
  6  3  1  0  0  0  0
  7  5  1  0  0  0  0
  7  8  1  0  0  0  0
  7 14  1  0  0  0  0
  9 10  1  6  0  0  0
  9 18  1  0  0  0  0
 11  2  2  0  0  0  0
 12  4  1  0  0  0  0
 13  3  2  0  0  0  0
 13 14  1  0  0  0  0
 15  9  1  0  0  0  0
 16  4  1  0  0  0  0
 17 15  2  0  0  0  0
 17 11  1  0  0  0  0
 18  6  2  0  0  0  0
 19 17  1  0  0  0  0
 20 19  1  0  0  0  0
 21 23  1  0  0  0  0
 21 20  1  0  0  0  0
 22 21  2  0  0  0  0
 23 24  1  0  0  0  0
 25 23  2  0  0  0  0
M  END
>  <MODEL>
7

>  <REMARK>
 VINA RESULT:      -7.2      2.197      6.262
  Name = 
  4 active torsions:
  status: ('A' for Active; 'I' for Inactive)
    1  A    between atoms: C_2  and  C_21
    2  A    between atoms: O_6  and  C_15
    3  A    between atoms: O_6  and  C_23
    4  A    between atoms: C_15  and  C_21
                            x       y       z     vdW  Elec       q    Type
                         _______ _______ _______ _____ _____    ______ ____

>  <TORSDO>
F 4

$$$$
=
 OpenBabel11052412513D

 25 28  0  0  1  0  0  0  0  0999 V2000
  183.0480  178.6350  141.6390 N   0  0  0  0  0  0  0  0  0  0  0  0
  184.1630  178.4300  142.5190 C   0  0  0  0  0  0  0  0  0  0  0  0
  181.5420  179.0210  143.4750 C   0  0  0  0  0  3  0  0  0  0  0  0
  182.9680  178.5710  140.1790 C   0  0  0  0  0  0  0  0  0  0  0  0
  180.9850  179.7030  138.7830 C   0  0  0  0  0  2  0  0  0  0  0  0
  182.6790  178.8420  144.4120 C   0  0  0  0  0  3  0  0  0  0  0  0
  181.4690  178.8710  139.9480 C   0  0  0  0  0  0  0  0  0  0  0  0
  180.6740  178.2070  138.8460 C   0  0  0  0  0  2  0  0  0  0  0  0
  185.0630  178.4270  144.9430 C   0  0  2  0  0  3  0  0  0  0  0  0
  185.3050  179.6950  145.6100 N   0  0  0  0  0  1  0  0  0  0  0  0
  185.3680  178.0890  142.0690 C   0  0  0  0  0  3  0  0  0  0  0  0
  183.8700  179.6250  139.5530 C   0  0  0  0  0  1  0  0  0  0  0  0
  181.7590  178.9190  142.1630 C   0  0  0  0  0  0  0  0  0  0  0  0
  180.7980  179.0660  141.1820 O   0  0  0  0  0  0  0  0  0  0  0  0
  186.3030  177.9770  144.2940 N   0  0  0  0  0  0  0  0  0  0  0  0
  183.3540  177.1820  139.6880 C   0  0  0  0  0  1  0  0  0  0  0  0
  186.4720  177.8380  143.0080 C   0  0  0  0  0  0  0  0  0  0  0  0
  183.9210  178.5690  143.9720 C   0  0  0  0  0  0  0  0  0  0  0  0
  187.7050  177.4320  142.4930 O   0  0  0  0  0  0  0  0  0  0  0  0
  188.5960  178.3370  141.8580 C   0  0  0  0  0  2  0  0  0  0  0  0
  188.9300  177.8350  140.4960 C   0  0  0  0  0  0  0  0  0  0  0  0
  189.7180  176.8600  140.3730 O   0  0  0  0  0  0  0  0  0  0  0  0
  188.3200  178.4440  139.3070 C   0  0  0  0  0  0  0  0  0  0  0  0
  189.0920  179.1970  138.4310 O   0  0  0  0  0  0  0  0  0  0  0  0
  187.0930  178.2880  139.0740 O   0  0  0  0  0  1  0  0  0  0  0  0
  1 13  1  0  0  0  0
  1  2  1  0  0  0  0
  2 18  1  0  0  0  0
  3  6  1  0  0  0  0
  4  1  1  0  0  0  0
  5  8  1  0  0  0  0
  5  7  1  0  0  0  0
  7  4  1  0  0  0  0
  7 14  1  0  0  0  0
  8  7  1  0  0  0  0
  9 10  1  6  0  0  0
 11  2  2  0  0  0  0
 11 17  1  0  0  0  0
 12  4  1  0  0  0  0
 13  3  2  0  0  0  0
 14 13  1  0  0  0  0
 15  9  1  0  0  0  0
 16  4  1  0  0  0  0
 17 15  2  0  0  0  0
 18  6  2  0  0  0  0
 18  9  1  0  0  0  0
 19 17  1  0  0  0  0
 20 19  1  0  0  0  0
 21 20  1  0  0  0  0
 22 21  2  0  0  0  0
 23 21  1  0  0  0  0
 24 23  2  0  0  0  0
 25 23  1  0  0  0  0
M  END
>  <MODEL>
8

>  <REMARK>
 VINA RESULT:      -7.2      3.404      5.803
  Name = 
  4 active torsions:
  status: ('A' for Active; 'I' for Inactive)
    1  A    between atoms: C_2  and  C_21
    2  A    between atoms: O_6  and  C_15
    3  A    between atoms: O_6  and  C_23
    4  A    between atoms: C_15  and  C_21
                            x       y       z     vdW  Elec       q    Type
                         _______ _______ _______ _____ _____    ______ ____

>  <TORSDO>
F 4

$$$$
=
 OpenBabel11052412513D

 25 28  0  0  1  0  0  0  0  0999 V2000
  186.4940  178.1390  145.2780 N   0  0  0  0  0  0  0  0  0  0  0  0
  185.5240  178.3720  144.2470 C   0  0  0  0  0  0  0  0  0  0  0  0
  188.1230  177.3300  143.7020 C   0  0  0  0  0  3  0  0  0  0  0  0
  186.4000  178.3250  146.7270 C   0  0  0  0  0  0  0  0  0  0  0  0
  188.5520  178.5180  148.3070 C   0  0  0  0  0  2  0  0  0  0  0  0
  187.1530  177.5860  142.6080 C   0  0  0  0  0  3  0  0  0  0  0  0
  187.7990  177.8470  147.1810 C   0  0  0  0  0  0  0  0  0  0  0  0
  188.0150  177.0960  148.4750 C   0  0  0  0  0  2  0  0  0  0  0  0
  184.9760  178.3660  141.7190 C   0  0  2  0  0  3  0  0  0  0  0  0
  185.5120  179.4200  140.8760 N   0  0  0  0  0  1  0  0  0  0  0  0
  184.2910  178.7950  144.5140 C   0  0  0  0  0  3  0  0  0  0  0  0
  186.1570  179.7910  147.0560 C   0  0  0  0  0  1  0  0  0  0  0  0
  187.7730  177.6100  144.9590 C   0  0  0  0  0  0  0  0  0  0  0  0
  188.5730  177.4260  146.0690 O   0  0  0  0  0  0  0  0  0  0  0  0
  183.6380  178.7540  142.1890 N   0  0  0  0  0  0  0  0  0  0  0  0
  185.2880  177.4590  147.3020 C   0  0  0  0  0  1  0  0  0  0  0  0
  183.3110  178.9730  143.4320 C   0  0  0  0  0  0  0  0  0  0  0  0
  185.9270  178.0830  142.8530 C   0  0  0  0  0  0  0  0  0  0  0  0
  182.0140  179.3690  143.7670 O   0  0  0  0  0  0  0  0  0  0  0  0
  180.8670  178.8010  143.1520 C   0  0  0  0  0  2  0  0  0  0  0  0
  180.2790  179.7780  142.1930 C   0  0  0  0  0  0  0  0  0  0  0  0
  179.8550  180.8850  142.6200 O   0  0  0  0  0  0  0  0  0  0  0  0
  180.2280  179.4740  140.7570 C   0  0  0  0  0  0  0  0  0  0  0  0
  179.1560  178.7620  140.2300 O   0  0  0  0  0  1  0  0  0  0  0  0
  181.1530  179.8550  139.9950 O   0  0  0  0  0  0  0  0  0  0  0  0
  1  4  1  0  0  0  0
  2 11  2  0  0  0  0
  2  1  1  0  0  0  0
  3 13  2  0  0  0  0
  4 12  1  0  0  0  0
  4  7  1  0  0  0  0
  4 16  1  0  0  0  0
  5  8  1  0  0  0  0
  6 18  2  0  0  0  0
  6  3  1  0  0  0  0
  7  5  1  0  0  0  0
  7  8  1  0  0  0  0
  9 10  1  1  0  0  0
  9 15  1  0  0  0  0
  9 18  1  0  0  0  0
 13  1  1  0  0  0  0
 13 14  1  0  0  0  0
 14  7  1  0  0  0  0
 15 17  2  0  0  0  0
 17 19  1  0  0  0  0
 17 11  1  0  0  0  0
 18  2  1  0  0  0  0
 20 19  1  0  0  0  0
 21 22  2  0  0  0  0
 21 20  1  0  0  0  0
 23 21  1  0  0  0  0
 24 23  1  0  0  0  0
 25 23  2  0  0  0  0
M  END
>  <MODEL>
9

>  <REMARK>
 VINA RESULT:      -7.2      3.605      7.917
  Name = 
  4 active torsions:
  status: ('A' for Active; 'I' for Inactive)
    1  A    between atoms: C_2  and  C_21
    2  A    between atoms: O_6  and  C_15
    3  A    between atoms: O_6  and  C_23
    4  A    between atoms: C_15  and  C_21
                            x       y       z     vdW  Elec       q    Type
                         _______ _______ _______ _____ _____    ______ ____

>  <TORSDO>
F 4

$$$$
