=
 OpenBabel11052414423D

 32 36  0  0  1  0  0  0  0  0999 V2000
  188.5230  176.4080  142.5790 C   0  0  0  0  0  2  0  0  0  0  0  0
  186.5390  178.6410  140.5990 C   0  0  1  0  0  3  0  0  0  0  0  0
  189.7240  177.1900  142.0420 C   0  0  0  0  0  2  0  0  0  0  0  0
  187.6610  177.8500  140.3910 O   0  0  0  0  0  0  0  0  0  0  0  0
  185.5420  178.3500  139.4570 C   0  0  2  0  0  0  0  0  0  0  0  0
  186.0690  178.3820  142.0360 C   0  0  1  0  0  3  0  0  0  0  0  0
  186.1710  177.9930  138.1400 C   0  0  1  0  0  0  0  0  0  0  0  0
  188.3650  178.4160  139.3360 C   0  0  2  0  0  3  0  0  0  0  0  0
  187.7140  177.9620  138.0270 C   0  0  0  0  0  2  0  0  0  0  0  0
  189.8510  178.0570  139.4480 C   0  0  0  0  0  2  0  0  0  0  0  0
  187.2190  178.5260  142.9380 N   0  0  0  0  0  2  0  0  0  0  0  0
  185.3500  177.2990  137.0680 C   0  0  0  0  0  1  0  0  0  0  0  0
  187.5840  177.2210  143.4920 C   0  0  2  0  0  3  0  0  0  0  0  0
  185.6730  179.2860  138.4050 O   0  0  0  0  0  0  0  0  0  0  0  0
  190.1920  176.5170  140.4000 S   0  0  0  0  0  0  0  0  0  0  0  0
  189.5040  178.2810  148.6760 F   0  0  0  0  0  0  0  0  0  0  0  0
  189.9970  177.4270  146.5030 C   0  0  0  0  0  2  0  0  0  0  0  0
  188.1270  177.3690  144.8830 C   0  0  0  0  0  0  0  0  0  0  0  0
  187.6800  178.0410  147.1930 C   0  0  0  0  0  3  0  0  0  0  0  0
  189.4500  177.3300  145.1050 C   0  0  0  0  0  3  0  0  0  0  0  0
  187.1990  177.6140  146.0190 C   0  0  0  0  0  0  0  0  0  0  0  0
  189.1390  178.3700  147.3480 C   0  0  1  0  0  3  0  0  0  0  0  0
  185.7340  177.3500  145.8880 C   0  0  0  0  0  2  0  0  0  0  0  0
  184.9700  177.9210  147.0720 C   0  0  0  0  0  2  0  0  0  0  0  0
  185.2680  179.2750  147.2280 O   0  0  0  0  0  1  0  0  0  0  0  0
  183.9270  179.5850  144.5720 C   0  0  0  0  0  2  0  0  0  0  0  0
  183.6320  178.5930  142.5960 C   0  0  0  0  0  2  0  0  0  0  0  0
  184.9420  179.3370  142.4470 C   0  0  1  0  0  3  0  0  0  0  0  0
  183.3450  178.4630  143.9630 O   0  0  0  0  0  0  0  0  0  0  0  0
  185.1710  179.9530  143.8000 C   0  0  0  0  0  2  0  0  0  0  0  0
  183.2250  178.9560  139.3030 O   0  0  0  0  0  1  0  0  0  0  0  0
  184.0930  177.9390  139.7050 C   0  0  0  0  0  2  0  0  0  0  0  0
  1 13  1  0  0  0  0
  2  4  1  6  0  0  0
  2  6  1  0  0  0  0
  3  1  1  0  0  0  0
  5 32  1  1  0  0  0
  5  2  1  0  0  0  0
  6 28  1  0  0  0  0
  6 11  1  1  0  0  0
  7 12  1  6  0  0  0
  7 14  1  0  0  0  0
  7  5  1  0  0  0  0
  8  9  1  6  0  0  0
  8 10  1  0  0  0  0
  8  4  1  0  0  0  0
  9  7  1  0  0  0  0
 10 15  1  0  0  0  0
 11 13  1  0  0  0  0
 13 18  1  1  0  0  0
 14  5  1  0  0  0  0
 15  3  1  0  0  0  0
 17 22  1  0  0  0  0
 18 20  2  0  0  0  0
 18 21  1  0  0  0  0
 19 22  1  0  0  0  0
 20 17  1  0  0  0  0
 21 19  2  0  0  0  0
 22 16  1  1  0  0  0
 23 21  1  0  0  0  0
 23 24  1  0  0  0  0
 24 25  1  0  0  0  0
 27 29  1  0  0  0  0
 28 27  1  1  0  0  0
 28 30  1  0  0  0  0
 29 26  1  0  0  0  0
 30 26  1  0  0  0  0
 31 32  1  0  0  0  0
M  END
>  <MODEL>
1

>  <REMARK>
 VINA RESULT:      -8.1      0.000      0.000
  Name = 
  5 active torsions:
  status: ('A' for Active; 'I' for Inactive)
    1  A    between atoms: C_3  and  C_23
    2  A    between atoms: C_6  and  C_17
    3  A    between atoms: C_10  and  C_28
    4  A    between atoms: C_16  and  C_27
    5  A    between atoms: C_22  and  C_23
                            x       y       z     vdW  Elec       q    Type
                         _______ _______ _______ _____ _____    ______ ____

>  <TORSDO>
F 5

$$$$
=
 OpenBabel11052414423D

 32 36  0  0  1  0  0  0  0  0999 V2000
  188.2550  176.6130  142.8970 C   0  0  0  0  0  2  0  0  0  0  0  0
  186.2790  178.6310  140.6900 C   0  0  1  0  0  3  0  0  0  0  0  0
  189.4300  177.4870  142.4500 C   0  0  0  0  0  2  0  0  0  0  0  0
  187.4790  177.9360  140.6040 O   0  0  0  0  0  0  0  0  0  0  0  0
  185.4200  178.2340  139.4710 C   0  0  2  0  0  0  0  0  0  0  0  0
  185.7030  178.3560  142.0850 C   0  0  1  0  0  3  0  0  0  0  0  0
  186.1960  177.9120  138.2250 C   0  0  1  0  0  0  0  0  0  0  0  0
  188.2260  178.5430  139.6040 C   0  0  2  0  0  3  0  0  0  0  0  0
  187.7400  178.0130  138.2520 C   0  0  0  0  0  2  0  0  0  0  0  0
  189.7200  178.3170  139.8580 C   0  0  0  0  0  2  0  0  0  0  0  0
  186.7480  178.6140  143.0840 N   0  0  0  0  0  2  0  0  0  0  0  0
  185.5390  177.1310  137.1010 C   0  0  0  0  0  1  0  0  0  0  0  0
  187.1700  177.3560  143.7010 C   0  0  2  0  0  3  0  0  0  0  0  0
  185.5670  179.1600  138.4120 O   0  0  0  0  0  0  0  0  0  0  0  0
  190.1020  176.8300  140.8750 S   0  0  0  0  0  0  0  0  0  0  0  0
  188.6030  177.6660  149.1350 F   0  0  0  0  0  0  0  0  0  0  0  0
  187.1350  178.4250  147.4130 C   0  0  0  0  0  2  0  0  0  0  0  0
  187.5690  177.5740  145.1310 C   0  0  0  0  0  0  0  0  0  0  0  0
  189.1330  177.0130  146.9260 C   0  0  0  0  0  3  0  0  0  0  0  0
  186.7220  178.1570  145.9930 C   0  0  0  0  0  3  0  0  0  0  0  0
  188.8920  177.0950  145.6120 C   0  0  0  0  0  0  0  0  0  0  0  0
  188.0470  177.3070  147.9230 C   0  0  1  0  0  3  0  0  0  0  0  0
  189.9800  176.7420  144.6510 C   0  0  0  0  0  2  0  0  0  0  0  0
  191.3380  176.7650  145.3340 C   0  0  0  0  0  2  0  0  0  0  0  0
  192.0030  177.9560  145.0420 O   0  0  0  0  0  1  0  0  0  0  0  0
  183.4220  179.6500  144.4490 C   0  0  0  0  0  2  0  0  0  0  0  0
  183.2570  178.3470  142.6450 C   0  0  0  0  0  2  0  0  0  0  0  0
  184.4650  179.2160  142.3680 C   0  0  1  0  0  3  0  0  0  0  0  0
  182.9840  178.3870  144.0210 O   0  0  0  0  0  0  0  0  0  0  0  0
  184.6130  180.0490  143.6130 C   0  0  0  0  0  2  0  0  0  0  0  0
  183.0790  178.6640  139.1660 O   0  0  0  0  0  1  0  0  0  0  0  0
  183.9940  177.7030  139.5970 C   0  0  0  0  0  2  0  0  0  0  0  0
  1 13  1  0  0  0  0
  2  4  1  6  0  0  0
  2  6  1  0  0  0  0
  3  1  1  0  0  0  0
  5 32  1  1  0  0  0
  5  2  1  0  0  0  0
  6 28  1  0  0  0  0
  6 11  1  1  0  0  0
  7 12  1  6  0  0  0
  7  9  1  0  0  0  0
  7 14  1  0  0  0  0
  7  5  1  0  0  0  0
  8  9  1  6  0  0  0
  8 10  1  0  0  0  0
  8  4  1  0  0  0  0
 10 15  1  0  0  0  0
 11 13  1  0  0  0  0
 13 18  1  1  0  0  0
 14  5  1  0  0  0  0
 15  3  1  0  0  0  0
 17 22  1  0  0  0  0
 18 21  1  0  0  0  0
 18 20  2  0  0  0  0
 19 22  1  0  0  0  0
 20 17  1  0  0  0  0
 21 19  2  0  0  0  0
 22 16  1  1  0  0  0
 23 24  1  0  0  0  0
 23 21  1  0  0  0  0
 25 24  1  0  0  0  0
 27 29  1  0  0  0  0
 28 27  1  1  0  0  0
 28 30  1  0  0  0  0
 29 26  1  0  0  0  0
 30 26  1  0  0  0  0
 31 32  1  0  0  0  0
M  END
>  <MODEL>
2

>  <REMARK>
 VINA RESULT:      -7.7      1.303      2.167
  Name = 
  5 active torsions:
  status: ('A' for Active; 'I' for Inactive)
    1  A    between atoms: C_3  and  C_23
    2  A    between atoms: C_6  and  C_17
    3  A    between atoms: C_10  and  C_28
    4  A    between atoms: C_16  and  C_27
    5  A    between atoms: C_22  and  C_23
                            x       y       z     vdW  Elec       q    Type
                         _______ _______ _______ _____ _____    ______ ____

>  <TORSDO>
F 5

$$$$
=
 OpenBabel11052414423D

 32 36  0  0  1  0  0  0  0  0999 V2000
  189.4400  176.7180  142.0420 C   0  0  0  0  0  2  0  0  0  0  0  0
  190.2600  176.8070  138.5530 C   0  0  1  0  0  3  0  0  0  0  0  0
  190.4610  177.8500  142.1880 C   0  0  0  0  0  2  0  0  0  0  0  0
  190.9700  176.7560  139.7460 O   0  0  0  0  0  0  0  0  0  0  0  0
  190.8180  175.7060  137.6270 C   0  0  2  0  0  0  0  0  0  0  0  0
  188.7710  176.7430  138.9170 C   0  0  1  0  0  3  0  0  0  0  0  0
  192.2810  175.4110  137.8020 C   0  0  1  0  0  0  0  0  0  0  0  0
  192.2230  177.2970  139.4940 C   0  0  2  0  0  3  0  0  0  0  0  0
  193.0920  176.2140  138.8470 C   0  0  0  0  0  2  0  0  0  0  0  0
  192.8120  177.8750  140.7860 C   0  0  0  0  0  2  0  0  0  0  0  0
  188.4970  177.7480  139.9520 N   0  0  0  0  0  2  0  0  0  0  0  0
  192.8630  174.1110  137.2740 C   0  0  0  0  0  1  0  0  0  0  0  0
  188.1880  177.0850  141.2200 C   0  0  2  0  0  3  0  0  0  0  0  0
  191.8020  176.2180  136.7500 O   0  0  0  0  0  0  0  0  0  0  0  0
  192.1410  177.1260  142.3290 S   0  0  0  0  0  0  0  0  0  0  0  0
  184.1780  179.6940  144.1860 F   0  0  0  0  0  0  0  0  0  0  0  0
  185.5460  179.7170  142.2300 C   0  0  0  0  0  2  0  0  0  0  0  0
  187.2010  177.8910  142.0130 C   0  0  0  0  0  0  0  0  0  0  0  0
  185.8900  178.0690  144.0710 C   0  0  0  0  0  3  0  0  0  0  0  0
  186.4970  178.8720  141.4290 C   0  0  0  0  0  3  0  0  0  0  0  0
  186.9620  177.5690  143.4450 C   0  0  0  0  0  0  0  0  0  0  0  0
  184.8710  178.8760  143.3160 C   0  0  1  0  0  3  0  0  0  0  0  0
  187.9250  176.7250  144.2160 C   0  0  0  0  0  2  0  0  0  0  0  0
  188.2380  177.3530  145.5660 C   0  0  0  0  0  2  0  0  0  0  0  0
  189.3740  178.1570  145.4690 O   0  0  0  0  0  1  0  0  0  0  0  0
  187.3410  179.0260  136.6340 C   0  0  0  0  0  2  0  0  0  0  0  0
  186.5390  177.5530  138.1040 C   0  0  0  0  0  2  0  0  0  0  0  0
  187.8770  176.9770  137.6930 C   0  0  1  0  0  3  0  0  0  0  0  0
  186.5130  178.9130  137.7610 O   0  0  0  0  0  0  0  0  0  0  0  0
  188.4450  178.0020  136.7500 C   0  0  0  0  0  2  0  0  0  0  0  0
  189.7910  174.9100  135.6100 O   0  0  0  0  0  1  0  0  0  0  0  0
  189.9360  174.6450  136.9730 C   0  0  0  0  0  2  0  0  0  0  0  0
  1  3  1  0  0  0  0
  2  6  1  0  0  0  0
  2  4  1  1  0  0  0
  3 15  1  0  0  0  0
  5 32  1  6  0  0  0
  5  7  1  0  0  0  0
  5  2  1  0  0  0  0
  6 11  1  1  0  0  0
  7 12  1  6  0  0  0
  7  9  1  0  0  0  0
  8  9  1  1  0  0  0
  8  4  1  0  0  0  0
  8 10  1  0  0  0  0
 10 15  1  0  0  0  0
 11 13  1  0  0  0  0
 13 18  1  1  0  0  0
 13  1  1  0  0  0  0
 14  5  1  0  0  0  0
 14  7  1  0  0  0  0
 17 22  1  0  0  0  0
 18 21  1  0  0  0  0
 20 18  2  0  0  0  0
 20 17  1  0  0  0  0
 21 19  2  0  0  0  0
 21 23  1  0  0  0  0
 22 19  1  0  0  0  0
 22 16  1  1  0  0  0
 23 24  1  0  0  0  0
 25 24  1  0  0  0  0
 26 30  1  0  0  0  0
 26 29  1  0  0  0  0
 28 30  1  6  0  0  0
 28 27  1  0  0  0  0
 28  6  1  0  0  0  0
 29 27  1  0  0  0  0
 31 32  1  0  0  0  0
M  END
>  <MODEL>
3

>  <REMARK>
 VINA RESULT:      -7.4      3.073      5.429
  Name = 
  5 active torsions:
  status: ('A' for Active; 'I' for Inactive)
    1  A    between atoms: C_3  and  C_23
    2  A    between atoms: C_6  and  C_17
    3  A    between atoms: C_10  and  C_28
    4  A    between atoms: C_16  and  C_27
    5  A    between atoms: C_22  and  C_23
                            x       y       z     vdW  Elec       q    Type
                         _______ _______ _______ _____ _____    ______ ____

>  <TORSDO>
F 5

$$$$
=
 OpenBabel11052414423D

 32 36  0  0  1  0  0  0  0  0999 V2000
  187.8690  178.2570  139.3210 C   0  0  0  0  0  2  0  0  0  0  0  0
  190.8800  176.3280  139.5680 C   0  0  1  0  0  3  0  0  0  0  0  0
  187.2530  176.9950  138.7120 C   0  0  0  0  0  2  0  0  0  0  0  0
  189.9430  176.5970  138.5780 O   0  0  0  0  0  0  0  0  0  0  0  0
  192.2800  176.5760  138.9680 C   0  0  2  0  0  0  0  0  0  0  0  0
  190.4780  177.1500  140.7990 C   0  0  1  0  0  3  0  0  0  0  0  0
  192.4020  176.2870  137.4990 C   0  0  1  0  0  0  0  0  0  0  0  0
  189.9880  175.5380  137.6810 C   0  0  2  0  0  3  0  0  0  0  0  0
  191.1650  175.7650  136.7290 C   0  0  0  0  0  2  0  0  0  0  0  0
  188.6360  175.3960  136.9740 C   0  0  0  0  0  2  0  0  0  0  0  0
  189.0570  176.9110  141.0800 N   0  0  0  0  0  2  0  0  0  0  0  0
  193.5640  176.8570  136.7050 C   0  0  0  0  0  1  0  0  0  0  0  0
  188.2820  178.1210  140.8000 C   0  0  2  0  0  3  0  0  0  0  0  0
  192.8530  175.3790  138.4790 O   0  0  0  0  0  0  0  0  0  0  0  0
  187.6390  176.9440  136.9200 S   0  0  0  0  0  0  0  0  0  0  0  0
  183.9740  179.0310  144.3060 F   0  0  0  0  0  0  0  0  0  0  0  0
  186.0290  177.8780  143.9300 C   0  0  0  0  0  2  0  0  0  0  0  0
  187.1110  178.2270  141.7320 C   0  0  0  0  0  0  0  0  0  0  0  0
  184.9060  179.2060  142.1420 C   0  0  0  0  0  3  0  0  0  0  0  0
  187.2150  177.8210  143.0060 C   0  0  0  0  0  3  0  0  0  0  0  0
  185.8390  178.8350  141.2570 C   0  0  0  0  0  0  0  0  0  0  0  0
  185.1690  179.1040  143.6190 C   0  0  1  0  0  3  0  0  0  0  0  0
  185.5630  179.0030  139.7980 C   0  0  0  0  0  2  0  0  0  0  0  0
  184.1080  179.3730  139.5580 C   0  0  0  0  0  2  0  0  0  0  0  0
  184.0280  180.5830  138.8690 O   0  0  0  0  0  1  0  0  0  0  0  0
  190.6760  176.6960  144.2950 C   0  0  0  0  0  2  0  0  0  0  0  0
  191.6720  178.0400  142.8190 C   0  0  0  0  0  2  0  0  0  0  0  0
  191.3340  176.7980  142.0220 C   0  0  1  0  0  3  0  0  0  0  0  0
  190.8940  178.0470  143.9870 O   0  0  0  0  0  0  0  0  0  0  0  0
  190.6060  175.9190  143.0020 C   0  0  0  0  0  2  0  0  0  0  0  0
  194.3200  176.7560  140.2190 O   0  0  0  0  0  1  0  0  0  0  0  0
  193.3080  177.5020  139.6140 C   0  0  0  0  0  2  0  0  0  0  0  0
  1 13  1  0  0  0  0
  2  4  1  6  0  0  0
  2  6  1  0  0  0  0
  3  1  1  0  0  0  0
  5  2  1  0  0  0  0
  5 32  1  1  0  0  0
  6 11  1  1  0  0  0
  6 28  1  0  0  0  0
  7 12  1  6  0  0  0
  7 14  1  0  0  0  0
  7  5  1  0  0  0  0
  8  9  1  6  0  0  0
  8  4  1  0  0  0  0
  9  7  1  0  0  0  0
 10  8  1  0  0  0  0
 13 11  1  0  0  0  0
 13 18  1  1  0  0  0
 14  5  1  0  0  0  0
 15 10  1  0  0  0  0
 15  3  1  0  0  0  0
 18 20  2  0  0  0  0
 19 22  1  0  0  0  0
 20 17  1  0  0  0  0
 21 18  1  0  0  0  0
 21 19  2  0  0  0  0
 22 17  1  0  0  0  0
 22 16  1  1  0  0  0
 23 21  1  0  0  0  0
 24 23  1  0  0  0  0
 25 24  1  0  0  0  0
 27 29  1  0  0  0  0
 28 27  1  1  0  0  0
 28 30  1  0  0  0  0
 29 26  1  0  0  0  0
 30 26  1  0  0  0  0
 32 31  1  0  0  0  0
M  END
>  <MODEL>
4

>  <REMARK>
 VINA RESULT:      -7.4      3.164      6.224
  Name = 
  5 active torsions:
  status: ('A' for Active; 'I' for Inactive)
    1  A    between atoms: C_3  and  C_23
    2  A    between atoms: C_6  and  C_17
    3  A    between atoms: C_10  and  C_28
    4  A    between atoms: C_16  and  C_27
    5  A    between atoms: C_22  and  C_23
                            x       y       z     vdW  Elec       q    Type
                         _______ _______ _______ _____ _____    ______ ____

>  <TORSDO>
F 5

$$$$
=
 OpenBabel11052414423D

 32 36  0  0  1  0  0  0  0  0999 V2000
  185.0140  179.4750  142.8340 C   0  0  0  0  0  2  0  0  0  0  0  0
  182.5610  178.8430  140.2970 C   0  0  1  0  0  3  0  0  0  0  0  0
  184.2240  178.4720  143.6790 C   0  0  0  0  0  2  0  0  0  0  0  0
  182.5420  179.1590  141.6500 O   0  0  0  0  0  0  0  0  0  0  0  0
  181.5950  179.8060  139.5770 C   0  0  2  0  0  0  0  0  0  0  0  0
  184.0310  178.8500  139.8570 C   0  0  1  0  0  3  0  0  0  0  0  0
  180.4100  180.2430  140.3910 C   0  0  1  0  0  0  0  0  0  0  0  0
  181.3410  178.6840  142.1590 C   0  0  2  0  0  3  0  0  0  0  0  0
  180.2450  179.7020  141.8320 C   0  0  0  0  0  2  0  0  0  0  0  0
  181.4880  178.3900  143.6560 C   0  0  0  0  0  2  0  0  0  0  0  0
  184.8050  178.0240  140.7930 N   0  0  0  0  0  2  0  0  0  0  0  0
  179.6180  181.4720  139.9820 C   0  0  0  0  0  1  0  0  0  0  0  0
  185.6940  178.8720  141.5890 C   0  0  2  0  0  3  0  0  0  0  0  0
  180.3130  179.2280  139.4170 O   0  0  0  0  0  0  0  0  0  0  0  0
  182.8270  179.3410  144.4900 S   0  0  0  0  0  0  0  0  0  0  0  0
  190.3000  175.7710  142.5140 F   0  0  0  0  0  0  0  0  0  0  0  0
  188.3570  176.7870  143.4570 C   0  0  0  0  0  2  0  0  0  0  0  0
  186.9600  178.1400  141.9280 C   0  0  0  0  0  0  0  0  0  0  0  0
  189.0740  177.2210  141.1080 C   0  0  0  0  0  3  0  0  0  0  0  0
  187.0730  177.4790  143.0900 C   0  0  0  0  0  3  0  0  0  0  0  0
  188.0790  178.1020  140.9490 C   0  0  0  0  0  0  0  0  0  0  0  0
  189.0230  176.2010  142.2110 C   0  0  1  0  0  3  0  0  0  0  0  0
  188.1370  179.0650  139.8080 C   0  0  0  0  0  2  0  0  0  0  0  0
  189.1660  178.6260  138.7770 C   0  0  0  0  0  2  0  0  0  0  0  0
  189.0500  179.4020  137.6240 O   0  0  0  0  0  1  0  0  0  0  0  0
  184.9400  176.2050  137.7020 C   0  0  0  0  0  2  0  0  0  0  0  0
  185.6590  178.2910  138.0310 C   0  0  0  0  0  2  0  0  0  0  0  0
  184.1970  178.3350  138.4220 C   0  0  1  0  0  3  0  0  0  0  0  0
  186.0810  176.9530  138.0300 O   0  0  0  0  0  0  0  0  0  0  0  0
  183.7300  176.9140  138.2610 C   0  0  0  0  0  2  0  0  0  0  0  0
  181.4530  180.1560  137.2080 O   0  0  0  0  0  1  0  0  0  0  0  0
  182.0110  180.6610  138.3830 C   0  0  0  0  0  2  0  0  0  0  0  0
  1  3  1  0  0  0  0
  2  4  1  1  0  0  0
  3 15  1  0  0  0  0
  4  8  1  0  0  0  0
  5 32  1  6  0  0  0
  5  2  1  0  0  0  0
  5  7  1  0  0  0  0
  6  2  1  0  0  0  0
  6 11  1  1  0  0  0
  7 12  1  6  0  0  0
  7  9  1  0  0  0  0
  8  9  1  1  0  0  0
  8 10  1  0  0  0  0
 10 15  1  0  0  0  0
 11 13  1  0  0  0  0
 13 18  1  1  0  0  0
 13  1  1  0  0  0  0
 14  5  1  0  0  0  0
 14  7  1  0  0  0  0
 18 20  2  0  0  0  0
 19 22  1  0  0  0  0
 20 17  1  0  0  0  0
 21 19  2  0  0  0  0
 21 18  1  0  0  0  0
 22 16  1  1  0  0  0
 22 17  1  0  0  0  0
 23 21  1  0  0  0  0
 24 23  1  0  0  0  0
 25 24  1  0  0  0  0
 26 29  1  0  0  0  0
 26 30  1  0  0  0  0
 28 27  1  1  0  0  0
 28  6  1  0  0  0  0
 29 27  1  0  0  0  0
 30 28  1  0  0  0  0
 31 32  1  0  0  0  0
M  END
>  <MODEL>
5

>  <REMARK>
 VINA RESULT:      -7.4      3.074      6.135
  Name = 
  5 active torsions:
  status: ('A' for Active; 'I' for Inactive)
    1  A    between atoms: C_3  and  C_23
    2  A    between atoms: C_6  and  C_17
    3  A    between atoms: C_10  and  C_28
    4  A    between atoms: C_16  and  C_27
    5  A    between atoms: C_22  and  C_23
                            x       y       z     vdW  Elec       q    Type
                         _______ _______ _______ _____ _____    ______ ____

>  <TORSDO>
F 5

$$$$
=
 OpenBabel11052414423D

 32 36  0  0  1  0  0  0  0  0999 V2000
  186.2300  179.3240  140.8630 C   0  0  0  0  0  2  0  0  0  0  0  0
  188.8280  176.9800  141.6420 C   0  0  1  0  0  3  0  0  0  0  0  0
  185.8270  178.3310  139.7700 C   0  0  0  0  0  2  0  0  0  0  0  0
  188.3470  177.5940  140.4930 O   0  0  0  0  0  0  0  0  0  0  0  0
  190.3610  177.1540  141.6610 C   0  0  2  0  0  0  0  0  0  0  0  0
  188.0320  177.5550  142.8220 C   0  0  1  0  0  3  0  0  0  0  0  0
  191.0120  177.1860  140.3070 C   0  0  1  0  0  0  0  0  0  0  0  0
  188.6730  176.7670  139.4270 C   0  0  2  0  0  3  0  0  0  0  0  0
  190.1320  177.0310  139.0440 C   0  0  0  0  0  2  0  0  0  0  0  0
  187.6820  176.9810  138.2770 C   0  0  0  0  0  2  0  0  0  0  0  0
  186.6000  177.4640  142.5110 N   0  0  0  0  0  2  0  0  0  0  0  0
  192.4150  177.7470  140.1510 C   0  0  0  0  0  1  0  0  0  0  0  0
  186.0490  178.8040  142.3030 C   0  0  2  0  0  3  0  0  0  0  0  0
  191.0150  176.0270  141.1110 O   0  0  0  0  0  0  0  0  0  0  0  0
  186.8570  178.6280  138.2810 S   0  0  0  0  0  0  0  0  0  0  0  0
  180.7550  178.5580  144.1990 F   0  0  0  0  0  0  0  0  0  0  0  0
  182.1850  178.8540  142.3120 C   0  0  0  0  0  2  0  0  0  0  0  0
  184.6190  178.8650  142.7560 C   0  0  0  0  0  0  0  0  0  0  0  0
  183.0670  178.7660  144.6440 C   0  0  0  0  0  3  0  0  0  0  0  0
  183.6190  178.7430  141.8710 C   0  0  0  0  0  3  0  0  0  0  0  0
  184.3070  179.0090  144.2030 C   0  0  0  0  0  0  0  0  0  0  0  0
  182.0080  178.2530  143.7070 C   0  0  1  0  0  3  0  0  0  0  0  0
  185.3460  179.4650  145.1740 C   0  0  0  0  0  2  0  0  0  0  0  0
  185.0130  179.0030  146.5850 C   0  0  0  0  0  2  0  0  0  0  0  0
  185.6810  179.7950  147.5190 O   0  0  0  0  0  1  0  0  0  0  0  0
  187.3590  177.1280  146.2610 C   0  0  0  0  0  2  0  0  0  0  0  0
  189.1520  177.7000  145.0630 C   0  0  0  0  0  2  0  0  0  0  0  0
  188.3460  176.8200  144.1310 C   0  0  1  0  0  3  0  0  0  0  0  0
  188.3120  178.1450  146.0950 O   0  0  0  0  0  0  0  0  0  0  0  0
  187.1080  176.4880  144.9180 C   0  0  0  0  0  2  0  0  0  0  0  0
  191.8510  176.7700  143.5010 O   0  0  0  0  0  1  0  0  0  0  0  0
  191.1140  177.7560  142.8440 C   0  0  0  0  0  2  0  0  0  0  0  0
  1 13  1  0  0  0  0
  2  4  1  6  0  0  0
  2  5  1  0  0  0  0
  2  6  1  0  0  0  0
  3  1  1  0  0  0  0
  5 32  1  1  0  0  0
  6 11  1  6  0  0  0
  6 28  1  0  0  0  0
  7 12  1  6  0  0  0
  7 14  1  0  0  0  0
  7  5  1  0  0  0  0
  8 10  1  6  0  0  0
  8  4  1  0  0  0  0
  9  8  1  0  0  0  0
  9  7  1  0  0  0  0
 10 15  1  0  0  0  0
 13 11  1  0  0  0  0
 13 18  1  6  0  0  0
 14  5  1  0  0  0  0
 15  3  1  0  0  0  0
 17 22  1  0  0  0  0
 18 21  1  0  0  0  0
 20 17  1  0  0  0  0
 20 18  2  0  0  0  0
 21 19  2  0  0  0  0
 21 23  1  0  0  0  0
 22 16  1  1  0  0  0
 22 19  1  0  0  0  0
 23 24  1  0  0  0  0
 24 25  1  0  0  0  0
 27 29  1  0  0  0  0
 28 30  1  1  0  0  0
 28 27  1  0  0  0  0
 29 26  1  0  0  0  0
 30 26  1  0  0  0  0
 32 31  1  0  0  0  0
M  END
>  <MODEL>
6

>  <REMARK>
 VINA RESULT:      -7.3      2.649      5.305
  Name = 
  5 active torsions:
  status: ('A' for Active; 'I' for Inactive)
    1  A    between atoms: C_3  and  C_23
    2  A    between atoms: C_6  and  C_17
    3  A    between atoms: C_10  and  C_28
    4  A    between atoms: C_16  and  C_27
    5  A    between atoms: C_22  and  C_23
                            x       y       z     vdW  Elec       q    Type
                         _______ _______ _______ _____ _____    ______ ____

>  <TORSDO>
F 5

$$$$
=
 OpenBabel11052414423D

 32 36  0  0  1  0  0  0  0  0999 V2000
  187.5970  177.4400  140.8300 C   0  0  0  0  0  2  0  0  0  0  0  0
  186.0020  178.1710  137.7050 C   0  0  1  0  0  3  0  0  0  0  0  0
  188.5200  178.6150  140.4970 C   0  0  0  0  0  2  0  0  0  0  0  0
  187.3070  177.9850  138.1420 O   0  0  0  0  0  0  0  0  0  0  0  0
  185.7950  177.2890  136.4550 C   0  0  2  0  0  0  0  0  0  0  0  0
  185.0870  177.9200  138.9110 C   0  0  1  0  0  3  0  0  0  0  0  0
  187.0190  177.0960  135.6050 C   0  0  1  0  0  0  0  0  0  0  0  0
  188.1300  178.6660  137.2550 C   0  0  2  0  0  3  0  0  0  0  0  0
  188.3410  177.7840  136.0220 C   0  0  0  0  0  2  0  0  0  0  0  0
  189.4310  179.0730  137.9570 C   0  0  0  0  0  2  0  0  0  0  0  0
  185.5780  178.7140  140.0450 N   0  0  0  0  0  2  0  0  0  0  0  0
  187.0780  175.9560  134.6040 C   0  0  0  0  0  1  0  0  0  0  0  0
  186.1250  177.8270  141.0740 C   0  0  2  0  0  3  0  0  0  0  0  0
  186.0110  178.0210  135.2650 O   0  0  0  0  0  0  0  0  0  0  0  0
  189.8720  178.0260  139.4070 S   0  0  0  0  0  0  0  0  0  0  0  0
  185.0020  179.5820  146.3030 F   0  0  0  0  0  0  0  0  0  0  0  0
  184.9300  180.0870  143.9710 C   0  0  0  0  0  2  0  0  0  0  0  0
  185.9050  178.4050  142.4420 C   0  0  0  0  0  0  0  0  0  0  0  0
  186.1060  178.0730  144.8570 C   0  0  0  0  0  3  0  0  0  0  0  0
  185.1130  179.4730  142.6100 C   0  0  0  0  0  3  0  0  0  0  0  0
  186.5280  177.7580  143.6270 C   0  0  0  0  0  0  0  0  0  0  0  0
  184.9400  179.0030  145.0510 C   0  0  1  0  0  3  0  0  0  0  0  0
  187.6540  176.7870  143.4730 C   0  0  0  0  0  2  0  0  0  0  0  0
  188.7990  177.1270  144.4140 C   0  0  0  0  0  2  0  0  0  0  0  0
  189.5680  178.1610  143.8800 O   0  0  0  0  0  1  0  0  0  0  0  0
  182.0560  179.3780  139.9860 C   0  0  0  0  0  2  0  0  0  0  0  0
  182.6810  177.3400  139.3250 C   0  0  0  0  0  2  0  0  0  0  0  0
  183.6270  178.2740  138.6010 C   0  0  1  0  0  3  0  0  0  0  0  0
  182.1010  178.0360  140.3970 O   0  0  0  0  0  0  0  0  0  0  0  0
  183.2470  179.6420  139.0960 C   0  0  0  0  0  2  0  0  0  0  0  0
  183.6510  176.7820  135.5050 O   0  0  0  0  0  1  0  0  0  0  0  0
  184.6580  176.2780  136.3310 C   0  0  0  0  0  2  0  0  0  0  0  0
  1 13  1  0  0  0  0
  2  4  1  1  0  0  0
  2  6  1  0  0  0  0
  3  1  1  0  0  0  0
  5 32  1  1  0  0  0
  5  2  1  0  0  0  0
  6 11  1  1  0  0  0
  7 12  1  6  0  0  0
  7  9  1  0  0  0  0
  7  5  1  0  0  0  0
  8  9  1  6  0  0  0
  8 10  1  0  0  0  0
  8  4  1  0  0  0  0
 10 15  1  0  0  0  0
 11 13  1  0  0  0  0
 13 18  1  1  0  0  0
 14  7  1  0  0  0  0
 14  5  1  0  0  0  0
 15  3  1  0  0  0  0
 17 22  1  0  0  0  0
 18 20  2  0  0  0  0
 18 21  1  0  0  0  0
 19 22  1  0  0  0  0
 20 17  1  0  0  0  0
 21 19  2  0  0  0  0
 22 16  1  1  0  0  0
 23 21  1  0  0  0  0
 23 24  1  0  0  0  0
 25 24  1  0  0  0  0
 26 29  1  0  0  0  0
 27 29  1  0  0  0  0
 28  6  1  0  0  0  0
 28 30  1  1  0  0  0
 28 27  1  0  0  0  0
 30 26  1  0  0  0  0
 31 32  1  0  0  0  0
M  END
>  <MODEL>
7

>  <REMARK>
 VINA RESULT:      -7.1      2.226      3.750
  Name = 
  5 active torsions:
  status: ('A' for Active; 'I' for Inactive)
    1  A    between atoms: C_3  and  C_23
    2  A    between atoms: C_6  and  C_17
    3  A    between atoms: C_10  and  C_28
    4  A    between atoms: C_16  and  C_27
    5  A    between atoms: C_22  and  C_23
                            x       y       z     vdW  Elec       q    Type
                         _______ _______ _______ _____ _____    ______ ____

>  <TORSDO>
F 5

$$$$
=
 OpenBabel11052414423D

 32 36  0  0  1  0  0  0  0  0999 V2000
  189.0410  178.8000  141.7050 C   0  0  0  0  0  2  0  0  0  0  0  0
  187.2670  177.5350  144.5520 C   0  0  1  0  0  3  0  0  0  0  0  0
  189.8360  177.4940  141.7710 C   0  0  0  0  0  2  0  0  0  0  0  0
  188.6000  177.6850  144.1900 O   0  0  0  0  0  0  0  0  0  0  0  0
  187.0970  178.1240  145.9690 C   0  0  2  0  0  0  0  0  0  0  0  0
  186.4260  178.1460  143.4230 C   0  0  1  0  0  3  0  0  0  0  0  0
  188.3010  177.9940  146.8590 C   0  0  1  0  0  0  0  0  0  0  0  0
  189.3220  176.7400  144.9070 C   0  0  2  0  0  3  0  0  0  0  0  0
  189.5680  177.2910  146.3140 C   0  0  0  0  0  2  0  0  0  0  0  0
  190.6040  176.3780  144.1500 C   0  0  0  0  0  2  0  0  0  0  0  0
  186.8830  177.5880  142.1440 N   0  0  0  0  0  2  0  0  0  0  0  0
  188.4280  178.8630  148.0980 C   0  0  0  0  0  1  0  0  0  0  0  0
  187.5490  178.6280  141.3570 C   0  0  2  0  0  3  0  0  0  0  0  0
  187.1990  177.1210  146.9610 O   0  0  0  0  0  0  0  0  0  0  0  0
  191.1950  177.6800  142.9880 S   0  0  0  0  0  0  0  0  0  0  0  0
  186.4550  177.3620  135.9820 F   0  0  0  0  0  0  0  0  0  0  0  0
  188.1280  177.7970  137.6280 C   0  0  0  0  0  2  0  0  0  0  0  0
  187.3280  178.4040  139.8890 C   0  0  0  0  0  0  0  0  0  0  0  0
  185.6990  178.1320  138.0850 C   0  0  0  0  0  3  0  0  0  0  0  0
  188.3300  177.9740  139.1080 C   0  0  0  0  0  3  0  0  0  0  0  0
  185.9760  178.6090  139.3040 C   0  0  0  0  0  0  0  0  0  0  0  0
  186.7090  177.3050  137.3380 C   0  0  1  0  0  3  0  0  0  0  0  0
  184.9280  179.3790  140.0380 C   0  0  0  0  0  2  0  0  0  0  0  0
  183.7570  179.7110  139.1260 C   0  0  0  0  0  2  0  0  0  0  0  0
  183.8280  181.0430  138.7180 O   0  0  0  0  0  1  0  0  0  0  0  0
  183.0960  178.9190  142.5440 C   0  0  0  0  0  2  0  0  0  0  0  0
  184.2860  178.9850  144.4300 C   0  0  0  0  0  2  0  0  0  0  0  0
  184.9290  177.8780  143.6220 C   0  0  1  0  0  3  0  0  0  0  0  0
  183.5210  179.7820  143.5650 O   0  0  0  0  0  0  0  0  0  0  0  0
  184.1660  177.8780  142.3250 C   0  0  0  0  0  2  0  0  0  0  0  0
  185.1830  178.7140  147.2880 O   0  0  0  0  0  1  0  0  0  0  0  0
  186.0550  179.1870  146.3070 C   0  0  0  0  0  2  0  0  0  0  0  0
  1  3  1  0  0  0  0
  2  4  1  6  0  0  0
  2  5  1  0  0  0  0
  3 15  1  0  0  0  0
  4  8  1  0  0  0  0
  5 32  1  1  0  0  0
  5  7  1  0  0  0  0
  5 14  1  0  0  0  0
  6 11  1  6  0  0  0
  6 28  1  0  0  0  0
  6  2  1  0  0  0  0
  7 14  1  0  0  0  0
  7 12  1  1  0  0  0
  8 10  1  6  0  0  0
  8  9  1  0  0  0  0
  9  7  1  0  0  0  0
 13 18  1  6  0  0  0
 13  1  1  0  0  0  0
 13 11  1  0  0  0  0
 15 10  1  0  0  0  0
 17 20  1  0  0  0  0
 19 21  2  0  0  0  0
 20 18  2  0  0  0  0
 21 18  1  0  0  0  0
 21 23  1  0  0  0  0
 22 16  1  6  0  0  0
 22 17  1  0  0  0  0
 22 19  1  0  0  0  0
 24 23  1  0  0  0  0
 25 24  1  0  0  0  0
 26 29  1  0  0  0  0
 28 30  1  6  0  0  0
 28 27  1  0  0  0  0
 29 27  1  0  0  0  0
 30 26  1  0  0  0  0
 32 31  1  0  0  0  0
M  END
>  <MODEL>
8

>  <REMARK>
 VINA RESULT:      -6.9      2.763      6.647
  Name = 
  5 active torsions:
  status: ('A' for Active; 'I' for Inactive)
    1  A    between atoms: C_3  and  C_23
    2  A    between atoms: C_6  and  C_17
    3  A    between atoms: C_10  and  C_28
    4  A    between atoms: C_16  and  C_27
    5  A    between atoms: C_22  and  C_23
                            x       y       z     vdW  Elec       q    Type
                         _______ _______ _______ _____ _____    ______ ____

>  <TORSDO>
F 5

$$$$
=
 OpenBabel11052414423D

 32 36  0  0  1  0  0  0  0  0999 V2000
  183.8840  178.5750  140.4320 C   0  0  0  0  0  2  0  0  0  0  0  0
  186.6920  177.6230  138.4180 C   0  0  1  0  0  3  0  0  0  0  0  0
  183.3970  177.1390  140.2190 C   0  0  0  0  0  2  0  0  0  0  0  0
  185.3110  177.5210  138.3190 O   0  0  0  0  0  0  0  0  0  0  0  0
  187.2160  178.2080  137.0890 C   0  0  2  0  0  0  0  0  0  0  0  0
  186.9920  178.4030  139.7050 C   0  0  1  0  0  3  0  0  0  0  0  0
  186.4170  177.8340  135.8730 C   0  0  1  0  0  0  0  0  0  0  0  0
  185.0440  176.4430  137.4860 C   0  0  2  0  0  3  0  0  0  0  0  0
  185.1850  176.9110  136.0350 C   0  0  0  0  0  2  0  0  0  0  0  0
  183.6680  175.8550  137.8170 C   0  0  0  0  0  2  0  0  0  0  0  0
  186.2420  177.7910  140.8090 N   0  0  0  0  0  2  0  0  0  0  0  0
  186.5570  178.6400  134.5940 C   0  0  0  0  0  1  0  0  0  0  0  0
  185.1820  178.6980  141.2550 C   0  0  2  0  0  3  0  0  0  0  0  0
  187.6260  177.1860  136.2010 O   0  0  0  0  0  0  0  0  0  0  0  0
  182.5070  177.0400  138.6180 S   0  0  0  0  0  0  0  0  0  0  0  0
  184.2800  178.6490  146.8110 F   0  0  0  0  0  0  0  0  0  0  0  0
  185.6730  177.9330  145.0100 C   0  0  0  0  0  2  0  0  0  0  0  0
  184.9400  178.5470  142.7280 C   0  0  0  0  0  0  0  0  0  0  0  0
  183.4830  179.0610  144.6250 C   0  0  0  0  0  3  0  0  0  0  0  0
  185.9250  178.1350  143.5410 C   0  0  0  0  0  3  0  0  0  0  0  0
  183.6160  178.9060  143.3020 C   0  0  0  0  0  0  0  0  0  0  0  0
  184.6800  178.9730  145.5300 C   0  0  1  0  0  3  0  0  0  0  0  0
  182.4130  179.0550  142.4290 C   0  0  0  0  0  2  0  0  0  0  0  0
  181.1610  179.2820  143.2620 C   0  0  0  0  0  2  0  0  0  0  0  0
  180.3900  180.3000  142.7010 O   0  0  0  0  0  1  0  0  0  0  0  0
  189.7970  176.7460  141.0650 C   0  0  0  0  0  2  0  0  0  0  0  0
  188.7290  178.6560  141.4980 C   0  0  0  0  0  2  0  0  0  0  0  0
  188.4920  178.4240  140.0210 C   0  0  1  0  0  3  0  0  0  0  0  0
  189.1290  177.4450  142.0820 O   0  0  0  0  0  0  0  0  0  0  0  0
  189.1580  177.1030  139.7450 C   0  0  0  0  0  2  0  0  0  0  0  0
  189.4380  179.0720  136.8220 O   0  0  0  0  0  1  0  0  0  0  0  0
  188.1080  179.4450  137.0200 C   0  0  0  0  0  2  0  0  0  0  0  0
  1 13  1  0  0  0  0
  2  4  1  6  0  0  0
  2  6  1  0  0  0  0
  3  1  1  0  0  0  0
  5 32  1  1  0  0  0
  5  2  1  0  0  0  0
  6 28  1  0  0  0  0
  6 11  1  1  0  0  0
  7 12  1  6  0  0  0
  7  9  1  0  0  0  0
  7 14  1  0  0  0  0
  7  5  1  0  0  0  0
  8  9  1  6  0  0  0
  8 10  1  0  0  0  0
  8  4  1  0  0  0  0
 10 15  1  0  0  0  0
 11 13  1  0  0  0  0
 13 18  1  1  0  0  0
 14  5  1  0  0  0  0
 15  3  1  0  0  0  0
 17 22  1  0  0  0  0
 18 21  1  0  0  0  0
 18 20  2  0  0  0  0
 19 22  1  0  0  0  0
 20 17  1  0  0  0  0
 21 19  2  0  0  0  0
 22 16  1  1  0  0  0
 23 24  1  0  0  0  0
 23 21  1  0  0  0  0
 25 24  1  0  0  0  0
 26 29  1  0  0  0  0
 27 29  1  0  0  0  0
 28 30  1  1  0  0  0
 28 27  1  0  0  0  0
 30 26  1  0  0  0  0
 31 32  1  0  0  0  0
M  END
>  <MODEL>
9

>  <REMARK>
 VINA RESULT:      -6.7      2.929      4.988
  Name = 
  5 active torsions:
  status: ('A' for Active; 'I' for Inactive)
    1  A    between atoms: C_3  and  C_23
    2  A    between atoms: C_6  and  C_17
    3  A    between atoms: C_10  and  C_28
    4  A    between atoms: C_16  and  C_27
    5  A    between atoms: C_22  and  C_23
                            x       y       z     vdW  Elec       q    Type
                         _______ _______ _______ _____ _____    ______ ____

>  <TORSDO>
F 5

$$$$
