=
 OpenBabel11052415063D

 55 60  0  0  1  0  0  0  0  0999 V2000
  186.0210  177.9440  135.1830 C   0  0  0  0  0  3  0  0  0  0  0  0
  187.8740  176.8600  136.9770 C   0  0  0  0  0  0  0  0  0  0  0  0
  186.5660  177.1260  137.3950 C   0  0  0  0  0  3  0  0  0  0  0  0
  187.3310  177.6870  134.7650 C   0  0  0  0  0  3  0  0  0  0  0  0
  185.6390  177.6630  136.4980 C   0  0  0  0  0  0  0  0  0  0  0  0
  188.2570  177.1490  135.6620 C   0  0  0  0  0  3  0  0  0  0  0  0
  184.3030  177.9430  136.9330 C   0  0  0  0  0  0  0  0  0  0  0  0
  183.1830  178.1790  137.3140 C   0  0  0  0  0  0  0  0  0  0  0  0
  180.0390  180.4380  134.8770 C   0  0  0  0  0  2  0  0  0  0  0  0
  178.9320  182.5810  134.5940 O   0  0  0  0  0  0  0  0  0  0  0  0
  180.8680  181.0970  136.9950 C   0  0  0  0  0  0  0  0  0  0  0  0
  180.1310  182.1670  136.5340 O   0  0  0  0  0  0  0  0  0  0  0  0
  179.6490  181.8170  135.2890 C   0  0  0  0  0  0  0  0  0  0  0  0
  181.0650  180.0500  135.9520 C   0  0  1  0  0  3  0  0  0  0  0  0
  181.8840  179.6690  138.7460 C   0  0  2  0  0  3  0  0  0  0  0  0
  181.2340  180.9470  138.2660 C   0  0  0  0  0  3  0  0  0  0  0  0
  180.8240  178.6870  136.6010 C   0  0  2  0  0  3  0  0  0  0  0  0
  181.8180  178.4660  137.7730 C   0  0  1  0  0  3  0  0  0  0  0  0
  180.1430  179.7370  140.5340 C   0  0  0  0  0  3  0  0  0  0  0  0
  180.4580  178.6200  142.6680 C   0  0  0  0  0  0  0  0  0  0  0  0
  182.1870  178.5090  140.9670 C   0  0  0  0  0  3  0  0  0  0  0  0
  181.7170  178.1750  142.2400 C   0  0  0  0  0  3  0  0  0  0  0  0
  179.6740  179.4020  141.8080 C   0  0  0  0  0  3  0  0  0  0  0  0
  181.3990  179.2930  140.1090 C   0  0  0  0  0  0  0  0  0  0  0  0
  179.9720  178.2720  144.0140 C   0  0  0  0  0  0  0  0  0  0  0  0
  180.0170  176.9540  144.4560 O   0  0  0  0  0  0  0  0  0  0  0  0
  179.5170  179.1640  144.7790 O   0  0  0  0  0  1  0  0  0  0  0  0
  180.6440  177.5170  135.6140 C   0  0  2  0  0  3  0  0  0  0  0  0
  179.3010  177.5860  134.9000 C   0  0  0  0  0  1  0  0  0  0  0  0
  180.2270  175.6780  137.1120 O   0  0  0  0  0  1  0  0  0  0  0  0
  181.9930  175.4110  135.6800 O   0  0  0  0  0  0  0  0  0  0  0  0
  180.9310  176.1540  136.1810 C   0  0  0  0  0  0  0  0  0  0  0  0
  188.8660  176.3130  137.9410 C   0  0  0  0  0  2  0  0  0  0  0  0
  189.8920  177.2400  138.1390 O   0  0  0  0  0  0  0  0  0  0  0  0
  190.8010  175.0700  137.7990 C   0  0  0  0  0  1  0  0  0  0  0  0
  191.0390  176.4690  138.3350 C   0  0  2  0  0  3  0  0  0  0  0  0
  191.3650  176.4130  139.8170 C   0  0  0  0  0  2  0  0  0  0  0  0
  190.6450  177.5320  140.5600 C   0  0  0  0  0  2  0  0  0  0  0  0
  190.0290  178.3410  144.8330 C   0  0  2  0  0  3  0  0  0  0  0  0
  189.0110  178.1760  142.3910 C   0  0  0  0  0  0  0  0  0  0  0  0
  188.7220  176.2180  141.0900 O   0  0  0  0  0  1  0  0  0  0  0  0
  191.8210  178.1840  143.1220 O   0  0  0  0  0  0  0  0  0  0  0  0
  191.2490  178.9820  144.1520 C   0  0  0  0  0  2  0  0  0  0  0  0
  189.7060  177.0250  141.6670 C   0  0  1  0  0  0  0  0  0  0  0  0
  191.6640  176.3900  144.8340 C   0  0  0  0  0  2  0  0  0  0  0  0
  190.4230  177.0040  145.4840 C   0  0  1  0  0  3  0  0  0  0  0  0
  190.5260  176.1320  142.6100 C   0  0  0  0  0  2  0  0  0  0  0  0
  188.5200  179.0780  141.7300 O   0  0  0  0  0  0  0  0  0  0  0  0
  191.7120  176.7800  143.3530 C   0  0  1  0  0  3  0  0  0  0  0  0
  188.8060  178.2370  143.8910 C   0  0  1  0  0  3  0  0  0  0  0  0
  187.6250  177.4580  144.3980 C   0  0  0  0  0  0  0  0  0  0  0  0
  187.2340  176.3300  143.8060 C   0  0  0  0  0  2  0  0  0  0  0  0
  186.7830  178.0400  145.4790 C   0  0  0  0  0  1  0  0  0  0  0  0
  190.6070  177.1510  146.9890 C   0  0  0  0  0  2  0  0  0  0  0  0
  191.5360  176.2240  147.4700 O   0  0  0  0  0  1  0  0  0  0  0  0
  1  5  1  0  0  0  0
  2  3  1  0  0  0  0
  2 33  1  0  0  0  0
  4  1  2  0  0  0  0
  4  6  1  0  0  0  0
  5  7  1  0  0  0  0
  5  3  2  0  0  0  0
  6  2  2  0  0  0  0
  7  8  3  0  0  0  0
  9 13  1  0  0  0  0
 10 13  2  0  0  0  0
 11 16  2  0  0  0  0
 12 11  1  0  0  0  0
 13 12  1  0  0  0  0
 14  9  1  6  0  0  0
 14 17  1  0  0  0  0
 14 11  1  0  0  0  0
 15 24  1  1  0  0  0
 16 15  1  0  0  0  0
 17 28  1  6  0  0  0
 17 18  1  0  0  0  0
 18  8  1  6  0  0  0
 18 15  1  0  0  0  0
 19 23  1  0  0  0  0
 20 25  1  0  0  0  0
 21 22  2  0  0  0  0
 22 20  1  0  0  0  0
 23 20  2  0  0  0  0
 24 19  2  0  0  0  0
 24 21  1  0  0  0  0
 25 26  2  0  0  0  0
 25 27  1  0  0  0  0
 28 29  1  1  0  0  0
 28 32  1  0  0  0  0
 31 32  2  0  0  0  0
 32 30  1  0  0  0  0
 33 34  1  0  0  0  0
 34 36  1  0  0  0  0
 36 35  1  1  0  0  0
 36 37  1  0  0  0  0
 37 38  1  0  0  0  0
 38 44  1  0  0  0  0
 39 43  1  6  0  0  0
 39 46  1  0  0  0  0
 40 50  1  0  0  0  0
 42 49  1  0  0  0  0
 42 43  1  0  0  0  0
 44 41  1  6  0  0  0
 44 40  1  0  0  0  0
 44 47  1  0  0  0  0
 45 46  1  0  0  0  0
 46 54  1  1  0  0  0
 48 40  2  0  0  0  0
 49 47  1  6  0  0  0
 49 45  1  0  0  0  0
 50 51  1  1  0  0  0
 50 39  1  0  0  0  0
 51 53  1  0  0  0  0
 52 51  2  0  0  0  0
 54 55  1  0  0  0  0
M  END
>  <MODEL>
1

>  <REMARK>
 VINA RESULT:      -7.1      0.000      0.000
  Name = 
  14 active torsions:
  status: ('A' for Active; 'I' for Inactive)
    1  A    between atoms: C_1  and  C_53
    2  A    between atoms: C_2  and  C_44
    3  A    between atoms: C_8  and  C_22
    4  A    between atoms: C_8  and  C_43
    5  A    between atoms: C_10  and  C_32
    6  A    between atoms: C_11  and  C_38
    7  A    between atoms: C_19  and  C_40
    8  A    between atoms: C_19  and  C_45
    9  A    between atoms: C_20  and  C_22
   10  A    between atoms: C_27  and  C_54
   11  A    between atoms: C_28  and  C_49
   12  A    between atoms: C_33  and  C_52
   13  A    between atoms: C_43  and  O_51
   14  A    between atoms: O_51  and  C_54
                            x       y       z     vdW  Elec       q    Type
                         _______ _______ _______ _____ _____    ______ ____

>  <TORSDO>
F 14

$$$$
=
 OpenBabel11052415063D

 55 60  0  0  1  0  0  0  0  0999 V2000
  187.5710  177.5650  135.4890 C   0  0  0  0  0  3  0  0  0  0  0  0
  189.4370  175.8890  136.7300 C   0  0  0  0  0  0  0  0  0  0  0  0
  188.1640  176.0530  137.2850 C   0  0  0  0  0  3  0  0  0  0  0  0
  188.8480  177.4100  134.9380 C   0  0  0  0  0  3  0  0  0  0  0  0
  187.2300  176.8860  136.6620 C   0  0  0  0  0  0  0  0  0  0  0  0
  189.7810  176.5760  135.5600 C   0  0  0  0  0  3  0  0  0  0  0  0
  185.9290  177.0570  137.2390 C   0  0  0  0  0  0  0  0  0  0  0  0
  184.8310  177.1880  137.7190 C   0  0  0  0  0  0  0  0  0  0  0  0
  181.0030  177.8770  135.3120 C   0  0  0  0  0  2  0  0  0  0  0  0
  179.4030  179.5570  134.5940 O   0  0  0  0  0  0  0  0  0  0  0  0
  181.8780  179.3480  136.9480 C   0  0  0  0  0  0  0  0  0  0  0  0
  180.8670  180.0460  136.3240 O   0  0  0  0  0  0  0  0  0  0  0  0
  180.3490  179.2160  135.3500 C   0  0  0  0  0  0  0  0  0  0  0  0
  182.2000  178.0690  136.2530 C   0  0  1  0  0  3  0  0  0  0  0  0
  183.3820  178.8020  138.8410 C   0  0  2  0  0  3  0  0  0  0  0  0
  182.4040  179.7010  138.1190 C   0  0  0  0  0  3  0  0  0  0  0  0
  182.3560  176.9810  137.3170 C   0  0  2  0  0  3  0  0  0  0  0  0
  183.4940  177.3520  138.3050 C   0  0  1  0  0  3  0  0  0  0  0  0
  184.2400  178.7070  141.1830 C   0  0  0  0  0  3  0  0  0  0  0  0
  182.7490  178.8330  143.0970 C   0  0  0  0  0  0  0  0  0  0  0  0
  181.8530  178.9390  140.8430 C   0  0  0  0  0  3  0  0  0  0  0  0
  181.6550  178.9460  142.2270 C   0  0  0  0  0  3  0  0  0  0  0  0
  184.0420  178.7150  142.5670 C   0  0  0  0  0  3  0  0  0  0  0  0
  183.1480  178.8190  140.3170 C   0  0  0  0  0  0  0  0  0  0  0  0
  182.5350  178.8330  144.5530 C   0  0  0  0  0  0  0  0  0  0  0  0
  181.2770  178.5530  145.0770 O   0  0  0  0  0  0  0  0  0  0  0  0
  183.4890  179.0790  145.3390 O   0  0  0  0  0  1  0  0  0  0  0  0
  182.3490  175.5370  136.7780 C   0  0  2  0  0  3  0  0  0  0  0  0
  182.6260  175.4950  135.2810 C   0  0  0  0  0  1  0  0  0  0  0  0
  180.2540  174.4350  136.3330 O   0  0  0  0  0  0  0  0  0  0  0  0
  181.0290  174.2640  138.4790 O   0  0  0  0  0  1  0  0  0  0  0  0
  181.1520  174.7150  137.1710 C   0  0  0  0  0  0  0  0  0  0  0  0
  190.4380  175.0230  137.4080 C   0  0  0  0  0  2  0  0  0  0  0  0
  190.6700  175.4940  138.7020 O   0  0  0  0  0  0  0  0  0  0  0  0
  192.8670  176.2570  138.2120 C   0  0  0  0  0  1  0  0  0  0  0  0
  191.4360  176.6480  138.5330 C   0  0  2  0  0  3  0  0  0  0  0  0
  191.3950  177.4750  139.8070 C   0  0  0  0  0  2  0  0  0  0  0  0
  190.3640  176.9050  140.7740 C   0  0  0  0  0  2  0  0  0  0  0  0
  188.1200  176.6590  144.5410 C   0  0  2  0  0  3  0  0  0  0  0  0
  190.3720  176.2180  143.2160 C   0  0  0  0  0  0  0  0  0  0  0  0
  191.8760  177.8400  142.3700 O   0  0  0  0  0  1  0  0  0  0  0  0
  187.7900  176.9290  142.0950 O   0  0  0  0  0  0  0  0  0  0  0  0
  187.4130  176.1970  143.2560 C   0  0  0  0  0  2  0  0  0  0  0  0
  190.5700  177.3640  142.2270 C   0  0  1  0  0  0  0  0  0  0  0  0
  187.3850  178.8920  143.5640 C   0  0  0  0  0  2  0  0  0  0  0  0
  187.7920  178.1330  144.8290 C   0  0  1  0  0  3  0  0  0  0  0  0
  189.6280  178.5490  142.4870 C   0  0  0  0  0  2  0  0  0  0  0  0
  190.8960  175.1390  142.9810 O   0  0  0  0  0  0  0  0  0  0  0  0
  188.1120  178.2960  142.3550 C   0  0  1  0  0  3  0  0  0  0  0  0
  189.6350  176.3490  144.5330 C   0  0  1  0  0  3  0  0  0  0  0  0
  190.4500  176.9240  145.6570 C   0  0  0  0  0  0  0  0  0  0  0  0
  189.9280  177.1020  146.8700 C   0  0  0  0  0  2  0  0  0  0  0  0
  191.8130  177.4510  145.3690 C   0  0  0  0  0  1  0  0  0  0  0  0
  186.7320  178.2660  145.9150 C   0  0  0  0  0  2  0  0  0  0  0  0
  186.9600  177.3530  146.9490 O   0  0  0  0  0  1  0  0  0  0  0  0
  1  5  1  0  0  0  0
  2  3  1  0  0  0  0
  2 33  1  0  0  0  0
  4  1  2  0  0  0  0
  4  6  1  0  0  0  0
  5  7  1  0  0  0  0
  5  3  2  0  0  0  0
  6  2  2  0  0  0  0
  7  8  3  0  0  0  0
  9 13  1  0  0  0  0
 10 13  2  0  0  0  0
 11 16  2  0  0  0  0
 12 11  1  0  0  0  0
 13 12  1  0  0  0  0
 14  9  1  6  0  0  0
 14 11  1  0  0  0  0
 14 17  1  0  0  0  0
 15 24  1  1  0  0  0
 16 15  1  0  0  0  0
 17 28  1  6  0  0  0
 17 18  1  0  0  0  0
 18  8  1  6  0  0  0
 18 15  1  0  0  0  0
 19 23  1  0  0  0  0
 20 25  1  0  0  0  0
 21 22  2  0  0  0  0
 22 20  1  0  0  0  0
 23 20  2  0  0  0  0
 24 21  1  0  0  0  0
 24 19  2  0  0  0  0
 25 26  2  0  0  0  0
 25 27  1  0  0  0  0
 28 29  1  6  0  0  0
 28 32  1  0  0  0  0
 30 32  2  0  0  0  0
 32 31  1  0  0  0  0
 33 34  1  0  0  0  0
 36 35  1  1  0  0  0
 36 34  1  0  0  0  0
 36 37  1  0  0  0  0
 37 38  1  0  0  0  0
 38 44  1  0  0  0  0
 39 43  1  6  0  0  0
 39 46  1  0  0  0  0
 40 50  1  0  0  0  0
 42 49  1  0  0  0  0
 42 43  1  0  0  0  0
 44 41  1  1  0  0  0
 44 47  1  0  0  0  0
 44 40  1  0  0  0  0
 45 46  1  0  0  0  0
 46 54  1  1  0  0  0
 48 40  2  0  0  0  0
 49 47  1  1  0  0  0
 49 45  1  0  0  0  0
 50 39  1  0  0  0  0
 50 51  1  1  0  0  0
 51 52  2  0  0  0  0
 53 51  1  0  0  0  0
 54 55  1  0  0  0  0
M  END
>  <MODEL>
2

>  <REMARK>
 VINA RESULT:      -6.7      1.653      2.891
  Name = 
  14 active torsions:
  status: ('A' for Active; 'I' for Inactive)
    1  A    between atoms: C_1  and  C_53
    2  A    between atoms: C_2  and  C_44
    3  A    between atoms: C_8  and  C_22
    4  A    between atoms: C_8  and  C_43
    5  A    between atoms: C_10  and  C_32
    6  A    between atoms: C_11  and  C_38
    7  A    between atoms: C_19  and  C_40
    8  A    between atoms: C_19  and  C_45
    9  A    between atoms: C_20  and  C_22
   10  A    between atoms: C_27  and  C_54
   11  A    between atoms: C_28  and  C_49
   12  A    between atoms: C_33  and  C_52
   13  A    between atoms: C_43  and  O_51
   14  A    between atoms: O_51  and  C_54
                            x       y       z     vdW  Elec       q    Type
                         _______ _______ _______ _____ _____    ______ ____

>  <TORSDO>
F 14

$$$$
=
 OpenBabel11052415063D

 55 60  0  0  1  0  0  0  0  0999 V2000
  181.8220  178.6980  142.6270 C   0  0  0  0  0  3  0  0  0  0  0  0
  184.1400  178.8160  144.1900 C   0  0  0  0  0  0  0  0  0  0  0  0
  184.2260  178.4950  142.8310 C   0  0  0  0  0  3  0  0  0  0  0  0
  181.7330  179.0090  143.9880 C   0  0  0  0  0  3  0  0  0  0  0  0
  183.0700  178.4410  142.0500 C   0  0  0  0  0  0  0  0  0  0  0  0
  182.8910  179.0640  144.7690 C   0  0  0  0  0  3  0  0  0  0  0  0
  183.1620  178.1040  140.6590 C   0  0  0  0  0  0  0  0  0  0  0  0
  183.2450  177.8330  139.4870 C   0  0  0  0  0  0  0  0  0  0  0  0
  179.8280  176.1270  136.9710 C   0  0  0  0  0  2  0  0  0  0  0  0
  178.9310  174.0970  135.9850 O   0  0  0  0  0  0  0  0  0  0  0  0
  181.9170  175.0760  137.3410 C   0  0  0  0  0  0  0  0  0  0  0  0
  181.1240  174.1240  136.7360 O   0  0  0  0  0  0  0  0  0  0  0  0
  179.8900  174.7060  136.5240 C   0  0  0  0  0  0  0  0  0  0  0  0
  181.1470  176.2890  137.7380 C   0  0  1  0  0  3  0  0  0  0  0  0
  184.0740  176.1390  137.9370 C   0  0  2  0  0  3  0  0  0  0  0  0
  183.2420  174.9850  137.4260 C   0  0  0  0  0  3  0  0  0  0  0  0
  181.9680  177.5180  137.3430 C   0  0  2  0  0  3  0  0  0  0  0  0
  183.3440  177.5000  138.0600 C   0  0  1  0  0  3  0  0  0  0  0  0
  186.1680  175.1530  137.0020 C   0  0  0  0  0  3  0  0  0  0  0  0
  187.7570  176.4880  135.7390 C   0  0  0  0  0  0  0  0  0  0  0  0
  185.7340  177.5050  136.6160 C   0  0  0  0  0  3  0  0  0  0  0  0
  186.9340  177.6100  135.9060 C   0  0  0  0  0  3  0  0  0  0  0  0
  187.3670  175.2590  136.2920 C   0  0  0  0  0  3  0  0  0  0  0  0
  185.3480  176.2740  137.1670 C   0  0  0  0  0  0  0  0  0  0  0  0
  189.0230  176.6060  134.9970 C   0  0  0  0  0  0  0  0  0  0  0  0
  189.5630  177.8580  134.7270 O   0  0  0  0  0  1  0  0  0  0  0  0
  189.6330  175.5740  134.6060 O   0  0  0  0  0  0  0  0  0  0  0  0
  181.1940  178.8510  137.3590 C   0  0  2  0  0  3  0  0  0  0  0  0
  179.9570  178.7710  138.2430 C   0  0  0  0  0  1  0  0  0  0  0  0
  180.8780  180.6840  135.8280 O   0  0  0  0  0  1  0  0  0  0  0  0
  180.6530  178.5910  134.9300 O   0  0  0  0  0  0  0  0  0  0  0  0
  180.9040  179.4360  136.0040 C   0  0  0  0  0  0  0  0  0  0  0  0
  185.3700  178.8460  145.0260 C   0  0  0  0  0  2  0  0  0  0  0  0
  185.2990  177.8560  146.0080 O   0  0  0  0  0  0  0  0  0  0  0  0
  186.0330  179.9370  146.8890 C   0  0  0  0  0  1  0  0  0  0  0  0
  185.7100  178.4840  147.1840 C   0  0  2  0  0  3  0  0  0  0  0  0
  186.9370  177.7780  147.7340 C   0  0  0  0  0  2  0  0  0  0  0  0
  188.1890  178.2440  147.0000 C   0  0  0  0  0  2  0  0  0  0  0  0
  191.3120  177.7410  143.9530 C   0  0  2  0  0  3  0  0  0  0  0  0
  190.5360  177.4410  146.4700 C   0  0  0  0  0  0  0  0  0  0  0  0
  188.8680  175.9730  147.2880 O   0  0  0  0  0  1  0  0  0  0  0  0
  189.2190  178.9980  144.4030 O   0  0  0  0  0  0  0  0  0  0  0  0
  190.5850  179.0940  144.0160 C   0  0  0  0  0  2  0  0  0  0  0  0
  189.0500  177.0880  146.4670 C   0  0  1  0  0  0  0  0  0  0  0  0
  189.1690  177.1970  142.6930 C   0  0  0  0  0  2  0  0  0  0  0  0
  190.6320  176.8170  142.9300 C   0  0  1  0  0  3  0  0  0  0  0  0
  188.5280  176.7130  145.0720 C   0  0  0  0  0  2  0  0  0  0  0  0
  191.0150  177.9700  147.4620 O   0  0  0  0  0  0  0  0  0  0  0  0
  188.5820  177.7950  143.9750 C   0  0  1  0  0  3  0  0  0  0  0  0
  191.4950  177.0970  145.3480 C   0  0  1  0  0  3  0  0  0  0  0  0
  192.0250  175.6910  145.3800 C   0  0  0  0  0  0  0  0  0  0  0  0
  192.0300  174.9280  144.2880 C   0  0  0  0  0  2  0  0  0  0  0  0
  192.4010  175.0890  146.6890 C   0  0  0  0  0  1  0  0  0  0  0  0
  191.4070  176.7710  141.6190 C   0  0  0  0  0  2  0  0  0  0  0  0
  190.6370  176.1930  140.6050 O   0  0  0  0  0  1  0  0  0  0  0  0
  1  4  1  0  0  0  0
  2  6  1  0  0  0  0
  2 33  1  0  0  0  0
  3  2  2  0  0  0  0
  4  6  2  0  0  0  0
  5  1  2  0  0  0  0
  5  3  1  0  0  0  0
  7  5  1  0  0  0  0
  8  7  3  0  0  0  0
 10 13  2  0  0  0  0
 11 16  2  0  0  0  0
 11 14  1  0  0  0  0
 12 11  1  0  0  0  0
 13 12  1  0  0  0  0
 13  9  1  0  0  0  0
 14  9  1  6  0  0  0
 15 24  1  6  0  0  0
 15 18  1  0  0  0  0
 16 15  1  0  0  0  0
 17 28  1  1  0  0  0
 17 14  1  0  0  0  0
 17 18  1  0  0  0  0
 18  8  1  1  0  0  0
 19 24  1  0  0  0  0
 20 22  2  0  0  0  0
 20 23  1  0  0  0  0
 21 24  2  0  0  0  0
 22 21  1  0  0  0  0
 23 19  2  0  0  0  0
 25 20  1  0  0  0  0
 26 25  1  0  0  0  0
 27 25  2  0  0  0  0
 28 29  1  6  0  0  0
 30 32  1  0  0  0  0
 31 32  2  0  0  0  0
 32 28  1  0  0  0  0
 33 34  1  0  0  0  0
 34 36  1  0  0  0  0
 36 35  1  6  0  0  0
 36 37  1  0  0  0  0
 38 37  1  0  0  0  0
 39 43  1  1  0  0  0
 39 50  1  0  0  0  0
 40 48  2  0  0  0  0
 43 42  1  0  0  0  0
 44 40  1  0  0  0  0
 44 38  1  0  0  0  0
 44 41  1  1  0  0  0
 45 46  1  0  0  0  0
 46 54  1  6  0  0  0
 46 39  1  0  0  0  0
 47 44  1  0  0  0  0
 49 45  1  6  0  0  0
 49 42  1  0  0  0  0
 49 47  1  0  0  0  0
 50 51  1  6  0  0  0
 50 40  1  0  0  0  0
 51 53  1  0  0  0  0
 52 51  2  0  0  0  0
 55 54  1  0  0  0  0
M  END
>  <MODEL>
3

>  <REMARK>
 VINA RESULT:      -6.6      2.099      7.057
  Name = 
  14 active torsions:
  status: ('A' for Active; 'I' for Inactive)
    1  A    between atoms: C_1  and  C_53
    2  A    between atoms: C_2  and  C_44
    3  A    between atoms: C_8  and  C_22
    4  A    between atoms: C_8  and  C_43
    5  A    between atoms: C_10  and  C_32
    6  A    between atoms: C_11  and  C_38
    7  A    between atoms: C_19  and  C_40
    8  A    between atoms: C_19  and  C_45
    9  A    between atoms: C_20  and  C_22
   10  A    between atoms: C_27  and  C_54
   11  A    between atoms: C_28  and  C_49
   12  A    between atoms: C_33  and  C_52
   13  A    between atoms: C_43  and  O_51
   14  A    between atoms: O_51  and  C_54
                            x       y       z     vdW  Elec       q    Type
                         _______ _______ _______ _____ _____    ______ ____

>  <TORSDO>
F 14

$$$$
=
 OpenBabel11052415063D

 55 60  0  0  1  0  0  0  0  0999 V2000
  180.4020  179.2580  139.5030 C   0  0  0  0  0  3  0  0  0  0  0  0
  181.3180  179.0090  142.1350 C   0  0  0  0  0  0  0  0  0  0  0  0
  181.9090  178.2590  141.1130 C   0  0  0  0  0  3  0  0  0  0  0  0
  179.8030  180.0010  140.5250 C   0  0  0  0  0  3  0  0  0  0  0  0
  181.4550  178.3880  139.7980 C   0  0  0  0  0  0  0  0  0  0  0  0
  180.2580  179.8740  141.8410 C   0  0  0  0  0  3  0  0  0  0  0  0
  182.0590  177.6110  138.7550 C   0  0  0  0  0  0  0  0  0  0  0  0
  182.5800  176.9620  137.8830 C   0  0  0  0  0  0  0  0  0  0  0  0
  180.5170  173.5940  135.5750 C   0  0  0  0  0  2  0  0  0  0  0  0
  180.3120  171.1820  135.3730 O   0  0  0  0  0  0  0  0  0  0  0  0
  182.4780  173.3610  136.8820 C   0  0  0  0  0  0  0  0  0  0  0  0
  182.0850  172.0770  136.5690 O   0  0  0  0  0  0  0  0  0  0  0  0
  180.9300  172.1820  135.8200 C   0  0  0  0  0  0  0  0  0  0  0  0
  181.4550  174.3770  136.5040 C   0  0  1  0  0  3  0  0  0  0  0  0
  184.1230  175.1120  137.4870 C   0  0  2  0  0  3  0  0  0  0  0  0
  183.6910  173.6720  137.3330 C   0  0  0  0  0  3  0  0  0  0  0  0
  182.1780  175.5500  135.8390 C   0  0  2  0  0  3  0  0  0  0  0  0
  183.2100  176.1700  136.8180 C   0  0  1  0  0  3  0  0  0  0  0  0
  186.1170  176.5740  137.1440 C   0  0  0  0  0  3  0  0  0  0  0  0
  188.2290  175.6860  136.3340 C   0  0  0  0  0  0  0  0  0  0  0  0
  186.3280  174.2100  136.6550 C   0  0  0  0  0  3  0  0  0  0  0  0
  187.6600  174.4060  136.2790 C   0  0  0  0  0  3  0  0  0  0  0  0
  187.4500  176.7680  136.7690 C   0  0  0  0  0  3  0  0  0  0  0  0
  185.5520  175.2960  137.0880 C   0  0  0  0  0  0  0  0  0  0  0  0
  189.6300  175.8880  135.9290 C   0  0  0  0  0  0  0  0  0  0  0  0
  190.2420  174.9980  135.0540 O   0  0  0  0  0  0  0  0  0  0  0  0
  190.2860  176.8720  136.3670 O   0  0  0  0  0  1  0  0  0  0  0  0
  181.2660  176.5320  135.0790 C   0  0  2  0  0  3  0  0  0  0  0  0
  182.0060  177.8080  134.7030 C   0  0  0  0  0  1  0  0  0  0  0  0
  178.9440  176.0550  135.5080 O   0  0  0  0  0  0  0  0  0  0  0  0
  179.7950  177.8910  136.5780 O   0  0  0  0  0  1  0  0  0  0  0  0
  179.9360  176.8010  135.7290 C   0  0  0  0  0  0  0  0  0  0  0  0
  181.7850  178.8510  143.5380 C   0  0  0  0  0  2  0  0  0  0  0  0
  182.9310  179.6210  143.7450 O   0  0  0  0  0  0  0  0  0  0  0  0
  183.6090  178.7290  145.8410 C   0  0  0  0  0  1  0  0  0  0  0  0
  183.8460  178.7520  144.3420 C   0  0  2  0  0  3  0  0  0  0  0  0
  185.2590  179.2210  144.0440 C   0  0  0  0  0  2  0  0  0  0  0  0
  186.0660  178.0960  143.4070 C   0  0  0  0  0  2  0  0  0  0  0  0
  190.3030  177.6460  144.4740 C   0  0  2  0  0  3  0  0  0  0  0  0
  187.8180  178.1590  145.2410 C   0  0  0  0  0  0  0  0  0  0  0  0
  185.9980  176.6460  145.3040 O   0  0  0  0  0  1  0  0  0  0  0  0
  188.8190  178.0190  142.5190 O   0  0  0  0  0  0  0  0  0  0  0  0
  189.9630  178.4800  143.2280 C   0  0  0  0  0  2  0  0  0  0  0  0
  186.8790  177.2760  144.4220 C   0  0  1  0  0  0  0  0  0  0  0  0
  189.9320  175.8100  142.7500 C   0  0  0  0  0  2  0  0  0  0  0  0
  190.5910  176.1880  144.0780 C   0  0  1  0  0  3  0  0  0  0  0  0
  187.6170  176.1700  143.6530 C   0  0  0  0  0  2  0  0  0  0  0  0
  187.3870  179.2020  145.7110 O   0  0  0  0  0  0  0  0  0  0  0  0
  188.6340  176.6050  142.5790 C   0  0  1  0  0  3  0  0  0  0  0  0
  189.2440  177.7870  145.5930 C   0  0  1  0  0  3  0  0  0  0  0  0
  189.3830  176.8720  146.7770 C   0  0  0  0  0  0  0  0  0  0  0  0
  188.3200  176.4870  147.4820 C   0  0  0  0  0  2  0  0  0  0  0  0
  190.7450  176.5190  147.2650 C   0  0  0  0  0  1  0  0  0  0  0  0
  192.0880  175.9050  144.0490 C   0  0  0  0  0  2  0  0  0  0  0  0
  192.3780  174.6910  144.6790 O   0  0  0  0  0  1  0  0  0  0  0  0
  1  5  2  0  0  0  0
  1  4  1  0  0  0  0
  2 33  1  0  0  0  0
  3  2  2  0  0  0  0
  4  6  2  0  0  0  0
  5  3  1  0  0  0  0
  6  2  1  0  0  0  0
  7  5  1  0  0  0  0
  8  7  3  0  0  0  0
  9 13  1  0  0  0  0
 10 13  2  0  0  0  0
 11 16  2  0  0  0  0
 12 11  1  0  0  0  0
 13 12  1  0  0  0  0
 14  9  1  6  0  0  0
 14 11  1  0  0  0  0
 15 24  1  6  0  0  0
 16 15  1  0  0  0  0
 17 28  1  1  0  0  0
 17 14  1  0  0  0  0
 17 18  1  0  0  0  0
 18 15  1  0  0  0  0
 18  8  1  1  0  0  0
 20 23  1  0  0  0  0
 21 24  2  0  0  0  0
 22 20  2  0  0  0  0
 22 21  1  0  0  0  0
 23 19  2  0  0  0  0
 24 19  1  0  0  0  0
 25 20  1  0  0  0  0
 25 27  1  0  0  0  0
 26 25  2  0  0  0  0
 28 29  1  1  0  0  0
 28 32  1  0  0  0  0
 30 32  2  0  0  0  0
 32 31  1  0  0  0  0
 33 34  1  0  0  0  0
 34 36  1  0  0  0  0
 36 35  1  1  0  0  0
 37 36  1  0  0  0  0
 38 37  1  0  0  0  0
 38 44  1  0  0  0  0
 39 43  1  6  0  0  0
 39 50  1  0  0  0  0
 40 50  1  0  0  0  0
 40 48  2  0  0  0  0
 42 49  1  0  0  0  0
 42 43  1  0  0  0  0
 44 40  1  0  0  0  0
 44 41  1  1  0  0  0
 45 46  1  0  0  0  0
 46 54  1  6  0  0  0
 46 39  1  0  0  0  0
 47 44  1  0  0  0  0
 49 45  1  1  0  0  0
 49 47  1  0  0  0  0
 50 51  1  6  0  0  0
 51 53  1  0  0  0  0
 51 52  2  0  0  0  0
 54 55  1  0  0  0  0
M  END
>  <MODEL>
4

>  <REMARK>
 VINA RESULT:      -5.8      2.280      6.983
  Name = 
  14 active torsions:
  status: ('A' for Active; 'I' for Inactive)
    1  A    between atoms: C_1  and  C_53
    2  A    between atoms: C_2  and  C_44
    3  A    between atoms: C_8  and  C_22
    4  A    between atoms: C_8  and  C_43
    5  A    between atoms: C_10  and  C_32
    6  A    between atoms: C_11  and  C_38
    7  A    between atoms: C_19  and  C_40
    8  A    between atoms: C_19  and  C_45
    9  A    between atoms: C_20  and  C_22
   10  A    between atoms: C_27  and  C_54
   11  A    between atoms: C_28  and  C_49
   12  A    between atoms: C_33  and  C_52
   13  A    between atoms: C_43  and  O_51
   14  A    between atoms: O_51  and  C_54
                            x       y       z     vdW  Elec       q    Type
                         _______ _______ _______ _____ _____    ______ ____

>  <TORSDO>
F 14

$$$$
=
 OpenBabel11052415063D

 55 60  0  0  1  0  0  0  0  0999 V2000
  185.0250  174.1170  137.6880 C   0  0  0  0  0  3  0  0  0  0  0  0
  183.3080  175.4770  135.9470 C   0  0  0  0  0  0  0  0  0  0  0  0
  184.5340  176.0450  136.3080 C   0  0  0  0  0  3  0  0  0  0  0  0
  183.7950  173.5520  137.3360 C   0  0  0  0  0  3  0  0  0  0  0  0
  185.3940  175.3640  137.1740 C   0  0  0  0  0  0  0  0  0  0  0  0
  182.9360  174.2330  136.4690 C   0  0  0  0  0  3  0  0  0  0  0  0
  186.6460  175.9530  137.5480 C   0  0  0  0  0  0  0  0  0  0  0  0
  187.7020  176.4500  137.8490 C   0  0  0  0  0  0  0  0  0  0  0  0
  191.4620  176.3650  135.2440 C   0  0  0  0  0  2  0  0  0  0  0  0
  193.6120  175.2830  134.9230 O   0  0  0  0  0  0  0  0  0  0  0  0
  191.2820  175.4590  137.4240 C   0  0  0  0  0  0  0  0  0  0  0  0
  192.4900  175.0100  136.9340 O   0  0  0  0  0  0  0  0  0  0  0  0
  192.6130  175.5110  135.6530 C   0  0  0  0  0  0  0  0  0  0  0  0
  190.4560  176.1270  136.3790 C   0  0  1  0  0  3  0  0  0  0  0  0
  189.6940  176.1000  139.2160 C   0  0  2  0  0  3  0  0  0  0  0  0
  190.9550  175.4320  138.7140 C   0  0  0  0  0  3  0  0  0  0  0  0
  189.8660  177.4010  136.9870 C   0  0  2  0  0  3  0  0  0  0  0  0
  188.9890  177.0530  138.2190 C   0  0  1  0  0  3  0  0  0  0  0  0
  188.8230  177.2560  141.2490 C   0  0  0  0  0  3  0  0  0  0  0  0
  190.3040  178.0280  143.0140 C   0  0  0  0  0  0  0  0  0  0  0  0
  191.2130  176.9030  141.0640 C   0  0  0  0  0  3  0  0  0  0  0  0
  191.4020  177.5330  142.2970 C   0  0  0  0  0  3  0  0  0  0  0  0
  189.0130  177.8850  142.4830 C   0  0  0  0  0  3  0  0  0  0  0  0
  189.9200  176.7630  140.5360 C   0  0  0  0  0  0  0  0  0  0  0  0
  190.5090  178.6980  144.3090 C   0  0  0  0  0  0  0  0  0  0  0  0
  191.2280  179.8870  144.3760 O   0  0  0  0  0  0  0  0  0  0  0  0
  190.0320  178.2050  145.3660 O   0  0  0  0  0  1  0  0  0  0  0  0
  189.2710  178.3940  135.9690 C   0  0  2  0  0  3  0  0  0  0  0  0
  189.0120  179.7550  136.6000 C   0  0  0  0  0  1  0  0  0  0  0  0
  187.0390  178.5640  135.0800 O   0  0  0  0  0  1  0  0  0  0  0  0
  188.1560  176.6270  134.5940 O   0  0  0  0  0  0  0  0  0  0  0  0
  188.0910  177.8790  135.1920 C   0  0  0  0  0  0  0  0  0  0  0  0
  182.3830  176.2160  135.0470 C   0  0  0  0  0  2  0  0  0  0  0  0
  182.0420  177.4420  135.6230 O   0  0  0  0  0  0  0  0  0  0  0  0
  180.3200  178.7160  134.5940 C   0  0  0  0  0  1  0  0  0  0  0  0
  180.6560  177.5330  135.4820 C   0  0  2  0  0  3  0  0  0  0  0  0
  180.0180  177.7090  136.8490 C   0  0  0  0  0  2  0  0  0  0  0  0
  180.2840  176.4860  137.7180 C   0  0  0  0  0  2  0  0  0  0  0  0
  182.2390  179.2390  140.5270 C   0  0  2  0  0  3  0  0  0  0  0  0
  179.9960  178.2660  139.5030 C   0  0  0  0  0  0  0  0  0  0  0  0
  179.1320  176.0780  139.7700 O   0  0  0  0  0  1  0  0  0  0  0  0
  182.6920  177.8910  138.4920 O   0  0  0  0  0  0  0  0  0  0  0  0
  182.7800  179.1800  139.0900 C   0  0  0  0  0  2  0  0  0  0  0  0
  180.2100  176.7790  139.2250 C   0  0  1  0  0  0  0  0  0  0  0  0
  183.6910  177.1510  140.6440 C   0  0  0  0  0  2  0  0  0  0  0  0
  183.0290  178.2820  141.4350 C   0  0  1  0  0  3  0  0  0  0  0  0
  181.4850  176.2260  139.8790 C   0  0  0  0  0  2  0  0  0  0  0  0
  179.1510  178.8710  138.8600 O   0  0  0  0  0  0  0  0  0  0  0  0
  182.8350  176.8150  139.4190 C   0  0  1  0  0  3  0  0  0  0  0  0
  180.7060  179.0380  140.5960 C   0  0  1  0  0  3  0  0  0  0  0  0
  180.1030  178.8920  141.9650 C   0  0  0  0  0  0  0  0  0  0  0  0
  179.7130  179.9560  142.6660 C   0  0  0  0  0  2  0  0  0  0  0  0
  180.0890  177.5510  142.6110 C   0  0  0  0  0  1  0  0  0  0  0  0
  184.0500  179.0320  142.2800 C   0  0  0  0  0  2  0  0  0  0  0  0
  185.0260  179.6250  141.4740 O   0  0  0  0  0  1  0  0  0  0  0  0
  2  3  2  0  0  0  0
  2  6  1  0  0  0  0
  3  5  1  0  0  0  0
  4  1  1  0  0  0  0
  5  7  1  0  0  0  0
  5  1  2  0  0  0  0
  6  4  2  0  0  0  0
  7  8  3  0  0  0  0
  9 13  1  0  0  0  0
 10 13  2  0  0  0  0
 11 16  2  0  0  0  0
 12 11  1  0  0  0  0
 13 12  1  0  0  0  0
 14  9  1  6  0  0  0
 14 17  1  0  0  0  0
 14 11  1  0  0  0  0
 15 24  1  1  0  0  0
 16 15  1  0  0  0  0
 17 28  1  6  0  0  0
 17 18  1  0  0  0  0
 18  8  1  6  0  0  0
 18 15  1  0  0  0  0
 19 23  1  0  0  0  0
 20 25  1  0  0  0  0
 21 22  2  0  0  0  0
 22 20  1  0  0  0  0
 23 20  2  0  0  0  0
 24 21  1  0  0  0  0
 24 19  2  0  0  0  0
 25 26  2  0  0  0  0
 25 27  1  0  0  0  0
 28 29  1  1  0  0  0
 30 32  1  0  0  0  0
 31 32  2  0  0  0  0
 32 28  1  0  0  0  0
 33 34  1  0  0  0  0
 33  2  1  0  0  0  0
 36 35  1  6  0  0  0
 36 34  1  0  0  0  0
 36 37  1  0  0  0  0
 37 38  1  0  0  0  0
 38 44  1  0  0  0  0
 39 43  1  6  0  0  0
 39 50  1  0  0  0  0
 39 46  1  0  0  0  0
 40 50  1  0  0  0  0
 42 43  1  0  0  0  0
 42 49  1  0  0  0  0
 44 40  1  0  0  0  0
 44 41  1  1  0  0  0
 44 47  1  0  0  0  0
 45 46  1  0  0  0  0
 46 54  1  6  0  0  0
 48 40  2  0  0  0  0
 49 47  1  1  0  0  0
 49 45  1  0  0  0  0
 50 51  1  1  0  0  0
 51 53  1  0  0  0  0
 51 52  2  0  0  0  0
 55 54  1  0  0  0  0
M  END
>  <MODEL>
5

>  <REMARK>
 VINA RESULT:      -4.5      2.422      9.376
  Name = 
  14 active torsions:
  status: ('A' for Active; 'I' for Inactive)
    1  A    between atoms: C_1  and  C_53
    2  A    between atoms: C_2  and  C_44
    3  A    between atoms: C_8  and  C_22
    4  A    between atoms: C_8  and  C_43
    5  A    between atoms: C_10  and  C_32
    6  A    between atoms: C_11  and  C_38
    7  A    between atoms: C_19  and  C_40
    8  A    between atoms: C_19  and  C_45
    9  A    between atoms: C_20  and  C_22
   10  A    between atoms: C_27  and  C_54
   11  A    between atoms: C_28  and  C_49
   12  A    between atoms: C_33  and  C_52
   13  A    between atoms: C_43  and  O_51
   14  A    between atoms: O_51  and  C_54
                            x       y       z     vdW  Elec       q    Type
                         _______ _______ _______ _____ _____    ______ ____

>  <TORSDO>
F 14

$$$$
=
 OpenBabel11052415063D

 55 60  0  0  1  0  0  0  0  0999 V2000
  191.3510  176.6960  139.4980 C   0  0  0  0  0  3  0  0  0  0  0  0
  189.8200  175.6370  137.4090 C   0  0  0  0  0  0  0  0  0  0  0  0
  189.1900  176.1830  138.5320 C   0  0  0  0  0  3  0  0  0  0  0  0
  191.9820  176.1430  138.3790 C   0  0  0  0  0  3  0  0  0  0  0  0
  189.9550  176.7160  139.5730 C   0  0  0  0  0  0  0  0  0  0  0  0
  191.2170  175.6100  137.3370 C   0  0  0  0  0  3  0  0  0  0  0  0
  189.3060  177.2670  140.7260 C   0  0  0  0  0  0  0  0  0  0  0  0
  188.7510  177.7380  141.6880 C   0  0  0  0  0  0  0  0  0  0  0  0
  190.4910  177.7820  145.9180 C   0  0  0  0  0  2  0  0  0  0  0  0
  190.4060  176.7060  148.0940 O   0  0  0  0  0  0  0  0  0  0  0  0
  188.4560  176.7500  145.2810 C   0  0  0  0  0  0  0  0  0  0  0  0
  188.7030  176.3240  146.5690 O   0  0  0  0  0  0  0  0  0  0  0  0
  189.8960  176.8970  146.9610 C   0  0  0  0  0  0  0  0  0  0  0  0
  189.6140  177.4840  144.6940 C   0  0  1  0  0  3  0  0  0  0  0  0
  187.0120  177.2960  143.3430 C   0  0  2  0  0  3  0  0  0  0  0  0
  187.2700  176.6500  144.6850 C   0  0  0  0  0  3  0  0  0  0  0  0
  189.0730  178.7240  143.9800 C   0  0  2  0  0  3  0  0  0  0  0  0
  188.0790  178.3110  142.8620 C   0  0  1  0  0  3  0  0  0  0  0  0
  184.9900  178.2380  144.4630 C   0  0  0  0  0  3  0  0  0  0  0  0
  183.0490  178.9660  143.1950 C   0  0  0  0  0  0  0  0  0  0  0  0
  184.9890  178.0650  142.0460 C   0  0  0  0  0  3  0  0  0  0  0  0
  183.7000  178.6050  142.0070 C   0  0  0  0  0  3  0  0  0  0  0  0
  183.7020  178.7790  144.4230 C   0  0  0  0  0  3  0  0  0  0  0  0
  185.6380  177.8790  143.2770 C   0  0  0  0  0  0  0  0  0  0  0  0
  181.6890  179.5270  143.1500 C   0  0  0  0  0  0  0  0  0  0  0  0
  181.2070  180.1020  141.9790 O   0  0  0  0  0  0  0  0  0  0  0  0
  180.9470  179.4860  144.1670 O   0  0  0  0  0  1  0  0  0  0  0  0
  190.1340  179.7790  143.6110 C   0  0  2  0  0  3  0  0  0  0  0  0
  189.7500  180.5430  142.3510 C   0  0  0  0  0  1  0  0  0  0  0  0
  192.4290  179.7520  144.3410 O   0  0  0  0  0  1  0  0  0  0  0  0
  191.8990  178.2690  142.6800 O   0  0  0  0  0  0  0  0  0  0  0  0
  191.5500  179.2730  143.5750 C   0  0  0  0  0  0  0  0  0  0  0  0
  189.0050  175.0450  136.3140 C   0  0  0  0  0  2  0  0  0  0  0  0
  187.6520  175.0820  136.6590 O   0  0  0  0  0  0  0  0  0  0  0  0
  187.2810  176.9360  135.2190 C   0  0  0  0  0  1  0  0  0  0  0  0
  186.9930  175.4710  135.4920 C   0  0  2  0  0  3  0  0  0  0  0  0
  185.4990  175.2550  135.6570 C   0  0  0  0  0  2  0  0  0  0  0  0
  185.0110  175.9010  136.9480 C   0  0  0  0  0  2  0  0  0  0  0  0
  181.5210  177.1900  139.2830 C   0  0  2  0  0  3  0  0  0  0  0  0
  183.6840  177.8440  137.8980 C   0  0  0  0  0  0  0  0  0  0  0  0
  184.0260  177.5840  135.5690 O   0  0  0  0  0  1  0  0  0  0  0  0
  182.9440  175.2020  138.8480 O   0  0  0  0  0  0  0  0  0  0  0  0
  182.3750  176.0420  139.8460 C   0  0  0  0  0  2  0  0  0  0  0  0
  183.8230  176.8550  136.7430 C   0  0  1  0  0  0  0  0  0  0  0  0
  180.6330  175.2210  137.9360 C   0  0  0  0  0  2  0  0  0  0  0  0
  180.3480  176.6290  138.4620 C   0  0  1  0  0  3  0  0  0  0  0  0
  182.5630  176.0020  136.5320 C   0  0  0  0  0  2  0  0  0  0  0  0
  184.6840  178.4140  138.3090 O   0  0  0  0  0  0  0  0  0  0  0  0
  182.1350  175.0650  137.6800 C   0  0  1  0  0  3  0  0  0  0  0  0
  182.3630  178.2420  138.5230 C   0  0  1  0  0  3  0  0  0  0  0  0
  181.6060  179.3040  137.7760 C   0  0  0  0  0  0  0  0  0  0  0  0
  181.2080  179.1140  136.5190 C   0  0  0  0  0  2  0  0  0  0  0  0
  181.4400  180.6480  138.3960 C   0  0  0  0  0  1  0  0  0  0  0  0
  179.0470  176.6660  139.2540 C   0  0  0  0  0  2  0  0  0  0  0  0
  179.2180  177.3500  140.4620 O   0  0  0  0  0  1  0  0  0  0  0  0
  1  5  1  0  0  0  0
  2  3  1  0  0  0  0
  3  5  2  0  0  0  0
  4  1  2  0  0  0  0
  5  7  1  0  0  0  0
  6  2  2  0  0  0  0
  6  4  1  0  0  0  0
  7  8  3  0  0  0  0
  9 13  1  0  0  0  0
 11 12  1  0  0  0  0
 12 13  1  0  0  0  0
 13 10  2  0  0  0  0
 14 11  1  0  0  0  0
 14  9  1  1  0  0  0
 15 24  1  1  0  0  0
 15 16  1  0  0  0  0
 16 11  2  0  0  0  0
 17 28  1  6  0  0  0
 17 14  1  0  0  0  0
 18  8  1  6  0  0  0
 18 15  1  0  0  0  0
 18 17  1  0  0  0  0
 20 23  2  0  0  0  0
 21 24  1  0  0  0  0
 22 21  2  0  0  0  0
 22 20  1  0  0  0  0
 23 19  1  0  0  0  0
 24 19  2  0  0  0  0
 25 20  1  0  0  0  0
 25 27  1  0  0  0  0
 26 25  2  0  0  0  0
 28 29  1  6  0  0  0
 31 32  2  0  0  0  0
 32 28  1  0  0  0  0
 32 30  1  0  0  0  0
 33 34  1  0  0  0  0
 33  2  1  0  0  0  0
 36 35  1  1  0  0  0
 36 37  1  0  0  0  0
 36 34  1  0  0  0  0
 37 38  1  0  0  0  0
 39 43  1  6  0  0  0
 40 48  2  0  0  0  0
 40 50  1  0  0  0  0
 42 43  1  0  0  0  0
 44 41  1  6  0  0  0
 44 38  1  0  0  0  0
 44 40  1  0  0  0  0
 45 46  1  0  0  0  0
 46 54  1  1  0  0  0
 46 39  1  0  0  0  0
 47 44  1  0  0  0  0
 49 47  1  6  0  0  0
 49 45  1  0  0  0  0
 49 42  1  0  0  0  0
 50 51  1  6  0  0  0
 50 39  1  0  0  0  0
 51 53  1  0  0  0  0
 52 51  2  0  0  0  0
 54 55  1  0  0  0  0
M  END
>  <MODEL>
6

>  <REMARK>
 VINA RESULT:      -4.4      2.250      9.444
  Name = 
  14 active torsions:
  status: ('A' for Active; 'I' for Inactive)
    1  A    between atoms: C_1  and  C_53
    2  A    between atoms: C_2  and  C_44
    3  A    between atoms: C_8  and  C_22
    4  A    between atoms: C_8  and  C_43
    5  A    between atoms: C_10  and  C_32
    6  A    between atoms: C_11  and  C_38
    7  A    between atoms: C_19  and  C_40
    8  A    between atoms: C_19  and  C_45
    9  A    between atoms: C_20  and  C_22
   10  A    between atoms: C_27  and  C_54
   11  A    between atoms: C_28  and  C_49
   12  A    between atoms: C_33  and  C_52
   13  A    between atoms: C_43  and  O_51
   14  A    between atoms: O_51  and  C_54
                            x       y       z     vdW  Elec       q    Type
                         _______ _______ _______ _____ _____    ______ ____

>  <TORSDO>
F 14

$$$$
