=
 OpenBabel11052414233D

 34 38  0  0  1  0  0  0  0  0999 V2000
  190.2000  177.2630  147.0670 C   0  0  0  0  0  0  0  0  0  0  0  0
  191.5330  175.8250  145.6370 C   0  0  0  0  0  0  0  0  0  0  0  0
  189.5330  177.0750  144.7260 C   0  0  0  0  0  0  0  0  0  0  0  0
  188.8550  177.2540  142.3810 C   0  0  0  0  0  0  0  0  0  0  0  0
  191.1300  177.1050  148.0960 C   0  0  0  0  0  3  0  0  0  0  0  0
  192.4500  175.6710  146.6820 C   0  0  0  0  0  3  0  0  0  0  0  0
  191.3060  177.1600  142.8980 C   0  0  0  0  0  2  0  0  0  0  0  0
  190.4440  176.7340  145.7740 C   0  0  0  0  0  0  0  0  0  0  0  0
  191.5200  176.6700  141.4720 C   0  0  0  0  0  2  0  0  0  0  0  0
  189.1150  177.0810  140.9110 C   0  0  0  0  0  2  0  0  0  0  0  0
  192.2730  176.3380  147.8910 C   0  0  0  0  0  3  0  0  0  0  0  0
  188.2610  177.6000  145.0960 C   0  0  0  0  0  0  0  0  0  0  0  0
  188.9930  177.8900  147.3430 C   0  0  0  0  0  3  0  0  0  0  0  0
  191.6270  174.6040  144.3690 Cl  0  0  0  0  0  0  0  0  0  0  0  0
  187.5650  177.5800  142.7790 C   0  0  0  0  0  3  0  0  0  0  0  0
  187.2500  177.7850  144.1250 C   0  0  0  0  0  0  0  0  0  0  0  0
  190.5620  177.4040  140.5420 C   0  0  2  0  0  3  0  0  0  0  0  0
  189.8660  177.0420  143.3430 C   0  0  0  0  0  0  0  0  0  0  0  0
  188.0500  178.0050  146.3780 N   0  0  0  0  0  0  0  0  0  0  0  0
  183.5880  178.7130  143.7850 C   0  0  0  0  0  0  0  0  0  0  0  0
  183.2480  178.9250  145.1210 C   0  0  0  0  0  3  0  0  0  0  0  0
  185.8620  178.2010  144.4680 C   0  0  0  0  0  0  0  0  0  0  0  0
  184.1870  178.7720  146.0930 N   0  0  0  0  0  0  0  0  0  0  0  0
  184.8940  178.3470  143.4620 C   0  0  0  0  0  3  0  0  0  0  0  0
  185.4670  178.4160  145.7980 C   0  0  0  0  0  3  0  0  0  0  0  0
  182.5680  178.8730  142.7160 C   0  0  0  0  0  1  0  0  0  0  0  0
  190.8310  177.0760  139.1460 N   0  0  0  0  0  0  0  0  0  0  0  0
  189.4830  177.4840  135.8500 O   0  0  0  0  0  1  0  0  0  0  0  0
  190.0210  177.3930  138.1840 C   0  0  0  0  0  3  0  0  0  0  0  0
  190.3130  177.0510  136.8260 N   0  0  0  0  0  0  0  0  0  0  0  0
  191.5210  176.3210  136.4590 C   0  0  0  0  0  2  0  0  0  0  0  0
  192.0800  174.2430  135.4060 F   0  0  0  0  0  0  0  0  0  0  0  0
  191.2470  174.8250  136.3440 C   0  0  1  0  0  3  0  0  0  0  0  0
  191.4230  174.2050  137.5820 O   0  0  0  0  0  1  0  0  0  0  0  0
  1 13  1  0  0  0  0
  1  5  2  0  0  0  0
  2  8  2  0  0  0  0
  2  6  1  0  0  0  0
  3 12  1  0  0  0  0
  3  8  1  0  0  0  0
  4 15  2  0  0  0  0
  4 18  1  0  0  0  0
  6 11  2  0  0  0  0
  7 18  1  0  0  0  0
  8  1  1  0  0  0  0
  9  7  1  0  0  0  0
 10  4  1  0  0  0  0
 11  5  1  0  0  0  0
 12 19  1  0  0  0  0
 14  2  1  0  0  0  0
 15 16  1  0  0  0  0
 16 22  1  0  0  0  0
 16 12  2  0  0  0  0
 17 27  1  6  0  0  0
 17 10  1  0  0  0  0
 17  9  1  0  0  0  0
 18  3  2  0  0  0  0
 19 13  2  0  0  0  0
 20 21  1  0  0  0  0
 21 23  2  0  0  0  0
 22 25  2  0  0  0  0
 24 20  2  0  0  0  0
 24 22  1  0  0  0  0
 25 23  1  0  0  0  0
 26 20  1  0  0  0  0
 28 30  1  0  0  0  0
 29 27  2  0  0  0  0
 30 29  1  0  0  0  0
 31 30  1  0  0  0  0
 33 32  1  6  0  0  0
 33 31  1  0  0  0  0
 33 34  1  0  0  0  0
M  END
>  <MODEL>
1

>  <REMARK>
 VINA RESULT:     -10.0      0.000      0.000
  Name = 
  4 active torsions:
  status: ('A' for Active; 'I' for Inactive)
    1  A    between atoms: N_3  and  C_29
    2  A    between atoms: C_12  and  C_28
    3  A    between atoms: C_20  and  C_22
    4  A    between atoms: C_22  and  N_33
                            x       y       z     vdW  Elec       q    Type
                         _______ _______ _______ _____ _____    ______ ____

>  <TORSDO>
F 4

$$$$
=
 OpenBabel11052414233D

 34 38  0  0  1  0  0  0  0  0999 V2000
  188.8640  177.0800  146.2550 C   0  0  0  0  0  0  0  0  0  0  0  0
  186.9640  178.5270  146.6920 C   0  0  0  0  0  0  0  0  0  0  0  0
  187.5940  177.8820  144.3290 C   0  0  0  0  0  0  0  0  0  0  0  0
  186.3140  178.3350  142.2930 C   0  0  0  0  0  0  0  0  0  0  0  0
  189.0010  176.8440  147.6230 C   0  0  0  0  0  3  0  0  0  0  0  0
  187.1230  178.2860  148.0600 C   0  0  0  0  0  3  0  0  0  0  0  0
  185.0470  177.8720  144.4050 C   0  0  0  0  0  2  0  0  0  0  0  0
  187.7660  177.8210  145.7480 C   0  0  0  0  0  0  0  0  0  0  0  0
  183.8690  178.6100  143.7810 C   0  0  0  0  0  2  0  0  0  0  0  0
  185.0620  178.7680  141.5850 C   0  0  0  0  0  2  0  0  0  0  0  0
  188.1080  177.4170  148.5230 C   0  0  0  0  0  3  0  0  0  0  0  0
  188.7050  177.5280  143.5100 C   0  0  0  0  0  0  0  0  0  0  0  0
  189.8570  176.6360  145.3930 C   0  0  0  0  0  3  0  0  0  0  0  0
  186.0120  179.9530  146.2860 Cl  0  0  0  0  0  0  0  0  0  0  0  0
  187.4650  178.1690  141.5340 C   0  0  0  0  0  3  0  0  0  0  0  0
  188.6630  177.7410  142.1130 C   0  0  0  0  0  0  0  0  0  0  0  0
  183.8020  178.2770  142.2960 C   0  0  2  0  0  3  0  0  0  0  0  0
  186.3510  178.1500  143.6910 C   0  0  0  0  0  0  0  0  0  0  0  0
  189.7770  176.9030  144.0670 N   0  0  0  0  0  0  0  0  0  0  0  0
  190.7490  177.0000  139.0330 C   0  0  0  0  0  0  0  0  0  0  0  0
  192.0350  177.1570  139.5460 C   0  0  0  0  0  3  0  0  0  0  0  0
  189.8360  177.5180  141.2230 C   0  0  0  0  0  0  0  0  0  0  0  0
  192.2090  177.4900  140.8530 N   0  0  0  0  0  0  0  0  0  0  0  0
  189.6510  177.1850  139.8720 C   0  0  0  0  0  3  0  0  0  0  0  0
  191.1510  177.6740  141.6880 C   0  0  0  0  0  3  0  0  0  0  0  0
  190.5480  176.6420  137.6040 C   0  0  0  0  0  1  0  0  0  0  0  0
  182.6030  178.8430  141.6850 N   0  0  0  0  0  0  0  0  0  0  0  0
  179.8950  178.0000  139.4930 O   0  0  0  0  0  1  0  0  0  0  0  0
  181.8570  178.1770  140.8600 C   0  0  0  0  0  3  0  0  0  0  0  0
  180.6910  178.7640  140.2760 N   0  0  0  0  0  0  0  0  0  0  0  0
  180.2940  180.1370  140.5640 C   0  0  0  0  0  2  0  0  0  0  0  0
  178.9310  178.9320  142.1220 F   0  0  0  0  0  0  0  0  0  0  0  0
  179.3520  180.1990  141.7620 C   0  0  1  0  0  3  0  0  0  0  0  0
  179.9840  180.8130  142.8430 O   0  0  0  0  0  1  0  0  0  0  0  0
  1  5  2  0  0  0  0
  2  6  1  0  0  0  0
  3  8  1  0  0  0  0
  4 18  2  0  0  0  0
  5 11  1  0  0  0  0
  6 11  2  0  0  0  0
  8  1  1  0  0  0  0
  8  2  2  0  0  0  0
  9  7  1  0  0  0  0
 10  4  1  0  0  0  0
 10 17  1  0  0  0  0
 12 19  1  0  0  0  0
 12  3  2  0  0  0  0
 13  1  1  0  0  0  0
 14  2  1  0  0  0  0
 15 16  2  0  0  0  0
 15  4  1  0  0  0  0
 16 12  1  0  0  0  0
 17 27  1  6  0  0  0
 17  9  1  0  0  0  0
 18  3  1  0  0  0  0
 18  7  1  0  0  0  0
 19 13  2  0  0  0  0
 20 21  2  0  0  0  0
 20 24  1  0  0  0  0
 21 23  1  0  0  0  0
 22 25  1  0  0  0  0
 22 16  1  0  0  0  0
 23 25  2  0  0  0  0
 24 22  2  0  0  0  0
 26 20  1  0  0  0  0
 28 30  1  0  0  0  0
 29 27  2  0  0  0  0
 30 31  1  0  0  0  0
 30 29  1  0  0  0  0
 31 33  1  0  0  0  0
 33 32  1  1  0  0  0
 33 34  1  0  0  0  0
M  END
>  <MODEL>
2

>  <REMARK>
 VINA RESULT:      -9.9      4.562      7.764
  Name = 
  4 active torsions:
  status: ('A' for Active; 'I' for Inactive)
    1  A    between atoms: N_3  and  C_29
    2  A    between atoms: C_12  and  C_28
    3  A    between atoms: C_20  and  C_22
    4  A    between atoms: C_22  and  N_33
                            x       y       z     vdW  Elec       q    Type
                         _______ _______ _______ _____ _____    ______ ____

>  <TORSDO>
F 4

$$$$
=
 OpenBabel11052414233D

 34 38  0  0  1  0  0  0  0  0999 V2000
  189.7240  177.4980  146.3940 C   0  0  0  0  0  0  0  0  0  0  0  0
  191.4330  176.0790  145.4160 C   0  0  0  0  0  0  0  0  0  0  0  0
  189.6870  177.1990  143.9710 C   0  0  0  0  0  0  0  0  0  0  0  0
  189.6250  177.2640  141.5250 C   0  0  0  0  0  0  0  0  0  0  0  0
  190.3660  177.4200  147.6310 C   0  0  0  0  0  3  0  0  0  0  0  0
  192.0570  176.0050  146.6650 C   0  0  0  0  0  3  0  0  0  0  0  0
  191.8640  177.3070  142.6520 C   0  0  0  0  0  2  0  0  0  0  0  0
  190.3110  176.9370  145.2310 C   0  0  0  0  0  0  0  0  0  0  0  0
  192.4540  176.7800  141.3500 C   0  0  0  0  0  2  0  0  0  0  0  0
  190.2590  177.0550  140.1790 C   0  0  0  0  0  2  0  0  0  0  0  0
  191.5520  176.7040  147.7590 C   0  0  0  0  0  3  0  0  0  0  0  0
  188.3430  177.6740  143.9810 C   0  0  0  0  0  0  0  0  0  0  0  0
  188.4640  178.0750  146.3250 C   0  0  0  0  0  3  0  0  0  0  0  0
  191.8960  174.8220  144.2710 Cl  0  0  0  0  0  0  0  0  0  0  0  0
  188.2650  177.5400  141.5670 C   0  0  0  0  0  3  0  0  0  0  0  0
  187.6070  177.7750  142.7780 C   0  0  0  0  0  0  0  0  0  0  0  0
  191.7390  177.4350  140.1760 C   0  0  2  0  0  3  0  0  0  0  0  0
  190.3630  177.1350  142.7210 C   0  0  0  0  0  0  0  0  0  0  0  0
  187.7960  178.1110  145.1480 N   0  0  0  0  0  0  0  0  0  0  0  0
  184.0840  178.6290  143.8920 C   0  0  0  0  0  0  0  0  0  0  0  0
  183.4720  178.8640  142.6620 C   0  0  0  0  0  3  0  0  0  0  0  0
  186.1630  178.1350  142.7380 C   0  0  0  0  0  0  0  0  0  0  0  0
  184.1890  178.7420  141.5130 N   0  0  0  0  0  0  0  0  0  0  0  0
  185.4310  178.2690  143.9280 C   0  0  0  0  0  3  0  0  0  0  0  0
  185.5030  178.3910  141.5260 C   0  0  0  0  0  3  0  0  0  0  0  0
  183.3110  178.7650  145.1550 C   0  0  0  0  0  1  0  0  0  0  0  0
  192.3680  177.0720  138.9100 N   0  0  0  0  0  0  0  0  0  0  0  0
  191.6860  175.4360  135.7940 O   0  0  0  0  0  1  0  0  0  0  0  0
  191.7510  176.4000  137.9880 C   0  0  0  0  0  3  0  0  0  0  0  0
  192.4000  176.0580  136.7610 N   0  0  0  0  0  0  0  0  0  0  0  0
  193.7830  176.4320  136.4900 C   0  0  0  0  0  2  0  0  0  0  0  0
  195.8590  175.3800  135.9230 F   0  0  0  0  0  0  0  0  0  0  0  0
  194.7250  175.2520  136.7050 C   0  0  1  0  0  3  0  0  0  0  0  0
  195.0860  175.1600  138.0490 O   0  0  0  0  0  1  0  0  0  0  0  0
  1  5  2  0  0  0  0
  2  6  1  0  0  0  0
  3 12  1  0  0  0  0
  3  8  1  0  0  0  0
  4 15  2  0  0  0  0
  4 18  1  0  0  0  0
  5 11  1  0  0  0  0
  6 11  2  0  0  0  0
  7 18  1  0  0  0  0
  8  2  2  0  0  0  0
  8  1  1  0  0  0  0
  9  7  1  0  0  0  0
 10  4  1  0  0  0  0
 12 19  1  0  0  0  0
 13  1  1  0  0  0  0
 14  2  1  0  0  0  0
 15 16  1  0  0  0  0
 16 12  2  0  0  0  0
 17 27  1  6  0  0  0
 17 10  1  0  0  0  0
 17  9  1  0  0  0  0
 18  3  2  0  0  0  0
 19 13  2  0  0  0  0
 20 24  1  0  0  0  0
 20 26  1  0  0  0  0
 21 20  2  0  0  0  0
 22 16  1  0  0  0  0
 22 24  2  0  0  0  0
 23 25  2  0  0  0  0
 23 21  1  0  0  0  0
 25 22  1  0  0  0  0
 28 30  1  0  0  0  0
 29 27  2  0  0  0  0
 30 29  1  0  0  0  0
 31 33  1  0  0  0  0
 31 30  1  0  0  0  0
 33 32  1  6  0  0  0
 33 34  1  0  0  0  0
M  END
>  <MODEL>
3

>  <REMARK>
 VINA RESULT:      -9.8      1.744      2.051
  Name = 
  4 active torsions:
  status: ('A' for Active; 'I' for Inactive)
    1  A    between atoms: N_3  and  C_29
    2  A    between atoms: C_12  and  C_28
    3  A    between atoms: C_20  and  C_22
    4  A    between atoms: C_22  and  N_33
                            x       y       z     vdW  Elec       q    Type
                         _______ _______ _______ _____ _____    ______ ____

>  <TORSDO>
F 4

$$$$
=
 OpenBabel11052414233D

 34 38  0  0  1  0  0  0  0  0999 V2000
  188.8840  177.0910  146.2970 C   0  0  0  0  0  0  0  0  0  0  0  0
  187.0030  178.5440  146.7900 C   0  0  0  0  0  0  0  0  0  0  0  0
  187.5560  177.8910  144.4110 C   0  0  0  0  0  0  0  0  0  0  0  0
  186.2140  178.3410  142.4140 C   0  0  0  0  0  0  0  0  0  0  0  0
  189.0640  176.8590  147.6620 C   0  0  0  0  0  3  0  0  0  0  0  0
  187.2040  178.3070  148.1540 C   0  0  0  0  0  3  0  0  0  0  0  0
  185.0130  177.8890  144.5670 C   0  0  0  0  0  2  0  0  0  0  0  0
  187.7730  177.8340  145.8240 C   0  0  0  0  0  0  0  0  0  0  0  0
  183.8180  178.6280  143.9780 C   0  0  0  0  0  2  0  0  0  0  0  0
  184.9410  178.7760  141.7460 C   0  0  0  0  0  2  0  0  0  0  0  0
  188.2020  177.4370  148.5880 C   0  0  0  0  0  3  0  0  0  0  0  0
  188.6400  177.5310  143.5580 C   0  0  0  0  0  0  0  0  0  0  0  0
  189.8490  176.6420  145.4060 C   0  0  0  0  0  3  0  0  0  0  0  0
  186.0430  179.9720  146.4100 Cl  0  0  0  0  0  0  0  0  0  0  0  0
  187.3400  178.1700  141.6200 C   0  0  0  0  0  3  0  0  0  0  0  0
  188.5550  177.7410  142.1620 C   0  0  0  0  0  0  0  0  0  0  0  0
  183.7030  178.2900  142.4970 C   0  0  2  0  0  3  0  0  0  0  0  0
  186.2940  178.1600  143.8120 C   0  0  0  0  0  0  0  0  0  0  0  0
  189.7270  176.9050  144.0830 N   0  0  0  0  0  0  0  0  0  0  0  0
  190.5400  176.9560  139.0270 C   0  0  0  0  0  0  0  0  0  0  0  0
  191.8420  177.1390  139.4910 C   0  0  0  0  0  3  0  0  0  0  0  0
  189.6980  177.5120  141.2370 C   0  0  0  0  0  0  0  0  0  0  0  0
  192.0570  177.5030  140.7830 N   0  0  0  0  0  0  0  0  0  0  0  0
  189.4700  177.1470  139.9000 C   0  0  0  0  0  3  0  0  0  0  0  0
  191.0270  177.6930  141.6510 C   0  0  0  0  0  3  0  0  0  0  0  0
  190.2940  176.5640  137.6140 C   0  0  0  0  0  1  0  0  0  0  0  0
  182.4870  178.8580  141.9220 N   0  0  0  0  0  0  0  0  0  0  0  0
  179.8660  178.1210  139.5920 O   0  0  0  0  0  1  0  0  0  0  0  0
  181.7910  178.2480  141.0140 C   0  0  0  0  0  3  0  0  0  0  0  0
  180.6070  178.8360  140.4690 N   0  0  0  0  0  0  0  0  0  0  0  0
  180.1330  180.1480  140.8930 C   0  0  0  0  0  2  0  0  0  0  0  0
  179.3060  182.2460  140.0860 F   0  0  0  0  0  0  0  0  0  0  0  0
  179.9260  181.0720  139.6980 C   0  0  1  0  0  3  0  0  0  0  0  0
  181.1490  181.3610  139.0930 O   0  0  0  0  0  1  0  0  0  0  0  0
  1  5  2  0  0  0  0
  2  6  1  0  0  0  0
  3  8  1  0  0  0  0
  4 18  2  0  0  0  0
  5 11  1  0  0  0  0
  6 11  2  0  0  0  0
  8  1  1  0  0  0  0
  8  2  2  0  0  0  0
  9  7  1  0  0  0  0
 10  4  1  0  0  0  0
 10 17  1  0  0  0  0
 12 19  1  0  0  0  0
 12  3  2  0  0  0  0
 13  1  1  0  0  0  0
 14  2  1  0  0  0  0
 15 16  2  0  0  0  0
 15  4  1  0  0  0  0
 16 12  1  0  0  0  0
 17 27  1  6  0  0  0
 17  9  1  0  0  0  0
 18  3  1  0  0  0  0
 18  7  1  0  0  0  0
 19 13  2  0  0  0  0
 20 21  2  0  0  0  0
 20 24  1  0  0  0  0
 21 23  1  0  0  0  0
 22 25  1  0  0  0  0
 22 16  1  0  0  0  0
 23 25  2  0  0  0  0
 24 22  2  0  0  0  0
 26 20  1  0  0  0  0
 28 30  1  0  0  0  0
 29 27  2  0  0  0  0
 30 31  1  0  0  0  0
 30 29  1  0  0  0  0
 33 34  1  1  0  0  0
 33 32  1  0  0  0  0
 33 31  1  0  0  0  0
M  END
>  <MODEL>
4

>  <REMARK>
 VINA RESULT:      -9.7      4.449      7.671
  Name = 
  4 active torsions:
  status: ('A' for Active; 'I' for Inactive)
    1  A    between atoms: N_3  and  C_29
    2  A    between atoms: C_12  and  C_28
    3  A    between atoms: C_20  and  C_22
    4  A    between atoms: C_22  and  N_33
                            x       y       z     vdW  Elec       q    Type
                         _______ _______ _______ _____ _____    ______ ____

>  <TORSDO>
F 4

$$$$
=
 OpenBabel11052414233D

 34 38  0  0  1  0  0  0  0  0999 V2000
  185.9290  178.5260  146.1380 C   0  0  0  0  0  0  0  0  0  0  0  0
  187.5440  177.2720  144.8300 C   0  0  0  0  0  0  0  0  0  0  0  0
  185.4900  178.2750  143.7490 C   0  0  0  0  0  0  0  0  0  0  0  0
  184.9970  178.3870  141.3550 C   0  0  0  0  0  0  0  0  0  0  0  0
  186.7810  178.4750  147.2420 C   0  0  0  0  0  3  0  0  0  0  0  0
  188.3810  177.2230  145.9490 C   0  0  0  0  0  3  0  0  0  0  0  0
  187.3880  178.5890  142.0780 C   0  0  0  0  0  2  0  0  0  0  0  0
  186.3440  178.0400  144.8720 C   0  0  0  0  0  0  0  0  0  0  0  0
  187.7800  178.1390  140.6760 C   0  0  0  0  0  2  0  0  0  0  0  0
  185.3990  178.2580  139.9130 C   0  0  0  0  0  2  0  0  0  0  0  0
  188.0230  177.8560  147.1380 C   0  0  0  0  0  3  0  0  0  0  0  0
  184.1370  178.6390  144.0080 C   0  0  0  0  0  0  0  0  0  0  0  0
  184.6360  178.9990  146.3080 C   0  0  0  0  0  3  0  0  0  0  0  0
  187.8940  176.0810  143.5790 Cl  0  0  0  0  0  0  0  0  0  0  0  0
  183.6480  178.5500  141.6410 C   0  0  0  0  0  3  0  0  0  0  0  0
  183.1970  178.7050  142.9550 C   0  0  0  0  0  0  0  0  0  0  0  0
  186.8220  178.7570  139.6670 C   0  0  2  0  0  3  0  0  0  0  0  0
  185.9410  178.2930  142.4000 C   0  0  0  0  0  0  0  0  0  0  0  0
  183.7710  179.0050  145.2660 N   0  0  0  0  0  0  0  0  0  0  0  0
  179.6730  180.0490  142.5510 C   0  0  0  0  0  0  0  0  0  0  0  0
  179.0120  179.3530  143.5610 C   0  0  0  0  0  3  0  0  0  0  0  0
  181.7450  178.9460  143.1770 C   0  0  0  0  0  0  0  0  0  0  0  0
  179.6980  178.4790  144.3460 N   0  0  0  0  0  0  0  0  0  0  0  0
  181.0380  179.8410  142.3580 C   0  0  0  0  0  3  0  0  0  0  0  0
  181.0300  178.2630  144.1740 C   0  0  0  0  0  3  0  0  0  0  0  0
  178.9310  181.0020  141.6850 C   0  0  0  0  0  1  0  0  0  0  0  0
  187.2460  178.4740  138.2990 N   0  0  0  0  0  0  0  0  0  0  0  0
  186.0810  177.0230  135.2350 O   0  0  0  0  0  1  0  0  0  0  0  0
  186.4900  177.8550  137.4460 C   0  0  0  0  0  3  0  0  0  0  0  0
  186.9390  177.5900  136.1140 N   0  0  0  0  0  0  0  0  0  0  0  0
  188.2660  177.9860  135.6560 C   0  0  0  0  0  2  0  0  0  0  0  0
  190.0500  176.7750  134.6140 F   0  0  0  0  0  0  0  0  0  0  0  0
  189.2480  176.8230  135.7400 C   0  0  1  0  0  3  0  0  0  0  0  0
  190.0420  176.9420  136.8810 O   0  0  0  0  0  1  0  0  0  0  0  0
  1 13  1  0  0  0  0
  1  5  2  0  0  0  0
  2  8  2  0  0  0  0
  2  6  1  0  0  0  0
  3 12  1  0  0  0  0
  3  8  1  0  0  0  0
  4 15  2  0  0  0  0
  4 18  1  0  0  0  0
  6 11  2  0  0  0  0
  7 18  1  0  0  0  0
  8  1  1  0  0  0  0
  9  7  1  0  0  0  0
 10  4  1  0  0  0  0
 11  5  1  0  0  0  0
 12 19  1  0  0  0  0
 14  2  1  0  0  0  0
 15 16  1  0  0  0  0
 16 22  1  0  0  0  0
 16 12  2  0  0  0  0
 17 27  1  6  0  0  0
 17 10  1  0  0  0  0
 17  9  1  0  0  0  0
 18  3  2  0  0  0  0
 19 13  2  0  0  0  0
 20 21  1  0  0  0  0
 21 23  2  0  0  0  0
 22 25  2  0  0  0  0
 24 20  2  0  0  0  0
 24 22  1  0  0  0  0
 25 23  1  0  0  0  0
 26 20  1  0  0  0  0
 28 30  1  0  0  0  0
 29 27  2  0  0  0  0
 30 29  1  0  0  0  0
 31 33  1  0  0  0  0
 31 30  1  0  0  0  0
 33 32  1  6  0  0  0
 33 34  1  0  0  0  0
M  END
>  <MODEL>
5

>  <REMARK>
 VINA RESULT:      -9.7      2.711      4.179
  Name = 
  4 active torsions:
  status: ('A' for Active; 'I' for Inactive)
    1  A    between atoms: N_3  and  C_29
    2  A    between atoms: C_12  and  C_28
    3  A    between atoms: C_20  and  C_22
    4  A    between atoms: C_22  and  N_33
                            x       y       z     vdW  Elec       q    Type
                         _______ _______ _______ _____ _____    ______ ____

>  <TORSDO>
F 4

$$$$
=
 OpenBabel11052414233D

 34 38  0  0  1  0  0  0  0  0999 V2000
  187.3930  178.6070  147.1600 C   0  0  0  0  0  0  0  0  0  0  0  0
  189.2800  177.2060  146.5540 C   0  0  0  0  0  0  0  0  0  0  0  0
  187.6300  177.9960  144.8080 C   0  0  0  0  0  0  0  0  0  0  0  0
  187.8240  177.7400  142.3820 C   0  0  0  0  0  0  0  0  0  0  0  0
  187.9040  178.7390  148.4530 C   0  0  0  0  0  3  0  0  0  0  0  0
  189.7720  177.3420  147.8560 C   0  0  0  0  0  3  0  0  0  0  0  0
  189.9230  178.0960  143.7030 C   0  0  0  0  0  2  0  0  0  0  0  0
  188.1330  177.9470  146.1460 C   0  0  0  0  0  0  0  0  0  0  0  0
  190.6800  177.4510  142.5480 C   0  0  0  0  0  2  0  0  0  0  0  0
  188.6080  177.4060  141.1450 C   0  0  0  0  0  2  0  0  0  0  0  0
  189.1120  178.1360  148.7900 C   0  0  0  0  0  3  0  0  0  0  0  0
  186.2660  178.3660  144.6240 C   0  0  0  0  0  0  0  0  0  0  0  0
  186.1140  179.0740  146.8920 C   0  0  0  0  0  3  0  0  0  0  0  0
  189.9370  175.8500  145.6410 Cl  0  0  0  0  0  0  0  0  0  0  0  0
  186.4520  177.9160  142.2550 C   0  0  0  0  0  3  0  0  0  0  0  0
  185.6570  178.2550  143.3530 C   0  0  0  0  0  0  0  0  0  0  0  0
  190.0540  177.8930  141.2320 C   0  0  2  0  0  3  0  0  0  0  0  0
  188.4380  177.8220  143.6500 C   0  0  0  0  0  0  0  0  0  0  0  0
  185.5730  178.9080  145.6620 N   0  0  0  0  0  0  0  0  0  0  0  0
  182.3110  178.6610  141.6150 C   0  0  0  0  0  0  0  0  0  0  0  0
  181.4770  178.8940  142.7080 C   0  0  0  0  0  3  0  0  0  0  0  0
  184.2060  178.4970  143.1250 C   0  0  0  0  0  0  0  0  0  0  0  0
  181.9960  178.9200  143.9640 N   0  0  0  0  0  0  0  0  0  0  0  0
  183.6740  178.4590  141.8270 C   0  0  0  0  0  3  0  0  0  0  0  0
  183.3220  178.7260  144.1920 C   0  0  0  0  0  3  0  0  0  0  0  0
  181.7520  178.6260  140.2370 C   0  0  0  0  0  1  0  0  0  0  0  0
  190.8340  177.4180  140.0940 N   0  0  0  0  0  0  0  0  0  0  0  0
  191.0080  174.7360  137.7230 O   0  0  0  0  0  1  0  0  0  0  0  0
  190.5800  176.3000  139.4880 C   0  0  0  0  0  3  0  0  0  0  0  0
  191.3690  175.8630  138.3780 N   0  0  0  0  0  0  0  0  0  0  0  0
  192.5000  176.6400  137.8840 C   0  0  0  0  0  2  0  0  0  0  0  0
  193.0460  176.3010  135.5770 F   0  0  0  0  0  0  0  0  0  0  0  0
  193.3050  175.8500  136.8580 C   0  0  1  0  0  3  0  0  0  0  0  0
  194.6690  175.9550  137.1290 O   0  0  0  0  0  1  0  0  0  0  0  0
  1  5  2  0  0  0  0
  2  6  1  0  0  0  0
  3  8  1  0  0  0  0
  4 18  1  0  0  0  0
  5 11  1  0  0  0  0
  6 11  2  0  0  0  0
  8  2  2  0  0  0  0
  8  1  1  0  0  0  0
  9  7  1  0  0  0  0
 10 17  1  0  0  0  0
 10  4  1  0  0  0  0
 12  3  1  0  0  0  0
 12 19  1  0  0  0  0
 13  1  1  0  0  0  0
 14  2  1  0  0  0  0
 15  4  2  0  0  0  0
 15 16  1  0  0  0  0
 16 12  2  0  0  0  0
 17 27  1  6  0  0  0
 17  9  1  0  0  0  0
 18  7  1  0  0  0  0
 18  3  2  0  0  0  0
 19 13  2  0  0  0  0
 20 24  2  0  0  0  0
 20 21  1  0  0  0  0
 21 23  2  0  0  0  0
 22 16  1  0  0  0  0
 22 25  2  0  0  0  0
 23 25  1  0  0  0  0
 24 22  1  0  0  0  0
 26 20  1  0  0  0  0
 28 30  1  0  0  0  0
 29 27  2  0  0  0  0
 30 29  1  0  0  0  0
 31 30  1  0  0  0  0
 33 32  1  6  0  0  0
 33 34  1  0  0  0  0
 33 31  1  0  0  0  0
M  END
>  <MODEL>
6

>  <REMARK>
 VINA RESULT:      -9.5      1.723      2.484
  Name = 
  4 active torsions:
  status: ('A' for Active; 'I' for Inactive)
    1  A    between atoms: N_3  and  C_29
    2  A    between atoms: C_12  and  C_28
    3  A    between atoms: C_20  and  C_22
    4  A    between atoms: C_22  and  N_33
                            x       y       z     vdW  Elec       q    Type
                         _______ _______ _______ _____ _____    ______ ____

>  <TORSDO>
F 4

$$$$
=
 OpenBabel11052414233D

 34 38  0  0  1  0  0  0  0  0999 V2000
  191.9200  177.1570  140.1600 C   0  0  0  0  0  0  0  0  0  0  0  0
  190.0710  176.6040  138.6880 C   0  0  0  0  0  0  0  0  0  0  0  0
  189.6620  177.3520  141.0690 C   0  0  0  0  0  0  0  0  0  0  0  0
  187.5030  177.8810  142.0920 C   0  0  0  0  0  0  0  0  0  0  0  0
  192.8080  177.0490  139.0880 C   0  0  0  0  0  3  0  0  0  0  0  0
  190.9760  176.4920  137.6280 C   0  0  0  0  0  3  0  0  0  0  0  0
  187.8280  178.4320  139.6680 C   0  0  0  0  0  2  0  0  0  0  0  0
  190.5190  177.0650  139.9600 C   0  0  0  0  0  0  0  0  0  0  0  0
  186.3110  178.3990  139.5270 C   0  0  0  0  0  2  0  0  0  0  0  0
  186.0300  178.1650  142.0030 C   0  0  0  0  0  2  0  0  0  0  0  0
  192.3320  176.7530  137.8150 C   0  0  0  0  0  3  0  0  0  0  0  0
  190.2380  177.3470  142.3720 C   0  0  0  0  0  0  0  0  0  0  0  0
  192.4300  177.2890  141.4440 C   0  0  0  0  0  3  0  0  0  0  0  0
  188.5120  175.8250  138.4300 Cl  0  0  0  0  0  0  0  0  0  0  0  0
  188.0510  177.6810  143.3520 C   0  0  0  0  0  3  0  0  0  0  0  0
  189.4180  177.4390  143.5200 C   0  0  0  0  0  0  0  0  0  0  0  0
  185.6800  179.0030  140.7740 C   0  0  2  0  0  3  0  0  0  0  0  0
  188.3070  177.7650  140.9380 C   0  0  0  0  0  0  0  0  0  0  0  0
  191.5920  177.3380  142.5070 N   0  0  0  0  0  0  0  0  0  0  0  0
  189.6290  177.5030  147.3060 C   0  0  0  0  0  0  0  0  0  0  0  0
  190.9130  176.9970  147.5040 C   0  0  0  0  0  3  0  0  0  0  0  0
  189.9440  177.3040  144.9060 C   0  0  0  0  0  0  0  0  0  0  0  0
  191.6790  176.6530  146.4340 N   0  0  0  0  0  0  0  0  0  0  0  0
  189.1450  177.6510  146.0070 C   0  0  0  0  0  3  0  0  0  0  0  0
  191.2260  176.7910  145.1590 C   0  0  0  0  0  3  0  0  0  0  0  0
  188.7820  177.8770  148.4690 C   0  0  0  0  0  1  0  0  0  0  0  0
  184.2330  179.1280  140.6230 N   0  0  0  0  0  0  0  0  0  0  0  0
  181.3570  177.3250  139.4720 O   0  0  0  0  0  1  0  0  0  0  0  0
  183.5020  178.2000  140.0890 C   0  0  0  0  0  3  0  0  0  0  0  0
  182.0880  178.3580  139.9520 N   0  0  0  0  0  0  0  0  0  0  0  0
  181.4020  179.5680  140.3890 C   0  0  0  0  0  2  0  0  0  0  0  0
  181.6820  179.0430  142.7090 F   0  0  0  0  0  0  0  0  0  0  0  0
  180.7410  179.3680  141.7480 C   0  0  1  0  0  3  0  0  0  0  0  0
  180.0570  180.5230  142.1280 O   0  0  0  0  0  1  0  0  0  0  0  0
  1 13  1  0  0  0  0
  2  8  1  0  0  0  0
  3 12  1  0  0  0  0
  4 15  2  0  0  0  0
  5  1  1  0  0  0  0
  6 11  1  0  0  0  0
  6  2  2  0  0  0  0
  7 18  1  0  0  0  0
  8  1  2  0  0  0  0
  8  3  1  0  0  0  0
  9  7  1  0  0  0  0
  9 17  1  0  0  0  0
 10  4  1  0  0  0  0
 11  5  2  0  0  0  0
 12 19  1  0  0  0  0
 12 16  2  0  0  0  0
 13 19  2  0  0  0  0
 14  2  1  0  0  0  0
 15 16  1  0  0  0  0
 16 22  1  0  0  0  0
 17 27  1  6  0  0  0
 17 10  1  0  0  0  0
 18  3  2  0  0  0  0
 18  4  1  0  0  0  0
 20 21  1  0  0  0  0
 20 26  1  0  0  0  0
 22 25  2  0  0  0  0
 22 24  1  0  0  0  0
 23 21  2  0  0  0  0
 24 20  2  0  0  0  0
 25 23  1  0  0  0  0
 28 30  1  0  0  0  0
 29 27  2  0  0  0  0
 30 29  1  0  0  0  0
 30 31  1  0  0  0  0
 31 33  1  0  0  0  0
 33 34  1  1  0  0  0
 33 32  1  0  0  0  0
M  END
>  <MODEL>
7

>  <REMARK>
 VINA RESULT:      -9.2      4.272      7.503
  Name = 
  4 active torsions:
  status: ('A' for Active; 'I' for Inactive)
    1  A    between atoms: N_3  and  C_29
    2  A    between atoms: C_12  and  C_28
    3  A    between atoms: C_20  and  C_22
    4  A    between atoms: C_22  and  N_33
                            x       y       z     vdW  Elec       q    Type
                         _______ _______ _______ _____ _____    ______ ____

>  <TORSDO>
F 4

$$$$
=
 OpenBabel11052414233D

 34 38  0  0  1  0  0  0  0  0999 V2000
  191.3540  176.1330  145.3090 C   0  0  0  0  0  0  0  0  0  0  0  0
  189.7360  177.5310  146.4580 C   0  0  0  0  0  0  0  0  0  0  0  0
  189.5480  177.0930  143.9740 C   0  0  0  0  0  0  0  0  0  0  0  0
  187.6900  177.7150  142.5090 C   0  0  0  0  0  0  0  0  0  0  0  0
  191.9220  175.7810  146.5350 C   0  0  0  0  0  3  0  0  0  0  0  0
  190.3230  177.1740  147.6760 C   0  0  0  0  0  3  0  0  0  0  0  0
  187.1650  177.0700  144.8740 C   0  0  0  0  0  2  0  0  0  0  0  0
  190.1700  176.9110  145.2500 C   0  0  0  0  0  0  0  0  0  0  0  0
  185.8670  177.8550  144.7290 C   0  0  0  0  0  2  0  0  0  0  0  0
  186.2870  178.2040  142.2860 C   0  0  0  0  0  2  0  0  0  0  0  0
  191.3840  176.2720  147.7200 C   0  0  0  0  0  3  0  0  0  0  0  0
  190.3240  176.8140  142.8120 C   0  0  0  0  0  0  0  0  0  0  0  0
  192.0020  175.7670  144.1380 C   0  0  0  0  0  3  0  0  0  0  0  0
  188.7400  178.9840  146.5020 Cl  0  0  0  0  0  0  0  0  0  0  0  0
  188.5280  177.6180  141.4060 C   0  0  0  0  0  3  0  0  0  0  0  0
  189.8370  177.1460  141.5270 C   0  0  0  0  0  0  0  0  0  0  0  0
  185.3130  177.6500  143.3250 C   0  0  2  0  0  3  0  0  0  0  0  0
  188.1730  177.4110  143.8000 C   0  0  0  0  0  0  0  0  0  0  0  0
  191.5030  176.1460  142.9370 N   0  0  0  0  0  0  0  0  0  0  0  0
  190.8010  176.5550  137.9070 C   0  0  0  0  0  0  0  0  0  0  0  0
  192.1740  176.7930  137.9610 C   0  0  0  0  0  3  0  0  0  0  0  0
  190.6520  177.0040  140.2890 C   0  0  0  0  0  0  0  0  0  0  0  0
  192.7580  177.1310  139.1410 N   0  0  0  0  0  0  0  0  0  0  0  0
  190.0420  176.6650  139.0710 C   0  0  0  0  0  3  0  0  0  0  0  0
  192.0350  177.2430  140.2880 C   0  0  0  0  0  3  0  0  0  0  0  0
  190.1520  176.1900  136.6200 C   0  0  0  0  0  1  0  0  0  0  0  0
  183.9960  178.2630  143.1860 N   0  0  0  0  0  0  0  0  0  0  0  0
  181.4940  179.0320  140.7360 O   0  0  0  0  0  1  0  0  0  0  0  0
  183.4010  178.3920  142.0400 C   0  0  0  0  0  3  0  0  0  0  0  0
  182.1120  179.0020  141.9400 N   0  0  0  0  0  0  0  0  0  0  0  0
  181.4110  179.5200  143.1090 C   0  0  0  0  0  2  0  0  0  0  0  0
  179.7150  179.0040  144.7190 F   0  0  0  0  0  0  0  0  0  0  0  0
  180.5060  178.4590  143.7250 C   0  0  1  0  0  3  0  0  0  0  0  0
  179.7010  177.8810  142.7430 O   0  0  0  0  0  1  0  0  0  0  0  0
  1  5  2  0  0  0  0
  2 14  1  0  0  0  0
  2  6  1  0  0  0  0
  3  8  1  0  0  0  0
  4 18  2  0  0  0  0
  5 11  1  0  0  0  0
  6 11  2  0  0  0  0
  8  1  1  0  0  0  0
  8  2  2  0  0  0  0
  9  7  1  0  0  0  0
 10  4  1  0  0  0  0
 10 17  1  0  0  0  0
 12 19  1  0  0  0  0
 12  3  2  0  0  0  0
 13  1  1  0  0  0  0
 15 16  2  0  0  0  0
 15  4  1  0  0  0  0
 16 12  1  0  0  0  0
 17 27  1  1  0  0  0
 17  9  1  0  0  0  0
 18  3  1  0  0  0  0
 18  7  1  0  0  0  0
 19 13  2  0  0  0  0
 20 21  2  0  0  0  0
 20 24  1  0  0  0  0
 21 23  1  0  0  0  0
 22 16  1  0  0  0  0
 23 25  2  0  0  0  0
 24 22  2  0  0  0  0
 25 22  1  0  0  0  0
 26 20  1  0  0  0  0
 28 30  1  0  0  0  0
 29 27  2  0  0  0  0
 30 29  1  0  0  0  0
 30 31  1  0  0  0  0
 31 33  1  0  0  0  0
 33 34  1  6  0  0  0
 33 32  1  0  0  0  0
M  END
>  <MODEL>
8

>  <REMARK>
 VINA RESULT:      -9.1      4.234      7.597
  Name = 
  4 active torsions:
  status: ('A' for Active; 'I' for Inactive)
    1  A    between atoms: N_3  and  C_29
    2  A    between atoms: C_12  and  C_28
    3  A    between atoms: C_20  and  C_22
    4  A    between atoms: C_22  and  N_33
                            x       y       z     vdW  Elec       q    Type
                         _______ _______ _______ _____ _____    ______ ____

>  <TORSDO>
F 4

$$$$
=
 OpenBabel11052414233D

 34 38  0  0  1  0  0  0  0  0999 V2000
  191.4490  177.4860  141.0810 C   0  0  0  0  0  0  0  0  0  0  0  0
  189.9520  176.8570  139.2770 C   0  0  0  0  0  0  0  0  0  0  0  0
  189.0500  177.5830  141.5250 C   0  0  0  0  0  0  0  0  0  0  0  0
  186.7110  178.0160  142.0980 C   0  0  0  0  0  0  0  0  0  0  0  0
  192.5350  177.4190  140.2060 C   0  0  0  0  0  3  0  0  0  0  0  0
  191.0530  176.7850  138.4170 C   0  0  0  0  0  3  0  0  0  0  0  0
  187.4840  178.5840  139.7830 C   0  0  0  0  0  2  0  0  0  0  0  0
  190.1200  177.3340  140.6090 C   0  0  0  0  0  0  0  0  0  0  0  0
  186.0280  178.4860  139.3450 C   0  0  0  0  0  2  0  0  0  0  0  0
  185.2740  178.2360  141.7190 C   0  0  0  0  0  2  0  0  0  0  0  0
  192.3320  177.1040  138.8660 C   0  0  0  0  0  3  0  0  0  0  0  0
  189.3570  177.6000  142.9160 C   0  0  0  0  0  0  0  0  0  0  0  0
  191.6890  177.6380  142.4390 C   0  0  0  0  0  3  0  0  0  0  0  0
  188.5100  176.0110  138.7210 Cl  0  0  0  0  0  0  0  0  0  0  0  0
  187.0080  177.8380  143.4430 C   0  0  0  0  0  3  0  0  0  0  0  0
  188.3230  177.6550  143.8790 C   0  0  0  0  0  0  0  0  0  0  0  0
  185.1380  179.0610  140.4390 C   0  0  2  0  0  3  0  0  0  0  0  0
  187.7310  177.9370  141.1260 C   0  0  0  0  0  0  0  0  0  0  0  0
  190.6570  177.6490  143.3150 N   0  0  0  0  0  0  0  0  0  0  0  0
  190.0650  177.0460  147.1920 C   0  0  0  0  0  0  0  0  0  0  0  0
  189.0490  177.3820  148.0860 C   0  0  0  0  0  3  0  0  0  0  0  0
  188.5710  177.5410  145.3420 C   0  0  0  0  0  0  0  0  0  0  0  0
  187.8400  177.7890  147.6170 N   0  0  0  0  0  0  0  0  0  0  0  0
  189.8250  177.1300  145.8220 C   0  0  0  0  0  3  0  0  0  0  0  0
  187.5850  177.8770  146.2840 C   0  0  0  0  0  3  0  0  0  0  0  0
  191.3930  176.6050  147.6950 C   0  0  0  0  0  1  0  0  0  0  0  0
  183.7460  179.1240  140.0050 N   0  0  0  0  0  0  0  0  0  0  0  0
  180.4300  178.2460  141.0450 O   0  0  0  0  0  1  0  0  0  0  0  0
  182.7720  178.6240  140.7000 C   0  0  0  0  0  3  0  0  0  0  0  0
  181.4190  178.7000  140.2420 N   0  0  0  0  0  0  0  0  0  0  0  0
  181.0700  179.3240  138.9710 C   0  0  0  0  0  2  0  0  0  0  0  0
  180.4300  181.0640  140.4880 F   0  0  0  0  0  0  0  0  0  0  0  0
  180.7050  180.7930  139.1600 C   0  0  1  0  0  3  0  0  0  0  0  0
  181.7440  181.6110  138.7160 O   0  0  0  0  0  1  0  0  0  0  0  0
  1 13  1  0  0  0  0
  2  8  1  0  0  0  0
  3 12  1  0  0  0  0
  4 15  2  0  0  0  0
  5  1  1  0  0  0  0
  6 11  1  0  0  0  0
  6  2  2  0  0  0  0
  7 18  1  0  0  0  0
  8  1  2  0  0  0  0
  8  3  1  0  0  0  0
  9  7  1  0  0  0  0
  9 17  1  0  0  0  0
 10  4  1  0  0  0  0
 11  5  2  0  0  0  0
 12 19  1  0  0  0  0
 12 16  2  0  0  0  0
 13 19  2  0  0  0  0
 14  2  1  0  0  0  0
 15 16  1  0  0  0  0
 16 22  1  0  0  0  0
 17 27  1  6  0  0  0
 17 10  1  0  0  0  0
 18  3  2  0  0  0  0
 18  4  1  0  0  0  0
 20 26  1  0  0  0  0
 20 21  1  0  0  0  0
 22 24  1  0  0  0  0
 22 25  2  0  0  0  0
 23 21  2  0  0  0  0
 24 20  2  0  0  0  0
 25 23  1  0  0  0  0
 27 29  2  0  0  0  0
 30 29  1  0  0  0  0
 30 28  1  0  0  0  0
 31 33  1  0  0  0  0
 31 30  1  0  0  0  0
 33 34  1  1  0  0  0
 33 32  1  0  0  0  0
M  END
>  <MODEL>
9

>  <REMARK>
 VINA RESULT:      -8.7      4.345      7.259
  Name = 
  4 active torsions:
  status: ('A' for Active; 'I' for Inactive)
    1  A    between atoms: N_3  and  C_29
    2  A    between atoms: C_12  and  C_28
    3  A    between atoms: C_20  and  C_22
    4  A    between atoms: C_22  and  N_33
                            x       y       z     vdW  Elec       q    Type
                         _______ _______ _______ _____ _____    ______ ____

>  <TORSDO>
F 4

$$$$
