=
 OpenBabel11052412203D

 30 31  0  0  1  0  0  0  0  0999 V2000
  182.3500  177.4640  139.8950 O   0  0  0  0  0  0  0  0  0  0  0  0
  180.9370  175.4500  139.5830 C   0  0  2  0  0  3  0  0  0  0  0  0
  183.8740  178.2540  137.4060 C   0  0  0  0  0  2  0  0  0  0  0  0
  183.2430  177.4690  140.9700 C   0  0  0  0  0  2  0  0  0  0  0  0
  185.5580  178.3780  139.3170 C   0  0  0  0  0  2  0  0  0  0  0  0
  187.3920  176.7960  137.7800 N   0  0  0  0  0  2  0  0  0  0  0  0
  184.5510  179.3720  139.9020 C   0  0  0  0  0  2  0  0  0  0  0  0
  183.8560  178.8510  141.1630 C   0  0  2  0  0  3  0  0  0  0  0  0
  185.1760  177.9060  137.9800 N   0  0  0  0  0  0  0  0  0  0  0  0
  180.3290  175.1290  138.2210 C   0  0  0  0  0  2  0  0  0  0  0  0
  179.7460  176.3780  140.6020 S   0  0  0  0  0  1  0  0  0  0  0  0
  183.5550  174.1490  136.3600 C   0  0  0  0  0  1  0  0  0  0  0  0
  181.2480  174.2510  137.3600 C   0  0  0  0  0  2  0  0  0  0  0  0
  182.3260  176.1270  139.4810 C   0  0  1  0  0  3  0  0  0  0  0  0
  183.0230  177.0170  137.0890 C   0  0  1  0  0  3  0  0  0  0  0  0
  185.8870  176.8800  136.0000 O   0  0  0  0  0  0  0  0  0  0  0  0
  182.7450  174.4940  137.5970 C   0  0  2  0  0  3  0  0  0  0  0  0
  183.0710  175.8890  138.1500 C   0  0  2  0  0  3  0  0  0  0  0  0
  186.1410  177.1820  137.1980 C   0  0  0  0  0  0  0  0  0  0  0  0
  188.4190  176.0800  137.0370 C   0  0  0  0  0  2  0  0  0  0  0  0
  189.5030  177.0420  136.5890 C   0  0  0  0  0  1  0  0  0  0  0  0
  184.8140  178.8190  142.3430 C   0  0  0  0  0  2  0  0  0  0  0  0
  183.6820  179.3620  144.1560 C   0  0  0  0  0  1  0  0  0  0  0  0
  184.1840  178.2650  143.4560 O   0  0  0  0  0  0  0  0  0  0  0  0
  181.6340  177.3540  136.5290 C   0  0  1  0  0  3  0  0  0  0  0  0
  179.8290  178.7370  137.6120 C   0  0  0  0  0  1  0  0  0  0  0  0
  181.1550  178.7720  136.8770 C   0  0  2  0  0  3  0  0  0  0  0  0
  181.0400  179.5680  135.7350 O   0  0  0  0  0  1  0  0  0  0  0  0
  181.5770  177.0550  135.0370 C   0  0  0  0  0  2  0  0  0  0  0  0
  179.9490  176.3810  134.5980 S   0  0  0  0  0  1  0  0  0  0  0  0
  1  4  1  0  0  0  0
  2 11  1  6  0  0  0
  3  9  1  0  0  0  0
  4  8  1  0  0  0  0
  5  7  1  0  0  0  0
  7  8  1  0  0  0  0
  8 22  1  1  0  0  0
  9  5  1  0  0  0  0
 10  2  1  0  0  0  0
 13 17  1  0  0  0  0
 13 10  1  0  0  0  0
 14  2  1  0  0  0  0
 14  1  1  6  0  0  0
 15 25  1  1  0  0  0
 15  3  1  0  0  0  0
 15 18  1  0  0  0  0
 16 19  2  0  0  0  0
 17 12  1  6  0  0  0
 17 18  1  0  0  0  0
 18 14  1  0  0  0  0
 19  6  1  0  0  0  0
 19  9  1  0  0  0  0
 20  6  1  0  0  0  0
 21 20  1  0  0  0  0
 22 24  1  0  0  0  0
 24 23  1  0  0  0  0
 25 27  1  0  0  0  0
 27 26  1  0  0  0  0
 28 27  1  0  0  0  0
 29 25  1  0  0  0  0
 30 29  1  0  0  0  0
M  END
>  <MODEL>
1

>  <REMARK>
 VINA RESULT:      -4.2      0.000      0.000
  Name = 
  6 active torsions:
  status: ('A' for Active; 'I' for Inactive)
    1  A    between atoms: N_7  and  C_16
    2  A    between atoms: C_9  and  C_12
    3  A    between atoms: C_9  and  O_21
    4  A    between atoms: C_10  and  C_25
    5  A    between atoms: C_11  and  C_25
    6  A    between atoms: C_23  and  C_25
                            x       y       z     vdW  Elec       q    Type
                         _______ _______ _______ _____ _____    ______ ____

>  <TORSDO>
F 6

$$$$
=
 OpenBabel11052412203D

 30 31  0  0  1  0  0  0  0  0999 V2000
  182.4200  178.5560  141.0270 O   0  0  0  0  0  0  0  0  0  0  0  0
  180.2350  177.4080  140.7850 C   0  0  2  0  0  3  0  0  0  0  0  0
  183.6900  179.2820  138.3810 C   0  0  0  0  0  2  0  0  0  0  0  0
  183.3920  177.9400  141.8200 C   0  0  0  0  0  2  0  0  0  0  0  0
  185.5530  178.2500  139.7830 C   0  0  0  0  0  2  0  0  0  0  0  0
  186.2150  176.5170  137.5950 N   0  0  0  0  0  2  0  0  0  0  0  0
  185.2020  179.3770  140.7570 C   0  0  0  0  0  2  0  0  0  0  0  0
  184.5730  178.8720  142.0590 C   0  0  2  0  0  3  0  0  0  0  0  0
  184.7830  178.3180  138.5350 N   0  0  0  0  0  0  0  0  0  0  0  0
  179.3270  177.7060  139.5960 C   0  0  0  0  0  2  0  0  0  0  0  0
  179.7660  178.4410  142.2100 S   0  0  0  0  0  1  0  0  0  0  0  0
  181.4260  176.0390  136.8300 C   0  0  0  0  0  1  0  0  0  0  0  0
  179.6060  176.7840  138.4000 C   0  0  0  0  0  2  0  0  0  0  0  0
  181.7410  177.4870  140.4320 C   0  0  1  0  0  3  0  0  0  0  0  0
  182.3420  178.6020  138.1080 C   0  0  1  0  0  3  0  0  0  0  0  0
  184.6230  177.6300  136.3040 O   0  0  0  0  0  0  0  0  0  0  0  0
  181.0730  176.3520  138.2730 C   0  0  2  0  0  3  0  0  0  0  0  0
  182.0680  177.3190  138.9320 C   0  0  2  0  0  3  0  0  0  0  0  0
  185.1830  177.4960  137.4270 C   0  0  0  0  0  0  0  0  0  0  0  0
  186.6800  175.6670  136.5090 C   0  0  0  0  0  2  0  0  0  0  0  0
  186.2220  174.2390  136.7330 C   0  0  0  0  0  1  0  0  0  0  0  0
  185.6040  178.1720  142.9280 C   0  0  0  0  0  2  0  0  0  0  0  0
  186.4110  177.8910  144.9610 C   0  0  0  0  0  1  0  0  0  0  0  0
  185.2780  178.3270  144.2750 O   0  0  0  0  0  0  0  0  0  0  0  0
  181.1700  179.5870  137.9890 C   0  0  1  0  0  3  0  0  0  0  0  0
  180.2340  181.1690  139.7100 C   0  0  0  0  0  1  0  0  0  0  0  0
  181.3850  180.8980  138.7600 C   0  0  2  0  0  3  0  0  0  0  0  0
  181.5440  181.9810  137.8930 O   0  0  0  0  0  1  0  0  0  0  0  0
  180.8100  179.8070  136.5260 C   0  0  0  0  0  2  0  0  0  0  0  0
  179.0070  179.8830  136.3330 S   0  0  0  0  0  1  0  0  0  0  0  0
  1  4  1  0  0  0  0
  2 11  1  1  0  0  0
  3  9  1  0  0  0  0
  4  8  1  0  0  0  0
  5  7  1  0  0  0  0
  7  8  1  0  0  0  0
  8 22  1  6  0  0  0
  9  5  1  0  0  0  0
 10  2  1  0  0  0  0
 13 10  1  0  0  0  0
 14  2  1  0  0  0  0
 14  1  1  6  0  0  0
 15 25  1  1  0  0  0
 15  3  1  0  0  0  0
 15 18  1  0  0  0  0
 16 19  2  0  0  0  0
 17 12  1  6  0  0  0
 17 13  1  0  0  0  0
 17 18  1  0  0  0  0
 18 14  1  0  0  0  0
 19  6  1  0  0  0  0
 19  9  1  0  0  0  0
 20 21  1  0  0  0  0
 20  6  1  0  0  0  0
 22 24  1  0  0  0  0
 24 23  1  0  0  0  0
 25 27  1  0  0  0  0
 27 26  1  0  0  0  0
 28 27  1  0  0  0  0
 29 25  1  0  0  0  0
 30 29  1  0  0  0  0
M  END
>  <MODEL>
2

>  <REMARK>
 VINA RESULT:      -4.1      1.978      2.385
  Name = 
  6 active torsions:
  status: ('A' for Active; 'I' for Inactive)
    1  A    between atoms: N_7  and  C_16
    2  A    between atoms: C_9  and  C_12
    3  A    between atoms: C_9  and  O_21
    4  A    between atoms: C_10  and  C_25
    5  A    between atoms: C_11  and  C_25
    6  A    between atoms: C_23  and  C_25
                            x       y       z     vdW  Elec       q    Type
                         _______ _______ _______ _____ _____    ______ ____

>  <TORSDO>
F 6

$$$$
=
 OpenBabel11052412203D

 30 31  0  0  1  0  0  0  0  0999 V2000
  182.4940  178.9060  140.7430 O   0  0  0  0  0  0  0  0  0  0  0  0
  180.4210  178.0700  141.8180 C   0  0  2  0  0  3  0  0  0  0  0  0
  182.6120  178.3480  137.7740 C   0  0  0  0  0  2  0  0  0  0  0  0
  183.7150  178.5240  141.3060 C   0  0  0  0  0  2  0  0  0  0  0  0
  184.9030  177.7040  138.6910 C   0  0  0  0  0  2  0  0  0  0  0  0
  184.7100  175.1760  137.3490 N   0  0  0  0  0  2  0  0  0  0  0  0
  184.9260  179.1610  139.1610 C   0  0  0  0  0  2  0  0  0  0  0  0
  184.8680  179.3020  140.6850 C   0  0  2  0  0  3  0  0  0  0  0  0
  183.7060  177.3820  137.9050 N   0  0  0  0  0  0  0  0  0  0  0  0
  179.1130  177.9970  141.0350 C   0  0  0  0  0  2  0  0  0  0  0  0
  180.5140  179.6340  142.7460 S   0  0  0  0  0  1  0  0  0  0  0  0
  180.0170  175.1030  138.6600 C   0  0  0  0  0  1  0  0  0  0  0  0
  178.9310  176.6500  140.3210 C   0  0  0  0  0  2  0  0  0  0  0  0
  181.6670  177.7940  140.9410 C   0  0  1  0  0  3  0  0  0  0  0  0
  181.2840  177.8090  138.3220 C   0  0  1  0  0  3  0  0  0  0  0  0
  182.7090  175.8990  136.3920 O   0  0  0  0  0  0  0  0  0  0  0  0
  180.2440  176.0050  139.8600 C   0  0  2  0  0  3  0  0  0  0  0  0
  181.3890  177.0050  139.6430 C   0  0  2  0  0  3  0  0  0  0  0  0
  183.6660  176.1420  137.1780 C   0  0  0  0  0  0  0  0  0  0  0  0
  184.7390  173.9120  136.6290 C   0  0  0  0  0  2  0  0  0  0  0  0
  184.8680  172.7590  137.6070 C   0  0  0  0  0  1  0  0  0  0  0  0
  186.1760  178.8650  141.3240 C   0  0  0  0  0  2  0  0  0  0  0  0
  187.1110  177.6340  142.8960 C   0  0  0  0  0  1  0  0  0  0  0  0
  185.9320  178.3070  142.5780 O   0  0  0  0  0  0  0  0  0  0  0  0
  180.1300  178.8190  138.2410 C   0  0  1  0  0  3  0  0  0  0  0  0
  180.3680  181.1180  139.2410 C   0  0  0  0  0  1  0  0  0  0  0  0
  180.5920  180.2660  138.0070 C   0  0  2  0  0  3  0  0  0  0  0  0
  179.9400  180.8400  136.9130 O   0  0  0  0  0  1  0  0  0  0  0  0
  179.0900  178.3540  137.2310 C   0  0  0  0  0  2  0  0  0  0  0  0
  179.9080  177.6190  135.7870 S   0  0  0  0  0  1  0  0  0  0  0  0
  1  4  1  0  0  0  0
  2 11  1  6  0  0  0
  3  9  1  0  0  0  0
  3 15  1  0  0  0  0
  5  7  1  0  0  0  0
  7  8  1  0  0  0  0
  8  4  1  0  0  0  0
  8 22  1  1  0  0  0
  9  5  1  0  0  0  0
 10  2  1  0  0  0  0
 13 10  1  0  0  0  0
 14  1  1  6  0  0  0
 14  2  1  0  0  0  0
 15 25  1  1  0  0  0
 15 18  1  0  0  0  0
 16 19  2  0  0  0  0
 17 12  1  6  0  0  0
 17 13  1  0  0  0  0
 18 17  1  0  0  0  0
 18 14  1  0  0  0  0
 19  6  1  0  0  0  0
 19  9  1  0  0  0  0
 20  6  1  0  0  0  0
 20 21  1  0  0  0  0
 22 24  1  0  0  0  0
 24 23  1  0  0  0  0
 27 25  1  0  0  0  0
 27 26  1  0  0  0  0
 28 27  1  0  0  0  0
 29 25  1  0  0  0  0
 30 29  1  0  0  0  0
M  END
>  <MODEL>
3

>  <REMARK>
 VINA RESULT:      -4.1      2.226      3.038
  Name = 
  6 active torsions:
  status: ('A' for Active; 'I' for Inactive)
    1  A    between atoms: N_7  and  C_16
    2  A    between atoms: C_9  and  C_12
    3  A    between atoms: C_9  and  O_21
    4  A    between atoms: C_10  and  C_25
    5  A    between atoms: C_11  and  C_25
    6  A    between atoms: C_23  and  C_25
                            x       y       z     vdW  Elec       q    Type
                         _______ _______ _______ _____ _____    ______ ____

>  <TORSDO>
F 6

$$$$
=
 OpenBabel11052412203D

 30 31  0  0  1  0  0  0  0  0999 V2000
  182.3700  177.7840  139.3950 O   0  0  0  0  0  0  0  0  0  0  0  0
  180.4090  176.3050  139.7350 C   0  0  2  0  0  3  0  0  0  0  0  0
  183.6160  177.5060  136.6540 C   0  0  0  0  0  2  0  0  0  0  0  0
  183.3950  177.7310  140.3450 C   0  0  0  0  0  2  0  0  0  0  0  0
  185.5610  177.4870  138.3040 C   0  0  0  0  0  2  0  0  0  0  0  0
  186.5810  175.1190  137.0460 N   0  0  0  0  0  2  0  0  0  0  0  0
  184.9950  178.8490  138.7130 C   0  0  0  0  0  2  0  0  0  0  0  0
  184.4010  178.8530  140.1250 C   0  0  2  0  0  3  0  0  0  0  0  0
  184.8420  176.8910  137.1710 N   0  0  0  0  0  0  0  0  0  0  0  0
  179.5150  175.9160  138.5620 C   0  0  0  0  0  2  0  0  0  0  0  0
  179.7220  177.7560  140.5960 S   0  0  0  0  0  1  0  0  0  0  0  0
  181.9650  173.5920  136.7090 C   0  0  0  0  0  1  0  0  0  0  0  0
  179.9860  174.6310  137.8660 C   0  0  0  0  0  2  0  0  0  0  0  0
  181.8960  176.4680  139.3350 C   0  0  1  0  0  3  0  0  0  0  0  0
  182.4070  176.5670  136.7400 C   0  0  1  0  0  3  0  0  0  0  0  0
  184.8860  175.3010  135.4540 O   0  0  0  0  0  0  0  0  0  0  0  0
  181.5070  174.4300  137.8910 C   0  0  2  0  0  3  0  0  0  0  0  0
  182.3070  175.7320  138.0420 C   0  0  2  0  0  3  0  0  0  0  0  0
  185.4140  175.7510  136.5080 C   0  0  0  0  0  0  0  0  0  0  0  0
  187.2200  173.9740  136.4140 C   0  0  0  0  0  2  0  0  0  0  0  0
  186.8030  172.6940  137.1120 C   0  0  0  0  0  1  0  0  0  0  0  0
  185.4940  178.7670  141.1780 C   0  0  0  0  0  2  0  0  0  0  0  0
  185.0250  179.1230  143.3030 C   0  0  0  0  0  1  0  0  0  0  0  0
  185.3350  179.7860  142.1160 O   0  0  0  0  0  0  0  0  0  0  0  0
  181.0980  177.2030  136.2490 C   0  0  1  0  0  3  0  0  0  0  0  0
  179.9200  179.2580  137.1020 C   0  0  0  0  0  1  0  0  0  0  0  0
  181.1000  178.7380  136.3040 C   0  0  2  0  0  3  0  0  0  0  0  0
  181.0840  179.2960  135.0230 O   0  0  0  0  0  1  0  0  0  0  0  0
  180.7260  176.6550  134.8770 C   0  0  0  0  0  2  0  0  0  0  0  0
  178.9310  176.4110  134.7700 S   0  0  0  0  0  1  0  0  0  0  0  0
  1  4  1  0  0  0  0
  2 11  1  6  0  0  0
  3 15  1  0  0  0  0
  3  9  1  0  0  0  0
  5  7  1  0  0  0  0
  7  8  1  0  0  0  0
  8  4  1  0  0  0  0
  8 22  1  1  0  0  0
  9  5  1  0  0  0  0
 10  2  1  0  0  0  0
 13 17  1  0  0  0  0
 13 10  1  0  0  0  0
 14  1  1  6  0  0  0
 14  2  1  0  0  0  0
 15 25  1  1  0  0  0
 15 18  1  0  0  0  0
 16 19  2  0  0  0  0
 17 12  1  6  0  0  0
 17 18  1  0  0  0  0
 18 14  1  0  0  0  0
 19  6  1  0  0  0  0
 19  9  1  0  0  0  0
 20  6  1  0  0  0  0
 20 21  1  0  0  0  0
 22 24  1  0  0  0  0
 24 23  1  0  0  0  0
 25 27  1  0  0  0  0
 27 26  1  0  0  0  0
 28 27  1  0  0  0  0
 29 25  1  0  0  0  0
 30 29  1  0  0  0  0
M  END
>  <MODEL>
4

>  <REMARK>
 VINA RESULT:      -3.8      1.411      1.620
  Name = 
  6 active torsions:
  status: ('A' for Active; 'I' for Inactive)
    1  A    between atoms: N_7  and  C_16
    2  A    between atoms: C_9  and  C_12
    3  A    between atoms: C_9  and  O_21
    4  A    between atoms: C_10  and  C_25
    5  A    between atoms: C_11  and  C_25
    6  A    between atoms: C_23  and  C_25
                            x       y       z     vdW  Elec       q    Type
                         _______ _______ _______ _____ _____    ______ ____

>  <TORSDO>
F 6

$$$$
=
 OpenBabel11052412203D

 30 31  0  0  1  0  0  0  0  0999 V2000
  183.6050  177.2100  138.6050 O   0  0  0  0  0  0  0  0  0  0  0  0
  184.1880  177.0420  136.2010 C   0  0  2  0  0  3  0  0  0  0  0  0
  180.6440  177.5700  139.0970 C   0  0  0  0  0  2  0  0  0  0  0  0
  184.2900  178.1550  139.3740 C   0  0  0  0  0  2  0  0  0  0  0  0
  181.8060  179.2700  140.6010 C   0  0  0  0  0  2  0  0  0  0  0  0
  180.0740  181.3210  139.5920 N   0  0  0  0  0  2  0  0  0  0  0  0
  182.4950  178.0270  141.1720 C   0  0  0  0  0  2  0  0  0  0  0  0
  183.9930  177.9720  140.8570 C   0  0  2  0  0  3  0  0  0  0  0  0
  180.7970  178.9420  139.5870 N   0  0  0  0  0  0  0  0  0  0  0  0
  183.2020  176.4430  135.2010 C   0  0  0  0  0  2  0  0  0  0  0  0
  185.3510  175.7660  136.7810 S   0  0  0  0  0  1  0  0  0  0  0  0
  180.5830  179.2660  135.2020 C   0  0  0  0  0  1  0  0  0  0  0  0
  182.2680  177.4980  134.5940 C   0  0  0  0  0  2  0  0  0  0  0  0
  183.4910  177.8150  137.3480 C   0  0  1  0  0  3  0  0  0  0  0  0
  180.8800  177.4560  137.5850 C   0  0  1  0  0  3  0  0  0  0  0  0
  178.9310  179.6850  138.3840 O   0  0  0  0  0  0  0  0  0  0  0  0
  181.9300  178.6540  135.5450 C   0  0  2  0  0  3  0  0  0  0  0  0
  182.0590  178.2970  137.0330 C   0  0  2  0  0  3  0  0  0  0  0  0
  179.8890  179.9700  139.1540 C   0  0  0  0  0  0  0  0  0  0  0  0
  179.1800  182.4030  139.2070 C   0  0  0  0  0  2  0  0  0  0  0  0
  179.7730  183.1810  138.0480 C   0  0  0  0  0  1  0  0  0  0  0  0
  184.7580  179.0110  141.6590 C   0  0  0  0  0  2  0  0  0  0  0  0
  186.9360  178.6610  141.6800 C   0  0  0  0  0  1  0  0  0  0  0  0
  185.9370  179.3530  140.9970 O   0  0  0  0  0  0  0  0  0  0  0  0
  180.7720  176.0200  137.0530 C   0  0  1  0  0  3  0  0  0  0  0  0
  182.1590  173.9920  137.6060 C   0  0  0  0  0  1  0  0  0  0  0  0
  181.0900  174.9460  138.1040 C   0  0  2  0  0  3  0  0  0  0  0  0
  179.9480  174.2270  138.4640 O   0  0  0  0  0  1  0  0  0  0  0  0
  179.4260  175.8070  136.3710 C   0  0  0  0  0  2  0  0  0  0  0  0
  179.6310  174.7660  134.9000 S   0  0  0  0  0  1  0  0  0  0  0  0
  1  4  1  0  0  0  0
  2 11  1  1  0  0  0
  2 14  1  0  0  0  0
  3  9  1  0  0  0  0
  4  8  1  0  0  0  0
  5  7  1  0  0  0  0
  8  7  1  0  0  0  0
  8 22  1  1  0  0  0
  9  5  1  0  0  0  0
 10  2  1  0  0  0  0
 13 10  1  0  0  0  0
 13 17  1  0  0  0  0
 14  1  1  1  0  0  0
 15 25  1  1  0  0  0
 15  3  1  0  0  0  0
 16 19  2  0  0  0  0
 17 12  1  1  0  0  0
 17 18  1  0  0  0  0
 18 14  1  0  0  0  0
 18 15  1  0  0  0  0
 19  9  1  0  0  0  0
 19  6  1  0  0  0  0
 20  6  1  0  0  0  0
 21 20  1  0  0  0  0
 24 22  1  0  0  0  0
 24 23  1  0  0  0  0
 25 27  1  0  0  0  0
 26 27  1  0  0  0  0
 27 28  1  0  0  0  0
 29 25  1  0  0  0  0
 30 29  1  0  0  0  0
M  END
>  <MODEL>
5

>  <REMARK>
 VINA RESULT:      -3.8      2.829      5.279
  Name = 
  6 active torsions:
  status: ('A' for Active; 'I' for Inactive)
    1  A    between atoms: N_7  and  C_16
    2  A    between atoms: C_9  and  C_12
    3  A    between atoms: C_9  and  O_21
    4  A    between atoms: C_10  and  C_25
    5  A    between atoms: C_11  and  C_25
    6  A    between atoms: C_23  and  C_25
                            x       y       z     vdW  Elec       q    Type
                         _______ _______ _______ _____ _____    ______ ____

>  <TORSDO>
F 6

$$$$
=
 OpenBabel11052412203D

 30 31  0  0  1  0  0  0  0  0999 V2000
  181.0730  176.9810  138.9920 O   0  0  0  0  0  0  0  0  0  0  0  0
  180.8930  174.5590  138.4950 C   0  0  2  0  0  3  0  0  0  0  0  0
  183.2850  178.3570  137.4580 C   0  0  0  0  0  2  0  0  0  0  0  0
  181.1740  177.3620  140.3330 C   0  0  0  0  0  2  0  0  0  0  0  0
  183.4970  179.1780  139.8630 C   0  0  0  0  0  2  0  0  0  0  0  0
  186.2920  178.5370  139.8170 N   0  0  0  0  0  2  0  0  0  0  0  0
  182.0560  179.6460  139.6420 C   0  0  0  0  0  2  0  0  0  0  0  0
  181.0370  178.8720  140.4840 C   0  0  2  0  0  3  0  0  0  0  0  0
  184.0950  178.5950  138.6550 N   0  0  0  0  0  0  0  0  0  0  0  0
  181.2770  174.0160  137.1210 C   0  0  0  0  0  2  0  0  0  0  0  0
  179.1020  174.8850  138.5640 S   0  0  0  0  0  1  0  0  0  0  0  0
  185.0900  174.5130  137.3450 C   0  0  0  0  0  1  0  0  0  0  0  0
  182.7570  173.6170  137.0410 C   0  0  0  0  0  2  0  0  0  0  0  0
  181.7610  175.7640  138.9330 C   0  0  1  0  0  3  0  0  0  0  0  0
  183.2550  176.8770  137.0540 C   0  0  1  0  0  3  0  0  0  0  0  0
  186.0710  177.9800  137.5620 O   0  0  0  0  0  0  0  0  0  0  0  0
  183.6830  174.4740  137.9150 C   0  0  2  0  0  3  0  0  0  0  0  0
  183.1290  175.8730  138.2270 C   0  0  2  0  0  3  0  0  0  0  0  0
  185.5120  178.3550  138.6290 C   0  0  0  0  0  0  0  0  0  0  0  0
  187.7330  178.3310  139.8520 C   0  0  0  0  0  2  0  0  0  0  0  0
  188.2330  178.3970  141.2820 C   0  0  0  0  0  1  0  0  0  0  0  0
  181.1450  179.2460  141.9530 C   0  0  0  0  0  2  0  0  0  0  0  0
  180.8430  178.5860  144.0350 C   0  0  0  0  0  1  0  0  0  0  0  0
  180.4120  178.3500  142.7300 O   0  0  0  0  0  0  0  0  0  0  0  0
  182.3740  176.5920  135.8290 C   0  0  1  0  0  3  0  0  0  0  0  0
  179.9550  176.9880  135.2500 C   0  0  0  0  0  1  0  0  0  0  0  0
  181.2770  177.6440  135.5990 C   0  0  2  0  0  3  0  0  0  0  0  0
  181.6360  178.5450  134.5940 O   0  0  0  0  0  1  0  0  0  0  0  0
  183.2400  176.3540  134.5980 C   0  0  0  0  0  2  0  0  0  0  0  0
  184.8720  177.1130  134.8290 S   0  0  0  0  0  1  0  0  0  0  0  0
  1  4  1  0  0  0  0
  2 11  1  6  0  0  0
  2 14  1  0  0  0  0
  3  9  1  0  0  0  0
  4  8  1  0  0  0  0
  6 20  1  0  0  0  0
  7  5  1  0  0  0  0
  7  8  1  0  0  0  0
  8 22  1  1  0  0  0
  9  5  1  0  0  0  0
 10  2  1  0  0  0  0
 13 10  1  0  0  0  0
 13 17  1  0  0  0  0
 14  1  1  6  0  0  0
 15 25  1  6  0  0  0
 15  3  1  0  0  0  0
 15 18  1  0  0  0  0
 16 19  2  0  0  0  0
 17 12  1  6  0  0  0
 17 18  1  0  0  0  0
 18 14  1  0  0  0  0
 19  9  1  0  0  0  0
 19  6  1  0  0  0  0
 20 21  1  0  0  0  0
 22 24  1  0  0  0  0
 24 23  1  0  0  0  0
 26 27  1  0  0  0  0
 27 25  1  0  0  0  0
 28 27  1  0  0  0  0
 29 30  1  0  0  0  0
 29 25  1  0  0  0  0
M  END
>  <MODEL>
6

>  <REMARK>
 VINA RESULT:      -3.7      2.119      2.491
  Name = 
  6 active torsions:
  status: ('A' for Active; 'I' for Inactive)
    1  A    between atoms: N_7  and  C_16
    2  A    between atoms: C_9  and  C_12
    3  A    between atoms: C_9  and  O_21
    4  A    between atoms: C_10  and  C_25
    5  A    between atoms: C_11  and  C_25
    6  A    between atoms: C_23  and  C_25
                            x       y       z     vdW  Elec       q    Type
                         _______ _______ _______ _____ _____    ______ ____

>  <TORSDO>
F 6

$$$$
=
 OpenBabel11052412203D

 30 31  0  0  1  0  0  0  0  0999 V2000
  183.6490  177.7390  138.2400 O   0  0  0  0  0  0  0  0  0  0  0  0
  183.2770  177.9400  140.6830 C   0  0  2  0  0  3  0  0  0  0  0  0
  181.0890  177.7880  136.6320 C   0  0  0  0  0  2  0  0  0  0  0  0
  184.4240  176.6670  137.7880 C   0  0  0  0  0  2  0  0  0  0  0  0
  182.4660  175.8640  135.6800 C   0  0  0  0  0  2  0  0  0  0  0  0
  180.1870  174.1390  135.9150 N   0  0  0  0  0  2  0  0  0  0  0  0
  183.5030  176.9640  135.4350 C   0  0  0  0  0  2  0  0  0  0  0  0
  184.7530  176.8160  136.3080 C   0  0  2  0  0  3  0  0  0  0  0  0
  181.2070  176.3850  136.2260 N   0  0  0  0  0  0  0  0  0  0  0  0
  182.0870  178.7260  141.2270 C   0  0  0  0  0  2  0  0  0  0  0  0
  184.7550  179.0040  140.6140 S   0  0  0  0  0  1  0  0  0  0  0  0
  179.2720  176.3160  140.1780 C   0  0  0  0  0  1  0  0  0  0  0  0
  180.8410  177.8490  141.4120 C   0  0  0  0  0  2  0  0  0  0  0  0
  182.9680  177.2210  139.3470 C   0  0  1  0  0  3  0  0  0  0  0  0
  180.7380  177.9420  138.1170 C   0  0  1  0  0  3  0  0  0  0  0  0
  178.9320  175.9820  136.6000 O   0  0  0  0  0  0  0  0  0  0  0  0
  180.7230  176.7080  140.3930 C   0  0  2  0  0  3  0  0  0  0  0  0
  181.4690  176.9680  139.0750 C   0  0  2  0  0  3  0  0  0  0  0  0
  180.0570  175.5230  136.2610 C   0  0  0  0  0  0  0  0  0  0  0  0
  179.0590  173.2190  135.9110 C   0  0  0  0  0  2  0  0  0  0  0  0
  179.0190  172.4400  137.2120 C   0  0  0  0  0  1  0  0  0  0  0  0
  185.6010  175.6390  135.8560 C   0  0  0  0  0  2  0  0  0  0  0  0
  186.4270  173.7560  136.6520 C   0  0  0  0  0  1  0  0  0  0  0  0
  186.3080  175.1150  136.9370 O   0  0  0  0  0  0  0  0  0  0  0  0
  180.6550  179.4030  138.5810 C   0  0  1  0  0  3  0  0  0  0  0  0
  182.3720  181.2430  138.5050 C   0  0  0  0  0  1  0  0  0  0  0  0
  181.4320  180.3810  137.6850 C   0  0  2  0  0  3  0  0  0  0  0  0
  180.5700  181.1940  136.9460 O   0  0  0  0  0  1  0  0  0  0  0  0
  179.2020  179.8110  138.7880 C   0  0  0  0  0  2  0  0  0  0  0  0
  179.0670  180.9410  140.2020 S   0  0  0  0  0  1  0  0  0  0  0  0
  2 11  1  6  0  0  0
  2 10  1  0  0  0  0
  3 15  1  0  0  0  0
  4  1  1  0  0  0  0
  5  9  1  0  0  0  0
  6 19  1  0  0  0  0
  7  5  1  0  0  0  0
  7  8  1  0  0  0  0
  8 22  1  6  0  0  0
  8  4  1  0  0  0  0
  9 19  1  0  0  0  0
  9  3  1  0  0  0  0
 10 13  1  0  0  0  0
 14  1  1  6  0  0  0
 14  2  1  0  0  0  0
 15 25  1  1  0  0  0
 15 18  1  0  0  0  0
 17 12  1  6  0  0  0
 17 13  1  0  0  0  0
 18 14  1  0  0  0  0
 18 17  1  0  0  0  0
 19 16  2  0  0  0  0
 20  6  1  0  0  0  0
 20 21  1  0  0  0  0
 22 24  1  0  0  0  0
 23 24  1  0  0  0  0
 25 29  1  0  0  0  0
 27 26  1  0  0  0  0
 27 25  1  0  0  0  0
 28 27  1  0  0  0  0
 29 30  1  0  0  0  0
M  END
>  <MODEL>
7

>  <REMARK>
 VINA RESULT:      -3.5      3.020      5.759
  Name = 
  6 active torsions:
  status: ('A' for Active; 'I' for Inactive)
    1  A    between atoms: N_7  and  C_16
    2  A    between atoms: C_9  and  C_12
    3  A    between atoms: C_9  and  O_21
    4  A    between atoms: C_10  and  C_25
    5  A    between atoms: C_11  and  C_25
    6  A    between atoms: C_23  and  C_25
                            x       y       z     vdW  Elec       q    Type
                         _______ _______ _______ _____ _____    ______ ____

>  <TORSDO>
F 6

$$$$
=
 OpenBabel11052412203D

 30 31  0  0  1  0  0  0  0  0999 V2000
  183.8510  177.6620  137.6090 O   0  0  0  0  0  0  0  0  0  0  0  0
  182.6540  177.6880  139.7810 C   0  0  2  0  0  3  0  0  0  0  0  0
  182.3020  176.2900  135.4050 C   0  0  0  0  0  2  0  0  0  0  0  0
  185.1570  177.1660  137.5950 C   0  0  0  0  0  2  0  0  0  0  0  0
  184.6820  175.3890  135.2430 C   0  0  0  0  0  2  0  0  0  0  0  0
  183.6470  172.7140  135.1980 N   0  0  0  0  0  2  0  0  0  0  0  0
  185.0390  176.8680  135.0710 C   0  0  0  0  0  2  0  0  0  0  0  0
  185.8290  177.4360  136.2540 C   0  0  2  0  0  3  0  0  0  0  0  0
  183.2340  175.1620  135.3250 N   0  0  0  0  0  0  0  0  0  0  0  0
  181.1290  177.7210  139.8290 C   0  0  0  0  0  2  0  0  0  0  0  0
  183.3250  179.3770  139.8990 S   0  0  0  0  0  1  0  0  0  0  0  0
  180.4290  174.1520  138.5630 C   0  0  0  0  0  1  0  0  0  0  0  0
  180.5120  176.3160  139.8450 C   0  0  0  0  0  2  0  0  0  0  0  0
  183.2040  176.8850  138.5760 C   0  0  1  0  0  3  0  0  0  0  0  0
  181.4580  176.2640  136.6870 C   0  0  1  0  0  3  0  0  0  0  0  0
  181.4930  173.6060  135.1570 O   0  0  0  0  0  0  0  0  0  0  0  0
  181.3240  175.2680  139.0720 C   0  0  2  0  0  3  0  0  0  0  0  0
  182.2200  175.8590  137.9740 C   0  0  2  0  0  3  0  0  0  0  0  0
  182.7350  173.8180  135.2220 C   0  0  0  0  0  0  0  0  0  0  0  0
  183.2090  171.3310  135.0750 C   0  0  0  0  0  2  0  0  0  0  0  0
  183.1780  170.6720  136.4410 C   0  0  0  0  0  1  0  0  0  0  0  0
  187.2460  176.8900  136.2790 C   0  0  0  0  0  2  0  0  0  0  0  0
  189.0100  177.1020  137.5850 C   0  0  0  0  0  1  0  0  0  0  0  0
  187.6700  176.7170  137.5960 O   0  0  0  0  0  0  0  0  0  0  0  0
  180.5060  177.4610  136.8190 C   0  0  1  0  0  3  0  0  0  0  0  0
  181.1800  179.8870  136.7730 C   0  0  0  0  0  1  0  0  0  0  0  0
  180.8900  178.6570  135.9340 C   0  0  2  0  0  3  0  0  0  0  0  0
  179.8900  178.9470  135.0040 O   0  0  0  0  0  1  0  0  0  0  0  0
  179.0630  177.0140  136.6240 C   0  0  0  0  0  2  0  0  0  0  0  0
  178.9870  175.6730  135.4020 S   0  0  0  0  0  1  0  0  0  0  0  0
  2 10  1  0  0  0  0
  2 11  1  6  0  0  0
  3 15  1  0  0  0  0
  4  1  1  0  0  0  0
  5  9  1  0  0  0  0
  6 19  1  0  0  0  0
  7  5  1  0  0  0  0
  7  8  1  0  0  0  0
  8 22  1  1  0  0  0
  8  4  1  0  0  0  0
  9  3  1  0  0  0  0
 10 13  1  0  0  0  0
 14  1  1  6  0  0  0
 14  2  1  0  0  0  0
 15 25  1  1  0  0  0
 15 18  1  0  0  0  0
 16 19  2  0  0  0  0
 17 12  1  6  0  0  0
 17 13  1  0  0  0  0
 18 14  1  0  0  0  0
 18 17  1  0  0  0  0
 19  9  1  0  0  0  0
 20  6  1  0  0  0  0
 20 21  1  0  0  0  0
 22 24  1  0  0  0  0
 23 24  1  0  0  0  0
 27 26  1  0  0  0  0
 27 25  1  0  0  0  0
 28 27  1  0  0  0  0
 29 25  1  0  0  0  0
 30 29  1  0  0  0  0
M  END
>  <MODEL>
8

>  <REMARK>
 VINA RESULT:      -3.0      2.569      4.599
  Name = 
  6 active torsions:
  status: ('A' for Active; 'I' for Inactive)
    1  A    between atoms: N_7  and  C_16
    2  A    between atoms: C_9  and  C_12
    3  A    between atoms: C_9  and  O_21
    4  A    between atoms: C_10  and  C_25
    5  A    between atoms: C_11  and  C_25
    6  A    between atoms: C_23  and  C_25
                            x       y       z     vdW  Elec       q    Type
                         _______ _______ _______ _____ _____    ______ ____

>  <TORSDO>
F 6

$$$$
=
 OpenBabel11052412203D

 30 31  0  0  1  0  0  0  0  0999 V2000
  185.4650  177.3420  138.8500 O   0  0  0  0  0  0  0  0  0  0  0  0
  186.6780  177.5610  136.6990 C   0  0  2  0  0  3  0  0  0  0  0  0
  182.6680  176.2390  138.5400 C   0  0  0  0  0  2  0  0  0  0  0  0
  185.3980  178.4700  139.6740 C   0  0  0  0  0  2  0  0  0  0  0  0
  182.4550  178.2280  140.1210 C   0  0  0  0  0  2  0  0  0  0  0  0
  180.3090  179.2510  138.5150 N   0  0  0  0  0  2  0  0  0  0  0  0
  183.4610  177.4400  140.9630 C   0  0  0  0  0  2  0  0  0  0  0  0
  184.8350  178.1120  141.0430 C   0  0  2  0  0  3  0  0  0  0  0  0
  182.0270  177.5010  138.9200 N   0  0  0  0  0  0  0  0  0  0  0  0
  186.3940  176.6040  135.5440 C   0  0  0  0  0  2  0  0  0  0  0  0
  188.0980  176.9670  137.6730 S   0  0  0  0  0  1  0  0  0  0  0  0
  182.8690  177.8490  134.6140 C   0  0  0  0  0  1  0  0  0  0  0  0
  185.2760  177.1130  134.6230 C   0  0  0  0  0  2  0  0  0  0  0  0
  185.4240  177.8670  137.5540 C   0  0  1  0  0  3  0  0  0  0  0  0
  183.3240  176.3070  137.1550 C   0  0  1  0  0  3  0  0  0  0  0  0
  180.4290  177.3160  137.2190 O   0  0  0  0  0  0  0  0  0  0  0  0
  184.1990  177.9350  135.3430 C   0  0  2  0  0  3  0  0  0  0  0  0
  184.0760  177.6250  136.8420 C   0  0  2  0  0  3  0  0  0  0  0  0
  180.8990  177.9910  138.1760 C   0  0  0  0  0  0  0  0  0  0  0  0
  179.1540  179.7950  137.8160 C   0  0  0  0  0  2  0  0  0  0  0  0
  179.0050  181.2720  138.1260 C   0  0  0  0  0  1  0  0  0  0  0  0
  184.7830  179.3580  141.9110 C   0  0  0  0  0  2  0  0  0  0  0  0
  185.1420  178.8080  144.0160 C   0  0  0  0  0  1  0  0  0  0  0  0
  184.1210  179.0810  143.1070 O   0  0  0  0  0  0  0  0  0  0  0  0
  184.0440  175.0120  136.7520 C   0  0  1  0  0  3  0  0  0  0  0  0
  185.4370  173.2740  137.9270 C   0  0  0  0  0  1  0  0  0  0  0  0
  184.0830  173.9540  137.8660 C   0  0  2  0  0  3  0  0  0  0  0  0
  183.0810  172.9960  137.6970 O   0  0  0  0  0  1  0  0  0  0  0  0
  183.4790  174.4780  135.4420 C   0  0  0  0  0  2  0  0  0  0  0  0
  184.7230  173.4640  134.5950 S   0  0  0  0  0  1  0  0  0  0  0  0
  1  4  1  0  0  0  0
  2 14  1  0  0  0  0
  2 11  1  1  0  0  0
  3  9  1  0  0  0  0
  4  8  1  0  0  0  0
  5  7  1  0  0  0  0
  7  8  1  0  0  0  0
  8 22  1  1  0  0  0
  9  5  1  0  0  0  0
 10  2  1  0  0  0  0
 13 17  1  0  0  0  0
 13 10  1  0  0  0  0
 14  1  1  1  0  0  0
 15 25  1  1  0  0  0
 15  3  1  0  0  0  0
 16 19  2  0  0  0  0
 17 12  1  6  0  0  0
 17 18  1  0  0  0  0
 18 15  1  0  0  0  0
 18 14  1  0  0  0  0
 19  6  1  0  0  0  0
 19  9  1  0  0  0  0
 20 21  1  0  0  0  0
 20  6  1  0  0  0  0
 22 24  1  0  0  0  0
 24 23  1  0  0  0  0
 25 27  1  0  0  0  0
 27 26  1  0  0  0  0
 28 27  1  0  0  0  0
 29 25  1  0  0  0  0
 30 29  1  0  0  0  0
M  END
>  <MODEL>
9

>  <REMARK>
 VINA RESULT:      -1.7      2.806      5.371
  Name = 
  6 active torsions:
  status: ('A' for Active; 'I' for Inactive)
    1  A    between atoms: N_7  and  C_16
    2  A    between atoms: C_9  and  C_12
    3  A    between atoms: C_9  and  O_21
    4  A    between atoms: C_10  and  C_25
    5  A    between atoms: C_11  and  C_25
    6  A    between atoms: C_23  and  C_25
                            x       y       z     vdW  Elec       q    Type
                         _______ _______ _______ _____ _____    ______ ____

>  <TORSDO>
F 6

$$$$
