=
 OpenBabel11052415453D

 34 40  0  0  1  0  0  0  0  0999 V2000
  188.1710  177.2890  138.9350 C   0  0  0  0  0  3  0  0  0  0  0  0
  190.6300  175.7830  138.2840 C   0  0  0  0  0  2  0  0  0  0  0  0
  187.8600  174.9060  136.0340 C   0  0  2  0  0  0  0  0  0  0  0  0
  187.1710  175.9540  136.9410 C   0  0  0  0  0  2  0  0  0  0  0  0
  188.2520  176.3500  137.8790 C   0  0  0  0  0  0  0  0  0  0  0  0
  191.3030  177.3130  140.4080 N   0  0  0  0  0  0  0  0  0  0  0  0
  189.2100  174.8040  136.4980 O   0  0  0  0  0  0  0  0  0  0  0  0
  189.4180  175.6410  137.5710 C   0  0  0  0  0  0  0  0  0  0  0  0
  187.8470  175.3830  134.5940 C   0  0  0  0  0  1  0  0  0  0  0  0
  190.5390  176.7050  139.3190 C   0  0  2  0  0  0  0  0  0  0  0  0
  189.3660  177.4260  139.6300 C   0  0  0  0  0  0  0  0  0  0  0  0
  190.1160  178.0500  140.6890 C   0  0  2  0  0  0  0  0  0  0  0  0
  187.4980  176.1340  143.3290 C   0  0  0  0  0  2  0  0  0  0  0  0
  189.6910  176.3490  142.3380 O   0  0  0  0  0  0  0  0  0  0  0  0
  187.2300  177.6250  143.2290 C   0  0  1  0  0  3  0  0  0  0  0  0
  187.9490  179.5920  142.0250 O   0  0  0  0  0  1  0  0  0  0  0  0
  188.0590  178.2000  142.0770 C   0  0  1  0  0  3  0  0  0  0  0  0
  188.9940  175.9340  143.4920 C   0  0  0  0  0  2  0  0  0  0  0  0
  189.5520  177.7510  142.1030 C   0  0  2  0  0  0  0  0  0  0  0  0
  185.8080  177.8520  142.9960 N   0  0  0  0  0  0  0  0  0  0  0  0
  185.5210  179.2540  143.3530 C   0  0  0  0  0  2  0  0  0  0  0  0
  185.2030  178.1920  144.2970 C   0  0  0  0  0  2  0  0  0  0  0  0
  190.4180  178.5900  143.0830 C   0  0  0  0  0  2  0  0  0  0  0  0
  189.5180  178.4260  145.4930 C   0  0  0  0  0  3  0  0  0  0  0  0
  190.3370  176.5610  146.8840 C   0  0  0  0  0  2  0  0  0  0  0  0
  189.4390  177.7450  146.6390 C   0  0  0  0  0  3  0  0  0  0  0  0
  191.5440  177.2520  144.8110 C   0  0  0  0  0  3  0  0  0  0  0  0
  190.5480  178.0860  144.4880 C   0  0  0  0  0  0  0  0  0  0  0  0
  191.7070  176.7760  146.2300 C   0  0  0  0  0  2  0  0  0  0  0  0
  187.1670  173.5800  136.1350 C   0  0  0  0  0  0  0  0  0  0  0  0
  187.0950  172.7400  135.0300 O   0  0  0  0  0  0  0  0  0  0  0  0
  186.6870  173.1940  137.2350 O   0  0  0  0  0  1  0  0  0  0  0  0
  192.6590  177.2290  140.9190 C   0  0  0  0  0  2  0  0  0  0  0  0
  193.5630  177.2830  139.8600 O   0  0  0  0  0  1  0  0  0  0  0  0
  1 11  2  0  0  0  0
  3  9  1  6  0  0  0
  3 30  1  0  0  0  0
  3  7  1  0  0  0  0
  3  4  1  0  0  0  0
  4  5  1  0  0  0  0
  5  1  1  0  0  0  0
  6 12  1  0  0  0  0
  6 33  1  0  0  0  0
  7  8  1  0  0  0  0
  8  5  2  0  0  0  0
  8  2  1  0  0  0  0
 10  2  1  6  0  0  0
 10 11  1  0  0  0  0
 10  6  1  0  0  0  0
 10 12  1  0  0  0  0
 12 11  1  6  0  0  0
 12 19  1  0  0  0  0
 13 18  1  0  0  0  0
 14 18  1  0  0  0  0
 15 20  1  6  0  0  0
 15 13  1  0  0  0  0
 17 16  1  1  0  0  0
 17 19  1  0  0  0  0
 17 15  1  0  0  0  0
 19 14  1  0  0  0  0
 19 23  1  1  0  0  0
 20 21  1  0  0  0  0
 20 22  1  0  0  0  0
 21 22  1  0  0  0  0
 23 28  1  0  0  0  0
 24 26  2  0  0  0  0
 26 25  1  0  0  0  0
 27 29  1  0  0  0  0
 28 27  2  0  0  0  0
 28 24  1  0  0  0  0
 29 25  1  0  0  0  0
 30 32  1  0  0  0  0
 31 30  2  0  0  0  0
 34 33  1  0  0  0  0
M  END
>  <MODEL>
1

>  <REMARK>
 VINA RESULT:      -6.9      0.000      0.000
  Name = 
  6 active torsions:
  status: ('A' for Active; 'I' for Inactive)
    1  A    between atoms: C_1  and  C_20
    2  A    between atoms: C_1  and  C_34
    3  A    between atoms: N_3  and  C_23
    4  A    between atoms: C_7  and  C_11
    5  A    between atoms: C_8  and  N_18
    6  A    between atoms: C_33  and  C_34
                            x       y       z     vdW  Elec       q    Type
                         _______ _______ _______ _____ _____    ______ ____

>  <TORSDO>
F 6

$$$$
=
 OpenBabel11052415453D

 34 40  0  0  1  0  0  0  0  0999 V2000
  188.3200  178.1270  139.4650 C   0  0  0  0  0  3  0  0  0  0  0  0
  190.3310  176.7470  137.7960 C   0  0  0  0  0  2  0  0  0  0  0  0
  187.0770  176.9730  136.1010 C   0  0  2  0  0  0  0  0  0  0  0  0
  186.7540  177.6830  137.4380 C   0  0  0  0  0  2  0  0  0  0  0  0
  188.0450  177.6240  138.1710 C   0  0  0  0  0  0  0  0  0  0  0  0
  191.6360  177.3520  140.0830 N   0  0  0  0  0  0  0  0  0  0  0  0
  188.4560  176.5960  136.1740 O   0  0  0  0  0  0  0  0  0  0  0  0
  188.9990  176.9730  137.3820 C   0  0  0  0  0  0  0  0  0  0  0  0
  186.8690  177.9330  134.9440 C   0  0  0  0  0  1  0  0  0  0  0  0
  190.5900  177.2420  139.0660 C   0  0  2  0  0  0  0  0  0  0  0  0
  189.6320  177.9030  139.8650 C   0  0  0  0  0  0  0  0  0  0  0  0
  190.6620  178.0400  140.8620 C   0  0  2  0  0  0  0  0  0  0  0  0
  188.0930  176.0120  143.4660 C   0  0  0  0  0  2  0  0  0  0  0  0
  189.8960  175.9870  141.8590 O   0  0  0  0  0  0  0  0  0  0  0  0
  188.4870  177.3810  143.9920 C   0  0  1  0  0  3  0  0  0  0  0  0
  189.7190  179.3600  143.3580 O   0  0  0  0  0  1  0  0  0  0  0  0
  189.2190  178.1430  142.8850 C   0  0  1  0  0  3  0  0  0  0  0  0
  189.3490  175.3170  142.9730 C   0  0  0  0  0  2  0  0  0  0  0  0
  190.3350  177.3060  142.1890 C   0  0  2  0  0  0  0  0  0  0  0  0
  187.2920  178.1080  144.4070 N   0  0  0  0  0  0  0  0  0  0  0  0
  187.3630  178.2750  145.8700 C   0  0  0  0  0  2  0  0  0  0  0  0
  186.5320  177.2200  145.3060 C   0  0  0  0  0  2  0  0  0  0  0  0
  191.6660  177.2870  142.9930 C   0  0  0  0  0  2  0  0  0  0  0  0
  192.0080  175.1950  144.4560 C   0  0  0  0  0  3  0  0  0  0  0  0
  192.3720  175.5470  146.8710 C   0  0  0  0  0  2  0  0  0  0  0  0
  192.3070  174.6700  145.6490 C   0  0  0  0  0  3  0  0  0  0  0  0
  191.3990  177.3440  145.4360 C   0  0  0  0  0  3  0  0  0  0  0  0
  191.6480  176.6230  144.3350 C   0  0  0  0  0  0  0  0  0  0  0  0
  191.3370  176.6750  146.7830 C   0  0  0  0  0  2  0  0  0  0  0  0
  186.2100  175.7630  135.9200 C   0  0  0  0  0  0  0  0  0  0  0  0
  186.0170  174.8750  136.9710 O   0  0  0  0  0  1  0  0  0  0  0  0
  185.6090  175.5690  134.8290 O   0  0  0  0  0  0  0  0  0  0  0  0
  193.0330  176.9750  140.2030 C   0  0  0  0  0  2  0  0  0  0  0  0
  193.6140  176.9220  138.9380 O   0  0  0  0  0  1  0  0  0  0  0  0
  1 11  2  0  0  0  0
  3  9  1  6  0  0  0
  3  7  1  0  0  0  0
  3  4  1  0  0  0  0
  4  5  1  0  0  0  0
  5  1  1  0  0  0  0
  6 33  1  0  0  0  0
  6 12  1  0  0  0  0
  7  8  1  0  0  0  0
  8  2  1  0  0  0  0
  8  5  2  0  0  0  0
 10  2  1  6  0  0  0
 10 11  1  0  0  0  0
 10  6  1  0  0  0  0
 10 12  1  0  0  0  0
 12 11  1  1  0  0  0
 12 19  1  0  0  0  0
 14 19  1  0  0  0  0
 14 18  1  0  0  0  0
 15 13  1  6  0  0  0
 15 20  1  0  0  0  0
 17 16  1  1  0  0  0
 17 15  1  0  0  0  0
 18 13  1  0  0  0  0
 19 17  1  0  0  0  0
 19 23  1  1  0  0  0
 20 22  1  0  0  0  0
 20 21  1  0  0  0  0
 22 21  1  0  0  0  0
 23 28  1  0  0  0  0
 24 26  2  0  0  0  0
 26 25  1  0  0  0  0
 27 29  1  0  0  0  0
 28 24  1  0  0  0  0
 28 27  2  0  0  0  0
 29 25  1  0  0  0  0
 30  3  1  0  0  0  0
 30 31  1  0  0  0  0
 32 30  2  0  0  0  0
 34 33  1  0  0  0  0
M  END
>  <MODEL>
2

>  <REMARK>
 VINA RESULT:      -6.8      1.570      1.999
  Name = 
  6 active torsions:
  status: ('A' for Active; 'I' for Inactive)
    1  A    between atoms: C_1  and  C_20
    2  A    between atoms: C_1  and  C_34
    3  A    between atoms: N_3  and  C_23
    4  A    between atoms: C_7  and  C_11
    5  A    between atoms: C_8  and  N_18
    6  A    between atoms: C_33  and  C_34
                            x       y       z     vdW  Elec       q    Type
                         _______ _______ _______ _____ _____    ______ ____

>  <TORSDO>
F 6

$$$$
=
 OpenBabel11052415453D

 34 40  0  0  1  0  0  0  0  0999 V2000
  189.8240  177.7610  139.3400 C   0  0  0  0  0  3  0  0  0  0  0  0
  187.6070  178.2030  141.2430 C   0  0  0  0  0  2  0  0  0  0  0  0
  190.7910  177.6030  142.9780 C   0  0  2  0  0  0  0  0  0  0  0  0
  191.2460  177.5040  141.5020 C   0  0  0  0  0  2  0  0  0  0  0  0
  189.9900  177.7430  140.7450 C   0  0  0  0  0  0  0  0  0  0  0  0
  186.4600  178.3710  138.8010 N   0  0  0  0  0  0  0  0  0  0  0  0
  189.3880  177.8850  142.9440 O   0  0  0  0  0  0  0  0  0  0  0  0
  188.9390  177.9550  141.6440 C   0  0  0  0  0  0  0  0  0  0  0  0
  191.5250  178.7370  143.6680 C   0  0  0  0  0  1  0  0  0  0  0  0
  187.4550  178.2170  139.8630 C   0  0  2  0  0  0  0  0  0  0  0  0
  188.5140  178.0070  138.9520 C   0  0  0  0  0  0  0  0  0  0  0  0
  187.5470  178.1840  137.8990 C   0  0  2  0  0  0  0  0  0  0  0  0
  188.0720  174.1260  137.0330 C   0  0  0  0  0  2  0  0  0  0  0  0
  186.6690  175.9460  137.7770 O   0  0  0  0  0  0  0  0  0  0  0  0
  188.8610  175.0240  136.0960 C   0  0  1  0  0  3  0  0  0  0  0  0
  189.4080  177.3480  135.7310 O   0  0  0  0  0  1  0  0  0  0  0  0
  188.8070  176.4590  136.6270 C   0  0  1  0  0  3  0  0  0  0  0  0
  186.6650  174.6830  137.1480 C   0  0  0  0  0  2  0  0  0  0  0  0
  187.3700  176.9260  137.0090 C   0  0  2  0  0  0  0  0  0  0  0  0
  190.2420  174.5590  136.0210 N   0  0  0  0  0  0  0  0  0  0  0  0
  190.5990  174.4690  134.5940 C   0  0  0  0  0  2  0  0  0  0  0  0
  190.2280  173.2630  135.3190 C   0  0  0  0  0  2  0  0  0  0  0  0
  186.5420  177.3980  135.7810 C   0  0  0  0  0  2  0  0  0  0  0  0
  185.1790  175.5610  134.5950 C   0  0  0  0  0  3  0  0  0  0  0  0
  183.0190  174.9230  135.6030 C   0  0  0  0  0  2  0  0  0  0  0  0
  184.1220  174.7430  134.5940 C   0  0  0  0  0  3  0  0  0  0  0  0
  184.1440  177.0670  136.2100 C   0  0  0  0  0  3  0  0  0  0  0  0
  185.2380  176.7080  135.5260 C   0  0  0  0  0  0  0  0  0  0  0  0
  182.8210  176.4080  135.9280 C   0  0  0  0  0  2  0  0  0  0  0  0
  191.0510  176.3150  143.7000 C   0  0  0  0  0  0  0  0  0  0  0  0
  191.6200  176.3260  144.9690 O   0  0  0  0  0  1  0  0  0  0  0  0
  190.7120  175.2160  143.1850 O   0  0  0  0  0  0  0  0  0  0  0  0
  185.0370  178.6430  138.7230 C   0  0  0  0  0  2  0  0  0  0  0  0
  184.7330  179.7750  139.4770 O   0  0  0  0  0  1  0  0  0  0  0  0
  1  5  1  0  0  0  0
  2  8  1  0  0  0  0
  3  9  1  1  0  0  0
  3 30  1  0  0  0  0
  4  3  1  0  0  0  0
  5  4  1  0  0  0  0
  5  8  2  0  0  0  0
  6 10  1  0  0  0  0
  7  3  1  0  0  0  0
  8  7  1  0  0  0  0
 10  2  1  1  0  0  0
 11  1  2  0  0  0  0
 11 10  1  0  0  0  0
 12  6  1  0  0  0  0
 12 11  1  6  0  0  0
 12 10  1  0  0  0  0
 13 18  1  0  0  0  0
 15 20  1  1  0  0  0
 15 17  1  0  0  0  0
 15 13  1  0  0  0  0
 17 16  1  6  0  0  0
 17 19  1  0  0  0  0
 18 14  1  0  0  0  0
 19 23  1  6  0  0  0
 19 14  1  0  0  0  0
 19 12  1  0  0  0  0
 21 22  1  0  0  0  0
 21 20  1  0  0  0  0
 22 20  1  0  0  0  0
 24 28  1  0  0  0  0
 25 29  1  0  0  0  0
 26 24  2  0  0  0  0
 26 25  1  0  0  0  0
 28 23  1  0  0  0  0
 28 27  2  0  0  0  0
 29 27  1  0  0  0  0
 30 31  1  0  0  0  0
 32 30  2  0  0  0  0
 33  6  1  0  0  0  0
 33 34  1  0  0  0  0
M  END
>  <MODEL>
3

>  <REMARK>
 VINA RESULT:      -6.6      2.579      8.454
  Name = 
  6 active torsions:
  status: ('A' for Active; 'I' for Inactive)
    1  A    between atoms: C_1  and  C_20
    2  A    between atoms: C_1  and  C_34
    3  A    between atoms: N_3  and  C_23
    4  A    between atoms: C_7  and  C_11
    5  A    between atoms: C_8  and  N_18
    6  A    between atoms: C_33  and  C_34
                            x       y       z     vdW  Elec       q    Type
                         _______ _______ _______ _____ _____    ______ ____

>  <TORSDO>
F 6

$$$$
=
 OpenBabel11052415453D

 34 40  0  0  1  0  0  0  0  0999 V2000
  186.7630  178.8880  140.9600 C   0  0  0  0  0  3  0  0  0  0  0  0
  185.6400  177.8810  143.5010 C   0  0  0  0  0  2  0  0  0  0  0  0
  189.2970  177.5370  143.3990 C   0  0  2  0  0  0  0  0  0  0  0  0
  189.0310  178.1790  142.0160 C   0  0  0  0  0  2  0  0  0  0  0  0
  187.5550  178.3460  142.0010 C   0  0  0  0  0  0  0  0  0  0  0  0
  183.4930  178.7030  142.0800 N   0  0  0  0  0  0  0  0  0  0  0  0
  188.0190  177.4060  144.0300 O   0  0  0  0  0  0  0  0  0  0  0  0
  187.0210  177.8720  143.2030 C   0  0  0  0  0  0  0  0  0  0  0  0
  190.1870  178.4460  144.2260 C   0  0  0  0  0  1  0  0  0  0  0  0
  184.8720  178.4130  142.4740 C   0  0  2  0  0  0  0  0  0  0  0  0
  185.4070  178.8960  141.2600 C   0  0  0  0  0  0  0  0  0  0  0  0
  184.0560  179.2100  140.8730 C   0  0  2  0  0  0  0  0  0  0  0  0
  184.0290  175.8820  138.3390 C   0  0  0  0  0  2  0  0  0  0  0  0
  182.9880  177.2080  140.0690 O   0  0  0  0  0  0  0  0  0  0  0  0
  184.6590  177.1010  137.6870 C   0  0  1  0  0  3  0  0  0  0  0  0
  185.3030  179.3770  138.1750 O   0  0  0  0  0  1  0  0  0  0  0  0
  184.8470  178.1870  138.7490 C   0  0  1  0  0  3  0  0  0  0  0  0
  182.7360  176.3180  139.0040 C   0  0  0  0  0  2  0  0  0  0  0  0
  183.5770  178.4300  139.6210 C   0  0  2  0  0  0  0  0  0  0  0  0
  185.9430  176.7330  137.1010 N   0  0  0  0  0  0  0  0  0  0  0  0
  186.0880  177.4900  135.8440 C   0  0  0  0  0  2  0  0  0  0  0  0
  185.6620  176.0980  135.8000 C   0  0  0  0  0  2  0  0  0  0  0  0
  182.5370  179.3520  138.9270 C   0  0  0  0  0  2  0  0  0  0  0  0
  180.2700  178.2480  139.4610 C   0  0  0  0  0  3  0  0  0  0  0  0
  178.9350  179.2280  141.2890 C   0  0  0  0  0  2  0  0  0  0  0  0
  179.1950  178.1690  140.2510 C   0  0  0  0  0  3  0  0  0  0  0  0
  180.7920  180.5070  140.2190 C   0  0  0  0  0  3  0  0  0  0  0  0
  181.1680  179.4210  139.5320 C   0  0  0  0  0  0  0  0  0  0  0  0
  179.4030  180.6000  140.7920 C   0  0  0  0  0  2  0  0  0  0  0  0
  189.9480  176.1950  143.2440 C   0  0  0  0  0  0  0  0  0  0  0  0
  191.2810  176.0180  143.5930 O   0  0  0  0  0  1  0  0  0  0  0  0
  189.2770  175.2060  142.8430 O   0  0  0  0  0  0  0  0  0  0  0  0
  182.1770  178.5750  142.6780 C   0  0  0  0  0  2  0  0  0  0  0  0
  182.2610  178.8060  144.0500 O   0  0  0  0  0  1  0  0  0  0  0  0
  1 11  2  0  0  0  0
  1  5  1  0  0  0  0
  3  7  1  0  0  0  0
  3  9  1  1  0  0  0
  4  3  1  0  0  0  0
  5  4  1  0  0  0  0
  5  8  2  0  0  0  0
  6 10  1  0  0  0  0
  6 33  1  0  0  0  0
  8  2  1  0  0  0  0
  8  7  1  0  0  0  0
 10  2  1  1  0  0  0
 11 10  1  0  0  0  0
 12 11  1  6  0  0  0
 12  6  1  0  0  0  0
 12 10  1  0  0  0  0
 13 18  1  0  0  0  0
 15 20  1  1  0  0  0
 15 13  1  0  0  0  0
 15 17  1  0  0  0  0
 17 16  1  6  0  0  0
 17 19  1  0  0  0  0
 18 14  1  0  0  0  0
 19 23  1  6  0  0  0
 19 14  1  0  0  0  0
 19 12  1  0  0  0  0
 21 20  1  0  0  0  0
 22 21  1  0  0  0  0
 22 20  1  0  0  0  0
 23 28  1  0  0  0  0
 24 28  1  0  0  0  0
 24 26  2  0  0  0  0
 26 25  1  0  0  0  0
 27 29  1  0  0  0  0
 28 27  2  0  0  0  0
 29 25  1  0  0  0  0
 30  3  1  0  0  0  0
 30 31  1  0  0  0  0
 32 30  2  0  0  0  0
 33 34  1  0  0  0  0
M  END
>  <MODEL>
4

>  <REMARK>
 VINA RESULT:      -6.3      4.023      8.499
  Name = 
  6 active torsions:
  status: ('A' for Active; 'I' for Inactive)
    1  A    between atoms: C_1  and  C_20
    2  A    between atoms: C_1  and  C_34
    3  A    between atoms: N_3  and  C_23
    4  A    between atoms: C_7  and  C_11
    5  A    between atoms: C_8  and  N_18
    6  A    between atoms: C_33  and  C_34
                            x       y       z     vdW  Elec       q    Type
                         _______ _______ _______ _____ _____    ______ ____

>  <TORSDO>
F 6

$$$$
=
 OpenBabel11052415453D

 34 40  0  0  1  0  0  0  0  0999 V2000
  190.9740  177.3720  139.5270 C   0  0  0  0  0  3  0  0  0  0  0  0
  188.3130  177.8250  140.7290 C   0  0  0  0  0  2  0  0  0  0  0  0
  190.9600  177.7310  143.2760 C   0  0  2  0  0  0  0  0  0  0  0  0
  191.7910  177.5030  141.9910 C   0  0  0  0  0  2  0  0  0  0  0  0
  190.7650  177.5340  140.9170 C   0  0  0  0  0  0  0  0  0  0  0  0
  187.8380  177.6000  138.0780 N   0  0  0  0  0  0  0  0  0  0  0  0
  189.6010  177.8750  142.8520 O   0  0  0  0  0  0  0  0  0  0  0  0
  189.5050  177.7510  141.4830 C   0  0  0  0  0  0  0  0  0  0  0  0
  191.4190  179.0010  143.9680 C   0  0  0  0  0  1  0  0  0  0  0  0
  188.5270  177.6630  139.3670 C   0  0  2  0  0  0  0  0  0  0  0  0
  189.7980  177.4490  138.7910 C   0  0  0  0  0  0  0  0  0  0  0  0
  189.1330  177.4100  137.5140 C   0  0  2  0  0  0  0  0  0  0  0  0
  191.2000  173.9170  136.5040 C   0  0  0  0  0  2  0  0  0  0  0  0
  189.4900  175.0450  137.7840 O   0  0  0  0  0  0  0  0  0  0  0  0
  191.0260  174.8500  135.3190 C   0  0  1  0  0  3  0  0  0  0  0  0
  190.1830  177.0410  134.7530 O   0  0  0  0  0  1  0  0  0  0  0  0
  190.4840  176.1900  135.8200 C   0  0  1  0  0  3  0  0  0  0  0  0
  189.8650  173.8090  137.2190 C   0  0  0  0  0  2  0  0  0  0  0  0
  189.2710  176.0470  136.7880 C   0  0  2  0  0  0  0  0  0  0  0  0
  192.3100  175.0370  134.6510 N   0  0  0  0  0  0  0  0  0  0  0  0
  193.3000  174.2010  135.3560 C   0  0  0  0  0  2  0  0  0  0  0  0
  193.2320  175.6280  135.6390 C   0  0  0  0  0  2  0  0  0  0  0  0
  187.9250  175.8340  136.0410 C   0  0  0  0  0  2  0  0  0  0  0  0
  186.4290  174.0970  137.2190 C   0  0  0  0  0  3  0  0  0  0  0  0
  185.5670  172.2310  135.8530 C   0  0  0  0  0  2  0  0  0  0  0  0
  185.6360  173.0240  137.1310 C   0  0  0  0  0  3  0  0  0  0  0  0
  187.5010  173.6100  135.0820 C   0  0  0  0  0  3  0  0  0  0  0  0
  187.3170  174.4660  136.0960 C   0  0  0  0  0  0  0  0  0  0  0  0
  186.9290  172.2190  135.1500 C   0  0  0  0  0  2  0  0  0  0  0  0
  191.0980  176.5660  144.2110 C   0  0  0  0  0  0  0  0  0  0  0  0
  190.5370  176.6160  145.4810 O   0  0  0  0  0  1  0  0  0  0  0  0
  191.6810  175.5140  143.8340 O   0  0  0  0  0  0  0  0  0  0  0  0
  186.4710  177.7270  137.6070 C   0  0  0  0  0  2  0  0  0  0  0  0
  185.8070  178.6990  138.3520 O   0  0  0  0  0  1  0  0  0  0  0  0
  1  5  1  0  0  0  0
  2  8  1  0  0  0  0
  3  9  1  1  0  0  0
  3 30  1  0  0  0  0
  4  3  1  0  0  0  0
  5  8  2  0  0  0  0
  5  4  1  0  0  0  0
  6 10  1  0  0  0  0
  7  3  1  0  0  0  0
  8  7  1  0  0  0  0
 10  2  1  6  0  0  0
 11 10  1  0  0  0  0
 11  1  2  0  0  0  0
 12  6  1  0  0  0  0
 12 11  1  6  0  0  0
 12 10  1  0  0  0  0
 13 18  1  0  0  0  0
 15 20  1  1  0  0  0
 15 17  1  0  0  0  0
 15 13  1  0  0  0  0
 17 16  1  6  0  0  0
 17 19  1  0  0  0  0
 18 14  1  0  0  0  0
 19 23  1  6  0  0  0
 19 12  1  0  0  0  0
 19 14  1  0  0  0  0
 20 21  1  0  0  0  0
 20 22  1  0  0  0  0
 21 22  1  0  0  0  0
 23 28  1  0  0  0  0
 25 26  1  0  0  0  0
 26 24  2  0  0  0  0
 27 29  1  0  0  0  0
 27 28  2  0  0  0  0
 28 24  1  0  0  0  0
 29 25  1  0  0  0  0
 30 31  1  0  0  0  0
 32 30  2  0  0  0  0
 33  6  1  0  0  0  0
 33 34  1  0  0  0  0
M  END
>  <MODEL>
5

>  <REMARK>
 VINA RESULT:      -6.3      2.558      8.409
  Name = 
  6 active torsions:
  status: ('A' for Active; 'I' for Inactive)
    1  A    between atoms: C_1  and  C_20
    2  A    between atoms: C_1  and  C_34
    3  A    between atoms: N_3  and  C_23
    4  A    between atoms: C_7  and  C_11
    5  A    between atoms: C_8  and  N_18
    6  A    between atoms: C_33  and  C_34
                            x       y       z     vdW  Elec       q    Type
                         _______ _______ _______ _____ _____    ______ ____

>  <TORSDO>
F 6

$$$$
=
 OpenBabel11052415453D

 34 40  0  0  1  0  0  0  0  0999 V2000
  185.8230  178.6280  140.6070 C   0  0  0  0  0  3  0  0  0  0  0  0
  184.9820  178.2590  143.4160 C   0  0  0  0  0  2  0  0  0  0  0  0
  188.5910  177.7110  142.9920 C   0  0  2  0  0  0  0  0  0  0  0  0
  188.1810  178.0490  141.5390 C   0  0  0  0  0  2  0  0  0  0  0  0
  186.7180  178.2850  141.6490 C   0  0  0  0  0  0  0  0  0  0  0  0
  182.7050  178.8620  142.0910 N   0  0  0  0  0  0  0  0  0  0  0  0
  187.3940  177.7880  143.7730 O   0  0  0  0  0  0  0  0  0  0  0  0
  186.3180  178.1130  142.9780 C   0  0  0  0  0  0  0  0  0  0  0  0
  189.5960  178.7310  143.4940 C   0  0  0  0  0  1  0  0  0  0  0  0
  184.1130  178.5930  142.3870 C   0  0  2  0  0  0  0  0  0  0  0  0
  184.5130  178.7720  141.0450 C   0  0  0  0  0  0  0  0  0  0  0  0
  183.1340  179.0630  140.7470 C   0  0  2  0  0  0  0  0  0  0  0  0
  183.0560  175.4640  138.6180 C   0  0  0  0  0  2  0  0  0  0  0  0
  182.2950  176.8250  140.4620 O   0  0  0  0  0  0  0  0  0  0  0  0
  183.2350  176.6690  137.7110 C   0  0  1  0  0  3  0  0  0  0  0  0
  183.5350  179.0640  137.7980 O   0  0  0  0  0  1  0  0  0  0  0  0
  183.4930  177.9040  138.5770 C   0  0  1  0  0  3  0  0  0  0  0  0
  181.9370  175.7710  139.5960 C   0  0  0  0  0  2  0  0  0  0  0  0
  182.4900  178.0540  139.7610 C   0  0  2  0  0  0  0  0  0  0  0  0
  184.3540  176.4380  136.8050 N   0  0  0  0  0  0  0  0  0  0  0  0
  184.0460  177.1260  135.5380 C   0  0  0  0  0  2  0  0  0  0  0  0
  183.8300  175.6910  135.6470 C   0  0  0  0  0  2  0  0  0  0  0  0
  181.1410  178.6950  139.3310 C   0  0  0  0  0  2  0  0  0  0  0  0
  180.8950  179.8900  137.0610 C   0  0  0  0  0  3  0  0  0  0  0  0
  180.5640  182.3340  137.0970 C   0  0  0  0  0  2  0  0  0  0  0  0
  180.6350  181.0110  136.3820 C   0  0  0  0  0  3  0  0  0  0  0  0
  181.4500  181.1220  139.0920 C   0  0  0  0  0  3  0  0  0  0  0  0
  181.2050  179.9430  138.5060 C   0  0  0  0  0  0  0  0  0  0  0  0
  181.5580  182.3740  138.2630 C   0  0  0  0  0  2  0  0  0  0  0  0
  189.1830  176.3360  143.0700 C   0  0  0  0  0  0  0  0  0  0  0  0
  190.5620  176.1620  143.0340 O   0  0  0  0  0  0  0  0  0  0  0  0
  188.4380  175.3300  143.2180 O   0  0  0  0  0  1  0  0  0  0  0  0
  181.4660  178.9360  142.8430 C   0  0  0  0  0  2  0  0  0  0  0  0
  180.8070  180.1270  142.5450 O   0  0  0  0  0  1  0  0  0  0  0  0
  1 11  2  0  0  0  0
  1  5  1  0  0  0  0
  3 30  1  0  0  0  0
  3  9  1  1  0  0  0
  3  7  1  0  0  0  0
  4  5  1  0  0  0  0
  4  3  1  0  0  0  0
  5  8  2  0  0  0  0
  6 10  1  0  0  0  0
  6 33  1  0  0  0  0
  8  2  1  0  0  0  0
  8  7  1  0  0  0  0
 10  2  1  1  0  0  0
 11 10  1  0  0  0  0
 12 11  1  6  0  0  0
 12  6  1  0  0  0  0
 12 10  1  0  0  0  0
 13 18  1  0  0  0  0
 15 20  1  6  0  0  0
 15 17  1  0  0  0  0
 15 13  1  0  0  0  0
 17 16  1  6  0  0  0
 17 19  1  0  0  0  0
 18 14  1  0  0  0  0
 19 23  1  6  0  0  0
 19 14  1  0  0  0  0
 19 12  1  0  0  0  0
 21 22  1  0  0  0  0
 21 20  1  0  0  0  0
 22 20  1  0  0  0  0
 24 28  1  0  0  0  0
 25 29  1  0  0  0  0
 26 24  2  0  0  0  0
 26 25  1  0  0  0  0
 28 27  2  0  0  0  0
 28 23  1  0  0  0  0
 29 27  1  0  0  0  0
 30 32  1  0  0  0  0
 31 30  2  0  0  0  0
 34 33  1  0  0  0  0
M  END
>  <MODEL>
6

>  <REMARK>
 VINA RESULT:      -6.0      4.712      9.019
  Name = 
  6 active torsions:
  status: ('A' for Active; 'I' for Inactive)
    1  A    between atoms: C_1  and  C_20
    2  A    between atoms: C_1  and  C_34
    3  A    between atoms: N_3  and  C_23
    4  A    between atoms: C_7  and  C_11
    5  A    between atoms: C_8  and  N_18
    6  A    between atoms: C_33  and  C_34
                            x       y       z     vdW  Elec       q    Type
                         _______ _______ _______ _____ _____    ______ ____

>  <TORSDO>
F 6

$$$$
=
 OpenBabel11052415453D

 34 40  0  0  1  0  0  0  0  0999 V2000
  190.9500  176.6880  139.9930 C   0  0  0  0  0  3  0  0  0  0  0  0
  188.7120  178.6180  139.9930 C   0  0  0  0  0  2  0  0  0  0  0  0
  189.7580  177.7460  143.4060 C   0  0  2  0  0  0  0  0  0  0  0  0
  190.7440  176.8890  142.5770 C   0  0  0  0  0  2  0  0  0  0  0  0
  190.3680  177.2050  141.1750 C   0  0  0  0  0  0  0  0  0  0  0  0
  189.1990  178.1310  137.3790 N   0  0  0  0  0  0  0  0  0  0  0  0
  188.9490  178.4510  142.4590 O   0  0  0  0  0  0  0  0  0  0  0  0
  189.3100  178.1200  141.1720 C   0  0  0  0  0  0  0  0  0  0  0  0
  190.5280  178.7370  144.2600 C   0  0  0  0  0  1  0  0  0  0  0  0
  189.2890  178.1040  138.8390 C   0  0  2  0  0  0  0  0  0  0  0  0
  190.3600  177.1830  138.8370 C   0  0  0  0  0  0  0  0  0  0  0  0
  190.2960  177.2220  137.3990 C   0  0  2  0  0  0  0  0  0  0  0  0
  188.3480  174.8060  134.5960 C   0  0  0  0  0  2  0  0  0  0  0  0
  190.3520  175.8960  135.3910 O   0  0  0  0  0  0  0  0  0  0  0  0
  187.8150  174.6040  136.0030 C   0  0  1  0  0  3  0  0  0  0  0  0
  188.0480  175.4660  138.2480 O   0  0  0  0  0  1  0  0  0  0  0  0
  188.4040  175.6840  136.9140 C   0  0  1  0  0  3  0  0  0  0  0  0
  189.8650  174.7930  134.6590 C   0  0  0  0  0  2  0  0  0  0  0  0
  189.9460  175.8530  136.7610 C   0  0  2  0  0  0  0  0  0  0  0  0
  186.3590  174.6850  135.9910 N   0  0  0  0  0  0  0  0  0  0  0  0
  185.8680  173.9890  137.1940 C   0  0  0  0  0  2  0  0  0  0  0  0
  185.8460  173.3050  135.9090 C   0  0  0  0  0  2  0  0  0  0  0  0
  190.7520  174.7980  137.5680 C   0  0  0  0  0  2  0  0  0  0  0  0
  193.2650  175.3520  137.4330 C   0  0  0  0  0  3  0  0  0  0  0  0
  194.8040  173.5080  136.8690 C   0  0  0  0  0  2  0  0  0  0  0  0
  194.5240  174.9250  137.2940 C   0  0  0  0  0  3  0  0  0  0  0  0
  192.3540  173.3290  136.4200 C   0  0  0  0  0  3  0  0  0  0  0  0
  192.1310  174.4690  137.0850 C   0  0  0  0  0  0  0  0  0  0  0  0
  193.7290  173.0130  135.8940 C   0  0  0  0  0  2  0  0  0  0  0  0
  188.9060  176.8770  144.2820 C   0  0  0  0  0  0  0  0  0  0  0  0
  187.8590  176.1440  143.7360 O   0  0  0  0  0  0  0  0  0  0  0  0
  189.1630  176.7650  145.5110 O   0  0  0  0  0  1  0  0  0  0  0  0
  188.3910  178.8150  136.3860 C   0  0  0  0  0  2  0  0  0  0  0  0
  187.1330  179.0920  136.9160 O   0  0  0  0  0  1  0  0  0  0  0  0
  1  5  1  0  0  0  0
  2  8  1  0  0  0  0
  3  9  1  1  0  0  0
  3 30  1  0  0  0  0
  4  3  1  0  0  0  0
  5  4  1  0  0  0  0
  6 12  1  0  0  0  0
  6 10  1  0  0  0  0
  7  3  1  0  0  0  0
  8  5  2  0  0  0  0
  8  7  1  0  0  0  0
 10  2  1  1  0  0  0
 11 10  1  0  0  0  0
 11  1  2  0  0  0  0
 12 11  1  6  0  0  0
 12 10  1  0  0  0  0
 13 18  1  0  0  0  0
 14 19  1  0  0  0  0
 15 13  1  6  0  0  0
 15 17  1  0  0  0  0
 17 16  1  1  0  0  0
 18 14  1  0  0  0  0
 19 17  1  0  0  0  0
 19 12  1  0  0  0  0
 19 23  1  1  0  0  0
 20 15  1  0  0  0  0
 20 21  1  0  0  0  0
 22 20  1  0  0  0  0
 22 21  1  0  0  0  0
 25 26  1  0  0  0  0
 26 24  2  0  0  0  0
 27 28  2  0  0  0  0
 28 24  1  0  0  0  0
 28 23  1  0  0  0  0
 29 27  1  0  0  0  0
 29 25  1  0  0  0  0
 30 32  1  0  0  0  0
 31 30  2  0  0  0  0
 33 34  1  0  0  0  0
 33  6  1  0  0  0  0
M  END
>  <MODEL>
7

>  <REMARK>
 VINA RESULT:      -6.0      2.668      7.601
  Name = 
  6 active torsions:
  status: ('A' for Active; 'I' for Inactive)
    1  A    between atoms: C_1  and  C_20
    2  A    between atoms: C_1  and  C_34
    3  A    between atoms: N_3  and  C_23
    4  A    between atoms: C_7  and  C_11
    5  A    between atoms: C_8  and  N_18
    6  A    between atoms: C_33  and  C_34
                            x       y       z     vdW  Elec       q    Type
                         _______ _______ _______ _____ _____    ______ ____

>  <TORSDO>
F 6

$$$$
=
 OpenBabel11052415453D

 34 40  0  0  1  0  0  0  0  0999 V2000
  189.0060  177.2150  140.9880 C   0  0  0  0  0  3  0  0  0  0  0  0
  191.9050  177.7730  140.8580 C   0  0  0  0  0  2  0  0  0  0  0  0
  190.7290  175.9700  137.8790 C   0  0  2  0  0  0  0  0  0  0  0  0
  189.4090  176.0990  138.6750 C   0  0  0  0  0  2  0  0  0  0  0  0
  189.8240  176.8290  139.9000 C   0  0  0  0  0  0  0  0  0  0  0  0
  191.1150  178.7980  143.2300 N   0  0  0  0  0  0  0  0  0  0  0  0
  191.7350  176.6120  138.6690 O   0  0  0  0  0  0  0  0  0  0  0  0
  191.1960  177.0960  139.8400 C   0  0  0  0  0  0  0  0  0  0  0  0
  190.5980  176.6780  136.5430 C   0  0  0  0  0  1  0  0  0  0  0  0
  191.0940  178.1450  141.9210 C   0  0  2  0  0  0  0  0  0  0  0  0
  189.7080  177.8810  141.9840 C   0  0  0  0  0  0  0  0  0  0  0  0
  189.7130  178.5450  143.2630 C   0  0  2  0  0  0  0  0  0  0  0  0
  190.1830  176.9800  147.1130 C   0  0  0  0  0  2  0  0  0  0  0  0
  189.0420  178.4490  145.5720 O   0  0  0  0  0  0  0  0  0  0  0  0
  190.4660  175.9520  146.0320 C   0  0  1  0  0  3  0  0  0  0  0  0
  190.6360  175.7390  143.6320 O   0  0  0  0  0  1  0  0  0  0  0  0
  190.5090  176.6600  144.6760 C   0  0  1  0  0  3  0  0  0  0  0  0
  188.8930  177.6970  146.7560 C   0  0  0  0  0  2  0  0  0  0  0  0
  189.3040  177.6200  144.4380 C   0  0  2  0  0  0  0  0  0  0  0  0
  191.7400  175.2940  146.3040 N   0  0  0  0  0  0  0  0  0  0  0  0
  191.7280  174.8780  147.7190 C   0  0  0  0  0  2  0  0  0  0  0  0
  192.4310  176.0930  147.3330 C   0  0  0  0  0  2  0  0  0  0  0  0
  188.0260  176.8770  143.9590 C   0  0  0  0  0  2  0  0  0  0  0  0
  186.1870  178.1350  142.6640 C   0  0  0  0  0  3  0  0  0  0  0  0
  184.0060  178.4210  143.7820 C   0  0  0  0  0  2  0  0  0  0  0  0
  184.9150  178.5390  142.5880 C   0  0  0  0  0  3  0  0  0  0  0  0
  186.0550  177.8270  145.0800 C   0  0  0  0  0  3  0  0  0  0  0  0
  186.7440  177.6530  143.9460 C   0  0  0  0  0  0  0  0  0  0  0  0
  184.7890  178.6420  145.0820 C   0  0  0  0  0  2  0  0  0  0  0  0
  191.0750  174.5280  137.6560 C   0  0  0  0  0  0  0  0  0  0  0  0
  192.4050  174.1280  137.5940 O   0  0  0  0  0  1  0  0  0  0  0  0
  190.1650  173.6600  137.5730 O   0  0  0  0  0  0  0  0  0  0  0  0
  192.1070  179.4450  144.0690 C   0  0  0  0  0  2  0  0  0  0  0  0
  191.5190  180.5040  144.7590 O   0  0  0  0  0  1  0  0  0  0  0  0
  1 11  2  0  0  0  0
  3  9  1  6  0  0  0
  3  7  1  0  0  0  0
  3  4  1  0  0  0  0
  4  5  1  0  0  0  0
  5  1  1  0  0  0  0
  6 12  1  0  0  0  0
  6 33  1  0  0  0  0
  7  8  1  0  0  0  0
  8  5  2  0  0  0  0
  8  2  1  0  0  0  0
 10  2  1  6  0  0  0
 10 11  1  0  0  0  0
 10  6  1  0  0  0  0
 10 12  1  0  0  0  0
 12 11  1  6  0  0  0
 12 19  1  0  0  0  0
 14 18  1  0  0  0  0
 15 20  1  1  0  0  0
 15 13  1  0  0  0  0
 17 16  1  6  0  0  0
 17 15  1  0  0  0  0
 18 13  1  0  0  0  0
 19 23  1  6  0  0  0
 19 17  1  0  0  0  0
 19 14  1  0  0  0  0
 20 22  1  0  0  0  0
 20 21  1  0  0  0  0
 22 21  1  0  0  0  0
 24 28  1  0  0  0  0
 25 29  1  0  0  0  0
 26 24  2  0  0  0  0
 26 25  1  0  0  0  0
 27 29  1  0  0  0  0
 28 23  1  0  0  0  0
 28 27  2  0  0  0  0
 30  3  1  0  0  0  0
 31 30  1  0  0  0  0
 32 30  2  0  0  0  0
 33 34  1  0  0  0  0
M  END
>  <MODEL>
8

>  <REMARK>
 VINA RESULT:      -5.5      2.258      4.748
  Name = 
  6 active torsions:
  status: ('A' for Active; 'I' for Inactive)
    1  A    between atoms: C_1  and  C_20
    2  A    between atoms: C_1  and  C_34
    3  A    between atoms: N_3  and  C_23
    4  A    between atoms: C_7  and  C_11
    5  A    between atoms: C_8  and  N_18
    6  A    between atoms: C_33  and  C_34
                            x       y       z     vdW  Elec       q    Type
                         _______ _______ _______ _____ _____    ______ ____

>  <TORSDO>
F 6

$$$$
=
 OpenBabel11052415453D

 34 40  0  0  1  0  0  0  0  0999 V2000
  185.8050  177.7930  137.0980 C   0  0  0  0  0  3  0  0  0  0  0  0
  187.5960  177.6540  139.4450 C   0  0  0  0  0  2  0  0  0  0  0  0
  189.0860  176.0420  136.4970 C   0  0  2  0  0  0  0  0  0  0  0  0
  187.7320  176.5110  135.9130 C   0  0  0  0  0  2  0  0  0  0  0  0
  187.0800  177.1780  137.0690 C   0  0  0  0  0  0  0  0  0  0  0  0
  185.3940  178.9420  140.3380 N   0  0  0  0  0  0  0  0  0  0  0  0
  189.0990  176.4670  137.8640 O   0  0  0  0  0  0  0  0  0  0  0  0
  187.9260  177.1160  138.1810 C   0  0  0  0  0  0  0  0  0  0  0  0
  190.2270  176.7000  135.7450 C   0  0  0  0  0  1  0  0  0  0  0  0
  186.3440  178.2530  139.4640 C   0  0  2  0  0  0  0  0  0  0  0  0
  185.4880  178.3220  138.3430 C   0  0  0  0  0  0  0  0  0  0  0  0
  184.5560  179.0240  139.1880 C   0  0  2  0  0  0  0  0  0  0  0  0
  182.0740  175.6750  138.8410 C   0  0  0  0  0  2  0  0  0  0  0  0
  183.4670  177.1210  140.1830 O   0  0  0  0  0  0  0  0  0  0  0  0
  181.6340  176.8170  137.9420 C   0  0  1  0  0  3  0  0  0  0  0  0
  182.3060  179.0280  137.2400 O   0  0  0  0  0  1  0  0  0  0  0  0
  182.7190  177.8960  137.9480 C   0  0  1  0  0  3  0  0  0  0  0  0
  182.3640  176.2440  140.2190 C   0  0  0  0  0  2  0  0  0  0  0  0
  183.2120  178.2740  139.3780 C   0  0  2  0  0  0  0  0  0  0  0  0
  181.4180  176.3190  136.5880 N   0  0  0  0  0  0  0  0  0  0  0  0
  180.1740  176.9300  136.0860 C   0  0  0  0  0  2  0  0  0  0  0  0
  180.1490  175.5670  136.5980 C   0  0  0  0  0  2  0  0  0  0  0  0
  182.2700  179.2810  140.0950 C   0  0  0  0  0  2  0  0  0  0  0  0
  182.3040  178.9550  142.6510 C   0  0  0  0  0  3  0  0  0  0  0  0
  180.1310  178.7010  143.7900 C   0  0  0  0  0  2  0  0  0  0  0  0
  181.6280  178.8560  143.8000 C   0  0  0  0  0  3  0  0  0  0  0  0
  180.3400  178.3810  141.3230 C   0  0  0  0  0  3  0  0  0  0  0  0
  181.6040  178.8220  141.3550 C   0  0  0  0  0  0  0  0  0  0  0  0
  179.6790  177.8780  142.5790 C   0  0  0  0  0  2  0  0  0  0  0  0
  189.2130  174.5500  136.4090 C   0  0  0  0  0  0  0  0  0  0  0  0
  188.7320  173.8700  135.2970 O   0  0  0  0  0  0  0  0  0  0  0  0
  189.8020  173.9070  137.3190 O   0  0  0  0  0  1  0  0  0  0  0  0
  185.3610  179.3780  141.7220 C   0  0  0  0  0  2  0  0  0  0  0  0
  185.7320  178.3240  142.5540 O   0  0  0  0  0  1  0  0  0  0  0  0
  1 11  2  0  0  0  0
  3  9  1  6  0  0  0
  3  7  1  0  0  0  0
  4  3  1  0  0  0  0
  4  5  1  0  0  0  0
  5  1  1  0  0  0  0
  5  8  2  0  0  0  0
  6 33  1  0  0  0  0
  7  8  1  0  0  0  0
  8  2  1  0  0  0  0
 10  2  1  6  0  0  0
 10  6  1  0  0  0  0
 11 10  1  0  0  0  0
 12 11  1  6  0  0  0
 12 19  1  0  0  0  0
 12 10  1  0  0  0  0
 12  6  1  0  0  0  0
 13 18  1  0  0  0  0
 14 18  1  0  0  0  0
 15 20  1  6  0  0  0
 15 17  1  0  0  0  0
 15 13  1  0  0  0  0
 17 16  1  1  0  0  0
 17 19  1  0  0  0  0
 19 23  1  1  0  0  0
 19 14  1  0  0  0  0
 20 22  1  0  0  0  0
 21 20  1  0  0  0  0
 21 22  1  0  0  0  0
 23 28  1  0  0  0  0
 24 26  2  0  0  0  0
 25 26  1  0  0  0  0
 27 28  2  0  0  0  0
 27 29  1  0  0  0  0
 28 24  1  0  0  0  0
 29 25  1  0  0  0  0
 30  3  1  0  0  0  0
 30 32  1  0  0  0  0
 31 30  2  0  0  0  0
 33 34  1  0  0  0  0
M  END
>  <MODEL>
9

>  <REMARK>
 VINA RESULT:      -5.5      4.251      6.897
  Name = 
  6 active torsions:
  status: ('A' for Active; 'I' for Inactive)
    1  A    between atoms: C_1  and  C_20
    2  A    between atoms: C_1  and  C_34
    3  A    between atoms: N_3  and  C_23
    4  A    between atoms: C_7  and  C_11
    5  A    between atoms: C_8  and  N_18
    6  A    between atoms: C_33  and  C_34
                            x       y       z     vdW  Elec       q    Type
                         _______ _______ _______ _____ _____    ______ ____

>  <TORSDO>
F 6

$$$$
