=
 OpenBabel11052414373D

 32 36  0  0  1  0  0  0  0  0999 V2000
  187.0760  177.4750  143.3850 C   0  0  2  0  0  3  0  0  0  0  0  0
  189.3720  177.8310  142.3510 C   0  0  1  0  0  3  0  0  0  0  0  0
  186.1670  177.8180  144.5700 C   0  0  0  0  0  2  0  0  0  0  0  0
  188.4840  178.0590  143.6000 C   0  0  2  0  0  3  0  0  0  0  0  0
  190.1390  176.5070  142.4310 C   0  0  0  0  0  2  0  0  0  0  0  0
  188.5620  177.9130  141.0440 C   0  0  1  0  0  3  0  0  0  0  0  0
  191.4180  176.6130  143.2750 C   0  0  2  0  0  3  0  0  0  0  0  0
  189.0820  177.5070  144.9150 C   0  0  1  0  0  3  0  0  0  0  0  0
  190.4840  178.0280  145.2470 C   0  0  0  0  0  2  0  0  0  0  0  0
  188.1560  177.8230  146.0890 C   0  0  0  0  0  2  0  0  0  0  0  0
  187.3850  178.6540  141.2460 O   0  0  0  0  0  0  0  0  0  0  0  0
  191.6210  175.3560  144.1000 C   0  0  0  0  0  1  0  0  0  0  0  0
  186.5130  177.8240  141.9780 C   0  0  2  0  0  3  0  0  0  0  0  0
  191.5300  177.8840  144.1320 C   0  0  0  0  0  2  0  0  0  0  0  0
  186.7630  177.2490  145.8520 C   0  0  0  0  0  2  0  0  0  0  0  0
  182.9430  178.7710  140.6880 C   0  0  0  0  0  0  0  0  0  0  0  0
  182.2090  178.7110  139.5100 O   0  0  0  0  0  1  0  0  0  0  0  0
  185.1100  178.3670  141.9560 C   0  0  0  0  0  0  0  0  0  0  0  0
  182.3260  179.0510  141.8370 C   0  0  0  0  0  3  0  0  0  0  0  0
  184.4710  178.6340  143.1030 C   0  0  0  0  0  3  0  0  0  0  0  0
  184.3900  178.4970  140.6750 C   0  0  0  0  0  0  0  0  0  0  0  0
  184.9920  178.3280  139.5820 O   0  0  0  0  0  0  0  0  0  0  0  0
  183.0750  179.2020  143.1400 C   0  0  2  0  0  3  0  0  0  0  0  0
  180.9830  178.5080  144.2300 C   0  0  0  0  0  2  0  0  0  0  0  0
  182.3100  178.5980  144.2720 C   0  0  0  0  0  3  0  0  0  0  0  0
  189.3800  178.5750  139.9430 C   0  0  0  0  0  2  0  0  0  0  0  0
  189.2490  176.5550  138.3460 C   0  0  0  0  0  3  0  0  0  0  0  0
  188.8000  177.5690  136.5050 O   0  0  0  0  0  0  0  0  0  0  0  0
  188.8820  178.4960  137.4200 C   0  0  0  0  0  0  0  0  0  0  0  0
  188.7280  179.7270  137.2070 O   0  0  0  0  0  0  0  0  0  0  0  0
  189.1640  177.9070  138.6260 C   0  0  0  0  0  0  0  0  0  0  0  0
  189.0160  176.4230  137.0520 O   0  0  0  0  0  0  0  0  0  0  0  0
  1  4  1  0  0  0  0
  1  3  1  1  0  0  0
  2  5  1  1  0  0  0
  2  4  1  0  0  0  0
  3 15  1  0  0  0  0
  4  8  1  0  0  0  0
  5  7  1  0  0  0  0
  6 11  1  0  0  0  0
  6  2  1  0  0  0  0
  7 12  1  0  0  0  0
  7 14  1  0  0  0  0
  8  9  1  0  0  0  0
  8 10  1  0  0  0  0
 11 13  1  0  0  0  0
 13  1  1  0  0  0  0
 14  9  1  0  0  0  0
 15 10  1  0  0  0  0
 16 19  2  0  0  0  0
 17 16  1  0  0  0  0
 18 13  1  0  0  0  0
 18 20  2  0  0  0  0
 19 23  1  0  0  0  0
 20 23  1  0  0  0  0
 21 16  1  0  0  0  0
 21 18  1  0  0  0  0
 22 21  2  0  0  0  0
 23 25  1  0  0  0  0
 24 25  2  0  0  0  0
 26  6  1  0  0  0  0
 27 31  2  0  0  0  0
 28 32  1  0  0  0  0
 28 29  1  0  0  0  0
 29 31  1  0  0  0  0
 30 29  2  0  0  0  0
 31 26  1  0  0  0  0
 32 27  1  0  0  0  0
M  END
>  <MODEL>
1

>  <REMARK>
 VINA RESULT:      -9.8      0.000      0.000
  Name = 
  4 active torsions:
  status: ('A' for Active; 'I' for Inactive)
    1  A    between atoms: C_10  and  C_32
    2  A    between atoms: C_15  and  C_26
    3  A    between atoms: C_16  and  C_27
    4  A    between atoms: C_28  and  C_32
                            x       y       z     vdW  Elec       q    Type
                         _______ _______ _______ _____ _____    ______ ____

>  <TORSDO>
F 4

$$$$
=
 OpenBabel11052414373D

 32 36  0  0  1  0  0  0  0  0999 V2000
  186.9810  178.3980  142.1740 C   0  0  2  0  0  3  0  0  0  0  0  0
  188.3180  177.3100  144.0440 C   0  0  1  0  0  3  0  0  0  0  0  0
  186.6090  178.3220  140.6900 C   0  0  0  0  0  2  0  0  0  0  0  0
  188.0320  177.3280  142.5210 C   0  0  2  0  0  3  0  0  0  0  0  0
  189.4640  178.2540  144.4190 C   0  0  0  0  0  2  0  0  0  0  0  0
  187.0590  177.6250  144.8710 C   0  0  1  0  0  3  0  0  0  0  0  0
  190.8470  177.6280  144.1900 C   0  0  2  0  0  3  0  0  0  0  0  0
  189.2870  177.5250  141.6400 C   0  0  1  0  0  3  0  0  0  0  0  0
  190.4050  176.5070  141.8850 C   0  0  0  0  0  2  0  0  0  0  0  0
  188.9060  177.4810  140.1610 C   0  0  0  0  0  2  0  0  0  0  0  0
  185.9010  177.3510  144.1230 O   0  0  0  0  0  0  0  0  0  0  0  0
  191.8200  178.6600  143.6490 C   0  0  0  0  0  1  0  0  0  0  0  0
  185.7880  178.3840  143.1710 C   0  0  2  0  0  3  0  0  0  0  0  0
  190.8500  176.3430  143.3460 C   0  0  0  0  0  2  0  0  0  0  0  0
  187.8550  178.5380  139.8390 C   0  0  0  0  0  2  0  0  0  0  0  0
  182.0060  179.1950  142.5820 C   0  0  0  0  0  0  0  0  0  0  0  0
  180.9780  179.8880  143.2070 O   0  0  0  0  0  1  0  0  0  0  0  0
  184.4190  178.3910  142.5470 C   0  0  0  0  0  0  0  0  0  0  0  0
  181.8530  178.7780  141.3240 C   0  0  0  0  0  3  0  0  0  0  0  0
  184.2530  177.9940  141.2790 C   0  0  0  0  0  3  0  0  0  0  0  0
  183.2730  178.9470  143.2920 C   0  0  0  0  0  0  0  0  0  0  0  0
  183.3870  179.2530  144.5080 O   0  0  0  0  0  0  0  0  0  0  0  0
  182.9020  177.9580  140.6110 C   0  0  2  0  0  3  0  0  0  0  0  0
  183.5610  179.5510  138.8570 C   0  0  0  0  0  2  0  0  0  0  0  0
  183.0300  178.3740  139.1820 C   0  0  0  0  0  3  0  0  0  0  0  0
  187.0300  176.7950  146.1480 C   0  0  0  0  0  2  0  0  0  0  0  0
  187.2650  178.5350  148.0370 C   0  0  0  0  0  3  0  0  0  0  0  0
  189.2650  178.0990  148.6930 O   0  0  0  0  0  0  0  0  0  0  0  0
  189.0090  177.2610  147.7250 C   0  0  0  0  0  0  0  0  0  0  0  0
  189.8160  176.3950  147.2970 O   0  0  0  0  0  0  0  0  0  0  0  0
  187.7370  177.4880  147.2660 C   0  0  0  0  0  0  0  0  0  0  0  0
  188.2340  178.8510  148.8770 O   0  0  0  0  0  0  0  0  0  0  0  0
  1  3  1  6  0  0  0
  1  4  1  0  0  0  0
  1 13  1  0  0  0  0
  2  5  1  6  0  0  0
  2  6  1  0  0  0  0
  4  2  1  0  0  0  0
  6 26  1  0  0  0  0
  7  5  1  0  0  0  0
  8  9  1  0  0  0  0
  8  4  1  0  0  0  0
  9 14  1  0  0  0  0
 10  8  1  0  0  0  0
 11  6  1  0  0  0  0
 12  7  1  0  0  0  0
 13 11  1  0  0  0  0
 14  7  1  0  0  0  0
 15 10  1  0  0  0  0
 15  3  1  0  0  0  0
 16 17  1  0  0  0  0
 16 21  1  0  0  0  0
 18 13  1  0  0  0  0
 18 21  1  0  0  0  0
 19 16  2  0  0  0  0
 20 18  2  0  0  0  0
 21 22  2  0  0  0  0
 23 20  1  0  0  0  0
 23 19  1  0  0  0  0
 24 25  2  0  0  0  0
 25 23  1  0  0  0  0
 26 31  1  0  0  0  0
 27 32  1  0  0  0  0
 28 32  1  0  0  0  0
 29 28  1  0  0  0  0
 30 29  2  0  0  0  0
 31 29  1  0  0  0  0
 31 27  2  0  0  0  0
M  END
>  <MODEL>
2

>  <REMARK>
 VINA RESULT:      -9.6      2.946      5.743
  Name = 
  4 active torsions:
  status: ('A' for Active; 'I' for Inactive)
    1  A    between atoms: C_10  and  C_32
    2  A    between atoms: C_15  and  C_26
    3  A    between atoms: C_16  and  C_27
    4  A    between atoms: C_28  and  C_32
                            x       y       z     vdW  Elec       q    Type
                         _______ _______ _______ _____ _____    ______ ____

>  <TORSDO>
F 4

$$$$
=
 OpenBabel11052414373D

 32 36  0  0  1  0  0  0  0  0999 V2000
  189.6410  177.8810  143.5550 C   0  0  2  0  0  3  0  0  0  0  0  0
  187.7970  177.3380  145.2200 C   0  0  1  0  0  3  0  0  0  0  0  0
  191.0140  177.4590  143.0230 C   0  0  0  0  0  2  0  0  0  0  0  0
  189.2380  177.0090  144.7580 C   0  0  2  0  0  3  0  0  0  0  0  0
  187.7780  178.4410  146.2830 C   0  0  0  0  0  2  0  0  0  0  0  0
  186.8810  177.7050  144.0380 C   0  0  1  0  0  3  0  0  0  0  0  0
  188.0690  177.9090  147.6940 C   0  0  2  0  0  3  0  0  0  0  0  0
  190.3070  177.1290  145.8690 C   0  0  1  0  0  3  0  0  0  0  0  0
  190.0230  176.2910  147.1200 C   0  0  0  0  0  2  0  0  0  0  0  0
  191.6810  176.7390  145.3260 C   0  0  0  0  0  2  0  0  0  0  0  0
  187.3930  177.1740  142.8420 O   0  0  0  0  0  0  0  0  0  0  0  0
  188.9320  178.8880  148.4690 C   0  0  0  0  0  1  0  0  0  0  0  0
  188.5040  177.9680  142.4970 C   0  0  2  0  0  3  0  0  0  0  0  0
  188.6350  176.4810  147.7490 C   0  0  0  0  0  2  0  0  0  0  0  0
  192.0560  177.6040  144.1260 C   0  0  0  0  0  2  0  0  0  0  0  0
  188.6900  178.2680  138.6000 C   0  0  0  0  0  0  0  0  0  0  0  0
  188.0580  178.9610  137.5760 O   0  0  0  0  0  1  0  0  0  0  0  0
  188.9210  177.7190  141.0730 C   0  0  0  0  0  0  0  0  0  0  0  0
  189.8210  177.6060  138.3510 C   0  0  0  0  0  3  0  0  0  0  0  0
  190.0640  177.0730  140.8070 C   0  0  0  0  0  3  0  0  0  0  0  0
  188.1330  178.2880  139.9630 C   0  0  0  0  0  0  0  0  0  0  0  0
  187.0180  178.8300  140.1830 O   0  0  0  0  0  0  0  0  0  0  0  0
  190.5190  176.7750  139.4020 C   0  0  2  0  0  3  0  0  0  0  0  0
  192.6790  176.3780  138.2950 C   0  0  0  0  0  2  0  0  0  0  0  0
  192.0020  176.9220  139.3040 C   0  0  0  0  0  3  0  0  0  0  0  0
  185.4750  177.1640  144.2570 C   0  0  0  0  0  2  0  0  0  0  0  0
  183.9150  178.6270  142.8160 C   0  0  0  0  0  3  0  0  0  0  0  0
  183.0210  179.8370  144.3510 O   0  0  0  0  0  0  0  0  0  0  0  0
  183.8410  179.0240  144.9600 C   0  0  0  0  0  0  0  0  0  0  0  0
  184.0360  179.0030  146.2040 O   0  0  0  0  0  0  0  0  0  0  0  0
  184.4420  178.2180  144.0270 C   0  0  0  0  0  0  0  0  0  0  0  0
  183.0640  179.6010  143.0850 O   0  0  0  0  0  0  0  0  0  0  0  0
  1  3  1  6  0  0  0
  1  4  1  0  0  0  0
  2  5  1  1  0  0  0
  3 15  1  0  0  0  0
  4  2  1  0  0  0  0
  4  8  1  0  0  0  0
  5  7  1  0  0  0  0
  6 26  1  0  0  0  0
  6  2  1  0  0  0  0
  7 14  1  0  0  0  0
  7 12  1  0  0  0  0
  8  9  1  0  0  0  0
  9 14  1  0  0  0  0
 10  8  1  0  0  0  0
 11  6  1  0  0  0  0
 13 11  1  0  0  0  0
 13  1  1  0  0  0  0
 15 10  1  0  0  0  0
 16 21  1  0  0  0  0
 17 16  1  0  0  0  0
 18 13  1  0  0  0  0
 19 16  2  0  0  0  0
 19 23  1  0  0  0  0
 20 18  2  0  0  0  0
 21 22  2  0  0  0  0
 21 18  1  0  0  0  0
 23 20  1  0  0  0  0
 24 25  2  0  0  0  0
 25 23  1  0  0  0  0
 27 32  1  0  0  0  0
 27 31  2  0  0  0  0
 28 29  1  0  0  0  0
 29 30  2  0  0  0  0
 31 26  1  0  0  0  0
 31 29  1  0  0  0  0
 32 28  1  0  0  0  0
M  END
>  <MODEL>
3

>  <REMARK>
 VINA RESULT:      -9.5      2.154      6.477
  Name = 
  4 active torsions:
  status: ('A' for Active; 'I' for Inactive)
    1  A    between atoms: C_10  and  C_32
    2  A    between atoms: C_15  and  C_26
    3  A    between atoms: C_16  and  C_27
    4  A    between atoms: C_28  and  C_32
                            x       y       z     vdW  Elec       q    Type
                         _______ _______ _______ _____ _____    ______ ____

>  <TORSDO>
F 4

$$$$
=
 OpenBabel11052414373D

 32 36  0  0  1  0  0  0  0  0999 V2000
  184.8730  178.9850  141.8050 C   0  0  2  0  0  3  0  0  0  0  0  0
  184.2240  178.6970  139.3620 C   0  0  1  0  0  3  0  0  0  0  0  0
  184.5440  178.5820  143.2460 C   0  0  0  0  0  2  0  0  0  0  0  0
  183.8290  178.4070  140.8320 C   0  0  2  0  0  3  0  0  0  0  0  0
  183.6400  180.0240  138.8670 C   0  0  0  0  0  2  0  0  0  0  0  0
  185.7490  178.6630  139.1570 C   0  0  1  0  0  3  0  0  0  0  0  0
  182.1800  179.8950  138.4100 C   0  0  2  0  0  3  0  0  0  0  0  0
  182.4190  178.9070  141.2230 C   0  0  1  0  0  3  0  0  0  0  0  0
  181.2870  178.3870  140.3310 C   0  0  0  0  0  2  0  0  0  0  0  0
  182.1080  178.5320  142.6710 C   0  0  0  0  0  2  0  0  0  0  0  0
  186.3610  177.9020  140.1690 O   0  0  0  0  0  0  0  0  0  0  0  0
  181.3800  181.1180  138.8200 C   0  0  0  0  0  1  0  0  0  0  0  0
  186.3260  178.6910  141.3360 C   0  0  2  0  0  3  0  0  0  0  0  0
  181.4800  178.5890  138.8220 C   0  0  0  0  0  2  0  0  0  0  0  0
  183.1600  179.1010  143.6180 C   0  0  0  0  0  2  0  0  0  0  0  0
  189.6130  177.7830  143.2550 C   0  0  0  0  0  0  0  0  0  0  0  0
  190.9860  177.9050  143.0870 O   0  0  0  0  0  1  0  0  0  0  0  0
  187.2480  178.1350  142.3870 C   0  0  0  0  0  0  0  0  0  0  0  0
  189.1210  177.4290  144.4430 C   0  0  0  0  0  3  0  0  0  0  0  0
  186.7710  177.7940  143.5910 C   0  0  0  0  0  3  0  0  0  0  0  0
  188.7010  178.0730  142.1360 C   0  0  0  0  0  0  0  0  0  0  0  0
  189.1630  178.3130  140.9890 O   0  0  0  0  0  0  0  0  0  0  0  0
  187.6440  177.2100  144.6730 C   0  0  2  0  0  3  0  0  0  0  0  0
  185.9520  178.0450  146.2500 C   0  0  0  0  0  2  0  0  0  0  0  0
  187.2240  177.7380  146.0060 C   0  0  0  0  0  3  0  0  0  0  0  0
  186.0980  178.0570  137.8040 C   0  0  0  0  0  2  0  0  0  0  0  0
  188.0940  176.4240  137.8760 C   0  0  0  0  0  3  0  0  0  0  0  0
  189.7120  177.8070  137.5740 O   0  0  0  0  0  0  0  0  0  0  0  0
  188.6170  178.5170  137.5460 C   0  0  0  0  0  0  0  0  0  0  0  0
  188.5770  179.7640  137.3800 O   0  0  0  0  0  0  0  0  0  0  0  0
  187.5430  177.6850  137.7290 C   0  0  0  0  0  0  0  0  0  0  0  0
  189.4020  176.5710  137.7680 O   0  0  0  0  0  0  0  0  0  0  0  0
  1  3  1  1  0  0  0
  2  5  1  1  0  0  0
  2  4  1  0  0  0  0
  3 15  1  0  0  0  0
  4  8  1  0  0  0  0
  4  1  1  0  0  0  0
  6  2  1  0  0  0  0
  6 11  1  0  0  0  0
  7 12  1  0  0  0  0
  7 14  1  0  0  0  0
  7  5  1  0  0  0  0
  8 10  1  0  0  0  0
  9  8  1  0  0  0  0
 10 15  1  0  0  0  0
 11 13  1  0  0  0  0
 13  1  1  0  0  0  0
 13 18  1  0  0  0  0
 14  9  1  0  0  0  0
 16 19  2  0  0  0  0
 17 16  1  0  0  0  0
 18 20  2  0  0  0  0
 19 23  1  0  0  0  0
 20 23  1  0  0  0  0
 21 18  1  0  0  0  0
 21 16  1  0  0  0  0
 22 21  2  0  0  0  0
 23 25  1  0  0  0  0
 25 24  2  0  0  0  0
 26  6  1  0  0  0  0
 28 32  1  0  0  0  0
 29 28  1  0  0  0  0
 29 31  1  0  0  0  0
 30 29  2  0  0  0  0
 31 26  1  0  0  0  0
 31 27  2  0  0  0  0
 32 27  1  0  0  0  0
M  END
>  <MODEL>
4

>  <REMARK>
 VINA RESULT:      -9.3      1.645      6.060
  Name = 
  4 active torsions:
  status: ('A' for Active; 'I' for Inactive)
    1  A    between atoms: C_10  and  C_32
    2  A    between atoms: C_15  and  C_26
    3  A    between atoms: C_16  and  C_27
    4  A    between atoms: C_28  and  C_32
                            x       y       z     vdW  Elec       q    Type
                         _______ _______ _______ _____ _____    ______ ____

>  <TORSDO>
F 4

$$$$
=
 OpenBabel11052414373D

 32 36  0  0  1  0  0  0  0  0999 V2000
  188.5340  178.3200  143.2250 C   0  0  2  0  0  3  0  0  0  0  0  0
  186.1590  178.0780  144.1010 C   0  0  1  0  0  3  0  0  0  0  0  0
  189.9600  177.7650  143.2970 C   0  0  0  0  0  2  0  0  0  0  0  0
  187.6300  177.6180  144.2540 C   0  0  2  0  0  3  0  0  0  0  0  0
  185.8490  179.2970  144.9750 C   0  0  0  0  0  2  0  0  0  0  0  0
  185.7910  178.3530  142.6310 C   0  0  1  0  0  3  0  0  0  0  0  0
  185.5390  178.9180  146.4310 C   0  0  2  0  0  3  0  0  0  0  0  0
  188.2120  177.8080  145.6740 C   0  0  1  0  0  3  0  0  0  0  0  0
  187.4030  177.1400  146.7900 C   0  0  0  0  0  2  0  0  0  0  0  0
  189.6460  177.2830  145.7330 C   0  0  0  0  0  2  0  0  0  0  0  0
  186.6600  177.6590  141.7720 O   0  0  0  0  0  0  0  0  0  0  0  0
  186.1390  179.9320  147.3880 C   0  0  0  0  0  1  0  0  0  0  0  0
  187.8900  178.3460  141.8100 C   0  0  2  0  0  3  0  0  0  0  0  0
  185.9050  177.4770  146.8220 C   0  0  0  0  0  2  0  0  0  0  0  0
  190.5220  177.9800  144.6970 C   0  0  0  0  0  2  0  0  0  0  0  0
  189.3980  178.0150  138.2150 C   0  0  0  0  0  0  0  0  0  0  0  0
  189.1300  178.4590  136.9270 O   0  0  0  0  0  1  0  0  0  0  0  0
  188.7830  177.9090  140.6810 C   0  0  0  0  0  0  0  0  0  0  0  0
  190.5720  177.4420  138.4870 C   0  0  0  0  0  3  0  0  0  0  0  0
  189.9730  177.3510  140.9390 C   0  0  0  0  0  3  0  0  0  0  0  0
  188.4040  178.2020  139.2850 C   0  0  0  0  0  0  0  0  0  0  0  0
  187.2600  178.6530  139.0140 O   0  0  0  0  0  0  0  0  0  0  0  0
  190.8980  176.8740  139.8480 C   0  0  2  0  0  3  0  0  0  0  0  0
  193.2840  177.1210  139.3100 C   0  0  0  0  0  2  0  0  0  0  0  0
  192.3160  177.1570  140.2230 C   0  0  0  0  0  3  0  0  0  0  0  0
  184.3600  177.9190  142.3430 C   0  0  0  0  0  2  0  0  0  0  0  0
  184.4980  179.3620  140.2100 C   0  0  0  0  0  3  0  0  0  0  0  0
  182.4110  179.4860  139.7120 O   0  0  0  0  0  0  0  0  0  0  0  0
  182.4850  178.7540  140.7910 C   0  0  0  0  0  0  0  0  0  0  0  0
  181.4940  178.2530  141.3850 O   0  0  0  0  0  0  0  0  0  0  0  0
  183.8010  178.6350  141.1570 C   0  0  0  0  0  0  0  0  0  0  0  0
  183.6000  179.8440  139.3690 O   0  0  0  0  0  0  0  0  0  0  0  0
  1  3  1  6  0  0  0
  1  4  1  0  0  0  0
  2  4  1  0  0  0  0
  2  5  1  1  0  0  0
  3 15  1  0  0  0  0
  4  8  1  0  0  0  0
  5  7  1  0  0  0  0
  6  2  1  0  0  0  0
  7 14  1  0  0  0  0
  7 12  1  0  0  0  0
  8 10  1  0  0  0  0
  8  9  1  0  0  0  0
  9 14  1  0  0  0  0
 11 13  1  0  0  0  0
 11  6  1  0  0  0  0
 13  1  1  0  0  0  0
 15 10  1  0  0  0  0
 16 19  2  0  0  0  0
 16 21  1  0  0  0  0
 17 16  1  0  0  0  0
 18 20  2  0  0  0  0
 18 13  1  0  0  0  0
 19 23  1  0  0  0  0
 21 18  1  0  0  0  0
 22 21  2  0  0  0  0
 23 25  1  0  0  0  0
 23 20  1  0  0  0  0
 24 25  2  0  0  0  0
 26  6  1  0  0  0  0
 27 31  2  0  0  0  0
 28 29  1  0  0  0  0
 29 31  1  0  0  0  0
 29 30  2  0  0  0  0
 31 26  1  0  0  0  0
 32 28  1  0  0  0  0
 32 27  1  0  0  0  0
M  END
>  <MODEL>
5

>  <REMARK>
 VINA RESULT:      -8.6      1.620      6.186
  Name = 
  4 active torsions:
  status: ('A' for Active; 'I' for Inactive)
    1  A    between atoms: C_10  and  C_32
    2  A    between atoms: C_15  and  C_26
    3  A    between atoms: C_16  and  C_27
    4  A    between atoms: C_28  and  C_32
                            x       y       z     vdW  Elec       q    Type
                         _______ _______ _______ _____ _____    ______ ____

>  <TORSDO>
F 4

$$$$
=
 OpenBabel11052414373D

 32 36  0  0  1  0  0  0  0  0999 V2000
  186.4690  177.8070  144.1880 C   0  0  2  0  0  3  0  0  0  0  0  0
  188.5390  177.8570  145.6640 C   0  0  1  0  0  3  0  0  0  0  0  0
  185.1480  178.5100  143.8560 C   0  0  0  0  0  2  0  0  0  0  0  0
  187.1430  178.4740  145.4010 C   0  0  2  0  0  3  0  0  0  0  0  0
  188.4640  176.6680  146.6280 C   0  0  0  0  0  2  0  0  0  0  0  0
  189.2480  177.4560  144.3580 C   0  0  1  0  0  3  0  0  0  0  0  0
  188.4190  177.1000  148.1000 C   0  0  2  0  0  3  0  0  0  0  0  0
  186.1890  178.4320  146.6170 C   0  0  1  0  0  3  0  0  0  0  0  0
  186.7460  179.0800  147.8880 C   0  0  0  0  0  2  0  0  0  0  0  0
  184.8610  179.1040  146.2700 C   0  0  0  0  0  2  0  0  0  0  0  0
  188.7240  178.1820  143.2750 O   0  0  0  0  0  0  0  0  0  0  0  0
  187.4750  176.2140  148.8910 C   0  0  0  0  0  1  0  0  0  0  0  0
  187.4570  177.6290  143.0010 C   0  0  2  0  0  3  0  0  0  0  0  0
  188.1320  178.5930  148.3330 C   0  0  0  0  0  2  0  0  0  0  0  0
  184.2150  178.4390  145.0590 C   0  0  0  0  0  2  0  0  0  0  0  0
  187.2270  178.1700  139.1330 C   0  0  0  0  0  0  0  0  0  0  0  0
  187.9700  177.8870  137.9940 O   0  0  0  0  0  1  0  0  0  0  0  0
  186.9500  178.0860  141.6600 C   0  0  0  0  0  0  0  0  0  0  0  0
  185.9670  178.5910  139.0120 C   0  0  0  0  0  3  0  0  0  0  0  0
  185.6820  178.4920  141.5200 C   0  0  0  0  0  3  0  0  0  0  0  0
  187.8150  177.9760  140.4690 C   0  0  0  0  0  0  0  0  0  0  0  0
  189.0310  177.6720  140.5870 O   0  0  0  0  0  0  0  0  0  0  0  0
  185.1280  178.9820  140.2070 C   0  0  2  0  0  3  0  0  0  0  0  0
  183.4060  177.5540  139.1860 C   0  0  0  0  0  2  0  0  0  0  0  0
  183.7160  178.5220  140.0460 C   0  0  0  0  0  3  0  0  0  0  0  0
  190.7450  177.7220  144.4530 C   0  0  0  0  0  2  0  0  0  0  0  0
  191.8350  175.4130  144.0910 C   0  0  0  0  0  3  0  0  0  0  0  0
  192.5190  175.0110  146.0890 O   0  0  0  0  0  0  0  0  0  0  0  0
  191.9460  176.1840  146.1300 C   0  0  0  0  0  0  0  0  0  0  0  0
  191.8370  176.8910  147.1650 O   0  0  0  0  0  0  0  0  0  0  0  0
  191.4910  176.4990  144.8750 C   0  0  0  0  0  0  0  0  0  0  0  0
  192.4530  174.5560  144.8850 O   0  0  0  0  0  0  0  0  0  0  0  0
  1  3  1  6  0  0  0
  1  4  1  0  0  0  0
  2  5  1  1  0  0  0
  3 15  1  0  0  0  0
  4  2  1  0  0  0  0
  4  8  1  0  0  0  0
  5  7  1  0  0  0  0
  6 26  1  0  0  0  0
  6  2  1  0  0  0  0
  7 14  1  0  0  0  0
  7 12  1  0  0  0  0
  8  9  1  0  0  0  0
  9 14  1  0  0  0  0
 10  8  1  0  0  0  0
 11  6  1  0  0  0  0
 13 11  1  0  0  0  0
 13  1  1  0  0  0  0
 15 10  1  0  0  0  0
 16 21  1  0  0  0  0
 17 16  1  0  0  0  0
 18 13  1  0  0  0  0
 19 16  2  0  0  0  0
 19 23  1  0  0  0  0
 20 18  2  0  0  0  0
 21 22  2  0  0  0  0
 21 18  1  0  0  0  0
 23 20  1  0  0  0  0
 24 25  2  0  0  0  0
 25 23  1  0  0  0  0
 26 31  1  0  0  0  0
 27 31  2  0  0  0  0
 27 32  1  0  0  0  0
 28 29  1  0  0  0  0
 29 30  2  0  0  0  0
 31 29  1  0  0  0  0
 32 28  1  0  0  0  0
M  END
>  <MODEL>
6

>  <REMARK>
 VINA RESULT:      -8.6      2.855      5.322
  Name = 
  4 active torsions:
  status: ('A' for Active; 'I' for Inactive)
    1  A    between atoms: C_10  and  C_32
    2  A    between atoms: C_15  and  C_26
    3  A    between atoms: C_16  and  C_27
    4  A    between atoms: C_28  and  C_32
                            x       y       z     vdW  Elec       q    Type
                         _______ _______ _______ _____ _____    ______ ____

>  <TORSDO>
F 4

$$$$
=
 OpenBabel11052414373D

 32 36  0  0  1  0  0  0  0  0999 V2000
  187.7540  178.4170  140.9260 C   0  0  2  0  0  3  0  0  0  0  0  0
  188.4090  177.3550  138.7100 C   0  0  1  0  0  3  0  0  0  0  0  0
  186.6240  178.5990  141.9440 C   0  0  0  0  0  2  0  0  0  0  0  0
  187.2460  177.6590  139.6860 C   0  0  2  0  0  3  0  0  0  0  0  0
  188.6000  178.4770  137.6840 C   0  0  0  0  0  2  0  0  0  0  0  0
  189.7260  177.0670  139.4530 C   0  0  1  0  0  3  0  0  0  0  0  0
  187.6280  178.3680  136.5000 C   0  0  2  0  0  3  0  0  0  0  0  0
  186.0670  178.4310  139.0510 C   0  0  1  0  0  3  0  0  0  0  0  0
  185.4630  177.7660  137.8090 C   0  0  0  0  0  2  0  0  0  0  0  0
  184.9550  178.6390  140.0780 C   0  0  0  0  0  2  0  0  0  0  0  0
  189.4630  176.6510  140.7700 O   0  0  0  0  0  0  0  0  0  0  0  0
  187.1460  179.7430  136.0740 C   0  0  0  0  0  1  0  0  0  0  0  0
  189.0710  177.8030  141.4800 C   0  0  2  0  0  3  0  0  0  0  0  0
  186.4590  177.3910  136.7030 C   0  0  0  0  0  2  0  0  0  0  0  0
  185.4810  179.3790  141.3050 C   0  0  0  0  0  2  0  0  0  0  0  0
  190.4120  177.4480  145.1390 C   0  0  0  0  0  0  0  0  0  0  0  0
  191.6220  177.5160  145.8170 O   0  0  0  0  0  1  0  0  0  0  0  0
  189.0970  177.5540  142.9630 C   0  0  0  0  0  0  0  0  0  0  0  0
  189.2680  177.4340  145.8250 C   0  0  0  0  0  3  0  0  0  0  0  0
  187.9590  177.5570  143.6690 C   0  0  0  0  0  3  0  0  0  0  0  0
  190.3880  177.4230  143.6660 C   0  0  0  0  0  0  0  0  0  0  0  0
  191.4640  177.3390  143.0180 O   0  0  0  0  0  0  0  0  0  0  0  0
  187.9230  177.2890  145.1520 C   0  0  2  0  0  3  0  0  0  0  0  0
  185.6430  178.1850  145.3660 C   0  0  0  0  0  2  0  0  0  0  0  0
  186.9010  178.1620  145.8030 C   0  0  0  0  0  3  0  0  0  0  0  0
  190.5210  175.9800  138.7420 C   0  0  0  0  0  2  0  0  0  0  0  0
  192.7610  176.9980  139.5160 C   0  0  0  0  0  3  0  0  0  0  0  0
  193.9310  176.7100  137.7360 O   0  0  0  0  0  0  0  0  0  0  0  0
  192.7510  176.2150  137.4790 C   0  0  0  0  0  0  0  0  0  0  0  0
  192.4180  175.6920  136.3840 O   0  0  0  0  0  0  0  0  0  0  0  0
  191.9550  176.3660  138.5860 C   0  0  0  0  0  0  0  0  0  0  0  0
  193.9370  177.1720  138.9400 O   0  0  0  0  0  0  0  0  0  0  0  0
  1 13  1  0  0  0  0
  1  3  1  1  0  0  0
  2  5  1  6  0  0  0
  2  6  1  0  0  0  0
  2  4  1  0  0  0  0
  4  1  1  0  0  0  0
  6 11  1  0  0  0  0
  7 14  1  0  0  0  0
  7  5  1  0  0  0  0
  8  4  1  0  0  0  0
  8 10  1  0  0  0  0
  9  8  1  0  0  0  0
 10 15  1  0  0  0  0
 11 13  1  0  0  0  0
 12  7  1  0  0  0  0
 13 18  1  0  0  0  0
 14  9  1  0  0  0  0
 15  3  1  0  0  0  0
 16 17  1  0  0  0  0
 16 19  2  0  0  0  0
 18 21  1  0  0  0  0
 18 20  2  0  0  0  0
 20 23  1  0  0  0  0
 21 16  1  0  0  0  0
 22 21  2  0  0  0  0
 23 25  1  0  0  0  0
 23 19  1  0  0  0  0
 24 25  2  0  0  0  0
 26  6  1  0  0  0  0
 28 32  1  0  0  0  0
 29 28  1  0  0  0  0
 29 31  1  0  0  0  0
 30 29  2  0  0  0  0
 31 26  1  0  0  0  0
 31 27  2  0  0  0  0
 32 27  1  0  0  0  0
M  END
>  <MODEL>
7

>  <REMARK>
 VINA RESULT:      -8.5      2.704      6.040
  Name = 
  4 active torsions:
  status: ('A' for Active; 'I' for Inactive)
    1  A    between atoms: C_10  and  C_32
    2  A    between atoms: C_15  and  C_26
    3  A    between atoms: C_16  and  C_27
    4  A    between atoms: C_28  and  C_32
                            x       y       z     vdW  Elec       q    Type
                         _______ _______ _______ _____ _____    ______ ____

>  <TORSDO>
F 4

$$$$
=
 OpenBabel11052414373D

 32 36  0  0  1  0  0  0  0  0999 V2000
  188.3060  177.2480  142.0850 C   0  0  2  0  0  3  0  0  0  0  0  0
  187.2530  178.2750  140.0100 C   0  0  1  0  0  3  0  0  0  0  0  0
  189.5700  177.1830  142.9480 C   0  0  0  0  0  2  0  0  0  0  0  0
  188.5590  178.0930  140.8230 C   0  0  2  0  0  3  0  0  0  0  0  0
  187.0690  177.1630  138.9720 C   0  0  0  0  0  2  0  0  0  0  0  0
  186.0160  178.3800  140.9210 C   0  0  1  0  0  3  0  0  0  0  0  0
  187.8630  177.4200  137.6830 C   0  0  2  0  0  3  0  0  0  0  0  0
  189.7310  177.4880  140.0180 C   0  0  1  0  0  3  0  0  0  0  0  0
  190.0890  178.2530  138.7390 C   0  0  0  0  0  2  0  0  0  0  0  0
  190.9810  177.3940  140.8920 C   0  0  0  0  0  2  0  0  0  0  0  0
  186.3930  178.7930  142.2100 O   0  0  0  0  0  0  0  0  0  0  0  0
  188.4470  176.1260  137.1470 C   0  0  0  0  0  1  0  0  0  0  0  0
  187.0060  177.6820  142.8210 C   0  0  2  0  0  3  0  0  0  0  0  0
  188.9230  178.5290  137.7790 C   0  0  0  0  0  2  0  0  0  0  0  0
  190.7070  176.5650  142.1430 C   0  0  0  0  0  2  0  0  0  0  0  0
  186.0340  178.2010  146.5750 C   0  0  0  0  0  0  0  0  0  0  0  0
  184.8890  178.3620  147.3440 O   0  0  0  0  0  1  0  0  0  0  0  0
  187.1390  177.8900  144.3050 C   0  0  0  0  0  0  0  0  0  0  0  0
  187.2030  177.9620  147.1730 C   0  0  0  0  0  3  0  0  0  0  0  0
  188.3000  177.6350  144.9220 C   0  0  0  0  0  3  0  0  0  0  0  0
  185.9570  178.2620  145.1060 C   0  0  0  0  0  0  0  0  0  0  0  0
  184.8770  178.5810  144.5430 O   0  0  0  0  0  0  0  0  0  0  0  0
  188.4970  177.8480  146.4010 C   0  0  2  0  0  3  0  0  0  0  0  0
  190.6740  176.7530  146.7300 C   0  0  0  0  0  2  0  0  0  0  0  0
  189.3630  176.7680  146.9610 C   0  0  0  0  0  3  0  0  0  0  0  0
  185.0130  179.3780  140.3560 C   0  0  0  0  0  2  0  0  0  0  0  0
  183.2910  178.3100  138.7600 C   0  0  0  0  0  3  0  0  0  0  0  0
  181.7170  177.8720  140.1570 O   0  0  0  0  0  0  0  0  0  0  0  0
  182.6790  178.4160  140.8520 C   0  0  0  0  0  0  0  0  0  0  0  0
  182.6340  178.6270  142.0920 O   0  0  0  0  0  0  0  0  0  0  0  0
  183.7200  178.7160  140.0110 C   0  0  0  0  0  0  0  0  0  0  0  0
  182.0800  177.8090  138.9220 O   0  0  0  0  0  0  0  0  0  0  0  0
  1 13  1  0  0  0  0
  1  3  1  1  0  0  0
  2  5  1  6  0  0  0
  2  4  1  0  0  0  0
  2  6  1  0  0  0  0
  4  1  1  0  0  0  0
  6 11  1  0  0  0  0
  7 14  1  0  0  0  0
  7  5  1  0  0  0  0
  8  4  1  0  0  0  0
  8 10  1  0  0  0  0
  9  8  1  0  0  0  0
 10 15  1  0  0  0  0
 11 13  1  0  0  0  0
 12  7  1  0  0  0  0
 13 18  1  0  0  0  0
 14  9  1  0  0  0  0
 15  3  1  0  0  0  0
 16 19  2  0  0  0  0
 16 17  1  0  0  0  0
 18 20  2  0  0  0  0
 18 21  1  0  0  0  0
 20 23  1  0  0  0  0
 21 16  1  0  0  0  0
 22 21  2  0  0  0  0
 23 25  1  0  0  0  0
 23 19  1  0  0  0  0
 24 25  2  0  0  0  0
 26  6  1  0  0  0  0
 27 32  1  0  0  0  0
 27 31  2  0  0  0  0
 28 29  1  0  0  0  0
 29 30  2  0  0  0  0
 31 26  1  0  0  0  0
 31 29  1  0  0  0  0
 32 28  1  0  0  0  0
M  END
>  <MODEL>
8

>  <REMARK>
 VINA RESULT:      -8.5      2.473      5.912
  Name = 
  4 active torsions:
  status: ('A' for Active; 'I' for Inactive)
    1  A    between atoms: C_10  and  C_32
    2  A    between atoms: C_15  and  C_26
    3  A    between atoms: C_16  and  C_27
    4  A    between atoms: C_28  and  C_32
                            x       y       z     vdW  Elec       q    Type
                         _______ _______ _______ _____ _____    ______ ____

>  <TORSDO>
F 4

$$$$
=
 OpenBabel11052414373D

 32 36  0  0  1  0  0  0  0  0999 V2000
  189.6710  178.1490  143.3950 C   0  0  2  0  0  3  0  0  0  0  0  0
  187.7330  177.4470  144.8860 C   0  0  1  0  0  3  0  0  0  0  0  0
  191.1110  177.8340  142.9800 C   0  0  0  0  0  2  0  0  0  0  0  0
  189.2290  177.2270  144.5460 C   0  0  2  0  0  3  0  0  0  0  0  0
  187.5460  178.5240  145.9590 C   0  0  0  0  0  2  0  0  0  0  0  0
  186.8990  177.7740  143.6340 C   0  0  1  0  0  3  0  0  0  0  0  0
  187.7510  177.9850  147.3820 C   0  0  2  0  0  3  0  0  0  0  0  0
  190.1870  177.3970  145.7480 C   0  0  1  0  0  3  0  0  0  0  0  0
  189.8550  176.5160  146.9570 C   0  0  0  0  0  2  0  0  0  0  0  0
  191.6260  177.1140  145.3210 C   0  0  0  0  0  2  0  0  0  0  0  0
  187.5480  177.3050  142.4790 O   0  0  0  0  0  0  0  0  0  0  0  0
  188.4740  179.0040  148.2430 C   0  0  0  0  0  1  0  0  0  0  0  0
  188.6270  178.1800  142.2440 C   0  0  2  0  0  3  0  0  0  0  0  0
  188.4090  176.5970  147.4650 C   0  0  0  0  0  2  0  0  0  0  0  0
  192.0420  178.0270  144.1720 C   0  0  0  0  0  2  0  0  0  0  0  0
  190.2430  176.4670  139.1200 C   0  0  0  0  0  0  0  0  0  0  0  0
  190.7860  175.2370  138.7690 O   0  0  0  0  0  1  0  0  0  0  0  0
  189.1810  177.9900  140.8580 C   0  0  0  0  0  0  0  0  0  0  0  0
  189.9710  177.3650  138.1720 C   0  0  0  0  0  3  0  0  0  0  0  0
  188.9000  178.8730  139.8910 C   0  0  0  0  0  3  0  0  0  0  0  0
  189.9390  176.7680  140.5290 C   0  0  0  0  0  0  0  0  0  0  0  0
  190.2820  175.9630  141.4360 O   0  0  0  0  0  0  0  0  0  0  0  0
  189.4470  178.7450  138.4930 C   0  0  2  0  0  3  0  0  0  0  0  0
  187.7400  178.2740  136.7860 C   0  0  0  0  0  2  0  0  0  0  0  0
  188.4150  179.1720  137.5010 C   0  0  0  0  0  3  0  0  0  0  0  0
  185.5210  177.1340  143.7210 C   0  0  0  0  0  2  0  0  0  0  0  0
  183.8120  178.5870  142.4480 C   0  0  0  0  0  3  0  0  0  0  0  0
  182.9810  179.7000  144.0880 O   0  0  0  0  0  0  0  0  0  0  0  0
  183.8700  178.8980  144.6070 C   0  0  0  0  0  0  0  0  0  0  0  0
  184.1510  178.8380  145.8330 O   0  0  0  0  0  0  0  0  0  0  0  0
  184.4360  178.1540  143.6040 C   0  0  0  0  0  0  0  0  0  0  0  0
  182.9460  179.5160  142.8130 O   0  0  0  0  0  0  0  0  0  0  0  0
  1  3  1  6  0  0  0
  1  4  1  0  0  0  0
  2  5  1  1  0  0  0
  3 15  1  0  0  0  0
  4  2  1  0  0  0  0
  4  8  1  0  0  0  0
  5  7  1  0  0  0  0
  6 26  1  0  0  0  0
  6  2  1  0  0  0  0
  7 14  1  0  0  0  0
  7 12  1  0  0  0  0
  8  9  1  0  0  0  0
  9 14  1  0  0  0  0
 10  8  1  0  0  0  0
 11  6  1  0  0  0  0
 13 11  1  0  0  0  0
 13  1  1  0  0  0  0
 15 10  1  0  0  0  0
 16 21  1  0  0  0  0
 17 16  1  0  0  0  0
 18 13  1  0  0  0  0
 19 23  1  0  0  0  0
 19 16  2  0  0  0  0
 20 18  2  0  0  0  0
 21 18  1  0  0  0  0
 21 22  2  0  0  0  0
 23 20  1  0  0  0  0
 24 25  2  0  0  0  0
 25 23  1  0  0  0  0
 27 32  1  0  0  0  0
 27 31  2  0  0  0  0
 28 29  1  0  0  0  0
 29 30  2  0  0  0  0
 31 26  1  0  0  0  0
 31 29  1  0  0  0  0
 32 28  1  0  0  0  0
M  END
>  <MODEL>
9

>  <REMARK>
 VINA RESULT:      -8.4      2.053      6.370
  Name = 
  4 active torsions:
  status: ('A' for Active; 'I' for Inactive)
    1  A    between atoms: C_10  and  C_32
    2  A    between atoms: C_15  and  C_26
    3  A    between atoms: C_16  and  C_27
    4  A    between atoms: C_28  and  C_32
                            x       y       z     vdW  Elec       q    Type
                         _______ _______ _______ _____ _____    ______ ____

>  <TORSDO>
F 4

$$$$
