=
 OpenBabel11052415023D

 55 59  0  0  1  0  0  0  0  0999 V2000
  190.6100  176.1580  137.5890 C   0  0  2  0  0  3  0  0  0  0  0  0
  189.4610  177.7400  135.2140 C   0  0  0  0  0  1  0  0  0  0  0  0
  186.7170  177.4290  134.9140 O   0  0  0  0  0  0  0  0  0  0  0  0
  187.2590  176.7650  135.8420 C   0  0  0  0  0  0  0  0  0  0  0  0
  189.3710  175.8050  136.8080 C   0  0  0  0  0  0  0  0  0  0  0  0
  188.6900  176.7610  135.9730 N   0  0  0  0  0  0  0  0  0  0  0  0
  188.9160  174.6350  136.9180 O   0  0  0  0  0  0  0  0  0  0  0  0
  186.3950  176.0500  136.8490 C   0  0  2  0  0  3  0  0  0  0  0  0
  186.1430  174.1070  135.2300 C   0  0  0  0  0  3  0  0  0  0  0  0
  185.7860  172.7800  134.9690 C   0  0  0  0  0  3  0  0  0  0  0  0
  185.6000  173.7960  137.5660 C   0  0  0  0  0  3  0  0  0  0  0  0
  185.2440  172.4680  137.3060 C   0  0  0  0  0  3  0  0  0  0  0  0
  185.3360  171.9600  136.0080 C   0  0  0  0  0  3  0  0  0  0  0  0
  186.0560  174.6200  136.5330 C   0  0  0  0  0  0  0  0  0  0  0  0
  184.0480  176.5670  136.6860 O   0  0  0  0  0  1  0  0  0  0  0  0
  185.3280  177.9160  138.2260 C   0  0  0  0  0  0  0  0  0  0  0  0
  186.4500  178.4060  138.5220 O   0  0  0  0  0  0  0  0  0  0  0  0
  185.2400  176.8420  137.2690 N   0  0  0  0  0  0  0  0  0  0  0  0
  185.4400  178.3990  141.3420 Cl  0  0  0  0  0  0  0  0  0  0  0  0
  182.9750  178.6900  138.1180 C   0  0  0  0  0  3  0  0  0  0  0  0
  181.7930  179.1350  138.7130 C   0  0  0  0  0  3  0  0  0  0  0  0
  184.0530  178.6390  140.2900 C   0  0  0  0  0  0  0  0  0  0  0  0
  182.8690  179.0920  140.8760 C   0  0  0  0  0  3  0  0  0  0  0  0
  181.7380  179.3480  140.0970 C   0  0  0  0  0  0  0  0  0  0  0  0
  184.1160  178.4370  138.8930 C   0  0  0  0  0  0  0  0  0  0  0  0
  180.4740  179.7790  140.7790 C   0  0  0  0  0  3  0  0  0  0  0  0
  180.4560  179.4340  142.2590 C   0  0  0  0  0  2  0  0  0  0  0  0
  179.7270  178.5480  141.2740 C   0  0  0  0  0  2  0  0  0  0  0  0
  194.5670  174.7530  136.4420 C   0  0  0  0  0  3  0  0  0  0  0  0
  191.9170  175.7280  136.9070 C   0  0  2  0  0  3  0  0  0  0  0  0
  192.2360  174.2600  137.2140 C   0  0  0  0  0  2  0  0  0  0  0  0
  194.3110  176.2380  136.4280 C   0  0  0  0  0  2  0  0  0  0  0  0
  193.6150  173.8580  136.7510 C   0  0  0  0  0  3  0  0  0  0  0  0
  193.1030  176.6200  137.2810 C   0  0  0  0  0  2  0  0  0  0  0  0
  190.5380  175.6740  138.9250 O   0  0  0  0  0  0  0  0  0  0  0  0
  190.3080  176.5170  140.0140 C   0  0  0  0  0  0  0  0  0  0  0  0
  190.3200  176.0010  141.3490 N   0  0  0  0  0  2  0  0  0  0  0  0
  190.0810  177.7420  139.8020 O   0  0  0  0  0  0  0  0  0  0  0  0
  189.5610  176.6170  145.9300 C   0  0  1  0  0  3  0  0  0  0  0  0
  190.3170  176.8740  142.5090 C   0  0  1  0  0  3  0  0  0  0  0  0
  191.9610  176.5830  145.6200 O   0  0  0  0  0  1  0  0  0  0  0  0
  187.8330  176.8670  143.1350 C   0  0  0  0  0  3  0  0  0  0  0  0
  188.9930  177.6430  142.5640 C   0  0  1  0  0  3  0  0  0  0  0  0
  190.7470  176.9070  145.0010 C   0  0  1  0  0  3  0  0  0  0  0  0
  189.8960  176.9080  147.3950 C   0  0  0  0  0  1  0  0  0  0  0  0
  190.6150  176.0470  143.7570 C   0  0  0  0  0  2  0  0  0  0  0  0
  187.5540  176.7350  144.4380 C   0  0  0  0  0  3  0  0  0  0  0  0
  188.3480  177.3170  145.4810 N   0  0  0  0  0  0  0  0  0  0  0  0
  189.1550  178.8830  143.1860 O   0  0  0  0  0  0  0  0  0  0  0  0
  190.4980  179.2190  142.9830 C   0  0  0  0  0  1  0  0  0  0  0  0
  187.6840  178.2950  146.3400 C   0  0  0  0  0  2  0  0  0  0  0  0
  186.1940  178.0200  146.3960 C   0  0  0  0  0  2  0  0  0  0  0  0
  185.4300  179.2260  145.8940 C   0  0  0  0  0  2  0  0  0  0  0  0
  183.6330  178.9330  144.6510 C   0  0  0  0  0  1  0  0  0  0  0  0
  184.0610  178.9800  145.9760 O   0  0  0  0  0  0  0  0  0  0  0  0
  1  5  1  6  0  0  0
  1 35  1  0  0  0  0
  2  6  1  0  0  0  0
  3  4  2  0  0  0  0
  4  6  1  0  0  0  0
  5  7  2  0  0  0  0
  6  5  1  0  0  0  0
  8  4  1  6  0  0  0
  8 18  1  0  0  0  0
  9 14  1  0  0  0  0
 10  9  2  0  0  0  0
 10 13  1  0  0  0  0
 12 11  1  0  0  0  0
 13 12  2  0  0  0  0
 14  8  1  0  0  0  0
 14 11  2  0  0  0  0
 15 18  1  0  0  0  0
 16 17  2  0  0  0  0
 16 25  1  0  0  0  0
 18 16  1  0  0  0  0
 20 21  2  0  0  0  0
 20 25  1  0  0  0  0
 21 24  1  0  0  0  0
 22 23  1  0  0  0  0
 22 19  1  0  0  0  0
 24 26  1  0  0  0  0
 24 23  2  0  0  0  0
 25 22  2  0  0  0  0
 26 28  1  0  0  0  0
 26 27  1  0  0  0  0
 28 27  1  0  0  0  0
 29 33  2  0  0  0  0
 30 31  1  0  0  0  0
 30 34  1  0  0  0  0
 30  1  1  1  0  0  0
 32 29  1  0  0  0  0
 32 34  1  0  0  0  0
 33 31  1  0  0  0  0
 35 36  1  0  0  0  0
 36 37  1  0  0  0  0
 38 36  2  0  0  0  0
 39 45  1  1  0  0  0
 40 37  1  6  0  0  0
 40 43  1  0  0  0  0
 40 46  1  0  0  0  0
 42 47  2  0  0  0  0
 43 42  1  0  0  0  0
 43 49  1  1  0  0  0
 44 41  1  1  0  0  0
 44 39  1  0  0  0  0
 46 44  1  0  0  0  0
 47 48  1  0  0  0  0
 48 39  1  0  0  0  0
 48 51  1  0  0  0  0
 50 49  1  0  0  0  0
 51 52  1  0  0  0  0
 53 55  1  0  0  0  0
 53 52  1  0  0  0  0
 54 55  1  0  0  0  0
M  END
>  <MODEL>
1

>  <REMARK>
 VINA RESULT:      -7.9      0.000      0.000
  Name = 
  15 active torsions:
  status: ('A' for Active; 'I' for Inactive)
    1  A    between atoms: C_3  and  O_25
    2  A    between atoms: C_3  and  C_38
    3  A    between atoms: C_6  and  N_22
    4  A    between atoms: C_8  and  O_54
    5  A    between atoms: C_10  and  C_48
    6  A    between atoms: C_14  and  O_20
    7  A    between atoms: C_19  and  C_45
    8  A    between atoms: C_26  and  C_45
    9  A    between atoms: C_27  and  C_51
   10  A    between atoms: C_29  and  C_38
   11  A    between atoms: C_29  and  N_53
   12  A    between atoms: C_33  and  C_52
   13  A    between atoms: C_35  and  C_51
   14  A    between atoms: C_45  and  N_49
   15  A    between atoms: C_51  and  O_54
                            x       y       z     vdW  Elec       q    Type
                         _______ _______ _______ _____ _____    ______ ____

>  <TORSDO>
F 15

$$$$
=
 OpenBabel11052415023D

 55 59  0  0  1  0  0  0  0  0999 V2000
  189.3250  177.4440  140.3050 C   0  0  2  0  0  3  0  0  0  0  0  0
  190.4120  175.5470  142.4690 C   0  0  0  0  0  1  0  0  0  0  0  0
  189.4340  176.1050  145.0080 O   0  0  0  0  0  0  0  0  0  0  0  0
  189.0640  176.8800  144.0820 C   0  0  0  0  0  0  0  0  0  0  0  0
  189.4800  177.7690  141.7680 C   0  0  0  0  0  0  0  0  0  0  0  0
  189.6360  176.7450  142.7700 N   0  0  0  0  0  0  0  0  0  0  0  0
  189.4500  178.9810  142.1120 O   0  0  0  0  0  0  0  0  0  0  0  0
  187.9710  177.8850  144.3420 C   0  0  2  0  0  3  0  0  0  0  0  0
  186.3700  178.5290  146.2070 C   0  0  0  0  0  3  0  0  0  0  0  0
  186.1220  178.8120  147.5540 C   0  0  0  0  0  3  0  0  0  0  0  0
  188.6900  178.0890  146.7230 C   0  0  0  0  0  3  0  0  0  0  0  0
  188.4440  178.3710  148.0710 C   0  0  0  0  0  3  0  0  0  0  0  0
  187.1610  178.7330  148.4870 C   0  0  0  0  0  3  0  0  0  0  0  0
  187.6560  178.1610  145.7850 C   0  0  0  0  0  0  0  0  0  0  0  0
  186.2780  176.3970  143.4900 O   0  0  0  0  0  1  0  0  0  0  0  0
  186.1690  178.6840  142.7200 C   0  0  0  0  0  0  0  0  0  0  0  0
  186.7970  179.7460  142.4680 O   0  0  0  0  0  0  0  0  0  0  0  0
  186.7830  177.6550  143.5210 N   0  0  0  0  0  0  0  0  0  0  0  0
  183.7800  179.4280  144.6420 Cl  0  0  0  0  0  0  0  0  0  0  0  0
  184.6040  178.0480  140.9040 C   0  0  0  0  0  3  0  0  0  0  0  0
  183.3210  177.8350  140.4000 C   0  0  0  0  0  3  0  0  0  0  0  0
  183.6560  178.7840  143.0120 C   0  0  0  0  0  0  0  0  0  0  0  0
  182.3750  178.5750  142.4960 C   0  0  0  0  0  3  0  0  0  0  0  0
  182.1970  178.1070  141.1920 C   0  0  0  0  0  0  0  0  0  0  0  0
  184.7900  178.5230  142.2100 C   0  0  0  0  0  0  0  0  0  0  0  0
  180.8040  177.8460  140.7020 C   0  0  0  0  0  3  0  0  0  0  0  0
  180.6930  177.8990  139.1870 C   0  0  0  0  0  2  0  0  0  0  0  0
  180.2730  179.0950  140.0110 C   0  0  0  0  0  2  0  0  0  0  0  0
  193.1940  176.4890  138.5530 C   0  0  0  0  0  3  0  0  0  0  0  0
  190.6560  177.3660  139.5420 C   0  0  2  0  0  3  0  0  0  0  0  0
  190.7260  176.0890  138.6970 C   0  0  0  0  0  2  0  0  0  0  0  0
  193.1410  177.5570  139.6150 C   0  0  0  0  0  2  0  0  0  0  0  0
  192.0950  175.8600  138.1060 C   0  0  0  0  0  3  0  0  0  0  0  0
  191.8750  177.4620  140.4630 C   0  0  0  0  0  2  0  0  0  0  0  0
  188.4140  178.3340  139.6700 O   0  0  0  0  0  0  0  0  0  0  0  0
  187.7990  178.0310  138.4540 C   0  0  0  0  0  0  0  0  0  0  0  0
  187.2760  176.7210  138.2100 N   0  0  0  0  0  2  0  0  0  0  0  0
  187.7180  178.9280  137.5680 O   0  0  0  0  0  0  0  0  0  0  0  0
  183.1720  175.2590  136.4890 C   0  0  1  0  0  3  0  0  0  0  0  0
  186.4330  176.4320  137.0640 C   0  0  1  0  0  3  0  0  0  0  0  0
  183.2420  177.6580  136.1790 O   0  0  0  0  0  1  0  0  0  0  0  0
  186.0580  173.9140  137.3390 C   0  0  0  0  0  3  0  0  0  0  0  0
  186.7280  175.0160  136.5580 C   0  0  1  0  0  3  0  0  0  0  0  0
  184.0360  176.5070  136.2620 C   0  0  1  0  0  3  0  0  0  0  0  0
  181.8360  175.3430  135.7450 C   0  0  0  0  0  1  0  0  0  0  0  0
  184.9750  176.6720  137.4430 C   0  0  0  0  0  2  0  0  0  0  0  0
  184.8050  173.4800  137.1500 C   0  0  0  0  0  3  0  0  0  0  0  0
  183.9160  174.0300  136.1680 N   0  0  0  0  0  0  0  0  0  0  0  0
  186.4910  174.9100  135.1860 O   0  0  0  0  0  0  0  0  0  0  0  0
  187.2770  175.9110  134.6040 C   0  0  0  0  0  1  0  0  0  0  0  0
  183.4490  173.1200  135.1250 C   0  0  0  0  0  2  0  0  0  0  0  0
  183.1110  171.7670  135.7190 C   0  0  0  0  0  2  0  0  0  0  0  0
  181.7270  171.3440  135.2780 C   0  0  0  0  0  2  0  0  0  0  0  0
  180.9100  171.7880  137.2760 C   0  0  0  0  0  1  0  0  0  0  0  0
  180.7700  172.1190  135.9300 O   0  0  0  0  0  0  0  0  0  0  0  0
  1 35  1  6  0  0  0
  1  5  1  0  0  0  0
  2  6  1  0  0  0  0
  4  3  2  0  0  0  0
  5  7  2  0  0  0  0
  5  6  1  0  0  0  0
  6  4  1  0  0  0  0
  8  4  1  1  0  0  0
  8 14  1  0  0  0  0
  9 10  1  0  0  0  0
 10 13  2  0  0  0  0
 11 12  2  0  0  0  0
 12 13  1  0  0  0  0
 14  9  2  0  0  0  0
 14 11  1  0  0  0  0
 15 18  1  0  0  0  0
 16 18  1  0  0  0  0
 17 16  2  0  0  0  0
 18  8  1  0  0  0  0
 20 25  1  0  0  0  0
 21 20  2  0  0  0  0
 21 24  1  0  0  0  0
 22 19  1  0  0  0  0
 23 22  1  0  0  0  0
 24 23  2  0  0  0  0
 25 16  1  0  0  0  0
 25 22  2  0  0  0  0
 26 24  1  0  0  0  0
 27 28  1  0  0  0  0
 27 26  1  0  0  0  0
 28 26  1  0  0  0  0
 29 32  1  0  0  0  0
 30  1  1  1  0  0  0
 30 34  1  0  0  0  0
 31 30  1  0  0  0  0
 32 34  1  0  0  0  0
 33 29  2  0  0  0  0
 33 31  1  0  0  0  0
 36 35  1  0  0  0  0
 37 36  1  0  0  0  0
 38 36  2  0  0  0  0
 39 45  1  6  0  0  0
 40 46  1  0  0  0  0
 40 37  1  1  0  0  0
 43 49  1  6  0  0  0
 43 40  1  0  0  0  0
 43 42  1  0  0  0  0
 44 41  1  1  0  0  0
 44 39  1  0  0  0  0
 44 46  1  0  0  0  0
 47 42  2  0  0  0  0
 48 39  1  0  0  0  0
 48 47  1  0  0  0  0
 50 49  1  0  0  0  0
 51 52  1  0  0  0  0
 51 48  1  0  0  0  0
 53 52  1  0  0  0  0
 53 55  1  0  0  0  0
 55 54  1  0  0  0  0
M  END
>  <MODEL>
2

>  <REMARK>
 VINA RESULT:      -6.7      2.204      8.165
  Name = 
  15 active torsions:
  status: ('A' for Active; 'I' for Inactive)
    1  A    between atoms: C_3  and  O_25
    2  A    between atoms: C_3  and  C_38
    3  A    between atoms: C_6  and  N_22
    4  A    between atoms: C_8  and  O_54
    5  A    between atoms: C_10  and  C_48
    6  A    between atoms: C_14  and  O_20
    7  A    between atoms: C_19  and  C_45
    8  A    between atoms: C_26  and  C_45
    9  A    between atoms: C_27  and  C_51
   10  A    between atoms: C_29  and  C_38
   11  A    between atoms: C_29  and  N_53
   12  A    between atoms: C_33  and  C_52
   13  A    between atoms: C_35  and  C_51
   14  A    between atoms: C_45  and  N_49
   15  A    between atoms: C_51  and  O_54
                            x       y       z     vdW  Elec       q    Type
                         _______ _______ _______ _____ _____    ______ ____

>  <TORSDO>
F 15

$$$$
=
 OpenBabel11052415023D

 55 59  0  0  1  0  0  0  0  0999 V2000
  191.5720  174.1570  137.6390 C   0  0  2  0  0  3  0  0  0  0  0  0
  193.3350  176.3230  138.9260 C   0  0  0  0  0  1  0  0  0  0  0  0
  191.8770  178.2790  140.2530 O   0  0  0  0  0  0  0  0  0  0  0  0
  191.2080  177.3870  139.6590 C   0  0  0  0  0  0  0  0  0  0  0  0
  191.1640  175.5810  137.9120 C   0  0  0  0  0  0  0  0  0  0  0  0
  191.8830  176.4230  138.8340 N   0  0  0  0  0  0  0  0  0  0  0  0
  190.1450  176.0280  137.3210 O   0  0  0  0  0  0  0  0  0  0  0  0
  189.7210  177.2950  139.8860 C   0  0  2  0  0  3  0  0  0  0  0  0
  187.4720  177.6390  138.7540 C   0  0  0  0  0  3  0  0  0  0  0  0
  186.7000  178.1850  137.7240 C   0  0  0  0  0  3  0  0  0  0  0  0
  189.4470  178.6880  137.8330 C   0  0  0  0  0  3  0  0  0  0  0  0
  188.6750  179.2350  136.8030 C   0  0  0  0  0  3  0  0  0  0  0  0
  187.3020  178.9840  136.7470 C   0  0  0  0  0  3  0  0  0  0  0  0
  188.8510  177.8930  138.8170 C   0  0  0  0  0  0  0  0  0  0  0  0
  188.9860  178.9800  141.4430 O   0  0  0  0  0  1  0  0  0  0  0  0
  189.3410  176.7720  142.3560 C   0  0  0  0  0  0  0  0  0  0  0  0
  189.9630  175.6800  142.2710 O   0  0  0  0  0  0  0  0  0  0  0  0
  189.3290  177.6840  141.2400 N   0  0  0  0  0  0  0  0  0  0  0  0
  190.9850  177.0110  145.0380 Cl  0  0  0  0  0  0  0  0  0  0  0  0
  187.2130  177.2610  143.5320 C   0  0  0  0  0  3  0  0  0  0  0  0
  186.4710  177.5100  144.6870 C   0  0  0  0  0  3  0  0  0  0  0  0
  189.2440  177.1650  144.8550 C   0  0  0  0  0  0  0  0  0  0  0  0
  188.4940  177.4230  146.0040 C   0  0  0  0  0  3  0  0  0  0  0  0
  187.1110  177.6030  145.9300 C   0  0  0  0  0  0  0  0  0  0  0  0
  188.6030  177.0860  143.5980 C   0  0  0  0  0  0  0  0  0  0  0  0
  186.3410  177.8220  147.1990 C   0  0  0  0  0  3  0  0  0  0  0  0
  184.9100  178.2680  146.9500 C   0  0  0  0  0  2  0  0  0  0  0  0
  185.9640  179.2920  147.3080 C   0  0  0  0  0  2  0  0  0  0  0  0
  194.6170  173.5220  134.5940 C   0  0  0  0  0  3  0  0  0  0  0  0
  192.4240  173.9870  136.3730 C   0  0  2  0  0  3  0  0  0  0  0  0
  193.0690  172.5960  136.3310 C   0  0  0  0  0  2  0  0  0  0  0  0
  194.1680  174.9360  134.8630 C   0  0  0  0  0  2  0  0  0  0  0  0
  194.0860  172.4630  135.2240 C   0  0  0  0  0  3  0  0  0  0  0  0
  193.4920  175.0740  136.2250 C   0  0  0  0  0  2  0  0  0  0  0  0
  190.4450  173.2870  137.6260 O   0  0  0  0  0  0  0  0  0  0  0  0
  189.4370  173.3840  136.6650 C   0  0  0  0  0  0  0  0  0  0  0  0
  188.0600  173.2810  137.0410 N   0  0  0  0  0  2  0  0  0  0  0  0
  189.7600  173.5550  135.4550 O   0  0  0  0  0  0  0  0  0  0  0  0
  184.2880  175.8490  135.9830 C   0  0  1  0  0  3  0  0  0  0  0  0
  186.9860  173.6040  136.1190 C   0  0  1  0  0  3  0  0  0  0  0  0
  186.0960  176.6610  134.5940 O   0  0  0  0  0  1  0  0  0  0  0  0
  184.9270  173.0030  137.5170 C   0  0  0  0  0  3  0  0  0  0  0  0
  185.8120  172.6470  136.3490 C   0  0  1  0  0  3  0  0  0  0  0  0
  185.5960  175.5270  135.2460 C   0  0  1  0  0  3  0  0  0  0  0  0
  183.4320  176.8600  135.2160 C   0  0  0  0  0  1  0  0  0  0  0  0
  186.6310  175.0800  136.2630 C   0  0  0  0  0  2  0  0  0  0  0  0
  183.9160  173.8810  137.4860 C   0  0  0  0  0  3  0  0  0  0  0  0
  183.5470  174.6220  136.3140 N   0  0  0  0  0  0  0  0  0  0  0  0
  185.0820  172.4510  135.1750 O   0  0  0  0  0  0  0  0  0  0  0  0
  184.4990  171.1870  135.3170 C   0  0  0  0  0  1  0  0  0  0  0  0
  182.2010  174.3940  135.7920 C   0  0  0  0  0  2  0  0  0  0  0  0
  181.2050  174.2990  136.9310 C   0  0  0  0  0  2  0  0  0  0  0  0
  180.9070  175.6820  137.4690 C   0  0  0  0  0  2  0  0  0  0  0  0
  180.8330  176.9810  139.2490 C   0  0  0  0  0  1  0  0  0  0  0  0
  181.3710  175.7840  138.7800 O   0  0  0  0  0  0  0  0  0  0  0  0
  1 35  1  6  0  0  0
  1  5  1  0  0  0  0
  4  3  2  0  0  0  0
  5  6  1  0  0  0  0
  6  2  1  0  0  0  0
  6  4  1  0  0  0  0
  7  5  2  0  0  0  0
  8  4  1  6  0  0  0
  8 18  1  0  0  0  0
  9 14  1  0  0  0  0
 10  9  2  0  0  0  0
 11 14  2  0  0  0  0
 12 11  1  0  0  0  0
 13 12  2  0  0  0  0
 13 10  1  0  0  0  0
 14  8  1  0  0  0  0
 16 25  1  0  0  0  0
 17 16  2  0  0  0  0
 18 15  1  0  0  0  0
 18 16  1  0  0  0  0
 20 25  2  0  0  0  0
 20 21  1  0  0  0  0
 21 24  2  0  0  0  0
 22 19  1  0  0  0  0
 22 23  2  0  0  0  0
 24 23  1  0  0  0  0
 24 26  1  0  0  0  0
 25 22  1  0  0  0  0
 26 28  1  0  0  0  0
 27 26  1  0  0  0  0
 27 28  1  0  0  0  0
 29 32  1  0  0  0  0
 29 33  2  0  0  0  0
 30  1  1  1  0  0  0
 31 30  1  0  0  0  0
 32 34  1  0  0  0  0
 33 31  1  0  0  0  0
 34 30  1  0  0  0  0
 36 37  1  0  0  0  0
 36 35  1  0  0  0  0
 38 36  2  0  0  0  0
 39 45  1  6  0  0  0
 39 48  1  0  0  0  0
 40 46  1  0  0  0  0
 40 43  1  0  0  0  0
 40 37  1  1  0  0  0
 43 49  1  6  0  0  0
 43 42  1  0  0  0  0
 44 41  1  1  0  0  0
 44 39  1  0  0  0  0
 44 46  1  0  0  0  0
 47 42  2  0  0  0  0
 48 47  1  0  0  0  0
 49 50  1  0  0  0  0
 51 48  1  0  0  0  0
 51 52  1  0  0  0  0
 52 53  1  0  0  0  0
 53 55  1  0  0  0  0
 55 54  1  0  0  0  0
M  END
>  <MODEL>
3

>  <REMARK>
 VINA RESULT:      -6.6      2.519      7.490
  Name = 
  15 active torsions:
  status: ('A' for Active; 'I' for Inactive)
    1  A    between atoms: C_3  and  O_25
    2  A    between atoms: C_3  and  C_38
    3  A    between atoms: C_6  and  N_22
    4  A    between atoms: C_8  and  O_54
    5  A    between atoms: C_10  and  C_48
    6  A    between atoms: C_14  and  O_20
    7  A    between atoms: C_19  and  C_45
    8  A    between atoms: C_26  and  C_45
    9  A    between atoms: C_27  and  C_51
   10  A    between atoms: C_29  and  C_38
   11  A    between atoms: C_29  and  N_53
   12  A    between atoms: C_33  and  C_52
   13  A    between atoms: C_35  and  C_51
   14  A    between atoms: C_45  and  N_49
   15  A    between atoms: C_51  and  O_54
                            x       y       z     vdW  Elec       q    Type
                         _______ _______ _______ _____ _____    ______ ____

>  <TORSDO>
F 15

$$$$
=
 OpenBabel11052415023D

 55 59  0  0  1  0  0  0  0  0999 V2000
  187.4120  178.0050  139.6210 C   0  0  2  0  0  3  0  0  0  0  0  0
  189.3940  176.1250  141.0350 C   0  0  0  0  0  1  0  0  0  0  0  0
  189.4310  176.4460  143.7940 O   0  0  0  0  0  0  0  0  0  0  0  0
  188.6740  177.2240  143.1490 C   0  0  0  0  0  0  0  0  0  0  0  0
  188.0940  178.2690  140.9380 C   0  0  0  0  0  0  0  0  0  0  0  0
  188.7040  177.2180  141.7120 N   0  0  0  0  0  0  0  0  0  0  0  0
  188.1040  179.4520  141.3730 O   0  0  0  0  0  0  0  0  0  0  0  0
  187.6920  178.0930  143.8920 C   0  0  2  0  0  3  0  0  0  0  0  0
  186.6920  178.2380  146.2230 C   0  0  0  0  0  3  0  0  0  0  0  0
  186.8460  178.2710  147.6130 C   0  0  0  0  0  3  0  0  0  0  0  0
  189.0830  177.9970  145.9610 C   0  0  0  0  0  3  0  0  0  0  0  0
  189.2390  178.0290  147.3510 C   0  0  0  0  0  3  0  0  0  0  0  0
  188.1220  178.1670  148.1770 C   0  0  0  0  0  3  0  0  0  0  0  0
  187.8110  178.0960  145.3890 C   0  0  0  0  0  0  0  0  0  0  0  0
  185.8560  176.6620  143.2710 O   0  0  0  0  0  1  0  0  0  0  0  0
  185.4690  179.0370  143.0620 C   0  0  0  0  0  0  0  0  0  0  0  0
  185.9690  180.1770  142.8690 O   0  0  0  0  0  0  0  0  0  0  0  0
  186.3180  177.9280  143.4180 N   0  0  0  0  0  0  0  0  0  0  0  0
  183.7620  179.0630  145.7150 Cl  0  0  0  0  0  0  0  0  0  0  0  0
  183.4420  178.6930  141.6760 C   0  0  0  0  0  3  0  0  0  0  0  0
  182.0710  178.4770  141.5270 C   0  0  0  0  0  3  0  0  0  0  0  0
  183.1640  178.8120  144.0830 C   0  0  0  0  0  0  0  0  0  0  0  0
  181.7920  178.6030  143.9230 C   0  0  0  0  0  3  0  0  0  0  0  0
  181.2360  178.4400  142.6520 C   0  0  0  0  0  0  0  0  0  0  0  0
  184.0050  178.8630  142.9490 C   0  0  0  0  0  0  0  0  0  0  0  0
  179.7670  178.1630  142.5350 C   0  0  0  0  0  3  0  0  0  0  0  0
  179.1990  178.5580  141.1820 C   0  0  0  0  0  2  0  0  0  0  0  0
  179.0210  179.4790  142.3670 C   0  0  0  0  0  2  0  0  0  0  0  0
  189.4920  177.1180  135.9010 C   0  0  0  0  0  3  0  0  0  0  0  0
  188.3760  177.6280  138.4870 C   0  0  2  0  0  3  0  0  0  0  0  0
  188.5480  178.7940  137.5060 C   0  0  0  0  0  2  0  0  0  0  0  0
  189.0460  175.9610  136.7580 C   0  0  0  0  0  2  0  0  0  0  0  0
  189.3080  178.3980  136.2630 C   0  0  0  0  0  3  0  0  0  0  0  0
  187.9490  176.3620  137.7400 C   0  0  0  0  0  2  0  0  0  0  0  0
  186.5690  179.0890  139.2470 O   0  0  0  0  0  0  0  0  0  0  0  0
  185.2660  178.8970  138.7850 C   0  0  0  0  0  0  0  0  0  0  0  0
  184.8590  177.6290  138.2580 N   0  0  0  0  0  2  0  0  0  0  0  0
  184.4520  179.8630  138.8300 O   0  0  0  0  0  0  0  0  0  0  0  0
  181.4180  174.4690  137.9250 C   0  0  1  0  0  3  0  0  0  0  0  0
  183.4670  177.3220  137.9860 C   0  0  1  0  0  3  0  0  0  0  0  0
  181.0300  175.7090  139.9660 O   0  0  0  0  0  1  0  0  0  0  0  0
  183.6820  175.8030  135.9350 C   0  0  0  0  0  3  0  0  0  0  0  0
  183.2700  177.1490  136.4760 C   0  0  1  0  0  3  0  0  0  0  0  0
  181.5720  175.7980  138.6780 C   0  0  1  0  0  3  0  0  0  0  0  0
  180.1040  173.7650  138.2680 C   0  0  0  0  0  1  0  0  0  0  0  0
  183.0510  176.1120  138.8160 C   0  0  0  0  0  2  0  0  0  0  0  0
  182.9210  174.7010  135.9360 C   0  0  0  0  0  3  0  0  0  0  0  0
  181.5930  174.6550  136.4750 N   0  0  0  0  0  0  0  0  0  0  0  0
  181.9740  177.4980  136.0930 O   0  0  0  0  0  0  0  0  0  0  0  0
  182.1130  178.0790  134.8280 C   0  0  0  0  0  1  0  0  0  0  0  0
  180.5180  174.3300  135.5410 C   0  0  0  0  0  2  0  0  0  0  0  0
  180.9590  173.2310  134.5940 C   0  0  0  0  0  2  0  0  0  0  0  0
  180.3960  171.9030  135.0500 C   0  0  0  0  0  2  0  0  0  0  0  0
  182.3190  170.8400  135.2280 C   0  0  0  0  0  1  0  0  0  0  0  0
  181.2550  171.3270  135.9840 O   0  0  0  0  0  0  0  0  0  0  0  0
  1 35  1  6  0  0  0
  1  5  1  0  0  0  0
  2  6  1  0  0  0  0
  4  3  2  0  0  0  0
  5  7  2  0  0  0  0
  5  6  1  0  0  0  0
  6  4  1  0  0  0  0
  8  4  1  6  0  0  0
  8 14  1  0  0  0  0
  9 10  1  0  0  0  0
 10 13  2  0  0  0  0
 11 12  2  0  0  0  0
 12 13  1  0  0  0  0
 14 11  1  0  0  0  0
 14  9  2  0  0  0  0
 15 18  1  0  0  0  0
 16 18  1  0  0  0  0
 17 16  2  0  0  0  0
 18  8  1  0  0  0  0
 20 25  1  0  0  0  0
 21 20  2  0  0  0  0
 21 24  1  0  0  0  0
 22 19  1  0  0  0  0
 23 22  1  0  0  0  0
 24 23  2  0  0  0  0
 25 16  1  0  0  0  0
 25 22  2  0  0  0  0
 26 24  1  0  0  0  0
 27 28  1  0  0  0  0
 27 26  1  0  0  0  0
 28 26  1  0  0  0  0
 29 33  2  0  0  0  0
 29 32  1  0  0  0  0
 30  1  1  1  0  0  0
 31 30  1  0  0  0  0
 32 34  1  0  0  0  0
 33 31  1  0  0  0  0
 34 30  1  0  0  0  0
 36 38  2  0  0  0  0
 36 35  1  0  0  0  0
 37 36  1  0  0  0  0
 39 45  1  6  0  0  0
 39 44  1  0  0  0  0
 40 37  1  6  0  0  0
 40 46  1  0  0  0  0
 42 47  2  0  0  0  0
 42 43  1  0  0  0  0
 43 49  1  1  0  0  0
 43 40  1  0  0  0  0
 44 46  1  0  0  0  0
 44 41  1  1  0  0  0
 47 48  1  0  0  0  0
 48 39  1  0  0  0  0
 50 49  1  0  0  0  0
 51 48  1  0  0  0  0
 52 53  1  0  0  0  0
 52 51  1  0  0  0  0
 53 55  1  0  0  0  0
 54 55  1  0  0  0  0
M  END
>  <MODEL>
4

>  <REMARK>
 VINA RESULT:      -6.5      2.802      8.564
  Name = 
  15 active torsions:
  status: ('A' for Active; 'I' for Inactive)
    1  A    between atoms: C_3  and  O_25
    2  A    between atoms: C_3  and  C_38
    3  A    between atoms: C_6  and  N_22
    4  A    between atoms: C_8  and  O_54
    5  A    between atoms: C_10  and  C_48
    6  A    between atoms: C_14  and  O_20
    7  A    between atoms: C_19  and  C_45
    8  A    between atoms: C_26  and  C_45
    9  A    between atoms: C_27  and  C_51
   10  A    between atoms: C_29  and  C_38
   11  A    between atoms: C_29  and  N_53
   12  A    between atoms: C_33  and  C_52
   13  A    between atoms: C_35  and  C_51
   14  A    between atoms: C_45  and  N_49
   15  A    between atoms: C_51  and  O_54
                            x       y       z     vdW  Elec       q    Type
                         _______ _______ _______ _____ _____    ______ ____

>  <TORSDO>
F 15

$$$$
=
 OpenBabel11052415023D

 55 59  0  0  1  0  0  0  0  0999 V2000
  186.8460  175.1500  135.7530 C   0  0  2  0  0  3  0  0  0  0  0  0
  188.4160  172.5570  135.2270 C   0  0  0  0  0  1  0  0  0  0  0  0
  191.1670  172.8820  135.4250 O   0  0  0  0  0  0  0  0  0  0  0  0
  190.4670  173.9210  135.5800 C   0  0  0  0  0  0  0  0  0  0  0  0
  188.2550  175.0610  135.2270 C   0  0  0  0  0  0  0  0  0  0  0  0
  189.0490  173.8650  135.3540 N   0  0  0  0  0  0  0  0  0  0  0  0
  188.7470  176.0830  134.6790 O   0  0  0  0  0  0  0  0  0  0  0  0
  191.1140  175.1880  136.0780 C   0  0  2  0  0  3  0  0  0  0  0  0
  193.0360  176.3530  134.8920 C   0  0  0  0  0  3  0  0  0  0  0  0
  194.3980  176.4550  134.5940 C   0  0  0  0  0  3  0  0  0  0  0  0
  193.4880  174.4560  136.3210 C   0  0  0  0  0  3  0  0  0  0  0  0
  194.8510  174.5570  136.0240 C   0  0  0  0  0  3  0  0  0  0  0  0
  195.3070  175.5560  135.1600 C   0  0  0  0  0  3  0  0  0  0  0  0
  192.5740  175.3540  135.7620 C   0  0  0  0  0  0  0  0  0  0  0  0
  190.7790  174.4460  138.3460 O   0  0  0  0  0  1  0  0  0  0  0  0
  190.4240  176.8000  137.9340 C   0  0  0  0  0  0  0  0  0  0  0  0
  190.0970  177.6910  137.1070 O   0  0  0  0  0  0  0  0  0  0  0  0
  190.7840  175.4830  137.4730 N   0  0  0  0  0  0  0  0  0  0  0  0
  193.2440  177.1190  139.3130 Cl  0  0  0  0  0  0  0  0  0  0  0  0
  189.2480  177.2880  140.0630 C   0  0  0  0  0  3  0  0  0  0  0  0
  189.2360  177.5530  141.4330 C   0  0  0  0  0  3  0  0  0  0  0  0
  191.6740  177.2470  140.0900 C   0  0  0  0  0  0  0  0  0  0  0  0
  191.6510  177.5210  141.4600 C   0  0  0  0  0  3  0  0  0  0  0  0
  190.4410  177.6810  142.1380 C   0  0  0  0  0  0  0  0  0  0  0  0
  190.4600  177.1320  139.3750 C   0  0  0  0  0  0  0  0  0  0  0  0
  190.4680  177.9180  143.6180 C   0  0  0  0  0  3  0  0  0  0  0  0
  190.6620  176.6390  144.4160 C   0  0  0  0  0  2  0  0  0  0  0  0
  189.2750  177.2210  144.2590 C   0  0  0  0  0  2  0  0  0  0  0  0
  184.0220  171.8370  135.7980 C   0  0  0  0  0  3  0  0  0  0  0  0
  186.0940  173.8110  135.7430 C   0  0  2  0  0  3  0  0  0  0  0  0
  185.0780  173.7640  134.5950 C   0  0  0  0  0  2  0  0  0  0  0  0
  184.8390  172.0890  137.0390 C   0  0  0  0  0  2  0  0  0  0  0  0
  184.1660  172.5650  134.6780 C   0  0  0  0  0  3  0  0  0  0  0  0
  185.4060  173.5070  137.0760 C   0  0  0  0  0  2  0  0  0  0  0  0
  186.1060  176.1660  135.0850 O   0  0  0  0  0  0  0  0  0  0  0  0
  185.1020  176.8980  135.7210 C   0  0  0  0  0  0  0  0  0  0  0  0
  185.0400  176.9610  137.1500 N   0  0  0  0  0  2  0  0  0  0  0  0
  184.2420  177.4980  135.0150 O   0  0  0  0  0  0  0  0  0  0  0  0
  182.6670  178.1550  141.0080 C   0  0  1  0  0  3  0  0  0  0  0  0
  184.1620  177.8880  137.8400 C   0  0  1  0  0  3  0  0  0  0  0  0
  184.5800  179.6320  140.8820 O   0  0  0  0  0  1  0  0  0  0  0  0
  182.1110  176.4150  138.2650 C   0  0  0  0  0  3  0  0  0  0  0  0
  182.7050  177.5650  137.4920 C   0  0  1  0  0  3  0  0  0  0  0  0
  183.6780  178.8850  140.1130 C   0  0  1  0  0  3  0  0  0  0  0  0
  182.2850  178.9840  142.2360 C   0  0  0  0  0  1  0  0  0  0  0  0
  184.4730  177.8530  139.3330 C   0  0  0  0  0  2  0  0  0  0  0  0
  181.5670  176.4980  139.4860 C   0  0  0  0  0  3  0  0  0  0  0  0
  181.4920  177.7170  140.2370 N   0  0  0  0  0  0  0  0  0  0  0  0
  181.9060  178.7090  137.5510 O   0  0  0  0  0  0  0  0  0  0  0  0
  181.0530  178.6130  136.4460 C   0  0  0  0  0  1  0  0  0  0  0  0
  180.1530  178.1980  140.5730 C   0  0  0  0  0  2  0  0  0  0  0  0
  179.6920  179.2210  139.5530 C   0  0  0  0  0  2  0  0  0  0  0  0
  179.9670  180.6180  140.0670 C   0  0  0  0  0  2  0  0  0  0  0  0
  180.4030  182.1410  138.5350 C   0  0  0  0  0  1  0  0  0  0  0  0
  181.0140  181.1850  139.3420 O   0  0  0  0  0  0  0  0  0  0  0  0
  1 35  1  6  0  0  0
  2  6  1  0  0  0  0
  3  4  2  0  0  0  0
  5  6  1  0  0  0  0
  5  1  1  0  0  0  0
  6  4  1  0  0  0  0
  7  5  2  0  0  0  0
  8  4  1  1  0  0  0
  8 18  1  0  0  0  0
  9 14  1  0  0  0  0
 10  9  2  0  0  0  0
 10 13  1  0  0  0  0
 12 11  1  0  0  0  0
 13 12  2  0  0  0  0
 14  8  1  0  0  0  0
 14 11  2  0  0  0  0
 16 25  1  0  0  0  0
 17 16  2  0  0  0  0
 18 16  1  0  0  0  0
 18 15  1  0  0  0  0
 19 22  1  0  0  0  0
 20 21  1  0  0  0  0
 21 24  2  0  0  0  0
 22 23  2  0  0  0  0
 23 24  1  0  0  0  0
 24 26  1  0  0  0  0
 25 20  2  0  0  0  0
 25 22  1  0  0  0  0
 26 28  1  0  0  0  0
 26 27  1  0  0  0  0
 28 27  1  0  0  0  0
 29 32  1  0  0  0  0
 30  1  1  1  0  0  0
 30 34  1  0  0  0  0
 31 33  1  0  0  0  0
 31 30  1  0  0  0  0
 32 34  1  0  0  0  0
 33 29  2  0  0  0  0
 35 36  1  0  0  0  0
 36 37  1  0  0  0  0
 38 36  2  0  0  0  0
 39 45  1  1  0  0  0
 40 37  1  6  0  0  0
 40 46  1  0  0  0  0
 42 47  2  0  0  0  0
 43 49  1  1  0  0  0
 43 40  1  0  0  0  0
 43 42  1  0  0  0  0
 44 41  1  1  0  0  0
 44 39  1  0  0  0  0
 46 44  1  0  0  0  0
 47 48  1  0  0  0  0
 48 51  1  0  0  0  0
 48 39  1  0  0  0  0
 50 49  1  0  0  0  0
 52 53  1  0  0  0  0
 52 51  1  0  0  0  0
 54 55  1  0  0  0  0
 55 53  1  0  0  0  0
M  END
>  <MODEL>
5

>  <REMARK>
 VINA RESULT:      -6.3      2.824      7.939
  Name = 
  15 active torsions:
  status: ('A' for Active; 'I' for Inactive)
    1  A    between atoms: C_3  and  O_25
    2  A    between atoms: C_3  and  C_38
    3  A    between atoms: C_6  and  N_22
    4  A    between atoms: C_8  and  O_54
    5  A    between atoms: C_10  and  C_48
    6  A    between atoms: C_14  and  O_20
    7  A    between atoms: C_19  and  C_45
    8  A    between atoms: C_26  and  C_45
    9  A    between atoms: C_27  and  C_51
   10  A    between atoms: C_29  and  C_38
   11  A    between atoms: C_29  and  N_53
   12  A    between atoms: C_33  and  C_52
   13  A    between atoms: C_35  and  C_51
   14  A    between atoms: C_45  and  N_49
   15  A    between atoms: C_51  and  O_54
                            x       y       z     vdW  Elec       q    Type
                         _______ _______ _______ _____ _____    ______ ____

>  <TORSDO>
F 15

$$$$
=
 OpenBabel11052415023D

 55 59  0  0  1  0  0  0  0  0999 V2000
  185.8100  178.3530  140.9060 C   0  0  2  0  0  3  0  0  0  0  0  0
  182.8850  177.8500  141.7140 C   0  0  0  0  0  1  0  0  0  0  0  0
  181.0910  178.2210  139.6250 O   0  0  0  0  0  0  0  0  0  0  0  0
  182.3050  178.4610  139.3720 C   0  0  0  0  0  0  0  0  0  0  0  0
  184.5970  178.9750  140.2660 C   0  0  0  0  0  0  0  0  0  0  0  0
  183.2740  178.4300  140.4330 N   0  0  0  0  0  0  0  0  0  0  0  0
  184.7660  179.9950  139.5460 O   0  0  0  0  0  0  0  0  0  0  0  0
  182.7360  178.6970  137.9470 C   0  0  2  0  0  3  0  0  0  0  0  0
  181.2450  180.7310  137.6300 C   0  0  0  0  0  3  0  0  0  0  0  0
  180.3800  181.4930  136.8390 C   0  0  0  0  0  3  0  0  0  0  0  0
  181.5340  179.1650  135.8110 C   0  0  0  0  0  3  0  0  0  0  0  0
  180.6700  179.9280  135.0180 C   0  0  0  0  0  3  0  0  0  0  0  0
  180.0920  181.0910  135.5310 C   0  0  0  0  0  3  0  0  0  0  0  0
  181.8310  179.5640  137.1170 C   0  0  0  0  0  0  0  0  0  0  0  0
  184.3160  177.4990  136.5790 O   0  0  0  0  0  1  0  0  0  0  0  0
  182.3530  176.2670  137.2630 C   0  0  0  0  0  0  0  0  0  0  0  0
  181.1400  176.3130  137.5980 O   0  0  0  0  0  0  0  0  0  0  0  0
  183.1490  177.4690  137.2680 N   0  0  0  0  0  0  0  0  0  0  0  0
  181.3610  174.8710  134.6140 Cl  0  0  0  0  0  0  0  0  0  0  0  0
  183.9270  174.4100  137.7370 C   0  0  0  0  0  3  0  0  0  0  0  0
  184.4820  173.1610  137.4560 C   0  0  0  0  0  3  0  0  0  0  0  0
  182.5370  174.2410  135.7560 C   0  0  0  0  0  0  0  0  0  0  0  0
  183.1050  172.9960  135.4780 C   0  0  0  0  0  3  0  0  0  0  0  0
  184.0810  172.4510  136.3170 C   0  0  0  0  0  0  0  0  0  0  0  0
  182.9520  174.9660  136.8960 C   0  0  0  0  0  0  0  0  0  0  0  0
  184.6190  171.0860  136.0070 C   0  0  0  0  0  3  0  0  0  0  0  0
  183.8320  170.3760  134.9180 C   0  0  0  0  0  2  0  0  0  0  0  0
  183.5740  170.0410  136.3690 C   0  0  0  0  0  2  0  0  0  0  0  0
  185.7590  178.8230  145.2330 C   0  0  0  0  0  3  0  0  0  0  0  0
  185.9950  178.7310  142.3820 C   0  0  2  0  0  3  0  0  0  0  0  0
  186.4330  177.5140  143.2070 C   0  0  0  0  0  2  0  0  0  0  0  0
  185.0710  179.8730  144.3980 C   0  0  0  0  0  2  0  0  0  0  0  0
  186.4140  177.7840  144.6920 C   0  0  0  0  0  3  0  0  0  0  0  0
  184.7450  179.3670  142.9940 C   0  0  0  0  0  2  0  0  0  0  0  0
  186.9880  178.6150  140.1510 O   0  0  0  0  0  0  0  0  0  0  0  0
  187.9750  177.6490  139.9480 C   0  0  0  0  0  0  0  0  0  0  0  0
  188.1660  177.0630  138.6560 N   0  0  0  0  0  2  0  0  0  0  0  0
  188.6930  177.2920  140.9250 O   0  0  0  0  0  0  0  0  0  0  0  0
  192.3180  176.5500  136.5490 C   0  0  1  0  0  3  0  0  0  0  0  0
  189.3190  176.2360  138.3510 C   0  0  1  0  0  3  0  0  0  0  0  0
  192.7620  176.7760  138.9170 O   0  0  0  0  0  1  0  0  0  0  0  0
  189.1460  176.0540  135.8020 C   0  0  0  0  0  3  0  0  0  0  0  0
  189.0090  175.3590  137.1330 C   0  0  1  0  0  3  0  0  0  0  0  0
  191.8190  176.3270  137.9830 C   0  0  1  0  0  3  0  0  0  0  0  0
  193.8290  176.3400  136.4280 C   0  0  0  0  0  1  0  0  0  0  0  0
  190.5450  177.1280  138.1860 C   0  0  0  0  0  2  0  0  0  0  0  0
  190.2890  176.2090  135.1210 C   0  0  0  0  0  3  0  0  0  0  0  0
  191.5590  175.7330  135.5880 N   0  0  0  0  0  0  0  0  0  0  0  0
  189.7240  174.1610  137.1780 O   0  0  0  0  0  0  0  0  0  0  0  0
  188.8000  173.1730  136.8210 C   0  0  0  0  0  1  0  0  0  0  0  0
  192.2290  174.7340  134.7580 C   0  0  0  0  0  2  0  0  0  0  0  0
  191.3490  173.5100  134.5960 C   0  0  0  0  0  2  0  0  0  0  0  0
  192.1980  172.2580  134.6470 C   0  0  0  0  0  2  0  0  0  0  0  0
  193.5570  170.9880  135.8300 C   0  0  0  0  0  1  0  0  0  0  0  0
  192.8870  172.2090  135.8580 O   0  0  0  0  0  0  0  0  0  0  0  0
  1 35  1  6  0  0  0
  4  3  2  0  0  0  0
  4  6  1  0  0  0  0
  5  6  1  0  0  0  0
  5  1  1  0  0  0  0
  6  2  1  0  0  0  0
  7  5  2  0  0  0  0
  8  4  1  1  0  0  0
 10  9  2  0  0  0  0
 11 14  2  0  0  0  0
 12 13  2  0  0  0  0
 12 11  1  0  0  0  0
 13 10  1  0  0  0  0
 14  9  1  0  0  0  0
 14  8  1  0  0  0  0
 15 18  1  0  0  0  0
 16 18  1  0  0  0  0
 16 17  2  0  0  0  0
 18  8  1  0  0  0  0
 19 22  1  0  0  0  0
 21 20  1  0  0  0  0
 22 25  1  0  0  0  0
 23 22  2  0  0  0  0
 23 24  1  0  0  0  0
 24 21  2  0  0  0  0
 25 16  1  0  0  0  0
 25 20  2  0  0  0  0
 26 24  1  0  0  0  0
 26 28  1  0  0  0  0
 27 26  1  0  0  0  0
 27 28  1  0  0  0  0
 30  1  1  6  0  0  0
 30 34  1  0  0  0  0
 30 31  1  0  0  0  0
 31 33  1  0  0  0  0
 32 29  1  0  0  0  0
 33 29  2  0  0  0  0
 34 32  1  0  0  0  0
 36 35  1  0  0  0  0
 36 38  2  0  0  0  0
 37 36  1  0  0  0  0
 39 45  1  1  0  0  0
 39 44  1  0  0  0  0
 40 37  1  6  0  0  0
 42 43  1  0  0  0  0
 43 49  1  6  0  0  0
 43 40  1  0  0  0  0
 44 46  1  0  0  0  0
 44 41  1  1  0  0  0
 46 40  1  0  0  0  0
 47 48  1  0  0  0  0
 47 42  2  0  0  0  0
 48 39  1  0  0  0  0
 50 49  1  0  0  0  0
 51 48  1  0  0  0  0
 52 53  1  0  0  0  0
 52 51  1  0  0  0  0
 53 55  1  0  0  0  0
 54 55  1  0  0  0  0
M  END
>  <MODEL>
6

>  <REMARK>
 VINA RESULT:      -5.9      2.947      8.779
  Name = 
  15 active torsions:
  status: ('A' for Active; 'I' for Inactive)
    1  A    between atoms: C_3  and  O_25
    2  A    between atoms: C_3  and  C_38
    3  A    between atoms: C_6  and  N_22
    4  A    between atoms: C_8  and  O_54
    5  A    between atoms: C_10  and  C_48
    6  A    between atoms: C_14  and  O_20
    7  A    between atoms: C_19  and  C_45
    8  A    between atoms: C_26  and  C_45
    9  A    between atoms: C_27  and  C_51
   10  A    between atoms: C_29  and  C_38
   11  A    between atoms: C_29  and  N_53
   12  A    between atoms: C_33  and  C_52
   13  A    between atoms: C_35  and  C_51
   14  A    between atoms: C_45  and  N_49
   15  A    between atoms: C_51  and  O_54
                            x       y       z     vdW  Elec       q    Type
                         _______ _______ _______ _____ _____    ______ ____

>  <TORSDO>
F 15

$$$$
=
 OpenBabel11052415023D

 55 59  0  0  1  0  0  0  0  0999 V2000
  189.8520  177.8590  139.8480 C   0  0  2  0  0  3  0  0  0  0  0  0
  190.3930  175.9140  142.1690 C   0  0  0  0  0  1  0  0  0  0  0  0
  188.7550  176.3490  144.3690 O   0  0  0  0  0  0  0  0  0  0  0  0
  188.6170  177.1470  143.4010 C   0  0  0  0  0  0  0  0  0  0  0  0
  189.6000  178.1320  141.3080 C   0  0  0  0  0  0  0  0  0  0  0  0
  189.5210  177.0770  142.2860 N   0  0  0  0  0  0  0  0  0  0  0  0
  189.4340  179.3300  141.6650 O   0  0  0  0  0  0  0  0  0  0  0  0
  187.4580  178.1100  143.3880 C   0  0  2  0  0  3  0  0  0  0  0  0
  185.3260  178.4690  144.7230 C   0  0  0  0  0  3  0  0  0  0  0  0
  184.6720  178.6460  145.9470 C   0  0  0  0  0  3  0  0  0  0  0  0
  187.4380  178.2520  145.8790 C   0  0  0  0  0  3  0  0  0  0  0  0
  186.7850  178.4280  147.1040 C   0  0  0  0  0  3  0  0  0  0  0  0
  185.4030  178.6250  147.1390 C   0  0  0  0  0  3  0  0  0  0  0  0
  186.7130  178.2670  144.6840 C   0  0  0  0  0  0  0  0  0  0  0  0
  186.5400  176.6940  141.6690 O   0  0  0  0  0  1  0  0  0  0  0  0
  185.8100  178.9960  141.6510 C   0  0  0  0  0  0  0  0  0  0  0  0
  186.0800  180.1930  141.9330 O   0  0  0  0  0  0  0  0  0  0  0  0
  186.5800  177.9260  142.2320 N   0  0  0  0  0  0  0  0  0  0  0  0
  182.9580  178.5620  142.9290 Cl  0  0  0  0  0  0  0  0  0  0  0  0
  184.9190  178.6360  139.3650 C   0  0  0  0  0  3  0  0  0  0  0  0
  183.8900  178.3170  138.4770 C   0  0  0  0  0  3  0  0  0  0  0  0
  183.3750  178.4500  141.2260 C   0  0  0  0  0  0  0  0  0  0  0  0
  182.3500  178.1390  140.3290 C   0  0  0  0  0  3  0  0  0  0  0  0
  182.5950  178.0770  138.9560 C   0  0  0  0  0  0  0  0  0  0  0  0
  184.6780  178.7070  140.7440 C   0  0  0  0  0  0  0  0  0  0  0  0
  181.4750  177.6850  138.0380 C   0  0  0  0  0  3  0  0  0  0  0  0
  180.5740  176.6160  138.6340 C   0  0  0  0  0  2  0  0  0  0  0  0
  181.6430  176.2250  137.6380 C   0  0  0  0  0  2  0  0  0  0  0  0
  186.8080  178.0150  136.7400 C   0  0  0  0  0  3  0  0  0  0  0  0
  188.6180  178.0600  138.9570 C   0  0  2  0  0  3  0  0  0  0  0  0
  188.0720  176.7140  138.4660 C   0  0  0  0  0  2  0  0  0  0  0  0
  187.5750  179.2760  137.0450 C   0  0  0  0  0  2  0  0  0  0  0  0
  187.0010  176.8710  137.4160 C   0  0  0  0  0  3  0  0  0  0  0  0
  188.8880  178.9890  137.7700 C   0  0  0  0  0  2  0  0  0  0  0  0
  190.4280  176.5720  139.6530 O   0  0  0  0  0  0  0  0  0  0  0  0
  191.5110  176.3610  138.7990 C   0  0  0  0  0  0  0  0  0  0  0  0
  191.8580  175.0370  138.3760 N   0  0  0  0  0  2  0  0  0  0  0  0
  192.1870  177.3550  138.4090 O   0  0  0  0  0  0  0  0  0  0  0  0
  194.6570  172.0760  136.0660 C   0  0  1  0  0  3  0  0  0  0  0  0
  192.8210  174.7970  137.3170 C   0  0  1  0  0  3  0  0  0  0  0  0
  192.7660  172.5180  134.6220 O   0  0  0  0  0  1  0  0  0  0  0  0
  194.8820  174.0920  138.6630 C   0  0  0  0  0  3  0  0  0  0  0  0
  194.2260  175.1530  137.8150 C   0  0  1  0  0  3  0  0  0  0  0  0
  193.5660  173.0660  135.6320 C   0  0  1  0  0  3  0  0  0  0  0  0
  195.1850  171.2520  134.8890 C   0  0  0  0  0  1  0  0  0  0  0  0
  192.6740  173.3610  136.8240 C   0  0  0  0  0  2  0  0  0  0  0  0
  195.5570  173.0330  138.1970 C   0  0  0  0  0  3  0  0  0  0  0  0
  195.7340  172.7590  136.8010 N   0  0  0  0  0  0  0  0  0  0  0  0
  195.0450  175.5690  136.7640 O   0  0  0  0  0  0  0  0  0  0  0  0
  194.2260  176.3710  135.9620 C   0  0  0  0  0  1  0  0  0  0  0  0
  197.1090  172.7420  136.3060 C   0  0  0  0  0  2  0  0  0  0  0  0
  197.6960  174.1390  136.3350 C   0  0  0  0  0  2  0  0  0  0  0  0
  198.6070  174.2880  137.5350 C   0  0  0  0  0  2  0  0  0  0  0  0
  198.3360  175.2110  139.5180 C   0  0  0  0  0  1  0  0  0  0  0  0
  198.3630  175.5110  138.1580 O   0  0  0  0  0  0  0  0  0  0  0  0
  1 35  1  1  0  0  0
  1  5  1  0  0  0  0
  2  6  1  0  0  0  0
  4  3  2  0  0  0  0
  5  7  2  0  0  0  0
  5  6  1  0  0  0  0
  6  4  1  0  0  0  0
  8  4  1  1  0  0  0
  8 14  1  0  0  0  0
  9 10  1  0  0  0  0
 10 13  2  0  0  0  0
 11 12  2  0  0  0  0
 12 13  1  0  0  0  0
 14  9  2  0  0  0  0
 14 11  1  0  0  0  0
 15 18  1  0  0  0  0
 16 17  2  0  0  0  0
 16 18  1  0  0  0  0
 18  8  1  0  0  0  0
 20 25  1  0  0  0  0
 21 24  1  0  0  0  0
 21 20  2  0  0  0  0
 22 19  1  0  0  0  0
 23 22  1  0  0  0  0
 24 23  2  0  0  0  0
 25 22  2  0  0  0  0
 25 16  1  0  0  0  0
 26 27  1  0  0  0  0
 26 24  1  0  0  0  0
 28 26  1  0  0  0  0
 28 27  1  0  0  0  0
 29 32  1  0  0  0  0
 29 33  2  0  0  0  0
 30  1  1  6  0  0  0
 31 30  1  0  0  0  0
 32 34  1  0  0  0  0
 33 31  1  0  0  0  0
 34 30  1  0  0  0  0
 36 35  1  0  0  0  0
 37 36  1  0  0  0  0
 38 36  2  0  0  0  0
 39 45  1  6  0  0  0
 39 48  1  0  0  0  0
 40 43  1  0  0  0  0
 40 37  1  1  0  0  0
 43 49  1  6  0  0  0
 43 42  1  0  0  0  0
 44 41  1  6  0  0  0
 44 39  1  0  0  0  0
 44 46  1  0  0  0  0
 46 40  1  0  0  0  0
 47 42  2  0  0  0  0
 48 47  1  0  0  0  0
 50 49  1  0  0  0  0
 51 52  1  0  0  0  0
 51 48  1  0  0  0  0
 52 53  1  0  0  0  0
 53 55  1  0  0  0  0
 55 54  1  0  0  0  0
M  END
>  <MODEL>
7

>  <REMARK>
 VINA RESULT:      -5.2      2.797      8.628
  Name = 
  15 active torsions:
  status: ('A' for Active; 'I' for Inactive)
    1  A    between atoms: C_3  and  O_25
    2  A    between atoms: C_3  and  C_38
    3  A    between atoms: C_6  and  N_22
    4  A    between atoms: C_8  and  O_54
    5  A    between atoms: C_10  and  C_48
    6  A    between atoms: C_14  and  O_20
    7  A    between atoms: C_19  and  C_45
    8  A    between atoms: C_26  and  C_45
    9  A    between atoms: C_27  and  C_51
   10  A    between atoms: C_29  and  C_38
   11  A    between atoms: C_29  and  N_53
   12  A    between atoms: C_33  and  C_52
   13  A    between atoms: C_35  and  C_51
   14  A    between atoms: C_45  and  N_49
   15  A    between atoms: C_51  and  O_54
                            x       y       z     vdW  Elec       q    Type
                         _______ _______ _______ _____ _____    ______ ____

>  <TORSDO>
F 15

$$$$
=
 OpenBabel11052415023D

 55 59  0  0  1  0  0  0  0  0999 V2000
  186.7720  175.6340  136.8750 C   0  0  2  0  0  3  0  0  0  0  0  0
  186.9370  178.6540  136.3170 C   0  0  0  0  0  1  0  0  0  0  0  0
  189.0820  179.8870  137.5780 O   0  0  0  0  0  0  0  0  0  0  0  0
  188.9290  178.6550  137.8080 C   0  0  0  0  0  0  0  0  0  0  0  0
  187.3910  176.6670  137.7790 C   0  0  0  0  0  0  0  0  0  0  0  0
  187.7650  177.9770  137.3080 N   0  0  0  0  0  0  0  0  0  0  0  0
  187.6010  176.3520  138.9810 O   0  0  0  0  0  0  0  0  0  0  0  0
  190.0070  177.8930  138.5350 C   0  0  2  0  0  3  0  0  0  0  0  0
  191.6140  175.9360  138.3250 C   0  0  0  0  0  3  0  0  0  0  0  0
  192.3140  175.0150  137.5380 C   0  0  0  0  0  3  0  0  0  0  0  0
  190.5990  176.8670  136.3380 C   0  0  0  0  0  3  0  0  0  0  0  0
  191.2980  175.9460  135.5500 C   0  0  0  0  0  3  0  0  0  0  0  0
  192.1560  175.0210  136.1490 C   0  0  0  0  0  3  0  0  0  0  0  0
  190.7480  176.8640  137.7280 C   0  0  0  0  0  0  0  0  0  0  0  0
  189.7870  176.0950  140.1230 O   0  0  0  0  0  1  0  0  0  0  0  0
  188.8940  178.2320  140.8070 C   0  0  0  0  0  0  0  0  0  0  0  0
  188.3910  179.3310  140.4520 O   0  0  0  0  0  0  0  0  0  0  0  0
  189.5720  177.4040  139.8430 N   0  0  0  0  0  0  0  0  0  0  0  0
  186.0340  178.0790  142.1300 Cl  0  0  0  0  0  0  0  0  0  0  0  0
  189.9870  177.5270  142.9190 C   0  0  0  0  0  3  0  0  0  0  0  0
  189.9530  177.1850  144.2710 C   0  0  0  0  0  3  0  0  0  0  0  0
  187.5730  177.7730  142.9180 C   0  0  0  0  0  0  0  0  0  0  0  0
  187.5490  177.4220  144.2700 C   0  0  0  0  0  3  0  0  0  0  0  0
  188.7300  177.1210  144.9520 C   0  0  0  0  0  0  0  0  0  0  0  0
  188.8050  177.8240  142.2260 C   0  0  0  0  0  0  0  0  0  0  0  0
  188.6570  176.8040  146.4160 C   0  0  0  0  0  3  0  0  0  0  0  0
  187.8840  177.8470  147.2070 C   0  0  0  0  0  2  0  0  0  0  0  0
  189.3960  177.8810  147.1990 C   0  0  0  0  0  2  0  0  0  0  0  0
  189.1070  172.3240  135.2800 C   0  0  0  0  0  3  0  0  0  0  0  0
  187.7900  174.6790  136.2350 C   0  0  2  0  0  3  0  0  0  0  0  0
  187.1430  173.8690  135.1050 C   0  0  0  0  0  2  0  0  0  0  0  0
  189.5660  172.9600  136.5680 C   0  0  0  0  0  2  0  0  0  0  0  0
  188.0400  172.7670  134.5960 C   0  0  0  0  0  3  0  0  0  0  0  0
  188.4480  173.7440  137.2520 C   0  0  0  0  0  2  0  0  0  0  0  0
  185.9370  176.2370  135.8920 O   0  0  0  0  0  0  0  0  0  0  0  0
  184.5590  176.3740  136.0660 C   0  0  0  0  0  0  0  0  0  0  0  0
  184.0220  176.8060  137.3210 N   0  0  0  0  0  2  0  0  0  0  0  0
  183.7900  176.1030  135.1000 O   0  0  0  0  0  0  0  0  0  0  0  0
  180.7960  180.1070  138.1180 C   0  0  1  0  0  3  0  0  0  0  0  0
  182.6270  177.1800  137.4720 C   0  0  1  0  0  3  0  0  0  0  0  0
  180.6840  179.5780  135.7590 O   0  0  0  0  0  1  0  0  0  0  0  0
  182.5860  177.9900  139.9010 C   0  0  0  0  0  3  0  0  0  0  0  0
  182.1840  176.9210  138.9150 C   0  0  1  0  0  3  0  0  0  0  0  0
  180.9880  179.0510  137.0200 C   0  0  1  0  0  3  0  0  0  0  0  0
  179.6110  181.0300  137.8240 C   0  0  0  0  0  1  0  0  0  0  0  0
  182.4440  178.6210  137.0070 C   0  0  0  0  0  2  0  0  0  0  0  0
  181.9130  179.1250  140.1320 C   0  0  0  0  0  3  0  0  0  0  0  0
  180.7050  179.4820  139.4470 N   0  0  0  0  0  0  0  0  0  0  0  0
  180.8210  176.6300  138.9810 O   0  0  0  0  0  0  0  0  0  0  0  0
  180.7190  175.5710  139.8900 C   0  0  0  0  0  1  0  0  0  0  0  0
  179.5080  179.6420  140.2710 C   0  0  0  0  0  2  0  0  0  0  0  0
  179.8550  179.4870  141.7390 C   0  0  0  0  0  2  0  0  0  0  0  0
  179.1190  178.2990  142.3180 C   0  0  0  0  0  2  0  0  0  0  0  0
  179.2210  179.0830  144.3750 C   0  0  0  0  0  1  0  0  0  0  0  0
  179.6220  178.0090  143.5850 O   0  0  0  0  0  0  0  0  0  0  0  0
  1 35  1  6  0  0  0
  1  5  1  0  0  0  0
  2  6  1  0  0  0  0
  3  4  2  0  0  0  0
  5  7  2  0  0  0  0
  6  5  1  0  0  0  0
  6  4  1  0  0  0  0
  8  4  1  6  0  0  0
  8 18  1  0  0  0  0
 10  9  2  0  0  0  0
 11 14  2  0  0  0  0
 12 13  2  0  0  0  0
 12 11  1  0  0  0  0
 13 10  1  0  0  0  0
 14  9  1  0  0  0  0
 14  8  1  0  0  0  0
 16 25  1  0  0  0  0
 17 16  2  0  0  0  0
 18 15  1  0  0  0  0
 18 16  1  0  0  0  0
 19 22  1  0  0  0  0
 20 21  1  0  0  0  0
 21 24  2  0  0  0  0
 22 23  2  0  0  0  0
 23 24  1  0  0  0  0
 24 26  1  0  0  0  0
 25 22  1  0  0  0  0
 25 20  2  0  0  0  0
 26 28  1  0  0  0  0
 26 27  1  0  0  0  0
 28 27  1  0  0  0  0
 29 32  1  0  0  0  0
 30  1  1  1  0  0  0
 30 34  1  0  0  0  0
 31 30  1  0  0  0  0
 32 34  1  0  0  0  0
 33 31  1  0  0  0  0
 33 29  2  0  0  0  0
 35 36  1  0  0  0  0
 36 37  1  0  0  0  0
 38 36  2  0  0  0  0
 39 45  1  6  0  0  0
 39 48  1  0  0  0  0
 40 37  1  1  0  0  0
 40 43  1  0  0  0  0
 42 47  2  0  0  0  0
 43 49  1  6  0  0  0
 43 42  1  0  0  0  0
 44 41  1  6  0  0  0
 44 39  1  0  0  0  0
 46 44  1  0  0  0  0
 46 40  1  0  0  0  0
 48 47  1  0  0  0  0
 48 51  1  0  0  0  0
 49 50  1  0  0  0  0
 51 52  1  0  0  0  0
 52 53  1  0  0  0  0
 53 55  1  0  0  0  0
 55 54  1  0  0  0  0
M  END
>  <MODEL>
8

>  <REMARK>
 VINA RESULT:      -5.1      2.204      7.635
  Name = 
  15 active torsions:
  status: ('A' for Active; 'I' for Inactive)
    1  A    between atoms: C_3  and  O_25
    2  A    between atoms: C_3  and  C_38
    3  A    between atoms: C_6  and  N_22
    4  A    between atoms: C_8  and  O_54
    5  A    between atoms: C_10  and  C_48
    6  A    between atoms: C_14  and  O_20
    7  A    between atoms: C_19  and  C_45
    8  A    between atoms: C_26  and  C_45
    9  A    between atoms: C_27  and  C_51
   10  A    between atoms: C_29  and  C_38
   11  A    between atoms: C_29  and  N_53
   12  A    between atoms: C_33  and  C_52
   13  A    between atoms: C_35  and  C_51
   14  A    between atoms: C_45  and  N_49
   15  A    between atoms: C_51  and  O_54
                            x       y       z     vdW  Elec       q    Type
                         _______ _______ _______ _____ _____    ______ ____

>  <TORSDO>
F 15

$$$$
=
 OpenBabel11052415023D

 55 59  0  0  1  0  0  0  0  0999 V2000
  188.6320  176.8300  137.9650 C   0  0  2  0  0  3  0  0  0  0  0  0
  187.3430  178.1950  135.5290 C   0  0  0  0  0  1  0  0  0  0  0  0
  184.7060  177.4270  135.1090 O   0  0  0  0  0  0  0  0  0  0  0  0
  185.3090  176.8640  136.0660 C   0  0  0  0  0  0  0  0  0  0  0  0
  187.5060  176.2740  137.1340 C   0  0  0  0  0  0  0  0  0  0  0  0
  186.7130  177.1010  136.2600 N   0  0  0  0  0  0  0  0  0  0  0  0
  187.2500  175.0440  137.2330 O   0  0  0  0  0  0  0  0  0  0  0  0
  184.5330  176.0150  137.0390 C   0  0  2  0  0  3  0  0  0  0  0  0
  183.8380  173.5790  137.2470 C   0  0  0  0  0  3  0  0  0  0  0  0
  183.3060  172.4140  136.6850 C   0  0  0  0  0  3  0  0  0  0  0  0
  183.4990  174.7450  135.1560 C   0  0  0  0  0  3  0  0  0  0  0  0
  182.9660  173.5810  134.5940 C   0  0  0  0  0  3  0  0  0  0  0  0
  182.8690  172.4150  135.3570 C   0  0  0  0  0  3  0  0  0  0  0  0
  183.9330  174.7540  136.4850 C   0  0  0  0  0  0  0  0  0  0  0  0
  182.2750  176.5730  137.6680 O   0  0  0  0  0  1  0  0  0  0  0  0
  184.0250  177.8030  138.7900 C   0  0  0  0  0  0  0  0  0  0  0  0
  185.1990  178.2560  138.7380 O   0  0  0  0  0  0  0  0  0  0  0  0
  183.6000  176.7940  137.8530 N   0  0  0  0  0  0  0  0  0  0  0  0
  185.1280  178.0330  141.7370 Cl  0  0  0  0  0  0  0  0  0  0  0  0
  181.7940  178.6340  139.4830 C   0  0  0  0  0  3  0  0  0  0  0  0
  180.8800  179.0560  140.4500 C   0  0  0  0  0  3  0  0  0  0  0  0
  183.4950  178.3860  141.1960 C   0  0  0  0  0  0  0  0  0  0  0  0
  182.5750  178.8180  142.1550 C   0  0  0  0  0  3  0  0  0  0  0  0
  181.2700  179.1600  141.7920 C   0  0  0  0  0  0  0  0  0  0  0  0
  183.1070  178.2950  139.8390 C   0  0  0  0  0  0  0  0  0  0  0  0
  180.3040  179.5630  142.8660 C   0  0  0  0  0  3  0  0  0  0  0  0
  180.0730  178.4670  143.8920 C   0  0  0  0  0  2  0  0  0  0  0  0
  179.0670  178.6800  142.7840 C   0  0  0  0  0  2  0  0  0  0  0  0
  192.2870  174.6320  137.0980 C   0  0  0  0  0  3  0  0  0  0  0  0
  189.9030  175.9700  137.9450 C   0  0  2  0  0  3  0  0  0  0  0  0
  191.1210  176.8060  137.5320 C   0  0  0  0  0  2  0  0  0  0  0  0
  191.0040  173.8520  137.2220 C   0  0  0  0  0  2  0  0  0  0  0  0
  192.3470  175.9600  137.2850 C   0  0  0  0  0  3  0  0  0  0  0  0
  189.7730  174.7390  137.0450 C   0  0  0  0  0  2  0  0  0  0  0  0
  188.2090  177.1000  139.2980 O   0  0  0  0  0  0  0  0  0  0  0  0
  189.0980  177.4930  140.2980 C   0  0  0  0  0  0  0  0  0  0  0  0
  188.9120  177.0600  141.6500 N   0  0  0  0  0  2  0  0  0  0  0  0
  190.0680  178.2450  139.9950 O   0  0  0  0  0  0  0  0  0  0  0  0
  190.9190  175.6990  145.6580 C   0  0  1  0  0  3  0  0  0  0  0  0
  189.9310  177.2530  142.6660 C   0  0  1  0  0  3  0  0  0  0  0  0
  192.4270  175.0680  143.8730 O   0  0  0  0  0  1  0  0  0  0  0  0
  188.4950  177.7320  144.7320 C   0  0  0  0  0  3  0  0  0  0  0  0
  189.4400  178.2800  143.6910 C   0  0  1  0  0  3  0  0  0  0  0  0
  191.4520  176.0000  144.2500 C   0  0  1  0  0  3  0  0  0  0  0  0
  192.0150  175.1640  146.5830 C   0  0  0  0  0  1  0  0  0  0  0  0
  190.3040  175.8990  143.2620 C   0  0  0  0  0  2  0  0  0  0  0  0
  188.8600  177.1090  145.8600 C   0  0  0  0  0  3  0  0  0  0  0  0
  190.2250  176.8670  146.2250 N   0  0  0  0  0  0  0  0  0  0  0  0
  190.5080  178.9730  144.2630 O   0  0  0  0  0  0  0  0  0  0  0  0
  191.5350  178.9030  143.3150 C   0  0  0  0  0  1  0  0  0  0  0  0
  190.6940  177.4900  147.4610 C   0  0  0  0  0  2  0  0  0  0  0  0
  189.5820  178.3050  148.0930 C   0  0  0  0  0  2  0  0  0  0  0  0
  188.6750  177.3990  148.8970 C   0  0  0  0  0  2  0  0  0  0  0  0
  187.4550  179.0500  148.0960 C   0  0  0  0  0  1  0  0  0  0  0  0
  187.3760  177.9040  148.8830 O   0  0  0  0  0  0  0  0  0  0  0  0
  1  5  1  6  0  0  0
  1 35  1  0  0  0  0
  2  6  1  0  0  0  0
  3  4  2  0  0  0  0
  4  6  1  0  0  0  0
  5  7  2  0  0  0  0
  6  5  1  0  0  0  0
  8  4  1  6  0  0  0
  8 18  1  0  0  0  0
 10  9  1  0  0  0  0
 11 14  1  0  0  0  0
 12 11  2  0  0  0  0
 12 13  1  0  0  0  0
 13 10  2  0  0  0  0
 14  8  1  0  0  0  0
 14  9  2  0  0  0  0
 15 18  1  0  0  0  0
 16 25  1  0  0  0  0
 17 16  2  0  0  0  0
 18 16  1  0  0  0  0
 20 25  2  0  0  0  0
 20 21  1  0  0  0  0
 21 24  2  0  0  0  0
 22 19  1  0  0  0  0
 22 23  2  0  0  0  0
 24 23  1  0  0  0  0
 24 26  1  0  0  0  0
 25 22  1  0  0  0  0
 26 27  1  0  0  0  0
 28 26  1  0  0  0  0
 28 27  1  0  0  0  0
 29 32  1  0  0  0  0
 29 33  2  0  0  0  0
 30  1  1  6  0  0  0
 31 30  1  0  0  0  0
 33 31  1  0  0  0  0
 34 32  1  0  0  0  0
 34 30  1  0  0  0  0
 35 36  1  0  0  0  0
 36 37  1  0  0  0  0
 38 36  2  0  0  0  0
 39 48  1  0  0  0  0
 39 45  1  1  0  0  0
 40 37  1  6  0  0  0
 40 46  1  0  0  0  0
 40 43  1  0  0  0  0
 42 47  2  0  0  0  0
 43 49  1  1  0  0  0
 43 42  1  0  0  0  0
 44 41  1  6  0  0  0
 44 39  1  0  0  0  0
 46 44  1  0  0  0  0
 47 48  1  0  0  0  0
 48 51  1  0  0  0  0
 50 49  1  0  0  0  0
 51 52  1  0  0  0  0
 52 53  1  0  0  0  0
 54 55  1  0  0  0  0
 55 53  1  0  0  0  0
M  END
>  <MODEL>
9

>  <REMARK>
 VINA RESULT:      -5.1      1.770      2.438
  Name = 
  15 active torsions:
  status: ('A' for Active; 'I' for Inactive)
    1  A    between atoms: C_3  and  O_25
    2  A    between atoms: C_3  and  C_38
    3  A    between atoms: C_6  and  N_22
    4  A    between atoms: C_8  and  O_54
    5  A    between atoms: C_10  and  C_48
    6  A    between atoms: C_14  and  O_20
    7  A    between atoms: C_19  and  C_45
    8  A    between atoms: C_26  and  C_45
    9  A    between atoms: C_27  and  C_51
   10  A    between atoms: C_29  and  C_38
   11  A    between atoms: C_29  and  N_53
   12  A    between atoms: C_33  and  C_52
   13  A    between atoms: C_35  and  C_51
   14  A    between atoms: C_45  and  N_49
   15  A    between atoms: C_51  and  O_54
                            x       y       z     vdW  Elec       q    Type
                         _______ _______ _______ _____ _____    ______ ____

>  <TORSDO>
F 15

$$$$
