=
 OpenBabel11052416093D

 43 48  0  0  1  0  0  0  0  0999 V2000
  183.8920  177.8480  142.0830 N   0  0  0  0  0  0  0  0  0  0  0  0
  185.0650  178.4200  142.1760 C   0  0  0  0  0  0  0  0  0  0  0  0
  188.8050  177.8380  147.5760 C   0  0  0  0  0  0  0  0  0  0  0  0
  185.9880  177.9960  143.2630 C   0  0  0  0  0  0  0  0  0  0  0  0
  187.9750  177.5230  145.3190 C   0  0  0  0  0  0  0  0  0  0  0  0
  187.5730  178.3770  147.9580 C   0  0  0  0  0  3  0  0  0  0  0  0
  189.8040  177.7220  148.4840 F   0  0  0  0  0  0  0  0  0  0  0  0
  186.7330  178.0630  145.7030 C   0  0  0  0  0  0  0  0  0  0  0  0
  189.0020  177.4020  146.2620 C   0  0  0  0  0  3  0  0  0  0  0  0
  186.5400  178.4880  147.0240 C   0  0  0  0  0  3  0  0  0  0  0  0
  184.4950  178.4930  145.0650 O   0  0  0  0  0  0  0  0  0  0  0  0
  185.6640  178.2020  144.6990 C   0  0  0  0  0  0  0  0  0  0  0  0
  187.1750  177.4620  142.9360 C   0  0  0  0  0  3  0  0  0  0  0  0
  188.1780  176.9610  143.9410 C   0  0  0  0  0  2  0  0  0  0  0  0
  180.9050  179.4230  140.1680 C   0  0  0  0  0  2  0  0  0  0  0  0
  180.4800  178.1180  139.5120 C   0  0  2  0  0  3  0  0  0  0  0  0
  182.7680  177.2670  140.0760 C   0  0  0  0  0  3  0  0  0  0  0  0
  181.7720  179.1220  141.3880 C   0  0  0  0  0  2  0  0  0  0  0  0
  182.8600  178.1030  141.1180 C   0  0  0  0  0  0  0  0  0  0  0  0
  181.7310  177.4100  138.9980 C   0  0  0  0  0  2  0  0  0  0  0  0
  180.1030  179.4920  137.4660 C   0  0  0  0  0  1  0  0  0  0  0  0
  179.5300  178.4130  138.3650 C   0  0  0  0  0  2  0  0  0  0  0  0
  185.5510  179.3680  141.1220 C   0  0  0  0  0  2  0  0  0  0  0  0
  186.8390  178.3260  139.2230 C   0  0  0  0  0  0  0  0  0  0  0  0
  186.8300  177.6780  137.9580 N   0  0  0  0  0  0  0  0  0  0  0  0
  187.9360  178.5850  139.7850 O   0  0  0  0  0  0  0  0  0  0  0  0
  187.5070  177.0360  136.7940 C   0  0  2  0  0  3  0  0  0  0  0  0
  185.6030  178.6820  139.8410 N   0  0  0  0  0  2  0  0  0  0  0  0
  186.1300  177.0940  136.7760 C   0  0  0  0  0  2  0  0  0  0  0  0
  187.9780  175.6510  137.2030 C   0  0  0  0  0  2  0  0  0  0  0  0
  188.9550  175.1520  136.2450 N   0  0  0  0  0  0  0  0  0  0  0  0
  190.4440  173.2830  136.3410 C   0  0  0  0  0  2  0  0  0  0  0  0
  188.3450  174.0830  135.5630 N   0  0  0  0  0  2  0  0  0  0  0  0
  190.0660  174.5840  137.0010 C   0  0  1  0  0  3  0  0  0  0  0  0
  189.3910  173.1100  135.2840 C   0  0  0  0  0  2  0  0  0  0  0  0
  191.2300  175.5360  137.0510 C   0  0  0  0  0  0  0  0  0  0  0  0
  192.0910  175.8370  135.6790 S   0  0  0  0  0  0  0  0  0  0  0  0
  191.5660  176.2180  138.3240 C   0  0  0  0  0  0  0  0  0  0  0  0
  193.1530  177.3270  139.7810 C   0  0  0  0  0  3  0  0  0  0  0  0
  190.9100  177.0520  140.5010 C   0  0  0  0  0  3  0  0  0  0  0  0
  192.1770  177.4950  140.7130 N   0  0  0  0  0  0  0  0  0  0  0  0
  190.5830  176.4090  139.3060 C   0  0  0  0  0  3  0  0  0  0  0  0
  192.8660  176.6870  138.5730 C   0  0  0  0  0  3  0  0  0  0  0  0
  1  2  2  0  0  0  0
  2  4  1  0  0  0  0
  3  6  1  0  0  0  0
  3  7  1  0  0  0  0
  4 12  1  0  0  0  0
  5  8  2  0  0  0  0
  5  9  1  0  0  0  0
  8 10  1  0  0  0  0
  9  3  2  0  0  0  0
 10  6  2  0  0  0  0
 12 11  2  0  0  0  0
 12  8  1  0  0  0  0
 13  4  2  0  0  0  0
 13 14  1  0  0  0  0
 14  5  1  0  0  0  0
 15 18  1  0  0  0  0
 16 22  1  6  0  0  0
 16 15  1  0  0  0  0
 17 19  2  0  0  0  0
 19 18  1  0  0  0  0
 19  1  1  0  0  0  0
 20 16  1  0  0  0  0
 20 17  1  0  0  0  0
 21 22  1  0  0  0  0
 23  2  1  0  0  0  0
 24 26  2  0  0  0  0
 24 28  1  0  0  0  0
 25 24  1  0  0  0  0
 27 30  1  1  0  0  0
 27 25  1  0  0  0  0
 28 23  1  0  0  0  0
 29 27  1  0  0  0  0
 29 25  1  0  0  0  0
 31 34  1  0  0  0  0
 31 30  1  0  0  0  0
 32 34  1  0  0  0  0
 33 31  1  0  0  0  0
 34 36  1  6  0  0  0
 35 33  1  0  0  0  0
 35 32  1  0  0  0  0
 36 38  1  0  0  0  0
 37 36  2  0  0  0  0
 38 43  2  0  0  0  0
 38 42  1  0  0  0  0
 39 41  2  0  0  0  0
 40 41  1  0  0  0  0
 42 40  2  0  0  0  0
 43 39  1  0  0  0  0
M  END
>  <MODEL>
1

>  <REMARK>
 VINA RESULT:      -9.3      0.000      0.000
  Name = 
  9 active torsions:
  status: ('A' for Active; 'I' for Inactive)
    1  A    between atoms: N_1  and  C_35
    2  A    between atoms: C_3  and  N_4
    3  A    between atoms: C_3  and  C_12
    4  A    between atoms: C_8  and  C_34
    5  A    between atoms: C_11  and  C_14
    6  A    between atoms: N_13  and  C_38
    7  A    between atoms: C_14  and  C_22
    8  A    between atoms: C_19  and  C_37
    9  A    between atoms: C_34  and  C_38
                            x       y       z     vdW  Elec       q    Type
                         _______ _______ _______ _____ _____    ______ ____

>  <TORSDO>
F 9

$$$$
=
 OpenBabel11052416093D

 43 48  0  0  1  0  0  0  0  0999 V2000
  190.7990  175.5890  136.5820 N   0  0  0  0  0  0  0  0  0  0  0  0
  190.0740  176.4250  137.2800 C   0  0  0  0  0  0  0  0  0  0  0  0
  183.5350  176.9970  137.9080 C   0  0  0  0  0  0  0  0  0  0  0  0
  188.5940  176.3920  137.1340 C   0  0  0  0  0  0  0  0  0  0  0  0
  185.7060  176.1650  137.2190 C   0  0  0  0  0  0  0  0  0  0  0  0
  184.1140  178.2150  138.2740 C   0  0  0  0  0  3  0  0  0  0  0  0
  182.2020  176.8100  138.0560 F   0  0  0  0  0  0  0  0  0  0  0  0
  186.2900  177.3920  137.5850 C   0  0  0  0  0  0  0  0  0  0  0  0
  184.3280  175.9780  137.3710 C   0  0  0  0  0  3  0  0  0  0  0  0
  185.4870  178.4130  138.1130 C   0  0  0  0  0  3  0  0  0  0  0  0
  188.2500  178.7190  137.5690 O   0  0  0  0  0  0  0  0  0  0  0  0
  187.7450  177.5730  137.4370 C   0  0  0  0  0  0  0  0  0  0  0  0
  188.0030  175.2430  136.7710 C   0  0  0  0  0  3  0  0  0  0  0  0
  186.5200  175.0930  136.5530 C   0  0  0  0  0  2  0  0  0  0  0  0
  194.5600  175.9620  135.6980 C   0  0  0  0  0  2  0  0  0  0  0  0
  194.9500  174.5990  136.2520 C   0  0  2  0  0  3  0  0  0  0  0  0
  192.7770  174.6550  137.4980 C   0  0  0  0  0  3  0  0  0  0  0  0
  193.0580  175.9910  135.4270 C   0  0  0  0  0  2  0  0  0  0  0  0
  192.2280  175.4520  136.5750 C   0  0  0  0  0  0  0  0  0  0  0  0
  194.2580  174.4140  137.6000 C   0  0  0  0  0  2  0  0  0  0  0  0
  197.1210  175.7060  135.7250 C   0  0  0  0  0  1  0  0  0  0  0  0
  196.4580  174.5330  136.4200 C   0  0  0  0  0  2  0  0  0  0  0  0
  190.6930  177.2950  138.3330 C   0  0  0  0  0  2  0  0  0  0  0  0
  190.9890  177.1520  140.8310 C   0  0  0  0  0  0  0  0  0  0  0  0
  190.5260  176.6710  142.0860 N   0  0  0  0  0  0  0  0  0  0  0  0
  192.0460  177.8350  140.7750 O   0  0  0  0  0  0  0  0  0  0  0  0
  190.6170  176.5390  143.5690 C   0  0  2  0  0  3  0  0  0  0  0  0
  190.2550  176.8510  139.6460 N   0  0  0  0  0  2  0  0  0  0  0  0
  189.5570  175.9230  142.9400 C   0  0  0  0  0  2  0  0  0  0  0  0
  190.1730  177.8450  144.2060 C   0  0  0  0  0  2  0  0  0  0  0  0
  190.4260  177.8140  145.6400 N   0  0  0  0  0  0  0  0  0  0  0  0
  190.1930  176.0570  147.2460 C   0  0  0  0  0  2  0  0  0  0  0  0
  191.6920  177.2250  145.8170 N   0  0  0  0  0  2  0  0  0  0  0  0
  189.4560  176.9050  146.2410 C   0  0  1  0  0  3  0  0  0  0  0  0
  191.6290  176.4530  147.0490 C   0  0  0  0  0  2  0  0  0  0  0  0
  188.3270  177.6650  146.8840 C   0  0  0  0  0  0  0  0  0  0  0  0
  188.4850  178.1900  148.4380 S   0  0  0  0  0  0  0  0  0  0  0  0
  187.1030  177.9620  146.1020 C   0  0  0  0  0  0  0  0  0  0  0  0
  185.8320  177.8850  144.0410 C   0  0  0  0  0  3  0  0  0  0  0  0
  184.8720  178.8950  145.9610 C   0  0  0  0  0  3  0  0  0  0  0  0
  184.8020  178.5250  144.6550 N   0  0  0  0  0  0  0  0  0  0  0  0
  186.0210  178.6190  146.7060 C   0  0  0  0  0  3  0  0  0  0  0  0
  186.9990  177.5930  144.7520 C   0  0  0  0  0  3  0  0  0  0  0  0
  1  2  2  0  0  0  0
  2 23  1  0  0  0  0
  3  7  1  0  0  0  0
  3  6  1  0  0  0  0
  4  2  1  0  0  0  0
  4 12  1  0  0  0  0
  5  9  1  0  0  0  0
  5  8  2  0  0  0  0
  8 10  1  0  0  0  0
  9  3  2  0  0  0  0
 10  6  2  0  0  0  0
 12 11  2  0  0  0  0
 12  8  1  0  0  0  0
 13  4  2  0  0  0  0
 14 13  1  0  0  0  0
 14  5  1  0  0  0  0
 15 16  1  0  0  0  0
 16 22  1  1  0  0  0
 16 20  1  0  0  0  0
 17 20  1  0  0  0  0
 18 15  1  0  0  0  0
 18 19  1  0  0  0  0
 19  1  1  0  0  0  0
 19 17  2  0  0  0  0
 21 22  1  0  0  0  0
 23 28  1  0  0  0  0
 24 25  1  0  0  0  0
 25 29  1  0  0  0  0
 25 27  1  0  0  0  0
 26 24  2  0  0  0  0
 27 30  1  1  0  0  0
 28 24  1  0  0  0  0
 29 27  1  0  0  0  0
 30 31  1  0  0  0  0
 31 33  1  0  0  0  0
 31 34  1  0  0  0  0
 33 35  1  0  0  0  0
 34 36  1  1  0  0  0
 34 32  1  0  0  0  0
 35 32  1  0  0  0  0
 36 37  2  0  0  0  0
 38 42  1  0  0  0  0
 38 36  1  0  0  0  0
 39 41  2  0  0  0  0
 39 43  1  0  0  0  0
 40 42  2  0  0  0  0
 41 40  1  0  0  0  0
 43 38  2  0  0  0  0
M  END
>  <MODEL>
2

>  <REMARK>
 VINA RESULT:      -9.1      3.910     10.120
  Name = 
  9 active torsions:
  status: ('A' for Active; 'I' for Inactive)
    1  A    between atoms: N_1  and  C_35
    2  A    between atoms: C_3  and  N_4
    3  A    between atoms: C_3  and  C_12
    4  A    between atoms: C_8  and  C_34
    5  A    between atoms: C_11  and  C_14
    6  A    between atoms: N_13  and  C_38
    7  A    between atoms: C_14  and  C_22
    8  A    between atoms: C_19  and  C_37
    9  A    between atoms: C_34  and  C_38
                            x       y       z     vdW  Elec       q    Type
                         _______ _______ _______ _____ _____    ______ ____

>  <TORSDO>
F 9

$$$$
=
 OpenBabel11052416093D

 43 48  0  0  1  0  0  0  0  0999 V2000
  190.2090  176.7830  140.8680 N   0  0  0  0  0  0  0  0  0  0  0  0
  189.4560  177.5910  141.5690 C   0  0  0  0  0  0  0  0  0  0  0  0
  188.2960  177.9000  148.0530 C   0  0  0  0  0  0  0  0  0  0  0  0
  189.4740  177.4850  143.0530 C   0  0  0  0  0  0  0  0  0  0  0  0
  189.4730  177.6800  145.9440 C   0  0  0  0  0  0  0  0  0  0  0  0
  187.0840  177.6410  147.4080 C   0  0  0  0  0  3  0  0  0  0  0  0
  188.3170  178.1260  149.3890 F   0  0  0  0  0  0  0  0  0  0  0  0
  188.2540  177.4160  145.2940 C   0  0  0  0  0  0  0  0  0  0  0  0
  189.4900  177.9090  147.3250 C   0  0  0  0  0  3  0  0  0  0  0  0
  187.0630  177.3990  146.0320 C   0  0  0  0  0  3  0  0  0  0  0  0
  187.2040  176.7620  143.2760 O   0  0  0  0  0  0  0  0  0  0  0  0
  188.2450  177.1940  143.8370 C   0  0  0  0  0  0  0  0  0  0  0  0
  190.6220  177.7130  143.7070 C   0  0  0  0  0  3  0  0  0  0  0  0
  190.7760  177.6010  145.2020 C   0  0  0  0  0  2  0  0  0  0  0  0
  189.4390  176.7410  137.0630 C   0  0  0  0  0  2  0  0  0  0  0  0
  190.6760  175.9330  136.6980 C   0  0  2  0  0  3  0  0  0  0  0  0
  191.5790  176.5920  138.9400 C   0  0  0  0  0  3  0  0  0  0  0  0
  189.1300  176.5570  138.5470 C   0  0  0  0  0  2  0  0  0  0  0  0
  190.3430  176.7190  139.4390 C   0  0  0  0  0  0  0  0  0  0  0  0
  191.8640  176.5040  137.4670 C   0  0  0  0  0  2  0  0  0  0  0  0
  192.3850  175.7990  134.8880 C   0  0  0  0  0  1  0  0  0  0  0  0
  190.9200  176.0280  135.2030 C   0  0  0  0  0  2  0  0  0  0  0  0
  188.7090  178.7150  140.9180 C   0  0  0  0  0  2  0  0  0  0  0  0
  186.2360  178.7020  140.4350 C   0  0  0  0  0  0  0  0  0  0  0  0
  184.9010  178.7050  140.9230 N   0  0  0  0  0  0  0  0  0  0  0  0
  186.4480  178.7090  139.1930 O   0  0  0  0  0  0  0  0  0  0  0  0
  183.4220  178.6900  140.7330 C   0  0  2  0  0  3  0  0  0  0  0  0
  187.3240  178.6950  141.3580 N   0  0  0  0  0  2  0  0  0  0  0  0
  183.8960  178.7050  142.0270 C   0  0  0  0  0  2  0  0  0  0  0  0
  182.9910  177.2880  140.3390 C   0  0  0  0  0  2  0  0  0  0  0  0
  182.2100  177.3300  139.1100 N   0  0  0  0  0  0  0  0  0  0  0  0
  180.9250  175.6470  137.9990 C   0  0  0  0  0  2  0  0  0  0  0  0
  180.8660  177.4990  139.4890 N   0  0  0  0  0  2  0  0  0  0  0  0
  182.3040  176.0180  138.4800 C   0  0  1  0  0  3  0  0  0  0  0  0
  180.0620  176.7570  138.5300 C   0  0  0  0  0  2  0  0  0  0  0  0
  183.2980  176.0300  137.3490 C   0  0  0  0  0  0  0  0  0  0  0  0
  183.1880  177.1900  136.1850 S   0  0  0  0  0  0  0  0  0  0  0  0
  184.3830  175.0200  137.3150 C   0  0  0  0  0  0  0  0  0  0  0  0
  186.6710  174.3810  136.8420 C   0  0  0  0  0  3  0  0  0  0  0  0
  185.1680  172.7620  137.7050 C   0  0  0  0  0  3  0  0  0  0  0  0
  186.4030  173.1160  137.2600 N   0  0  0  0  0  0  0  0  0  0  0  0
  184.1390  173.7060  137.7410 C   0  0  0  0  0  3  0  0  0  0  0  0
  185.6680  175.3530  136.8610 C   0  0  0  0  0  3  0  0  0  0  0  0
  1  2  2  0  0  0  0
  2  4  1  0  0  0  0
  3  7  1  0  0  0  0
  4 13  2  0  0  0  0
  4 12  1  0  0  0  0
  5  9  1  0  0  0  0
  6  3  1  0  0  0  0
  8  5  2  0  0  0  0
  8 10  1  0  0  0  0
  9  3  2  0  0  0  0
 10  6  2  0  0  0  0
 11 12  2  0  0  0  0
 12  8  1  0  0  0  0
 13 14  1  0  0  0  0
 14  5  1  0  0  0  0
 15 18  1  0  0  0  0
 16 22  1  6  0  0  0
 16 15  1  0  0  0  0
 16 20  1  0  0  0  0
 17 19  2  0  0  0  0
 18 19  1  0  0  0  0
 19  1  1  0  0  0  0
 20 17  1  0  0  0  0
 21 22  1  0  0  0  0
 23 28  1  0  0  0  0
 23  2  1  0  0  0  0
 24 25  1  0  0  0  0
 24 28  1  0  0  0  0
 25 29  1  0  0  0  0
 26 24  2  0  0  0  0
 27 30  1  1  0  0  0
 27 25  1  0  0  0  0
 27 29  1  0  0  0  0
 31 33  1  0  0  0  0
 31 30  1  0  0  0  0
 32 34  1  0  0  0  0
 32 35  1  0  0  0  0
 34 36  1  6  0  0  0
 34 31  1  0  0  0  0
 35 33  1  0  0  0  0
 37 36  2  0  0  0  0
 38 36  1  0  0  0  0
 38 42  1  0  0  0  0
 39 43  1  0  0  0  0
 39 41  2  0  0  0  0
 40 42  2  0  0  0  0
 41 40  1  0  0  0  0
 43 38  2  0  0  0  0
M  END
>  <MODEL>
3

>  <REMARK>
 VINA RESULT:      -9.0      2.464      6.849
  Name = 
  9 active torsions:
  status: ('A' for Active; 'I' for Inactive)
    1  A    between atoms: N_1  and  C_35
    2  A    between atoms: C_3  and  N_4
    3  A    between atoms: C_3  and  C_12
    4  A    between atoms: C_8  and  C_34
    5  A    between atoms: C_11  and  C_14
    6  A    between atoms: N_13  and  C_38
    7  A    between atoms: C_14  and  C_22
    8  A    between atoms: C_19  and  C_37
    9  A    between atoms: C_34  and  C_38
                            x       y       z     vdW  Elec       q    Type
                         _______ _______ _______ _____ _____    ______ ____

>  <TORSDO>
F 9

$$$$
=
 OpenBabel11052416093D

 43 48  0  0  1  0  0  0  0  0999 V2000
  189.6950  176.7410  140.4730 N   0  0  0  0  0  0  0  0  0  0  0  0
  188.8470  177.6600  140.8550 C   0  0  0  0  0  0  0  0  0  0  0  0
  188.3330  177.1270  147.4080 C   0  0  0  0  0  0  0  0  0  0  0  0
  188.4730  177.7420  142.2920 C   0  0  0  0  0  0  0  0  0  0  0  0
  187.7400  177.4980  145.0860 C   0  0  0  0  0  0  0  0  0  0  0  0
  189.6860  177.2750  147.0900 C   0  0  0  0  0  3  0  0  0  0  0  0
  187.9610  176.8820  148.6870 F   0  0  0  0  0  0  0  0  0  0  0  0
  189.1020  177.6510  144.7650 C   0  0  0  0  0  0  0  0  0  0  0  0
  187.3610  177.2490  146.4100 C   0  0  0  0  0  3  0  0  0  0  0  0
  190.0690  177.5370  145.7720 C   0  0  0  0  0  3  0  0  0  0  0  0
  190.6740  178.2310  143.0930 O   0  0  0  0  0  0  0  0  0  0  0  0
  189.4910  177.8960  143.3650 C   0  0  0  0  0  0  0  0  0  0  0  0
  187.1820  177.6180  142.6360 C   0  0  0  0  0  3  0  0  0  0  0  0
  186.6740  177.7200  144.0510 C   0  0  0  0  0  2  0  0  0  0  0  0
  189.9180  175.8970  136.6900 C   0  0  0  0  0  2  0  0  0  0  0  0
  191.3540  175.3990  136.7620 C   0  0  2  0  0  3  0  0  0  0  0  0
  191.5060  176.6190  138.9450 C   0  0  0  0  0  3  0  0  0  0  0  0
  189.3010  175.8740  138.0860 C   0  0  0  0  0  2  0  0  0  0  0  0
  190.1890  176.4900  139.1480 C   0  0  0  0  0  0  0  0  0  0  0  0
  192.1590  176.3790  137.6120 C   0  0  0  0  0  2  0  0  0  0  0  0
  193.3040  175.9650  135.3130 C   0  0  0  0  0  1  0  0  0  0  0  0
  191.9320  175.3190  135.3600 C   0  0  0  0  0  2  0  0  0  0  0  0
  188.3760  178.7210  139.9070 C   0  0  0  0  0  2  0  0  0  0  0  0
  185.8760  178.6220  139.6120 C   0  0  0  0  0  0  0  0  0  0  0  0
  184.7530  178.1130  138.9030 N   0  0  0  0  0  0  0  0  0  0  0  0
  185.6980  179.3880  140.5960 O   0  0  0  0  0  0  0  0  0  0  0  0
  183.2880  178.0000  138.6490 C   0  0  2  0  0  3  0  0  0  0  0  0
  187.1920  178.2530  139.2060 N   0  0  0  0  0  2  0  0  0  0  0  0
  184.1330  177.2950  137.8200 C   0  0  0  0  0  2  0  0  0  0  0  0
  182.8080  179.2700  137.9670 C   0  0  0  0  0  2  0  0  0  0  0  0
  181.3680  179.4100  138.1250 N   0  0  0  0  0  0  0  0  0  0  0  0
  180.0610  181.0050  139.3370 C   0  0  0  0  0  2  0  0  0  0  0  0
  180.9530  180.4020  137.2180 N   0  0  0  0  0  2  0  0  0  0  0  0
  181.1180  179.9370  139.4620 C   0  0  1  0  0  3  0  0  0  0  0  0
  179.8620  181.1250  137.8530 C   0  0  0  0  0  2  0  0  0  0  0  0
  180.6890  178.8450  140.4050 C   0  0  0  0  0  0  0  0  0  0  0  0
  179.6210  177.7020  139.8890 S   0  0  0  0  0  0  0  0  0  0  0  0
  181.2590  178.7910  141.7720 C   0  0  0  0  0  0  0  0  0  0  0  0
  183.1520  178.8010  143.2830 C   0  0  0  0  0  3  0  0  0  0  0  0
  180.9600  178.6260  144.1700 C   0  0  0  0  0  3  0  0  0  0  0  0
  182.3070  178.6880  144.3410 N   0  0  0  0  0  0  0  0  0  0  0  0
  180.4140  178.6770  142.8860 C   0  0  0  0  0  3  0  0  0  0  0  0
  182.6450  178.8530  141.9830 C   0  0  0  0  0  3  0  0  0  0  0  0
  1  2  2  0  0  0  0
  2  4  1  0  0  0  0
  3  7  1  0  0  0  0
  4 13  2  0  0  0  0
  4 12  1  0  0  0  0
  5  9  1  0  0  0  0
  6  3  1  0  0  0  0
  8  5  2  0  0  0  0
  8 10  1  0  0  0  0
  9  3  2  0  0  0  0
 10  6  2  0  0  0  0
 11 12  2  0  0  0  0
 12  8  1  0  0  0  0
 13 14  1  0  0  0  0
 14  5  1  0  0  0  0
 15 16  1  0  0  0  0
 15 18  1  0  0  0  0
 16 22  1  6  0  0  0
 16 20  1  0  0  0  0
 17 19  2  0  0  0  0
 18 19  1  0  0  0  0
 19  1  1  0  0  0  0
 20 17  1  0  0  0  0
 21 22  1  0  0  0  0
 23  2  1  0  0  0  0
 24 26  2  0  0  0  0
 25 24  1  0  0  0  0
 27 30  1  6  0  0  0
 27 25  1  0  0  0  0
 28 24  1  0  0  0  0
 28 23  1  0  0  0  0
 29 27  1  0  0  0  0
 29 25  1  0  0  0  0
 30 31  1  0  0  0  0
 31 34  1  0  0  0  0
 32 34  1  0  0  0  0
 33 35  1  0  0  0  0
 33 31  1  0  0  0  0
 34 36  1  1  0  0  0
 35 32  1  0  0  0  0
 36 38  1  0  0  0  0
 37 36  2  0  0  0  0
 38 43  2  0  0  0  0
 38 42  1  0  0  0  0
 39 41  2  0  0  0  0
 40 41  1  0  0  0  0
 42 40  2  0  0  0  0
 43 39  1  0  0  0  0
M  END
>  <MODEL>
4

>  <REMARK>
 VINA RESULT:      -9.0      2.902      8.114
  Name = 
  9 active torsions:
  status: ('A' for Active; 'I' for Inactive)
    1  A    between atoms: N_1  and  C_35
    2  A    between atoms: C_3  and  N_4
    3  A    between atoms: C_3  and  C_12
    4  A    between atoms: C_8  and  C_34
    5  A    between atoms: C_11  and  C_14
    6  A    between atoms: N_13  and  C_38
    7  A    between atoms: C_14  and  C_22
    8  A    between atoms: C_19  and  C_37
    9  A    between atoms: C_34  and  C_38
                            x       y       z     vdW  Elec       q    Type
                         _______ _______ _______ _____ _____    ______ ____

>  <TORSDO>
F 9

$$$$
=
 OpenBabel11052416093D

 43 48  0  0  1  0  0  0  0  0999 V2000
  190.5120  176.3810  139.8990 N   0  0  0  0  0  0  0  0  0  0  0  0
  189.7200  177.3670  140.2290 C   0  0  0  0  0  0  0  0  0  0  0  0
  189.0240  177.0940  146.7810 C   0  0  0  0  0  0  0  0  0  0  0  0
  189.3210  177.5250  141.6540 C   0  0  0  0  0  0  0  0  0  0  0  0
  188.5110  177.4300  144.4340 C   0  0  0  0  0  0  0  0  0  0  0  0
  190.3910  177.1320  146.4910 C   0  0  0  0  0  3  0  0  0  0  0  0
  188.6070  176.9200  148.0580 F   0  0  0  0  0  0  0  0  0  0  0  0
  189.8870  177.4720  144.1420 C   0  0  0  0  0  0  0  0  0  0  0  0
  188.0860  177.2530  145.7560 C   0  0  0  0  0  3  0  0  0  0  0  0
  190.8210  177.3220  145.1760 C   0  0  0  0  0  3  0  0  0  0  0  0
  191.5340  177.8790  142.4920 O   0  0  0  0  0  0  0  0  0  0  0  0
  190.3240  177.6400  142.7450 C   0  0  0  0  0  0  0  0  0  0  0  0
  188.0180  177.5070  141.9690 C   0  0  0  0  0  3  0  0  0  0  0  0
  187.4880  177.6930  143.3670 C   0  0  0  0  0  2  0  0  0  0  0  0
  190.8040  175.1170  136.2390 C   0  0  0  0  0  2  0  0  0  0  0  0
  192.3050  174.8780  136.3130 C   0  0  2  0  0  3  0  0  0  0  0  0
  192.2890  176.3690  138.3260 C   0  0  0  0  0  3  0  0  0  0  0  0
  190.2250  175.1680  137.6510 C   0  0  0  0  0  2  0  0  0  0  0  0
  191.0170  176.0510  138.5950 C   0  0  0  0  0  0  0  0  0  0  0  0
  192.9470  176.0760  137.0070 C   0  0  0  0  0  2  0  0  0  0  0  0
  194.3150  174.2890  134.9610 C   0  0  0  0  0  1  0  0  0  0  0  0
  192.8620  174.7190  134.9100 C   0  0  0  0  0  2  0  0  0  0  0  0
  189.3420  178.4240  139.2350 C   0  0  0  0  0  2  0  0  0  0  0  0
  187.0270  177.9880  138.3400 C   0  0  0  0  0  0  0  0  0  0  0  0
  185.6300  178.2420  138.4040 N   0  0  0  0  0  0  0  0  0  0  0  0
  187.4800  177.2060  137.4630 O   0  0  0  0  0  0  0  0  0  0  0  0
  184.2250  178.0400  137.9460 C   0  0  2  0  0  3  0  0  0  0  0  0
  187.9020  178.6260  139.2680 N   0  0  0  0  0  2  0  0  0  0  0  0
  184.4320  178.9040  139.0000 C   0  0  0  0  0  2  0  0  0  0  0  0
  183.7330  176.6930  138.4490 C   0  0  0  0  0  2  0  0  0  0  0  0
  183.1350  175.9390  137.3580 N   0  0  0  0  0  0  0  0  0  0  0  0
  182.8850  173.5850  137.0170 C   0  0  0  0  0  2  0  0  0  0  0  0
  181.8390  175.5810  137.7730 N   0  0  0  0  0  2  0  0  0  0  0  0
  183.8850  174.6950  137.2150 C   0  0  1  0  0  3  0  0  0  0  0  0
  181.5610  174.2700  137.2070 C   0  0  0  0  0  2  0  0  0  0  0  0
  184.8540  174.7760  136.0660 C   0  0  0  0  0  0  0  0  0  0  0  0
  184.5600  175.8240  134.8290 S   0  0  0  0  0  0  0  0  0  0  0  0
  186.0760  173.9380  136.0770 C   0  0  0  0  0  0  0  0  0  0  0  0
  187.6140  172.4450  137.2070 C   0  0  0  0  0  3  0  0  0  0  0  0
  188.0270  173.0470  134.9500 C   0  0  0  0  0  3  0  0  0  0  0  0
  188.3690  172.3710  136.0790 N   0  0  0  0  0  0  0  0  0  0  0  0
  186.8760  173.8390  134.9300 C   0  0  0  0  0  3  0  0  0  0  0  0
  186.4580  173.2280  137.2270 C   0  0  0  0  0  3  0  0  0  0  0  0
  1  2  2  0  0  0  0
  2  4  1  0  0  0  0
  3  7  1  0  0  0  0
  4 13  2  0  0  0  0
  4 12  1  0  0  0  0
  5  9  1  0  0  0  0
  6  3  1  0  0  0  0
  8  5  2  0  0  0  0
  8 10  1  0  0  0  0
  9  3  2  0  0  0  0
 10  6  2  0  0  0  0
 11 12  2  0  0  0  0
 12  8  1  0  0  0  0
 13 14  1  0  0  0  0
 14  5  1  0  0  0  0
 15 16  1  0  0  0  0
 15 18  1  0  0  0  0
 16 22  1  6  0  0  0
 16 20  1  0  0  0  0
 17 19  2  0  0  0  0
 18 19  1  0  0  0  0
 19  1  1  0  0  0  0
 20 17  1  0  0  0  0
 22 21  1  0  0  0  0
 23 28  1  0  0  0  0
 23  2  1  0  0  0  0
 24 25  1  0  0  0  0
 24 28  1  0  0  0  0
 25 29  1  0  0  0  0
 26 24  2  0  0  0  0
 27 25  1  0  0  0  0
 27 30  1  1  0  0  0
 27 29  1  0  0  0  0
 31 33  1  0  0  0  0
 31 30  1  0  0  0  0
 32 35  1  0  0  0  0
 32 34  1  0  0  0  0
 34 36  1  6  0  0  0
 34 31  1  0  0  0  0
 35 33  1  0  0  0  0
 36 38  1  0  0  0  0
 37 36  2  0  0  0  0
 38 43  1  0  0  0  0
 39 43  2  0  0  0  0
 40 41  2  0  0  0  0
 41 39  1  0  0  0  0
 42 40  1  0  0  0  0
 42 38  2  0  0  0  0
M  END
>  <MODEL>
5

>  <REMARK>
 VINA RESULT:      -8.9      2.742      6.997
  Name = 
  9 active torsions:
  status: ('A' for Active; 'I' for Inactive)
    1  A    between atoms: N_1  and  C_35
    2  A    between atoms: C_3  and  N_4
    3  A    between atoms: C_3  and  C_12
    4  A    between atoms: C_8  and  C_34
    5  A    between atoms: C_11  and  C_14
    6  A    between atoms: N_13  and  C_38
    7  A    between atoms: C_14  and  C_22
    8  A    between atoms: C_19  and  C_37
    9  A    between atoms: C_34  and  C_38
                            x       y       z     vdW  Elec       q    Type
                         _______ _______ _______ _____ _____    ______ ____

>  <TORSDO>
F 9

$$$$
=
 OpenBabel11052416093D

 43 48  0  0  1  0  0  0  0  0999 V2000
  190.3850  176.6750  140.3170 N   0  0  0  0  0  0  0  0  0  0  0  0
  189.4750  177.5720  140.5980 C   0  0  0  0  0  0  0  0  0  0  0  0
  188.4270  177.1780  147.0970 C   0  0  0  0  0  0  0  0  0  0  0  0
  188.9920  177.6930  142.0000 C   0  0  0  0  0  0  0  0  0  0  0  0
  188.0330  177.5270  144.7290 C   0  0  0  0  0  0  0  0  0  0  0  0
  189.8050  177.2730  146.8850 C   0  0  0  0  0  3  0  0  0  0  0  0
  187.9470  176.9690  148.3460 F   0  0  0  0  0  0  0  0  0  0  0  0
  189.4200  177.6260  144.5150 C   0  0  0  0  0  0  0  0  0  0  0  0
  187.5420  177.3150  146.0230 C   0  0  0  0  0  3  0  0  0  0  0  0
  190.3010  177.4980  145.5980 C   0  0  0  0  0  3  0  0  0  0  0  0
  191.1390  178.1210  142.9650 O   0  0  0  0  0  0  0  0  0  0  0  0
  189.9270  177.8320  143.1470 C   0  0  0  0  0  0  0  0  0  0  0  0
  187.6750  177.6200  142.2420 C   0  0  0  0  0  3  0  0  0  0  0  0
  187.0610  177.7660  143.6100 C   0  0  0  0  0  2  0  0  0  0  0  0
  190.9590  175.5230  136.6550 C   0  0  0  0  0  2  0  0  0  0  0  0
  192.4570  175.3190  136.8250 C   0  0  2  0  0  3  0  0  0  0  0  0
  192.2640  176.7530  138.8710 C   0  0  0  0  0  3  0  0  0  0  0  0
  190.2850  175.5190  138.0240 C   0  0  0  0  0  2  0  0  0  0  0  0
  190.9850  176.3950  139.0430 C   0  0  0  0  0  0  0  0  0  0  0  0
  193.0180  176.5130  137.5930 C   0  0  0  0  0  2  0  0  0  0  0  0
  194.3300  176.1140  135.3850 C   0  0  0  0  0  1  0  0  0  0  0  0
  193.1120  175.2130  135.4600 C   0  0  0  0  0  2  0  0  0  0  0  0
  189.0350  178.5760  139.5760 C   0  0  0  0  0  2  0  0  0  0  0  0
  187.4440  177.9460  137.7250 C   0  0  0  0  0  0  0  0  0  0  0  0
  186.1200  177.6370  137.3120 N   0  0  0  0  0  0  0  0  0  0  0  0
  188.3740  177.9720  136.8760 O   0  0  0  0  0  0  0  0  0  0  0  0
  185.1090  177.2560  136.2840 C   0  0  2  0  0  3  0  0  0  0  0  0
  187.7060  178.2290  139.0990 N   0  0  0  0  0  2  0  0  0  0  0  0
  184.6680  177.4200  137.5790 C   0  0  0  0  0  2  0  0  0  0  0  0
  185.2700  175.7810  135.9590 C   0  0  0  0  0  2  0  0  0  0  0  0
  184.4990  174.9740  136.8940 N   0  0  0  0  0  0  0  0  0  0  0  0
  183.4160  172.8580  136.6320 C   0  0  0  0  0  2  0  0  0  0  0  0
  185.3670  173.9840  137.3900 N   0  0  0  0  0  2  0  0  0  0  0  0
  183.4660  174.2790  136.1330 C   0  0  1  0  0  3  0  0  0  0  0  0
  184.5680  172.7860  137.5940 C   0  0  0  0  0  2  0  0  0  0  0  0
  182.1330  174.9620  136.2790 C   0  0  0  0  0  0  0  0  0  0  0  0
  181.5220  175.8260  135.0160 S   0  0  0  0  0  0  0  0  0  0  0  0
  181.3710  174.8220  137.5420 C   0  0  0  0  0  0  0  0  0  0  0  0
  180.9370  175.4590  139.8390 C   0  0  0  0  0  3  0  0  0  0  0  0
  179.6140  173.7660  138.8340 C   0  0  0  0  0  3  0  0  0  0  0  0
  179.9310  174.5460  139.9010 N   0  0  0  0  0  0  0  0  0  0  0  0
  180.3260  173.8910  137.6380 C   0  0  0  0  0  3  0  0  0  0  0  0
  181.6730  175.6120  138.6620 C   0  0  0  0  0  3  0  0  0  0  0  0
  1  2  2  0  0  0  0
  2  4  1  0  0  0  0
  3  7  1  0  0  0  0
  4 13  2  0  0  0  0
  4 12  1  0  0  0  0
  5  9  1  0  0  0  0
  6  3  1  0  0  0  0
  8  5  2  0  0  0  0
  8 10  1  0  0  0  0
  9  3  2  0  0  0  0
 10  6  2  0  0  0  0
 11 12  2  0  0  0  0
 12  8  1  0  0  0  0
 13 14  1  0  0  0  0
 14  5  1  0  0  0  0
 15 16  1  0  0  0  0
 15 18  1  0  0  0  0
 16 22  1  6  0  0  0
 16 20  1  0  0  0  0
 17 19  2  0  0  0  0
 18 19  1  0  0  0  0
 19  1  1  0  0  0  0
 20 17  1  0  0  0  0
 21 22  1  0  0  0  0
 23  2  1  0  0  0  0
 24 28  1  0  0  0  0
 25 29  1  0  0  0  0
 25 24  1  0  0  0  0
 26 24  2  0  0  0  0
 27 30  1  1  0  0  0
 27 25  1  0  0  0  0
 27 29  1  0  0  0  0
 28 23  1  0  0  0  0
 30 31  1  0  0  0  0
 31 33  1  0  0  0  0
 32 35  1  0  0  0  0
 33 35  1  0  0  0  0
 34 36  1  1  0  0  0
 34 32  1  0  0  0  0
 34 31  1  0  0  0  0
 36 38  1  0  0  0  0
 37 36  2  0  0  0  0
 38 42  2  0  0  0  0
 38 43  1  0  0  0  0
 39 41  1  0  0  0  0
 40 41  2  0  0  0  0
 42 40  1  0  0  0  0
 43 39  2  0  0  0  0
M  END
>  <MODEL>
6

>  <REMARK>
 VINA RESULT:      -8.8      3.028      7.619
  Name = 
  9 active torsions:
  status: ('A' for Active; 'I' for Inactive)
    1  A    between atoms: N_1  and  C_35
    2  A    between atoms: C_3  and  N_4
    3  A    between atoms: C_3  and  C_12
    4  A    between atoms: C_8  and  C_34
    5  A    between atoms: C_11  and  C_14
    6  A    between atoms: N_13  and  C_38
    7  A    between atoms: C_14  and  C_22
    8  A    between atoms: C_19  and  C_37
    9  A    between atoms: C_34  and  C_38
                            x       y       z     vdW  Elec       q    Type
                         _______ _______ _______ _____ _____    ______ ____

>  <TORSDO>
F 9

$$$$
=
 OpenBabel11052416093D

 43 48  0  0  1  0  0  0  0  0999 V2000
  188.5080  177.7250  140.7500 N   0  0  0  0  0  0  0  0  0  0  0  0
  189.5950  177.4490  141.4220 C   0  0  0  0  0  0  0  0  0  0  0  0
  188.2230  177.9590  147.8510 C   0  0  0  0  0  0  0  0  0  0  0  0
  189.5170  177.3300  142.9020 C   0  0  0  0  0  0  0  0  0  0  0  0
  189.4220  177.4980  145.7940 C   0  0  0  0  0  0  0  0  0  0  0  0
  187.0160  177.9830  147.1470 C   0  0  0  0  0  3  0  0  0  0  0  0
  188.2300  178.1640  149.1900 F   0  0  0  0  0  0  0  0  0  0  0  0
  188.2070  177.5180  145.0840 C   0  0  0  0  0  0  0  0  0  0  0  0
  189.4220  177.7070  147.1780 C   0  0  0  0  0  3  0  0  0  0  0  0
  187.0080  177.7620  145.7680 C   0  0  0  0  0  3  0  0  0  0  0  0
  187.1350  177.1310  143.0090 O   0  0  0  0  0  0  0  0  0  0  0  0
  188.2190  177.3150  143.6250 C   0  0  0  0  0  0  0  0  0  0  0  0
  190.6550  177.2910  143.6120 C   0  0  0  0  0  3  0  0  0  0  0  0
  190.7080  177.1350  145.1090 C   0  0  0  0  0  2  0  0  0  0  0  0
  188.9740  178.8780  137.0730 C   0  0  0  0  0  2  0  0  0  0  0  0
  187.5420  178.5640  136.6650 C   0  0  2  0  0  3  0  0  0  0  0  0
  187.4330  177.1340  138.7190 C   0  0  0  0  0  3  0  0  0  0  0  0
  189.0540  179.0080  138.5920 C   0  0  0  0  0  2  0  0  0  0  0  0
  188.3620  177.8800  139.3300 C   0  0  0  0  0  0  0  0  0  0  0  0
  187.1680  177.2010  137.2410 C   0  0  0  0  0  2  0  0  0  0  0  0
  186.5630  177.3930  134.6930 C   0  0  0  0  0  1  0  0  0  0  0  0
  187.4390  178.5430  135.1510 C   0  0  0  0  0  2  0  0  0  0  0  0
  190.8710  177.0940  140.7190 C   0  0  0  0  0  2  0  0  0  0  0  0
  191.3970  175.9720  138.5240 C   0  0  0  0  0  0  0  0  0  0  0  0
  191.0700  174.9880  137.5520 N   0  0  0  0  0  0  0  0  0  0  0  0
  192.3820  176.7340  138.3360 O   0  0  0  0  0  0  0  0  0  0  0  0
  191.3100  174.2610  136.2720 C   0  0  2  0  0  3  0  0  0  0  0  0
  190.6010  176.0910  139.7020 N   0  0  0  0  0  2  0  0  0  0  0  0
  190.2340  173.8650  137.0360 C   0  0  0  0  0  2  0  0  0  0  0  0
  192.4770  173.3080  136.4580 C   0  0  0  0  0  2  0  0  0  0  0  0
  193.7330  174.0430  136.4380 N   0  0  0  0  0  0  0  0  0  0  0  0
  195.6130  173.9130  134.9650 C   0  0  0  0  0  2  0  0  0  0  0  0
  193.5940  175.0590  135.4750 N   0  0  0  0  0  2  0  0  0  0  0  0
  194.7670  173.1400  135.9440 C   0  0  1  0  0  3  0  0  0  0  0  0
  194.8970  175.2280  134.8490 C   0  0  0  0  0  2  0  0  0  0  0  0
  195.5940  172.5920  137.0760 C   0  0  0  0  0  0  0  0  0  0  0  0
  195.6570  170.9640  137.3210 S   0  0  0  0  0  0  0  0  0  0  0  0
  196.3690  173.5200  137.9340 C   0  0  0  0  0  0  0  0  0  0  0  0
  196.5600  174.9450  139.8840 C   0  0  0  0  0  3  0  0  0  0  0  0
  198.4100  174.7330  138.4140 C   0  0  0  0  0  3  0  0  0  0  0  0
  197.8360  175.2540  139.5310 N   0  0  0  0  0  0  0  0  0  0  0  0
  197.6880  173.8580  137.5990 C   0  0  0  0  0  3  0  0  0  0  0  0
  195.8060  174.0750  139.0940 C   0  0  0  0  0  3  0  0  0  0  0  0
  1  2  2  0  0  0  0
  2  4  1  0  0  0  0
  3  7  1  0  0  0  0
  4 13  2  0  0  0  0
  4 12  1  0  0  0  0
  5  9  2  0  0  0  0
  6  3  2  0  0  0  0
  8 10  2  0  0  0  0
  8  5  1  0  0  0  0
  9  3  1  0  0  0  0
 10  6  1  0  0  0  0
 11 12  2  0  0  0  0
 12  8  1  0  0  0  0
 13 14  1  0  0  0  0
 14  5  1  0  0  0  0
 15 18  1  0  0  0  0
 16 22  1  6  0  0  0
 16 15  1  0  0  0  0
 16 20  1  0  0  0  0
 17 19  2  0  0  0  0
 18 19  1  0  0  0  0
 19  1  1  0  0  0  0
 20 17  1  0  0  0  0
 21 22  1  0  0  0  0
 23  2  1  0  0  0  0
 24 28  1  0  0  0  0
 25 24  1  0  0  0  0
 26 24  2  0  0  0  0
 27 30  1  1  0  0  0
 27 29  1  0  0  0  0
 27 25  1  0  0  0  0
 28 23  1  0  0  0  0
 29 25  1  0  0  0  0
 31 30  1  0  0  0  0
 32 34  1  0  0  0  0
 33 31  1  0  0  0  0
 34 31  1  0  0  0  0
 34 36  1  1  0  0  0
 35 32  1  0  0  0  0
 35 33  1  0  0  0  0
 36 37  2  0  0  0  0
 36 38  1  0  0  0  0
 38 43  1  0  0  0  0
 40 41  2  0  0  0  0
 41 39  1  0  0  0  0
 42 38  2  0  0  0  0
 42 40  1  0  0  0  0
 43 39  2  0  0  0  0
M  END
>  <MODEL>
7

>  <REMARK>
 VINA RESULT:      -8.8      3.553      5.237
  Name = 
  9 active torsions:
  status: ('A' for Active; 'I' for Inactive)
    1  A    between atoms: N_1  and  C_35
    2  A    between atoms: C_3  and  N_4
    3  A    between atoms: C_3  and  C_12
    4  A    between atoms: C_8  and  C_34
    5  A    between atoms: C_11  and  C_14
    6  A    between atoms: N_13  and  C_38
    7  A    between atoms: C_14  and  C_22
    8  A    between atoms: C_19  and  C_37
    9  A    between atoms: C_34  and  C_38
                            x       y       z     vdW  Elec       q    Type
                         _______ _______ _______ _____ _____    ______ ____

>  <TORSDO>
F 9

$$$$
=
 OpenBabel11052416093D

 43 48  0  0  1  0  0  0  0  0999 V2000
  190.2260  176.6360  140.6950 N   0  0  0  0  0  0  0  0  0  0  0  0
  189.5290  177.4800  141.4100 C   0  0  0  0  0  0  0  0  0  0  0  0
  188.5990  177.9040  147.9250 C   0  0  0  0  0  0  0  0  0  0  0  0
  189.5940  177.3920  142.8940 C   0  0  0  0  0  0  0  0  0  0  0  0
  189.6980  177.6240  145.7810 C   0  0  0  0  0  0  0  0  0  0  0  0
  187.3590  177.6730  147.3240 C   0  0  0  0  0  3  0  0  0  0  0  0
  188.6730  178.1460  149.2560 F   0  0  0  0  0  0  0  0  0  0  0  0
  188.4490  177.3870  145.1750 C   0  0  0  0  0  0  0  0  0  0  0  0
  189.7670  177.8690  147.1560 C   0  0  0  0  0  3  0  0  0  0  0  0
  187.2840  177.4140  145.9530 C   0  0  0  0  0  3  0  0  0  0  0  0
  187.3130  176.7390  143.2020 O   0  0  0  0  0  0  0  0  0  0  0  0
  188.3850  177.1470  143.7230 C   0  0  0  0  0  0  0  0  0  0  0  0
  190.7700  177.5950  143.5060 C   0  0  0  0  0  3  0  0  0  0  0  0
  190.9720  177.4970  144.9960 C   0  0  0  0  0  2  0  0  0  0  0  0
  189.3260  176.5840  136.9190 C   0  0  0  0  0  2  0  0  0  0  0  0
  190.5120  175.7160  136.5230 C   0  0  2  0  0  3  0  0  0  0  0  0
  191.5200  176.3580  138.7250 C   0  0  0  0  0  3  0  0  0  0  0  0
  189.0600  176.4330  138.4140 C   0  0  0  0  0  2  0  0  0  0  0  0
  190.3090  176.5490  139.2640 C   0  0  0  0  0  0  0  0  0  0  0  0
  191.7510  176.2400  137.2450 C   0  0  0  0  0  2  0  0  0  0  0  0
  192.1180  176.2310  134.6880 C   0  0  0  0  0  1  0  0  0  0  0  0
  190.7080  175.7820  135.0200 C   0  0  0  0  0  2  0  0  0  0  0  0
  188.8030  178.6240  140.7690 C   0  0  0  0  0  2  0  0  0  0  0  0
  186.3330  178.6150  140.2710 C   0  0  0  0  0  0  0  0  0  0  0  0
  184.9940  178.6340  140.7500 N   0  0  0  0  0  0  0  0  0  0  0  0
  186.5520  178.6020  139.0310 O   0  0  0  0  0  0  0  0  0  0  0  0
  183.5160  178.6230  140.5510 C   0  0  2  0  0  3  0  0  0  0  0  0
  187.4140  178.6170  141.2010 N   0  0  0  0  0  2  0  0  0  0  0  0
  183.9830  178.6560  141.8470 C   0  0  0  0  0  2  0  0  0  0  0  0
  183.0810  177.2170  140.1760 C   0  0  0  0  0  2  0  0  0  0  0  0
  182.1920  177.2580  139.0240 N   0  0  0  0  0  0  0  0  0  0  0  0
  181.5780  179.0520  137.5680 C   0  0  0  0  0  2  0  0  0  0  0  0
  183.0050  177.1770  137.8790 N   0  0  0  0  0  2  0  0  0  0  0  0
  181.5620  178.5730  138.9970 C   0  0  1  0  0  3  0  0  0  0  0  0
  182.3750  177.9970  136.8550 C   0  0  0  0  0  2  0  0  0  0  0  0
  180.1610  178.5150  139.5440 C   0  0  0  0  0  0  0  0  0  0  0  0
  178.9310  178.0120  138.5710 S   0  0  0  0  0  0  0  0  0  0  0  0
  179.9100  178.8780  140.9590 C   0  0  0  0  0  0  0  0  0  0  0  0
  179.3910  180.5140  142.6690 C   0  0  0  0  0  3  0  0  0  0  0  0
  179.7150  178.2480  143.2900 C   0  0  0  0  0  3  0  0  0  0  0  0
  179.4420  179.5390  143.6150 N   0  0  0  0  0  0  0  0  0  0  0  0
  179.9530  177.8960  141.9590 C   0  0  0  0  0  3  0  0  0  0  0  0
  179.6250  180.2020  141.3280 C   0  0  0  0  0  3  0  0  0  0  0  0
  1  2  2  0  0  0  0
  2  4  1  0  0  0  0
  3  7  1  0  0  0  0
  4 13  2  0  0  0  0
  4 12  1  0  0  0  0
  5  9  1  0  0  0  0
  6  3  1  0  0  0  0
  8  5  2  0  0  0  0
  8 10  1  0  0  0  0
  9  3  2  0  0  0  0
 10  6  2  0  0  0  0
 11 12  2  0  0  0  0
 12  8  1  0  0  0  0
 13 14  1  0  0  0  0
 14  5  1  0  0  0  0
 15 18  1  0  0  0  0
 16 22  1  6  0  0  0
 16 15  1  0  0  0  0
 16 20  1  0  0  0  0
 17 19  2  0  0  0  0
 18 19  1  0  0  0  0
 19  1  1  0  0  0  0
 20 17  1  0  0  0  0
 21 22  1  0  0  0  0
 23 28  1  0  0  0  0
 23  2  1  0  0  0  0
 24 25  1  0  0  0  0
 24 28  1  0  0  0  0
 25 29  1  0  0  0  0
 26 24  2  0  0  0  0
 27 30  1  1  0  0  0
 27 25  1  0  0  0  0
 27 29  1  0  0  0  0
 31 30  1  0  0  0  0
 32 34  1  0  0  0  0
 33 31  1  0  0  0  0
 34 31  1  0  0  0  0
 34 36  1  6  0  0  0
 35 32  1  0  0  0  0
 35 33  1  0  0  0  0
 36 38  1  0  0  0  0
 37 36  2  0  0  0  0
 38 43  2  0  0  0  0
 38 42  1  0  0  0  0
 39 41  2  0  0  0  0
 40 41  1  0  0  0  0
 42 40  2  0  0  0  0
 43 39  1  0  0  0  0
M  END
>  <MODEL>
8

>  <REMARK>
 VINA RESULT:      -8.6      2.912      8.053
  Name = 
  9 active torsions:
  status: ('A' for Active; 'I' for Inactive)
    1  A    between atoms: N_1  and  C_35
    2  A    between atoms: C_3  and  N_4
    3  A    between atoms: C_3  and  C_12
    4  A    between atoms: C_8  and  C_34
    5  A    between atoms: C_11  and  C_14
    6  A    between atoms: N_13  and  C_38
    7  A    between atoms: C_14  and  C_22
    8  A    between atoms: C_19  and  C_37
    9  A    between atoms: C_34  and  C_38
                            x       y       z     vdW  Elec       q    Type
                         _______ _______ _______ _____ _____    ______ ____

>  <TORSDO>
F 9

$$$$
=
 OpenBabel11052416093D

 43 48  0  0  1  0  0  0  0  0999 V2000
  184.1780  177.7810  141.6610 N   0  0  0  0  0  0  0  0  0  0  0  0
  185.2990  178.3810  141.9660 C   0  0  0  0  0  0  0  0  0  0  0  0
  188.1240  177.9830  147.9120 C   0  0  0  0  0  0  0  0  0  0  0  0
  186.0130  177.9850  143.2090 C   0  0  0  0  0  0  0  0  0  0  0  0
  187.6250  177.5480  145.5780 C   0  0  0  0  0  0  0  0  0  0  0  0
  186.8920  178.6270  148.0590 C   0  0  0  0  0  3  0  0  0  0  0  0
  188.9620  177.8750  148.9700 F   0  0  0  0  0  0  0  0  0  0  0  0
  186.3820  178.1930  145.7270 C   0  0  0  0  0  0  0  0  0  0  0  0
  188.4850  177.4350  146.6760 C   0  0  0  0  0  3  0  0  0  0  0  0
  186.0230  178.7300  146.9700 C   0  0  0  0  0  3  0  0  0  0  0  0
  184.3050  178.7120  144.7180 O   0  0  0  0  0  0  0  0  0  0  0  0
  185.4920  178.3210  144.5600 C   0  0  0  0  0  0  0  0  0  0  0  0
  187.1930  177.3530  143.1080 C   0  0  0  0  0  3  0  0  0  0  0  0
  187.9920  176.8690  144.2900 C   0  0  0  0  0  2  0  0  0  0  0  0
  182.0580  179.4770  138.8870 C   0  0  0  0  0  2  0  0  0  0  0  0
  181.1710  178.2630  138.6520 C   0  0  2  0  0  3  0  0  0  0  0  0
  182.9460  176.9340  139.8190 C   0  0  0  0  0  3  0  0  0  0  0  0
  182.7230  179.3660  140.2560 C   0  0  0  0  0  2  0  0  0  0  0  0
  183.3380  178.0060  140.5190 C   0  0  0  0  0  0  0  0  0  0  0  0
  182.0610  177.0230  138.6080 C   0  0  0  0  0  2  0  0  0  0  0  0
  180.5280  179.8560  136.8450 C   0  0  0  0  0  1  0  0  0  0  0  0
  180.4270  178.4260  137.3390 C   0  0  0  0  0  2  0  0  0  0  0  0
  185.9520  179.3340  141.0110 C   0  0  0  0  0  2  0  0  0  0  0  0
  187.6440  178.2350  139.5020 C   0  0  0  0  0  0  0  0  0  0  0  0
  187.9340  177.5710  138.2790 N   0  0  0  0  0  0  0  0  0  0  0  0
  188.5730  178.4740  140.3190 O   0  0  0  0  0  0  0  0  0  0  0  0
  188.8620  176.8970  137.3260 C   0  0  2  0  0  3  0  0  0  0  0  0
  186.3040  178.6300  139.7890 N   0  0  0  0  0  2  0  0  0  0  0  0
  187.5360  176.9890  136.9640 C   0  0  0  0  0  2  0  0  0  0  0  0
  189.1780  175.5060  137.8480 C   0  0  0  0  0  2  0  0  0  0  0  0
  190.5610  175.4410  138.3000 N   0  0  0  0  0  0  0  0  0  0  0  0
  192.3170  177.0640  138.2400 C   0  0  0  0  0  2  0  0  0  0  0  0
  190.6070  176.0680  139.5580 N   0  0  0  0  0  2  0  0  0  0  0  0
  191.3600  176.2610  137.3960 C   0  0  1  0  0  3  0  0  0  0  0  0
  191.8930  176.7440  139.6460 C   0  0  0  0  0  2  0  0  0  0  0  0
  192.0910  175.4090  136.3940 C   0  0  0  0  0  0  0  0  0  0  0  0
  191.3270  174.9520  135.0070 S   0  0  0  0  0  0  0  0  0  0  0  0
  193.4990  175.0190  136.6490 C   0  0  0  0  0  0  0  0  0  0  0  0
  195.1510  173.6820  137.8100 C   0  0  0  0  0  3  0  0  0  0  0  0
  195.8650  175.2650  136.1940 C   0  0  0  0  0  3  0  0  0  0  0  0
  196.1400  174.3020  137.1130 N   0  0  0  0  0  0  0  0  0  0  0  0
  194.5420  175.6390  135.9460 C   0  0  0  0  0  3  0  0  0  0  0  0
  193.8170  174.0290  137.5920 C   0  0  0  0  0  3  0  0  0  0  0  0
  1  2  2  0  0  0  0
  2  4  1  0  0  0  0
  3  6  1  0  0  0  0
  3  7  1  0  0  0  0
  4 12  1  0  0  0  0
  5  8  2  0  0  0  0
  5  9  1  0  0  0  0
  8 10  1  0  0  0  0
  9  3  2  0  0  0  0
 10  6  2  0  0  0  0
 12 11  2  0  0  0  0
 12  8  1  0  0  0  0
 13  4  2  0  0  0  0
 13 14  1  0  0  0  0
 14  5  1  0  0  0  0
 15 18  1  0  0  0  0
 16 22  1  6  0  0  0
 16 15  1  0  0  0  0
 17 19  2  0  0  0  0
 18 19  1  0  0  0  0
 19  1  1  0  0  0  0
 20 16  1  0  0  0  0
 20 17  1  0  0  0  0
 21 22  1  0  0  0  0
 23  2  1  0  0  0  0
 24 28  1  0  0  0  0
 24 26  2  0  0  0  0
 25 24  1  0  0  0  0
 27 30  1  1  0  0  0
 27 25  1  0  0  0  0
 28 23  1  0  0  0  0
 29 27  1  0  0  0  0
 29 25  1  0  0  0  0
 30 31  1  0  0  0  0
 31 33  1  0  0  0  0
 32 35  1  0  0  0  0
 33 35  1  0  0  0  0
 34 36  1  6  0  0  0
 34 32  1  0  0  0  0
 34 31  1  0  0  0  0
 36 38  1  0  0  0  0
 37 36  2  0  0  0  0
 38 43  1  0  0  0  0
 40 41  2  0  0  0  0
 41 39  1  0  0  0  0
 42 40  1  0  0  0  0
 42 38  2  0  0  0  0
 43 39  2  0  0  0  0
M  END
>  <MODEL>
9

>  <REMARK>
 VINA RESULT:      -8.6      1.774      2.524
  Name = 
  9 active torsions:
  status: ('A' for Active; 'I' for Inactive)
    1  A    between atoms: N_1  and  C_35
    2  A    between atoms: C_3  and  N_4
    3  A    between atoms: C_3  and  C_12
    4  A    between atoms: C_8  and  C_34
    5  A    between atoms: C_11  and  C_14
    6  A    between atoms: N_13  and  C_38
    7  A    between atoms: C_14  and  C_22
    8  A    between atoms: C_19  and  C_37
    9  A    between atoms: C_34  and  C_38
                            x       y       z     vdW  Elec       q    Type
                         _______ _______ _______ _____ _____    ______ ____

>  <TORSDO>
F 9

$$$$
