=
 OpenBabel11052415133D

 55 60  0  0  1  0  0  0  0  0999 V2000
  190.3220  177.3570  143.0230 C   0  0  2  0  0  0  0  0  0  0  0  0
  191.2250  178.5590  143.2090 C   0  0  0  0  0  1  0  0  0  0  0  0
  190.4900  176.6310  145.3250 O   0  0  0  0  0  1  0  0  0  0  0  0
  190.6930  176.3690  144.1070 C   0  0  0  0  0  0  0  0  0  0  0  0
  191.3490  175.1860  143.7720 O   0  0  0  0  0  0  0  0  0  0  0  0
  190.5520  176.8300  141.7240 O   0  0  0  0  0  0  0  0  0  0  0  0
  191.5320  177.5910  141.0570 C   0  0  0  0  0  2  0  0  0  0  0  0
  191.6450  177.1340  139.6160 C   0  0  0  0  0  2  0  0  0  0  0  0
  193.0730  176.7220  139.3110 C   0  0  0  0  0  2  0  0  0  0  0  0
  193.1440  176.0340  137.9620 C   0  0  1  0  0  3  0  0  0  0  0  0
  192.3060  176.6950  137.0800 F   0  0  0  0  0  0  0  0  0  0  0  0
  194.4660  176.0880  137.4810 O   0  0  0  0  0  0  0  0  0  0  0  0
  196.2050  172.9110  138.1900 C   0  0  0  0  0  2  0  0  0  0  0  0
  194.6810  175.0820  136.5020 C   0  0  1  0  0  0  0  0  0  0  0  0
  197.0040  175.1720  138.7490 O   0  0  0  0  0  0  0  0  0  0  0  0
  196.8870  176.0240  136.0970 O   0  0  0  0  0  1  0  0  0  0  0  0
  196.2150  174.8400  136.4140 C   0  0  1  0  0  0  0  0  0  0  0  0
  195.9770  172.3840  135.7400 C   0  0  0  0  0  2  0  0  0  0  0  0
  198.0080  174.5530  138.0910 O   0  0  0  0  0  0  0  0  0  0  0  0
  195.2610  172.3840  137.1000 C   0  0  2  0  0  0  0  0  0  0  0  0
  196.7060  174.2760  137.7500 C   0  0  0  0  0  0  0  0  0  0  0  0
  193.8040  173.5020  136.9950 S   0  0  0  0  0  0  0  0  0  0  0  0
  196.5140  173.7770  135.3470 C   0  0  0  0  0  2  0  0  0  0  0  0
  194.5430  176.7830  134.7100 O   0  0  0  0  0  0  0  0  0  0  0  0
  194.1920  175.5410  135.1910 N   0  0  0  0  0  0  0  0  0  0  0  0
  193.3040  174.8990  134.5950 O   0  0  0  0  0  0  0  0  0  0  0  0
  194.8230  170.9820  137.4190 C   0  0  0  0  0  0  0  0  0  0  0  0
  195.3290  170.3230  138.5370 O   0  0  0  0  0  1  0  0  0  0  0  0
  194.0610  170.3570  136.6280 O   0  0  0  0  0  0  0  0  0  0  0  0
  188.8630  177.8230  143.1790 C   0  0  0  0  0  2  0  0  0  0  0  0
  188.0560  177.3850  142.1180 O   0  0  0  0  0  0  0  0  0  0  0  0
  187.6030  178.5370  141.4580 C   0  0  2  0  0  3  0  0  0  0  0  0
  186.0760  178.7300  141.6420 C   0  0  1  0  0  3  0  0  0  0  0  0
  184.1030  178.9320  143.2780 C   0  0  0  0  0  2  0  0  0  0  0  0
  185.2990  178.4390  144.0680 C   0  0  1  0  0  3  0  0  0  0  0  0
  185.4920  179.4030  142.9090 C   0  0  1  0  0  3  0  0  0  0  0  0
  185.3340  179.2000  145.3820 C   0  0  1  0  0  3  0  0  0  0  0  0
  184.7490  178.4060  146.3890 O   0  0  0  0  0  0  0  0  0  0  0  0
  186.1500  178.4790  146.3880 C   0  0  0  0  0  2  0  0  0  0  0  0
  185.3810  179.2340  140.3690 C   0  0  0  0  0  2  0  0  0  0  0  0
  183.0110  180.4790  139.0770 O   0  0  0  0  0  0  0  0  0  0  0  0
  182.2690  177.1020  139.9970 C   0  0  0  0  0  3  0  0  0  0  0  0
  184.0370  178.6860  140.2090 N   0  0  0  0  0  0  0  0  0  0  0  0
  183.7290  177.2910  140.4330 C   0  0  0  0  0  3  0  0  0  0  0  0
  181.8130  178.4050  139.3340 C   0  0  0  0  0  2  0  0  0  0  0  0
  182.9720  179.2970  139.5110 C   0  0  0  0  0  0  0  0  0  0  0  0
  187.9330  178.4310  139.9610 C   0  0  0  0  0  2  0  0  0  0  0  0
  188.1120  177.0920  139.6000 O   0  0  0  0  0  0  0  0  0  0  0  0
  188.3090  177.1180  138.2200 C   0  0  0  0  0  2  0  0  0  0  0  0
  187.3280  178.0910  137.5970 C   0  0  0  0  0  2  0  0  0  0  0  0
  186.6480  177.4510  136.4420 C   0  0  0  0  0  0  0  0  0  0  0  0
  186.9860  177.7620  135.2720 O   0  0  0  0  0  0  0  0  0  0  0  0
  185.6160  176.5400  136.6760 O   0  0  0  0  0  0  0  0  0  0  0  0
  184.2520  176.9330  136.7370 C   0  0  0  0  0  2  0  0  0  0  0  0
  183.3530  175.7560  136.4010 C   0  0  0  0  0  1  0  0  0  0  0  0
  1 30  1  0  0  0  0
  1  2  1  1  0  0  0
  1  4  1  0  0  0  0
  4  3  1  0  0  0  0
  5  4  2  0  0  0  0
  6  1  1  0  0  0  0
  7  6  1  0  0  0  0
  8  7  1  0  0  0  0
  9  8  1  0  0  0  0
 10 11  1  6  0  0  0
 10  9  1  0  0  0  0
 12 10  1  0  0  0  0
 14 22  1  0  0  0  0
 14 12  1  1  0  0  0
 17 16  1  6  0  0  0
 17 14  1  0  0  0  0
 17 21  1  0  0  0  0
 18 20  1  0  0  0  0
 19 15  1  0  0  0  0
 20 27  1  1  0  0  0
 20 13  1  0  0  0  0
 21 19  1  0  0  0  0
 21 13  1  0  0  0  0
 21 15  1  0  0  0  0
 22 20  1  0  0  0  0
 23 18  1  0  0  0  0
 23 17  1  0  0  0  0
 24 25  2  0  0  0  0
 25 14  1  0  0  0  0
 26 25  2  0  0  0  0
 27 28  1  0  0  0  0
 29 27  2  0  0  0  0
 31 30  1  0  0  0  0
 32 47  1  6  0  0  0
 32 33  1  0  0  0  0
 32 31  1  0  0  0  0
 33 40  1  6  0  0  0
 35 34  1  6  0  0  0
 35 37  1  0  0  0  0
 36 33  1  6  0  0  0
 36 34  1  0  0  0  0
 36 35  1  0  0  0  0
 37 39  1  1  0  0  0
 37 38  1  0  0  0  0
 39 38  1  0  0  0  0
 41 46  2  0  0  0  0
 42 44  2  0  0  0  0
 43 40  1  0  0  0  0
 43 44  1  0  0  0  0
 45 46  1  0  0  0  0
 45 42  1  0  0  0  0
 46 43  1  0  0  0  0
 48 47  1  0  0  0  0
 49 48  1  0  0  0  0
 50 49  1  0  0  0  0
 51 53  1  0  0  0  0
 51 50  1  0  0  0  0
 52 51  2  0  0  0  0
 53 54  1  0  0  0  0
 55 54  1  0  0  0  0
M  END
>  <MODEL>
1

>  <REMARK>
 VINA RESULT:      -6.0      0.000      0.000
  Name = 
  25 active torsions:
  status: ('A' for Active; 'I' for Inactive)
    1  A    between atoms: C_1  and  C_29
    2  A    between atoms: C_2  and  O_28
    3  A    between atoms: C_2  and  C_31
    4  A    between atoms: C_4  and  C_40
    5  A    between atoms: C_6  and  N_20
    6  A    between atoms: C_6  and  O_22
    7  A    between atoms: C_8  and  O_22
    8  A    between atoms: C_8  and  C_35
    9  A    between atoms: C_10  and  O_32
   10  A    between atoms: C_13  and  C_48
   11  A    between atoms: C_13  and  O_52
   12  A    between atoms: N_16  and  C_36
   13  A    between atoms: O_27  and  C_31
   14  A    between atoms: O_27  and  C_54
   15  A    between atoms: O_28  and  C_33
   16  A    between atoms: C_31  and  C_41
   17  A    between atoms: O_32  and  C_39
   18  A    between atoms: C_33  and  C_34
   19  A    between atoms: C_33  and  C_49
   20  A    between atoms: C_34  and  O_52
   21  A    between atoms: C_35  and  C_51
   22  A    between atoms: C_36  and  C_49
   23  A    between atoms: C_39  and  C_48
   24  A    between atoms: C_45  and  C_49
   25  A    between atoms: C_51  and  C_54
                            x       y       z     vdW  Elec       q    Type
                         _______ _______ _______ _____ _____    ______ ____

>  <TORSDO>
F 25

$$$$
=
 OpenBabel11052415133D

 55 60  0  0  1  0  0  0  0  0999 V2000
  186.5970  177.6540  144.0570 C   0  0  2  0  0  0  0  0  0  0  0  0
  186.8020  176.1590  144.1900 C   0  0  0  0  0  1  0  0  0  0  0  0
  186.2510  178.8240  146.1460 O   0  0  0  0  0  1  0  0  0  0  0  0
  187.0660  178.2690  145.3580 C   0  0  0  0  0  0  0  0  0  0  0  0
  188.4250  178.3060  145.6580 O   0  0  0  0  0  0  0  0  0  0  0  0
  185.2160  177.8910  143.8260 O   0  0  0  0  0  0  0  0  0  0  0  0
  185.0250  179.1910  143.3150 C   0  0  0  0  0  2  0  0  0  0  0  0
  183.6100  179.6530  143.6020 C   0  0  0  0  0  2  0  0  0  0  0  0
  182.6330  178.5160  143.3670 C   0  0  0  0  0  2  0  0  0  0  0  0
  181.4890  178.9810  142.4880 C   0  0  1  0  0  3  0  0  0  0  0  0
  180.6300  179.7580  143.2470 F   0  0  0  0  0  0  0  0  0  0  0  0
  182.0000  179.7490  141.4250 O   0  0  0  0  0  0  0  0  0  0  0  0
  183.8330  177.7040  138.9600 C   0  0  0  0  0  2  0  0  0  0  0  0
  181.4390  179.3280  140.1910 C   0  0  1  0  0  0  0  0  0  0  0  0
  184.6390  179.7670  140.0360 O   0  0  0  0  0  0  0  0  0  0  0  0
  182.4660  181.2590  139.1260 O   0  0  0  0  0  1  0  0  0  0  0  0
  182.3550  179.8680  139.0560 C   0  0  1  0  0  0  0  0  0  0  0  0
  181.8270  177.9400  137.4590 C   0  0  0  0  0  2  0  0  0  0  0  0
  184.8020  179.9290  138.7050 O   0  0  0  0  0  0  0  0  0  0  0  0
  182.4250  177.1760  138.6510 C   0  0  2  0  0  0  0  0  0  0  0  0
  183.7310  179.2050  139.1700 C   0  0  0  0  0  0  0  0  0  0  0  0
  181.3570  177.4580  140.1220 S   0  0  0  0  0  0  0  0  0  0  0  0
  181.7820  179.4660  137.6890 C   0  0  0  0  0  2  0  0  0  0  0  0
  179.8100  181.1690  140.4790 O   0  0  0  0  0  0  0  0  0  0  0  0
  180.0910  179.8980  140.0290 N   0  0  0  0  0  0  0  0  0  0  0  0
  179.1440  179.1710  139.6670 O   0  0  0  0  0  0  0  0  0  0  0  0
  182.4750  175.7130  138.3140 C   0  0  0  0  0  0  0  0  0  0  0  0
  183.7000  175.0670  138.1620 O   0  0  0  0  0  1  0  0  0  0  0  0
  181.4100  175.0760  138.0790 O   0  0  0  0  0  0  0  0  0  0  0  0
  187.4480  178.1530  142.8760 C   0  0  0  0  0  2  0  0  0  0  0  0
  187.8180  177.1060  142.0160 O   0  0  0  0  0  0  0  0  0  0  0  0
  188.9510  177.5460  141.3160 C   0  0  2  0  0  3  0  0  0  0  0  0
  190.2110  177.5370  142.2190 C   0  0  1  0  0  3  0  0  0  0  0  0
  191.8540  175.9470  143.3960 C   0  0  0  0  0  2  0  0  0  0  0  0
  191.3120  176.8980  144.4450 C   0  0  1  0  0  3  0  0  0  0  0  0
  190.4280  176.4430  143.2950 C   0  0  1  0  0  3  0  0  0  0  0  0
  190.9960  176.0860  145.6890 C   0  0  1  0  0  3  0  0  0  0  0  0
  192.1850  175.8690  146.4120 O   0  0  0  0  0  0  0  0  0  0  0  0
  191.3210  176.8520  146.9160 C   0  0  0  0  0  2  0  0  0  0  0  0
  191.5040  177.8220  141.4420 C   0  0  0  0  0  2  0  0  0  0  0  0
  193.7810  177.5620  139.5490 O   0  0  0  0  0  0  0  0  0  0  0  0
  190.9980  175.6360  138.3860 C   0  0  0  0  0  3  0  0  0  0  0  0
  191.5400  177.1490  140.1460 N   0  0  0  0  0  0  0  0  0  0  0  0
  190.5000  176.2480  139.7040 C   0  0  0  0  0  3  0  0  0  0  0  0
  192.4510  176.0800  138.1930 C   0  0  0  0  0  2  0  0  0  0  0  0
  192.6800  176.9910  139.3270 C   0  0  0  0  0  0  0  0  0  0  0  0
  188.7060  178.9680  140.7870 C   0  0  0  0  0  2  0  0  0  0  0  0
  188.7790  178.9810  139.3910 O   0  0  0  0  0  0  0  0  0  0  0  0
  187.7160  178.1800  138.9710 C   0  0  0  0  0  2  0  0  0  0  0  0
  187.5600  178.3100  137.4700 C   0  0  0  0  0  2  0  0  0  0  0  0
  187.0480  177.0370  136.9030 C   0  0  0  0  0  0  0  0  0  0  0  0
  185.9650  177.0310  136.2670 O   0  0  0  0  0  0  0  0  0  0  0  0
  187.7640  175.8560  137.1200 O   0  0  0  0  0  0  0  0  0  0  0  0
  187.1610  174.5730  137.0280 C   0  0  0  0  0  2  0  0  0  0  0  0
  188.2280  173.5050  136.8650 C   0  0  0  0  0  1  0  0  0  0  0  0
  1  2  1  1  0  0  0
  1  4  1  0  0  0  0
  4  5  2  0  0  0  0
  4  3  1  0  0  0  0
  6  1  1  0  0  0  0
  7  8  1  0  0  0  0
  7  6  1  0  0  0  0
  9  8  1  0  0  0  0
 10 11  1  1  0  0  0
 10  9  1  0  0  0  0
 12 10  1  0  0  0  0
 13 21  1  0  0  0  0
 14 12  1  1  0  0  0
 17 16  1  1  0  0  0
 17 21  1  0  0  0  0
 17 14  1  0  0  0  0
 18 23  1  0  0  0  0
 18 20  1  0  0  0  0
 19 21  1  0  0  0  0
 19 15  1  0  0  0  0
 20 27  1  6  0  0  0
 20 13  1  0  0  0  0
 20 22  1  0  0  0  0
 21 15  1  0  0  0  0
 22 14  1  0  0  0  0
 23 17  1  0  0  0  0
 25 14  1  0  0  0  0
 25 24  2  0  0  0  0
 26 25  2  0  0  0  0
 28 27  1  0  0  0  0
 29 27  2  0  0  0  0
 30  1  1  0  0  0  0
 31 30  1  0  0  0  0
 32 47  1  1  0  0  0
 32 31  1  0  0  0  0
 32 33  1  0  0  0  0
 33 40  1  6  0  0  0
 35 34  1  6  0  0  0
 35 37  1  0  0  0  0
 36 33  1  6  0  0  0
 36 34  1  0  0  0  0
 36 35  1  0  0  0  0
 37 38  1  0  0  0  0
 37 39  1  1  0  0  0
 38 39  1  0  0  0  0
 42 44  2  0  0  0  0
 43 40  1  0  0  0  0
 44 43  1  0  0  0  0
 45 42  1  0  0  0  0
 45 46  1  0  0  0  0
 46 41  2  0  0  0  0
 46 43  1  0  0  0  0
 48 47  1  0  0  0  0
 49 48  1  0  0  0  0
 50 49  1  0  0  0  0
 51 53  1  0  0  0  0
 51 50  1  0  0  0  0
 52 51  2  0  0  0  0
 54 53  1  0  0  0  0
 55 54  1  0  0  0  0
M  END
>  <MODEL>
2

>  <REMARK>
 VINA RESULT:      -5.3      4.120      9.933
  Name = 
  25 active torsions:
  status: ('A' for Active; 'I' for Inactive)
    1  A    between atoms: C_1  and  C_29
    2  A    between atoms: C_2  and  O_28
    3  A    between atoms: C_2  and  C_31
    4  A    between atoms: C_4  and  C_40
    5  A    between atoms: C_6  and  N_20
    6  A    between atoms: C_6  and  O_22
    7  A    between atoms: C_8  and  O_22
    8  A    between atoms: C_8  and  C_35
    9  A    between atoms: C_10  and  O_32
   10  A    between atoms: C_13  and  C_48
   11  A    between atoms: C_13  and  O_52
   12  A    between atoms: N_16  and  C_36
   13  A    between atoms: O_27  and  C_31
   14  A    between atoms: O_27  and  C_54
   15  A    between atoms: O_28  and  C_33
   16  A    between atoms: C_31  and  C_41
   17  A    between atoms: O_32  and  C_39
   18  A    between atoms: C_33  and  C_34
   19  A    between atoms: C_33  and  C_49
   20  A    between atoms: C_34  and  O_52
   21  A    between atoms: C_35  and  C_51
   22  A    between atoms: C_36  and  C_49
   23  A    between atoms: C_39  and  C_48
   24  A    between atoms: C_45  and  C_49
   25  A    between atoms: C_51  and  C_54
                            x       y       z     vdW  Elec       q    Type
                         _______ _______ _______ _____ _____    ______ ____

>  <TORSDO>
F 25

$$$$
=
 OpenBabel11052415133D

 55 60  0  0  1  0  0  0  0  0999 V2000
  187.5220  177.7340  143.1910 C   0  0  2  0  0  0  0  0  0  0  0  0
  187.4690  176.2240  143.3100 C   0  0  0  0  0  1  0  0  0  0  0  0
  188.0090  178.0880  145.5340 O   0  0  0  0  0  1  0  0  0  0  0  0
  188.3810  178.2250  144.3360 C   0  0  0  0  0  0  0  0  0  0  0  0
  189.5590  178.9190  144.0700 O   0  0  0  0  0  0  0  0  0  0  0  0
  186.1930  178.2290  143.2760 O   0  0  0  0  0  0  0  0  0  0  0  0
  185.8940  179.0160  142.1450 C   0  0  0  0  0  2  0  0  0  0  0  0
  184.4060  178.9630  141.8610 C   0  0  0  0  0  2  0  0  0  0  0  0
  183.6440  178.6550  143.1350 C   0  0  0  0  0  2  0  0  0  0  0  0
  182.1630  178.5160  142.8400 C   0  0  1  0  0  3  0  0  0  0  0  0
  181.4460  178.9500  143.9410 F   0  0  0  0  0  0  0  0  0  0  0  0
  181.8350  179.3080  141.7240 O   0  0  0  0  0  0  0  0  0  0  0  0
  182.7220  178.5820  138.2160 C   0  0  0  0  0  2  0  0  0  0  0  0
  180.9860  178.5930  140.8380 C   0  0  1  0  0  0  0  0  0  0  0  0
  182.8330  180.7750  139.3290 O   0  0  0  0  0  0  0  0  0  0  0  0
  180.1340  180.7210  140.0230 O   0  0  0  0  0  1  0  0  0  0  0  0
  180.7090  179.5140  139.6150 C   0  0  1  0  0  0  0  0  0  0  0  0
  180.4300  177.5690  137.9780 C   0  0  0  0  0  2  0  0  0  0  0  0
  182.1300  180.9490  138.1890 O   0  0  0  0  0  0  0  0  0  0  0  0
  181.8660  177.3320  138.4700 C   0  0  2  0  0  0  0  0  0  0  0  0
  182.0250  179.7620  138.8730 C   0  0  0  0  0  0  0  0  0  0  0  0
  181.8190  177.0110  140.2810 S   0  0  0  0  0  0  0  0  0  0  0  0
  179.7700  178.8030  138.6300 C   0  0  0  0  0  2  0  0  0  0  0  0
  178.9820  179.2770  142.1190 O   0  0  0  0  0  0  0  0  0  0  0  0
  179.7090  178.2830  141.5020 N   0  0  0  0  0  0  0  0  0  0  0  0
  179.3710  177.0960  141.6850 O   0  0  0  0  0  0  0  0  0  0  0  0
  182.4400  176.1480  137.7440 C   0  0  0  0  0  0  0  0  0  0  0  0
  182.2390  175.9970  136.3730 O   0  0  0  0  0  0  0  0  0  0  0  0
  183.0310  175.2330  138.3830 O   0  0  0  0  0  1  0  0  0  0  0  0
  188.1570  178.0880  141.8350 C   0  0  0  0  0  2  0  0  0  0  0  0
  188.5170  176.9410  141.1090 O   0  0  0  0  0  0  0  0  0  0  0  0
  188.7380  177.3580  139.7880 C   0  0  2  0  0  3  0  0  0  0  0  0
  190.2510  177.5360  139.4980 C   0  0  1  0  0  3  0  0  0  0  0  0
  192.6170  177.5750  140.5020 C   0  0  0  0  0  2  0  0  0  0  0  0
  191.6350  177.4930  141.6550 C   0  0  1  0  0  3  0  0  0  0  0  0
  191.3270  176.8030  140.3360 C   0  0  1  0  0  3  0  0  0  0  0  0
  192.1740  176.4810  142.6520 C   0  0  1  0  0  3  0  0  0  0  0  0
  191.8970  176.9290  143.9580 O   0  0  0  0  0  0  0  0  0  0  0  0
  191.0760  175.9050  143.4640 C   0  0  0  0  0  2  0  0  0  0  0  0
  190.5800  177.4890  137.9990 C   0  0  0  0  0  2  0  0  0  0  0  0
  193.1260  176.0750  137.4070 O   0  0  0  0  0  0  0  0  0  0  0  0
  190.3690  173.8190  137.0730 C   0  0  0  0  0  3  0  0  0  0  0  0
  190.7740  176.1260  137.5090 N   0  0  0  0  0  0  0  0  0  0  0  0
  189.7140  175.1430  137.4940 C   0  0  0  0  0  3  0  0  0  0  0  0
  191.8830  174.0460  137.0330 C   0  0  0  0  0  2  0  0  0  0  0  0
  192.0170  175.4830  137.3240 C   0  0  0  0  0  0  0  0  0  0  0  0
  188.0050  178.6870  139.5420 C   0  0  0  0  0  2  0  0  0  0  0  0
  187.4480  178.6990  138.2600 O   0  0  0  0  0  0  0  0  0  0  0  0
  186.7110  177.5170  138.1810 C   0  0  0  0  0  2  0  0  0  0  0  0
  186.0240  177.4510  136.8320 C   0  0  0  0  0  2  0  0  0  0  0  0
  185.9440  176.0400  136.3760 C   0  0  0  0  0  0  0  0  0  0  0  0
  185.5440  175.7850  135.2120 O   0  0  0  0  0  0  0  0  0  0  0  0
  186.2800  175.0140  137.2630 O   0  0  0  0  0  0  0  0  0  0  0  0
  186.3080  173.6490  136.8720 C   0  0  0  0  0  2  0  0  0  0  0  0
  185.3160  172.8490  137.6980 C   0  0  0  0  0  1  0  0  0  0  0  0
  1  6  1  0  0  0  0
  1  2  1  1  0  0  0
  1  4  1  0  0  0  0
  4  3  1  0  0  0  0
  5  4  2  0  0  0  0
  7  6  1  0  0  0  0
  8  7  1  0  0  0  0
  8  9  1  0  0  0  0
 10  9  1  0  0  0  0
 10 11  1  1  0  0  0
 12 10  1  0  0  0  0
 13 20  1  0  0  0  0
 13 21  1  0  0  0  0
 14 25  1  0  0  0  0
 14 12  1  1  0  0  0
 17 16  1  1  0  0  0
 17 14  1  0  0  0  0
 18 20  1  0  0  0  0
 18 23  1  0  0  0  0
 19 21  1  0  0  0  0
 19 15  1  0  0  0  0
 20 27  1  6  0  0  0
 20 22  1  0  0  0  0
 21 15  1  0  0  0  0
 21 17  1  0  0  0  0
 22 14  1  0  0  0  0
 23 17  1  0  0  0  0
 25 26  2  0  0  0  0
 25 24  2  0  0  0  0
 27 29  1  0  0  0  0
 28 27  2  0  0  0  0
 30  1  1  0  0  0  0
 31 30  1  0  0  0  0
 32 47  1  1  0  0  0
 32 31  1  0  0  0  0
 33 40  1  6  0  0  0
 33 32  1  0  0  0  0
 35 34  1  6  0  0  0
 35 37  1  0  0  0  0
 36 33  1  6  0  0  0
 36 34  1  0  0  0  0
 36 35  1  0  0  0  0
 37 39  1  6  0  0  0
 37 38  1  0  0  0  0
 39 38  1  0  0  0  0
 42 44  2  0  0  0  0
 43 40  1  0  0  0  0
 44 43  1  0  0  0  0
 45 42  1  0  0  0  0
 45 46  1  0  0  0  0
 46 41  2  0  0  0  0
 46 43  1  0  0  0  0
 48 47  1  0  0  0  0
 49 48  1  0  0  0  0
 50 49  1  0  0  0  0
 51 50  1  0  0  0  0
 51 53  1  0  0  0  0
 52 51  2  0  0  0  0
 54 53  1  0  0  0  0
 54 55  1  0  0  0  0
M  END
>  <MODEL>
3

>  <REMARK>
 VINA RESULT:      -5.1      3.761     10.359
  Name = 
  25 active torsions:
  status: ('A' for Active; 'I' for Inactive)
    1  A    between atoms: C_1  and  C_29
    2  A    between atoms: C_2  and  O_28
    3  A    between atoms: C_2  and  C_31
    4  A    between atoms: C_4  and  C_40
    5  A    between atoms: C_6  and  N_20
    6  A    between atoms: C_6  and  O_22
    7  A    between atoms: C_8  and  O_22
    8  A    between atoms: C_8  and  C_35
    9  A    between atoms: C_10  and  O_32
   10  A    between atoms: C_13  and  C_48
   11  A    between atoms: C_13  and  O_52
   12  A    between atoms: N_16  and  C_36
   13  A    between atoms: O_27  and  C_31
   14  A    between atoms: O_27  and  C_54
   15  A    between atoms: O_28  and  C_33
   16  A    between atoms: C_31  and  C_41
   17  A    between atoms: O_32  and  C_39
   18  A    between atoms: C_33  and  C_34
   19  A    between atoms: C_33  and  C_49
   20  A    between atoms: C_34  and  O_52
   21  A    between atoms: C_35  and  C_51
   22  A    between atoms: C_36  and  C_49
   23  A    between atoms: C_39  and  C_48
   24  A    between atoms: C_45  and  C_49
   25  A    between atoms: C_51  and  C_54
                            x       y       z     vdW  Elec       q    Type
                         _______ _______ _______ _____ _____    ______ ____

>  <TORSDO>
F 25

$$$$
=
 OpenBabel11052415133D

 55 60  0  0  1  0  0  0  0  0999 V2000
  182.9250  178.1670  140.2860 C   0  0  2  0  0  0  0  0  0  0  0  0
  183.3860  179.3920  139.5230 C   0  0  0  0  0  1  0  0  0  0  0  0
  180.8450  177.6310  141.3990 O   0  0  0  0  0  1  0  0  0  0  0  0
  181.5900  178.5220  140.9050 C   0  0  0  0  0  0  0  0  0  0  0  0
  181.1300  179.8350  140.8540 O   0  0  0  0  0  0  0  0  0  0  0  0
  183.9030  177.8690  141.2730 O   0  0  0  0  0  0  0  0  0  0  0  0
  184.2800  179.0430  141.9540 C   0  0  0  0  0  2  0  0  0  0  0  0
  185.7660  179.2860  141.7770 C   0  0  0  0  0  2  0  0  0  0  0  0
  186.5580  178.1910  142.4660 C   0  0  0  0  0  2  0  0  0  0  0  0
  187.8540  177.9340  141.7220 C   0  0  1  0  0  3  0  0  0  0  0  0
  187.8290  178.6330  140.5270 F   0  0  0  0  0  0  0  0  0  0  0  0
  188.9360  178.3810  142.5030 O   0  0  0  0  0  0  0  0  0  0  0  0
  190.3590  178.8990  145.8690 C   0  0  0  0  0  2  0  0  0  0  0  0
  189.4390  177.3240  143.3070 C   0  0  1  0  0  0  0  0  0  0  0  0
  190.9540  180.1330  143.8240 O   0  0  0  0  0  0  0  0  0  0  0  0
  191.6660  177.8100  142.4570 O   0  0  0  0  0  1  0  0  0  0  0  0
  190.9240  177.6540  143.6310 C   0  0  1  0  0  0  0  0  0  0  0  0
  190.8970  176.4410  145.8830 C   0  0  0  0  0  2  0  0  0  0  0  0
  192.1100  179.6940  144.3680 O   0  0  0  0  0  0  0  0  0  0  0  0
  189.7960  177.4900  146.1040 C   0  0  2  0  0  0  0  0  0  0  0  0
  190.9760  178.9270  144.4810 C   0  0  0  0  0  0  0  0  0  0  0  0
  188.4470  177.1870  144.8900 S   0  0  0  0  0  0  0  0  0  0  0  0
  191.5350  176.5290  144.4790 C   0  0  0  0  0  2  0  0  0  0  0  0
  189.9980  175.9320  141.3390 O   0  0  0  0  0  0  0  0  0  0  0  0
  189.3820  176.0540  142.5650 N   0  0  0  0  0  0  0  0  0  0  0  0
  188.6150  175.1440  142.9410 O   0  0  0  0  0  0  0  0  0  0  0  0
  189.2750  177.3600  147.5070 C   0  0  0  0  0  0  0  0  0  0  0  0
  188.0740  176.6980  147.7540 O   0  0  0  0  0  0  0  0  0  0  0  0
  189.8740  177.9260  148.4640 O   0  0  0  0  0  1  0  0  0  0  0  0
  182.7770  177.0050  139.2870 C   0  0  0  0  0  2  0  0  0  0  0  0
  183.5010  177.2340  138.1060 O   0  0  0  0  0  0  0  0  0  0  0  0
  182.8060  176.5790  137.0790 C   0  0  2  0  0  3  0  0  0  0  0  0
  183.6090  175.3680  136.5370 C   0  0  1  0  0  3  0  0  0  0  0  0
  183.5640  172.8040  136.3490 C   0  0  0  0  0  2  0  0  0  0  0  0
  182.2940  173.2300  137.0600 C   0  0  1  0  0  3  0  0  0  0  0  0
  182.8970  174.1110  135.9780 C   0  0  1  0  0  3  0  0  0  0  0  0
  181.1450  172.4200  136.4840 C   0  0  1  0  0  3  0  0  0  0  0  0
  180.7060  171.4940  137.4500 O   0  0  0  0  0  0  0  0  0  0  0  0
  179.9050  172.6320  137.2680 C   0  0  0  0  0  2  0  0  0  0  0  0
  184.7900  175.7840  135.6490 C   0  0  0  0  0  2  0  0  0  0  0  0
  186.7510  174.2070  137.2310 O   0  0  0  0  0  0  0  0  0  0  0  0
  187.7330  177.6470  137.1480 C   0  0  0  0  0  3  0  0  0  0  0  0
  185.9330  176.2630  136.4230 N   0  0  0  0  0  0  0  0  0  0  0  0
  186.4480  177.6090  136.3070 C   0  0  0  0  0  3  0  0  0  0  0  0
  188.0340  176.2130  137.5940 C   0  0  0  0  0  2  0  0  0  0  0  0
  186.8780  175.4520  137.0900 C   0  0  0  0  0  0  0  0  0  0  0  0
  182.5320  177.5690  135.9360 C   0  0  0  0  0  2  0  0  0  0  0  0
  181.1560  177.7810  135.8030 O   0  0  0  0  0  0  0  0  0  0  0  0
  180.9790  179.1400  136.0620 C   0  0  0  0  0  2  0  0  0  0  0  0
  180.2760  179.3040  137.3930 C   0  0  0  0  0  2  0  0  0  0  0  0
  180.1090  180.7470  137.7020 C   0  0  0  0  0  0  0  0  0  0  0  0
  179.1380  181.1230  138.4060 O   0  0  0  0  0  0  0  0  0  0  0  0
  181.0170  181.6680  137.1740 O   0  0  0  0  0  0  0  0  0  0  0  0
  180.6010  182.8750  136.5520 C   0  0  0  0  0  2  0  0  0  0  0  0
  180.7300  182.7580  135.0440 C   0  0  0  0  0  1  0  0  0  0  0  0
  1  2  1  6  0  0  0
  1  4  1  0  0  0  0
  1  6  1  0  0  0  0
  4  3  1  0  0  0  0
  5  4  2  0  0  0  0
  6  7  1  0  0  0  0
  8  7  1  0  0  0  0
  8  9  1  0  0  0  0
 10 11  1  6  0  0  0
 10  9  1  0  0  0  0
 10 12  1  0  0  0  0
 13 20  1  0  0  0  0
 14 12  1  6  0  0  0
 14 17  1  0  0  0  0
 14 22  1  0  0  0  0
 15 19  1  0  0  0  0
 15 21  1  0  0  0  0
 17 16  1  6  0  0  0
 17 23  1  0  0  0  0
 17 21  1  0  0  0  0
 18 20  1  0  0  0  0
 19 21  1  0  0  0  0
 20 27  1  1  0  0  0
 21 13  1  0  0  0  0
 22 20  1  0  0  0  0
 23 18  1  0  0  0  0
 24 25  2  0  0  0  0
 25 26  2  0  0  0  0
 25 14  1  0  0  0  0
 27 28  2  0  0  0  0
 27 29  1  0  0  0  0
 30  1  1  0  0  0  0
 31 30  1  0  0  0  0
 32 47  1  6  0  0  0
 32 31  1  0  0  0  0
 33 40  1  6  0  0  0
 33 32  1  0  0  0  0
 35 34  1  6  0  0  0
 36 34  1  0  0  0  0
 36 33  1  1  0  0  0
 36 35  1  0  0  0  0
 37 35  1  0  0  0  0
 37 39  1  1  0  0  0
 37 38  1  0  0  0  0
 39 38  1  0  0  0  0
 40 43  1  0  0  0  0
 42 45  1  0  0  0  0
 43 46  1  0  0  0  0
 44 43  1  0  0  0  0
 44 42  2  0  0  0  0
 46 41  2  0  0  0  0
 46 45  1  0  0  0  0
 48 47  1  0  0  0  0
 48 49  1  0  0  0  0
 49 50  1  0  0  0  0
 50 51  1  0  0  0  0
 51 52  2  0  0  0  0
 53 51  1  0  0  0  0
 54 53  1  0  0  0  0
 55 54  1  0  0  0  0
M  END
>  <MODEL>
4

>  <REMARK>
 VINA RESULT:      -4.7      5.196      8.976
  Name = 
  25 active torsions:
  status: ('A' for Active; 'I' for Inactive)
    1  A    between atoms: C_1  and  C_29
    2  A    between atoms: C_2  and  O_28
    3  A    between atoms: C_2  and  C_31
    4  A    between atoms: C_4  and  C_40
    5  A    between atoms: C_6  and  N_20
    6  A    between atoms: C_6  and  O_22
    7  A    between atoms: C_8  and  O_22
    8  A    between atoms: C_8  and  C_35
    9  A    between atoms: C_10  and  O_32
   10  A    between atoms: C_13  and  C_48
   11  A    between atoms: C_13  and  O_52
   12  A    between atoms: N_16  and  C_36
   13  A    between atoms: O_27  and  C_31
   14  A    between atoms: O_27  and  C_54
   15  A    between atoms: O_28  and  C_33
   16  A    between atoms: C_31  and  C_41
   17  A    between atoms: O_32  and  C_39
   18  A    between atoms: C_33  and  C_34
   19  A    between atoms: C_33  and  C_49
   20  A    between atoms: C_34  and  O_52
   21  A    between atoms: C_35  and  C_51
   22  A    between atoms: C_36  and  C_49
   23  A    between atoms: C_39  and  C_48
   24  A    between atoms: C_45  and  C_49
   25  A    between atoms: C_51  and  C_54
                            x       y       z     vdW  Elec       q    Type
                         _______ _______ _______ _____ _____    ______ ____

>  <TORSDO>
F 25

$$$$
=
 OpenBabel11052415133D

 55 60  0  0  1  0  0  0  0  0999 V2000
  190.9310  177.3850  142.9580 C   0  0  2  0  0  0  0  0  0  0  0  0
  191.2060  178.7200  143.6190 C   0  0  0  0  0  1  0  0  0  0  0  0
  190.4080  176.7550  145.2350 O   0  0  0  0  0  1  0  0  0  0  0  0
  190.7430  176.3820  144.0770 C   0  0  0  0  0  0  0  0  0  0  0  0
  191.0270  175.0370  143.8570 O   0  0  0  0  0  0  0  0  0  0  0  0
  192.0460  177.0610  142.1390 O   0  0  0  0  0  0  0  0  0  0  0  0
  192.0840  177.9080  141.0130 C   0  0  0  0  0  2  0  0  0  0  0  0
  192.4790  177.1120  139.7850 C   0  0  0  0  0  2  0  0  0  0  0  0
  191.2580  176.4420  139.1850 C   0  0  0  0  0  2  0  0  0  0  0  0
  191.4230  176.2980  137.6840 C   0  0  1  0  0  3  0  0  0  0  0  0
  190.8790  177.4110  137.0670 F   0  0  0  0  0  0  0  0  0  0  0  0
  192.7930  176.2120  137.3730 O   0  0  0  0  0  0  0  0  0  0  0  0
  196.1950  175.2130  136.3490 C   0  0  0  0  0  2  0  0  0  0  0  0
  193.0930  174.9530  136.7880 C   0  0  1  0  0  0  0  0  0  0  0  0
  195.0510  177.3150  135.7680 O   0  0  0  0  0  0  0  0  0  0  0  0
  192.8990  175.9860  134.5950 O   0  0  0  0  0  1  0  0  0  0  0  0
  193.7490  175.2270  135.4050 C   0  0  1  0  0  0  0  0  0  0  0  0
  195.1680  173.1000  135.4480 C   0  0  0  0  0  2  0  0  0  0  0  0
  195.5010  176.7800  134.6120 O   0  0  0  0  0  0  0  0  0  0  0  0
  195.6750  173.8140  136.7100 C   0  0  2  0  0  0  0  0  0  0  0  0
  195.0820  175.9480  135.6220 C   0  0  0  0  0  0  0  0  0  0  0  0
  194.2710  173.9950  137.8850 S   0  0  0  0  0  0  0  0  0  0  0  0
  194.0720  173.8970  134.7090 C   0  0  0  0  0  2  0  0  0  0  0  0
  191.1610  174.2710  135.3990 O   0  0  0  0  0  0  0  0  0  0  0  0
  191.8540  174.1820  136.5860 N   0  0  0  0  0  0  0  0  0  0  0  0
  191.3150  173.6010  137.5500 O   0  0  0  0  0  0  0  0  0  0  0  0
  196.7710  172.9910  137.3280 C   0  0  0  0  0  0  0  0  0  0  0  0
  196.6700  171.6020  137.3680 O   0  0  0  0  0  0  0  0  0  0  0  0
  197.7480  173.5540  137.8960 O   0  0  0  0  0  1  0  0  0  0  0  0
  189.6490  177.5180  142.1180 C   0  0  0  0  0  2  0  0  0  0  0  0
  188.7960  178.5150  142.6170 O   0  0  0  0  0  0  0  0  0  0  0  0
  187.8280  178.7450  141.6280 C   0  0  2  0  0  3  0  0  0  0  0  0
  186.4260  178.2700  142.0900 C   0  0  1  0  0  3  0  0  0  0  0  0
  187.2140  178.0320  144.5250 C   0  0  0  0  0  2  0  0  0  0  0  0
  185.8090  178.6010  144.5560 C   0  0  1  0  0  3  0  0  0  0  0  0
  186.2100  177.6110  143.4750 C   0  0  1  0  0  3  0  0  0  0  0  0
  185.0410  177.8830  145.6520 C   0  0  1  0  0  3  0  0  0  0  0  0
  185.7650  177.9740  146.8570 O   0  0  0  0  0  0  0  0  0  0  0  0
  184.6570  178.8250  146.7310 C   0  0  0  0  0  2  0  0  0  0  0  0
  185.3190  179.2870  141.7750 C   0  0  0  0  0  2  0  0  0  0  0  0
  184.4800  180.3510  139.1300 O   0  0  0  0  0  0  0  0  0  0  0  0
  182.8800  177.2110  139.7470 C   0  0  0  0  0  3  0  0  0  0  0  0
  184.3150  178.7570  140.8550 N   0  0  0  0  0  0  0  0  0  0  0  0
  183.7510  177.4330  140.9920 C   0  0  0  0  0  3  0  0  0  0  0  0
  183.1220  178.3900  138.7990 C   0  0  0  0  0  2  0  0  0  0  0  0
  184.0190  179.2660  139.5720 C   0  0  0  0  0  0  0  0  0  0  0  0
  188.2260  178.0030  140.3420 C   0  0  0  0  0  2  0  0  0  0  0  0
  187.5510  178.5460  139.2450 O   0  0  0  0  0  0  0  0  0  0  0  0
  187.9980  177.8070  138.1500 C   0  0  0  0  0  2  0  0  0  0  0  0
  186.8790  176.9080  137.6670 C   0  0  0  0  0  2  0  0  0  0  0  0
  187.4270  175.8530  136.7770 C   0  0  0  0  0  0  0  0  0  0  0  0
  188.0620  176.1810  135.7430 O   0  0  0  0  0  0  0  0  0  0  0  0
  187.1940  174.5110  137.0850 O   0  0  0  0  0  0  0  0  0  0  0  0
  186.1860  173.7450  136.4400 C   0  0  0  0  0  2  0  0  0  0  0  0
  184.8690  173.8840  137.1820 C   0  0  0  0  0  1  0  0  0  0  0  0
  1  2  1  1  0  0  0
  1  4  1  0  0  0  0
  4  3  1  0  0  0  0
  5  4  2  0  0  0  0
  6  1  1  0  0  0  0
  7  6  1  0  0  0  0
  8  7  1  0  0  0  0
  9  8  1  0  0  0  0
 10 11  1  6  0  0  0
 10  9  1  0  0  0  0
 12 10  1  0  0  0  0
 13 20  1  0  0  0  0
 14 12  1  1  0  0  0
 14 22  1  0  0  0  0
 17 16  1  6  0  0  0
 17 21  1  0  0  0  0
 17 14  1  0  0  0  0
 18 20  1  0  0  0  0
 19 21  1  0  0  0  0
 19 15  1  0  0  0  0
 20 27  1  1  0  0  0
 20 22  1  0  0  0  0
 21 15  1  0  0  0  0
 21 13  1  0  0  0  0
 23 17  1  0  0  0  0
 23 18  1  0  0  0  0
 24 25  2  0  0  0  0
 25 14  1  0  0  0  0
 25 26  2  0  0  0  0
 27 28  2  0  0  0  0
 27 29  1  0  0  0  0
 30 31  1  0  0  0  0
 30  1  1  0  0  0  0
 32 47  1  6  0  0  0
 32 33  1  0  0  0  0
 32 31  1  0  0  0  0
 33 40  1  1  0  0  0
 35 34  1  1  0  0  0
 35 37  1  0  0  0  0
 36 33  1  6  0  0  0
 36 34  1  0  0  0  0
 36 35  1  0  0  0  0
 37 39  1  1  0  0  0
 37 38  1  0  0  0  0
 39 38  1  0  0  0  0
 41 46  2  0  0  0  0
 42 44  2  0  0  0  0
 43 44  1  0  0  0  0
 43 40  1  0  0  0  0
 45 46  1  0  0  0  0
 45 42  1  0  0  0  0
 46 43  1  0  0  0  0
 48 47  1  0  0  0  0
 49 48  1  0  0  0  0
 50 49  1  0  0  0  0
 51 53  1  0  0  0  0
 51 50  1  0  0  0  0
 52 51  2  0  0  0  0
 54 53  1  0  0  0  0
 54 55  1  0  0  0  0
M  END
>  <MODEL>
5

>  <REMARK>
 VINA RESULT:      -4.5      1.536      2.214
  Name = 
  25 active torsions:
  status: ('A' for Active; 'I' for Inactive)
    1  A    between atoms: C_1  and  C_29
    2  A    between atoms: C_2  and  O_28
    3  A    between atoms: C_2  and  C_31
    4  A    between atoms: C_4  and  C_40
    5  A    between atoms: C_6  and  N_20
    6  A    between atoms: C_6  and  O_22
    7  A    between atoms: C_8  and  O_22
    8  A    between atoms: C_8  and  C_35
    9  A    between atoms: C_10  and  O_32
   10  A    between atoms: C_13  and  C_48
   11  A    between atoms: C_13  and  O_52
   12  A    between atoms: N_16  and  C_36
   13  A    between atoms: O_27  and  C_31
   14  A    between atoms: O_27  and  C_54
   15  A    between atoms: O_28  and  C_33
   16  A    between atoms: C_31  and  C_41
   17  A    between atoms: O_32  and  C_39
   18  A    between atoms: C_33  and  C_34
   19  A    between atoms: C_33  and  C_49
   20  A    between atoms: C_34  and  O_52
   21  A    between atoms: C_35  and  C_51
   22  A    between atoms: C_36  and  C_49
   23  A    between atoms: C_39  and  C_48
   24  A    between atoms: C_45  and  C_49
   25  A    between atoms: C_51  and  C_54
                            x       y       z     vdW  Elec       q    Type
                         _______ _______ _______ _____ _____    ______ ____

>  <TORSDO>
F 25

$$$$
=
 OpenBabel11052415133D

 55 60  0  0  1  0  0  0  0  0999 V2000
  189.4750  177.0980  139.0810 C   0  0  2  0  0  0  0  0  0  0  0  0
  189.0750  178.5230  138.7570 C   0  0  0  0  0  1  0  0  0  0  0  0
  191.4260  176.6550  137.7210 O   0  0  0  0  0  0  0  0  0  0  0  0
  190.9660  177.0040  138.8430 C   0  0  0  0  0  0  0  0  0  0  0  0
  191.8510  177.2200  139.8970 O   0  0  0  0  0  1  0  0  0  0  0  0
  188.7460  176.2300  138.2240 O   0  0  0  0  0  0  0  0  0  0  0  0
  188.0470  176.9780  137.2560 C   0  0  0  0  0  2  0  0  0  0  0  0
  187.3520  176.0420  136.2870 C   0  0  0  0  0  2  0  0  0  0  0  0
  186.1730  175.3710  136.9660 C   0  0  0  0  0  2  0  0  0  0  0  0
  184.9590  175.4000  136.0590 C   0  0  1  0  0  3  0  0  0  0  0  0
  185.2870  174.8020  134.8550 F   0  0  0  0  0  0  0  0  0  0  0  0
  183.9080  174.6870  136.6660 O   0  0  0  0  0  0  0  0  0  0  0  0
  180.6550  173.4420  137.8880 C   0  0  0  0  0  2  0  0  0  0  0  0
  182.7580  175.5100  136.7980 C   0  0  1  0  0  0  0  0  0  0  0  0
  182.0350  172.4340  136.1150 O   0  0  0  0  0  0  0  0  0  0  0  0
  182.0420  174.7700  134.5940 O   0  0  0  0  0  1  0  0  0  0  0  0
  181.6340  174.8810  135.9260 C   0  0  1  0  0  0  0  0  0  0  0  0
  179.7410  175.7390  137.4170 C   0  0  0  0  0  2  0  0  0  0  0  0
  180.7900  172.5790  135.6090 O   0  0  0  0  0  0  0  0  0  0  0  0
  180.5310  174.8790  138.4150 C   0  0  2  0  0  0  0  0  0  0  0  0
  181.2700  173.5090  136.5000 C   0  0  0  0  0  0  0  0  0  0  0  0
  182.2200  175.5870  138.5900 S   0  0  0  0  0  0  0  0  0  0  0  0
  180.3670  175.7450  136.0060 C   0  0  0  0  0  2  0  0  0  0  0  0
  183.7580  177.0440  135.1340 O   0  0  0  0  0  0  0  0  0  0  0  0
  183.0480  176.8650  136.3000 N   0  0  0  0  0  0  0  0  0  0  0  0
  182.8280  177.8580  137.0230 O   0  0  0  0  0  0  0  0  0  0  0  0
  179.8190  174.8920  139.7390 C   0  0  0  0  0  0  0  0  0  0  0  0
  179.5280  176.1000  140.3690 O   0  0  0  0  0  1  0  0  0  0  0  0
  179.5600  173.8090  140.3340 O   0  0  0  0  0  0  0  0  0  0  0  0
  189.1350  176.8280  140.5580 C   0  0  0  0  0  2  0  0  0  0  0  0
  188.0380  177.5890  140.9920 O   0  0  0  0  0  0  0  0  0  0  0  0
  188.1510  177.6920  142.3860 C   0  0  2  0  0  3  0  0  0  0  0  0
  186.7620  177.8690  143.0530 C   0  0  1  0  0  3  0  0  0  0  0  0
  184.5470  179.0510  142.5020 C   0  0  0  0  0  2  0  0  0  0  0  0
  185.3810  179.0360  141.2360 C   0  0  1  0  0  3  0  0  0  0  0  0
  185.4580  177.8780  142.2170 C   0  0  1  0  0  3  0  0  0  0  0  0
  184.4650  178.6720  140.0800 C   0  0  1  0  0  3  0  0  0  0  0  0
  183.3570  179.5410  140.0790 O   0  0  0  0  0  0  0  0  0  0  0  0
  184.3500  179.7980  139.1230 C   0  0  0  0  0  2  0  0  0  0  0  0
  186.6030  177.0330  144.3310 C   0  0  0  0  0  2  0  0  0  0  0  0
  184.7160  178.8160  145.7770 O   0  0  0  0  0  0  0  0  0  0  0  0
  187.7600  178.4960  147.6310 C   0  0  0  0  0  3  0  0  0  0  0  0
  186.8340  177.8120  145.5440 N   0  0  0  0  0  0  0  0  0  0  0  0
  187.9830  177.6090  146.3970 C   0  0  0  0  0  3  0  0  0  0  0  0
  186.3420  179.0680  147.5360 C   0  0  0  0  0  2  0  0  0  0  0  0
  185.8670  178.5800  146.2300 C   0  0  0  0  0  0  0  0  0  0  0  0
  189.0490  178.8880  142.7390 C   0  0  0  0  0  2  0  0  0  0  0  0
  190.3320  178.4440  143.0750 O   0  0  0  0  0  0  0  0  0  0  0  0
  190.4970  178.8110  144.4100 C   0  0  0  0  0  2  0  0  0  0  0  0
  191.6130  177.9840  145.0160 C   0  0  0  0  0  2  0  0  0  0  0  0
  191.3300  176.5380  144.8280 C   0  0  0  0  0  0  0  0  0  0  0  0
  190.3520  176.1830  144.1240 O   0  0  0  0  0  0  0  0  0  0  0  0
  192.1370  175.5950  145.4680 O   0  0  0  0  0  0  0  0  0  0  0  0
  192.3340  175.5920  146.8750 C   0  0  0  0  0  2  0  0  0  0  0  0
  191.2650  176.4290  147.5550 C   0  0  0  0  0  1  0  0  0  0  0  0
  1  2  1  6  0  0  0
  1 30  1  0  0  0  0
  3  4  2  0  0  0  0
  4  1  1  0  0  0  0
  4  5  1  0  0  0  0
  6  1  1  0  0  0  0
  7  6  1  0  0  0  0
  8  9  1  0  0  0  0
  8  7  1  0  0  0  0
 10 11  1  6  0  0  0
 10 12  1  0  0  0  0
 10  9  1  0  0  0  0
 13 20  1  0  0  0  0
 14 12  1  6  0  0  0
 14 22  1  0  0  0  0
 15 21  1  0  0  0  0
 17 16  1  6  0  0  0
 17 23  1  0  0  0  0
 17 21  1  0  0  0  0
 17 14  1  0  0  0  0
 18 20  1  0  0  0  0
 19 15  1  0  0  0  0
 19 21  1  0  0  0  0
 20 22  1  0  0  0  0
 20 27  1  1  0  0  0
 21 13  1  0  0  0  0
 23 18  1  0  0  0  0
 24 25  2  0  0  0  0
 25 14  1  0  0  0  0
 25 26  2  0  0  0  0
 27 29  2  0  0  0  0
 27 28  1  0  0  0  0
 30 31  1  0  0  0  0
 31 32  1  0  0  0  0
 32 47  1  6  0  0  0
 32 33  1  0  0  0  0
 33 40  1  1  0  0  0
 35 36  1  0  0  0  0
 35 34  1  1  0  0  0
 36 34  1  0  0  0  0
 36 33  1  1  0  0  0
 37 39  1  6  0  0  0
 37 35  1  0  0  0  0
 38 37  1  0  0  0  0
 39 38  1  0  0  0  0
 40 43  1  0  0  0  0
 41 46  2  0  0  0  0
 43 46  1  0  0  0  0
 43 44  1  0  0  0  0
 44 42  2  0  0  0  0
 45 42  1  0  0  0  0
 46 45  1  0  0  0  0
 47 48  1  0  0  0  0
 48 49  1  0  0  0  0
 49 50  1  0  0  0  0
 51 50  1  0  0  0  0
 51 53  1  0  0  0  0
 52 51  2  0  0  0  0
 53 54  1  0  0  0  0
 54 55  1  0  0  0  0
M  END
>  <MODEL>
6

>  <REMARK>
 VINA RESULT:      -4.3      4.389     10.030
  Name = 
  25 active torsions:
  status: ('A' for Active; 'I' for Inactive)
    1  A    between atoms: C_1  and  C_29
    2  A    between atoms: C_2  and  O_28
    3  A    between atoms: C_2  and  C_31
    4  A    between atoms: C_4  and  C_40
    5  A    between atoms: C_6  and  N_20
    6  A    between atoms: C_6  and  O_22
    7  A    between atoms: C_8  and  O_22
    8  A    between atoms: C_8  and  C_35
    9  A    between atoms: C_10  and  O_32
   10  A    between atoms: C_13  and  C_48
   11  A    between atoms: C_13  and  O_52
   12  A    between atoms: N_16  and  C_36
   13  A    between atoms: O_27  and  C_31
   14  A    between atoms: O_27  and  C_54
   15  A    between atoms: O_28  and  C_33
   16  A    between atoms: C_31  and  C_41
   17  A    between atoms: O_32  and  C_39
   18  A    between atoms: C_33  and  C_34
   19  A    between atoms: C_33  and  C_49
   20  A    between atoms: C_34  and  O_52
   21  A    between atoms: C_35  and  C_51
   22  A    between atoms: C_36  and  C_49
   23  A    between atoms: C_39  and  C_48
   24  A    between atoms: C_45  and  C_49
   25  A    between atoms: C_51  and  C_54
                            x       y       z     vdW  Elec       q    Type
                         _______ _______ _______ _____ _____    ______ ____

>  <TORSDO>
F 25

$$$$
=
 OpenBabel11052415133D

 55 60  0  0  1  0  0  0  0  0999 V2000
  185.2500  178.1830  143.6170 C   0  0  2  0  0  0  0  0  0  0  0  0
  185.6260  177.1100  144.6190 C   0  0  0  0  0  1  0  0  0  0  0  0
  184.0810  179.1990  145.4750 O   0  0  0  0  0  1  0  0  0  0  0  0
  184.7510  179.3650  144.4190 C   0  0  0  0  0  0  0  0  0  0  0  0
  184.9540  180.6590  143.9460 O   0  0  0  0  0  0  0  0  0  0  0  0
  184.2420  177.6570  142.7650 O   0  0  0  0  0  0  0  0  0  0  0  0
  184.0760  178.4870  141.6390 C   0  0  0  0  0  2  0  0  0  0  0  0
  182.5990  178.6530  141.3360 C   0  0  0  0  0  2  0  0  0  0  0  0
  182.3170  178.2680  139.8970 C   0  0  0  0  0  2  0  0  0  0  0  0
  181.3740  177.0820  139.8470 C   0  0  1  0  0  3  0  0  0  0  0  0
  180.5010  177.1600  140.9180 F   0  0  0  0  0  0  0  0  0  0  0  0
  180.6440  177.1180  138.6440 O   0  0  0  0  0  0  0  0  0  0  0  0
  183.5470  176.1230  136.5940 C   0  0  0  0  0  2  0  0  0  0  0  0
  180.7320  175.8710  137.9700 C   0  0  1  0  0  0  0  0  0  0  0  0
  182.3060  178.2430  136.4390 O   0  0  0  0  0  0  0  0  0  0  0  0
  179.8790  176.9540  135.9660 O   0  0  0  0  0  1  0  0  0  0  0  0
  180.9290  176.1720  136.4570 C   0  0  1  0  0  0  0  0  0  0  0  0
  182.2650  174.0360  136.0150 C   0  0  0  0  0  2  0  0  0  0  0  0
  182.3670  177.7330  135.1900 O   0  0  0  0  0  0  0  0  0  0  0  0
  183.1480  174.7190  137.0710 C   0  0  2  0  0  0  0  0  0  0  0  0
  182.2720  176.8800  136.2630 C   0  0  0  0  0  0  0  0  0  0  0  0
  182.1800  174.8820  138.6270 S   0  0  0  0  0  0  0  0  0  0  0  0
  181.0030  174.8560  135.6690 C   0  0  0  0  0  2  0  0  0  0  0  0
  178.9920  174.8580  139.4100 O   0  0  0  0  0  0  0  0  0  0  0  0
  179.4820  175.1120  138.1480 N   0  0  0  0  0  0  0  0  0  0  0  0
  178.9630  174.5250  137.1770 O   0  0  0  0  0  0  0  0  0  0  0  0
  184.3700  173.8760  137.3010 C   0  0  0  0  0  0  0  0  0  0  0  0
  184.2790  172.4860  137.2910 O   0  0  0  0  0  0  0  0  0  0  0  0
  185.4730  174.4180  137.5950 O   0  0  0  0  0  1  0  0  0  0  0  0
  186.5110  178.5550  142.8160 C   0  0  0  0  0  2  0  0  0  0  0  0
  187.6750  178.0230  143.3920 O   0  0  0  0  0  0  0  0  0  0  0  0
  188.5970  177.8550  142.3490 C   0  0  2  0  0  3  0  0  0  0  0  0
  190.0550  177.8680  142.8760 C   0  0  1  0  0  3  0  0  0  0  0  0
  192.3840  177.1180  142.0880 C   0  0  0  0  0  2  0  0  0  0  0  0
  191.4460  177.0070  140.9020 C   0  0  1  0  0  3  0  0  0  0  0  0
  191.2560  178.1120  141.9280 C   0  0  1  0  0  3  0  0  0  0  0  0
  192.1710  177.5540  139.6840 C   0  0  1  0  0  3  0  0  0  0  0  0
  193.3970  176.8770  139.5350 O   0  0  0  0  0  0  0  0  0  0  0  0
  192.3640  176.4950  138.6660 C   0  0  0  0  0  2  0  0  0  0  0  0
  190.2080  178.6510  144.1870 C   0  0  0  0  0  2  0  0  0  0  0  0
  188.5730  178.0240  146.5880 O   0  0  0  0  0  0  0  0  0  0  0  0
  191.5590  176.0530  146.5950 C   0  0  0  0  0  3  0  0  0  0  0  0
  190.5430  177.7910  145.3190 N   0  0  0  0  0  0  0  0  0  0  0  0
  191.6610  176.8750  145.3010 C   0  0  0  0  0  3  0  0  0  0  0  0
  190.2270  176.4070  147.2610 C   0  0  0  0  0  2  0  0  0  0  0  0
  189.6870  177.4690  146.3950 C   0  0  0  0  0  0  0  0  0  0  0  0
  188.4110  178.9800  141.3180 C   0  0  0  0  0  2  0  0  0  0  0  0
  187.6080  178.5380  140.2620 O   0  0  0  0  0  0  0  0  0  0  0  0
  188.4740  177.8330  139.4270 C   0  0  0  0  0  2  0  0  0  0  0  0
  188.7980  178.6840  138.2160 C   0  0  0  0  0  2  0  0  0  0  0  0
  188.0730  178.1670  137.0270 C   0  0  0  0  0  0  0  0  0  0  0  0
  186.8360  177.9610  137.0950 O   0  0  0  0  0  0  0  0  0  0  0  0
  188.7890  177.8830  135.8610 O   0  0  0  0  0  0  0  0  0  0  0  0
  189.0800  176.5540  135.4520 C   0  0  0  0  0  2  0  0  0  0  0  0
  190.5730  176.3920  135.2260 C   0  0  0  0  0  1  0  0  0  0  0  0
  1  4  1  0  0  0  0
  1  2  1  1  0  0  0
  4  3  1  0  0  0  0
  5  4  2  0  0  0  0
  6  1  1  0  0  0  0
  7  6  1  0  0  0  0
  8  7  1  0  0  0  0
  9  8  1  0  0  0  0
 10  9  1  0  0  0  0
 10 11  1  1  0  0  0
 12 10  1  0  0  0  0
 13 20  1  0  0  0  0
 14 25  1  0  0  0  0
 14 22  1  0  0  0  0
 14 12  1  1  0  0  0
 17 16  1  6  0  0  0
 17 14  1  0  0  0  0
 18 20  1  0  0  0  0
 19 21  1  0  0  0  0
 19 15  1  0  0  0  0
 20 27  1  1  0  0  0
 20 22  1  0  0  0  0
 21 15  1  0  0  0  0
 21 17  1  0  0  0  0
 21 13  1  0  0  0  0
 23 18  1  0  0  0  0
 23 17  1  0  0  0  0
 25 24  2  0  0  0  0
 26 25  2  0  0  0  0
 27 29  1  0  0  0  0
 28 27  2  0  0  0  0
 30 31  1  0  0  0  0
 30  1  1  0  0  0  0
 32 47  1  6  0  0  0
 32 33  1  0  0  0  0
 32 31  1  0  0  0  0
 33 40  1  1  0  0  0
 35 36  1  0  0  0  0
 35 34  1  1  0  0  0
 36 34  1  0  0  0  0
 36 33  1  1  0  0  0
 37 39  1  6  0  0  0
 37 35  1  0  0  0  0
 38 37  1  0  0  0  0
 39 38  1  0  0  0  0
 40 43  1  0  0  0  0
 42 45  1  0  0  0  0
 43 46  1  0  0  0  0
 44 43  1  0  0  0  0
 44 42  2  0  0  0  0
 46 41  2  0  0  0  0
 46 45  1  0  0  0  0
 48 47  1  0  0  0  0
 49 48  1  0  0  0  0
 50 49  1  0  0  0  0
 51 52  2  0  0  0  0
 51 50  1  0  0  0  0
 53 51  1  0  0  0  0
 54 53  1  0  0  0  0
 55 54  1  0  0  0  0
M  END
>  <MODEL>
7

>  <REMARK>
 VINA RESULT:      -3.9      4.296     10.136
  Name = 
  25 active torsions:
  status: ('A' for Active; 'I' for Inactive)
    1  A    between atoms: C_1  and  C_29
    2  A    between atoms: C_2  and  O_28
    3  A    between atoms: C_2  and  C_31
    4  A    between atoms: C_4  and  C_40
    5  A    between atoms: C_6  and  N_20
    6  A    between atoms: C_6  and  O_22
    7  A    between atoms: C_8  and  O_22
    8  A    between atoms: C_8  and  C_35
    9  A    between atoms: C_10  and  O_32
   10  A    between atoms: C_13  and  C_48
   11  A    between atoms: C_13  and  O_52
   12  A    between atoms: N_16  and  C_36
   13  A    between atoms: O_27  and  C_31
   14  A    between atoms: O_27  and  C_54
   15  A    between atoms: O_28  and  C_33
   16  A    between atoms: C_31  and  C_41
   17  A    between atoms: O_32  and  C_39
   18  A    between atoms: C_33  and  C_34
   19  A    between atoms: C_33  and  C_49
   20  A    between atoms: C_34  and  O_52
   21  A    between atoms: C_35  and  C_51
   22  A    between atoms: C_36  and  C_49
   23  A    between atoms: C_39  and  C_48
   24  A    between atoms: C_45  and  C_49
   25  A    between atoms: C_51  and  C_54
                            x       y       z     vdW  Elec       q    Type
                         _______ _______ _______ _____ _____    ______ ____

>  <TORSDO>
F 25

$$$$
=
 OpenBabel11052415133D

 55 60  0  0  1  0  0  0  0  0999 V2000
  189.6150  176.9750  139.2340 C   0  0  2  0  0  0  0  0  0  0  0  0
  189.1240  178.3460  138.8150 C   0  0  0  0  0  1  0  0  0  0  0  0
  191.8880  177.2590  140.0120 O   0  0  0  0  0  1  0  0  0  0  0  0
  191.1170  176.9820  139.0520 C   0  0  0  0  0  0  0  0  0  0  0  0
  191.6640  176.7670  137.7890 O   0  0  0  0  0  0  0  0  0  0  0  0
  188.9850  176.0090  138.4040 O   0  0  0  0  0  0  0  0  0  0  0  0
  188.2410  176.6480  137.3920 C   0  0  0  0  0  2  0  0  0  0  0  0
  187.6350  175.6120  136.4670 C   0  0  0  0  0  2  0  0  0  0  0  0
  186.4620  174.9310  137.1470 C   0  0  0  0  0  2  0  0  0  0  0  0
  185.2970  174.8090  136.1840 C   0  0  1  0  0  3  0  0  0  0  0  0
  185.6840  174.0220  135.1130 F   0  0  0  0  0  0  0  0  0  0  0  0
  184.2110  174.2020  136.8430 O   0  0  0  0  0  0  0  0  0  0  0  0
  180.8780  173.0320  137.9120 C   0  0  0  0  0  2  0  0  0  0  0  0
  183.0180  174.9380  136.6180 C   0  0  1  0  0  0  0  0  0  0  0  0
  182.5410  171.7400  136.6360 O   0  0  0  0  0  0  0  0  0  0  0  0
  182.6590  173.6350  134.5950 O   0  0  0  0  0  1  0  0  0  0  0  0
  182.0600  174.0300  135.7950 C   0  0  1  0  0  0  0  0  0  0  0  0
  179.9360  175.0680  136.7710 C   0  0  0  0  0  2  0  0  0  0  0  0
  181.3770  171.6600  135.9560 O   0  0  0  0  0  0  0  0  0  0  0  0
  180.6140  174.5390  138.0440 C   0  0  2  0  0  0  0  0  0  0  0  0
  181.6810  172.8120  136.6410 C   0  0  0  0  0  0  0  0  0  0  0  0
  182.2260  175.4010  138.2510 S   0  0  0  0  0  0  0  0  0  0  0  0
  180.7570  174.7850  135.4940 C   0  0  0  0  0  2  0  0  0  0  0  0
  183.2680  177.3930  136.4350 O   0  0  0  0  0  0  0  0  0  0  0  0
  183.3130  176.1530  135.8390 N   0  0  0  0  0  0  0  0  0  0  0  0
  183.4120  176.0910  134.5960 O   0  0  0  0  0  0  0  0  0  0  0  0
  179.7200  174.8130  139.2210 C   0  0  0  0  0  0  0  0  0  0  0  0
  179.2190  173.7620  139.9850 O   0  0  0  0  0  1  0  0  0  0  0  0
  179.3430  175.9920  139.4740 O   0  0  0  0  0  0  0  0  0  0  0  0
  189.2410  176.7610  140.7110 C   0  0  0  0  0  2  0  0  0  0  0  0
  188.2070  177.6170  141.1200 O   0  0  0  0  0  0  0  0  0  0  0  0
  188.2390  177.6410  142.5230 C   0  0  2  0  0  3  0  0  0  0  0  0
  186.9130  178.1920  143.1090 C   0  0  1  0  0  3  0  0  0  0  0  0
  185.5030  177.9380  145.2430 C   0  0  0  0  0  2  0  0  0  0  0  0
  186.8340  177.2570  145.4940 C   0  0  1  0  0  3  0  0  0  0  0  0
  186.7620  178.4980  144.6200 C   0  0  1  0  0  3  0  0  0  0  0  0
  187.2930  177.6370  146.8910 C   0  0  1  0  0  3  0  0  0  0  0  0
  188.3600  176.7990  147.2690 O   0  0  0  0  0  0  0  0  0  0  0  0
  188.7010  178.1020  146.8750 C   0  0  0  0  0  2  0  0  0  0  0  0
  186.2970  179.3040  142.2480 C   0  0  0  0  0  2  0  0  0  0  0  0
  183.5060  178.9160  143.1940 O   0  0  0  0  0  0  0  0  0  0  0  0
  183.6770  178.4170  139.6560 C   0  0  0  0  0  3  0  0  0  0  0  0
  185.1330  178.8480  141.4920 N   0  0  0  0  0  0  0  0  0  0  0  0
  185.1180  178.7720  140.0480 C   0  0  0  0  0  3  0  0  0  0  0  0
  182.8240  178.4830  140.9260 C   0  0  0  0  0  2  0  0  0  0  0  0
  183.8110  178.7620  141.9820 C   0  0  0  0  0  0  0  0  0  0  0  0
  189.4130  178.5150  142.9920 C   0  0  0  0  0  2  0  0  0  0  0  0
  190.6210  177.9890  142.5250 O   0  0  0  0  0  0  0  0  0  0  0  0
  191.4670  178.0030  143.6340 C   0  0  0  0  0  2  0  0  0  0  0  0
  191.6610  176.5840  144.1280 C   0  0  0  0  0  2  0  0  0  0  0  0
  191.7010  176.5670  145.6120 C   0  0  0  0  0  0  0  0  0  0  0  0
  191.9890  177.6180  146.2380 O   0  0  0  0  0  0  0  0  0  0  0  0
  191.4530  175.3700  146.2890 O   0  0  0  0  0  0  0  0  0  0  0  0
  192.3100  174.8820  147.3110 C   0  0  0  0  0  2  0  0  0  0  0  0
  192.7460  176.0210  148.2150 C   0  0  0  0  0  1  0  0  0  0  0  0
  1  2  1  6  0  0  0
  1 30  1  0  0  0  0
  4  1  1  0  0  0  0
  4  3  1  0  0  0  0
  5  4  2  0  0  0  0
  6  1  1  0  0  0  0
  7  6  1  0  0  0  0
  8  9  1  0  0  0  0
  8  7  1  0  0  0  0
 10 11  1  6  0  0  0
 10 12  1  0  0  0  0
 10  9  1  0  0  0  0
 13 20  1  0  0  0  0
 14 12  1  1  0  0  0
 14 22  1  0  0  0  0
 15 21  1  0  0  0  0
 17 16  1  6  0  0  0
 17 14  1  0  0  0  0
 17 21  1  0  0  0  0
 18 20  1  0  0  0  0
 19 15  1  0  0  0  0
 19 21  1  0  0  0  0
 20 22  1  0  0  0  0
 20 27  1  1  0  0  0
 21 13  1  0  0  0  0
 23 17  1  0  0  0  0
 23 18  1  0  0  0  0
 25 24  2  0  0  0  0
 25 14  1  0  0  0  0
 26 25  2  0  0  0  0
 27 29  2  0  0  0  0
 27 28  1  0  0  0  0
 30 31  1  0  0  0  0
 31 32  1  0  0  0  0
 32 47  1  6  0  0  0
 32 33  1  0  0  0  0
 33 40  1  6  0  0  0
 35 34  1  1  0  0  0
 35 37  1  0  0  0  0
 36 33  1  6  0  0  0
 36 34  1  0  0  0  0
 36 35  1  0  0  0  0
 37 39  1  6  0  0  0
 37 38  1  0  0  0  0
 39 38  1  0  0  0  0
 42 44  2  0  0  0  0
 42 45  1  0  0  0  0
 43 46  1  0  0  0  0
 43 40  1  0  0  0  0
 44 43  1  0  0  0  0
 45 46  1  0  0  0  0
 46 41  2  0  0  0  0
 48 47  1  0  0  0  0
 48 49  1  0  0  0  0
 49 50  1  0  0  0  0
 50 51  1  0  0  0  0
 51 52  2  0  0  0  0
 51 53  1  0  0  0  0
 53 54  1  0  0  0  0
 54 55  1  0  0  0  0
M  END
>  <MODEL>
8

>  <REMARK>
 VINA RESULT:      -3.6      4.352      9.574
  Name = 
  25 active torsions:
  status: ('A' for Active; 'I' for Inactive)
    1  A    between atoms: C_1  and  C_29
    2  A    between atoms: C_2  and  O_28
    3  A    between atoms: C_2  and  C_31
    4  A    between atoms: C_4  and  C_40
    5  A    between atoms: C_6  and  N_20
    6  A    between atoms: C_6  and  O_22
    7  A    between atoms: C_8  and  O_22
    8  A    between atoms: C_8  and  C_35
    9  A    between atoms: C_10  and  O_32
   10  A    between atoms: C_13  and  C_48
   11  A    between atoms: C_13  and  O_52
   12  A    between atoms: N_16  and  C_36
   13  A    between atoms: O_27  and  C_31
   14  A    between atoms: O_27  and  C_54
   15  A    between atoms: O_28  and  C_33
   16  A    between atoms: C_31  and  C_41
   17  A    between atoms: O_32  and  C_39
   18  A    between atoms: C_33  and  C_34
   19  A    between atoms: C_33  and  C_49
   20  A    between atoms: C_34  and  O_52
   21  A    between atoms: C_35  and  C_51
   22  A    between atoms: C_36  and  C_49
   23  A    between atoms: C_39  and  C_48
   24  A    between atoms: C_45  and  C_49
   25  A    between atoms: C_51  and  C_54
                            x       y       z     vdW  Elec       q    Type
                         _______ _______ _______ _____ _____    ______ ____

>  <TORSDO>
F 25

$$$$
=
 OpenBabel11052415133D

 55 60  0  0  1  0  0  0  0  0999 V2000
  185.6700  178.1910  143.0360 C   0  0  2  0  0  0  0  0  0  0  0  0
  185.7650  177.8430  144.5080 C   0  0  0  0  0  1  0  0  0  0  0  0
  186.2700  180.3940  142.2370 O   0  0  0  0  0  0  0  0  0  0  0  0
  185.5090  179.6940  142.9600 C   0  0  0  0  0  0  0  0  0  0  0  0
  184.5670  180.3320  143.7640 O   0  0  0  0  0  1  0  0  0  0  0  0
  184.5470  177.5100  142.4940 O   0  0  0  0  0  0  0  0  0  0  0  0
  184.2840  177.9700  141.1880 C   0  0  0  0  0  2  0  0  0  0  0  0
  182.8100  178.2940  141.0440 C   0  0  0  0  0  2  0  0  0  0  0  0
  182.1150  177.2070  140.2460 C   0  0  0  0  0  2  0  0  0  0  0  0
  181.5850  177.7710  138.9430 C   0  0  1  0  0  3  0  0  0  0  0  0
  181.6870  179.1510  138.9790 F   0  0  0  0  0  0  0  0  0  0  0  0
  182.3530  177.2730  137.8730 O   0  0  0  0  0  0  0  0  0  0  0  0
  182.2900  173.6420  137.2160 C   0  0  0  0  0  2  0  0  0  0  0  0
  181.5160  176.6720  136.8960 C   0  0  1  0  0  0  0  0  0  0  0  0
  184.2910  175.0720  137.3340 O   0  0  0  0  0  0  0  0  0  0  0  0
  183.3700  176.7710  135.3250 O   0  0  0  0  0  1  0  0  0  0  0  0
  182.4360  175.9070  135.9030 C   0  0  1  0  0  0  0  0  0  0  0  0
  180.6770  174.1350  135.3480 C   0  0  0  0  0  2  0  0  0  0  0  0
  184.3670  174.3860  136.1720 O   0  0  0  0  0  0  0  0  0  0  0  0
  180.8240  173.9350  136.8640 C   0  0  2  0  0  0  0  0  0  0  0  0
  183.1370  174.7700  136.6510 C   0  0  0  0  0  0  0  0  0  0  0  0
  180.3170  175.4870  137.7120 S   0  0  0  0  0  0  0  0  0  0  0  0
  181.5870  175.2560  134.8010 C   0  0  0  0  0  2  0  0  0  0  0  0
  179.3990  177.7470  136.1970 O   0  0  0  0  0  0  0  0  0  0  0  0
  180.7750  177.7100  136.1590 N   0  0  0  0  0  0  0  0  0  0  0  0
  181.3690  178.4410  135.3400 O   0  0  0  0  0  0  0  0  0  0  0  0
  179.9440  172.7940  137.2920 C   0  0  0  0  0  0  0  0  0  0  0  0
  180.1580  171.5130  136.7890 O   0  0  0  0  0  0  0  0  0  0  0  0
  178.9490  173.0030  138.0410 O   0  0  0  0  0  1  0  0  0  0  0  0
  186.9720  177.7420  142.3500 C   0  0  0  0  0  2  0  0  0  0  0  0
  187.1050  178.2910  141.0650 O   0  0  0  0  0  0  0  0  0  0  0  0
  188.4640  178.2020  140.7310 C   0  0  2  0  0  3  0  0  0  0  0  0
  188.6690  177.4410  139.3960 C   0  0  1  0  0  3  0  0  0  0  0  0
  186.4540  178.2800  138.3990 C   0  0  0  0  0  2  0  0  0  0  0  0
  187.4470  178.1570  137.2600 C   0  0  1  0  0  3  0  0  0  0  0  0
  187.4920  177.1810  138.4240 C   0  0  1  0  0  3  0  0  0  0  0  0
  186.7270  177.5220  136.0830 C   0  0  1  0  0  3  0  0  0  0  0  0
  187.0180  178.2540  134.9150 O   0  0  0  0  0  0  0  0  0  0  0  0
  187.6960  177.0360  135.0720 C   0  0  0  0  0  2  0  0  0  0  0  0
  189.9300  177.8880  138.6420 C   0  0  0  0  0  2  0  0  0  0  0  0
  192.7420  177.1280  139.2340 O   0  0  0  0  0  0  0  0  0  0  0  0
  191.2050  174.6270  137.1880 C   0  0  0  0  0  3  0  0  0  0  0  0
  190.7000  176.7620  138.1190 N   0  0  0  0  0  0  0  0  0  0  0  0
  190.0890  175.6590  137.4110 C   0  0  0  0  0  3  0  0  0  0  0  0
  192.4350  175.1020  137.9670 C   0  0  0  0  0  2  0  0  0  0  0  0
  192.0120  176.4080  138.5020 C   0  0  0  0  0  0  0  0  0  0  0  0
  189.2220  177.4820  141.8580 C   0  0  0  0  0  2  0  0  0  0  0  0
  190.5050  178.0190  141.9950 O   0  0  0  0  0  0  0  0  0  0  0  0
  191.1000  177.2650  143.0060 C   0  0  0  0  0  2  0  0  0  0  0  0
  191.2750  178.1320  144.2350 C   0  0  0  0  0  2  0  0  0  0  0  0
  190.4490  177.6010  145.3490 C   0  0  0  0  0  0  0  0  0  0  0  0
  189.1960  177.6580  145.2760 O   0  0  0  0  0  0  0  0  0  0  0  0
  191.0820  177.0770  146.4790 O   0  0  0  0  0  0  0  0  0  0  0  0
  191.9470  175.9520  146.4150 C   0  0  0  0  0  2  0  0  0  0  0  0
  192.5070  175.6440  147.7920 C   0  0  0  0  0  1  0  0  0  0  0  0
  1  2  1  1  0  0  0
  3  4  2  0  0  0  0
  4  1  1  0  0  0  0
  4  5  1  0  0  0  0
  6  1  1  0  0  0  0
  7  6  1  0  0  0  0
  8  7  1  0  0  0  0
  9  8  1  0  0  0  0
 10 11  1  1  0  0  0
 10  9  1  0  0  0  0
 12 10  1  0  0  0  0
 14 22  1  0  0  0  0
 14 12  1  1  0  0  0
 17 16  1  6  0  0  0
 17 21  1  0  0  0  0
 17 14  1  0  0  0  0
 18 20  1  0  0  0  0
 19 21  1  0  0  0  0
 19 15  1  0  0  0  0
 20 13  1  0  0  0  0
 20 27  1  1  0  0  0
 20 22  1  0  0  0  0
 21 13  1  0  0  0  0
 21 15  1  0  0  0  0
 23 18  1  0  0  0  0
 23 17  1  0  0  0  0
 25 24  2  0  0  0  0
 25 14  1  0  0  0  0
 26 25  2  0  0  0  0
 27 29  1  0  0  0  0
 28 27  2  0  0  0  0
 30  1  1  0  0  0  0
 31 30  1  0  0  0  0
 32 31  1  0  0  0  0
 32 47  1  1  0  0  0
 33 40  1  6  0  0  0
 33 32  1  0  0  0  0
 34 36  1  0  0  0  0
 35 34  1  1  0  0  0
 35 36  1  0  0  0  0
 36 33  1  1  0  0  0
 37 39  1  6  0  0  0
 37 35  1  0  0  0  0
 38 39  1  0  0  0  0
 38 37  1  0  0  0  0
 42 44  2  0  0  0  0
 42 45  1  0  0  0  0
 43 46  1  0  0  0  0
 43 40  1  0  0  0  0
 44 43  1  0  0  0  0
 45 46  1  0  0  0  0
 46 41  2  0  0  0  0
 47 48  1  0  0  0  0
 48 49  1  0  0  0  0
 49 50  1  0  0  0  0
 50 51  1  0  0  0  0
 51 53  1  0  0  0  0
 52 51  2  0  0  0  0
 54 53  1  0  0  0  0
 54 55  1  0  0  0  0
M  END
>  <MODEL>
9

>  <REMARK>
 VINA RESULT:      -3.5      3.949     10.586
  Name = 
  25 active torsions:
  status: ('A' for Active; 'I' for Inactive)
    1  A    between atoms: C_1  and  C_29
    2  A    between atoms: C_2  and  O_28
    3  A    between atoms: C_2  and  C_31
    4  A    between atoms: C_4  and  C_40
    5  A    between atoms: C_6  and  N_20
    6  A    between atoms: C_6  and  O_22
    7  A    between atoms: C_8  and  O_22
    8  A    between atoms: C_8  and  C_35
    9  A    between atoms: C_10  and  O_32
   10  A    between atoms: C_13  and  C_48
   11  A    between atoms: C_13  and  O_52
   12  A    between atoms: N_16  and  C_36
   13  A    between atoms: O_27  and  C_31
   14  A    between atoms: O_27  and  C_54
   15  A    between atoms: O_28  and  C_33
   16  A    between atoms: C_31  and  C_41
   17  A    between atoms: O_32  and  C_39
   18  A    between atoms: C_33  and  C_34
   19  A    between atoms: C_33  and  C_49
   20  A    between atoms: C_34  and  O_52
   21  A    between atoms: C_35  and  C_51
   22  A    between atoms: C_36  and  C_49
   23  A    between atoms: C_39  and  C_48
   24  A    between atoms: C_45  and  C_49
   25  A    between atoms: C_51  and  C_54
                            x       y       z     vdW  Elec       q    Type
                         _______ _______ _______ _____ _____    ______ ____

>  <TORSDO>
F 25

$$$$
