=
 OpenBabel11052413303D

 28 31  0  0  1  0  0  0  0  0999 V2000
  190.0730  176.7570  143.4680 N   0  0  0  0  0  0  0  0  0  0  0  0
  190.0300  176.8840  142.0330 C   0  0  0  0  0  0  0  0  0  0  0  0
  185.1540  178.1260  142.6360 C   0  0  0  0  0  2  0  0  0  0  0  0
  188.3690  177.7190  147.9580 O   0  0  0  0  0  1  0  0  0  0  0  0
  190.7400  176.1290  141.3160 O   0  0  0  0  0  0  0  0  0  0  0  0
  184.3680  178.5870  144.9940 C   0  0  0  0  0  0  0  0  0  0  0  0
  186.6670  177.8550  144.6590 C   0  0  0  0  0  0  0  0  0  0  0  0
  183.0290  179.2490  143.0580 N   0  0  0  0  0  0  0  0  0  0  0  0
  185.3970  178.1620  144.1270 C   0  0  0  0  0  0  0  0  0  0  0  0
  185.8480  178.3550  146.8950 C   0  0  0  0  0  3  0  0  0  0  0  0
  182.9870  178.8560  144.4660 C   0  0  0  0  0  2  0  0  0  0  0  0
  189.2000  177.2510  145.7340 C   0  0  0  0  0  0  0  0  0  0  0  0
  187.7170  177.4550  143.8250 C   0  0  0  0  0  3  0  0  0  0  0  0
  184.5940  178.6650  146.3690 C   0  0  0  0  0  3  0  0  0  0  0  0
  191.6570  176.9270  145.3180 C   0  0  0  0  0  2  0  0  0  0  0  0
  188.1530  177.6420  146.5840 C   0  0  0  0  0  0  0  0  0  0  0  0
  190.5200  176.8410  146.3300 C   0  0  0  0  0  2  0  0  0  0  0  0
  181.6520  179.3200  142.6050 C   0  0  0  0  0  1  0  0  0  0  0  0
  183.6640  178.1710  142.3060 C   0  0  0  0  0  2  0  0  0  0  0  0
  186.8920  177.9530  146.0520 C   0  0  0  0  0  0  0  0  0  0  0  0
  191.2700  176.1630  144.0620 C   0  0  0  0  0  2  0  0  0  0  0  0
  188.9860  177.1580  144.3390 C   0  0  0  0  0  0  0  0  0  0  0  0
  189.2200  177.9520  141.3550 C   0  0  0  0  0  2  0  0  0  0  0  0
  187.3280  178.1370  139.7120 C   0  0  0  0  0  1  0  0  0  0  0  0
  188.7020  177.5310  139.9730 C   0  0  1  0  0  3  0  0  0  0  0  0
  189.6900  177.8460  138.8420 C   0  0  0  0  0  3  0  0  0  0  0  0
  190.0220  176.5920  138.0510 C   0  0  0  0  0  1  0  0  0  0  0  0
  189.1110  178.8700  137.8810 C   0  0  0  0  0  1  0  0  0  0  0  0
  1 21  1  0  0  0  0
  1 22  1  0  0  0  0
  2  1  1  0  0  0  0
  3  9  1  0  0  0  0
  5  2  2  0  0  0  0
  6 14  1  0  0  0  0
  7 20  1  0  0  0  0
  8 11  1  0  0  0  0
  9  7  1  0  0  0  0
  9  6  2  0  0  0  0
 11  6  1  0  0  0  0
 12 17  1  0  0  0  0
 12 16  1  0  0  0  0
 13 22  1  0  0  0  0
 13  7  2  0  0  0  0
 14 10  2  0  0  0  0
 15 17  1  0  0  0  0
 16  4  1  0  0  0  0
 18  8  1  0  0  0  0
 19  3  1  0  0  0  0
 19  8  1  0  0  0  0
 20 16  2  0  0  0  0
 20 10  1  0  0  0  0
 21 15  1  0  0  0  0
 22 12  2  0  0  0  0
 23  2  1  0  0  0  0
 25 24  1  6  0  0  0
 25 23  1  0  0  0  0
 26 25  1  0  0  0  0
 27 26  1  0  0  0  0
 28 26  1  0  0  0  0
M  END
>  <MODEL>
1

>  <REMARK>
 VINA RESULT:     -10.7      0.000      0.000
  Name = 
  3 active torsions:
  status: ('A' for Active; 'I' for Inactive)
    1  A    between atoms: C_2  and  C_3
    2  A    between atoms: C_3  and  C_11
    3  A    between atoms: C_6  and  C_11
                            x       y       z     vdW  Elec       q    Type
                         _______ _______ _______ _____ _____    ______ ____

>  <TORSDO>
F 3

$$$$
=
 OpenBabel11052413303D

 28 31  0  0  1  0  0  0  0  0999 V2000
  189.4620  177.0150  142.9250 N   0  0  0  0  0  0  0  0  0  0  0  0
  189.5400  177.0620  141.4860 C   0  0  0  0  0  0  0  0  0  0  0  0
  184.5940  178.1580  141.6040 C   0  0  0  0  0  2  0  0  0  0  0  0
  187.3490  178.1590  147.1930 O   0  0  0  0  0  1  0  0  0  0  0  0
  190.3320  176.2950  140.8770 O   0  0  0  0  0  0  0  0  0  0  0  0
  183.5920  178.7200  143.8570 C   0  0  0  0  0  0  0  0  0  0  0  0
  185.9340  178.0530  143.7590 C   0  0  0  0  0  0  0  0  0  0  0  0
  182.4060  179.2260  141.7800 N   0  0  0  0  0  0  0  0  0  0  0  0
  184.7060  178.2850  143.1060 C   0  0  0  0  0  0  0  0  0  0  0  0
  184.9100  178.6450  145.8860 C   0  0  0  0  0  3  0  0  0  0  0  0
  182.2550  178.9090  143.1990 C   0  0  0  0  0  2  0  0  0  0  0  0
  188.3820  177.6000  145.0770 C   0  0  0  0  0  0  0  0  0  0  0  0
  187.0640  177.6460  143.0420 C   0  0  0  0  0  3  0  0  0  0  0  0
  183.6970  178.8810  145.2400 C   0  0  0  0  0  3  0  0  0  0  0  0
  190.8750  177.3430  144.8900 C   0  0  0  0  0  2  0  0  0  0  0  0
  187.2550  178.0000  145.8120 C   0  0  0  0  0  0  0  0  0  0  0  0
  189.6580  177.2720  145.8050 C   0  0  0  0  0  2  0  0  0  0  0  0
  181.0720  179.2220  141.2090 C   0  0  0  0  0  1  0  0  0  0  0  0
  183.1360  178.1310  141.1470 C   0  0  0  0  0  2  0  0  0  0  0  0
  186.0340  178.2360  145.1590 C   0  0  0  0  0  0  0  0  0  0  0  0
  190.6220  176.4980  143.6510 C   0  0  0  0  0  2  0  0  0  0  0  0
  188.2920  177.4230  143.6770 C   0  0  0  0  0  0  0  0  0  0  0  0
  188.7580  178.0610  140.6820 C   0  0  0  0  0  2  0  0  0  0  0  0
  187.1100  177.9460  138.7890 C   0  0  0  0  0  1  0  0  0  0  0  0
  188.5330  177.6240  139.2290 C   0  0  1  0  0  3  0  0  0  0  0  0
  189.5750  178.2000  138.2620 C   0  0  0  0  0  3  0  0  0  0  0  0
  190.3290  177.0870  137.5540 C   0  0  0  0  0  1  0  0  0  0  0  0
  188.9160  179.0700  137.2040 C   0  0  0  0  0  1  0  0  0  0  0  0
  1 21  1  0  0  0  0
  1 22  1  0  0  0  0
  2  1  1  0  0  0  0
  3  9  1  0  0  0  0
  5  2  2  0  0  0  0
  6 14  1  0  0  0  0
  7 20  1  0  0  0  0
  8 11  1  0  0  0  0
  9  7  1  0  0  0  0
  9  6  2  0  0  0  0
 11  6  1  0  0  0  0
 12 17  1  0  0  0  0
 12 16  1  0  0  0  0
 13 22  1  0  0  0  0
 13  7  2  0  0  0  0
 14 10  2  0  0  0  0
 15 17  1  0  0  0  0
 16  4  1  0  0  0  0
 18  8  1  0  0  0  0
 19  3  1  0  0  0  0
 19  8  1  0  0  0  0
 20 16  2  0  0  0  0
 20 10  1  0  0  0  0
 21 15  1  0  0  0  0
 22 12  2  0  0  0  0
 23  2  1  0  0  0  0
 25 24  1  6  0  0  0
 25 23  1  0  0  0  0
 26 25  1  0  0  0  0
 27 26  1  0  0  0  0
 28 26  1  0  0  0  0
M  END
>  <MODEL>
2

>  <REMARK>
 VINA RESULT:     -10.7      0.915      1.118
  Name = 
  3 active torsions:
  status: ('A' for Active; 'I' for Inactive)
    1  A    between atoms: C_2  and  C_3
    2  A    between atoms: C_3  and  C_11
    3  A    between atoms: C_6  and  C_11
                            x       y       z     vdW  Elec       q    Type
                         _______ _______ _______ _____ _____    ______ ____

>  <TORSDO>
F 3

$$$$
=
 OpenBabel11052413303D

 28 31  0  0  1  0  0  0  0  0999 V2000
  187.1180  178.3210  146.2610 N   0  0  0  0  0  0  0  0  0  0  0  0
  185.8550  178.6280  145.6360 C   0  0  0  0  0  0  0  0  0  0  0  0
  188.3280  178.2000  141.2340 C   0  0  0  0  0  2  0  0  0  0  0  0
  191.6360  176.4320  146.2090 O   0  0  0  0  0  1  0  0  0  0  0  0
  185.0490  179.4110  146.2050 O   0  0  0  0  0  0  0  0  0  0  0  0
  190.6610  177.2280  141.3140 C   0  0  0  0  0  0  0  0  0  0  0  0
  189.4770  177.5820  143.4130 C   0  0  0  0  0  0  0  0  0  0  0  0
  189.4380  177.4210  139.2050 N   0  0  0  0  0  0  0  0  0  0  0  0
  189.5210  177.6860  142.0070 C   0  0  0  0  0  0  0  0  0  0  0  0
  191.7100  176.6160  143.4060 C   0  0  0  0  0  3  0  0  0  0  0  0
  190.7630  177.3880  139.8230 C   0  0  0  0  0  2  0  0  0  0  0  0
  189.4020  177.3620  146.2210 C   0  0  0  0  0  0  0  0  0  0  0  0
  188.3520  178.0040  144.1300 C   0  0  0  0  0  3  0  0  0  0  0  0
  191.7510  176.7130  142.0160 C   0  0  0  0  0  3  0  0  0  0  0  0
  188.0030  177.3270  148.3080 C   0  0  0  0  0  2  0  0  0  0  0  0
  190.5420  176.9430  145.5150 C   0  0  0  0  0  0  0  0  0  0  0  0
  189.4120  177.3260  147.7260 C   0  0  0  0  0  2  0  0  0  0  0  0
  189.6420  177.7440  137.8040 C   0  0  0  0  0  1  0  0  0  0  0  0
  188.6940  178.5330  139.7880 C   0  0  0  0  0  2  0  0  0  0  0  0
  190.5800  177.0430  144.1150 C   0  0  0  0  0  0  0  0  0  0  0  0
  187.2130  178.4810  147.7120 C   0  0  0  0  0  2  0  0  0  0  0  0
  188.2920  177.8950  145.5260 C   0  0  0  0  0  0  0  0  0  0  0  0
  185.4270  177.9740  144.3530 C   0  0  0  0  0  2  0  0  0  0  0  0
  185.4040  179.2790  142.2060 C   0  0  0  0  0  1  0  0  0  0  0  0
  184.6050  178.9020  143.4480 C   0  0  1  0  0  3  0  0  0  0  0  0
  183.2290  178.3250  143.0900 C   0  0  0  0  0  3  0  0  0  0  0  0
  182.1410  178.9510  143.9470 C   0  0  0  0  0  1  0  0  0  0  0  0
  182.8900  178.5860  141.6320 C   0  0  0  0  0  1  0  0  0  0  0  0
  1 21  1  0  0  0  0
  2  5  2  0  0  0  0
  2  1  1  0  0  0  0
  3  9  1  0  0  0  0
  6  9  2  0  0  0  0
  6 14  1  0  0  0  0
  7 20  2  0  0  0  0
  7 13  1  0  0  0  0
  8 19  1  0  0  0  0
  8 11  1  0  0  0  0
  9  7  1  0  0  0  0
 10 20  1  0  0  0  0
 11  6  1  0  0  0  0
 12 17  1  0  0  0  0
 13 22  2  0  0  0  0
 14 10  2  0  0  0  0
 16  4  1  0  0  0  0
 16 12  2  0  0  0  0
 17 15  1  0  0  0  0
 18  8  1  0  0  0  0
 19  3  1  0  0  0  0
 20 16  1  0  0  0  0
 21 15  1  0  0  0  0
 22 12  1  0  0  0  0
 22  1  1  0  0  0  0
 23  2  1  0  0  0  0
 25 24  1  6  0  0  0
 25 23  1  0  0  0  0
 26 25  1  0  0  0  0
 26 27  1  0  0  0  0
 28 26  1  0  0  0  0
M  END
>  <MODEL>
3

>  <REMARK>
 VINA RESULT:     -10.4      2.042      5.952
  Name = 
  3 active torsions:
  status: ('A' for Active; 'I' for Inactive)
    1  A    between atoms: C_2  and  C_3
    2  A    between atoms: C_3  and  C_11
    3  A    between atoms: C_6  and  C_11
                            x       y       z     vdW  Elec       q    Type
                         _______ _______ _______ _____ _____    ______ ____

>  <TORSDO>
F 3

$$$$
=
 OpenBabel11052413303D

 28 31  0  0  1  0  0  0  0  0999 V2000
  186.8530  178.5050  140.7360 N   0  0  0  0  0  0  0  0  0  0  0  0
  188.0310  178.1700  139.9750 C   0  0  0  0  0  0  0  0  0  0  0  0
  190.2500  177.3020  144.4470 C   0  0  0  0  0  2  0  0  0  0  0  0
  184.1110  178.3120  144.7900 O   0  0  0  0  0  1  0  0  0  0  0  0
  188.2690  178.7710  138.8930 O   0  0  0  0  0  0  0  0  0  0  0  0
  188.7510  177.2370  146.4820 C   0  0  0  0  0  0  0  0  0  0  0  0
  187.7590  177.7840  144.3250 C   0  0  0  0  0  0  0  0  0  0  0  0
  191.0370  176.3720  146.5620 N   0  0  0  0  0  0  0  0  0  0  0  0
  188.8970  177.4730  145.0980 C   0  0  0  0  0  0  0  0  0  0  0  0
  186.3750  177.6650  146.3230 C   0  0  0  0  0  3  0  0  0  0  0  0
  189.9540  176.9700  147.3420 C   0  0  0  0  0  2  0  0  0  0  0  0
  185.4760  178.4000  142.7930 C   0  0  0  0  0  0  0  0  0  0  0  0
  187.8640  177.9980  142.9470 C   0  0  0  0  0  3  0  0  0  0  0  0
  187.4980  177.3510  147.0860 C   0  0  0  0  0  3  0  0  0  0  0  0
  184.4210  178.5230  140.5160 C   0  0  0  0  0  2  0  0  0  0  0  0
  185.3570  178.1960  144.1780 C   0  0  0  0  0  0  0  0  0  0  0  0
  184.2660  178.8200  142.0030 C   0  0  0  0  0  2  0  0  0  0  0  0
  192.1940  176.3110  147.4360 C   0  0  0  0  0  1  0  0  0  0  0  0
  191.3760  177.2910  145.4790 C   0  0  0  0  0  2  0  0  0  0  0  0
  186.4900  177.8800  144.9440 C   0  0  0  0  0  0  0  0  0  0  0  0
  185.7320  179.1130  140.0200 C   0  0  0  0  0  2  0  0  0  0  0  0
  186.7390  178.2980  142.1660 C   0  0  0  0  0  0  0  0  0  0  0  0
  188.9540  177.0600  140.3900 C   0  0  0  0  0  2  0  0  0  0  0  0
  191.3650  177.4160  141.0000 C   0  0  0  0  0  1  0  0  0  0  0  0
  190.3810  177.2280  139.8510 C   0  0  1  0  0  3  0  0  0  0  0  0
  190.8060  176.0900  138.9130 C   0  0  0  0  0  3  0  0  0  0  0  0
  189.7810  175.8890  137.8100 C   0  0  0  0  0  1  0  0  0  0  0  0
  192.1460  176.3900  138.2650 C   0  0  0  0  0  1  0  0  0  0  0  0
  1 22  1  0  0  0  0
  2 23  1  0  0  0  0
  2  1  1  0  0  0  0
  3  9  1  0  0  0  0
  3 19  1  0  0  0  0
  5  2  2  0  0  0  0
  6 14  1  0  0  0  0
  6 11  1  0  0  0  0
  7 20  1  0  0  0  0
  7  9  1  0  0  0  0
  8 11  1  0  0  0  0
  8 18  1  0  0  0  0
  9  6  2  0  0  0  0
 10 14  2  0  0  0  0
 12 16  1  0  0  0  0
 13  7  2  0  0  0  0
 15 17  1  0  0  0  0
 16  4  1  0  0  0  0
 16 20  2  0  0  0  0
 17 12  1  0  0  0  0
 19  8  1  0  0  0  0
 20 10  1  0  0  0  0
 21 15  1  0  0  0  0
 21  1  1  0  0  0  0
 22 12  2  0  0  0  0
 22 13  1  0  0  0  0
 25 23  1  0  0  0  0
 25 24  1  1  0  0  0
 26 25  1  0  0  0  0
 27 26  1  0  0  0  0
 28 26  1  0  0  0  0
M  END
>  <MODEL>
4

>  <REMARK>
 VINA RESULT:     -10.0      2.084      5.370
  Name = 
  3 active torsions:
  status: ('A' for Active; 'I' for Inactive)
    1  A    between atoms: C_2  and  C_3
    2  A    between atoms: C_3  and  C_11
    3  A    between atoms: C_6  and  C_11
                            x       y       z     vdW  Elec       q    Type
                         _______ _______ _______ _____ _____    ______ ____

>  <TORSDO>
F 3

$$$$
=
 OpenBabel11052413303D

 28 31  0  0  1  0  0  0  0  0999 V2000
  188.8630  177.2580  144.8300 N   0  0  0  0  0  0  0  0  0  0  0  0
  189.6470  177.1890  143.6220 C   0  0  0  0  0  0  0  0  0  0  0  0
  185.3120  178.1280  141.1710 C   0  0  0  0  0  2  0  0  0  0  0  0
  184.9190  178.6750  147.3660 O   0  0  0  0  0  1  0  0  0  0  0  0
  190.6280  176.4020  143.5560 O   0  0  0  0  0  0  0  0  0  0  0  0
  183.3290  178.8370  142.5700 C   0  0  0  0  0  0  0  0  0  0  0  0
  185.4000  178.2430  143.7070 C   0  0  0  0  0  0  0  0  0  0  0  0
  183.3400  179.1330  140.1430 N   0  0  0  0  0  0  0  0  0  0  0  0
  184.6630  178.3800  142.5130 C   0  0  0  0  0  0  0  0  0  0  0  0
  183.4610  178.9720  144.9830 C   0  0  0  0  0  3  0  0  0  0  0  0
  182.4990  178.9290  141.3210 C   0  0  0  0  0  2  0  0  0  0  0  0
  186.8620  177.9800  146.1010 C   0  0  0  0  0  0  0  0  0  0  0  0
  186.7330  177.8170  143.6840 C   0  0  0  0  0  3  0  0  0  0  0  0
  182.7340  179.1140  143.8020 C   0  0  0  0  0  3  0  0  0  0  0  0
  189.1140  177.7910  147.2000 C   0  0  0  0  0  2  0  0  0  0  0  0
  185.5230  178.4010  146.1400 C   0  0  0  0  0  0  0  0  0  0  0  0
  187.6030  177.7550  147.3920 C   0  0  0  0  0  2  0  0  0  0  0  0
  182.4670  179.0390  138.9880 C   0  0  0  0  0  1  0  0  0  0  0  0
  184.2750  178.0150  140.0550 C   0  0  0  0  0  2  0  0  0  0  0  0
  184.7930  178.5420  144.9490 C   0  0  0  0  0  0  0  0  0  0  0  0
  189.5020  176.8410  146.0780 C   0  0  0  0  0  2  0  0  0  0  0  0
  187.4790  177.6870  144.8630 C   0  0  0  0  0  0  0  0  0  0  0  0
  189.3810  178.0940  142.4520 C   0  0  0  0  0  2  0  0  0  0  0  0
  188.5220  178.2220  140.0940 C   0  0  0  0  0  1  0  0  0  0  0  0
  189.2010  177.3340  141.1310 C   0  0  1  0  0  3  0  0  0  0  0  0
  190.5120  176.7360  140.6010 C   0  0  0  0  0  3  0  0  0  0  0  0
  190.3910  176.3910  139.1270 C   0  0  0  0  0  1  0  0  0  0  0  0
  191.6630  177.7140  140.7650 C   0  0  0  0  0  1  0  0  0  0  0  0
  1 22  1  0  0  0  0
  1 21  1  0  0  0  0
  2  1  1  0  0  0  0
  3  9  1  0  0  0  0
  5  2  2  0  0  0  0
  6 14  1  0  0  0  0
  7 20  1  0  0  0  0
  8 11  1  0  0  0  0
  9  6  2  0  0  0  0
  9  7  1  0  0  0  0
 11  6  1  0  0  0  0
 12 16  1  0  0  0  0
 12 17  1  0  0  0  0
 13  7  2  0  0  0  0
 13 22  1  0  0  0  0
 14 10  2  0  0  0  0
 15 17  1  0  0  0  0
 16  4  1  0  0  0  0
 18  8  1  0  0  0  0
 19  8  1  0  0  0  0
 19  3  1  0  0  0  0
 20 10  1  0  0  0  0
 20 16  2  0  0  0  0
 21 15  1  0  0  0  0
 22 12  2  0  0  0  0
 23  2  1  0  0  0  0
 25 24  1  6  0  0  0
 25 23  1  0  0  0  0
 26 28  1  0  0  0  0
 26 25  1  0  0  0  0
 27 26  1  0  0  0  0
M  END
>  <MODEL>
5

>  <REMARK>
 VINA RESULT:      -9.9      1.615      2.516
  Name = 
  3 active torsions:
  status: ('A' for Active; 'I' for Inactive)
    1  A    between atoms: C_2  and  C_3
    2  A    between atoms: C_3  and  C_11
    3  A    between atoms: C_6  and  C_11
                            x       y       z     vdW  Elec       q    Type
                         _______ _______ _______ _____ _____    ______ ____

>  <TORSDO>
F 3

$$$$
=
 OpenBabel11052413303D

 28 31  0  0  1  0  0  0  0  0999 V2000
  189.3300  177.6360  146.0220 N   0  0  0  0  0  0  0  0  0  0  0  0
  190.3850  177.7480  145.0460 C   0  0  0  0  0  0  0  0  0  0  0  0
  186.6940  178.4830  141.6530 C   0  0  0  0  0  2  0  0  0  0  0  0
  184.7560  178.4470  147.5750 O   0  0  0  0  0  1  0  0  0  0  0  0
  191.4360  177.0660  145.1790 O   0  0  0  0  0  0  0  0  0  0  0  0
  184.3640  178.8760  142.5530 C   0  0  0  0  0  0  0  0  0  0  0  0
  186.1530  178.3840  144.1320 C   0  0  0  0  0  0  0  0  0  0  0  0
  184.9280  179.3830  140.2280 N   0  0  0  0  0  0  0  0  0  0  0  0
  185.7150  178.5540  142.8030 C   0  0  0  0  0  0  0  0  0  0  0  0
  183.8930  178.8120  144.9260 C   0  0  0  0  0  3  0  0  0  0  0  0
  183.8550  178.9970  141.1450 C   0  0  0  0  0  2  0  0  0  0  0  0
  187.0130  178.0520  146.7950 C   0  0  0  0  0  0  0  0  0  0  0  0
  187.4910  178.0890  144.4170 C   0  0  0  0  0  3  0  0  0  0  0  0
  183.4610  178.9870  143.6120 C   0  0  0  0  0  3  0  0  0  0  0  0
  188.9390  177.9820  148.4070 C   0  0  0  0  0  2  0  0  0  0  0  0
  185.6650  178.3390  146.5240 C   0  0  0  0  0  0  0  0  0  0  0  0
  187.4400  177.7860  148.2130 C   0  0  0  0  0  2  0  0  0  0  0  0
  184.3760  179.3080  138.8880 C   0  0  0  0  0  1  0  0  0  0  0  0
  185.9770  178.3710  140.3080 C   0  0  0  0  0  2  0  0  0  0  0  0
  185.2340  178.5140  145.2000 C   0  0  0  0  0  0  0  0  0  0  0  0
  189.6910  177.1740  147.3610 C   0  0  0  0  0  2  0  0  0  0  0  0
  187.9400  177.9280  145.7340 C   0  0  0  0  0  0  0  0  0  0  0  0
  190.3090  178.7220  143.9040 C   0  0  0  0  0  2  0  0  0  0  0  0
  192.0910  177.4160  142.7080 C   0  0  0  0  0  1  0  0  0  0  0  0
  190.7450  178.1160  142.5630 C   0  0  1  0  0  3  0  0  0  0  0  0
  189.6830  177.1940  141.9490 C   0  0  0  0  0  3  0  0  0  0  0  0
  189.9200  177.0150  140.4600 C   0  0  0  0  0  1  0  0  0  0  0  0
  189.7100  175.8220  142.6010 C   0  0  0  0  0  1  0  0  0  0  0  0
  1 21  1  0  0  0  0
  2  5  2  0  0  0  0
  2  1  1  0  0  0  0
  3  9  1  0  0  0  0
  6  9  2  0  0  0  0
  6 14  1  0  0  0  0
  7 13  2  0  0  0  0
  7 20  1  0  0  0  0
  8 19  1  0  0  0  0
  8 11  1  0  0  0  0
  9  7  1  0  0  0  0
 10 20  1  0  0  0  0
 11  6  1  0  0  0  0
 12 17  1  0  0  0  0
 13 22  1  0  0  0  0
 14 10  2  0  0  0  0
 16 12  1  0  0  0  0
 16  4  1  0  0  0  0
 17 15  1  0  0  0  0
 18  8  1  0  0  0  0
 19  3  1  0  0  0  0
 20 16  2  0  0  0  0
 21 15  1  0  0  0  0
 22  1  1  0  0  0  0
 22 12  2  0  0  0  0
 23  2  1  0  0  0  0
 25 24  1  1  0  0  0
 25 23  1  0  0  0  0
 26 25  1  0  0  0  0
 26 28  1  0  0  0  0
 27 26  1  0  0  0  0
M  END
>  <MODEL>
6

>  <REMARK>
 VINA RESULT:      -9.8      1.896      3.266
  Name = 
  3 active torsions:
  status: ('A' for Active; 'I' for Inactive)
    1  A    between atoms: C_2  and  C_3
    2  A    between atoms: C_3  and  C_11
    3  A    between atoms: C_6  and  C_11
                            x       y       z     vdW  Elec       q    Type
                         _______ _______ _______ _____ _____    ______ ____

>  <TORSDO>
F 3

$$$$
=
 OpenBabel11052413303D

 28 31  0  0  1  0  0  0  0  0999 V2000
  187.0590  177.7150  145.7320 N   0  0  0  0  0  0  0  0  0  0  0  0
  188.4770  177.5020  145.8750 C   0  0  0  0  0  0  0  0  0  0  0  0
  188.6570  177.6420  140.8130 C   0  0  0  0  0  2  0  0  0  0  0  0
  183.1330  179.2250  143.2230 O   0  0  0  0  0  1  0  0  0  0  0  0
  188.9120  176.7970  146.8260 O   0  0  0  0  0  0  0  0  0  0  0  0
  186.5740  178.4200  139.6090 C   0  0  0  0  0  0  0  0  0  0  0  0
  186.5020  178.2040  142.0340 C   0  0  0  0  0  0  0  0  0  0  0  0
  188.7290  178.2880  138.4610 N   0  0  0  0  0  0  0  0  0  0  0  0
  187.2070  178.0700  140.8210 C   0  0  0  0  0  0  0  0  0  0  0  0
  184.5490  178.9830  140.8080 C   0  0  0  0  0  3  0  0  0  0  0  0
  187.2780  178.2240  138.2950 C   0  0  0  0  0  2  0  0  0  0  0  0
  185.0810  178.4820  144.4510 C   0  0  0  0  0  0  0  0  0  0  0  0
  187.1070  177.8900  143.2560 C   0  0  0  0  0  3  0  0  0  0  0  0
  185.2490  178.8570  139.6090 C   0  0  0  0  0  3  0  0  0  0  0  0
  185.1740  178.6710  146.9550 C   0  0  0  0  0  2  0  0  0  0  0  0
  184.4570  178.7920  143.2320 C   0  0  0  0  0  0  0  0  0  0  0  0
  184.2820  178.5450  145.7260 C   0  0  0  0  0  2  0  0  0  0  0  0
  189.3090  177.9240  137.1820 C   0  0  0  0  0  1  0  0  0  0  0  0
  189.1230  177.2530  139.4110 C   0  0  0  0  0  2  0  0  0  0  0  0
  185.1640  178.6640  142.0260 C   0  0  0  0  0  0  0  0  0  0  0  0
  186.2270  177.5750  146.9270 C   0  0  0  0  0  2  0  0  0  0  0  0
  186.4200  178.0290  144.4690 C   0  0  0  0  0  0  0  0  0  0  0  0
  189.4740  178.1640  144.9670 C   0  0  0  0  0  2  0  0  0  0  0  0
  190.0790  176.0940  143.6770 C   0  0  0  0  0  1  0  0  0  0  0  0
  190.6150  177.2300  144.5400 C   0  0  1  0  0  3  0  0  0  0  0  0
  191.7720  177.9720  143.8560 C   0  0  0  0  0  3  0  0  0  0  0  0
  191.8680  177.5870  142.3900 C   0  0  0  0  0  1  0  0  0  0  0  0
  191.5780  179.4770  143.9380 C   0  0  0  0  0  1  0  0  0  0  0  0
  1  2  1  0  0  0  0
  1 21  1  0  0  0  0
  2  5  2  0  0  0  0
  3  9  1  0  0  0  0
  4 16  1  0  0  0  0
  6 14  2  0  0  0  0
  6  9  1  0  0  0  0
  7 13  1  0  0  0  0
  8 19  1  0  0  0  0
  9  7  2  0  0  0  0
 10 20  2  0  0  0  0
 11  8  1  0  0  0  0
 11  6  1  0  0  0  0
 12 22  1  0  0  0  0
 12 17  1  0  0  0  0
 13 22  2  0  0  0  0
 14 10  1  0  0  0  0
 16 12  2  0  0  0  0
 17 15  1  0  0  0  0
 18  8  1  0  0  0  0
 19  3  1  0  0  0  0
 20  7  1  0  0  0  0
 20 16  1  0  0  0  0
 21 15  1  0  0  0  0
 22  1  1  0  0  0  0
 23  2  1  0  0  0  0
 25 24  1  6  0  0  0
 25 23  1  0  0  0  0
 26 28  1  0  0  0  0
 26 25  1  0  0  0  0
 27 26  1  0  0  0  0
M  END
>  <MODEL>
7

>  <REMARK>
 VINA RESULT:      -9.6      2.256      5.595
  Name = 
  3 active torsions:
  status: ('A' for Active; 'I' for Inactive)
    1  A    between atoms: C_2  and  C_3
    2  A    between atoms: C_3  and  C_11
    3  A    between atoms: C_6  and  C_11
                            x       y       z     vdW  Elec       q    Type
                         _______ _______ _______ _____ _____    ______ ____

>  <TORSDO>
F 3

$$$$
=
 OpenBabel11052413303D

 28 31  0  0  1  0  0  0  0  0999 V2000
  185.2890  178.6260  144.5990 N   0  0  0  0  0  0  0  0  0  0  0  0
  184.3590  178.7720  143.5070 C   0  0  0  0  0  0  0  0  0  0  0  0
  188.3120  177.8300  140.4790 C   0  0  0  0  0  2  0  0  0  0  0  0
  189.4740  176.9840  146.5420 O   0  0  0  0  0  1  0  0  0  0  0  0
  183.4040  179.5880  143.6020 O   0  0  0  0  0  0  0  0  0  0  0  0
  190.4330  177.0010  141.5790 C   0  0  0  0  0  0  0  0  0  0  0  0
  188.5450  177.5990  142.9970 C   0  0  0  0  0  0  0  0  0  0  0  0
  190.1020  176.8200  139.1620 N   0  0  0  0  0  0  0  0  0  0  0  0
  189.1180  177.4970  141.7130 C   0  0  0  0  0  0  0  0  0  0  0  0
  190.6060  176.7580  143.9800 C   0  0  0  0  0  3  0  0  0  0  0  0
  191.0930  176.9460  140.2300 C   0  0  0  0  0  2  0  0  0  0  0  0
  187.4100  177.7900  145.5690 C   0  0  0  0  0  0  0  0  0  0  0  0
  187.2350  178.0620  143.1650 C   0  0  0  0  0  3  0  0  0  0  0  0
  191.1710  176.6510  142.7100 C   0  0  0  0  0  3  0  0  0  0  0  0
  185.3240  177.9890  146.9570 C   0  0  0  0  0  2  0  0  0  0  0  0
  188.7280  177.3310  145.4170 C   0  0  0  0  0  0  0  0  0  0  0  0
  186.8480  177.9760  146.9530 C   0  0  0  0  0  2  0  0  0  0  0  0
  190.8230  176.9430  137.9090 C   0  0  0  0  0  1  0  0  0  0  0  0
  189.2010  177.9650  139.2440 C   0  0  0  0  0  2  0  0  0  0  0  0
  189.2950  177.2250  144.1370 C   0  0  0  0  0  0  0  0  0  0  0  0
  184.8290  179.0020  145.9360 C   0  0  0  0  0  2  0  0  0  0  0  0
  186.6500  178.1570  144.4350 C   0  0  0  0  0  0  0  0  0  0  0  0
  184.4440  177.9160  142.2750 C   0  0  0  0  0  2  0  0  0  0  0  0
  184.7960  179.0500  140.0610 C   0  0  0  0  0  1  0  0  0  0  0  0
  183.7570  178.5450  141.0550 C   0  0  1  0  0  3  0  0  0  0  0  0
  182.7380  177.6080  140.3920 C   0  0  0  0  0  3  0  0  0  0  0  0
  181.3400  178.1990  140.4570 C   0  0  0  0  0  1  0  0  0  0  0  0
  183.0840  177.3730  138.9310 C   0  0  0  0  0  1  0  0  0  0  0  0
  1 21  1  0  0  0  0
  2  5  2  0  0  0  0
  2  1  1  0  0  0  0
  3  9  1  0  0  0  0
  6  9  2  0  0  0  0
  6 14  1  0  0  0  0
  7 13  2  0  0  0  0
  7 20  1  0  0  0  0
  8 19  1  0  0  0  0
  8 11  1  0  0  0  0
  9  7  1  0  0  0  0
 10 20  1  0  0  0  0
 11  6  1  0  0  0  0
 12 17  1  0  0  0  0
 13 22  1  0  0  0  0
 14 10  2  0  0  0  0
 16 12  1  0  0  0  0
 16  4  1  0  0  0  0
 17 15  1  0  0  0  0
 18  8  1  0  0  0  0
 19  3  1  0  0  0  0
 20 16  2  0  0  0  0
 21 15  1  0  0  0  0
 22  1  1  0  0  0  0
 22 12  2  0  0  0  0
 23  2  1  0  0  0  0
 25 24  1  6  0  0  0
 25 23  1  0  0  0  0
 26 27  1  0  0  0  0
 26 25  1  0  0  0  0
 28 26  1  0  0  0  0
M  END
>  <MODEL>
8

>  <REMARK>
 VINA RESULT:      -9.4      2.124      5.988
  Name = 
  3 active torsions:
  status: ('A' for Active; 'I' for Inactive)
    1  A    between atoms: C_2  and  C_3
    2  A    between atoms: C_3  and  C_11
    3  A    between atoms: C_6  and  C_11
                            x       y       z     vdW  Elec       q    Type
                         _______ _______ _______ _____ _____    ______ ____

>  <TORSDO>
F 3

$$$$
=
 OpenBabel11052413303D

 28 31  0  0  1  0  0  0  0  0999 V2000
  186.7350  178.5880  141.7250 N   0  0  0  0  0  0  0  0  0  0  0  0
  187.7720  178.1710  140.8150 C   0  0  0  0  0  0  0  0  0  0  0  0
  190.4700  177.0500  144.9560 C   0  0  0  0  0  2  0  0  0  0  0  0
  184.5310  178.5500  146.0990 O   0  0  0  0  0  1  0  0  0  0  0  0
  187.9180  178.7690  139.7150 O   0  0  0  0  0  0  0  0  0  0  0  0
  189.2450  177.0730  147.1680 C   0  0  0  0  0  0  0  0  0  0  0  0
  188.0330  177.7350  145.1620 C   0  0  0  0  0  0  0  0  0  0  0  0
  191.4430  176.0240  146.9450 N   0  0  0  0  0  0  0  0  0  0  0  0
  189.2300  177.3190  145.7790 C   0  0  0  0  0  0  0  0  0  0  0  0
  186.9120  177.6960  147.3210 C   0  0  0  0  0  3  0  0  0  0  0  0
  190.5230  176.6940  147.8630 C   0  0  0  0  0  2  0  0  0  0  0  0
  185.6300  178.5600  143.9430 C   0  0  0  0  0  0  0  0  0  0  0  0
  187.9760  177.9630  143.7830 C   0  0  0  0  0  3  0  0  0  0  0  0
  188.0950  177.2780  147.9310 C   0  0  0  0  0  3  0  0  0  0  0  0
  184.3040  178.8070  141.8230 C   0  0  0  0  0  2  0  0  0  0  0  0
  185.6740  178.3430  145.3300 C   0  0  0  0  0  0  0  0  0  0  0  0
  184.3670  179.0900  143.3190 C   0  0  0  0  0  2  0  0  0  0  0  0
  192.6940  175.8540  147.6610 C   0  0  0  0  0  1  0  0  0  0  0  0
  191.7150  176.9300  145.8340 C   0  0  0  0  0  2  0  0  0  0  0  0
  186.8660  177.9240  145.9400 C   0  0  0  0  0  0  0  0  0  0  0  0
  185.5850  179.2960  141.1640 C   0  0  0  0  0  2  0  0  0  0  0  0
  186.7890  178.3660  143.1570 C   0  0  0  0  0  0  0  0  0  0  0  0
  188.6470  176.9830  141.1000 C   0  0  0  0  0  2  0  0  0  0  0  0
  188.9120  176.8430  138.6050 C   0  0  0  0  0  1  0  0  0  0  0  0
  189.6050  176.6480  139.9490 C   0  0  1  0  0  3  0  0  0  0  0  0
  190.9290  177.4210  140.0280 C   0  0  0  0  0  3  0  0  0  0  0  0
  191.5010  177.3680  141.4340 C   0  0  0  0  0  1  0  0  0  0  0  0
  191.9580  176.8350  139.0770 C   0  0  0  0  0  1  0  0  0  0  0  0
  1 22  1  0  0  0  0
  2 23  1  0  0  0  0
  2  1  1  0  0  0  0
  3  9  1  0  0  0  0
  3 19  1  0  0  0  0
  5  2  2  0  0  0  0
  6 11  1  0  0  0  0
  6 14  1  0  0  0  0
  7  9  1  0  0  0  0
  7 20  1  0  0  0  0
  8 18  1  0  0  0  0
  8 11  1  0  0  0  0
  9  6  2  0  0  0  0
 10 14  2  0  0  0  0
 12 16  1  0  0  0  0
 13  7  2  0  0  0  0
 15 17  1  0  0  0  0
 16 20  2  0  0  0  0
 16  4  1  0  0  0  0
 17 12  1  0  0  0  0
 19  8  1  0  0  0  0
 20 10  1  0  0  0  0
 21  1  1  0  0  0  0
 21 15  1  0  0  0  0
 22 13  1  0  0  0  0
 22 12  2  0  0  0  0
 25 24  1  6  0  0  0
 25 26  1  0  0  0  0
 25 23  1  0  0  0  0
 26 27  1  0  0  0  0
 28 26  1  0  0  0  0
M  END
>  <MODEL>
9

>  <REMARK>
 VINA RESULT:      -9.0      2.015      5.410
  Name = 
  3 active torsions:
  status: ('A' for Active; 'I' for Inactive)
    1  A    between atoms: C_2  and  C_3
    2  A    between atoms: C_3  and  C_11
    3  A    between atoms: C_6  and  C_11
                            x       y       z     vdW  Elec       q    Type
                         _______ _______ _______ _____ _____    ______ ____

>  <TORSDO>
F 3

$$$$
