=
 OpenBabel11052414413D

 32 37  0  0  1  0  0  0  0  0999 V2000
  186.3300  177.8690  144.7240 C   0  0  0  0  0  0  0  0  0  0  0  0
  188.6850  177.1620  144.5320 C   0  0  0  0  0  0  0  0  0  0  0  0
  185.2000  178.0640  145.6590 C   0  0  0  0  0  3  0  0  0  0  0  0
  187.6440  177.5030  145.3120 C   0  0  0  0  0  0  0  0  0  0  0  0
  190.0270  176.9110  145.1470 C   0  0  0  0  0  0  0  0  0  0  0  0
  192.0440  177.2620  139.4940 C   0  0  0  0  0  1  0  0  0  0  0  0
  188.4580  176.9900  143.0400 C   0  0  1  0  0  3  0  0  0  0  0  0
  191.9030  176.8560  141.9270 O   0  0  0  0  0  0  0  0  0  0  0  0
  190.9740  176.8080  142.8470 C   0  0  0  0  0  0  0  0  0  0  0  0
  187.7550  177.3570  146.8090 C   0  0  1  0  0  3  0  0  0  0  0  0
  191.1930  176.4700  144.2850 C   0  0  0  0  0  2  0  0  0  0  0  0
  189.1010  177.5400  147.2460 O   0  0  0  0  0  0  0  0  0  0  0  0
  186.8130  178.3230  147.5260 C   0  0  0  0  0  2  0  0  0  0  0  0
  187.4360  178.0050  142.5210 C   0  0  0  0  0  2  0  0  0  0  0  0
  186.2050  178.0330  143.3870 C   0  0  0  0  0  0  0  0  0  0  0  0
  189.7480  177.0680  142.2860 C   0  0  0  0  0  0  0  0  0  0  0  0
  190.1930  177.1320  146.4670 C   0  0  0  0  0  0  0  0  0  0  0  0
  185.4160  178.2310  146.9680 C   0  0  0  0  0  3  0  0  0  0  0  0
  191.3150  177.1270  140.7820 C   0  0  0  0  0  0  0  0  0  0  0  0
  189.9420  177.2600  140.9290 C   0  0  0  0  0  3  0  0  0  0  0  0
  182.5440  179.3780  143.2190 C   0  0  2  0  0  3  0  0  0  0  0  0
  182.0620  177.3470  140.1910 O   0  0  0  0  0  0  0  0  0  0  0  0
  181.9190  179.2150  144.4420 F   0  0  0  0  0  0  0  0  0  0  0  0
  183.7490  179.0030  140.4980 C   0  0  0  0  0  2  0  0  0  0  0  0
  184.8990  178.3390  142.7010 C   0  0  2  0  0  3  0  0  0  0  0  0
  182.0800  178.3410  142.2960 N   0  0  0  0  0  2  0  0  0  0  0  0
  185.0460  178.5650  141.1870 C   0  0  0  0  0  2  0  0  0  0  0  0
  184.0410  179.3660  143.4050 C   0  0  0  0  0  0  0  0  0  0  0  0
  184.5550  180.2350  144.0920 O   0  0  0  0  0  0  0  0  0  0  0  0
  182.5800  178.1950  140.9620 C   0  0  0  0  0  0  0  0  0  0  0  0
  191.5070  176.9850  147.1070 C   0  0  0  0  0  3  0  0  0  0  0  0
  191.8280  175.8920  147.7140 N   0  0  0  0  0  2  0  0  0  0  0  0
  1  4  1  0  0  0  0
  1  3  1  0  0  0  0
  2  5  1  0  0  0  0
  2  4  2  0  0  0  0
  3 18  2  0  0  0  0
  4 10  1  0  0  0  0
  5 17  2  0  0  0  0
  6 19  1  0  0  0  0
  7 14  1  6  0  0  0
  7  2  1  0  0  0  0
  8  9  1  0  0  0  0
  9 11  1  0  0  0  0
 10 12  1  0  0  0  0
 10 13  1  1  0  0  0
 11  5  1  0  0  0  0
 14 15  1  0  0  0  0
 15  1  2  0  0  0  0
 16  9  2  0  0  0  0
 16  7  1  0  0  0  0
 17 31  1  0  0  0  0
 17 12  1  0  0  0  0
 18 13  1  0  0  0  0
 19 20  2  0  0  0  0
 19  8  1  0  0  0  0
 20 16  1  0  0  0  0
 21 28  1  0  0  0  0
 21 23  1  1  0  0  0
 22 30  2  0  0  0  0
 24 30  1  0  0  0  0
 24 27  1  0  0  0  0
 25 15  1  1  0  0  0
 25 28  1  0  0  0  0
 26 21  1  0  0  0  0
 27 25  1  0  0  0  0
 28 29  2  0  0  0  0
 30 26  1  0  0  0  0
 31 32  2  0  0  0  0
M  END
>  <MODEL>
1

>  <REMARK>
 VINA RESULT:     -11.4      0.000      0.000
  Name = 
  2 active torsions:
  status: ('A' for Active; 'I' for Inactive)
    1  A    between atoms: C_13  and  C_29
    2  A    between atoms: C_16  and  C_27
                            x       y       z     vdW  Elec       q    Type
                         _______ _______ _______ _____ _____    ______ ____

>  <TORSDO>
F 2

$$$$
=
 OpenBabel11052414413D

 32 37  0  0  1  0  0  0  0  0999 V2000
  184.9320  178.2750  143.4560 C   0  0  0  0  0  0  0  0  0  0  0  0
  187.2540  177.6270  143.9800 C   0  0  0  0  0  0  0  0  0  0  0  0
  183.5920  178.5280  144.0260 C   0  0  0  0  0  3  0  0  0  0  0  0
  186.0400  178.0120  144.4110 C   0  0  0  0  0  0  0  0  0  0  0  0
  188.3810  177.4830  144.9560 C   0  0  0  0  0  0  0  0  0  0  0  0
  191.8500  177.3200  140.0480 C   0  0  0  0  0  1  0  0  0  0  0  0
  187.4390  177.2970  142.5090 C   0  0  1  0  0  3  0  0  0  0  0  0
  191.0580  177.1590  142.3830 O   0  0  0  0  0  0  0  0  0  0  0  0
  189.9150  177.1770  143.0190 C   0  0  0  0  0  0  0  0  0  0  0  0
  185.7420  178.0240  145.8890 C   0  0  1  0  0  3  0  0  0  0  0  0
  189.7370  176.9940  144.4910 C   0  0  0  0  0  2  0  0  0  0  0  0
  186.9190  178.2930  146.6490 O   0  0  0  0  0  0  0  0  0  0  0  0
  184.6380  179.0270  146.2200 C   0  0  0  0  0  2  0  0  0  0  0  0
  186.5920  178.2200  141.6290 C   0  0  0  0  0  2  0  0  0  0  0  0
  185.1740  178.2980  142.1250 C   0  0  0  0  0  0  0  0  0  0  0  0
  188.8850  177.3380  142.1260 C   0  0  0  0  0  0  0  0  0  0  0  0
  188.1830  177.8430  146.2400 C   0  0  0  0  0  0  0  0  0  0  0  0
  183.4450  178.8340  145.3200 C   0  0  0  0  0  3  0  0  0  0  0  0
  190.8000  177.2940  141.1000 C   0  0  0  0  0  0  0  0  0  0  0  0
  189.4380  177.3970  140.8580 C   0  0  0  0  0  3  0  0  0  0  0  0
  183.6130  179.9100  138.9300 C   0  0  2  0  0  3  0  0  0  0  0  0
  180.3200  178.7790  140.1110 O   0  0  0  0  0  0  0  0  0  0  0  0
  184.0490  181.2150  138.7930 F   0  0  0  0  0  0  0  0  0  0  0  0
  182.2130  177.3810  139.7330 C   0  0  0  0  0  2  0  0  0  0  0  0
  184.1010  178.4900  141.0840 C   0  0  2  0  0  3  0  0  0  0  0  0
  182.2470  179.9070  139.4530 N   0  0  0  0  0  2  0  0  0  0  0  0
  183.2240  177.2440  140.8770 C   0  0  0  0  0  2  0  0  0  0  0  0
  184.5730  179.1410  139.8030 C   0  0  0  0  0  0  0  0  0  0  0  0
  185.7290  179.0060  139.4310 O   0  0  0  0  0  0  0  0  0  0  0  0
  181.5260  178.7090  139.7630 C   0  0  0  0  0  0  0  0  0  0  0  0
  189.2760  177.8040  147.2220 C   0  0  0  0  0  3  0  0  0  0  0  0
  189.0940  178.2230  148.4300 N   0  0  0  0  0  2  0  0  0  0  0  0
  1  3  1  0  0  0  0
  1  4  1  0  0  0  0
  2  4  2  0  0  0  0
  2  5  1  0  0  0  0
  3 18  2  0  0  0  0
  4 10  1  0  0  0  0
  5 17  2  0  0  0  0
  6 19  1  0  0  0  0
  7 14  1  6  0  0  0
  7  2  1  0  0  0  0
  8  9  1  0  0  0  0
  9 11  1  0  0  0  0
 10 13  1  6  0  0  0
 10 12  1  0  0  0  0
 11  5  1  0  0  0  0
 14 15  1  0  0  0  0
 15  1  2  0  0  0  0
 16  7  1  0  0  0  0
 16  9  2  0  0  0  0
 17 12  1  0  0  0  0
 17 31  1  0  0  0  0
 18 13  1  0  0  0  0
 19  8  1  0  0  0  0
 20 19  2  0  0  0  0
 20 16  1  0  0  0  0
 21 23  1  1  0  0  0
 21 26  1  0  0  0  0
 21 28  1  0  0  0  0
 24 30  1  0  0  0  0
 24 27  1  0  0  0  0
 25 15  1  1  0  0  0
 26 30  1  0  0  0  0
 27 25  1  0  0  0  0
 28 25  1  0  0  0  0
 29 28  2  0  0  0  0
 30 22  2  0  0  0  0
 31 32  2  0  0  0  0
M  END
>  <MODEL>
2

>  <REMARK>
 VINA RESULT:     -11.4      1.959      2.562
  Name = 
  2 active torsions:
  status: ('A' for Active; 'I' for Inactive)
    1  A    between atoms: C_13  and  C_29
    2  A    between atoms: C_16  and  C_27
                            x       y       z     vdW  Elec       q    Type
                         _______ _______ _______ _____ _____    ______ ____

>  <TORSDO>
F 2

$$$$
=
 OpenBabel11052414413D

 32 37  0  0  1  0  0  0  0  0999 V2000
  189.6100  177.0770  143.2140 C   0  0  0  0  0  0  0  0  0  0  0  0
  187.9680  177.8480  144.8850 C   0  0  0  0  0  0  0  0  0  0  0  0
  191.0170  176.6750  143.0000 C   0  0  0  0  0  3  0  0  0  0  0  0
  189.1800  177.3370  144.6130 C   0  0  0  0  0  0  0  0  0  0  0  0
  187.5200  177.9900  146.3070 C   0  0  0  0  0  0  0  0  0  0  0  0
  182.0750  178.8450  143.9050 C   0  0  0  0  0  1  0  0  0  0  0  0
  187.0950  178.3200  143.7340 C   0  0  1  0  0  3  0  0  0  0  0  0
  183.9600  178.7390  145.5000 O   0  0  0  0  0  0  0  0  0  0  0  0
  185.2570  178.5800  145.4530 C   0  0  0  0  0  0  0  0  0  0  0  0
  190.1870  177.1720  145.7230 C   0  0  1  0  0  3  0  0  0  0  0  0
  186.1790  178.6180  146.6280 C   0  0  0  0  0  2  0  0  0  0  0  0
  189.5420  176.9260  146.9710 O   0  0  0  0  0  0  0  0  0  0  0  0
  191.1880  176.0640  145.3990 C   0  0  0  0  0  2  0  0  0  0  0  0
  187.2680  177.4170  142.5100 C   0  0  0  0  0  2  0  0  0  0  0  0
  188.7220  177.1900  142.1990 C   0  0  0  0  0  0  0  0  0  0  0  0
  185.6620  178.4210  144.1520 C   0  0  0  0  0  0  0  0  0  0  0  0
  188.3040  177.5040  147.2900 C   0  0  0  0  0  0  0  0  0  0  0  0
  191.7680  176.2450  144.0200 C   0  0  0  0  0  3  0  0  0  0  0  0
  183.5100  178.6990  144.2640 C   0  0  0  0  0  0  0  0  0  0  0  0
  184.5370  178.5160  143.3500 C   0  0  0  0  0  3  0  0  0  0  0  0
  188.1650  177.5750  138.3540 C   0  0  2  0  0  3  0  0  0  0  0  0
  190.5390  174.8110  137.8520 O   0  0  0  0  0  0  0  0  0  0  0  0
  186.8120  177.5770  138.0660 F   0  0  0  0  0  0  0  0  0  0  0  0
  190.9920  176.8340  139.0300 C   0  0  0  0  0  2  0  0  0  0  0  0
  189.0860  177.0100  140.7480 C   0  0  2  0  0  3  0  0  0  0  0  0
  188.7290  176.2660  138.0220 N   0  0  0  0  0  2  0  0  0  0  0  0
  190.6000  176.8880  140.5100 C   0  0  0  0  0  2  0  0  0  0  0  0
  188.3790  177.9530  139.7980 C   0  0  0  0  0  0  0  0  0  0  0  0
  188.0210  179.0580  140.1770 O   0  0  0  0  0  0  0  0  0  0  0  0
  190.0980  175.9170  138.2570 C   0  0  0  0  0  0  0  0  0  0  0  0
  187.8770  177.5380  148.6960 C   0  0  0  0  0  3  0  0  0  0  0  0
  188.4510  178.3260  149.5430 N   0  0  0  0  0  2  0  0  0  0  0  0
  1  4  1  0  0  0  0
  2  5  1  0  0  0  0
  3  1  1  0  0  0  0
  3 18  2  0  0  0  0
  4  2  2  0  0  0  0
  4 10  1  0  0  0  0
  5 11  1  0  0  0  0
  5 17  2  0  0  0  0
  6 19  1  0  0  0  0
  7 14  1  6  0  0  0
  7 16  1  0  0  0  0
  7  2  1  0  0  0  0
  9  8  1  0  0  0  0
  9 11  1  0  0  0  0
 10 13  1  6  0  0  0
 10 12  1  0  0  0  0
 12 17  1  0  0  0  0
 15 14  1  0  0  0  0
 15  1  2  0  0  0  0
 16  9  2  0  0  0  0
 17 31  1  0  0  0  0
 18 13  1  0  0  0  0
 19  8  1  0  0  0  0
 20 16  1  0  0  0  0
 20 19  2  0  0  0  0
 21 23  1  1  0  0  0
 21 28  1  0  0  0  0
 22 30  2  0  0  0  0
 24 27  1  0  0  0  0
 25 15  1  1  0  0  0
 26 30  1  0  0  0  0
 26 21  1  0  0  0  0
 27 25  1  0  0  0  0
 28 29  2  0  0  0  0
 28 25  1  0  0  0  0
 30 24  1  0  0  0  0
 31 32  2  0  0  0  0
M  END
>  <MODEL>
3

>  <REMARK>
 VINA RESULT:     -11.4      2.840      5.995
  Name = 
  2 active torsions:
  status: ('A' for Active; 'I' for Inactive)
    1  A    between atoms: C_13  and  C_29
    2  A    between atoms: C_16  and  C_27
                            x       y       z     vdW  Elec       q    Type
                         _______ _______ _______ _____ _____    ______ ____

>  <TORSDO>
F 2

$$$$
=
 OpenBabel11052414413D

 32 37  0  0  1  0  0  0  0  0999 V2000
  185.2460  178.3230  144.2410 C   0  0  0  0  0  0  0  0  0  0  0  0
  187.5090  177.8210  143.3970 C   0  0  0  0  0  0  0  0  0  0  0  0
  184.3890  178.3660  145.4450 C   0  0  0  0  0  3  0  0  0  0  0  0
  186.6880  178.0260  144.4420 C   0  0  0  0  0  0  0  0  0  0  0  0
  188.9770  177.6380  143.6270 C   0  0  0  0  0  0  0  0  0  0  0  0
  189.4310  178.5170  137.6960 C   0  0  0  0  0  1  0  0  0  0  0  0
  186.9120  177.7290  142.0030 C   0  0  1  0  0  3  0  0  0  0  0  0
  189.9520  177.9430  140.0420 O   0  0  0  0  0  0  0  0  0  0  0  0
  189.2980  177.7620  141.1610 C   0  0  0  0  0  0  0  0  0  0  0  0
  187.1930  177.7920  145.8440 C   0  0  1  0  0  3  0  0  0  0  0  0
  189.9030  177.3490  142.4630 C   0  0  0  0  0  2  0  0  0  0  0  0
  188.5920  178.0530  145.9380 O   0  0  0  0  0  0  0  0  0  0  0  0
  186.4130  178.6300  146.8560 C   0  0  0  0  0  2  0  0  0  0  0  0
  185.7310  178.6900  141.8480 C   0  0  0  0  0  2  0  0  0  0  0  0
  184.7690  178.5640  142.9980 C   0  0  0  0  0  0  0  0  0  0  0  0
  187.9560  177.9590  140.9550 C   0  0  0  0  0  0  0  0  0  0  0  0
  189.4670  177.7860  144.8750 C   0  0  0  0  0  0  0  0  0  0  0  0
  184.9270  178.4640  146.6650 C   0  0  0  0  0  3  0  0  0  0  0  0
  189.0710  178.2410  139.1120 C   0  0  0  0  0  0  0  0  0  0  0  0
  187.7770  178.2530  139.6140 C   0  0  0  0  0  3  0  0  0  0  0  0
  181.6420  178.7720  140.6700 C   0  0  2  0  0  3  0  0  0  0  0  0
  180.0310  180.8780  143.2180 O   0  0  0  0  0  0  0  0  0  0  0  0
  182.0220  179.1480  139.3940 F   0  0  0  0  0  0  0  0  0  0  0  0
  180.8990  178.6860  143.5750 C   0  0  0  0  0  2  0  0  0  0  0  0
  183.3130  178.8080  142.6950 C   0  0  2  0  0  3  0  0  0  0  0  0
  181.0580  179.9230  141.3600 N   0  0  0  0  0  2  0  0  0  0  0  0
  182.3920  178.5660  143.9020 C   0  0  0  0  0  2  0  0  0  0  0  0
  182.8250  178.1910  141.4030 C   0  0  0  0  0  0  0  0  0  0  0  0
  183.3500  177.1780  140.9650 O   0  0  0  0  0  0  0  0  0  0  0  0
  180.6170  179.8820  142.7220 C   0  0  0  0  0  0  0  0  0  0  0  0
  190.9090  177.7020  145.1450 C   0  0  0  0  0  3  0  0  0  0  0  0
  191.3840  176.7930  145.9300 N   0  0  0  0  0  2  0  0  0  0  0  0
  1  4  1  0  0  0  0
  1  3  1  0  0  0  0
  2  5  1  0  0  0  0
  2  4  2  0  0  0  0
  3 18  2  0  0  0  0
  4 10  1  0  0  0  0
  5 17  2  0  0  0  0
  6 19  1  0  0  0  0
  7 14  1  1  0  0  0
  7  2  1  0  0  0  0
  8  9  1  0  0  0  0
  9 11  1  0  0  0  0
 10 12  1  0  0  0  0
 10 13  1  1  0  0  0
 11  5  1  0  0  0  0
 14 15  1  0  0  0  0
 15  1  2  0  0  0  0
 16  9  2  0  0  0  0
 16  7  1  0  0  0  0
 17 31  1  0  0  0  0
 17 12  1  0  0  0  0
 18 13  1  0  0  0  0
 19 20  2  0  0  0  0
 19  8  1  0  0  0  0
 20 16  1  0  0  0  0
 21 23  1  6  0  0  0
 21 26  1  0  0  0  0
 21 28  1  0  0  0  0
 24 27  1  0  0  0  0
 25 15  1  1  0  0  0
 25 27  1  0  0  0  0
 26 30  1  0  0  0  0
 28 25  1  0  0  0  0
 29 28  2  0  0  0  0
 30 22  2  0  0  0  0
 30 24  1  0  0  0  0
 31 32  2  0  0  0  0
M  END
>  <MODEL>
4

>  <REMARK>
 VINA RESULT:     -11.0      1.922      2.675
  Name = 
  2 active torsions:
  status: ('A' for Active; 'I' for Inactive)
    1  A    between atoms: C_13  and  C_29
    2  A    between atoms: C_16  and  C_27
                            x       y       z     vdW  Elec       q    Type
                         _______ _______ _______ _____ _____    ______ ____

>  <TORSDO>
F 2

$$$$
=
 OpenBabel11052414413D

 32 37  0  0  1  0  0  0  0  0999 V2000
  186.6780  178.2090  144.8760 C   0  0  0  0  0  0  0  0  0  0  0  0
  185.5830  178.6780  142.7170 C   0  0  0  0  0  0  0  0  0  0  0  0
  186.5150  178.2440  146.3460 C   0  0  0  0  0  3  0  0  0  0  0  0
  185.4880  178.5390  144.0510 C   0  0  0  0  0  0  0  0  0  0  0  0
  184.3460  178.8960  141.9000 C   0  0  0  0  0  0  0  0  0  0  0  0
  187.8970  177.5930  137.2270 C   0  0  0  0  0  1  0  0  0  0  0  0
  186.9590  178.6610  142.0730 C   0  0  1  0  0  3  0  0  0  0  0  0
  185.9840  178.3430  138.5980 O   0  0  0  0  0  0  0  0  0  0  0  0
  185.7380  178.5970  139.8580 C   0  0  0  0  0  0  0  0  0  0  0  0
  184.1950  178.8810  144.7470 C   0  0  1  0  0  3  0  0  0  0  0  0
  184.4460  179.1110  140.4040 C   0  0  0  0  0  2  0  0  0  0  0  0
  183.0740  178.6460  143.8950 O   0  0  0  0  0  0  0  0  0  0  0  0
  184.0550  178.1090  146.0580 C   0  0  0  0  0  2  0  0  0  0  0  0
  187.8860  177.6750  142.7900 C   0  0  0  0  0  2  0  0  0  0  0  0
  187.8460  177.8730  144.2810 C   0  0  0  0  0  0  0  0  0  0  0  0
  186.8640  178.3690  140.6090 C   0  0  0  0  0  0  0  0  0  0  0  0
  183.1440  178.8460  142.5090 C   0  0  0  0  0  0  0  0  0  0  0  0
  185.2980  178.2410  146.8990 C   0  0  0  0  0  3  0  0  0  0  0  0
  187.2410  177.9670  138.5070 C   0  0  0  0  0  0  0  0  0  0  0  0
  187.8700  177.9750  139.7440 C   0  0  0  0  0  3  0  0  0  0  0  0
  191.7220  177.7390  144.7310 C   0  0  2  0  0  3  0  0  0  0  0  0
  191.2040  175.3210  147.4530 O   0  0  0  0  0  0  0  0  0  0  0  0
  192.3360  177.5070  143.5140 F   0  0  0  0  0  0  0  0  0  0  0  0
  190.2600  177.5070  147.3410 C   0  0  0  0  0  2  0  0  0  0  0  0
  189.1180  177.5880  145.0370 C   0  0  2  0  0  3  0  0  0  0  0  0
  191.7060  176.5000  145.5100 N   0  0  0  0  0  2  0  0  0  0  0  0
  188.9490  177.6670  146.5630 C   0  0  0  0  0  2  0  0  0  0  0  0
  190.3410  178.3030  144.5070 C   0  0  0  0  0  0  0  0  0  0  0  0
  190.2300  179.3780  143.9360 O   0  0  0  0  0  0  0  0  0  0  0  0
  191.0890  176.3870  146.7970 C   0  0  0  0  0  0  0  0  0  0  0  0
  181.8950  178.9670  141.7450 C   0  0  0  0  0  3  0  0  0  0  0  0
  180.8060  179.3650  142.3150 N   0  0  0  0  0  2  0  0  0  0  0  0
  1  3  1  0  0  0  0
  2  4  2  0  0  0  0
  3 18  2  0  0  0  0
  4 10  1  0  0  0  0
  4  1  1  0  0  0  0
  5 17  2  0  0  0  0
  5  2  1  0  0  0  0
  6 19  1  0  0  0  0
  7  2  1  0  0  0  0
  7 14  1  1  0  0  0
  8  9  1  0  0  0  0
  9 11  1  0  0  0  0
  9 16  2  0  0  0  0
 10 13  1  1  0  0  0
 11  5  1  0  0  0  0
 12 10  1  0  0  0  0
 13 18  1  0  0  0  0
 14 15  1  0  0  0  0
 15  1  2  0  0  0  0
 16  7  1  0  0  0  0
 17 12  1  0  0  0  0
 19  8  1  0  0  0  0
 19 20  2  0  0  0  0
 20 16  1  0  0  0  0
 21 23  1  6  0  0  0
 21 26  1  0  0  0  0
 25 15  1  6  0  0  0
 25 27  1  0  0  0  0
 26 30  1  0  0  0  0
 27 24  1  0  0  0  0
 28 21  1  0  0  0  0
 28 25  1  0  0  0  0
 29 28  2  0  0  0  0
 30 24  1  0  0  0  0
 30 22  2  0  0  0  0
 31 32  2  0  0  0  0
 31 17  1  0  0  0  0
M  END
>  <MODEL>
5

>  <REMARK>
 VINA RESULT:     -11.0      2.692      6.911
  Name = 
  2 active torsions:
  status: ('A' for Active; 'I' for Inactive)
    1  A    between atoms: C_13  and  C_29
    2  A    between atoms: C_16  and  C_27
                            x       y       z     vdW  Elec       q    Type
                         _______ _______ _______ _____ _____    ______ ____

>  <TORSDO>
F 2

$$$$
=
 OpenBabel11052414413D

 32 37  0  0  1  0  0  0  0  0999 V2000
  188.8340  177.6350  142.0220 C   0  0  0  0  0  0  0  0  0  0  0  0
  187.4590  178.1080  144.0150 C   0  0  0  0  0  0  0  0  0  0  0  0
  190.1970  177.3220  141.5430 C   0  0  0  0  0  3  0  0  0  0  0  0
  188.6240  177.6870  143.4920 C   0  0  0  0  0  0  0  0  0  0  0  0
  187.2370  178.0390  145.4940 C   0  0  0  0  0  0  0  0  0  0  0  0
  181.4680  178.9930  144.0930 C   0  0  0  0  0  1  0  0  0  0  0  0
  186.4090  178.6960  143.0870 C   0  0  1  0  0  3  0  0  0  0  0  0
  183.5810  178.7480  145.3510 O   0  0  0  0  0  0  0  0  0  0  0  0
  184.8580  178.6490  145.0860 C   0  0  0  0  0  0  0  0  0  0  0  0
  189.7950  177.4140  144.4020 C   0  0  1  0  0  3  0  0  0  0  0  0
  185.9520  178.5640  146.1000 C   0  0  0  0  0  2  0  0  0  0  0  0
  189.3570  176.9770  145.6880 O   0  0  0  0  0  0  0  0  0  0  0  0
  190.7530  176.4000  143.7780 C   0  0  0  0  0  2  0  0  0  0  0  0
  186.4050  177.9730  141.7380 C   0  0  0  0  0  2  0  0  0  0  0  0
  187.7970  177.8490  141.1800 C   0  0  0  0  0  0  0  0  0  0  0  0
  185.0570  178.6830  143.7280 C   0  0  0  0  0  0  0  0  0  0  0  0
  188.1750  177.4560  146.2690 C   0  0  0  0  0  0  0  0  0  0  0  0
  191.1060  176.7890  142.3660 C   0  0  0  0  0  3  0  0  0  0  0  0
  182.9440  178.8570  144.2050 C   0  0  0  0  0  0  0  0  0  0  0  0
  183.8200  178.8400  143.1280 C   0  0  0  0  0  3  0  0  0  0  0  0
  186.4510  177.7080  137.5180 C   0  0  2  0  0  3  0  0  0  0  0  0
  189.8690  176.9130  136.4170 O   0  0  0  0  0  0  0  0  0  0  0  0
  185.3400  176.8880  137.4490 F   0  0  0  0  0  0  0  0  0  0  0  0
  189.2270  178.8350  137.6720 C   0  0  0  0  0  2  0  0  0  0  0  0
  187.9320  177.8810  139.6800 C   0  0  2  0  0  3  0  0  0  0  0  0
  187.6150  176.9920  136.9930 N   0  0  0  0  0  2  0  0  0  0  0  0
  189.1490  178.6860  139.1950 C   0  0  0  0  0  2  0  0  0  0  0  0
  186.6490  178.1810  138.9360 C   0  0  0  0  0  0  0  0  0  0  0  0
  185.7770  178.8600  139.4580 O   0  0  0  0  0  0  0  0  0  0  0  0
  188.9360  177.5430  136.9770 C   0  0  0  0  0  0  0  0  0  0  0  0
  187.9720  177.2840  147.7140 C   0  0  0  0  0  3  0  0  0  0  0  0
  188.6510  177.9790  148.5650 N   0  0  0  0  0  2  0  0  0  0  0  0
  1  4  1  0  0  0  0
  2  5  1  0  0  0  0
  3  1  1  0  0  0  0
  3 18  2  0  0  0  0
  4  2  2  0  0  0  0
  4 10  1  0  0  0  0
  5 11  1  0  0  0  0
  5 17  2  0  0  0  0
  6 19  1  0  0  0  0
  7 14  1  6  0  0  0
  7 16  1  0  0  0  0
  7  2  1  0  0  0  0
  9  8  1  0  0  0  0
  9 11  1  0  0  0  0
 10 13  1  6  0  0  0
 10 12  1  0  0  0  0
 12 17  1  0  0  0  0
 15 14  1  0  0  0  0
 15  1  2  0  0  0  0
 16  9  2  0  0  0  0
 17 31  1  0  0  0  0
 18 13  1  0  0  0  0
 19  8  1  0  0  0  0
 20 16  1  0  0  0  0
 20 19  2  0  0  0  0
 21 23  1  1  0  0  0
 21 28  1  0  0  0  0
 22 30  2  0  0  0  0
 24 27  1  0  0  0  0
 25 15  1  1  0  0  0
 26 21  1  0  0  0  0
 27 25  1  0  0  0  0
 28 29  2  0  0  0  0
 28 25  1  0  0  0  0
 30 26  1  0  0  0  0
 30 24  1  0  0  0  0
 31 32  2  0  0  0  0
M  END
>  <MODEL>
6

>  <REMARK>
 VINA RESULT:     -10.8      2.981      5.916
  Name = 
  2 active torsions:
  status: ('A' for Active; 'I' for Inactive)
    1  A    between atoms: C_13  and  C_29
    2  A    between atoms: C_16  and  C_27
                            x       y       z     vdW  Elec       q    Type
                         _______ _______ _______ _____ _____    ______ ____

>  <TORSDO>
F 2

$$$$
=
 OpenBabel11052414413D

 32 37  0  0  1  0  0  0  0  0999 V2000
  186.9160  178.0820  144.2490 C   0  0  0  0  0  0  0  0  0  0  0  0
  185.4180  178.6480  142.3730 C   0  0  0  0  0  0  0  0  0  0  0  0
  187.0540  178.0670  145.7210 C   0  0  0  0  0  3  0  0  0  0  0  0
  185.5910  178.4640  143.6930 C   0  0  0  0  0  0  0  0  0  0  0  0
  184.0470  178.9180  141.8320 C   0  0  0  0  0  0  0  0  0  0  0  0
  186.5430  177.7150  136.4960 C   0  0  0  0  0  1  0  0  0  0  0  0
  186.6340  178.6270  141.4630 C   0  0  1  0  0  3  0  0  0  0  0  0
  184.9670  178.4520  138.2500 O   0  0  0  0  0  0  0  0  0  0  0  0
  184.9880  178.6660  139.5410 C   0  0  0  0  0  0  0  0  0  0  0  0
  184.4750  178.8050  144.6470 C   0  0  1  0  0  3  0  0  0  0  0  0
  183.8480  179.1840  140.3540 C   0  0  0  0  0  2  0  0  0  0  0  0
  183.2000  178.6210  144.0350 O   0  0  0  0  0  0  0  0  0  0  0  0
  184.5840  177.9890  145.9350 C   0  0  0  0  0  2  0  0  0  0  0  0
  187.6610  177.6000  141.9450 C   0  0  0  0  0  2  0  0  0  0  0  0
  187.9290  177.7450  143.4180 C   0  0  0  0  0  0  0  0  0  0  0  0
  186.2370  178.3890  140.0390 C   0  0  0  0  0  0  0  0  0  0  0  0
  182.9930  178.8690  142.6700 C   0  0  0  0  0  0  0  0  0  0  0  0
  185.9750  178.0690  146.5100 C   0  0  0  0  0  3  0  0  0  0  0  0
  186.1700  178.0550  137.8940 C   0  0  0  0  0  0  0  0  0  0  0  0
  187.0370  178.0070  138.9760 C   0  0  0  0  0  3  0  0  0  0  0  0
  191.2090  175.6280  143.4970 C   0  0  2  0  0  3  0  0  0  0  0  0
  191.9590  177.1280  146.7700 O   0  0  0  0  0  0  0  0  0  0  0  0
  190.9250  174.3000  143.2320 F   0  0  0  0  0  0  0  0  0  0  0  0
  191.5640  178.3300  144.7500 C   0  0  0  0  0  2  0  0  0  0  0  0
  189.3200  177.4100  143.8910 C   0  0  2  0  0  3  0  0  0  0  0  0
  191.4240  175.7990  144.9350 N   0  0  0  0  0  2  0  0  0  0  0  0
  190.1060  178.6350  144.3870 C   0  0  0  0  0  2  0  0  0  0  0  0
  190.1000  176.5010  142.9660 C   0  0  0  0  0  0  0  0  0  0  0  0
  189.8770  176.5050  141.7650 O   0  0  0  0  0  0  0  0  0  0  0  0
  191.6810  177.0690  145.5450 C   0  0  0  0  0  0  0  0  0  0  0  0
  181.6180  179.0410  142.1800 C   0  0  0  0  0  3  0  0  0  0  0  0
  180.7260  179.6320  142.9040 N   0  0  0  0  0  2  0  0  0  0  0  0
  1  3  1  0  0  0  0
  2  4  2  0  0  0  0
  3 18  2  0  0  0  0
  4  1  1  0  0  0  0
  4 10  1  0  0  0  0
  5  2  1  0  0  0  0
  5 17  2  0  0  0  0
  6 19  1  0  0  0  0
  7 14  1  1  0  0  0
  7  2  1  0  0  0  0
  8  9  1  0  0  0  0
  9 16  2  0  0  0  0
  9 11  1  0  0  0  0
 10 13  1  1  0  0  0
 11  5  1  0  0  0  0
 12 10  1  0  0  0  0
 13 18  1  0  0  0  0
 14 15  1  0  0  0  0
 15  1  2  0  0  0  0
 16  7  1  0  0  0  0
 17 12  1  0  0  0  0
 19  8  1  0  0  0  0
 19 20  2  0  0  0  0
 20 16  1  0  0  0  0
 21 23  1  1  0  0  0
 21 26  1  0  0  0  0
 24 30  1  0  0  0  0
 25 15  1  6  0  0  0
 25 27  1  0  0  0  0
 26 30  1  0  0  0  0
 27 24  1  0  0  0  0
 28 21  1  0  0  0  0
 28 25  1  0  0  0  0
 29 28  2  0  0  0  0
 30 22  2  0  0  0  0
 31 17  1  0  0  0  0
 31 32  2  0  0  0  0
M  END
>  <MODEL>
7

>  <REMARK>
 VINA RESULT:     -10.6      2.666      7.052
  Name = 
  2 active torsions:
  status: ('A' for Active; 'I' for Inactive)
    1  A    between atoms: C_13  and  C_29
    2  A    between atoms: C_16  and  C_27
                            x       y       z     vdW  Elec       q    Type
                         _______ _______ _______ _____ _____    ______ ____

>  <TORSDO>
F 2

$$$$
=
 OpenBabel11052414413D

 32 37  0  0  1  0  0  0  0  0999 V2000
  187.1570  177.8890  140.4220 C   0  0  0  0  0  0  0  0  0  0  0  0
  187.0250  177.6790  142.8760 C   0  0  0  0  0  0  0  0  0  0  0  0
  186.3830  178.1480  139.1890 C   0  0  0  0  0  3  0  0  0  0  0  0
  186.4450  178.0370  141.7180 C   0  0  0  0  0  0  0  0  0  0  0  0
  186.3280  177.9490  144.1740 C   0  0  0  0  0  0  0  0  0  0  0  0
  191.6810  176.7530  146.6380 C   0  0  0  0  0  1  0  0  0  0  0  0
  188.3620  176.9590  142.8350 C   0  0  1  0  0  3  0  0  0  0  0  0
  189.2670  177.1890  146.3360 O   0  0  0  0  0  0  0  0  0  0  0  0
  188.4150  177.2640  145.3470 C   0  0  0  0  0  0  0  0  0  0  0  0
  184.9930  178.4440  141.7050 C   0  0  1  0  0  3  0  0  0  0  0  0
  186.9450  177.4980  145.4820 C   0  0  0  0  0  2  0  0  0  0  0  0
  184.6160  179.0490  142.9410 O   0  0  0  0  0  0  0  0  0  0  0  0
  184.6910  179.3720  140.5300 C   0  0  0  0  0  2  0  0  0  0  0  0
  189.2350  177.4900  141.6950 C   0  0  0  0  0  2  0  0  0  0  0  0
  188.4670  177.5520  140.4020 C   0  0  0  0  0  0  0  0  0  0  0  0
  189.0610  177.0470  144.1560 C   0  0  0  0  0  0  0  0  0  0  0  0
  185.1710  178.6410  144.1630 C   0  0  0  0  0  0  0  0  0  0  0  0
  185.2150  178.7980  139.2390 C   0  0  0  0  0  3  0  0  0  0  0  0
  190.4480  176.9180  145.8230 C   0  0  0  0  0  0  0  0  0  0  0  0
  190.3920  176.7960  144.4420 C   0  0  0  0  0  3  0  0  0  0  0  0
  189.4140  178.2070  136.6720 C   0  0  2  0  0  3  0  0  0  0  0  0
  190.9600  174.8710  136.6010 O   0  0  0  0  0  0  0  0  0  0  0  0
  188.3030  178.6280  135.9640 F   0  0  0  0  0  0  0  0  0  0  0  0
  191.5090  176.6230  138.1210 C   0  0  0  0  0  2  0  0  0  0  0  0
  189.2500  177.3160  139.1360 C   0  0  2  0  0  3  0  0  0  0  0  0
  189.6770  176.8000  136.3690 N   0  0  0  0  0  2  0  0  0  0  0  0
  190.6560  176.7480  139.3880 C   0  0  0  0  0  2  0  0  0  0  0  0
  189.2060  178.4570  138.1450 C   0  0  0  0  0  0  0  0  0  0  0  0
  189.0560  179.6060  138.5310 O   0  0  0  0  0  0  0  0  0  0  0  0
  190.7270  176.0450  136.9850 C   0  0  0  0  0  0  0  0  0  0  0  0
  184.4870  179.0080  145.4110 C   0  0  0  0  0  3  0  0  0  0  0  0
  183.1980  179.0030  145.4860 N   0  0  0  0  0  2  0  0  0  0  0  0
  1  4  1  0  0  0  0
  2  5  1  0  0  0  0
  3 18  2  0  0  0  0
  3  1  1  0  0  0  0
  4  2  2  0  0  0  0
  5 11  1  0  0  0  0
  7 14  1  6  0  0  0
  7  2  1  0  0  0  0
  7 16  1  0  0  0  0
  9 11  1  0  0  0  0
  9  8  1  0  0  0  0
 10 13  1  6  0  0  0
 10  4  1  0  0  0  0
 10 12  1  0  0  0  0
 12 17  1  0  0  0  0
 15  1  2  0  0  0  0
 15 14  1  0  0  0  0
 16 20  1  0  0  0  0
 16  9  2  0  0  0  0
 17  5  2  0  0  0  0
 17 31  1  0  0  0  0
 18 13  1  0  0  0  0
 19  8  1  0  0  0  0
 19  6  1  0  0  0  0
 20 19  2  0  0  0  0
 21 23  1  6  0  0  0
 21 28  1  0  0  0  0
 22 30  2  0  0  0  0
 24 27  1  0  0  0  0
 25 27  1  0  0  0  0
 25 15  1  1  0  0  0
 26 21  1  0  0  0  0
 26 30  1  0  0  0  0
 28 29  2  0  0  0  0
 28 25  1  0  0  0  0
 30 24  1  0  0  0  0
 31 32  2  0  0  0  0
M  END
>  <MODEL>
8

>  <REMARK>
 VINA RESULT:     -10.6      3.332      6.552
  Name = 
  2 active torsions:
  status: ('A' for Active; 'I' for Inactive)
    1  A    between atoms: C_13  and  C_29
    2  A    between atoms: C_16  and  C_27
                            x       y       z     vdW  Elec       q    Type
                         _______ _______ _______ _____ _____    ______ ____

>  <TORSDO>
F 2

$$$$
=
 OpenBabel11052414413D

 32 37  0  0  1  0  0  0  0  0999 V2000
  185.3840  178.5260  140.7560 C   0  0  0  0  0  0  0  0  0  0  0  0
  187.4910  178.2730  142.0130 C   0  0  0  0  0  0  0  0  0  0  0  0
  184.7960  178.7680  139.4210 C   0  0  0  0  0  3  0  0  0  0  0  0
  186.8570  178.3490  140.8300 C   0  0  0  0  0  0  0  0  0  0  0  0
  188.9580  177.9780  142.0550 C   0  0  0  0  0  0  0  0  0  0  0  0
  188.0010  176.9610  147.9030 C   0  0  0  0  0  1  0  0  0  0  0  0
  186.7040  178.5420  143.2840 C   0  0  1  0  0  3  0  0  0  0  0  0
  189.1030  177.3540  145.7270 O   0  0  0  0  0  0  0  0  0  0  0  0
  188.7590  177.7420  144.5260 C   0  0  0  0  0  0  0  0  0  0  0  0
  187.6610  178.4180  139.5560 C   0  0  1  0  0  3  0  0  0  0  0  0
  189.6940  177.9480  143.3790 C   0  0  0  0  0  2  0  0  0  0  0  0
  188.9000  177.7240  139.6900 O   0  0  0  0  0  0  0  0  0  0  0  0
  186.8610  177.8790  138.3700 C   0  0  0  0  0  2  0  0  0  0  0  0
  185.2750  178.0080  143.1670 C   0  0  0  0  0  2  0  0  0  0  0  0
  184.6320  178.4430  141.8780 C   0  0  0  0  0  0  0  0  0  0  0  0
  187.4090  177.9840  144.4810 C   0  0  0  0  0  0  0  0  0  0  0  0
  189.6000  177.6900  140.9050 C   0  0  0  0  0  0  0  0  0  0  0  0
  185.4940  178.5110  138.3090 C   0  0  0  0  0  3  0  0  0  0  0  0
  188.0160  177.3470  146.4680 C   0  0  0  0  0  0  0  0  0  0  0  0
  186.9010  177.7530  145.7480 C   0  0  0  0  0  3  0  0  0  0  0  0
  181.0150  178.2920  140.4170 C   0  0  2  0  0  3  0  0  0  0  0  0
  180.0690  180.9280  142.8000 O   0  0  0  0  0  0  0  0  0  0  0  0
  181.0540  178.3880  139.0370 F   0  0  0  0  0  0  0  0  0  0  0  0
  181.0330  178.8240  143.3690 C   0  0  0  0  0  2  0  0  0  0  0  0
  183.1440  178.6750  141.9060 C   0  0  2  0  0  3  0  0  0  0  0  0
  180.6070  179.5800  140.9800 N   0  0  0  0  0  2  0  0  0  0  0  0
  182.5610  178.7170  143.3280 C   0  0  0  0  0  2  0  0  0  0  0  0
  182.3540  177.8280  140.9330 C   0  0  0  0  0  0  0  0  0  0  0  0
  182.7660  176.7290  140.5950 O   0  0  0  0  0  0  0  0  0  0  0  0
  180.5260  179.8320  142.3870 C   0  0  0  0  0  0  0  0  0  0  0  0
  191.0200  177.3090  140.8960 C   0  0  0  0  0  3  0  0  0  0  0  0
  191.6510  177.1340  139.7840 N   0  0  0  0  0  2  0  0  0  0  0  0
  1  4  1  0  0  0  0
  1 15  2  0  0  0  0
  2  5  1  0  0  0  0
  2  7  1  0  0  0  0
  3  1  1  0  0  0  0
  4  2  2  0  0  0  0
  5 11  1  0  0  0  0
  7 14  1  6  0  0  0
  7 16  1  0  0  0  0
  8 19  1  0  0  0  0
  9  8  1  0  0  0  0
 10 13  1  6  0  0  0
 10 12  1  0  0  0  0
 10  4  1  0  0  0  0
 11  9  1  0  0  0  0
 12 17  1  0  0  0  0
 15 14  1  0  0  0  0
 16  9  2  0  0  0  0
 16 20  1  0  0  0  0
 17  5  2  0  0  0  0
 18 13  1  0  0  0  0
 18  3  2  0  0  0  0
 19  6  1  0  0  0  0
 20 19  2  0  0  0  0
 21 23  1  6  0  0  0
 21 28  1  0  0  0  0
 21 26  1  0  0  0  0
 25 15  1  1  0  0  0
 25 27  1  0  0  0  0
 26 30  1  0  0  0  0
 27 24  1  0  0  0  0
 28 25  1  0  0  0  0
 29 28  2  0  0  0  0
 30 22  2  0  0  0  0
 30 24  1  0  0  0  0
 31 17  1  0  0  0  0
 32 31  2  0  0  0  0
M  END
>  <MODEL>
9

>  <REMARK>
 VINA RESULT:     -10.5      2.482      5.242
  Name = 
  2 active torsions:
  status: ('A' for Active; 'I' for Inactive)
    1  A    between atoms: C_13  and  C_29
    2  A    between atoms: C_16  and  C_27
                            x       y       z     vdW  Elec       q    Type
                         _______ _______ _______ _____ _____    ______ ____

>  <TORSDO>
F 2

$$$$
