=
 OpenBabel11052413063D

 31 34  0  0  1  0  0  0  0  0999 V2000
  193.0270  176.7840  138.1220 C   0  0  0  0  0  0  0  0  0  0  0  0
  189.2980  176.8140  138.8240 C   0  0  0  0  0  0  0  0  0  0  0  0
  190.7710  176.9150  138.9770 C   0  0  0  0  0  0  0  0  0  0  0  0
  193.5090  177.0920  139.3560 N   0  0  0  0  0  0  0  0  0  0  0  0
  189.0330  177.9560  140.9570 C   0  0  1  0  0  3  0  0  0  0  0  0
  193.9270  176.5590  137.0450 N   0  0  0  0  0  1  0  0  0  0  0  0
  190.3780  177.3810  141.4140 C   0  0  0  0  0  2  0  0  0  0  0  0
  188.5260  177.2480  139.7800 N   0  0  0  0  0  0  0  0  0  0  0  0
  191.6500  176.6840  137.9120 C   0  0  0  0  0  3  0  0  0  0  0  0
  191.2950  177.2330  140.2400 C   0  0  0  0  0  0  0  0  0  0  0  0
  192.6790  177.3080  140.4130 C   0  0  0  0  0  3  0  0  0  0  0  0
  188.6840  176.1820  137.6360 C   0  0  0  0  0  0  0  0  0  0  0  0
  188.7560  174.3340  135.9090 C   0  0  0  0  0  2  0  0  0  0  0  0
  189.0710  174.7520  137.3400 C   0  0  0  0  0  2  0  0  0  0  0  0
  187.3130  174.6910  135.6010 C   0  0  0  0  0  2  0  0  0  0  0  0
  187.1550  176.2050  135.6530 C   0  0  0  0  0  2  0  0  0  0  0  0
  187.7360  176.8180  136.9030 C   0  0  0  0  0  0  0  0  0  0  0  0
  187.2790  178.2060  137.2420 C   0  0  0  0  0  2  0  0  0  0  0  0
  185.7100  178.8930  138.9130 O   0  0  0  0  0  1  0  0  0  0  0  0
  185.8280  178.2150  137.6990 C   0  0  0  0  0  2  0  0  0  0  0  0
  188.0070  177.8900  142.0770 C   0  0  0  0  0  2  0  0  0  0  0  0
  188.7030  175.7050  142.6590 O   0  0  0  0  0  0  0  0  0  0  0  0
  188.3840  176.8470  143.0820 C   0  0  0  0  0  0  0  0  0  0  0  0
  188.2880  177.7690  147.2870 C   0  0  0  0  0  0  0  0  0  0  0  0
  187.1760  177.4640  145.1650 C   0  0  0  0  0  3  0  0  0  0  0  0
  190.9290  176.8700  144.7580 C   0  0  0  0  0  1  0  0  0  0  0  0
  188.2300  178.0900  148.7370 C   0  0  0  0  0  1  0  0  0  0  0  0
  187.1200  177.7650  146.5270 C   0  0  0  0  0  3  0  0  0  0  0  0
  189.5800  177.1680  145.3220 C   0  0  0  0  0  0  0  0  0  0  0  0
  188.3970  177.1600  144.5370 C   0  0  0  0  0  0  0  0  0  0  0  0
  189.5110  177.4720  146.6860 C   0  0  0  0  0  3  0  0  0  0  0  0
  1  4  1  0  0  0  0
  2  3  1  0  0  0  0
  2  8  2  0  0  0  0
  3 10  2  0  0  0  0
  4 11  2  0  0  0  0
  5  7  1  0  0  0  0
  5 21  1  1  0  0  0
  6  1  1  0  0  0  0
  8  5  1  0  0  0  0
  9  1  2  0  0  0  0
  9  3  1  0  0  0  0
 10 11  1  0  0  0  0
 10  7  1  0  0  0  0
 12  2  1  0  0  0  0
 13 14  1  0  0  0  0
 14 12  1  0  0  0  0
 15 16  1  0  0  0  0
 15 13  1  0  0  0  0
 16 17  1  0  0  0  0
 17 18  1  0  0  0  0
 17 12  2  0  0  0  0
 18 20  1  0  0  0  0
 20 19  1  0  0  0  0
 21 23  1  0  0  0  0
 22 23  2  0  0  0  0
 23 30  1  0  0  0  0
 24 27  1  0  0  0  0
 25 28  1  0  0  0  0
 26 29  1  0  0  0  0
 28 24  2  0  0  0  0
 29 31  2  0  0  0  0
 30 25  2  0  0  0  0
 30 29  1  0  0  0  0
 31 24  1  0  0  0  0
M  END
>  <MODEL>
1

>  <REMARK>
 VINA RESULT:      -9.3      0.000      0.000
  Name = 
  6 active torsions:
  status: ('A' for Active; 'I' for Inactive)
    1  A    between atoms: C_4  and  C_5
    2  A    between atoms: C_9  and  C_22
    3  A    between atoms: C_9  and  C_23
    4  A    between atoms: C_15  and  C_23
    5  A    between atoms: C_29  and  C_31
    6  A    between atoms: C_30  and  C_31
                            x       y       z     vdW  Elec       q    Type
                         _______ _______ _______ _____ _____    ______ ____

>  <TORSDO>
F 6

$$$$
=
 OpenBabel11052413063D

 31 34  0  0  1  0  0  0  0  0999 V2000
  188.1420  177.7260  136.0120 C   0  0  0  0  0  0  0  0  0  0  0  0
  190.7990  176.3620  138.3540 C   0  0  0  0  0  0  0  0  0  0  0  0
  189.6170  177.0810  137.8130 C   0  0  0  0  0  0  0  0  0  0  0  0
  187.4170  178.4800  136.8810 N   0  0  0  0  0  0  0  0  0  0  0  0
  189.9600  176.7490  140.6060 C   0  0  1  0  0  3  0  0  0  0  0  0
  187.7660  177.6610  134.6420 N   0  0  0  0  0  1  0  0  0  0  0  0
  189.2770  178.0290  140.1150 C   0  0  0  0  0  2  0  0  0  0  0  0
  190.9590  176.2780  139.6440 N   0  0  0  0  0  0  0  0  0  0  0  0
  189.2590  177.0170  136.4610 C   0  0  0  0  0  3  0  0  0  0  0  0
  188.8500  177.8650  138.6890 C   0  0  0  0  0  0  0  0  0  0  0  0
  187.7500  178.5710  138.1970 C   0  0  0  0  0  3  0  0  0  0  0  0
  191.8290  175.7840  137.4620 C   0  0  0  0  0  0  0  0  0  0  0  0
  193.9070  176.1470  136.0660 C   0  0  0  0  0  2  0  0  0  0  0  0
  193.1110  176.5660  137.2950 C   0  0  0  0  0  2  0  0  0  0  0  0
  194.0660  174.6380  136.0760 C   0  0  0  0  0  2  0  0  0  0  0  0
  192.6920  173.9930  135.9400 C   0  0  0  0  0  2  0  0  0  0  0  0
  191.6760  174.5590  136.9010 C   0  0  0  0  0  0  0  0  0  0  0  0
  190.4440  173.7350  137.1330 C   0  0  0  0  0  2  0  0  0  0  0  0
  188.4030  173.4830  135.9100 O   0  0  0  0  0  1  0  0  0  0  0  0
  189.7880  173.3360  135.8190 C   0  0  0  0  0  2  0  0  0  0  0  0
  190.6160  176.9690  141.9590 C   0  0  0  0  0  2  0  0  0  0  0  0
  190.3080  174.9020  143.0680 O   0  0  0  0  0  0  0  0  0  0  0  0
  189.9740  176.1150  143.0070 C   0  0  0  0  0  0  0  0  0  0  0  0
  187.0100  177.7560  145.6650 C   0  0  0  0  0  0  0  0  0  0  0  0
  187.6410  176.7820  143.5470 C   0  0  0  0  0  3  0  0  0  0  0  0
  190.7180  177.1050  145.7910 C   0  0  0  0  0  1  0  0  0  0  0  0
  185.9710  178.3180  146.5650 C   0  0  0  0  0  1  0  0  0  0  0  0
  186.6630  177.3100  144.3920 C   0  0  0  0  0  3  0  0  0  0  0  0
  189.3250  177.1470  145.2570 C   0  0  0  0  0  0  0  0  0  0  0  0
  188.9830  176.6880  143.9580 C   0  0  0  0  0  0  0  0  0  0  0  0
  188.3350  177.6750  146.0940 C   0  0  0  0  0  3  0  0  0  0  0  0
  1  9  2  0  0  0  0
  1  4  1  0  0  0  0
  2  8  2  0  0  0  0
  3  2  1  0  0  0  0
  3 10  2  0  0  0  0
  4 11  2  0  0  0  0
  5 21  1  1  0  0  0
  6  1  1  0  0  0  0
  7  5  1  0  0  0  0
  8  5  1  0  0  0  0
  9  3  1  0  0  0  0
 10  7  1  0  0  0  0
 11 10  1  0  0  0  0
 12  2  1  0  0  0  0
 13 15  1  0  0  0  0
 13 14  1  0  0  0  0
 14 12  1  0  0  0  0
 16 15  1  0  0  0  0
 16 17  1  0  0  0  0
 17 18  1  0  0  0  0
 17 12  2  0  0  0  0
 20 19  1  0  0  0  0
 20 18  1  0  0  0  0
 21 23  1  0  0  0  0
 23 22  2  0  0  0  0
 23 30  1  0  0  0  0
 24 31  1  0  0  0  0
 24 27  1  0  0  0  0
 25 30  2  0  0  0  0
 25 28  1  0  0  0  0
 28 24  2  0  0  0  0
 29 26  1  0  0  0  0
 29 31  2  0  0  0  0
 30 29  1  0  0  0  0
M  END
>  <MODEL>
2

>  <REMARK>
 VINA RESULT:      -9.2      2.239      4.038
  Name = 
  6 active torsions:
  status: ('A' for Active; 'I' for Inactive)
    1  A    between atoms: C_4  and  C_5
    2  A    between atoms: C_9  and  C_22
    3  A    between atoms: C_9  and  C_23
    4  A    between atoms: C_15  and  C_23
    5  A    between atoms: C_29  and  C_31
    6  A    between atoms: C_30  and  C_31
                            x       y       z     vdW  Elec       q    Type
                         _______ _______ _______ _____ _____    ______ ____

>  <TORSDO>
F 6

$$$$
=
 OpenBabel11052413063D

 31 34  0  0  1  0  0  0  0  0999 V2000
  180.3820  178.6310  143.1640 C   0  0  0  0  0  0  0  0  0  0  0  0
  183.3110  178.5510  140.7530 C   0  0  0  0  0  0  0  0  0  0  0  0
  182.4920  178.6450  141.9880 C   0  0  0  0  0  0  0  0  0  0  0  0
  181.0370  178.8680  144.3330 N   0  0  0  0  0  0  0  0  0  0  0  0
  185.3010  178.3050  142.1340 C   0  0  1  0  0  3  0  0  0  0  0  0
  178.9660  178.4990  143.1580 N   0  0  0  0  0  1  0  0  0  0  0  0
  184.6200  179.1270  143.2340 C   0  0  0  0  0  2  0  0  0  0  0  0
  184.6070  178.4550  140.8530 N   0  0  0  0  0  0  0  0  0  0  0  0
  181.0980  178.5210  141.9700 C   0  0  0  0  0  3  0  0  0  0  0  0
  183.1430  178.8880  143.2080 C   0  0  0  0  0  0  0  0  0  0  0  0
  182.3890  179.0070  144.3780 C   0  0  0  0  0  3  0  0  0  0  0  0
  182.6970  178.6180  139.4090 C   0  0  0  0  0  0  0  0  0  0  0  0
  181.5760  180.0220  137.6280 C   0  0  0  0  0  2  0  0  0  0  0  0
  182.5810  179.9830  138.7720 C   0  0  0  0  0  2  0  0  0  0  0  0
  181.8790  178.8850  136.6700 C   0  0  0  0  0  2  0  0  0  0  0  0
  181.6610  177.5600  137.3890 C   0  0  0  0  0  2  0  0  0  0  0  0
  182.3480  177.4950  138.7310 C   0  0  0  0  0  0  0  0  0  0  0  0
  182.5410  176.1290  139.3190 C   0  0  0  0  0  2  0  0  0  0  0  0
  180.3640  175.6240  140.1730 O   0  0  0  0  0  1  0  0  0  0  0  0
  181.2840  175.2830  139.1810 C   0  0  0  0  0  2  0  0  0  0  0  0
  186.7580  178.7100  141.9780 C   0  0  0  0  0  2  0  0  0  0  0  0
  188.2200  176.8540  141.8640 O   0  0  0  0  0  0  0  0  0  0  0  0
  187.6610  177.7000  142.6120 C   0  0  0  0  0  0  0  0  0  0  0  0
  188.2320  177.6990  146.8800 C   0  0  0  0  0  0  0  0  0  0  0  0
  186.8130  177.4840  144.9380 C   0  0  0  0  0  3  0  0  0  0  0  0
  190.4050  178.1910  143.8430 C   0  0  0  0  0  1  0  0  0  0  0  0
  188.4060  177.6940  148.3550 C   0  0  0  0  0  1  0  0  0  0  0  0
  186.9740  177.4780  146.3240 C   0  0  0  0  0  3  0  0  0  0  0  0
  189.1810  177.9330  144.6570 C   0  0  0  0  0  0  0  0  0  0  0  0
  187.9050  177.7080  144.0800 C   0  0  0  0  0  0  0  0  0  0  0  0
  189.3300  177.9250  146.0490 C   0  0  0  0  0  3  0  0  0  0  0  0
  1  4  1  0  0  0  0
  2  8  2  0  0  0  0
  2  3  1  0  0  0  0
  3 10  2  0  0  0  0
  4 11  2  0  0  0  0
  5 21  1  6  0  0  0
  5  7  1  0  0  0  0
  6  1  1  0  0  0  0
  8  5  1  0  0  0  0
  9  3  1  0  0  0  0
  9  1  2  0  0  0  0
 10  7  1  0  0  0  0
 10 11  1  0  0  0  0
 12  2  1  0  0  0  0
 13 14  1  0  0  0  0
 14 12  1  0  0  0  0
 15 16  1  0  0  0  0
 15 13  1  0  0  0  0
 16 17  1  0  0  0  0
 17 18  1  0  0  0  0
 17 12  2  0  0  0  0
 20 18  1  0  0  0  0
 20 19  1  0  0  0  0
 21 23  1  0  0  0  0
 22 23  2  0  0  0  0
 23 30  1  0  0  0  0
 24 27  1  0  0  0  0
 25 28  2  0  0  0  0
 26 29  1  0  0  0  0
 28 24  1  0  0  0  0
 29 31  1  0  0  0  0
 30 29  2  0  0  0  0
 30 25  1  0  0  0  0
 31 24  2  0  0  0  0
M  END
>  <MODEL>
3

>  <REMARK>
 VINA RESULT:      -9.1      4.616      7.189
  Name = 
  6 active torsions:
  status: ('A' for Active; 'I' for Inactive)
    1  A    between atoms: C_4  and  C_5
    2  A    between atoms: C_9  and  C_22
    3  A    between atoms: C_9  and  C_23
    4  A    between atoms: C_15  and  C_23
    5  A    between atoms: C_29  and  C_31
    6  A    between atoms: C_30  and  C_31
                            x       y       z     vdW  Elec       q    Type
                         _______ _______ _______ _____ _____    ______ ____

>  <TORSDO>
F 6

$$$$
=
 OpenBabel11052413063D

 31 34  0  0  1  0  0  0  0  0999 V2000
  186.2560  178.6690  146.6420 C   0  0  0  0  0  0  0  0  0  0  0  0
  186.5600  177.9120  142.9360 C   0  0  0  0  0  0  0  0  0  0  0  0
  186.0170  178.2610  144.2730 C   0  0  0  0  0  0  0  0  0  0  0  0
  184.9160  178.8840  146.7360 N   0  0  0  0  0  0  0  0  0  0  0  0
  184.4790  178.6750  141.9300 C   0  0  1  0  0  3  0  0  0  0  0  0
  187.0740  178.7680  147.8010 N   0  0  0  0  0  1  0  0  0  0  0  0
  183.7370  178.3000  143.2170 C   0  0  0  0  0  2  0  0  0  0  0  0
  185.8060  178.0580  141.8830 N   0  0  0  0  0  0  0  0  0  0  0  0
  186.8290  178.3480  145.4100 C   0  0  0  0  0  3  0  0  0  0  0  0
  184.6370  178.4900  144.3980 C   0  0  0  0  0  0  0  0  0  0  0  0
  184.1000  178.7930  145.6510 C   0  0  0  0  0  3  0  0  0  0  0  0
  187.9200  177.3500  142.7750 C   0  0  0  0  0  0  0  0  0  0  0  0
  189.8930  176.1690  143.8290 C   0  0  0  0  0  2  0  0  0  0  0  0
  188.3810  176.3560  143.8150 C   0  0  0  0  0  2  0  0  0  0  0  0
  190.3650  175.8920  142.4130 C   0  0  0  0  0  2  0  0  0  0  0  0
  190.0910  177.1160  141.5500 C   0  0  0  0  0  2  0  0  0  0  0  0
  188.6800  177.6330  141.6880 C   0  0  0  0  0  0  0  0  0  0  0  0
  188.1950  178.5500  140.6040 C   0  0  0  0  0  2  0  0  0  0  0  0
  188.9490  179.3540  138.4800 O   0  0  0  0  0  1  0  0  0  0  0  0
  188.8250  178.2050  139.2630 C   0  0  0  0  0  2  0  0  0  0  0  0
  183.6800  178.2640  140.7040 C   0  0  0  0  0  2  0  0  0  0  0  0
  184.5120  180.1470  139.5390 O   0  0  0  0  0  0  0  0  0  0  0  0
  184.2170  178.9250  139.4730 C   0  0  0  0  0  0  0  0  0  0  0  0
  184.9120  176.6840  135.8620 C   0  0  0  0  0  0  0  0  0  0  0  0
  185.7110  177.7310  137.8860 C   0  0  0  0  0  3  0  0  0  0  0  0
  181.9350  178.2280  137.5770 C   0  0  0  0  0  1  0  0  0  0  0  0
  185.1750  175.9110  134.6210 C   0  0  0  0  0  1  0  0  0  0  0  0
  185.9610  177.0030  136.7210 C   0  0  0  0  0  3  0  0  0  0  0  0
  183.3510  177.8230  137.3320 C   0  0  0  0  0  0  0  0  0  0  0  0
  184.4110  178.1530  138.2150 C   0  0  0  0  0  0  0  0  0  0  0  0
  183.6130  177.0930  136.1670 C   0  0  0  0  0  3  0  0  0  0  0  0
  1  4  1  0  0  0  0
  1  6  1  0  0  0  0
  2  3  1  0  0  0  0
  3 10  2  0  0  0  0
  3  9  1  0  0  0  0
  5 21  1  6  0  0  0
  5  7  1  0  0  0  0
  7 10  1  0  0  0  0
  8  5  1  0  0  0  0
  8  2  2  0  0  0  0
  9  1  2  0  0  0  0
 10 11  1  0  0  0  0
 11  4  2  0  0  0  0
 12  2  1  0  0  0  0
 12 14  1  0  0  0  0
 14 13  1  0  0  0  0
 15 13  1  0  0  0  0
 16 17  1  0  0  0  0
 16 15  1  0  0  0  0
 17 12  2  0  0  0  0
 18 17  1  0  0  0  0
 19 20  1  0  0  0  0
 20 18  1  0  0  0  0
 23 22  2  0  0  0  0
 23 21  1  0  0  0  0
 24 31  2  0  0  0  0
 24 28  1  0  0  0  0
 25 30  1  0  0  0  0
 27 24  1  0  0  0  0
 28 25  2  0  0  0  0
 29 26  1  0  0  0  0
 29 30  2  0  0  0  0
 30 23  1  0  0  0  0
 31 29  1  0  0  0  0
M  END
>  <MODEL>
4

>  <REMARK>
 VINA RESULT:      -9.0      3.342      8.393
  Name = 
  6 active torsions:
  status: ('A' for Active; 'I' for Inactive)
    1  A    between atoms: C_4  and  C_5
    2  A    between atoms: C_9  and  C_22
    3  A    between atoms: C_9  and  C_23
    4  A    between atoms: C_15  and  C_23
    5  A    between atoms: C_29  and  C_31
    6  A    between atoms: C_30  and  C_31
                            x       y       z     vdW  Elec       q    Type
                         _______ _______ _______ _____ _____    ______ ____

>  <TORSDO>
F 6

$$$$
=
 OpenBabel11052413063D

 31 34  0  0  1  0  0  0  0  0999 V2000
  188.4880  177.2470  147.1650 C   0  0  0  0  0  0  0  0  0  0  0  0
  187.2040  178.0370  143.6820 C   0  0  0  0  0  0  0  0  0  0  0  0
  188.0950  177.7500  144.8350 C   0  0  0  0  0  0  0  0  0  0  0  0
  189.8290  177.2590  146.9370 N   0  0  0  0  0  0  0  0  0  0  0  0
  189.0820  177.6620  142.1810 C   0  0  1  0  0  3  0  0  0  0  0  0
  187.9920  176.9820  148.4710 N   0  0  0  0  0  1  0  0  0  0  0  0
  190.0380  178.1240  143.2860 C   0  0  0  0  0  2  0  0  0  0  0  0
  187.7010  178.0480  142.4780 N   0  0  0  0  0  0  0  0  0  0  0  0
  187.5970  177.4980  146.1190 C   0  0  0  0  0  3  0  0  0  0  0  0
  189.4840  177.7550  144.6270 C   0  0  0  0  0  0  0  0  0  0  0  0
  190.3410  177.5140  145.7020 C   0  0  0  0  0  3  0  0  0  0  0  0
  185.7730  178.3650  143.8720 C   0  0  0  0  0  0  0  0  0  0  0  0
  183.8240  178.6280  145.4630 C   0  0  0  0  0  2  0  0  0  0  0  0
  185.3310  178.7340  145.2690 C   0  0  0  0  0  2  0  0  0  0  0  0
  183.1320  179.3840  144.3440 C   0  0  0  0  0  2  0  0  0  0  0  0
  183.4440  178.7030  143.0180 C   0  0  0  0  0  2  0  0  0  0  0  0
  184.9150  178.4340  142.8230 C   0  0  0  0  0  0  0  0  0  0  0  0
  185.3650  178.1560  141.4190 C   0  0  0  0  0  2  0  0  0  0  0  0
  184.7110  179.7530  139.7610 O   0  0  0  0  0  1  0  0  0  0  0  0
  184.3120  178.5810  140.4060 C   0  0  0  0  0  2  0  0  0  0  0  0
  189.4950  178.2340  140.8340 C   0  0  0  0  0  2  0  0  0  0  0  0
  190.1800  176.0970  140.0840 O   0  0  0  0  0  0  0  0  0  0  0  0
  189.5620  177.1570  139.7970 C   0  0  0  0  0  0  0  0  0  0  0  0
  187.5370  177.6900  136.0340 C   0  0  0  0  0  0  0  0  0  0  0  0
  187.5570  177.7380  138.4490 C   0  0  0  0  0  3  0  0  0  0  0  0
  190.9820  176.6520  137.1490 C   0  0  0  0  0  1  0  0  0  0  0  0
  186.8180  177.8800  134.7480 C   0  0  0  0  0  1  0  0  0  0  0  0
  186.8800  177.9180  137.2410 C   0  0  0  0  0  3  0  0  0  0  0  0
  189.5600  177.0980  137.2390 C   0  0  0  0  0  0  0  0  0  0  0  0
  188.9010  177.3280  138.4740 C   0  0  0  0  0  0  0  0  0  0  0  0
  188.8710  177.2810  136.0350 C   0  0  0  0  0  3  0  0  0  0  0  0
  1  6  1  0  0  0  0
  2 12  1  0  0  0  0
  2  3  1  0  0  0  0
  3  9  1  0  0  0  0
  4  1  1  0  0  0  0
  5 21  1  6  0  0  0
  5  8  1  0  0  0  0
  5  7  1  0  0  0  0
  7 10  1  0  0  0  0
  8  2  2  0  0  0  0
  9  1  2  0  0  0  0
 10  3  2  0  0  0  0
 10 11  1  0  0  0  0
 11  4  2  0  0  0  0
 12 14  1  0  0  0  0
 14 13  1  0  0  0  0
 15 13  1  0  0  0  0
 16 15  1  0  0  0  0
 17 16  1  0  0  0  0
 17 12  2  0  0  0  0
 18 17  1  0  0  0  0
 19 20  1  0  0  0  0
 20 18  1  0  0  0  0
 23 22  2  0  0  0  0
 23 21  1  0  0  0  0
 24 31  2  0  0  0  0
 24 28  1  0  0  0  0
 25 30  1  0  0  0  0
 26 29  1  0  0  0  0
 27 24  1  0  0  0  0
 28 25  2  0  0  0  0
 29 30  2  0  0  0  0
 30 23  1  0  0  0  0
 31 29  1  0  0  0  0
M  END
>  <MODEL>
5

>  <REMARK>
 VINA RESULT:      -8.7      2.922      7.767
  Name = 
  6 active torsions:
  status: ('A' for Active; 'I' for Inactive)
    1  A    between atoms: C_4  and  C_5
    2  A    between atoms: C_9  and  C_22
    3  A    between atoms: C_9  and  C_23
    4  A    between atoms: C_15  and  C_23
    5  A    between atoms: C_29  and  C_31
    6  A    between atoms: C_30  and  C_31
                            x       y       z     vdW  Elec       q    Type
                         _______ _______ _______ _____ _____    ______ ____

>  <TORSDO>
F 6

$$$$
=
 OpenBabel11052413063D

 31 34  0  0  1  0  0  0  0  0999 V2000
  186.3150  178.6300  146.7790 C   0  0  0  0  0  0  0  0  0  0  0  0
  186.5460  177.9330  143.0560 C   0  0  0  0  0  0  0  0  0  0  0  0
  186.0280  178.2520  144.4100 C   0  0  0  0  0  0  0  0  0  0  0  0
  184.9740  178.8180  146.9080 N   0  0  0  0  0  0  0  0  0  0  0  0
  184.4290  178.6710  142.1100 C   0  0  1  0  0  3  0  0  0  0  0  0
  187.1580  178.7260  147.9200 N   0  0  0  0  0  1  0  0  0  0  0  0
  183.7240  178.2630  143.4080 C   0  0  0  0  0  2  0  0  0  0  0  0
  185.7660  178.0790  142.0230 N   0  0  0  0  0  0  0  0  0  0  0  0
  186.8650  178.3370  145.5290 C   0  0  0  0  0  3  0  0  0  0  0  0
  184.6470  178.4520  144.5710 C   0  0  0  0  0  0  0  0  0  0  0  0
  184.1350  178.7270  145.8400 C   0  0  0  0  0  3  0  0  0  0  0  0
  187.9120  177.3990  142.8550 C   0  0  0  0  0  0  0  0  0  0  0  0
  189.9190  176.2120  143.8360 C   0  0  0  0  0  2  0  0  0  0  0  0
  188.4040  176.3750  143.8510 C   0  0  0  0  0  2  0  0  0  0  0  0
  190.3740  175.9940  142.4050 C   0  0  0  0  0  2  0  0  0  0  0  0
  190.0690  177.2460  141.5910 C   0  0  0  0  0  2  0  0  0  0  0  0
  188.6520  177.7340  141.7680 C   0  0  0  0  0  0  0  0  0  0  0  0
  188.1360  178.6820  140.7260 C   0  0  0  0  0  2  0  0  0  0  0  0
  188.8110  179.0060  138.4540 O   0  0  0  0  0  1  0  0  0  0  0  0
  188.2420  178.0830  139.3310 C   0  0  0  0  0  2  0  0  0  0  0  0
  183.6090  178.2630  140.8970 C   0  0  0  0  0  2  0  0  0  0  0  0
  184.9880  179.7490  139.6780 O   0  0  0  0  0  0  0  0  0  0  0  0
  183.8630  179.1880  139.7480 C   0  0  0  0  0  0  0  0  0  0  0  0
  180.8170  179.9800  136.8080 C   0  0  0  0  0  0  0  0  0  0  0  0
  182.0660  180.6050  138.7780 C   0  0  0  0  0  3  0  0  0  0  0  0
  183.2810  177.2170  137.4980 C   0  0  0  0  0  1  0  0  0  0  0  0
  179.7620  180.2750  135.8050 C   0  0  0  0  0  1  0  0  0  0  0  0
  181.0740  180.8840  137.8360 C   0  0  0  0  0  3  0  0  0  0  0  0
  182.5490  178.5070  137.6590 C   0  0  0  0  0  0  0  0  0  0  0  0
  182.8200  179.4210  138.7110 C   0  0  0  0  0  0  0  0  0  0  0  0
  181.5520  178.7970  136.7210 C   0  0  0  0  0  3  0  0  0  0  0  0
  1  4  1  0  0  0  0
  1  6  1  0  0  0  0
  2  3  1  0  0  0  0
  3 10  2  0  0  0  0
  3  9  1  0  0  0  0
  5 21  1  6  0  0  0
  5  7  1  0  0  0  0
  7 10  1  0  0  0  0
  8  5  1  0  0  0  0
  8  2  2  0  0  0  0
  9  1  2  0  0  0  0
 10 11  1  0  0  0  0
 11  4  2  0  0  0  0
 12  2  1  0  0  0  0
 12 14  1  0  0  0  0
 13 14  1  0  0  0  0
 15 13  1  0  0  0  0
 16 17  1  0  0  0  0
 16 15  1  0  0  0  0
 17 12  2  0  0  0  0
 18 17  1  0  0  0  0
 19 20  1  0  0  0  0
 20 18  1  0  0  0  0
 22 23  2  0  0  0  0
 23 21  1  0  0  0  0
 24 28  1  0  0  0  0
 26 29  1  0  0  0  0
 27 24  1  0  0  0  0
 28 25  2  0  0  0  0
 29 30  2  0  0  0  0
 30 25  1  0  0  0  0
 30 23  1  0  0  0  0
 31 24  2  0  0  0  0
 31 29  1  0  0  0  0
M  END
>  <MODEL>
6

>  <REMARK>
 VINA RESULT:      -8.7      3.707      8.633
  Name = 
  6 active torsions:
  status: ('A' for Active; 'I' for Inactive)
    1  A    between atoms: C_4  and  C_5
    2  A    between atoms: C_9  and  C_22
    3  A    between atoms: C_9  and  C_23
    4  A    between atoms: C_15  and  C_23
    5  A    between atoms: C_29  and  C_31
    6  A    between atoms: C_30  and  C_31
                            x       y       z     vdW  Elec       q    Type
                         _______ _______ _______ _____ _____    ______ ____

>  <TORSDO>
F 6

$$$$
=
 OpenBabel11052413063D

 31 34  0  0  1  0  0  0  0  0999 V2000
  180.3140  178.2310  142.2400 C   0  0  0  0  0  0  0  0  0  0  0  0
  183.6340  177.8800  140.4350 C   0  0  0  0  0  0  0  0  0  0  0  0
  182.6000  178.1720  141.4600 C   0  0  0  0  0  0  0  0  0  0  0  0
  180.7330  178.7770  143.4130 N   0  0  0  0  0  0  0  0  0  0  0  0
  185.3480  178.1220  142.1460 C   0  0  1  0  0  3  0  0  0  0  0  0
  178.9310  177.9760  142.0290 N   0  0  0  0  0  1  0  0  0  0  0  0
  184.4400  179.1020  142.8960 C   0  0  0  0  0  2  0  0  0  0  0  0
  184.8930  177.9240  140.7680 N   0  0  0  0  0  0  0  0  0  0  0  0
  181.2400  177.9240  141.2400 C   0  0  0  0  0  3  0  0  0  0  0  0
  183.0050  178.7340  142.6820 C   0  0  0  0  0  0  0  0  0  0  0  0
  182.0460  179.0410  143.6500 C   0  0  0  0  0  3  0  0  0  0  0  0
  183.2720  177.5940  139.0290 C   0  0  0  0  0  0  0  0  0  0  0  0
  183.2300  175.9380  137.1180 C   0  0  0  0  0  2  0  0  0  0  0  0
  183.1720  176.1420  138.6260 C   0  0  0  0  0  2  0  0  0  0  0  0
  182.2230  176.8630  136.4590 C   0  0  0  0  0  2  0  0  0  0  0  0
  182.6360  178.3070  136.7140 C   0  0  0  0  0  2  0  0  0  0  0  0
  182.9420  178.5870  138.1650 C   0  0  0  0  0  0  0  0  0  0  0  0
  182.9510  180.0280  138.5810 C   0  0  0  0  0  2  0  0  0  0  0  0
  181.6400  182.0230  138.4200 O   0  0  0  0  0  1  0  0  0  0  0  0
  181.5570  180.6340  138.5130 C   0  0  0  0  0  2  0  0  0  0  0  0
  186.7880  178.6090  142.1440 C   0  0  0  0  0  2  0  0  0  0  0  0
  188.2770  176.7710  142.1480 O   0  0  0  0  0  0  0  0  0  0  0  0
  187.6810  177.6340  142.8450 C   0  0  0  0  0  0  0  0  0  0  0  0
  188.0940  177.7970  147.1290 C   0  0  0  0  0  0  0  0  0  0  0  0
  186.7360  177.5830  145.1440 C   0  0  0  0  0  3  0  0  0  0  0  0
  190.4040  178.0040  144.1610 C   0  0  0  0  0  1  0  0  0  0  0  0
  188.2130  177.8510  148.6080 C   0  0  0  0  0  1  0  0  0  0  0  0
  186.8450  177.6330  146.5340 C   0  0  0  0  0  3  0  0  0  0  0  0
  189.1370  177.8640  144.9370 C   0  0  0  0  0  0  0  0  0  0  0  0
  187.8700  177.6960  144.3200 C   0  0  0  0  0  0  0  0  0  0  0  0
  189.2340  177.9130  146.3320 C   0  0  0  0  0  3  0  0  0  0  0  0
  1  4  1  0  0  0  0
  2  8  2  0  0  0  0
  2  3  1  0  0  0  0
  3 10  2  0  0  0  0
  4 11  2  0  0  0  0
  5 21  1  6  0  0  0
  5  7  1  0  0  0  0
  6  1  1  0  0  0  0
  8  5  1  0  0  0  0
  9  3  1  0  0  0  0
  9  1  2  0  0  0  0
 10  7  1  0  0  0  0
 10 11  1  0  0  0  0
 12  2  1  0  0  0  0
 13 14  1  0  0  0  0
 14 12  1  0  0  0  0
 15 16  1  0  0  0  0
 15 13  1  0  0  0  0
 16 17  1  0  0  0  0
 17 18  1  0  0  0  0
 17 12  2  0  0  0  0
 19 20  1  0  0  0  0
 20 18  1  0  0  0  0
 21 23  1  0  0  0  0
 22 23  2  0  0  0  0
 23 30  1  0  0  0  0
 24 27  1  0  0  0  0
 25 28  2  0  0  0  0
 26 29  1  0  0  0  0
 28 24  1  0  0  0  0
 29 31  1  0  0  0  0
 30 29  2  0  0  0  0
 30 25  1  0  0  0  0
 31 24  2  0  0  0  0
M  END
>  <MODEL>
7

>  <REMARK>
 VINA RESULT:      -8.6      4.348      6.709
  Name = 
  6 active torsions:
  status: ('A' for Active; 'I' for Inactive)
    1  A    between atoms: C_4  and  C_5
    2  A    between atoms: C_9  and  C_22
    3  A    between atoms: C_9  and  C_23
    4  A    between atoms: C_15  and  C_23
    5  A    between atoms: C_29  and  C_31
    6  A    between atoms: C_30  and  C_31
                            x       y       z     vdW  Elec       q    Type
                         _______ _______ _______ _____ _____    ______ ____

>  <TORSDO>
F 6

$$$$
=
 OpenBabel11052413063D

 31 34  0  0  1  0  0  0  0  0999 V2000
  192.8440  176.7830  137.9020 C   0  0  0  0  0  0  0  0  0  0  0  0
  189.1550  177.3590  138.5830 C   0  0  0  0  0  0  0  0  0  0  0  0
  190.6160  177.1550  138.7580 C   0  0  0  0  0  0  0  0  0  0  0  0
  193.3230  176.7480  139.1750 N   0  0  0  0  0  0  0  0  0  0  0  0
  189.0140  178.0870  140.9020 C   0  0  1  0  0  3  0  0  0  0  0  0
  193.7320  176.6140  136.8050 N   0  0  0  0  0  1  0  0  0  0  0  0
  190.2140  177.1960  141.2380 C   0  0  0  0  0  2  0  0  0  0  0  0
  188.4360  177.7300  139.6040 N   0  0  0  0  0  0  0  0  0  0  0  0
  191.4810  176.9820  137.6710 C   0  0  0  0  0  3  0  0  0  0  0  0
  191.1370  177.1160  140.0620 C   0  0  0  0  0  0  0  0  0  0  0  0
  192.5030  176.9000  140.2500 C   0  0  0  0  0  3  0  0  0  0  0  0
  188.4860  177.0970  137.2890 C   0  0  0  0  0  0  0  0  0  0  0  0
  187.1380  178.0010  135.3490 C   0  0  0  0  0  2  0  0  0  0  0  0
  188.1840  178.2930  136.4170 C   0  0  0  0  0  2  0  0  0  0  0  0
  187.5380  176.7410  134.6030 C   0  0  0  0  0  2  0  0  0  0  0  0
  187.5080  175.5630  135.5690 C   0  0  0  0  0  2  0  0  0  0  0  0
  188.2480  175.8340  136.8550 C   0  0  0  0  0  0  0  0  0  0  0  0
  188.6260  174.6360  137.6750 C   0  0  0  0  0  2  0  0  0  0  0  0
  190.8140  173.6800  137.5100 O   0  0  0  0  0  1  0  0  0  0  0  0
  189.5560  173.7090  136.9060 C   0  0  0  0  0  2  0  0  0  0  0  0
  187.9480  177.9900  141.9810 C   0  0  0  0  0  2  0  0  0  0  0  0
  188.6000  175.7880  142.5500 O   0  0  0  0  0  0  0  0  0  0  0  0
  188.2970  176.9330  142.9800 C   0  0  0  0  0  0  0  0  0  0  0  0
  188.1780  177.8030  147.1960 C   0  0  0  0  0  0  0  0  0  0  0  0
  187.0680  177.3990  145.0900 C   0  0  0  0  0  3  0  0  0  0  0  0
  190.8550  177.2140  144.6130 C   0  0  0  0  0  1  0  0  0  0  0  0
  188.1120  178.1030  148.6490 C   0  0  0  0  0  1  0  0  0  0  0  0
  187.0040  177.6800  146.4550 C   0  0  0  0  0  3  0  0  0  0  0  0
  189.4920  177.3600  145.2030 C   0  0  0  0  0  0  0  0  0  0  0  0
  188.3030  177.2320  144.4380 C   0  0  0  0  0  0  0  0  0  0  0  0
  189.4150  177.6440  146.5710 C   0  0  0  0  0  3  0  0  0  0  0  0
  1  4  1  0  0  0  0
  2  3  1  0  0  0  0
  2  8  2  0  0  0  0
  3 10  2  0  0  0  0
  4 11  2  0  0  0  0
  5  7  1  0  0  0  0
  5 21  1  1  0  0  0
  6  1  1  0  0  0  0
  8  5  1  0  0  0  0
  9  1  2  0  0  0  0
  9  3  1  0  0  0  0
 10 11  1  0  0  0  0
 10  7  1  0  0  0  0
 12  2  1  0  0  0  0
 13 14  1  0  0  0  0
 14 12  1  0  0  0  0
 15 13  1  0  0  0  0
 15 16  1  0  0  0  0
 16 17  1  0  0  0  0
 17 12  2  0  0  0  0
 17 18  1  0  0  0  0
 20 19  1  0  0  0  0
 20 18  1  0  0  0  0
 21 23  1  0  0  0  0
 22 23  2  0  0  0  0
 23 30  1  0  0  0  0
 24 27  1  0  0  0  0
 25 28  1  0  0  0  0
 26 29  1  0  0  0  0
 28 24  2  0  0  0  0
 29 31  2  0  0  0  0
 30 25  2  0  0  0  0
 30 29  1  0  0  0  0
 31 24  1  0  0  0  0
M  END
>  <MODEL>
8

>  <REMARK>
 VINA RESULT:      -8.5      1.240      2.167
  Name = 
  6 active torsions:
  status: ('A' for Active; 'I' for Inactive)
    1  A    between atoms: C_4  and  C_5
    2  A    between atoms: C_9  and  C_22
    3  A    between atoms: C_9  and  C_23
    4  A    between atoms: C_15  and  C_23
    5  A    between atoms: C_29  and  C_31
    6  A    between atoms: C_30  and  C_31
                            x       y       z     vdW  Elec       q    Type
                         _______ _______ _______ _____ _____    ______ ____

>  <TORSDO>
F 6

$$$$
=
 OpenBabel11052413063D

 31 34  0  0  1  0  0  0  0  0999 V2000
  188.6710  177.1280  146.2620 C   0  0  0  0  0  0  0  0  0  0  0  0
  186.8720  178.1610  143.0840 C   0  0  0  0  0  0  0  0  0  0  0  0
  187.9280  177.7920  144.0610 C   0  0  0  0  0  0  0  0  0  0  0  0
  189.9600  177.1500  145.8280 N   0  0  0  0  0  0  0  0  0  0  0  0
  188.4890  177.8830  141.2850 C   0  0  1  0  0  3  0  0  0  0  0  0
  188.3810  176.7760  147.6080 N   0  0  0  0  0  1  0  0  0  0  0  0
  189.6110  178.2640  142.2570 C   0  0  0  0  0  2  0  0  0  0  0  0
  187.1760  178.2520  141.8200 N   0  0  0  0  0  0  0  0  0  0  0  0
  187.6320  177.4540  145.3870 C   0  0  0  0  0  3  0  0  0  0  0  0
  189.2670  177.8050  143.6390 C   0  0  0  0  0  0  0  0  0  0  0  0
  190.2780  177.4880  144.5490 C   0  0  0  0  0  3  0  0  0  0  0  0
  185.4940  178.4800  143.5160 C   0  0  0  0  0  0  0  0  0  0  0  0
  183.8940  178.9400  145.4210 C   0  0  0  0  0  2  0  0  0  0  0  0
  185.3230  179.0500  144.9050 C   0  0  0  0  0  2  0  0  0  0  0  0
  182.9500  179.4980  144.3730 C   0  0  0  0  0  2  0  0  0  0  0  0
  183.0250  178.6280  143.1240 C   0  0  0  0  0  2  0  0  0  0  0  0
  184.4400  178.3670  142.6700 C   0  0  0  0  0  0  0  0  0  0  0  0
  184.6110  177.8870  141.2590 C   0  0  0  0  0  2  0  0  0  0  0  0
  184.9290  179.7530  139.7940 O   0  0  0  0  0  1  0  0  0  0  0  0
  183.9760  178.8490  140.2650 C   0  0  0  0  0  2  0  0  0  0  0  0
  188.6950  178.5440  139.9320 C   0  0  0  0  0  2  0  0  0  0  0  0
  187.3220  177.2610  138.4950 O   0  0  0  0  0  0  0  0  0  0  0  0
  188.5010  177.5570  138.8240 C   0  0  0  0  0  0  0  0  0  0  0  0
  191.9330  175.7940  136.9110 C   0  0  0  0  0  0  0  0  0  0  0  0
  190.6850  176.3720  138.8960 C   0  0  0  0  0  3  0  0  0  0  0  0
  188.7990  177.5580  135.7910 C   0  0  0  0  0  1  0  0  0  0  0  0
  193.1260  175.1800  136.2730 C   0  0  0  0  0  1  0  0  0  0  0  0
  191.8060  175.7940  138.2980 C   0  0  0  0  0  3  0  0  0  0  0  0
  189.8100  176.9550  136.7090 C   0  0  0  0  0  0  0  0  0  0  0  0
  189.6690  176.9600  138.1210 C   0  0  0  0  0  0  0  0  0  0  0  0
  190.9390  176.3730  136.1210 C   0  0  0  0  0  3  0  0  0  0  0  0
  1  6  1  0  0  0  0
  2 12  1  0  0  0  0
  2  3  1  0  0  0  0
  3  9  1  0  0  0  0
  4  1  1  0  0  0  0
  5 21  1  6  0  0  0
  5  8  1  0  0  0  0
  5  7  1  0  0  0  0
  7 10  1  0  0  0  0
  8  2  2  0  0  0  0
  9  1  2  0  0  0  0
 10  3  2  0  0  0  0
 10 11  1  0  0  0  0
 11  4  2  0  0  0  0
 12 14  1  0  0  0  0
 14 13  1  0  0  0  0
 15 13  1  0  0  0  0
 16 15  1  0  0  0  0
 17 16  1  0  0  0  0
 17 12  2  0  0  0  0
 18 17  1  0  0  0  0
 19 20  1  0  0  0  0
 20 18  1  0  0  0  0
 22 23  2  0  0  0  0
 23 21  1  0  0  0  0
 24 28  1  0  0  0  0
 26 29  1  0  0  0  0
 27 24  1  0  0  0  0
 28 25  2  0  0  0  0
 29 30  2  0  0  0  0
 30 23  1  0  0  0  0
 30 25  1  0  0  0  0
 31 29  1  0  0  0  0
 31 24  2  0  0  0  0
M  END
>  <MODEL>
9

>  <REMARK>
 VINA RESULT:      -8.5      2.859      7.707
  Name = 
  6 active torsions:
  status: ('A' for Active; 'I' for Inactive)
    1  A    between atoms: C_4  and  C_5
    2  A    between atoms: C_9  and  C_22
    3  A    between atoms: C_9  and  C_23
    4  A    between atoms: C_15  and  C_23
    5  A    between atoms: C_29  and  C_31
    6  A    between atoms: C_30  and  C_31
                            x       y       z     vdW  Elec       q    Type
                         _______ _______ _______ _____ _____    ______ ____

>  <TORSDO>
F 6

$$$$
