=
 OpenBabel11052414313D

 32 34  0  0  1  0  0  0  0  0999 V2000
  183.7710  178.9720  142.5110 C   0  0  1  0  0  3  0  0  0  0  0  0
  183.2930  179.1920  141.0690 C   0  0  0  0  0  2  0  0  0  0  0  0
  181.3290  178.5510  143.0210 N   0  0  0  0  0  0  0  0  0  0  0  0
  179.5080  176.2860  139.5990 O   0  0  0  0  0  0  0  0  0  0  0  0
  182.8540  177.9140  140.3600 C   0  0  0  0  0  2  0  0  0  0  0  0
  179.0970  178.6510  139.3150 C   0  0  0  0  0  2  0  0  0  0  0  0
  180.5870  179.0110  139.5730 C   0  0  1  0  0  0  0  0  0  0  0  0
  180.7990  179.9010  142.8490 C   0  0  0  0  0  2  0  0  0  0  0  0
  181.3060  178.3470  137.1110 C   0  0  2  0  0  3  0  0  0  0  0  0
  179.9090  179.9450  141.6150 C   0  0  0  0  0  2  0  0  0  0  0  0
  182.7060  178.5590  143.5410 C   0  0  2  0  0  3  0  0  0  0  0  0
  181.7120  178.9270  135.9040 O   0  0  0  0  0  1  0  0  0  0  0  0
  181.2690  179.4160  138.2290 C   0  0  1  0  0  3  0  0  0  0  0  0
  180.6810  180.1330  140.4480 O   0  0  0  0  0  0  0  0  0  0  0  0
  181.5280  176.0780  138.2180 C   0  0  0  0  0  2  0  0  0  0  0  0
  180.4720  177.8420  143.9600 C   0  0  0  0  0  1  0  0  0  0  0  0
  182.2570  177.2030  137.4860 C   0  0  1  0  0  3  0  0  0  0  0  0
  181.3260  177.7970  140.2120 C   0  0  1  0  0  3  0  0  0  0  0  0
  182.8700  179.3710  144.8270 C   0  0  0  0  0  1  0  0  0  0  0  0
  178.9310  177.2450  138.7450 C   0  0  0  0  0  2  0  0  0  0  0  0
  180.9100  176.4550  139.5800 C   0  0  1  0  0  3  0  0  0  0  0  0
  180.8570  180.7910  137.7490 C   0  0  0  0  0  3  0  0  0  0  0  0
  182.7080  181.9160  138.7180 O   0  0  0  0  0  1  0  0  0  0  0  0
  181.5360  181.9220  137.9700 C   0  0  0  0  0  0  0  0  0  0  0  0
  179.8240  183.3490  137.1430 O   0  0  0  0  0  0  0  0  0  0  0  0
  181.9240  184.2530  137.2400 O   0  0  0  0  0  1  0  0  0  0  0  0
  181.0410  183.1980  137.4340 C   0  0  0  0  0  0  0  0  0  0  0  0
  184.9730  178.0390  142.5860 C   0  0  0  0  0  2  0  0  0  0  0  0
  186.1800  178.6720  141.9210 C   0  0  0  0  0  1  0  0  0  0  0  0
  182.8770  176.6680  136.3510 O   0  0  0  0  0  0  0  0  0  0  0  0
  184.0000  176.1410  136.7940 O   0  0  0  0  0  0  0  0  0  0  0  0
  184.8540  177.2280  136.9910 C   0  0  0  0  0  1  0  0  0  0  0  0
  1 28  1  6  0  0  0
  1 11  1  0  0  0  0
  2  1  1  0  0  0  0
  3 11  1  0  0  0  0
  3 16  1  0  0  0  0
  5  2  1  0  0  0  0
  7  6  1  6  0  0  0
  7 18  1  0  0  0  0
  7 14  1  0  0  0  0
  8  3  1  0  0  0  0
  9 12  1  6  0  0  0
  9 17  1  0  0  0  0
  9 13  1  0  0  0  0
 10  8  1  0  0  0  0
 11 19  1  1  0  0  0
 13 22  1  6  0  0  0
 13  7  1  0  0  0  0
 14 10  1  0  0  0  0
 17 30  1  6  0  0  0
 17 15  1  0  0  0  0
 18  5  1  6  0  0  0
 20  6  1  0  0  0  0
 20  4  1  0  0  0  0
 21 15  1  6  0  0  0
 21  4  1  0  0  0  0
 21 18  1  0  0  0  0
 22 24  2  0  0  0  0
 24 23  1  0  0  0  0
 25 27  2  0  0  0  0
 26 27  1  0  0  0  0
 27 24  1  0  0  0  0
 29 28  1  0  0  0  0
 30 31  1  0  0  0  0
 31 32  1  0  0  0  0
M  END
>  <MODEL>
1

>  <REMARK>
 VINA RESULT:      -5.0      0.000      0.000
  Name = 
  5 active torsions:
  status: ('A' for Active; 'I' for Inactive)
    1  A    between atoms: O_1  and  O_4
    2  A    between atoms: O_1  and  C_27
    3  A    between atoms: C_2  and  C_14
    4  A    between atoms: C_3  and  C_22
    5  A    between atoms: C_19  and  C_26
                            x       y       z     vdW  Elec       q    Type
                         _______ _______ _______ _____ _____    ______ ____

>  <TORSDO>
F 5

$$$$
=
 OpenBabel11052414313D

 32 34  0  0  1  0  0  0  0  0999 V2000
  185.1430  176.8900  137.6290 C   0  0  1  0  0  3  0  0  0  0  0  0
  184.0890  177.7470  138.3440 C   0  0  0  0  0  2  0  0  0  0  0  0
  183.1780  175.4690  136.9100 N   0  0  0  0  0  0  0  0  0  0  0  0
  179.7060  178.1610  135.9900 O   0  0  0  0  0  0  0  0  0  0  0  0
  183.2090  178.5610  137.4010 C   0  0  0  0  0  2  0  0  0  0  0  0
  179.5270  177.3570  138.2610 C   0  0  0  0  0  2  0  0  0  0  0  0
  181.0010  177.7300  138.5830 C   0  0  1  0  0  0  0  0  0  0  0  0
  182.8120  174.8770  138.1940 C   0  0  0  0  0  2  0  0  0  0  0  0
  180.4120  180.2900  138.9290 C   0  0  2  0  0  3  0  0  0  0  0  0
  181.4690  175.4320  138.6460 C   0  0  0  0  0  2  0  0  0  0  0  0
  184.6280  175.7010  136.8010 C   0  0  2  0  0  3  0  0  0  0  0  0
  180.2900  181.2490  139.9400 O   0  0  0  0  0  1  0  0  0  0  0  0
  181.0350  178.9930  139.4980 C   0  0  1  0  0  3  0  0  0  0  0  0
  181.6350  176.6730  139.3000 O   0  0  0  0  0  0  0  0  0  0  0  0
  180.8160  180.3080  136.4270 C   0  0  0  0  0  2  0  0  0  0  0  0
  182.7640  174.5560  135.8540 C   0  0  0  0  0  1  0  0  0  0  0  0
  181.2680  180.8440  137.7840 C   0  0  1  0  0  3  0  0  0  0  0  0
  181.7840  177.9970  137.2620 C   0  0  1  0  0  3  0  0  0  0  0  0
  185.4690  174.4560  137.0810 C   0  0  0  0  0  1  0  0  0  0  0  0
  178.9320  178.2350  137.1640 C   0  0  0  0  0  2  0  0  0  0  0  0
  180.9510  178.7830  136.2320 C   0  0  1  0  0  3  0  0  0  0  0  0
  180.6350  178.6970  140.9280 C   0  0  0  0  0  3  0  0  0  0  0  0
  182.8280  178.8990  141.8080 O   0  0  0  0  0  1  0  0  0  0  0  0
  181.4660  178.6720  141.9740 C   0  0  0  0  0  0  0  0  0  0  0  0
  181.6490  178.6290  144.3440 O   0  0  0  0  0  1  0  0  0  0  0  0
  179.6810  177.8490  143.4750 O   0  0  0  0  0  0  0  0  0  0  0  0
  180.9520  178.3900  143.3220 C   0  0  0  0  0  0  0  0  0  0  0  0
  186.1100  177.7320  136.8050 C   0  0  0  0  0  2  0  0  0  0  0  0
  187.2380  178.2510  137.6750 C   0  0  0  0  0  1  0  0  0  0  0  0
  181.2210  182.2430  137.7480 O   0  0  0  0  0  0  0  0  0  0  0  0
  180.8120  182.5380  136.5300 O   0  0  0  0  0  0  0  0  0  0  0  0
  180.7960  183.9340  136.4860 C   0  0  0  0  0  1  0  0  0  0  0  0
  1 28  1  6  0  0  0
  1  2  1  0  0  0  0
  3  8  1  0  0  0  0
  4 21  1  0  0  0  0
  4 20  1  0  0  0  0
  5  2  1  0  0  0  0
  7  6  1  6  0  0  0
  7 14  1  0  0  0  0
  7 13  1  0  0  0  0
  8 10  1  0  0  0  0
  9 13  1  0  0  0  0
  9 12  1  1  0  0  0
 10 14  1  0  0  0  0
 11  3  1  0  0  0  0
 11 19  1  1  0  0  0
 11  1  1  0  0  0  0
 13 22  1  1  0  0  0
 15 17  1  0  0  0  0
 16  3  1  0  0  0  0
 17 30  1  6  0  0  0
 17  9  1  0  0  0  0
 18  5  1  1  0  0  0
 18  7  1  0  0  0  0
 20  6  1  0  0  0  0
 21 15  1  1  0  0  0
 21 18  1  0  0  0  0
 22 24  2  0  0  0  0
 23 24  1  0  0  0  0
 24 27  1  0  0  0  0
 27 26  2  0  0  0  0
 27 25  1  0  0  0  0
 28 29  1  0  0  0  0
 31 30  1  0  0  0  0
 32 31  1  0  0  0  0
M  END
>  <MODEL>
2

>  <REMARK>
 VINA RESULT:      -4.5      2.313      5.673
  Name = 
  5 active torsions:
  status: ('A' for Active; 'I' for Inactive)
    1  A    between atoms: O_1  and  O_4
    2  A    between atoms: O_1  and  C_27
    3  A    between atoms: C_2  and  C_14
    4  A    between atoms: C_3  and  C_22
    5  A    between atoms: C_19  and  C_26
                            x       y       z     vdW  Elec       q    Type
                         _______ _______ _______ _____ _____    ______ ____

>  <TORSDO>
F 5

$$$$
=
 OpenBabel11052414313D

 32 34  0  0  1  0  0  0  0  0999 V2000
  182.1850  174.6410  137.4950 C   0  0  1  0  0  3  0  0  0  0  0  0
  182.3260  175.5420  138.7290 C   0  0  0  0  0  2  0  0  0  0  0  0
  180.4140  176.2940  136.7650 N   0  0  0  0  0  0  0  0  0  0  0  0
  181.7480  180.4300  137.8900 O   0  0  0  0  0  0  0  0  0  0  0  0
  182.9920  176.8850  138.4420 C   0  0  0  0  0  2  0  0  0  0  0  0
  180.2960  179.5510  139.6110 C   0  0  0  0  0  2  0  0  0  0  0  0
  181.0810  178.2120  139.6860 C   0  0  1  0  0  0  0  0  0  0  0  0
  179.3740  175.9980  137.7470 C   0  0  0  0  0  2  0  0  0  0  0  0
  183.0020  179.2730  141.1700 C   0  0  2  0  0  3  0  0  0  0  0  0
  179.2220  177.1780  138.6970 C   0  0  0  0  0  2  0  0  0  0  0  0
  181.1950  175.0980  136.4090 C   0  0  2  0  0  3  0  0  0  0  0  0
  183.4960  179.2590  142.4790 O   0  0  0  0  0  1  0  0  0  0  0  0
  181.9280  178.1720  140.9950 C   0  0  1  0  0  3  0  0  0  0  0  0
  180.1770  177.1100  139.7360 O   0  0  0  0  0  0  0  0  0  0  0  0
  183.9170  179.8310  138.8740 C   0  0  0  0  0  2  0  0  0  0  0  0
  179.7740  176.8150  135.5660 C   0  0  0  0  0  1  0  0  0  0  0  0
  184.1520  179.0690  140.1760 C   0  0  1  0  0  3  0  0  0  0  0  0
  182.0040  178.0650  138.4380 C   0  0  1  0  0  3  0  0  0  0  0  0
  180.3350  173.9210  135.9480 C   0  0  0  0  0  1  0  0  0  0  0  0
  181.1710  180.7110  139.1440 C   0  0  0  0  0  2  0  0  0  0  0  0
  182.6880  179.3890  138.0520 C   0  0  1  0  0  3  0  0  0  0  0  0
  181.0910  177.9310  142.2330 C   0  0  0  0  0  3  0  0  0  0  0  0
  180.5110  180.2110  142.5430 O   0  0  0  0  0  1  0  0  0  0  0  0
  180.4380  178.8740  142.9200 C   0  0  0  0  0  0  0  0  0  0  0  0
  178.9310  179.3700  144.6900 O   0  0  0  0  0  1  0  0  0  0  0  0
  179.6630  177.2050  144.5730 O   0  0  0  0  0  0  0  0  0  0  0  0
  179.6390  178.5110  144.0990 C   0  0  0  0  0  0  0  0  0  0  0  0
  183.5320  174.2950  136.8730 C   0  0  0  0  0  2  0  0  0  0  0  0
  184.3360  173.4080  137.8050 C   0  0  0  0  0  1  0  0  0  0  0  0
  185.3720  179.4860  140.7220 O   0  0  0  0  0  0  0  0  0  0  0  0
  186.2780  178.7110  140.1620 O   0  0  0  0  0  0  0  0  0  0  0  0
  187.3050  178.6200  141.1040 C   0  0  0  0  0  1  0  0  0  0  0  0
  1 28  1  6  0  0  0
  1  2  1  0  0  0  0
  3  8  1  0  0  0  0
  4 21  1  0  0  0  0
  4 20  1  0  0  0  0
  5  2  1  0  0  0  0
  7  6  1  6  0  0  0
  7 14  1  0  0  0  0
  7 13  1  0  0  0  0
  8 10  1  0  0  0  0
  9 12  1  1  0  0  0
 10 14  1  0  0  0  0
 11 19  1  1  0  0  0
 11  3  1  0  0  0  0
 11  1  1  0  0  0  0
 13  9  1  0  0  0  0
 13 22  1  1  0  0  0
 15 17  1  0  0  0  0
 16  3  1  0  0  0  0
 17 30  1  1  0  0  0
 17  9  1  0  0  0  0
 18  5  1  1  0  0  0
 18  7  1  0  0  0  0
 20  6  1  0  0  0  0
 21 18  1  0  0  0  0
 21 15  1  1  0  0  0
 22 24  2  0  0  0  0
 23 24  1  0  0  0  0
 24 27  1  0  0  0  0
 27 26  2  0  0  0  0
 27 25  1  0  0  0  0
 28 29  1  0  0  0  0
 31 30  1  0  0  0  0
 31 32  1  0  0  0  0
M  END
>  <MODEL>
3

>  <REMARK>
 VINA RESULT:      -4.4      2.697      5.933
  Name = 
  5 active torsions:
  status: ('A' for Active; 'I' for Inactive)
    1  A    between atoms: O_1  and  O_4
    2  A    between atoms: O_1  and  C_27
    3  A    between atoms: C_2  and  C_14
    4  A    between atoms: C_3  and  C_22
    5  A    between atoms: C_19  and  C_26
                            x       y       z     vdW  Elec       q    Type
                         _______ _______ _______ _____ _____    ______ ____

>  <TORSDO>
F 5

$$$$
=
 OpenBabel11052414313D

 32 34  0  0  1  0  0  0  0  0999 V2000
  180.2500  174.8830  136.7900 C   0  0  1  0  0  3  0  0  0  0  0  0
  180.1810  176.3450  137.2530 C   0  0  0  0  0  2  0  0  0  0  0  0
  182.7470  175.1330  137.1080 N   0  0  0  0  0  0  0  0  0  0  0  0
  183.4960  177.6450  140.7520 O   0  0  0  0  0  0  0  0  0  0  0  0
  180.4730  176.5390  138.7380 C   0  0  0  0  0  2  0  0  0  0  0  0
  183.5510  179.0420  138.7800 C   0  0  0  0  0  2  0  0  0  0  0  0
  182.2130  178.4600  138.2460 C   0  0  1  0  0  0  0  0  0  0  0  0
  183.0510  176.0410  136.0060 C   0  0  0  0  0  2  0  0  0  0  0  0
  180.7620  179.9720  139.8670 C   0  0  2  0  0  3  0  0  0  0  0  0
  183.4560  177.3990  136.5630 C   0  0  0  0  0  2  0  0  0  0  0  0
  181.6380  174.2210  136.7830 C   0  0  2  0  0  3  0  0  0  0  0  0
  179.9120  181.0830  139.8450 O   0  0  0  0  0  1  0  0  0  0  0  0
  181.0750  179.5130  138.4230 C   0  0  1  0  0  3  0  0  0  0  0  0
  182.3150  178.1810  136.8510 O   0  0  0  0  0  0  0  0  0  0  0  0
  181.1550  177.9980  141.4070 C   0  0  0  0  0  2  0  0  0  0  0  0
  183.9390  174.3470  137.3920 C   0  0  0  0  0  1  0  0  0  0  0  0
  180.1140  178.8350  140.6670 C   0  0  1  0  0  3  0  0  0  0  0  0
  181.8600  177.1480  139.0090 C   0  0  1  0  0  3  0  0  0  0  0  0
  181.8470  173.4430  135.4830 C   0  0  0  0  0  1  0  0  0  0  0  0
  183.6490  178.9710  140.3020 C   0  0  0  0  0  2  0  0  0  0  0  0
  182.1630  177.2420  140.5150 C   0  0  1  0  0  3  0  0  0  0  0  0
  181.1610  180.6480  137.4250 C   0  0  0  0  0  3  0  0  0  0  0  0
  179.0110  180.2730  136.4940 O   0  0  0  0  0  1  0  0  0  0  0  0
  180.2010  180.9900  136.5590 C   0  0  0  0  0  0  0  0  0  0  0  0
  181.0730  182.0030  134.5940 O   0  0  0  0  0  0  0  0  0  0  0  0
  179.8310  183.3600  135.9550 O   0  0  0  0  0  1  0  0  0  0  0  0
  180.3960  182.1280  135.6500 C   0  0  0  0  0  0  0  0  0  0  0  0
  179.2440  173.9980  137.5160 C   0  0  0  0  0  2  0  0  0  0  0  0
  179.9600  172.9470  138.3430 C   0  0  0  0  0  1  0  0  0  0  0  0
  179.1970  179.3320  141.6010 O   0  0  0  0  0  0  0  0  0  0  0  0
  179.9310  179.7350  142.6180 O   0  0  0  0  0  0  0  0  0  0  0  0
  179.1490  179.4830  143.7480 C   0  0  0  0  0  1  0  0  0  0  0  0
  1  2  1  0  0  0  0
  1 28  1  1  0  0  0
  2  5  1  0  0  0  0
  3 16  1  0  0  0  0
  6 20  1  0  0  0  0
  7 13  1  0  0  0  0
  7  6  1  1  0  0  0
  7 18  1  0  0  0  0
  8 10  1  0  0  0  0
  8  3  1  0  0  0  0
  9 12  1  6  0  0  0
  9 17  1  0  0  0  0
 10 14  1  0  0  0  0
 11 19  1  6  0  0  0
 11  1  1  0  0  0  0
 11  3  1  0  0  0  0
 13 22  1  6  0  0  0
 13  9  1  0  0  0  0
 14  7  1  0  0  0  0
 17 15  1  0  0  0  0
 17 30  1  1  0  0  0
 18  5  1  1  0  0  0
 18 21  1  0  0  0  0
 20  4  1  0  0  0  0
 21  4  1  0  0  0  0
 21 15  1  6  0  0  0
 23 24  1  0  0  0  0
 24 22  2  0  0  0  0
 25 27  2  0  0  0  0
 27 26  1  0  0  0  0
 27 24  1  0  0  0  0
 28 29  1  0  0  0  0
 30 31  1  0  0  0  0
 31 32  1  0  0  0  0
M  END
>  <MODEL>
4

>  <REMARK>
 VINA RESULT:      -4.1      2.423      5.821
  Name = 
  5 active torsions:
  status: ('A' for Active; 'I' for Inactive)
    1  A    between atoms: O_1  and  O_4
    2  A    between atoms: O_1  and  C_27
    3  A    between atoms: C_2  and  C_14
    4  A    between atoms: C_3  and  C_22
    5  A    between atoms: C_19  and  C_26
                            x       y       z     vdW  Elec       q    Type
                         _______ _______ _______ _____ _____    ______ ____

>  <TORSDO>
F 5

$$$$
=
 OpenBabel11052414313D

 32 34  0  0  1  0  0  0  0  0999 V2000
  191.7650  176.3390  139.4330 C   0  0  1  0  0  3  0  0  0  0  0  0
  190.2730  176.1390  139.1350 C   0  0  0  0  0  2  0  0  0  0  0  0
  192.0710  176.0700  136.9360 N   0  0  0  0  0  0  0  0  0  0  0  0
  188.6640  178.0990  134.8350 O   0  0  0  0  0  0  0  0  0  0  0  0
  189.6180  177.3220  138.4270 C   0  0  0  0  0  2  0  0  0  0  0  0
  188.1740  175.7460  135.0840 C   0  0  0  0  0  2  0  0  0  0  0  0
  188.5450  175.7580  136.5930 C   0  0  1  0  0  0  0  0  0  0  0  0
  191.7550  174.6510  136.7950 C   0  0  0  0  0  2  0  0  0  0  0  0
  186.2150  176.8110  137.2870 C   0  0  2  0  0  3  0  0  0  0  0  0
  190.4430  174.4950  136.0400 C   0  0  0  0  0  2  0  0  0  0  0  0
  192.7170  176.3670  138.2250 C   0  0  2  0  0  3  0  0  0  0  0  0
  185.0140  176.4700  137.9180 O   0  0  0  0  0  1  0  0  0  0  0  0
  187.2460  175.6690  137.4530 C   0  0  1  0  0  3  0  0  0  0  0  0
  189.3430  174.6210  136.9170 O   0  0  0  0  0  0  0  0  0  0  0  0
  187.4970  178.9480  136.8220 C   0  0  0  0  0  2  0  0  0  0  0  0
  192.9740  176.4440  135.8570 C   0  0  0  0  0  1  0  0  0  0  0  0
  186.7590  178.1210  137.8730 C   0  0  1  0  0  3  0  0  0  0  0  0
  189.3350  177.0570  136.9370 C   0  0  1  0  0  3  0  0  0  0  0  0
  193.9510  175.5080  138.5030 C   0  0  0  0  0  1  0  0  0  0  0  0
  187.6920  177.1090  134.5940 C   0  0  0  0  0  2  0  0  0  0  0  0
  188.7650  178.2990  136.2290 C   0  0  1  0  0  3  0  0  0  0  0  0
  186.6330  174.2860  137.4540 C   0  0  0  0  0  3  0  0  0  0  0  0
  185.5270  174.5430  135.3710 O   0  0  0  0  0  1  0  0  0  0  0  0
  185.8600  173.7820  136.4860 C   0  0  0  0  0  0  0  0  0  0  0  0
  184.2820  172.1720  137.2390 O   0  0  0  0  0  1  0  0  0  0  0  0
  186.0150  171.3650  135.9800 O   0  0  0  0  0  0  0  0  0  0  0  0
  185.3380  172.4120  136.5940 C   0  0  0  0  0  0  0  0  0  0  0  0
  192.0200  177.5390  140.3370 C   0  0  0  0  0  2  0  0  0  0  0  0
  191.6140  177.2240  141.7640 C   0  0  0  0  0  1  0  0  0  0  0  0
  185.7280  178.9010  138.4110 O   0  0  0  0  0  0  0  0  0  0  0  0
  185.9610  178.9250  139.7070 O   0  0  0  0  0  0  0  0  0  0  0  0
  184.6960  178.9390  140.2990 C   0  0  0  0  0  1  0  0  0  0  0  0
  1 28  1  6  0  0  0
  2  1  1  0  0  0  0
  3 11  1  0  0  0  0
  4 21  1  0  0  0  0
  5  2  1  0  0  0  0
  7  6  1  6  0  0  0
  7 14  1  0  0  0  0
  7 18  1  0  0  0  0
  7 13  1  0  0  0  0
  8  3  1  0  0  0  0
  9 13  1  0  0  0  0
  9 17  1  0  0  0  0
  9 12  1  1  0  0  0
 10  8  1  0  0  0  0
 10 14  1  0  0  0  0
 11 19  1  1  0  0  0
 11  1  1  0  0  0  0
 13 22  1  6  0  0  0
 15 17  1  0  0  0  0
 16  3  1  0  0  0  0
 17 30  1  6  0  0  0
 18  5  1  1  0  0  0
 20  4  1  0  0  0  0
 20  6  1  0  0  0  0
 21 15  1  1  0  0  0
 21 18  1  0  0  0  0
 23 24  1  0  0  0  0
 24 27  1  0  0  0  0
 24 22  2  0  0  0  0
 26 27  2  0  0  0  0
 27 25  1  0  0  0  0
 28 29  1  0  0  0  0
 30 31  1  0  0  0  0
 31 32  1  0  0  0  0
M  END
>  <MODEL>
5

>  <REMARK>
 VINA RESULT:      -4.1      5.418      9.537
  Name = 
  5 active torsions:
  status: ('A' for Active; 'I' for Inactive)
    1  A    between atoms: O_1  and  O_4
    2  A    between atoms: O_1  and  C_27
    3  A    between atoms: C_2  and  C_14
    4  A    between atoms: C_3  and  C_22
    5  A    between atoms: C_19  and  C_26
                            x       y       z     vdW  Elec       q    Type
                         _______ _______ _______ _____ _____    ______ ____

>  <TORSDO>
F 5

$$$$
=
 OpenBabel11052414313D

 32 34  0  0  1  0  0  0  0  0999 V2000
  184.5750  172.3830  137.2190 C   0  0  1  0  0  3  0  0  0  0  0  0
  184.5610  173.7690  137.8790 C   0  0  0  0  0  2  0  0  0  0  0  0
  182.4960  173.1800  136.0180 N   0  0  0  0  0  0  0  0  0  0  0  0
  183.0050  177.5150  134.9680 O   0  0  0  0  0  0  0  0  0  0  0  0
  184.9410  174.9070  136.9370 C   0  0  0  0  0  2  0  0  0  0  0  0
  181.7950  177.3230  137.0510 C   0  0  0  0  0  2  0  0  0  0  0  0
  182.8310  176.3270  137.6410 C   0  0  1  0  0  0  0  0  0  0  0  0
  181.5570  173.2140  137.1350 C   0  0  0  0  0  2  0  0  0  0  0  0
  184.5350  178.2620  138.2500 C   0  0  2  0  0  3  0  0  0  0  0  0
  181.1940  174.6580  137.4510 C   0  0  0  0  0  2  0  0  0  0  0  0
  183.4910  172.1050  136.1630 C   0  0  2  0  0  3  0  0  0  0  0  0
  185.0500  178.9480  139.3560 O   0  0  0  0  0  1  0  0  0  0  0  0
  183.6980  177.0480  138.7200 C   0  0  1  0  0  3  0  0  0  0  0  0
  182.1650  175.2460  138.2910 O   0  0  0  0  0  0  0  0  0  0  0  0
  185.2710  177.8170  135.8660 C   0  0  0  0  0  2  0  0  0  0  0  0
  181.7390  172.9620  134.7940 C   0  0  0  0  0  1  0  0  0  0  0  0
  185.6810  177.8080  137.3370 C   0  0  1  0  0  3  0  0  0  0  0  0
  183.7380  175.7650  136.5050 C   0  0  1  0  0  3  0  0  0  0  0  0
  182.8720  170.7250  136.3910 C   0  0  0  0  0  1  0  0  0  0  0  0
  182.4120  178.2530  136.0100 C   0  0  0  0  0  2  0  0  0  0  0  0
  184.1370  176.8440  135.4820 C   0  0  1  0  0  3  0  0  0  0  0  0
  182.9520  177.2830  140.0160 C   0  0  0  0  0  3  0  0  0  0  0  0
  181.9460  179.3150  139.3150 O   0  0  0  0  0  1  0  0  0  0  0  0
  182.1430  178.3190  140.2650 C   0  0  0  0  0  0  0  0  0  0  0  0
  182.0080  179.0030  142.5380 O   0  0  0  0  0  1  0  0  0  0  0  0
  180.1880  177.8850  141.7160 O   0  0  0  0  0  0  0  0  0  0  0  0
  181.4580  178.4270  141.5610 C   0  0  0  0  0  0  0  0  0  0  0  0
  185.9500  172.0130  136.6770 C   0  0  0  0  0  2  0  0  0  0  0  0
  185.9240  171.9480  135.1610 C   0  0  0  0  0  1  0  0  0  0  0  0
  186.8060  178.6280  137.4910 O   0  0  0  0  0  0  0  0  0  0  0  0
  187.8290  177.7990  137.5240 O   0  0  0  0  0  0  0  0  0  0  0  0
  188.9470  178.6160  137.7050 C   0  0  0  0  0  1  0  0  0  0  0  0
  1 28  1  6  0  0  0
  1  2  1  0  0  0  0
  3 11  1  0  0  0  0
  3  8  1  0  0  0  0
  4 21  1  0  0  0  0
  4 20  1  0  0  0  0
  5  2  1  0  0  0  0
  7  6  1  6  0  0  0
  7 14  1  0  0  0  0
  7 13  1  0  0  0  0
  8 10  1  0  0  0  0
  9 13  1  0  0  0  0
  9 12  1  1  0  0  0
 10 14  1  0  0  0  0
 11 19  1  1  0  0  0
 11  1  1  0  0  0  0
 13 22  1  1  0  0  0
 15 17  1  0  0  0  0
 16  3  1  0  0  0  0
 17 30  1  6  0  0  0
 17  9  1  0  0  0  0
 18  5  1  1  0  0  0
 18  7  1  0  0  0  0
 20  6  1  0  0  0  0
 21 15  1  1  0  0  0
 21 18  1  0  0  0  0
 22 24  2  0  0  0  0
 23 24  1  0  0  0  0
 24 27  1  0  0  0  0
 27 26  2  0  0  0  0
 27 25  1  0  0  0  0
 29 28  1  0  0  0  0
 30 31  1  0  0  0  0
 31 32  1  0  0  0  0
M  END
>  <MODEL>
6

>  <REMARK>
 VINA RESULT:      -3.9      3.489      6.540
  Name = 
  5 active torsions:
  status: ('A' for Active; 'I' for Inactive)
    1  A    between atoms: O_1  and  O_4
    2  A    between atoms: O_1  and  C_27
    3  A    between atoms: C_2  and  C_14
    4  A    between atoms: C_3  and  C_22
    5  A    between atoms: C_19  and  C_26
                            x       y       z     vdW  Elec       q    Type
                         _______ _______ _______ _____ _____    ______ ____

>  <TORSDO>
F 5

$$$$
=
 OpenBabel11052414313D

 32 34  0  0  1  0  0  0  0  0999 V2000
  183.8220  178.8100  142.5280 C   0  0  1  0  0  3  0  0  0  0  0  0
  183.4500  178.8670  141.0400 C   0  0  0  0  0  2  0  0  0  0  0  0
  181.3390  178.5140  142.9090 N   0  0  0  0  0  0  0  0  0  0  0  0
  179.6790  175.9010  139.6590 O   0  0  0  0  0  0  0  0  0  0  0  0
  183.0180  177.5250  140.4580 C   0  0  0  0  0  2  0  0  0  0  0  0
  179.3670  178.2230  139.0690 C   0  0  0  0  0  2  0  0  0  0  0  0
  180.8470  178.5750  139.3870 C   0  0  1  0  0  0  0  0  0  0  0  0
  180.8670  179.8470  142.5420 C   0  0  0  0  0  2  0  0  0  0  0  0
  181.7080  177.6020  137.0780 C   0  0  2  0  0  3  0  0  0  0  0  0
  180.0640  179.7640  141.2520 C   0  0  0  0  0  2  0  0  0  0  0  0
  182.6770  178.5500  143.5220 C   0  0  2  0  0  3  0  0  0  0  0  0
  182.2140  178.0230  135.8430 O   0  0  0  0  0  1  0  0  0  0  0  0
  181.6320  178.7980  138.0570 C   0  0  1  0  0  3  0  0  0  0  0  0
  180.9190  179.7920  140.1280 O   0  0  0  0  0  0  0  0  0  0  0  0
  181.7800  175.4780  138.4580 C   0  0  0  0  0  2  0  0  0  0  0  0
  180.3970  177.9450  143.8620 C   0  0  0  0  0  1  0  0  0  0  0  0
  182.5930  176.4880  137.6530 C   0  0  1  0  0  3  0  0  0  0  0  0
  181.5010  177.4280  140.2160 C   0  0  1  0  0  3  0  0  0  0  0  0
  182.7800  179.5070  144.7100 C   0  0  0  0  0  1  0  0  0  0  0  0
  179.1930  176.7640  138.6580 C   0  0  0  0  0  2  0  0  0  0  0  0
  181.0840  176.0310  139.7200 C   0  0  1  0  0  3  0  0  0  0  0  0
  181.2990  180.1150  137.3900 C   0  0  0  0  0  3  0  0  0  0  0  0
  179.3910  179.2950  136.2430 O   0  0  0  0  0  1  0  0  0  0  0  0
  180.2610  180.3280  136.5740 C   0  0  0  0  0  0  0  0  0  0  0  0
  180.8220  182.6140  136.2420 O   0  0  0  0  0  1  0  0  0  0  0  0
  178.9310  181.8810  135.1820 O   0  0  0  0  0  0  0  0  0  0  0  0
  180.0320  181.6620  136.0010 C   0  0  0  0  0  0  0  0  0  0  0  0
  184.9850  177.8630  142.7980 C   0  0  0  0  0  2  0  0  0  0  0  0
  186.2690  178.4160  142.2100 C   0  0  0  0  0  1  0  0  0  0  0  0
  183.2710  175.8050  136.6360 O   0  0  0  0  0  0  0  0  0  0  0  0
  184.4910  175.6280  137.1000 O   0  0  0  0  0  0  0  0  0  0  0  0
  185.3250  176.2420  136.1630 C   0  0  0  0  0  1  0  0  0  0  0  0
  1 28  1  6  0  0  0
  1 11  1  0  0  0  0
  2  1  1  0  0  0  0
  3 11  1  0  0  0  0
  3 16  1  0  0  0  0
  4 21  1  0  0  0  0
  5  2  1  0  0  0  0
  7  6  1  6  0  0  0
  7 14  1  0  0  0  0
  7 18  1  0  0  0  0
  8  3  1  0  0  0  0
  9 12  1  6  0  0  0
  9 17  1  0  0  0  0
  9 13  1  0  0  0  0
 10  8  1  0  0  0  0
 11 19  1  1  0  0  0
 13 22  1  6  0  0  0
 13  7  1  0  0  0  0
 14 10  1  0  0  0  0
 17 30  1  6  0  0  0
 17 15  1  0  0  0  0
 18  5  1  6  0  0  0
 20  6  1  0  0  0  0
 20  4  1  0  0  0  0
 21 15  1  6  0  0  0
 21 18  1  0  0  0  0
 23 24  1  0  0  0  0
 24 22  2  0  0  0  0
 26 27  2  0  0  0  0
 27 25  1  0  0  0  0
 27 24  1  0  0  0  0
 29 28  1  0  0  0  0
 30 31  1  0  0  0  0
 32 31  1  0  0  0  0
M  END
>  <MODEL>
7

>  <REMARK>
 VINA RESULT:      -3.9      1.067      1.449
  Name = 
  5 active torsions:
  status: ('A' for Active; 'I' for Inactive)
    1  A    between atoms: O_1  and  O_4
    2  A    between atoms: O_1  and  C_27
    3  A    between atoms: C_2  and  C_14
    4  A    between atoms: C_3  and  C_22
    5  A    between atoms: C_19  and  C_26
                            x       y       z     vdW  Elec       q    Type
                         _______ _______ _______ _____ _____    ______ ____

>  <TORSDO>
F 5

$$$$
=
 OpenBabel11052414313D

 32 34  0  0  1  0  0  0  0  0999 V2000
  190.6590  176.0030  138.8240 C   0  0  1  0  0  3  0  0  0  0  0  0
  189.1290  175.9400  138.7150 C   0  0  0  0  0  2  0  0  0  0  0  0
  190.6240  175.8430  136.3000 N   0  0  0  0  0  0  0  0  0  0  0  0
  187.1670  178.2500  134.7480 O   0  0  0  0  0  0  0  0  0  0  0  0
  188.4960  177.2070  138.1490 C   0  0  0  0  0  2  0  0  0  0  0  0
  186.5110  175.9340  134.9580 C   0  0  0  0  0  2  0  0  0  0  0  0
  187.0680  175.8350  136.4050 C   0  0  1  0  0  0  0  0  0  0  0  0
  190.1700  174.4640  136.1410 C   0  0  0  0  0  2  0  0  0  0  0  0
  184.9450  177.0340  137.4410 C   0  0  2  0  0  3  0  0  0  0  0  0
  188.7650  174.4550  135.5570 C   0  0  0  0  0  2  0  0  0  0  0  0
  191.4500  176.0180  137.5050 C   0  0  2  0  0  3  0  0  0  0  0  0
  183.8080  176.7570  138.2080 O   0  0  0  0  0  1  0  0  0  0  0  0
  185.8860  175.8050  137.4230 C   0  0  1  0  0  3  0  0  0  0  0  0
  187.7990  174.6220  136.5740 O   0  0  0  0  0  0  0  0  0  0  0  0
  186.3380  179.0820  136.9050 C   0  0  0  0  0  2  0  0  0  0  0  0
  191.4120  176.2010  135.1290 C   0  0  0  0  0  1  0  0  0  0  0  0
  185.6700  178.2620  138.0060 C   0  0  1  0  0  3  0  0  0  0  0  0
  188.0060  177.0460  136.6990 C   0  0  1  0  0  3  0  0  0  0  0  0
  192.6300  175.0490  137.5840 C   0  0  0  0  0  1  0  0  0  0  0  0
  186.0910  177.3550  134.5940 C   0  0  0  0  0  2  0  0  0  0  0  0
  187.4600  178.3660  136.1250 C   0  0  1  0  0  3  0  0  0  0  0  0
  185.1600  174.4770  137.4450 C   0  0  0  0  0  3  0  0  0  0  0  0
  183.6720  175.0210  135.6780 O   0  0  0  0  0  1  0  0  0  0  0  0
  184.1580  174.1300  136.6290 C   0  0  0  0  0  0  0  0  0  0  0  0
  184.1900  171.8250  137.2080 O   0  0  0  0  0  1  0  0  0  0  0  0
  182.2350  172.6070  136.3120 O   0  0  0  0  0  0  0  0  0  0  0  0
  183.5440  172.7990  136.7370 C   0  0  0  0  0  0  0  0  0  0  0  0
  191.1290  177.1280  139.7380 C   0  0  0  0  0  2  0  0  0  0  0  0
  190.5540  176.9560  141.1310 C   0  0  0  0  0  1  0  0  0  0  0  0
  184.7860  179.0930  138.7070 O   0  0  0  0  0  0  0  0  0  0  0  0
  185.4080  179.3780  139.8330 O   0  0  0  0  0  0  0  0  0  0  0  0
  184.5420  178.9470  140.8400 C   0  0  0  0  0  1  0  0  0  0  0  0
  1 28  1  6  0  0  0
  2  1  1  0  0  0  0
  3 11  1  0  0  0  0
  4 21  1  0  0  0  0
  5  2  1  0  0  0  0
  7  6  1  6  0  0  0
  7 14  1  0  0  0  0
  7 18  1  0  0  0  0
  7 13  1  0  0  0  0
  8  3  1  0  0  0  0
  9 17  1  0  0  0  0
  9 12  1  1  0  0  0
 10  8  1  0  0  0  0
 10 14  1  0  0  0  0
 11 19  1  1  0  0  0
 11  1  1  0  0  0  0
 13  9  1  0  0  0  0
 13 22  1  6  0  0  0
 15 17  1  0  0  0  0
 16  3  1  0  0  0  0
 17 30  1  6  0  0  0
 18  5  1  1  0  0  0
 20  4  1  0  0  0  0
 20  6  1  0  0  0  0
 21 18  1  0  0  0  0
 21 15  1  1  0  0  0
 23 24  1  0  0  0  0
 24 27  1  0  0  0  0
 24 22  2  0  0  0  0
 26 27  2  0  0  0  0
 27 25  1  0  0  0  0
 28 29  1  0  0  0  0
 30 31  1  0  0  0  0
 31 32  1  0  0  0  0
M  END
>  <MODEL>
8

>  <REMARK>
 VINA RESULT:      -3.8      4.611      8.704
  Name = 
  5 active torsions:
  status: ('A' for Active; 'I' for Inactive)
    1  A    between atoms: O_1  and  O_4
    2  A    between atoms: O_1  and  C_27
    3  A    between atoms: C_2  and  C_14
    4  A    between atoms: C_3  and  C_22
    5  A    between atoms: C_19  and  C_26
                            x       y       z     vdW  Elec       q    Type
                         _______ _______ _______ _____ _____    ______ ____

>  <TORSDO>
F 5

$$$$
=
 OpenBabel11052414313D

 32 34  0  0  1  0  0  0  0  0999 V2000
  186.0100  172.6620  135.9970 C   0  0  1  0  0  3  0  0  0  0  0  0
  187.0320  173.6050  136.6460 C   0  0  0  0  0  2  0  0  0  0  0  0
  184.6210  174.7510  135.6720 N   0  0  0  0  0  0  0  0  0  0  0  0
  187.3510  178.1510  134.6080 O   0  0  0  0  0  0  0  0  0  0  0  0
  187.7440  174.5230  135.6570 C   0  0  0  0  0  2  0  0  0  0  0  0
  186.9230  178.1710  136.9860 C   0  0  0  0  0  2  0  0  0  0  0  0
  187.2470  176.6580  137.1270 C   0  0  1  0  0  0  0  0  0  0  0  0
  184.2600  175.0320  137.0590 C   0  0  0  0  0  2  0  0  0  0  0  0
  189.8620  177.0860  137.1030 C   0  0  2  0  0  3  0  0  0  0  0  0
  184.9620  176.3010  137.5200 C   0  0  0  0  0  2  0  0  0  0  0  0
  184.7410  173.3070  135.4130 C   0  0  2  0  0  3  0  0  0  0  0  0
  190.9730  177.0700  137.9540 O   0  0  0  0  0  1  0  0  0  0  0  0
  188.6330  176.4800  137.8220 C   0  0  1  0  0  3  0  0  0  0  0  0
  186.2770  176.0170  137.9520 O   0  0  0  0  0  0  0  0  0  0  0  0
  189.4650  176.9020  134.6070 C   0  0  0  0  0  2  0  0  0  0  0  0
  183.5830  175.3010  134.8120 C   0  0  0  0  0  1  0  0  0  0  0  0
  190.1760  176.3060  135.8200 C   0  0  1  0  0  3  0  0  0  0  0  0
  187.2560  175.9810  135.7220 C   0  0  1  0  0  3  0  0  0  0  0  0
  183.5040  172.5060  135.8220 C   0  0  0  0  0  1  0  0  0  0  0  0
  187.6550  178.8150  135.8120 C   0  0  0  0  0  2  0  0  0  0  0  0
  187.9230  176.8610  134.6490 C   0  0  1  0  0  3  0  0  0  0  0  0
  188.5880  176.7680  139.3080 C   0  0  0  0  0  3  0  0  0  0  0  0
  188.8150  179.1180  139.0730 O   0  0  0  0  0  1  0  0  0  0  0  0
  188.6580  177.9830  139.8620 C   0  0  0  0  0  0  0  0  0  0  0  0
  189.6130  178.0040  142.0380 O   0  0  0  0  0  1  0  0  0  0  0  0
  187.3670  178.4280  141.9240 O   0  0  0  0  0  0  0  0  0  0  0  0
  188.5850  178.1360  141.3210 C   0  0  0  0  0  0  0  0  0  0  0  0
  186.6500  171.7300  134.9750 C   0  0  0  0  0  2  0  0  0  0  0  0
  187.5930  170.7580  135.6590 C   0  0  0  0  0  1  0  0  0  0  0  0
  191.5530  176.2870  135.5640 O   0  0  0  0  0  0  0  0  0  0  0  0
  191.8700  175.0100  135.5030 O   0  0  0  0  0  0  0  0  0  0  0  0
  193.1660  174.9370  136.0170 C   0  0  0  0  0  1  0  0  0  0  0  0
  1 28  1  6  0  0  0
  1  2  1  0  0  0  0
  3  8  1  0  0  0  0
  4 21  1  0  0  0  0
  4 20  1  0  0  0  0
  5  2  1  0  0  0  0
  7  6  1  6  0  0  0
  7 13  1  0  0  0  0
  7 14  1  0  0  0  0
  8 10  1  0  0  0  0
  9 13  1  0  0  0  0
  9 12  1  1  0  0  0
 10 14  1  0  0  0  0
 11  3  1  0  0  0  0
 11 19  1  1  0  0  0
 11  1  1  0  0  0  0
 13 22  1  1  0  0  0
 15 17  1  0  0  0  0
 16  3  1  0  0  0  0
 17 30  1  6  0  0  0
 17  9  1  0  0  0  0
 18  5  1  1  0  0  0
 18  7  1  0  0  0  0
 20  6  1  0  0  0  0
 21 15  1  1  0  0  0
 21 18  1  0  0  0  0
 22 24  2  0  0  0  0
 23 24  1  0  0  0  0
 24 27  1  0  0  0  0
 27 26  2  0  0  0  0
 27 25  1  0  0  0  0
 28 29  1  0  0  0  0
 31 30  1  0  0  0  0
 31 32  1  0  0  0  0
M  END
>  <MODEL>
9

>  <REMARK>
 VINA RESULT:      -3.7      5.978      8.920
  Name = 
  5 active torsions:
  status: ('A' for Active; 'I' for Inactive)
    1  A    between atoms: O_1  and  O_4
    2  A    between atoms: O_1  and  C_27
    3  A    between atoms: C_2  and  C_14
    4  A    between atoms: C_3  and  C_22
    5  A    between atoms: C_19  and  C_26
                            x       y       z     vdW  Elec       q    Type
                         _______ _______ _______ _____ _____    ______ ____

>  <TORSDO>
F 5

$$$$
