=
 OpenBabel11052414263D

 34 38  0  0  1  0  0  0  0  0999 V2000
  190.1740  177.0900  146.6870 C   0  0  0  0  0  0  0  0  0  0  0  0
  191.5260  175.7310  145.2010 C   0  0  0  0  0  0  0  0  0  0  0  0
  189.5750  177.0700  144.3070 C   0  0  0  0  0  0  0  0  0  0  0  0
  188.9430  177.3540  141.9630 C   0  0  0  0  0  0  0  0  0  0  0  0
  191.0690  176.8360  147.7290 C   0  0  0  0  0  3  0  0  0  0  0  0
  192.4170  175.4930  146.2520 C   0  0  0  0  0  3  0  0  0  0  0  0
  191.3980  177.0760  142.5020 C   0  0  0  0  0  2  0  0  0  0  0  0
  190.4510  176.6500  145.3640 C   0  0  0  0  0  0  0  0  0  0  0  0
  191.6390  177.5480  141.0730 C   0  0  0  0  0  2  0  0  0  0  0  0
  189.2450  177.4050  140.4900 C   0  0  0  0  0  2  0  0  0  0  0  0
  192.2070  176.0670  147.5030 C   0  0  0  0  0  3  0  0  0  0  0  0
  188.2900  177.5750  144.6600 C   0  0  0  0  0  0  0  0  0  0  0  0
  188.9750  177.7220  146.9860 C   0  0  0  0  0  3  0  0  0  0  0  0
  191.6650  174.9570  144.0560 O   0  0  0  0  0  1  0  0  0  0  0  0
  187.6850  177.6720  142.3540 N   0  0  0  0  0  0  0  0  0  0  0  0
  187.3220  177.8030  143.6540 C   0  0  0  0  0  0  0  0  0  0  0  0
  190.6360  176.8810  140.1530 C   0  0  1  0  0  3  0  0  0  0  0  0
  189.9440  177.1180  142.9320 C   0  0  0  0  0  0  0  0  0  0  0  0
  188.0290  177.9240  145.9920 C   0  0  0  0  0  3  0  0  0  0  0  0
  183.6600  178.6150  143.1320 C   0  0  0  0  0  0  0  0  0  0  0  0
  183.2340  178.8760  144.4360 C   0  0  0  0  0  3  0  0  0  0  0  0
  185.9190  178.2050  143.9390 C   0  0  0  0  0  0  0  0  0  0  0  0
  184.1410  178.7940  145.4950 C   0  0  0  0  0  3  0  0  0  0  0  0
  184.9930  178.2760  142.8860 C   0  0  0  0  0  3  0  0  0  0  0  0
  185.4740  178.4540  145.2480 C   0  0  0  0  0  3  0  0  0  0  0  0
  182.7790  178.6880  142.1050 F   0  0  0  0  0  0  0  0  0  0  0  0
  190.9820  177.2030  138.7100 C   0  0  0  0  0  2  0  0  0  0  0  0
  190.5640  176.0630  137.7990 C   0  0  0  0  0  2  0  0  0  0  0  0
  191.4140  173.8580  137.5720 O   0  0  0  0  0  0  0  0  0  0  0  0
  195.3390  175.3150  137.6330 O   0  0  0  0  0  0  0  0  0  0  0  0
  194.2140  174.7550  137.5930 C   0  0  0  0  0  0  0  0  0  0  0  0
  193.0300  175.5570  137.6930 N   0  0  0  0  0  2  0  0  0  0  0  0
  191.6780  175.0860  137.6700 C   0  0  0  0  0  0  0  0  0  0  0  0
  194.1570  173.2720  137.4400 C   0  0  0  0  0  1  0  0  0  0  0  0
  1 13  1  0  0  0  0
  1  5  2  0  0  0  0
  2  8  2  0  0  0  0
  2  6  1  0  0  0  0
  3 12  1  0  0  0  0
  3  8  1  0  0  0  0
  4 15  2  0  0  0  0
  4 18  1  0  0  0  0
  6 11  2  0  0  0  0
  7 18  1  0  0  0  0
  8  1  1  0  0  0  0
  9  7  1  0  0  0  0
 10  4  1  0  0  0  0
 11  5  1  0  0  0  0
 12 19  1  0  0  0  0
 14  2  1  0  0  0  0
 15 16  1  0  0  0  0
 16 22  1  0  0  0  0
 16 12  2  0  0  0  0
 17 27  1  6  0  0  0
 17 10  1  0  0  0  0
 17  9  1  0  0  0  0
 18  3  2  0  0  0  0
 19 13  2  0  0  0  0
 20 21  1  0  0  0  0
 21 23  2  0  0  0  0
 22 25  2  0  0  0  0
 24 20  2  0  0  0  0
 24 22  1  0  0  0  0
 25 23  1  0  0  0  0
 26 20  1  0  0  0  0
 28 27  1  0  0  0  0
 29 33  2  0  0  0  0
 31 30  2  0  0  0  0
 31 32  1  0  0  0  0
 33 32  1  0  0  0  0
 33 28  1  0  0  0  0
 34 31  1  0  0  0  0
M  END
>  <MODEL>
1

>  <REMARK>
 VINA RESULT:     -11.8      0.000      0.000
  Name = 
  4 active torsions:
  status: ('A' for Active; 'I' for Inactive)
    1  A    between atoms: C_3  and  C_13
    2  A    between atoms: C_3  and  C_29
    3  A    between atoms: C_12  and  C_28
    4  A    between atoms: C_13  and  C_33
                            x       y       z     vdW  Elec       q    Type
                         _______ _______ _______ _____ _____    ______ ____

>  <TORSDO>
F 4

$$$$
=
 OpenBabel11052414263D

 34 38  0  0  1  0  0  0  0  0999 V2000
  190.1520  177.1020  146.6640 C   0  0  0  0  0  0  0  0  0  0  0  0
  191.5180  175.7310  145.2020 C   0  0  0  0  0  0  0  0  0  0  0  0
  189.5790  177.0670  144.2780 C   0  0  0  0  0  0  0  0  0  0  0  0
  188.9730  177.3360  141.9250 C   0  0  0  0  0  0  0  0  0  0  0  0
  191.0350  176.8550  147.7170 C   0  0  0  0  0  3  0  0  0  0  0  0
  192.3970  175.5000  146.2640 C   0  0  0  0  0  3  0  0  0  0  0  0
  191.4220  177.0580  142.4930 C   0  0  0  0  0  2  0  0  0  0  0  0
  190.4430  176.6530  145.3470 C   0  0  0  0  0  0  0  0  0  0  0  0
  191.6800  177.5200  141.0630 C   0  0  0  0  0  2  0  0  0  0  0  0
  189.2920  177.3760  140.4550 C   0  0  0  0  0  2  0  0  0  0  0  0
  192.1750  176.0820  147.5090 C   0  0  0  0  0  3  0  0  0  0  0  0
  188.2910  177.5760  144.6130 C   0  0  0  0  0  0  0  0  0  0  0  0
  188.9500  177.7380  146.9450 C   0  0  0  0  0  3  0  0  0  0  0  0
  191.6690  174.9490  144.0640 O   0  0  0  0  0  1  0  0  0  0  0  0
  187.7120  177.6580  142.2990 N   0  0  0  0  0  0  0  0  0  0  0  0
  187.3340  177.7990  143.5950 C   0  0  0  0  0  0  0  0  0  0  0  0
  190.6860  176.8480  140.1370 C   0  0  1  0  0  3  0  0  0  0  0  0
  189.9640  177.1050  142.9070 C   0  0  0  0  0  0  0  0  0  0  0  0
  188.0160  177.9340  145.9390 C   0  0  0  0  0  3  0  0  0  0  0  0
  183.6840  178.6290  143.0230 C   0  0  0  0  0  0  0  0  0  0  0  0
  183.2390  178.8830  144.3230 C   0  0  0  0  0  3  0  0  0  0  0  0
  185.9290  178.2040  143.8610 C   0  0  0  0  0  0  0  0  0  0  0  0
  184.1300  178.7900  145.3940 C   0  0  0  0  0  3  0  0  0  0  0  0
  185.0190  178.2860  142.7950 C   0  0  0  0  0  3  0  0  0  0  0  0
  185.4650  178.4470  145.1650 C   0  0  0  0  0  3  0  0  0  0  0  0
  182.8190  178.7130  141.9830 F   0  0  0  0  0  0  0  0  0  0  0  0
  191.0480  177.1600  138.6960 C   0  0  0  0  0  2  0  0  0  0  0  0
  191.5040  175.9000  137.9810 C   0  0  0  0  0  2  0  0  0  0  0  0
  190.3910  173.8400  137.5950 O   0  0  0  0  0  0  0  0  0  0  0  0
  186.9660  175.8790  136.3080 O   0  0  0  0  0  0  0  0  0  0  0  0
  187.9230  175.1520  136.6800 C   0  0  0  0  0  0  0  0  0  0  0  0
  189.1390  175.7690  137.1200 N   0  0  0  0  0  2  0  0  0  0  0  0
  190.3220  175.0970  137.5690 C   0  0  0  0  0  0  0  0  0  0  0  0
  187.7520  173.6700  136.6480 C   0  0  0  0  0  1  0  0  0  0  0  0
  1 13  1  0  0  0  0
  1  5  2  0  0  0  0
  2  8  2  0  0  0  0
  2  6  1  0  0  0  0
  3 12  1  0  0  0  0
  3  8  1  0  0  0  0
  4 15  2  0  0  0  0
  4 18  1  0  0  0  0
  6 11  2  0  0  0  0
  7 18  1  0  0  0  0
  8  1  1  0  0  0  0
  9  7  1  0  0  0  0
 10  4  1  0  0  0  0
 11  5  1  0  0  0  0
 12 19  1  0  0  0  0
 14  2  1  0  0  0  0
 15 16  1  0  0  0  0
 16 22  1  0  0  0  0
 16 12  2  0  0  0  0
 17 27  1  6  0  0  0
 17 10  1  0  0  0  0
 17  9  1  0  0  0  0
 18  3  2  0  0  0  0
 19 13  2  0  0  0  0
 20 21  1  0  0  0  0
 21 23  2  0  0  0  0
 22 25  2  0  0  0  0
 24 20  2  0  0  0  0
 24 22  1  0  0  0  0
 25 23  1  0  0  0  0
 26 20  1  0  0  0  0
 28 27  1  0  0  0  0
 30 31  2  0  0  0  0
 31 32  1  0  0  0  0
 32 33  1  0  0  0  0
 33 29  2  0  0  0  0
 33 28  1  0  0  0  0
 34 31  1  0  0  0  0
M  END
>  <MODEL>
2

>  <REMARK>
 VINA RESULT:     -11.7      1.416      2.262
  Name = 
  4 active torsions:
  status: ('A' for Active; 'I' for Inactive)
    1  A    between atoms: C_3  and  C_13
    2  A    between atoms: C_3  and  C_29
    3  A    between atoms: C_12  and  C_28
    4  A    between atoms: C_13  and  C_33
                            x       y       z     vdW  Elec       q    Type
                         _______ _______ _______ _____ _____    ______ ____

>  <TORSDO>
F 4

$$$$
=
 OpenBabel11052414263D

 34 38  0  0  1  0  0  0  0  0999 V2000
  186.9730  178.4980  147.0500 C   0  0  0  0  0  0  0  0  0  0  0  0
  188.9400  177.1580  146.5810 C   0  0  0  0  0  0  0  0  0  0  0  0
  187.4640  177.9840  144.7010 C   0  0  0  0  0  0  0  0  0  0  0  0
  187.8860  177.7660  142.3030 C   0  0  0  0  0  0  0  0  0  0  0  0
  187.3480  178.5750  148.3930 C   0  0  0  0  0  3  0  0  0  0  0  0
  189.3050  177.2510  147.9280 C   0  0  0  0  0  3  0  0  0  0  0  0
  189.8800  177.9970  143.8390 C   0  0  0  0  0  2  0  0  0  0  0  0
  187.8290  177.8980  146.0860 C   0  0  0  0  0  0  0  0  0  0  0  0
  190.6760  178.2590  142.5660 C   0  0  0  0  0  2  0  0  0  0  0  0
  188.7890  177.6210  141.1080 C   0  0  0  0  0  2  0  0  0  0  0  0
  188.5300  177.9810  148.8250 C   0  0  0  0  0  3  0  0  0  0  0  0
  186.1160  178.3170  144.3800 C   0  0  0  0  0  0  0  0  0  0  0  0
  185.7150  178.9600  146.6870 C   0  0  0  0  0  3  0  0  0  0  0  0
  189.6230  176.2400  145.7950 O   0  0  0  0  0  1  0  0  0  0  0  0
  186.5620  177.9280  142.0680 N   0  0  0  0  0  0  0  0  0  0  0  0
  185.6630  178.2100  143.0440 C   0  0  0  0  0  0  0  0  0  0  0  0
  190.2270  177.2900  141.4900 C   0  0  1  0  0  3  0  0  0  0  0  0
  188.3860  177.8640  143.6210 C   0  0  0  0  0  0  0  0  0  0  0  0
  185.2780  178.8330  145.3770 C   0  0  0  0  0  3  0  0  0  0  0  0
  182.5190  178.2400  140.9320 C   0  0  0  0  0  0  0  0  0  0  0  0
  181.5640  178.6940  141.8440 C   0  0  0  0  0  3  0  0  0  0  0  0
  184.2460  178.4110  142.6380 C   0  0  0  0  0  0  0  0  0  0  0  0
  181.9410  178.9990  143.1540 C   0  0  0  0  0  3  0  0  0  0  0  0
  183.8510  178.0940  141.3290 C   0  0  0  0  0  3  0  0  0  0  0  0
  183.2730  178.8530  143.5490 C   0  0  0  0  0  3  0  0  0  0  0  0
  182.1540  177.9370  139.6630 F   0  0  0  0  0  0  0  0  0  0  0  0
  191.1340  177.4220  140.2810 C   0  0  0  0  0  2  0  0  0  0  0  0
  190.4360  176.9020  139.0370 C   0  0  0  0  0  2  0  0  0  0  0  0
  190.8220  174.7250  138.1710 O   0  0  0  0  0  0  0  0  0  0  0  0
  194.7270  175.7940  137.1010 O   0  0  0  0  0  0  0  0  0  0  0  0
  193.5780  175.3530  137.3630 C   0  0  0  0  0  0  0  0  0  0  0  0
  192.6280  176.2170  137.9990 N   0  0  0  0  0  2  0  0  0  0  0  0
  191.2860  175.8800  138.3710 C   0  0  0  0  0  0  0  0  0  0  0  0
  193.2510  173.9440  136.9990 C   0  0  0  0  0  1  0  0  0  0  0  0
  1  5  2  0  0  0  0
  2  6  1  0  0  0  0
  3  8  1  0  0  0  0
  4 18  1  0  0  0  0
  5 11  1  0  0  0  0
  6 11  2  0  0  0  0
  8  2  2  0  0  0  0
  8  1  1  0  0  0  0
  9  7  1  0  0  0  0
 10 17  1  0  0  0  0
 10  4  1  0  0  0  0
 12  3  1  0  0  0  0
 12 19  1  0  0  0  0
 13  1  1  0  0  0  0
 14  2  1  0  0  0  0
 15  4  2  0  0  0  0
 15 16  1  0  0  0  0
 16 12  2  0  0  0  0
 17 27  1  6  0  0  0
 17  9  1  0  0  0  0
 18  7  1  0  0  0  0
 18  3  2  0  0  0  0
 19 13  2  0  0  0  0
 20 24  2  0  0  0  0
 20 21  1  0  0  0  0
 21 23  2  0  0  0  0
 22 16  1  0  0  0  0
 22 25  2  0  0  0  0
 23 25  1  0  0  0  0
 24 22  1  0  0  0  0
 26 20  1  0  0  0  0
 28 27  1  0  0  0  0
 29 33  2  0  0  0  0
 30 31  2  0  0  0  0
 31 32  1  0  0  0  0
 32 33  1  0  0  0  0
 33 28  1  0  0  0  0
 34 31  1  0  0  0  0
M  END
>  <MODEL>
3

>  <REMARK>
 VINA RESULT:     -11.3      1.555      2.462
  Name = 
  4 active torsions:
  status: ('A' for Active; 'I' for Inactive)
    1  A    between atoms: C_3  and  C_13
    2  A    between atoms: C_3  and  C_29
    3  A    between atoms: C_12  and  C_28
    4  A    between atoms: C_13  and  C_33
                            x       y       z     vdW  Elec       q    Type
                         _______ _______ _______ _____ _____    ______ ____

>  <TORSDO>
F 4

$$$$
=
 OpenBabel11052414263D

 34 38  0  0  1  0  0  0  0  0999 V2000
  191.2810  176.1010  145.1040 C   0  0  0  0  0  0  0  0  0  0  0  0
  190.0580  177.4400  146.7140 C   0  0  0  0  0  0  0  0  0  0  0  0
  189.2240  177.2000  144.3390 C   0  0  0  0  0  0  0  0  0  0  0  0
  187.1100  178.0300  143.4360 C   0  0  0  0  0  0  0  0  0  0  0  0
  192.1290  175.6570  146.1210 C   0  0  0  0  0  3  0  0  0  0  0  0
  190.9100  176.9800  147.7230 C   0  0  0  0  0  3  0  0  0  0  0  0
  187.1650  177.3230  145.8630 C   0  0  0  0  0  2  0  0  0  0  0  0
  190.1440  176.9010  145.4000 C   0  0  0  0  0  0  0  0  0  0  0  0
  185.6430  177.3770  145.7860 C   0  0  0  0  0  2  0  0  0  0  0  0
  185.6710  178.4510  143.5640 C   0  0  0  0  0  2  0  0  0  0  0  0
  191.9230  176.0690  147.4350 C   0  0  0  0  0  3  0  0  0  0  0  0
  189.6650  177.0160  142.9960 C   0  0  0  0  0  0  0  0  0  0  0  0
  191.6110  175.8000  143.7900 C   0  0  0  0  0  3  0  0  0  0  0  0
  189.2230  178.5070  147.0200 O   0  0  0  0  0  1  0  0  0  0  0  0
  187.6390  177.9870  142.1900 N   0  0  0  0  0  0  0  0  0  0  0  0
  188.8730  177.4910  141.9230 C   0  0  0  0  0  0  0  0  0  0  0  0
  185.2280  178.6130  145.0130 C   0  0  1  0  0  3  0  0  0  0  0  0
  187.8620  177.5660  144.5390 C   0  0  0  0  0  0  0  0  0  0  0  0
  190.8350  176.2870  142.7490 C   0  0  0  0  0  3  0  0  0  0  0  0
  189.1780  178.3860  138.2560 C   0  0  0  0  0  0  0  0  0  0  0  0
  190.1630  177.4960  137.8230 C   0  0  0  0  0  3  0  0  0  0  0  0
  189.3100  177.4580  140.5020 C   0  0  0  0  0  0  0  0  0  0  0  0
  190.7310  176.5930  138.7250 C   0  0  0  0  0  3  0  0  0  0  0  0
  188.7590  178.3710  139.5890 C   0  0  0  0  0  3  0  0  0  0  0  0
  190.3110  176.5790  140.0570 C   0  0  0  0  0  3  0  0  0  0  0  0
  188.6310  179.2670  137.3850 F   0  0  0  0  0  0  0  0  0  0  0  0
  183.7200  178.7710  145.0860 C   0  0  0  0  0  2  0  0  0  0  0  0
  183.2240  179.6380  143.9430 C   0  0  0  0  0  2  0  0  0  0  0  0
  181.0620  178.6620  144.0390 O   0  0  0  0  0  0  0  0  0  0  0  0
  181.1070  178.0460  139.8970 O   0  0  0  0  0  0  0  0  0  0  0  0
  180.9670  178.1830  141.1390 C   0  0  0  0  0  0  0  0  0  0  0  0
  182.0230  178.7840  141.8990 N   0  0  0  0  0  2  0  0  0  0  0  0
  182.0320  179.0100  143.3130 C   0  0  0  0  0  0  0  0  0  0  0  0
  179.7000  177.7140  141.7730 C   0  0  0  0  0  1  0  0  0  0  0  0
  1  8  1  0  0  0  0
  1  5  2  0  0  0  0
  2 14  1  0  0  0  0
  2  6  1  0  0  0  0
  3 18  1  0  0  0  0
  3  8  1  0  0  0  0
  4 10  1  0  0  0  0
  4 18  2  0  0  0  0
  5 11  1  0  0  0  0
  8  2  2  0  0  0  0
  9  7  1  0  0  0  0
 10 17  1  0  0  0  0
 11  6  2  0  0  0  0
 12  3  2  0  0  0  0
 13  1  1  0  0  0  0
 15  4  1  0  0  0  0
 16 15  2  0  0  0  0
 16 12  1  0  0  0  0
 17 27  1  6  0  0  0
 17  9  1  0  0  0  0
 18  7  1  0  0  0  0
 19 12  1  0  0  0  0
 19 13  2  0  0  0  0
 20 24  1  0  0  0  0
 21 20  2  0  0  0  0
 21 23  1  0  0  0  0
 22 16  1  0  0  0  0
 23 25  2  0  0  0  0
 24 22  2  0  0  0  0
 25 22  1  0  0  0  0
 26 20  1  0  0  0  0
 28 27  1  0  0  0  0
 30 31  2  0  0  0  0
 31 34  1  0  0  0  0
 31 32  1  0  0  0  0
 32 33  1  0  0  0  0
 33 28  1  0  0  0  0
 33 29  2  0  0  0  0
M  END
>  <MODEL>
4

>  <REMARK>
 VINA RESULT:     -11.3      3.642      7.688
  Name = 
  4 active torsions:
  status: ('A' for Active; 'I' for Inactive)
    1  A    between atoms: C_3  and  C_13
    2  A    between atoms: C_3  and  C_29
    3  A    between atoms: C_12  and  C_28
    4  A    between atoms: C_13  and  C_33
                            x       y       z     vdW  Elec       q    Type
                         _______ _______ _______ _____ _____    ______ ____

>  <TORSDO>
F 4

$$$$
=
 OpenBabel11052414263D

 34 38  0  0  1  0  0  0  0  0999 V2000
  187.0420  178.4620  147.1010 C   0  0  0  0  0  0  0  0  0  0  0  0
  189.0110  177.1540  146.5550 C   0  0  0  0  0  0  0  0  0  0  0  0
  187.4600  177.9710  144.7320 C   0  0  0  0  0  0  0  0  0  0  0  0
  187.8020  177.7760  142.3200 C   0  0  0  0  0  0  0  0  0  0  0  0
  187.4620  178.5350  148.4310 C   0  0  0  0  0  3  0  0  0  0  0  0
  189.4210  177.2430  147.8890 C   0  0  0  0  0  3  0  0  0  0  0  0
  189.8450  178.0250  143.7890 C   0  0  0  0  0  2  0  0  0  0  0  0
  187.8740  177.8810  146.1040 C   0  0  0  0  0  0  0  0  0  0  0  0
  190.5930  178.3080  142.4910 C   0  0  0  0  0  2  0  0  0  0  0  0
  188.6660  177.6530  141.0940 C   0  0  0  0  0  2  0  0  0  0  0  0
  188.6670  177.9550  148.8180 C   0  0  0  0  0  3  0  0  0  0  0  0
  186.0970  178.2870  144.4600 C   0  0  0  0  0  0  0  0  0  0  0  0
  185.7660  178.9080  146.7840 C   0  0  0  0  0  3  0  0  0  0  0  0
  189.6800  176.2520  145.7390 O   0  0  0  0  0  1  0  0  0  0  0  0
  186.4690  177.9200  142.1310 N   0  0  0  0  0  0  0  0  0  0  0  0
  185.6000  178.1820  143.1400 C   0  0  0  0  0  0  0  0  0  0  0  0
  190.1210  177.3400  141.4240 C   0  0  1  0  0  3  0  0  0  0  0  0
  188.3460  177.8730  143.6210 C   0  0  0  0  0  0  0  0  0  0  0  0
  185.2860  178.7830  145.4890 C   0  0  0  0  0  3  0  0  0  0  0  0
  181.8820  178.8120  143.4910 C   0  0  0  0  0  0  0  0  0  0  0  0
  181.4610  178.8040  142.1590 C   0  0  0  0  0  3  0  0  0  0  0  0
  184.1680  178.3660  142.7840 C   0  0  0  0  0  0  0  0  0  0  0  0
  182.3880  178.5870  141.1370 C   0  0  0  0  0  3  0  0  0  0  0  0
  183.2280  178.6000  143.8000 C   0  0  0  0  0  3  0  0  0  0  0  0
  183.7340  178.3750  141.4480 C   0  0  0  0  0  3  0  0  0  0  0  0
  180.9850  179.0280  144.4830 F   0  0  0  0  0  0  0  0  0  0  0  0
  190.9840  177.4940  140.1850 C   0  0  0  0  0  2  0  0  0  0  0  0
  190.8190  176.2910  139.2740 C   0  0  0  0  0  2  0  0  0  0  0  0
  190.6500  176.1320  136.9110 O   0  0  0  0  0  0  0  0  0  0  0  0
  187.9830  179.3600  136.8390 O   0  0  0  0  0  0  0  0  0  0  0  0
  188.7640  178.3800  136.7270 C   0  0  0  0  0  0  0  0  0  0  0  0
  189.3670  177.8290  137.9040 N   0  0  0  0  0  2  0  0  0  0  0  0
  190.2770  176.7250  137.9580 C   0  0  0  0  0  0  0  0  0  0  0  0
  189.0290  177.8270  135.3670 C   0  0  0  0  0  1  0  0  0  0  0  0
  1  5  2  0  0  0  0
  2  6  1  0  0  0  0
  3  8  1  0  0  0  0
  4 18  1  0  0  0  0
  5 11  1  0  0  0  0
  6 11  2  0  0  0  0
  8  2  2  0  0  0  0
  8  1  1  0  0  0  0
  9  7  1  0  0  0  0
 10 17  1  0  0  0  0
 10  4  1  0  0  0  0
 12  3  1  0  0  0  0
 12 19  1  0  0  0  0
 13  1  1  0  0  0  0
 14  2  1  0  0  0  0
 15  4  2  0  0  0  0
 15 16  1  0  0  0  0
 16 12  2  0  0  0  0
 17 27  1  6  0  0  0
 17  9  1  0  0  0  0
 18  7  1  0  0  0  0
 18  3  2  0  0  0  0
 19 13  2  0  0  0  0
 20 24  1  0  0  0  0
 20 26  1  0  0  0  0
 21 20  2  0  0  0  0
 22 16  1  0  0  0  0
 22 24  2  0  0  0  0
 23 25  2  0  0  0  0
 23 21  1  0  0  0  0
 25 22  1  0  0  0  0
 28 27  1  0  0  0  0
 29 33  2  0  0  0  0
 31 30  2  0  0  0  0
 31 32  1  0  0  0  0
 32 33  1  0  0  0  0
 33 28  1  0  0  0  0
 34 31  1  0  0  0  0
M  END
>  <MODEL>
5

>  <REMARK>
 VINA RESULT:     -10.9      2.234      3.471
  Name = 
  4 active torsions:
  status: ('A' for Active; 'I' for Inactive)
    1  A    between atoms: C_3  and  C_13
    2  A    between atoms: C_3  and  C_29
    3  A    between atoms: C_12  and  C_28
    4  A    between atoms: C_13  and  C_33
                            x       y       z     vdW  Elec       q    Type
                         _______ _______ _______ _____ _____    ______ ____

>  <TORSDO>
F 4

$$$$
=
 OpenBabel11052414263D

 34 38  0  0  1  0  0  0  0  0999 V2000
  186.7910  177.5550  144.8910 C   0  0  0  0  0  0  0  0  0  0  0  0
  184.9710  179.1360  144.6240 C   0  0  0  0  0  0  0  0  0  0  0  0
  186.2320  178.2700  142.6100 C   0  0  0  0  0  0  0  0  0  0  0  0
  185.7060  178.6870  140.2600 C   0  0  0  0  0  0  0  0  0  0  0  0
  186.4850  177.4360  146.2490 C   0  0  0  0  0  3  0  0  0  0  0  0
  184.6720  179.0000  145.9830 C   0  0  0  0  0  3  0  0  0  0  0  0
  183.7870  178.5860  141.9030 C   0  0  0  0  0  2  0  0  0  0  0  0
  185.9570  178.3080  144.0190 C   0  0  0  0  0  0  0  0  0  0  0  0
  182.8960  178.4970  140.6700 C   0  0  0  0  0  2  0  0  0  0  0  0
  184.7600  179.0080  139.1350 C   0  0  0  0  0  2  0  0  0  0  0  0
  185.4060  178.1310  146.7870 C   0  0  0  0  0  3  0  0  0  0  0  0
  187.5120  177.8070  142.1870 C   0  0  0  0  0  0  0  0  0  0  0  0
  187.9640  176.9770  144.4240 C   0  0  0  0  0  3  0  0  0  0  0  0
  184.3570  180.1740  143.9360 O   0  0  0  0  0  1  0  0  0  0  0  0
  186.9870  178.3910  139.9330 N   0  0  0  0  0  0  0  0  0  0  0  0
  187.9000  177.9470  140.8340 C   0  0  0  0  0  0  0  0  0  0  0  0
  183.3940  179.4750  139.6250 C   0  0  1  0  0  3  0  0  0  0  0  0
  185.2720  178.5620  141.5990 C   0  0  0  0  0  0  0  0  0  0  0  0
  188.3380  177.1380  143.0990 C   0  0  0  0  0  3  0  0  0  0  0  0
  190.7010  177.0020  138.4670 C   0  0  0  0  0  0  0  0  0  0  0  0
  191.8160  177.0550  139.3050 C   0  0  0  0  0  3  0  0  0  0  0  0
  189.2580  177.6130  140.3290 C   0  0  0  0  0  0  0  0  0  0  0  0
  191.6610  177.3950  140.6510 C   0  0  0  0  0  3  0  0  0  0  0  0
  189.4300  177.2850  138.9750 C   0  0  0  0  0  3  0  0  0  0  0  0
  190.3900  177.6780  141.1570 C   0  0  0  0  0  3  0  0  0  0  0  0
  190.8500  176.6790  137.1590 F   0  0  0  0  0  0  0  0  0  0  0  0
  182.4120  179.5240  138.4690 C   0  0  0  0  0  2  0  0  0  0  0  0
  181.2560  180.4520  138.7960 C   0  0  0  0  0  2  0  0  0  0  0  0
  180.6140  181.1000  136.6050 O   0  0  0  0  0  0  0  0  0  0  0  0
  181.8590  185.0280  137.3530 O   0  0  0  0  0  0  0  0  0  0  0  0
  181.4420  183.8930  137.0070 C   0  0  0  0  0  0  0  0  0  0  0  0
  181.5160  182.8080  137.9410 N   0  0  0  0  0  2  0  0  0  0  0  0
  181.0940  181.4580  137.7130 C   0  0  0  0  0  0  0  0  0  0  0  0
  180.8840  183.7220  135.6350 C   0  0  0  0  0  1  0  0  0  0  0  0
  1  5  2  0  0  0  0
  2  6  1  0  0  0  0
  3  8  1  0  0  0  0
  4 18  1  0  0  0  0
  5 11  1  0  0  0  0
  6 11  2  0  0  0  0
  8  2  2  0  0  0  0
  8  1  1  0  0  0  0
  9  7  1  0  0  0  0
 10 17  1  0  0  0  0
 10  4  1  0  0  0  0
 12  3  1  0  0  0  0
 12 19  1  0  0  0  0
 13  1  1  0  0  0  0
 14  2  1  0  0  0  0
 15  4  2  0  0  0  0
 15 16  1  0  0  0  0
 16 12  2  0  0  0  0
 17 27  1  6  0  0  0
 17  9  1  0  0  0  0
 18  7  1  0  0  0  0
 18  3  2  0  0  0  0
 19 13  2  0  0  0  0
 20 24  2  0  0  0  0
 20 21  1  0  0  0  0
 21 23  2  0  0  0  0
 22 16  1  0  0  0  0
 22 25  2  0  0  0  0
 23 25  1  0  0  0  0
 24 22  1  0  0  0  0
 26 20  1  0  0  0  0
 27 28  1  0  0  0  0
 29 33  2  0  0  0  0
 31 30  2  0  0  0  0
 31 32  1  0  0  0  0
 33 32  1  0  0  0  0
 33 28  1  0  0  0  0
 34 31  1  0  0  0  0
M  END
>  <MODEL>
6

>  <REMARK>
 VINA RESULT:     -10.8      5.356      8.745
  Name = 
  4 active torsions:
  status: ('A' for Active; 'I' for Inactive)
    1  A    between atoms: C_3  and  C_13
    2  A    between atoms: C_3  and  C_29
    3  A    between atoms: C_12  and  C_28
    4  A    between atoms: C_13  and  C_33
                            x       y       z     vdW  Elec       q    Type
                         _______ _______ _______ _____ _____    ______ ____

>  <TORSDO>
F 4

$$$$
=
 OpenBabel11052414263D

 34 38  0  0  1  0  0  0  0  0999 V2000
  186.4860  178.2980  146.5500 C   0  0  0  0  0  0  0  0  0  0  0  0
  188.3130  177.1460  145.4490 C   0  0  0  0  0  0  0  0  0  0  0  0
  186.4070  178.1230  144.1030 C   0  0  0  0  0  0  0  0  0  0  0  0
  186.2420  178.2410  141.6670 C   0  0  0  0  0  0  0  0  0  0  0  0
  187.1720  178.2220  147.7640 C   0  0  0  0  0  3  0  0  0  0  0  0
  188.9910  177.0840  146.6700 C   0  0  0  0  0  3  0  0  0  0  0  0
  188.5430  178.3850  142.7070 C   0  0  0  0  0  2  0  0  0  0  0  0
  187.0980  177.8790  145.3380 C   0  0  0  0  0  0  0  0  0  0  0  0
  189.0010  178.8560  141.3310 C   0  0  0  0  0  2  0  0  0  0  0  0
  186.8340  178.3050  140.2850 C   0  0  0  0  0  2  0  0  0  0  0  0
  188.4380  177.6460  147.8180 C   0  0  0  0  0  3  0  0  0  0  0  0
  185.0140  178.4160  144.1600 C   0  0  0  0  0  0  0  0  0  0  0  0
  185.1660  178.7310  146.5630 C   0  0  0  0  0  3  0  0  0  0  0  0
  188.8090  176.3780  144.4030 O   0  0  0  0  0  1  0  0  0  0  0  0
  184.8970  178.3560  141.7770 N   0  0  0  0  0  0  0  0  0  0  0  0
  184.2540  178.4570  142.9670 C   0  0  0  0  0  0  0  0  0  0  0  0
  188.3290  178.0100  140.2670 C   0  0  1  0  0  3  0  0  0  0  0  0
  187.0440  178.1970  142.8310 C   0  0  0  0  0  0  0  0  0  0  0  0
  184.4290  178.7490  145.3880 C   0  0  0  0  0  3  0  0  0  0  0  0
  180.7210  178.8170  141.6500 C   0  0  0  0  0  0  0  0  0  0  0  0
  179.9770  178.8660  142.8300 C   0  0  0  0  0  3  0  0  0  0  0  0
  182.7770  178.6280  142.9390 C   0  0  0  0  0  0  0  0  0  0  0  0
  180.6240  178.7880  144.0660 C   0  0  0  0  0  3  0  0  0  0  0  0
  182.1120  178.6930  141.7040 C   0  0  0  0  0  3  0  0  0  0  0  0
  182.0150  178.6630  144.1190 C   0  0  0  0  0  3  0  0  0  0  0  0
  180.0950  178.8860  140.4500 F   0  0  0  0  0  0  0  0  0  0  0  0
  188.9130  178.3500  138.9080 C   0  0  0  0  0  2  0  0  0  0  0  0
  190.2330  177.6270  138.7050 C   0  0  0  0  0  2  0  0  0  0  0  0
  190.7360  175.3170  138.4920 O   0  0  0  0  0  0  0  0  0  0  0  0
  187.5850  174.8340  135.7770 O   0  0  0  0  0  0  0  0  0  0  0  0
  188.5500  174.8450  136.5840 C   0  0  0  0  0  0  0  0  0  0  0  0
  188.9160  176.0770  137.2170 N   0  0  0  0  0  2  0  0  0  0  0  0
  189.9850  176.2690  138.1520 C   0  0  0  0  0  0  0  0  0  0  0  0
  189.2750  173.5690  136.8500 C   0  0  0  0  0  1  0  0  0  0  0  0
  1 13  1  0  0  0  0
  1  5  2  0  0  0  0
  2  6  1  0  0  0  0
  3 12  1  0  0  0  0
  3  8  1  0  0  0  0
  4 15  2  0  0  0  0
  4 18  1  0  0  0  0
  5 11  1  0  0  0  0
  6 11  2  0  0  0  0
  7 18  1  0  0  0  0
  8  2  2  0  0  0  0
  8  1  1  0  0  0  0
  9  7  1  0  0  0  0
 10  4  1  0  0  0  0
 12 19  1  0  0  0  0
 14  2  1  0  0  0  0
 15 16  1  0  0  0  0
 16 12  2  0  0  0  0
 17 27  1  6  0  0  0
 17 10  1  0  0  0  0
 17  9  1  0  0  0  0
 18  3  2  0  0  0  0
 19 13  2  0  0  0  0
 20 24  2  0  0  0  0
 20 21  1  0  0  0  0
 21 23  2  0  0  0  0
 22 16  1  0  0  0  0
 22 25  2  0  0  0  0
 23 25  1  0  0  0  0
 24 22  1  0  0  0  0
 26 20  1  0  0  0  0
 28 27  1  0  0  0  0
 30 31  2  0  0  0  0
 31 34  1  0  0  0  0
 31 32  1  0  0  0  0
 32 33  1  0  0  0  0
 33 29  2  0  0  0  0
 33 28  1  0  0  0  0
M  END
>  <MODEL>
7

>  <REMARK>
 VINA RESULT:     -10.6      2.469      3.671
  Name = 
  4 active torsions:
  status: ('A' for Active; 'I' for Inactive)
    1  A    between atoms: C_3  and  C_13
    2  A    between atoms: C_3  and  C_29
    3  A    between atoms: C_12  and  C_28
    4  A    between atoms: C_13  and  C_33
                            x       y       z     vdW  Elec       q    Type
                         _______ _______ _______ _____ _____    ______ ____

>  <TORSDO>
F 4

$$$$
=
 OpenBabel11052414263D

 34 38  0  0  1  0  0  0  0  0999 V2000
  182.4960  178.8480  141.3950 C   0  0  0  0  0  0  0  0  0  0  0  0
  183.4720  179.8050  139.3910 C   0  0  0  0  0  0  0  0  0  0  0  0
  184.9380  178.7530  141.1630 C   0  0  0  0  0  0  0  0  0  0  0  0
  187.3490  178.3690  141.0330 C   0  0  0  0  0  0  0  0  0  0  0  0
  181.2200  179.0350  140.8600 C   0  0  0  0  0  3  0  0  0  0  0  0
  182.1870  179.9780  138.8660 C   0  0  0  0  0  3  0  0  0  0  0  0
  186.0150  178.2600  138.8880 C   0  0  0  0  0  2  0  0  0  0  0  0
  183.6580  179.1080  140.6180 C   0  0  0  0  0  0  0  0  0  0  0  0
  187.2630  177.6230  138.2880 C   0  0  0  0  0  2  0  0  0  0  0  0
  188.6290  178.1310  140.2800 C   0  0  0  0  0  2  0  0  0  0  0  0
  181.0670  179.5670  139.5830 C   0  0  0  0  0  3  0  0  0  0  0  0
  185.0290  178.5170  142.5650 C   0  0  0  0  0  0  0  0  0  0  0  0
  182.6060  178.4660  142.7250 C   0  0  0  0  0  3  0  0  0  0  0  0
  184.5210  180.4330  138.7340 O   0  0  0  0  0  1  0  0  0  0  0  0
  187.4000  178.3150  142.3860 N   0  0  0  0  0  0  0  0  0  0  0  0
  186.2980  178.3700  143.1740 C   0  0  0  0  0  0  0  0  0  0  0  0
  188.4880  178.3680  138.7810 C   0  0  1  0  0  3  0  0  0  0  0  0
  186.1040  178.5140  140.3790 C   0  0  0  0  0  0  0  0  0  0  0  0
  183.8570  178.3440  143.3130 C   0  0  0  0  0  3  0  0  0  0  0  0
  187.8160  177.4170  146.5100 C   0  0  0  0  0  0  0  0  0  0  0  0
  186.9640  178.0620  147.4090 C   0  0  0  0  0  3  0  0  0  0  0  0
  186.4960  178.2500  144.6430 C   0  0  0  0  0  0  0  0  0  0  0  0
  185.8840  178.8090  146.9330 C   0  0  0  0  0  3  0  0  0  0  0  0
  187.5860  177.5150  145.1350 C   0  0  0  0  0  3  0  0  0  0  0  0
  185.6560  178.9070  145.5570 C   0  0  0  0  0  3  0  0  0  0  0  0
  188.8670  176.6970  146.9710 F   0  0  0  0  0  0  0  0  0  0  0  0
  189.7170  177.8590  138.0520 C   0  0  0  0  0  2  0  0  0  0  0  0
  189.5600  176.3870  137.7150 C   0  0  0  0  0  2  0  0  0  0  0  0
  190.9950  174.5480  138.1560 O   0  0  0  0  0  0  0  0  0  0  0  0
  194.2870  176.7210  136.7510 O   0  0  0  0  0  0  0  0  0  0  0  0
  193.3830  175.9630  137.1880 C   0  0  0  0  0  0  0  0  0  0  0  0
  192.0350  176.4460  137.2450 N   0  0  0  0  0  2  0  0  0  0  0  0
  190.8910  175.7230  137.7150 C   0  0  0  0  0  0  0  0  0  0  0  0
  193.7530  174.5870  137.6290 C   0  0  0  0  0  1  0  0  0  0  0  0
  1 13  1  0  0  0  0
  2  8  1  0  0  0  0
  3 12  1  0  0  0  0
  4 15  2  0  0  0  0
  5  1  1  0  0  0  0
  6  2  2  0  0  0  0
  6 11  1  0  0  0  0
  7 18  1  0  0  0  0
  8  3  1  0  0  0  0
  8  1  2  0  0  0  0
  9 17  1  0  0  0  0
  9  7  1  0  0  0  0
 10  4  1  0  0  0  0
 11  5  2  0  0  0  0
 12 16  2  0  0  0  0
 12 19  1  0  0  0  0
 13 19  2  0  0  0  0
 14  2  1  0  0  0  0
 15 16  1  0  0  0  0
 16 22  1  0  0  0  0
 17 27  1  6  0  0  0
 17 10  1  0  0  0  0
 18  4  1  0  0  0  0
 18  3  2  0  0  0  0
 20 26  1  0  0  0  0
 20 21  1  0  0  0  0
 22 24  1  0  0  0  0
 22 25  2  0  0  0  0
 23 21  2  0  0  0  0
 24 20  2  0  0  0  0
 25 23  1  0  0  0  0
 28 27  1  0  0  0  0
 30 31  2  0  0  0  0
 31 32  1  0  0  0  0
 31 34  1  0  0  0  0
 32 33  1  0  0  0  0
 33 28  1  0  0  0  0
 33 29  2  0  0  0  0
M  END
>  <MODEL>
8

>  <REMARK>
 VINA RESULT:     -10.6      2.995      6.215
  Name = 
  4 active torsions:
  status: ('A' for Active; 'I' for Inactive)
    1  A    between atoms: C_3  and  C_13
    2  A    between atoms: C_3  and  C_29
    3  A    between atoms: C_12  and  C_28
    4  A    between atoms: C_13  and  C_33
                            x       y       z     vdW  Elec       q    Type
                         _______ _______ _______ _____ _____    ______ ____

>  <TORSDO>
F 4

$$$$
=
 OpenBabel11052414263D

 34 38  0  0  1  0  0  0  0  0999 V2000
  185.8280  178.4520  145.7350 C   0  0  0  0  0  0  0  0  0  0  0  0
  187.5350  177.1970  144.5530 C   0  0  0  0  0  0  0  0  0  0  0  0
  185.5970  178.2340  143.3010 C   0  0  0  0  0  0  0  0  0  0  0  0
  185.2940  178.3150  140.8770 C   0  0  0  0  0  0  0  0  0  0  0  0
  186.5800  178.3670  146.9080 C   0  0  0  0  0  3  0  0  0  0  0  0
  188.2800  177.1280  145.7350 C   0  0  0  0  0  3  0  0  0  0  0  0
  187.6560  178.3740  141.7770 C   0  0  0  0  0  2  0  0  0  0  0  0
  186.3490  177.9820  144.4980 C   0  0  0  0  0  0  0  0  0  0  0  0
  188.0530  178.7980  140.3670 C   0  0  0  0  0  2  0  0  0  0  0  0
  185.8050  178.3260  139.4610 C   0  0  0  0  0  2  0  0  0  0  0  0
  187.8210  177.7350  146.9000 C   0  0  0  0  0  3  0  0  0  0  0  0
  184.2240  178.5910  143.4320 C   0  0  0  0  0  0  0  0  0  0  0  0
  184.5320  178.9440  145.8140 C   0  0  0  0  0  3  0  0  0  0  0  0
  187.9330  176.3890  143.4970 O   0  0  0  0  0  1  0  0  0  0  0  0
  183.9640  178.4920  141.0610 N   0  0  0  0  0  0  0  0  0  0  0  0
  183.3970  178.6450  142.2840 C   0  0  0  0  0  0  0  0  0  0  0  0
  187.2820  177.9630  139.3630 C   0  0  1  0  0  3  0  0  0  0  0  0
  186.1600  178.2560  141.9920 C   0  0  0  0  0  0  0  0  0  0  0  0
  183.7280  178.9740  144.6850 C   0  0  0  0  0  3  0  0  0  0  0  0
  179.8610  178.8780  143.6200 C   0  0  0  0  0  0  0  0  0  0  0  0
  179.1720  179.3930  142.5200 C   0  0  0  0  0  3  0  0  0  0  0  0
  181.9300  178.8820  142.3390 C   0  0  0  0  0  0  0  0  0  0  0  0
  179.8550  179.6630  141.3320 C   0  0  0  0  0  3  0  0  0  0  0  0
  181.2340  178.6290  143.5310 C   0  0  0  0  0  3  0  0  0  0  0  0
  181.2280  179.4140  141.2450 C   0  0  0  0  0  3  0  0  0  0  0  0
  179.2010  178.6220  144.7750 F   0  0  0  0  0  0  0  0  0  0  0  0
  187.8000  178.2510  137.9650 C   0  0  0  0  0  2  0  0  0  0  0  0
  189.3120  178.1170  137.9240 C   0  0  0  0  0  2  0  0  0  0  0  0
  189.8970  177.1970  135.8150 O   0  0  0  0  0  0  0  0  0  0  0  0
  190.1800  173.3780  137.5080 O   0  0  0  0  0  0  0  0  0  0  0  0
  190.1370  174.4690  136.8840 C   0  0  0  0  0  0  0  0  0  0  0  0
  189.7940  175.6660  137.5920 N   0  0  0  0  0  2  0  0  0  0  0  0
  189.6950  176.9840  137.0400 C   0  0  0  0  0  0  0  0  0  0  0  0
  190.4500  174.4720  135.4250 C   0  0  0  0  0  1  0  0  0  0  0  0
  1 13  1  0  0  0  0
  1  5  2  0  0  0  0
  2  6  1  0  0  0  0
  3 12  1  0  0  0  0
  3  8  1  0  0  0  0
  4 15  2  0  0  0  0
  4 18  1  0  0  0  0
  6 11  2  0  0  0  0
  7 18  1  0  0  0  0
  8  2  2  0  0  0  0
  8  1  1  0  0  0  0
  9  7  1  0  0  0  0
 10  4  1  0  0  0  0
 11  5  1  0  0  0  0
 12 19  1  0  0  0  0
 14  2  1  0  0  0  0
 15 16  1  0  0  0  0
 16 22  1  0  0  0  0
 16 12  2  0  0  0  0
 17 27  1  6  0  0  0
 17 10  1  0  0  0  0
 17  9  1  0  0  0  0
 18  3  2  0  0  0  0
 19 13  2  0  0  0  0
 20 26  1  0  0  0  0
 21 20  2  0  0  0  0
 22 24  2  0  0  0  0
 23 21  1  0  0  0  0
 24 20  1  0  0  0  0
 25 23  2  0  0  0  0
 25 22  1  0  0  0  0
 28 27  1  0  0  0  0
 29 33  2  0  0  0  0
 31 30  2  0  0  0  0
 31 32  1  0  0  0  0
 33 32  1  0  0  0  0
 33 28  1  0  0  0  0
 34 31  1  0  0  0  0
M  END
>  <MODEL>
9

>  <REMARK>
 VINA RESULT:     -10.0      2.858      4.291
  Name = 
  4 active torsions:
  status: ('A' for Active; 'I' for Inactive)
    1  A    between atoms: C_3  and  C_13
    2  A    between atoms: C_3  and  C_29
    3  A    between atoms: C_12  and  C_28
    4  A    between atoms: C_13  and  C_33
                            x       y       z     vdW  Elec       q    Type
                         _______ _______ _______ _____ _____    ______ ____

>  <TORSDO>
F 4

$$$$
