=
 OpenBabel11052415103D

 55 60  0  0  1  0  0  0  0  0999 V2000
  190.0130  177.1810  140.4240 C   0  0  0  0  0  3  0  0  0  0  0  0
  189.0410  178.1790  138.0240 C   0  0  0  0  0  0  0  0  0  0  0  0
  188.3500  178.4430  139.2100 C   0  0  0  0  0  3  0  0  0  0  0  0
  190.6740  176.9340  139.2180 C   0  0  0  0  0  3  0  0  0  0  0  0
  188.8400  177.9370  140.4230 C   0  0  0  0  0  0  0  0  0  0  0  0
  190.1770  177.4280  138.0530 N   0  0  0  0  0  0  0  0  0  0  0  0
  188.5250  178.6930  136.7270 C   0  0  0  0  0  2  0  0  0  0  0  0
  187.0210  178.5110  136.6560 C   0  0  0  0  0  2  0  0  0  0  0  0
  185.2450  176.9910  136.6690 C   0  0  1  0  0  3  0  0  0  0  0  0
  186.6870  177.1240  136.9260 N   0  0  0  0  0  0  0  0  0  0  0  0
  186.2020  176.5540  135.6600 C   0  0  0  0  0  2  0  0  0  0  0  0
  184.7080  175.7790  137.4180 C   0  0  0  0  0  2  0  0  0  0  0  0
  182.7890  176.1640  136.0490 O   0  0  0  0  0  1  0  0  0  0  0  0
  183.1950  175.5770  137.2520 C   0  0  0  0  0  0  0  0  0  0  0  0
  182.9440  174.2050  137.1670 O   0  0  0  0  0  1  0  0  0  0  0  0
  181.6640  178.3610  138.0760 C   0  0  2  0  0  0  0  0  0  0  0  0
  182.3680  176.1900  138.4270 C   0  0  1  0  0  0  0  0  0  0  0  0
  180.3070  175.1830  137.1700 C   0  0  0  0  0  1  0  0  0  0  0  0
  180.8030  176.0970  138.2960 C   0  0  2  0  0  0  0  0  0  0  0  0
  181.9870  178.9070  136.8470 F   0  0  0  0  0  0  0  0  0  0  0  0
  180.4830  177.4890  137.9500 C   0  0  0  0  0  0  0  0  0  0  0  0
  181.3980  179.4740  139.0730 C   0  0  0  0  0  1  0  0  0  0  0  0
  182.7800  175.5670  139.5970 F   0  0  0  0  0  0  0  0  0  0  0  0
  179.3750  177.8810  137.6130 O   0  0  0  0  0  0  0  0  0  0  0  0
  182.7290  177.5620  138.5410 O   0  0  0  0  0  0  0  0  0  0  0  0
  180.1880  176.5360  140.5570 O   0  0  0  0  0  0  0  0  0  0  0  0
  180.1260  175.7510  139.6200 C   0  0  0  0  0  0  0  0  0  0  0  0
  179.3450  174.4820  139.8010 C   0  0  0  0  0  2  0  0  0  0  0  0
  179.5990  173.8910  141.1730 C   0  0  0  0  0  1  0  0  0  0  0  0
  188.1840  178.1730  141.6330 O   0  0  0  0  0  0  0  0  0  0  0  0
  187.3270  177.2140  142.2390 C   0  0  0  0  0  2  0  0  0  0  0  0
  189.4910  177.0060  146.7930 C   0  0  0  0  0  2  0  0  0  0  0  0
  184.4460  177.6880  142.4420 C   0  0  0  0  0  2  0  0  0  0  0  0
  188.1540  177.7510  148.7520 C   0  0  0  0  0  2  0  0  0  0  0  0
  187.2150  178.0730  146.4370 C   0  0  0  0  0  0  0  0  0  0  0  0
  187.1650  178.5130  147.8760 C   0  0  0  0  0  2  0  0  0  0  0  0
  189.5310  177.7820  148.1060 C   0  0  0  0  0  2  0  0  0  0  0  0
  188.3530  177.4400  145.8970 C   0  0  0  0  0  0  0  0  0  0  0  0
  186.1480  178.0960  144.3030 C   0  0  0  0  0  0  0  0  0  0  0  0
  184.1150  179.5510  143.9450 C   0  0  0  0  0  2  0  0  0  0  0  0
  186.1740  178.3920  145.6300 N   0  0  0  0  0  0  0  0  0  0  0  0
  182.8810  179.4560  143.0660 C   0  0  1  0  0  3  0  0  0  0  0  0
  188.3720  177.1290  144.5250 C   0  0  0  0  0  0  0  0  0  0  0  0
  183.1920  178.4120  141.9960 C   0  0  0  0  0  2  0  0  0  0  0  0
  187.2650  177.4590  143.7160 C   0  0  0  0  0  0  0  0  0  0  0  0
  184.9890  178.4710  143.5350 N   0  0  0  0  0  0  0  0  0  0  0  0
  181.7000  179.0070  143.9150 C   0  0  0  0  0  2  0  0  0  0  0  0
  180.4070  179.3100  143.2340 C   0  0  0  0  0  0  0  0  0  0  0  0
  180.3110  180.3440  142.4680 N   0  0  0  0  0  2  0  0  0  0  0  0
  179.3370  178.3770  143.2990 N   0  0  0  0  0  1  0  0  0  0  0  0
  189.5830  176.4700  143.9220 C   0  0  0  0  0  2  0  0  0  0  0  0
  191.8550  177.0500  143.5100 O   0  0  0  0  0  0  0  0  0  0  0  0
  190.6830  177.4580  143.7290 C   0  0  0  0  0  0  0  0  0  0  0  0
  190.3990  178.8230  143.7780 O   0  0  0  0  0  0  0  0  0  0  0  0
  191.3470  179.7680  144.2530 C   0  0  0  0  0  1  0  0  0  0  0  0
  2  6  2  0  0  0  0
  2  3  1  0  0  0  0
  3  5  2  0  0  0  0
  4  1  2  0  0  0  0
  5  1  1  0  0  0  0
  5 30  1  0  0  0  0
  6  4  1  0  0  0  0
  7  2  1  0  0  0  0
  8  7  1  0  0  0  0
  8 10  1  0  0  0  0
  9 10  1  0  0  0  0
  9 12  1  1  0  0  0
 11  9  1  0  0  0  0
 11 10  1  0  0  0  0
 13 14  1  0  0  0  0
 14 12  1  0  0  0  0
 14 17  1  0  0  0  0
 15 14  1  0  0  0  0
 16 25  1  0  0  0  0
 16 22  1  1  0  0  0
 17 25  1  0  0  0  0
 17 23  1  1  0  0  0
 19 18  1  6  0  0  0
 19 17  1  0  0  0  0
 19 27  1  0  0  0  0
 20 16  1  0  0  0  0
 21 16  1  0  0  0  0
 21 19  1  0  0  0  0
 24 21  2  0  0  0  0
 27 28  1  0  0  0  0
 27 26  2  0  0  0  0
 28 29  1  0  0  0  0
 30 31  1  0  0  0  0
 31 45  1  0  0  0  0
 32 37  1  0  0  0  0
 33 46  1  0  0  0  0
 35 36  1  0  0  0  0
 36 34  1  0  0  0  0
 37 34  1  0  0  0  0
 38 35  1  0  0  0  0
 38 32  1  0  0  0  0
 39 41  1  0  0  0  0
 41 35  2  0  0  0  0
 42 47  1  1  0  0  0
 42 40  1  0  0  0  0
 43 38  2  0  0  0  0
 44 33  1  0  0  0  0
 44 42  1  0  0  0  0
 45 39  2  0  0  0  0
 45 43  1  0  0  0  0
 46 40  1  0  0  0  0
 46 39  1  0  0  0  0
 48 50  1  0  0  0  0
 48 47  1  0  0  0  0
 49 48  2  0  0  0  0
 51 43  1  0  0  0  0
 52 53  2  0  0  0  0
 53 54  1  0  0  0  0
 53 51  1  0  0  0  0
 54 55  1  0  0  0  0
M  END
>  <MODEL>
1

>  <REMARK>
 VINA RESULT:      -8.6      0.000      0.000
  Name = 
  16 active torsions:
  status: ('A' for Active; 'I' for Inactive)
    1  A    between atoms: O_2  and  C_28
    2  A    between atoms: O_2  and  C_44
    3  A    between atoms: O_4  and  C_40
    4  A    between atoms: C_6  and  C_20
    5  A    between atoms: C_8  and  C_22
    6  A    between atoms: C_10  and  C_32
    7  A    between atoms: C_11  and  C_38
    8  A    between atoms: C_14  and  C_38
    9  A    between atoms: C_19  and  C_40
   10  A    between atoms: C_19  and  C_45
   11  A    between atoms: C_20  and  C_22
   12  A    between atoms: C_27  and  C_54
   13  A    between atoms: C_28  and  C_49
   14  A    between atoms: C_32  and  C_39
   15  A    between atoms: N_35  and  C_51
   16  A    between atoms: C_51  and  C_54
                            x       y       z     vdW  Elec       q    Type
                         _______ _______ _______ _____ _____    ______ ____

>  <TORSDO>
F 16

$$$$
=
 OpenBabel11052415103D

 55 60  0  0  1  0  0  0  0  0999 V2000
  190.0620  177.6280  140.6170 C   0  0  0  0  0  3  0  0  0  0  0  0
  189.0210  178.1630  138.1020 C   0  0  0  0  0  0  0  0  0  0  0  0
  188.2540  178.4370  139.2370 C   0  0  0  0  0  3  0  0  0  0  0  0
  190.7980  177.3630  139.4600 C   0  0  0  0  0  3  0  0  0  0  0  0
  188.7790  178.1660  140.5090 C   0  0  0  0  0  0  0  0  0  0  0  0
  190.2650  177.6280  138.2370 N   0  0  0  0  0  0  0  0  0  0  0  0
  188.4710  178.4280  136.7450 C   0  0  0  0  0  2  0  0  0  0  0  0
  188.4500  177.1490  135.9320 C   0  0  0  0  0  2  0  0  0  0  0  0
  187.3530  175.0850  135.8670 C   0  0  1  0  0  3  0  0  0  0  0  0
  188.0000  176.0500  136.7690 N   0  0  0  0  0  0  0  0  0  0  0  0
  188.7210  174.8520  136.3130 C   0  0  0  0  0  2  0  0  0  0  0  0
  186.4010  174.2070  136.6660 C   0  0  0  0  0  2  0  0  0  0  0  0
  184.8650  175.0990  135.0690 O   0  0  0  0  0  1  0  0  0  0  0  0
  184.9280  174.3750  136.2640 C   0  0  0  0  0  0  0  0  0  0  0  0
  184.3930  173.1060  136.0260 O   0  0  0  0  0  1  0  0  0  0  0  0
  184.3640  177.3970  137.4150 C   0  0  2  0  0  0  0  0  0  0  0  0
  184.0800  175.1060  137.3540 C   0  0  1  0  0  0  0  0  0  0  0  0
  182.2600  175.2530  135.4810 C   0  0  0  0  0  1  0  0  0  0  0  0
  182.7050  175.7020  136.8780 C   0  0  2  0  0  0  0  0  0  0  0  0
  185.2110  177.9230  136.4560 F   0  0  0  0  0  0  0  0  0  0  0  0
  183.0380  177.1320  136.8300 C   0  0  0  0  0  0  0  0  0  0  0  0
  184.2480  178.3640  138.5780 C   0  0  0  0  0  1  0  0  0  0  0  0
  183.8710  174.2080  138.3920 F   0  0  0  0  0  0  0  0  0  0  0  0
  182.3040  177.9990  136.3770 O   0  0  0  0  0  0  0  0  0  0  0  0
  184.8730  176.1660  137.8790 O   0  0  0  0  0  0  0  0  0  0  0  0
  180.7150  174.6640  137.6830 O   0  0  0  0  0  0  0  0  0  0  0  0
  181.5910  175.4900  137.9020 C   0  0  0  0  0  0  0  0  0  0  0  0
  181.5570  176.2440  139.2000 C   0  0  0  0  0  2  0  0  0  0  0  0
  180.2200  176.9350  139.3780 C   0  0  0  0  0  1  0  0  0  0  0  0
  188.0490  178.4210  141.6720 O   0  0  0  0  0  0  0  0  0  0  0  0
  187.0840  177.5130  142.1860 C   0  0  0  0  0  2  0  0  0  0  0  0
  189.2430  177.1030  146.7280 C   0  0  0  0  0  2  0  0  0  0  0  0
  184.1820  177.8290  142.4030 C   0  0  0  0  0  2  0  0  0  0  0  0
  187.8650  177.6450  148.7250 C   0  0  0  0  0  2  0  0  0  0  0  0
  186.9180  178.0780  146.4320 C   0  0  0  0  0  0  0  0  0  0  0  0
  186.8410  178.4160  147.8970 C   0  0  0  0  0  2  0  0  0  0  0  0
  189.2400  177.7890  148.0910 C   0  0  0  0  0  2  0  0  0  0  0  0
  188.0870  177.5400  145.8570 C   0  0  0  0  0  0  0  0  0  0  0  0
  185.8560  178.1920  144.2970 C   0  0  0  0  0  0  0  0  0  0  0  0
  183.7550  179.5660  144.0260 C   0  0  0  0  0  2  0  0  0  0  0  0
  185.8630  178.3990  145.6420 N   0  0  0  0  0  0  0  0  0  0  0  0
  182.5290  179.4700  143.1360 C   0  0  1  0  0  3  0  0  0  0  0  0
  188.1260  177.3240  144.4670 C   0  0  0  0  0  0  0  0  0  0  0  0
  182.8940  178.5190  141.9990 C   0  0  0  0  0  2  0  0  0  0  0  0
  187.0050  177.6540  143.6760 C   0  0  0  0  0  0  0  0  0  0  0  0
  184.6830  178.5610  143.5490 N   0  0  0  0  0  0  0  0  0  0  0  0
  181.3700  178.9060  143.9450 C   0  0  0  0  0  2  0  0  0  0  0  0
  180.0610  179.3640  143.3920 C   0  0  0  0  0  0  0  0  0  0  0  0
  178.9620  178.8550  143.8380 N   0  0  0  0  0  1  0  0  0  0  0  0
  180.0170  180.4690  142.4990 N   0  0  0  0  0  2  0  0  0  0  0  0
  189.3700  176.7690  143.8290 C   0  0  0  0  0  2  0  0  0  0  0  0
  190.3910  178.9170  143.9010 O   0  0  0  0  0  0  0  0  0  0  0  0
  190.5320  177.6750  144.0560 C   0  0  0  0  0  0  0  0  0  0  0  0
  191.7560  177.1380  144.4550 O   0  0  0  0  0  0  0  0  0  0  0  0
  191.9410  175.7400  144.6230 C   0  0  0  0  0  1  0  0  0  0  0  0
  2  6  2  0  0  0  0
  2  3  1  0  0  0  0
  3  5  2  0  0  0  0
  4  1  2  0  0  0  0
  5  1  1  0  0  0  0
  5 30  1  0  0  0  0
  6  4  1  0  0  0  0
  7  2  1  0  0  0  0
  8  7  1  0  0  0  0
  8 10  1  0  0  0  0
  9 11  1  0  0  0  0
  9 12  1  1  0  0  0
  9 10  1  0  0  0  0
 11 10  1  0  0  0  0
 13 14  1  0  0  0  0
 14 12  1  0  0  0  0
 14 17  1  0  0  0  0
 15 14  1  0  0  0  0
 16 25  1  0  0  0  0
 16 22  1  1  0  0  0
 17 25  1  0  0  0  0
 17 23  1  1  0  0  0
 19 18  1  6  0  0  0
 19 17  1  0  0  0  0
 19 27  1  0  0  0  0
 20 16  1  0  0  0  0
 21 19  1  0  0  0  0
 21 16  1  0  0  0  0
 24 21  2  0  0  0  0
 26 27  2  0  0  0  0
 27 28  1  0  0  0  0
 28 29  1  0  0  0  0
 30 31  1  0  0  0  0
 31 45  1  0  0  0  0
 32 37  1  0  0  0  0
 33 46  1  0  0  0  0
 35 36  1  0  0  0  0
 36 34  1  0  0  0  0
 37 34  1  0  0  0  0
 38 35  1  0  0  0  0
 38 32  1  0  0  0  0
 39 41  1  0  0  0  0
 41 35  2  0  0  0  0
 42 47  1  1  0  0  0
 42 40  1  0  0  0  0
 43 38  2  0  0  0  0
 44 33  1  0  0  0  0
 44 42  1  0  0  0  0
 45 39  2  0  0  0  0
 45 43  1  0  0  0  0
 46 40  1  0  0  0  0
 46 39  1  0  0  0  0
 48 49  1  0  0  0  0
 48 47  1  0  0  0  0
 50 48  2  0  0  0  0
 51 53  1  0  0  0  0
 51 43  1  0  0  0  0
 52 53  2  0  0  0  0
 53 54  1  0  0  0  0
 54 55  1  0  0  0  0
M  END
>  <MODEL>
2

>  <REMARK>
 VINA RESULT:      -8.3      1.439      1.933
  Name = 
  16 active torsions:
  status: ('A' for Active; 'I' for Inactive)
    1  A    between atoms: O_2  and  C_28
    2  A    between atoms: O_2  and  C_44
    3  A    between atoms: O_4  and  C_40
    4  A    between atoms: C_6  and  C_20
    5  A    between atoms: C_8  and  C_22
    6  A    between atoms: C_10  and  C_32
    7  A    between atoms: C_11  and  C_38
    8  A    between atoms: C_14  and  C_38
    9  A    between atoms: C_19  and  C_40
   10  A    between atoms: C_19  and  C_45
   11  A    between atoms: C_20  and  C_22
   12  A    between atoms: C_27  and  C_54
   13  A    between atoms: C_28  and  C_49
   14  A    between atoms: C_32  and  C_39
   15  A    between atoms: N_35  and  C_51
   16  A    between atoms: C_51  and  C_54
                            x       y       z     vdW  Elec       q    Type
                         _______ _______ _______ _____ _____    ______ ____

>  <TORSDO>
F 16

$$$$
=
 OpenBabel11052415103D

 55 60  0  0  1  0  0  0  0  0999 V2000
  190.6100  177.4240  140.8750 C   0  0  0  0  0  3  0  0  0  0  0  0
  189.4100  177.5030  138.3740 C   0  0  0  0  0  0  0  0  0  0  0  0
  188.6650  177.8430  139.5060 C   0  0  0  0  0  3  0  0  0  0  0  0
  191.3220  177.0860  139.7210 C   0  0  0  0  0  3  0  0  0  0  0  0
  189.2700  177.8020  140.7710 C   0  0  0  0  0  0  0  0  0  0  0  0
  190.7110  177.1260  138.5060 N   0  0  0  0  0  0  0  0  0  0  0  0
  188.7770  177.5240  137.0280 C   0  0  0  0  0  2  0  0  0  0  0  0
  187.3170  177.9170  137.1450 C   0  0  0  0  0  2  0  0  0  0  0  0
  185.2080  177.3890  136.2860 C   0  0  1  0  0  3  0  0  0  0  0  0
  186.4810  176.8040  136.7310 N   0  0  0  0  0  0  0  0  0  0  0  0
  186.2050  176.9930  135.3000 C   0  0  0  0  0  2  0  0  0  0  0  0
  184.1140  176.3320  136.3550 C   0  0  0  0  0  2  0  0  0  0  0  0
  183.7200  177.2680  138.5170 O   0  0  0  0  0  1  0  0  0  0  0  0
  183.0920  176.5800  137.4730 C   0  0  0  0  0  0  0  0  0  0  0  0
  182.0810  177.4000  136.9660 O   0  0  0  0  0  1  0  0  0  0  0  0
  180.4950  175.5480  139.1940 C   0  0  2  0  0  0  0  0  0  0  0  0
  182.4680  175.2610  138.0300 C   0  0  1  0  0  0  0  0  0  0  0  0
  181.2410  175.1620  135.7220 C   0  0  0  0  0  1  0  0  0  0  0  0
  181.3630  174.5850  137.1380 C   0  0  2  0  0  0  0  0  0  0  0  0
  180.0130  176.8440  139.2520 F   0  0  0  0  0  0  0  0  0  0  0  0
  180.1570  174.9370  137.8970 C   0  0  0  0  0  0  0  0  0  0  0  0
  179.9060  174.7360  140.3340 C   0  0  0  0  0  1  0  0  0  0  0  0
  183.5080  174.3670  138.2500 F   0  0  0  0  0  0  0  0  0  0  0  0
  179.0130  174.7380  137.5120 O   0  0  0  0  0  0  0  0  0  0  0  0
  181.9010  175.5540  139.3030 O   0  0  0  0  0  0  0  0  0  0  0  0
  180.9280  172.3850  137.9450 O   0  0  0  0  0  0  0  0  0  0  0  0
  181.4930  173.0640  137.0990 C   0  0  0  0  0  0  0  0  0  0  0  0
  182.2700  172.3640  136.0220 C   0  0  0  0  0  2  0  0  0  0  0  0
  183.0900  171.2320  136.6070 C   0  0  0  0  0  1  0  0  0  0  0  0
  188.5670  178.1320  141.9310 O   0  0  0  0  0  0  0  0  0  0  0  0
  187.4560  177.3750  142.3950 C   0  0  0  0  0  2  0  0  0  0  0  0
  189.2470  177.2160  147.1080 C   0  0  0  0  0  2  0  0  0  0  0  0
  184.5530  177.7520  142.3620 C   0  0  0  0  0  2  0  0  0  0  0  0
  187.7310  177.9050  148.9540 C   0  0  0  0  0  2  0  0  0  0  0  0
  186.9730  178.2080  146.5710 C   0  0  0  0  0  0  0  0  0  0  0  0
  186.7910  178.6380  148.0020 C   0  0  0  0  0  2  0  0  0  0  0  0
  189.1540  177.9850  148.4230 C   0  0  0  0  0  2  0  0  0  0  0  0
  188.1720  177.6160  146.1240 C   0  0  0  0  0  0  0  0  0  0  0  0
  186.0830  178.2060  144.3570 C   0  0  0  0  0  0  0  0  0  0  0  0
  184.0390  179.5950  143.8380 C   0  0  0  0  0  2  0  0  0  0  0  0
  185.9910  178.4960  145.6820 N   0  0  0  0  0  0  0  0  0  0  0  0
  182.8840  179.4630  142.8620 C   0  0  1  0  0  3  0  0  0  0  0  0
  188.3140  177.3130  144.7570 C   0  0  0  0  0  0  0  0  0  0  0  0
  183.3160  178.4360  141.8180 C   0  0  0  0  0  2  0  0  0  0  0  0
  187.2650  177.6100  143.8620 C   0  0  0  0  0  0  0  0  0  0  0  0
  184.9790  178.5460  143.4980 N   0  0  0  0  0  0  0  0  0  0  0  0
  181.6540  178.9700  143.6100 C   0  0  0  0  0  2  0  0  0  0  0  0
  180.4050  179.3140  142.8690 C   0  0  0  0  0  0  0  0  0  0  0  0
  180.0430  180.5480  142.7550 N   0  0  0  0  0  1  0  0  0  0  0  0
  179.7050  178.3030  142.1530 N   0  0  0  0  0  2  0  0  0  0  0  0
  189.5910  176.6980  144.2540 C   0  0  0  0  0  2  0  0  0  0  0  0
  190.6180  178.8450  144.2880 O   0  0  0  0  0  0  0  0  0  0  0  0
  190.7470  177.6090  144.4940 C   0  0  0  0  0  0  0  0  0  0  0  0
  191.9540  177.0830  144.9580 O   0  0  0  0  0  0  0  0  0  0  0  0
  191.9950  176.0730  145.9550 C   0  0  0  0  0  1  0  0  0  0  0  0
  2  6  2  0  0  0  0
  2  3  1  0  0  0  0
  3  5  2  0  0  0  0
  4  1  2  0  0  0  0
  5  1  1  0  0  0  0
  5 30  1  0  0  0  0
  6  4  1  0  0  0  0
  7  8  1  0  0  0  0
  7  2  1  0  0  0  0
  9 12  1  6  0  0  0
  9 10  1  0  0  0  0
 10  8  1  0  0  0  0
 11  9  1  0  0  0  0
 11 10  1  0  0  0  0
 12 14  1  0  0  0  0
 14 17  1  0  0  0  0
 14 13  1  0  0  0  0
 15 14  1  0  0  0  0
 16 20  1  0  0  0  0
 16 25  1  0  0  0  0
 16 22  1  1  0  0  0
 17 23  1  1  0  0  0
 17 25  1  0  0  0  0
 19 18  1  6  0  0  0
 19 21  1  0  0  0  0
 19 17  1  0  0  0  0
 21 16  1  0  0  0  0
 24 21  2  0  0  0  0
 27 19  1  0  0  0  0
 27 26  2  0  0  0  0
 28 29  1  0  0  0  0
 28 27  1  0  0  0  0
 30 31  1  0  0  0  0
 31 45  1  0  0  0  0
 32 37  1  0  0  0  0
 33 46  1  0  0  0  0
 35 36  1  0  0  0  0
 36 34  1  0  0  0  0
 37 34  1  0  0  0  0
 38 35  1  0  0  0  0
 38 32  1  0  0  0  0
 39 41  1  0  0  0  0
 41 35  2  0  0  0  0
 42 47  1  1  0  0  0
 42 40  1  0  0  0  0
 43 38  2  0  0  0  0
 44 33  1  0  0  0  0
 44 42  1  0  0  0  0
 45 39  2  0  0  0  0
 45 43  1  0  0  0  0
 46 40  1  0  0  0  0
 46 39  1  0  0  0  0
 48 47  1  0  0  0  0
 49 48  1  0  0  0  0
 50 48  2  0  0  0  0
 51 53  1  0  0  0  0
 51 43  1  0  0  0  0
 52 53  2  0  0  0  0
 53 54  1  0  0  0  0
 54 55  1  0  0  0  0
M  END
>  <MODEL>
3

>  <REMARK>
 VINA RESULT:      -8.1      1.411      2.149
  Name = 
  16 active torsions:
  status: ('A' for Active; 'I' for Inactive)
    1  A    between atoms: O_2  and  C_28
    2  A    between atoms: O_2  and  C_44
    3  A    between atoms: O_4  and  C_40
    4  A    between atoms: C_6  and  C_20
    5  A    between atoms: C_8  and  C_22
    6  A    between atoms: C_10  and  C_32
    7  A    between atoms: C_11  and  C_38
    8  A    between atoms: C_14  and  C_38
    9  A    between atoms: C_19  and  C_40
   10  A    between atoms: C_19  and  C_45
   11  A    between atoms: C_20  and  C_22
   12  A    between atoms: C_27  and  C_54
   13  A    between atoms: C_28  and  C_49
   14  A    between atoms: C_32  and  C_39
   15  A    between atoms: N_35  and  C_51
   16  A    between atoms: C_51  and  C_54
                            x       y       z     vdW  Elec       q    Type
                         _______ _______ _______ _____ _____    ______ ____

>  <TORSDO>
F 16

$$$$
=
 OpenBabel11052415103D

 55 60  0  0  1  0  0  0  0  0999 V2000
  190.1380  177.3430  140.6220 C   0  0  0  0  0  3  0  0  0  0  0  0
  188.9370  178.0180  138.2140 C   0  0  0  0  0  0  0  0  0  0  0  0
  188.2800  178.3010  139.4140 C   0  0  0  0  0  3  0  0  0  0  0  0
  190.7630  177.0720  139.4020 C   0  0  0  0  0  3  0  0  0  0  0  0
  188.8860  177.9580  140.6320 C   0  0  0  0  0  0  0  0  0  0  0  0
  190.1530  177.4060  138.2330 N   0  0  0  0  0  0  0  0  0  0  0  0
  188.2990  178.3590  136.9140 C   0  0  0  0  0  2  0  0  0  0  0  0
  186.8040  178.1190  136.9880 C   0  0  0  0  0  2  0  0  0  0  0  0
  184.9900  177.0750  135.9460 C   0  0  1  0  0  3  0  0  0  0  0  0
  186.4480  177.0060  136.1250 N   0  0  0  0  0  0  0  0  0  0  0  0
  185.8710  177.5880  134.9040 C   0  0  0  0  0  2  0  0  0  0  0  0
  184.4660  175.7050  135.5380 C   0  0  0  0  0  2  0  0  0  0  0  0
  183.1700  173.7960  136.1560 O   0  0  0  0  0  1  0  0  0  0  0  0
  183.4680  175.1070  136.5410 C   0  0  0  0  0  0  0  0  0  0  0  0
  184.0850  175.0570  137.7930 O   0  0  0  0  0  1  0  0  0  0  0  0
  180.4380  174.8610  137.7780 C   0  0  2  0  0  0  0  0  0  0  0  0
  182.1420  175.9270  136.6410 C   0  0  1  0  0  0  0  0  0  0  0  0
  183.1890  176.8760  138.8430 C   0  0  0  0  0  1  0  0  0  0  0  0
  181.9420  176.7630  137.9580 C   0  0  2  0  0  0  0  0  0  0  0  0
  180.7530  173.6240  138.3110 F   0  0  0  0  0  0  0  0  0  0  0  0
  180.9460  175.9340  138.6500 C   0  0  0  0  0  0  0  0  0  0  0  0
  178.9340  174.9770  137.6140 C   0  0  0  0  0  1  0  0  0  0  0  0
  182.0860  176.7660  135.5370 F   0  0  0  0  0  0  0  0  0  0  0  0
  180.5710  176.1160  139.8000 O   0  0  0  0  0  0  0  0  0  0  0  0
  181.0580  175.0120  136.5200 O   0  0  0  0  0  0  0  0  0  0  0  0
  180.2390  178.2250  137.1550 O   0  0  0  0  0  0  0  0  0  0  0  0
  181.3360  178.1390  137.6900 C   0  0  0  0  0  0  0  0  0  0  0  0
  182.0340  179.4040  138.0990 C   0  0  0  0  0  2  0  0  0  0  0  0
  181.2270  180.6160  137.6800 C   0  0  0  0  0  1  0  0  0  0  0  0
  188.2670  178.2190  141.8560 O   0  0  0  0  0  0  0  0  0  0  0  0
  187.2300  177.4010  142.3810 C   0  0  0  0  0  2  0  0  0  0  0  0
  189.2120  177.2140  147.0170 C   0  0  0  0  0  2  0  0  0  0  0  0
  184.3320  177.8060  142.4690 C   0  0  0  0  0  2  0  0  0  0  0  0
  187.7800  177.9130  148.9250 C   0  0  0  0  0  2  0  0  0  0  0  0
  186.9280  178.2290  146.5750 C   0  0  0  0  0  0  0  0  0  0  0  0
  186.8090  178.6580  148.0130 C   0  0  0  0  0  2  0  0  0  0  0  0
  189.1800  177.9810  148.3350 C   0  0  0  0  0  2  0  0  0  0  0  0
  188.1020  177.6260  146.0780 C   0  0  0  0  0  0  0  0  0  0  0  0
  185.9470  178.2410  144.3990 C   0  0  0  0  0  0  0  0  0  0  0  0
  183.8970  179.6500  143.9670 C   0  0  0  0  0  2  0  0  0  0  0  0
  185.9120  178.5290  145.7280 N   0  0  0  0  0  0  0  0  0  0  0  0
  182.7020  179.5320  143.0390 C   0  0  1  0  0  3  0  0  0  0  0  0
  188.1840  177.3250  144.7060 C   0  0  0  0  0  0  0  0  0  0  0  0
  183.0800  178.5030  141.9760 C   0  0  0  0  0  2  0  0  0  0  0  0
  187.1020  177.6340  143.8550 C   0  0  0  0  0  0  0  0  0  0  0  0
  184.8130  178.5930  143.5870 N   0  0  0  0  0  0  0  0  0  0  0  0
  181.4990  179.0500  143.8360 C   0  0  0  0  0  2  0  0  0  0  0  0
  180.2290  179.3110  143.0970 C   0  0  0  0  0  0  0  0  0  0  0  0
  179.9440  180.5100  142.7120 N   0  0  0  0  0  1  0  0  0  0  0  0
  179.4180  178.2220  142.6760 N   0  0  0  0  0  2  0  0  0  0  0  0
  189.4330  176.6980  144.1500 C   0  0  0  0  0  2  0  0  0  0  0  0
  190.4940  178.8290  144.1410 O   0  0  0  0  0  0  0  0  0  0  0  0
  190.6090  177.5920  144.3530 C   0  0  0  0  0  0  0  0  0  0  0  0
  191.8190  177.0510  144.7900 O   0  0  0  0  0  0  0  0  0  0  0  0
  191.9030  176.2620  145.9680 C   0  0  0  0  0  1  0  0  0  0  0  0
  1  5  1  0  0  0  0
  2  6  2  0  0  0  0
  2  3  1  0  0  0  0
  3  5  2  0  0  0  0
  4  1  2  0  0  0  0
  5 30  1  0  0  0  0
  6  4  1  0  0  0  0
  7  8  1  0  0  0  0
  7  2  1  0  0  0  0
  9 12  1  6  0  0  0
  9 10  1  0  0  0  0
 10  8  1  0  0  0  0
 11  9  1  0  0  0  0
 11 10  1  0  0  0  0
 12 14  1  0  0  0  0
 13 14  1  0  0  0  0
 14 17  1  0  0  0  0
 14 15  1  0  0  0  0
 16 22  1  6  0  0  0
 16 20  1  0  0  0  0
 16 21  1  0  0  0  0
 17 23  1  6  0  0  0
 17 19  1  0  0  0  0
 19 21  1  0  0  0  0
 19 18  1  1  0  0  0
 21 24  2  0  0  0  0
 25 17  1  0  0  0  0
 25 16  1  0  0  0  0
 26 27  2  0  0  0  0
 27 19  1  0  0  0  0
 27 28  1  0  0  0  0
 29 28  1  0  0  0  0
 30 31  1  0  0  0  0
 31 45  1  0  0  0  0
 32 37  1  0  0  0  0
 33 46  1  0  0  0  0
 35 36  1  0  0  0  0
 36 34  1  0  0  0  0
 37 34  1  0  0  0  0
 38 35  1  0  0  0  0
 38 32  1  0  0  0  0
 39 41  1  0  0  0  0
 41 35  2  0  0  0  0
 42 47  1  1  0  0  0
 42 40  1  0  0  0  0
 43 38  2  0  0  0  0
 44 33  1  0  0  0  0
 44 42  1  0  0  0  0
 45 39  2  0  0  0  0
 45 43  1  0  0  0  0
 46 40  1  0  0  0  0
 46 39  1  0  0  0  0
 48 47  1  0  0  0  0
 49 48  1  0  0  0  0
 50 48  2  0  0  0  0
 51 53  1  0  0  0  0
 51 43  1  0  0  0  0
 52 53  2  0  0  0  0
 53 54  1  0  0  0  0
 54 55  1  0  0  0  0
M  END
>  <MODEL>
4

>  <REMARK>
 VINA RESULT:      -7.9      1.151      2.349
  Name = 
  16 active torsions:
  status: ('A' for Active; 'I' for Inactive)
    1  A    between atoms: O_2  and  C_28
    2  A    between atoms: O_2  and  C_44
    3  A    between atoms: O_4  and  C_40
    4  A    between atoms: C_6  and  C_20
    5  A    between atoms: C_8  and  C_22
    6  A    between atoms: C_10  and  C_32
    7  A    between atoms: C_11  and  C_38
    8  A    between atoms: C_14  and  C_38
    9  A    between atoms: C_19  and  C_40
   10  A    between atoms: C_19  and  C_45
   11  A    between atoms: C_20  and  C_22
   12  A    between atoms: C_27  and  C_54
   13  A    between atoms: C_28  and  C_49
   14  A    between atoms: C_32  and  C_39
   15  A    between atoms: N_35  and  C_51
   16  A    between atoms: C_51  and  C_54
                            x       y       z     vdW  Elec       q    Type
                         _______ _______ _______ _____ _____    ______ ____

>  <TORSDO>
F 16

$$$$
=
 OpenBabel11052415103D

 55 60  0  0  1  0  0  0  0  0999 V2000
  181.8580  178.9800  139.5760 C   0  0  0  0  0  3  0  0  0  0  0  0
  182.1810  178.9240  142.3300 C   0  0  0  0  0  0  0  0  0  0  0  0
  183.2250  178.4970  141.5060 C   0  0  0  0  0  3  0  0  0  0  0  0
  180.8350  179.3940  140.4310 C   0  0  0  0  0  3  0  0  0  0  0  0
  183.0630  178.5230  140.1140 C   0  0  0  0  0  0  0  0  0  0  0  0
  181.0130  179.3530  141.7790 N   0  0  0  0  0  0  0  0  0  0  0  0
  182.3320  178.8850  143.8100 C   0  0  0  0  0  2  0  0  0  0  0  0
  183.7010  179.4020  144.2080 C   0  0  0  0  0  2  0  0  0  0  0  0
  185.8680  178.5700  144.4870 C   0  0  1  0  0  3  0  0  0  0  0  0
  184.4590  178.3330  144.8360 N   0  0  0  0  0  0  0  0  0  0  0  0
  185.3700  178.9720  145.7970 C   0  0  0  0  0  2  0  0  0  0  0  0
  186.6460  177.2680  144.6180 C   0  0  0  0  0  2  0  0  0  0  0  0
  187.9490  175.7270  143.3400 O   0  0  0  0  0  1  0  0  0  0  0  0
  187.7330  177.0930  143.5480 C   0  0  0  0  0  0  0  0  0  0  0  0
  187.2600  177.6400  142.3520 O   0  0  0  0  0  1  0  0  0  0  0  0
  189.8340  177.2720  146.0630 C   0  0  2  0  0  0  0  0  0  0  0  0
  189.0850  177.7730  143.9380 C   0  0  1  0  0  0  0  0  0  0  0  0
  190.1720  175.6270  142.9100 C   0  0  0  0  0  1  0  0  0  0  0  0
  190.3820  176.9110  143.7220 C   0  0  2  0  0  0  0  0  0  0  0  0
  189.0560  176.3800  146.7810 F   0  0  0  0  0  0  0  0  0  0  0  0
  190.6910  176.5460  145.1110 C   0  0  0  0  0  0  0  0  0  0  0  0
  190.6790  178.0930  147.0200 C   0  0  0  0  0  1  0  0  0  0  0  0
  189.1790  178.9560  143.2170 F   0  0  0  0  0  0  0  0  0  0  0  0
  191.5600  175.7500  145.4410 O   0  0  0  0  0  0  0  0  0  0  0  0
  189.0060  178.1330  145.3130 O   0  0  0  0  0  0  0  0  0  0  0  0
  192.0680  178.5910  143.8520 O   0  0  0  0  0  0  0  0  0  0  0  0
  191.5410  177.7310  143.1600 C   0  0  0  0  0  0  0  0  0  0  0  0
  192.0860  177.4870  141.7820 C   0  0  0  0  0  2  0  0  0  0  0  0
  190.9790  177.5640  140.7510 C   0  0  0  0  0  1  0  0  0  0  0  0
  184.0770  178.1050  139.2500 O   0  0  0  0  0  0  0  0  0  0  0  0
  183.8540  177.8610  137.8670 C   0  0  0  0  0  2  0  0  0  0  0  0
  181.9040  173.2380  137.3300 C   0  0  0  0  0  2  0  0  0  0  0  0
  186.7690  177.7740  138.1100 C   0  0  0  0  0  2  0  0  0  0  0  0
  183.4660  171.3640  136.8510 C   0  0  0  0  0  2  0  0  0  0  0  0
  184.3540  173.7210  136.8740 C   0  0  0  0  0  0  0  0  0  0  0  0
  184.5730  172.3110  136.3960 C   0  0  0  0  0  2  0  0  0  0  0  0
  182.1120  171.9680  136.5100 C   0  0  0  0  0  2  0  0  0  0  0  0
  183.0730  174.1910  137.2310 C   0  0  0  0  0  0  0  0  0  0  0  0
  185.3010  175.8860  137.2120 C   0  0  0  0  0  0  0  0  0  0  0  0
  187.6100  176.3860  136.3200 C   0  0  0  0  0  2  0  0  0  0  0  0
  185.4060  174.5770  136.8580 N   0  0  0  0  0  0  0  0  0  0  0  0
  188.7440  177.2950  136.7560 C   0  0  1  0  0  3  0  0  0  0  0  0
  182.9190  175.5430  137.5890 C   0  0  0  0  0  0  0  0  0  0  0  0
  188.1420  178.2970  137.7380 C   0  0  0  0  0  2  0  0  0  0  0  0
  184.0380  176.4020  137.5790 C   0  0  0  0  0  0  0  0  0  0  0  0
  186.4820  176.7090  137.1690 N   0  0  0  0  0  0  0  0  0  0  0  0
  189.8150  176.4610  137.4440 C   0  0  0  0  0  2  0  0  0  0  0  0
  190.9060  176.1000  136.4900 C   0  0  0  0  0  0  0  0  0  0  0  0
  191.9090  175.3980  136.8970 N   0  0  0  0  0  1  0  0  0  0  0  0
  190.7600  176.3900  135.1060 N   0  0  0  0  0  2  0  0  0  0  0  0
  181.5590  176.0710  137.9550 C   0  0  0  0  0  2  0  0  0  0  0  0
  179.7020  175.5640  136.5560 O   0  0  0  0  0  0  0  0  0  0  0  0
  180.7250  176.2770  136.7370 C   0  0  0  0  0  0  0  0  0  0  0  0
  181.0780  177.2670  135.8190 O   0  0  0  0  0  0  0  0  0  0  0  0
  180.8130  178.6410  136.0630 C   0  0  0  0  0  1  0  0  0  0  0  0
  1  5  2  0  0  0  0
  1  4  1  0  0  0  0
  2  7  1  0  0  0  0
  3  2  2  0  0  0  0
  4  6  2  0  0  0  0
  5  3  1  0  0  0  0
  6  2  1  0  0  0  0
  7  8  1  0  0  0  0
  8 10  1  0  0  0  0
  9 12  1  1  0  0  0
  9 10  1  0  0  0  0
  9 11  1  0  0  0  0
 10 11  1  0  0  0  0
 13 14  1  0  0  0  0
 14 17  1  0  0  0  0
 14 12  1  0  0  0  0
 15 14  1  0  0  0  0
 16 20  1  0  0  0  0
 16 22  1  1  0  0  0
 17 23  1  6  0  0  0
 17 25  1  0  0  0  0
 19 18  1  6  0  0  0
 19 17  1  0  0  0  0
 19 21  1  0  0  0  0
 21 24  2  0  0  0  0
 21 16  1  0  0  0  0
 25 16  1  0  0  0  0
 27 19  1  0  0  0  0
 27 26  2  0  0  0  0
 28 27  1  0  0  0  0
 29 28  1  0  0  0  0
 30  5  1  0  0  0  0
 31 30  1  0  0  0  0
 35 38  1  0  0  0  0
 36 34  1  0  0  0  0
 36 35  1  0  0  0  0
 37 34  1  0  0  0  0
 37 32  1  0  0  0  0
 38 32  1  0  0  0  0
 38 43  2  0  0  0  0
 39 45  2  0  0  0  0
 40 42  1  0  0  0  0
 40 46  1  0  0  0  0
 41 35  2  0  0  0  0
 41 39  1  0  0  0  0
 42 47  1  1  0  0  0
 42 44  1  0  0  0  0
 43 51  1  0  0  0  0
 44 33  1  0  0  0  0
 45 43  1  0  0  0  0
 45 31  1  0  0  0  0
 46 39  1  0  0  0  0
 46 33  1  0  0  0  0
 48 49  1  0  0  0  0
 48 47  1  0  0  0  0
 50 48  2  0  0  0  0
 52 53  2  0  0  0  0
 53 51  1  0  0  0  0
 54 55  1  0  0  0  0
 54 53  1  0  0  0  0
M  END
>  <MODEL>
5

>  <REMARK>
 VINA RESULT:      -6.8      2.514     10.471
  Name = 
  16 active torsions:
  status: ('A' for Active; 'I' for Inactive)
    1  A    between atoms: O_2  and  C_28
    2  A    between atoms: O_2  and  C_44
    3  A    between atoms: O_4  and  C_40
    4  A    between atoms: C_6  and  C_20
    5  A    between atoms: C_8  and  C_22
    6  A    between atoms: C_10  and  C_32
    7  A    between atoms: C_11  and  C_38
    8  A    between atoms: C_14  and  C_38
    9  A    between atoms: C_19  and  C_40
   10  A    between atoms: C_19  and  C_45
   11  A    between atoms: C_20  and  C_22
   12  A    between atoms: C_27  and  C_54
   13  A    between atoms: C_28  and  C_49
   14  A    between atoms: C_32  and  C_39
   15  A    between atoms: N_35  and  C_51
   16  A    between atoms: C_51  and  C_54
                            x       y       z     vdW  Elec       q    Type
                         _______ _______ _______ _____ _____    ______ ____

>  <TORSDO>
F 16

$$$$
=
 OpenBabel11052415103D

 55 60  0  0  1  0  0  0  0  0999 V2000
  185.8520  178.2550  138.5470 C   0  0  0  0  0  3  0  0  0  0  0  0
  188.1130  177.8460  136.9940 C   0  0  0  0  0  0  0  0  0  0  0  0
  188.2030  177.7310  138.3840 C   0  0  0  0  0  3  0  0  0  0  0  0
  185.8010  178.3660  137.1560 C   0  0  0  0  0  3  0  0  0  0  0  0
  187.0600  177.9390  139.1700 C   0  0  0  0  0  0  0  0  0  0  0  0
  186.9240  178.1670  136.4140 N   0  0  0  0  0  0  0  0  0  0  0  0
  189.3200  177.6460  136.1480 C   0  0  0  0  0  2  0  0  0  0  0  0
  189.4620  176.1820  135.7790 C   0  0  0  0  0  2  0  0  0  0  0  0
  191.6280  175.3060  135.8480 C   0  0  1  0  0  3  0  0  0  0  0  0
  190.6610  175.9960  134.9810 N   0  0  0  0  0  0  0  0  0  0  0  0
  190.8680  174.5450  134.8630 C   0  0  0  0  0  2  0  0  0  0  0  0
  193.0370  175.5470  135.3240 C   0  0  0  0  0  2  0  0  0  0  0  0
  194.6440  176.6780  136.6820 O   0  0  0  0  0  1  0  0  0  0  0  0
  194.1230  175.4110  136.4020 C   0  0  0  0  0  0  0  0  0  0  0  0
  193.5220  174.9270  137.5670 O   0  0  0  0  0  1  0  0  0  0  0  0
  197.3000  175.5190  135.5870 C   0  0  2  0  0  0  0  0  0  0  0  0
  195.2860  174.4590  135.9770 C   0  0  1  0  0  0  0  0  0  0  0  0
  195.7370  174.2710  138.5470 C   0  0  0  0  0  1  0  0  0  0  0  0
  196.2380  173.9680  137.1290 C   0  0  2  0  0  0  0  0  0  0  0  0
  197.3150  176.8840  135.8120 F   0  0  0  0  0  0  0  0  0  0  0  0
  197.4240  174.7920  136.8620 C   0  0  0  0  0  0  0  0  0  0  0  0
  198.4340  175.1460  134.6500 C   0  0  0  0  0  1  0  0  0  0  0  0
  194.7180  173.3650  135.3370 F   0  0  0  0  0  0  0  0  0  0  0  0
  198.4010  174.8580  137.5950 O   0  0  0  0  0  0  0  0  0  0  0  0
  196.0710  175.1430  135.0060 O   0  0  0  0  0  0  0  0  0  0  0  0
  197.3200  172.1390  136.0500 O   0  0  0  0  0  0  0  0  0  0  0  0
  196.6180  172.4970  136.9860 C   0  0  0  0  0  0  0  0  0  0  0  0
  196.1830  171.4670  137.9890 C   0  0  0  0  0  2  0  0  0  0  0  0
  195.9630  170.1280  137.3140 C   0  0  0  0  0  1  0  0  0  0  0  0
  187.1010  177.8370  140.5620 O   0  0  0  0  0  0  0  0  0  0  0  0
  186.6850  178.8910  141.4200 C   0  0  0  0  0  2  0  0  0  0  0  0
  189.5440  177.3060  145.2630 C   0  0  0  0  0  2  0  0  0  0  0  0
  183.8380  178.4890  141.9650 C   0  0  0  0  0  2  0  0  0  0  0  0
  188.4150  176.7750  147.4140 C   0  0  0  0  0  2  0  0  0  0  0  0
  187.0730  177.8100  145.5500 C   0  0  0  0  0  0  0  0  0  0  0  0
  187.1650  177.5630  147.0320 C   0  0  0  0  0  2  0  0  0  0  0  0
  189.6360  177.4260  146.7820 C   0  0  0  0  0  2  0  0  0  0  0  0
  188.2150  177.7790  144.7230 C   0  0  0  0  0  0  0  0  0  0  0  0
  185.6970  178.4750  143.7170 C   0  0  0  0  0  0  0  0  0  0  0  0
  183.3820  179.3790  144.1650 C   0  0  0  0  0  2  0  0  0  0  0  0
  185.8730  178.1700  145.0310 N   0  0  0  0  0  0  0  0  0  0  0  0
  182.0680  179.3610  143.4050 C   0  0  1  0  0  3  0  0  0  0  0  0
  188.0770  178.1010  143.3600 C   0  0  0  0  0  0  0  0  0  0  0  0
  182.4080  178.9920  141.9630 C   0  0  0  0  0  2  0  0  0  0  0  0
  186.8110  178.4550  142.8480 C   0  0  0  0  0  0  0  0  0  0  0  0
  184.3790  178.8370  143.2640 N   0  0  0  0  0  0  0  0  0  0  0  0
  181.1530  178.3100  144.0170 C   0  0  0  0  0  2  0  0  0  0  0  0
  179.7640  178.4370  143.4860 C   0  0  0  0  0  0  0  0  0  0  0  0
  179.0140  179.4130  143.8730 N   0  0  0  0  0  1  0  0  0  0  0  0
  179.3260  177.5830  142.4370 N   0  0  0  0  0  2  0  0  0  0  0  0
  189.2840  178.0930  142.4620 C   0  0  0  0  0  2  0  0  0  0  0  0
  188.9500  175.7370  142.4370 O   0  0  0  0  0  0  0  0  0  0  0  0
  189.5280  176.7270  141.9150 C   0  0  0  0  0  0  0  0  0  0  0  0
  190.3810  176.5640  140.8230 O   0  0  0  0  0  0  0  0  0  0  0  0
  191.4030  177.5040  140.5260 C   0  0  0  0  0  1  0  0  0  0  0  0
  1  5  1  0  0  0  0
  2  3  1  0  0  0  0
  3  5  2  0  0  0  0
  4  1  2  0  0  0  0
  5 30  1  0  0  0  0
  6  2  2  0  0  0  0
  6  4  1  0  0  0  0
  7  2  1  0  0  0  0
  8  7  1  0  0  0  0
  9 12  1  6  0  0  0
 10  8  1  0  0  0  0
 10  9  1  0  0  0  0
 11 10  1  0  0  0  0
 11  9  1  0  0  0  0
 12 14  1  0  0  0  0
 14 13  1  0  0  0  0
 14 15  1  0  0  0  0
 16 22  1  6  0  0  0
 16 20  1  0  0  0  0
 16 21  1  0  0  0  0
 17 23  1  6  0  0  0
 17 14  1  0  0  0  0
 17 19  1  0  0  0  0
 19 18  1  1  0  0  0
 21 19  1  0  0  0  0
 21 24  2  0  0  0  0
 25 16  1  0  0  0  0
 25 17  1  0  0  0  0
 26 27  2  0  0  0  0
 27 19  1  0  0  0  0
 27 28  1  0  0  0  0
 29 28  1  0  0  0  0
 30 31  1  0  0  0  0
 31 45  1  0  0  0  0
 32 37  1  0  0  0  0
 33 46  1  0  0  0  0
 35 36  1  0  0  0  0
 36 34  1  0  0  0  0
 37 34  1  0  0  0  0
 38 32  1  0  0  0  0
 38 35  2  0  0  0  0
 39 41  2  0  0  0  0
 41 35  1  0  0  0  0
 42 47  1  1  0  0  0
 42 40  1  0  0  0  0
 43 38  1  0  0  0  0
 44 33  1  0  0  0  0
 44 42  1  0  0  0  0
 45 43  2  0  0  0  0
 45 39  1  0  0  0  0
 46 39  1  0  0  0  0
 46 40  1  0  0  0  0
 48 49  1  0  0  0  0
 48 47  1  0  0  0  0
 50 48  2  0  0  0  0
 51 43  1  0  0  0  0
 53 52  2  0  0  0  0
 53 51  1  0  0  0  0
 54 53  1  0  0  0  0
 55 54  1  0  0  0  0
M  END
>  <MODEL>
6

>  <REMARK>
 VINA RESULT:      -6.8      5.146      8.994
  Name = 
  16 active torsions:
  status: ('A' for Active; 'I' for Inactive)
    1  A    between atoms: O_2  and  C_28
    2  A    between atoms: O_2  and  C_44
    3  A    between atoms: O_4  and  C_40
    4  A    between atoms: C_6  and  C_20
    5  A    between atoms: C_8  and  C_22
    6  A    between atoms: C_10  and  C_32
    7  A    between atoms: C_11  and  C_38
    8  A    between atoms: C_14  and  C_38
    9  A    between atoms: C_19  and  C_40
   10  A    between atoms: C_19  and  C_45
   11  A    between atoms: C_20  and  C_22
   12  A    between atoms: C_27  and  C_54
   13  A    between atoms: C_28  and  C_49
   14  A    between atoms: C_32  and  C_39
   15  A    between atoms: N_35  and  C_51
   16  A    between atoms: C_51  and  C_54
                            x       y       z     vdW  Elec       q    Type
                         _______ _______ _______ _____ _____    ______ ____

>  <TORSDO>
F 16

$$$$
=
 OpenBabel11052415103D

 55 60  0  0  1  0  0  0  0  0999 V2000
  186.4120  177.9130  136.2360 C   0  0  0  0  0  3  0  0  0  0  0  0
  186.9380  175.2020  135.9670 C   0  0  0  0  0  0  0  0  0  0  0  0
  186.6740  175.7290  137.2330 C   0  0  0  0  0  3  0  0  0  0  0  0
  186.6860  177.3510  134.9870 C   0  0  0  0  0  3  0  0  0  0  0  0
  186.4090  177.0990  137.3710 C   0  0  0  0  0  0  0  0  0  0  0  0
  186.9470  176.0200  134.8790 N   0  0  0  0  0  0  0  0  0  0  0  0
  187.2390  173.7540  135.8070 C   0  0  0  0  0  2  0  0  0  0  0  0
  186.0400  173.0340  135.2210 C   0  0  0  0  0  2  0  0  0  0  0  0
  183.7610  173.3420  135.6440 C   0  0  1  0  0  3  0  0  0  0  0  0
  185.0200  172.8770  136.2440 N   0  0  0  0  0  0  0  0  0  0  0  0
  184.0420  171.9130  135.7190 C   0  0  0  0  0  2  0  0  0  0  0  0
  182.7870  173.7260  136.7480 C   0  0  0  0  0  2  0  0  0  0  0  0
  183.4570  175.4490  138.2610 O   0  0  0  0  0  1  0  0  0  0  0  0
  182.7750  175.2300  137.0590 C   0  0  0  0  0  0  0  0  0  0  0  0
  183.4710  175.8910  136.0440 O   0  0  0  0  0  1  0  0  0  0  0  0
  180.4020  175.6730  139.2830 C   0  0  2  0  0  0  0  0  0  0  0  0
  181.3320  175.8160  137.1740 C   0  0  1  0  0  0  0  0  0  0  0  0
  182.5570  178.0600  137.7270 C   0  0  0  0  0  1  0  0  0  0  0  0
  181.2240  177.3030  137.6770 C   0  0  2  0  0  0  0  0  0  0  0  0
  181.2160  175.1340  140.2640 F   0  0  0  0  0  0  0  0  0  0  0  0
  180.7530  177.0840  139.0500 C   0  0  0  0  0  0  0  0  0  0  0  0
  178.9480  175.5490  139.7030 C   0  0  0  0  0  1  0  0  0  0  0  0
  180.7320  175.6950  135.9270 F   0  0  0  0  0  0  0  0  0  0  0  0
  180.6490  177.9630  139.8950 O   0  0  0  0  0  0  0  0  0  0  0  0
  180.5980  174.9850  138.0670 O   0  0  0  0  0  0  0  0  0  0  0  0
  178.9820  177.9060  137.1380 O   0  0  0  0  0  0  0  0  0  0  0  0
  180.1690  178.1020  136.9150 C   0  0  0  0  0  0  0  0  0  0  0  0
  180.5460  179.1590  135.9180 C   0  0  0  0  0  2  0  0  0  0  0  0
  181.2510  178.5410  134.7280 C   0  0  0  0  0  1  0  0  0  0  0  0
  186.1390  177.6720  138.6160 O   0  0  0  0  0  0  0  0  0  0  0  0
  186.9280  178.7200  139.1640 C   0  0  0  0  0  2  0  0  0  0  0  0
  186.9680  178.2710  144.1890 C   0  0  0  0  0  2  0  0  0  0  0  0
  189.5550  178.1350  138.0140 C   0  0  0  0  0  2  0  0  0  0  0  0
  188.9410  177.1880  145.2460 C   0  0  0  0  0  2  0  0  0  0  0  0
  188.7550  177.2070  142.7340 C   0  0  0  0  0  0  0  0  0  0  0  0
  189.3780  176.5440  143.9330 C   0  0  0  0  0  2  0  0  0  0  0  0
  187.4240  177.3000  145.2740 C   0  0  0  0  0  2  0  0  0  0  0  0
  187.5620  177.9510  142.8370 C   0  0  0  0  0  0  0  0  0  0  0  0
  188.7910  177.4900  140.3640 C   0  0  0  0  0  0  0  0  0  0  0  0
  190.3200  176.0490  138.9630 C   0  0  0  0  0  2  0  0  0  0  0  0
  189.3110  176.9880  141.5160 N   0  0  0  0  0  0  0  0  0  0  0  0
  191.0590  176.2450  137.6520 C   0  0  1  0  0  3  0  0  0  0  0  0
  186.9830  178.4750  141.6660 C   0  0  0  0  0  0  0  0  0  0  0  0
  190.4190  177.4530  136.9720 C   0  0  0  0  0  2  0  0  0  0  0  0
  187.5970  178.2440  140.4170 C   0  0  0  0  0  0  0  0  0  0  0  0
  189.4630  177.2060  139.1230 N   0  0  0  0  0  0  0  0  0  0  0  0
  192.5270  176.5190  137.9430 C   0  0  0  0  0  2  0  0  0  0  0  0
  193.3350  175.2690  137.8330 C   0  0  0  0  0  0  0  0  0  0  0  0
  192.8660  174.2550  137.1860 N   0  0  0  0  0  2  0  0  0  0  0  0
  194.6790  175.2520  138.2960 N   0  0  0  0  0  1  0  0  0  0  0  0
  185.7000  179.2570  141.7490 C   0  0  0  0  0  2  0  0  0  0  0  0
  184.0540  177.6760  141.0730 O   0  0  0  0  0  0  0  0  0  0  0  0
  184.5450  178.3520  142.0160 C   0  0  0  0  0  0  0  0  0  0  0  0
  184.0320  178.2530  143.3100 O   0  0  0  0  0  0  0  0  0  0  0  0
  183.0770  179.1770  143.8080 C   0  0  0  0  0  1  0  0  0  0  0  0
  1  5  1  0  0  0  0
  2  3  1  0  0  0  0
  3  5  2  0  0  0  0
  4  1  2  0  0  0  0
  5 30  1  0  0  0  0
  6  4  1  0  0  0  0
  6  2  2  0  0  0  0
  7  2  1  0  0  0  0
  8  7  1  0  0  0  0
  8 10  1  0  0  0  0
  9 11  1  0  0  0  0
  9 10  1  0  0  0  0
  9 12  1  1  0  0  0
 11 10  1  0  0  0  0
 12 14  1  0  0  0  0
 14 17  1  0  0  0  0
 14 13  1  0  0  0  0
 15 14  1  0  0  0  0
 16 22  1  1  0  0  0
 16 20  1  0  0  0  0
 17 23  1  6  0  0  0
 17 19  1  0  0  0  0
 17 25  1  0  0  0  0
 19 18  1  6  0  0  0
 19 21  1  0  0  0  0
 21 16  1  0  0  0  0
 21 24  2  0  0  0  0
 25 16  1  0  0  0  0
 27 26  2  0  0  0  0
 27 19  1  0  0  0  0
 28 27  1  0  0  0  0
 29 28  1  0  0  0  0
 30 31  1  0  0  0  0
 31 45  1  0  0  0  0
 32 37  1  0  0  0  0
 33 46  1  0  0  0  0
 34 37  1  0  0  0  0
 35 38  1  0  0  0  0
 35 36  1  0  0  0  0
 36 34  1  0  0  0  0
 38 32  1  0  0  0  0
 39 45  2  0  0  0  0
 39 41  1  0  0  0  0
 40 46  1  0  0  0  0
 41 35  2  0  0  0  0
 42 47  1  1  0  0  0
 42 40  1  0  0  0  0
 43 51  1  0  0  0  0
 43 38  2  0  0  0  0
 44 42  1  0  0  0  0
 44 33  1  0  0  0  0
 45 43  1  0  0  0  0
 46 39  1  0  0  0  0
 48 47  1  0  0  0  0
 48 50  1  0  0  0  0
 49 48  2  0  0  0  0
 51 53  1  0  0  0  0
 52 53  2  0  0  0  0
 53 54  1  0  0  0  0
 54 55  1  0  0  0  0
M  END
>  <MODEL>
7

>  <REMARK>
 VINA RESULT:      -6.7      3.022      6.289
  Name = 
  16 active torsions:
  status: ('A' for Active; 'I' for Inactive)
    1  A    between atoms: O_2  and  C_28
    2  A    between atoms: O_2  and  C_44
    3  A    between atoms: O_4  and  C_40
    4  A    between atoms: C_6  and  C_20
    5  A    between atoms: C_8  and  C_22
    6  A    between atoms: C_10  and  C_32
    7  A    between atoms: C_11  and  C_38
    8  A    between atoms: C_14  and  C_38
    9  A    between atoms: C_19  and  C_40
   10  A    between atoms: C_19  and  C_45
   11  A    between atoms: C_20  and  C_22
   12  A    between atoms: C_27  and  C_54
   13  A    between atoms: C_28  and  C_49
   14  A    between atoms: C_32  and  C_39
   15  A    between atoms: N_35  and  C_51
   16  A    between atoms: C_51  and  C_54
                            x       y       z     vdW  Elec       q    Type
                         _______ _______ _______ _____ _____    ______ ____

>  <TORSDO>
F 16

$$$$
=
 OpenBabel11052415103D

 55 60  0  0  1  0  0  0  0  0999 V2000
  184.6810  178.4650  144.4670 C   0  0  0  0  0  3  0  0  0  0  0  0
  182.9660  178.8120  142.3140 C   0  0  0  0  0  0  0  0  0  0  0  0
  184.2720  178.3700  142.0890 C   0  0  0  0  0  3  0  0  0  0  0  0
  183.3710  178.9100  144.6530 C   0  0  0  0  0  3  0  0  0  0  0  0
  185.1400  178.1950  143.1770 C   0  0  0  0  0  0  0  0  0  0  0  0
  182.5480  179.0790  143.5820 N   0  0  0  0  0  0  0  0  0  0  0  0
  182.0390  179.0190  141.1700 C   0  0  0  0  0  2  0  0  0  0  0  0
  181.3920  177.7040  140.7780 C   0  0  0  0  0  2  0  0  0  0  0  0
  181.2830  176.3000  138.9120 C   0  0  1  0  0  3  0  0  0  0  0  0
  181.1360  177.6970  139.3480 N   0  0  0  0  0  0  0  0  0  0  0  0
  179.9520  176.8510  139.1370 C   0  0  0  0  0  2  0  0  0  0  0  0
  181.5720  176.2660  137.4180 C   0  0  0  0  0  2  0  0  0  0  0  0
  181.5110  173.8810  137.5400 O   0  0  0  0  0  1  0  0  0  0  0  0
  182.1960  174.9450  136.9440 C   0  0  0  0  0  0  0  0  0  0  0  0
  182.0190  174.8500  135.5620 O   0  0  0  0  0  1  0  0  0  0  0  0
  184.8270  173.1350  136.1880 C   0  0  2  0  0  0  0  0  0  0  0  0
  183.7160  174.8340  137.2880 C   0  0  1  0  0  0  0  0  0  0  0  0
  184.0320  176.5020  135.2980 C   0  0  0  0  0  1  0  0  0  0  0  0
  184.7050  175.5600  136.3040 C   0  0  2  0  0  0  0  0  0  0  0  0
  184.0700  172.4040  135.2890 F   0  0  0  0  0  0  0  0  0  0  0  0
  185.2520  174.4070  135.5780 C   0  0  0  0  0  0  0  0  0  0  0  0
  186.0350  172.3210  136.6150 C   0  0  0  0  0  1  0  0  0  0  0  0
  183.8890  175.3220  138.5760 F   0  0  0  0  0  0  0  0  0  0  0  0
  185.9800  174.4870  134.5990 O   0  0  0  0  0  0  0  0  0  0  0  0
  184.0510  173.4500  137.3220 O   0  0  0  0  0  0  0  0  0  0  0  0
  186.7950  175.6160  137.4500 O   0  0  0  0  0  0  0  0  0  0  0  0
  185.8440  176.2660  137.0370 C   0  0  0  0  0  0  0  0  0  0  0  0
  185.8540  177.7540  137.2360 C   0  0  0  0  0  2  0  0  0  0  0  0
  184.9520  178.1420  138.3900 C   0  0  0  0  0  1  0  0  0  0  0  0
  186.4540  177.7560  143.0020 O   0  0  0  0  0  0  0  0  0  0  0  0
  187.5700  178.6360  143.0590 C   0  0  0  0  0  2  0  0  0  0  0  0
  190.4250  176.9690  146.8700 C   0  0  0  0  0  2  0  0  0  0  0  0
  188.9770  178.4390  140.4990 C   0  0  0  0  0  2  0  0  0  0  0  0
  192.5040  175.7250  146.3100 C   0  0  0  0  0  2  0  0  0  0  0  0
  190.9180  176.3540  144.4570 C   0  0  0  0  0  0  0  0  0  0  0  0
  192.0330  175.4380  144.8880 C   0  0  0  0  0  2  0  0  0  0  0  0
  191.3020  175.7760  147.2410 C   0  0  0  0  0  2  0  0  0  0  0  0
  190.0960  177.0100  145.3960 C   0  0  0  0  0  0  0  0  0  0  0  0
  189.6250  177.2110  142.6430 C   0  0  0  0  0  0  0  0  0  0  0  0
  189.8970  176.2110  140.3410 C   0  0  0  0  0  2  0  0  0  0  0  0
  190.6480  176.4600  143.1320 N   0  0  0  0  0  0  0  0  0  0  0  0
  189.7690  176.7470  138.9270 C   0  0  1  0  0  3  0  0  0  0  0  0
  189.0170  177.7860  144.9310 C   0  0  0  0  0  0  0  0  0  0  0  0
  189.0020  178.0630  139.0320 C   0  0  0  0  0  2  0  0  0  0  0  0
  188.7740  177.8890  143.5460 C   0  0  0  0  0  0  0  0  0  0  0  0
  189.4280  177.2640  141.2180 N   0  0  0  0  0  0  0  0  0  0  0  0
  191.1600  176.9900  138.3590 C   0  0  0  0  0  2  0  0  0  0  0  0
  191.5800  175.8630  137.4750 C   0  0  0  0  0  0  0  0  0  0  0  0
  190.7300  174.9470  137.1530 N   0  0  0  0  0  1  0  0  0  0  0  0
  192.8610  175.8870  136.8590 N   0  0  0  0  0  2  0  0  0  0  0  0
  188.1150  178.4800  145.9150 C   0  0  0  0  0  2  0  0  0  0  0  0
  186.7860  176.5070  145.9970 O   0  0  0  0  0  0  0  0  0  0  0  0
  187.2500  177.4950  146.6260 C   0  0  0  0  0  0  0  0  0  0  0  0
  186.9790  177.6700  147.9840 O   0  0  0  0  0  0  0  0  0  0  0  0
  188.0140  177.8930  148.9300 C   0  0  0  0  0  1  0  0  0  0  0  0
  1  4  1  0  0  0  0
  2  6  1  0  0  0  0
  3  2  2  0  0  0  0
  3  5  1  0  0  0  0
  5  1  2  0  0  0  0
  6  4  2  0  0  0  0
  7  2  1  0  0  0  0
  8  7  1  0  0  0  0
  9 12  1  6  0  0  0
  9 11  1  0  0  0  0
  9 10  1  0  0  0  0
 10  8  1  0  0  0  0
 11 10  1  0  0  0  0
 14 17  1  0  0  0  0
 14 12  1  0  0  0  0
 14 13  1  0  0  0  0
 15 14  1  0  0  0  0
 16 22  1  1  0  0  0
 16 25  1  0  0  0  0
 17 25  1  0  0  0  0
 17 23  1  1  0  0  0
 19 18  1  6  0  0  0
 19 27  1  0  0  0  0
 19 17  1  0  0  0  0
 20 16  1  0  0  0  0
 21 16  1  0  0  0  0
 21 19  1  0  0  0  0
 24 21  2  0  0  0  0
 27 28  1  0  0  0  0
 27 26  2  0  0  0  0
 28 29  1  0  0  0  0
 30 31  1  0  0  0  0
 30  5  1  0  0  0  0
 31 45  1  0  0  0  0
 32 37  1  0  0  0  0
 33 46  1  0  0  0  0
 34 37  1  0  0  0  0
 35 36  1  0  0  0  0
 35 38  1  0  0  0  0
 36 34  1  0  0  0  0
 38 32  1  0  0  0  0
 39 41  1  0  0  0  0
 39 45  2  0  0  0  0
 40 46  1  0  0  0  0
 41 35  2  0  0  0  0
 42 47  1  1  0  0  0
 42 44  1  0  0  0  0
 42 40  1  0  0  0  0
 43 38  2  0  0  0  0
 43 51  1  0  0  0  0
 44 33  1  0  0  0  0
 45 43  1  0  0  0  0
 46 39  1  0  0  0  0
 48 47  1  0  0  0  0
 49 48  1  0  0  0  0
 50 48  2  0  0  0  0
 51 53  1  0  0  0  0
 52 53  2  0  0  0  0
 53 54  1  0  0  0  0
 54 55  1  0  0  0  0
M  END
>  <MODEL>
8

>  <REMARK>
 VINA RESULT:      -6.5      2.390      6.497
  Name = 
  16 active torsions:
  status: ('A' for Active; 'I' for Inactive)
    1  A    between atoms: O_2  and  C_28
    2  A    between atoms: O_2  and  C_44
    3  A    between atoms: O_4  and  C_40
    4  A    between atoms: C_6  and  C_20
    5  A    between atoms: C_8  and  C_22
    6  A    between atoms: C_10  and  C_32
    7  A    between atoms: C_11  and  C_38
    8  A    between atoms: C_14  and  C_38
    9  A    between atoms: C_19  and  C_40
   10  A    between atoms: C_19  and  C_45
   11  A    between atoms: C_20  and  C_22
   12  A    between atoms: C_27  and  C_54
   13  A    between atoms: C_28  and  C_49
   14  A    between atoms: C_32  and  C_39
   15  A    between atoms: N_35  and  C_51
   16  A    between atoms: C_51  and  C_54
                            x       y       z     vdW  Elec       q    Type
                         _______ _______ _______ _____ _____    ______ ____

>  <TORSDO>
F 16

$$$$
=
 OpenBabel11052415103D

 55 60  0  0  1  0  0  0  0  0999 V2000
  187.1860  178.2230  136.2970 C   0  0  0  0  0  3  0  0  0  0  0  0
  186.2370  175.7040  135.6280 C   0  0  0  0  0  0  0  0  0  0  0  0
  186.5520  175.9890  136.9580 C   0  0  0  0  0  3  0  0  0  0  0  0
  186.8650  177.9000  134.9770 C   0  0  0  0  0  3  0  0  0  0  0  0
  187.0330  177.2620  137.2980 C   0  0  0  0  0  0  0  0  0  0  0  0
  186.4070  176.6570  134.6700 N   0  0  0  0  0  0  0  0  0  0  0  0
  185.7430  174.3530  135.2490 C   0  0  0  0  0  2  0  0  0  0  0  0
  184.2330  174.3710  135.1060 C   0  0  0  0  0  2  0  0  0  0  0  0
  182.1860  174.1180  136.2060 C   0  0  1  0  0  3  0  0  0  0  0  0
  183.6250  173.8340  136.3110 N   0  0  0  0  0  0  0  0  0  0  0  0
  182.6870  172.7880  135.8790 C   0  0  0  0  0  2  0  0  0  0  0  0
  181.5650  174.0980  137.5950 C   0  0  0  0  0  2  0  0  0  0  0  0
  180.2360  175.8260  136.6170 O   0  0  0  0  0  1  0  0  0  0  0  0
  180.5870  175.2560  137.8460 C   0  0  0  0  0  0  0  0  0  0  0  0
  179.4270  174.7300  138.4220 O   0  0  0  0  0  1  0  0  0  0  0  0
  182.7240  177.7450  137.7570 C   0  0  2  0  0  0  0  0  0  0  0  0
  181.1800  176.3630  138.7750 C   0  0  1  0  0  0  0  0  0  0  0  0
  179.1560  177.7950  137.9400 C   0  0  0  0  0  1  0  0  0  0  0  0
  180.4850  177.7720  138.7050 C   0  0  2  0  0  0  0  0  0  0  0  0
  182.9490  177.5090  136.4130 F   0  0  0  0  0  0  0  0  0  0  0  0
  181.4860  178.5230  137.9370 C   0  0  0  0  0  0  0  0  0  0  0  0
  183.9080  178.4880  138.3490 C   0  0  0  0  0  1  0  0  0  0  0  0
  181.1380  175.8810  140.0770 F   0  0  0  0  0  0  0  0  0  0  0  0
  181.3230  179.6580  137.5090 O   0  0  0  0  0  0  0  0  0  0  0  0
  182.5530  176.5210  138.4370 O   0  0  0  0  0  0  0  0  0  0  0  0
  179.2330  178.4680  140.6110 O   0  0  0  0  0  0  0  0  0  0  0  0
  180.3350  178.4180  140.0810 C   0  0  0  0  0  0  0  0  0  0  0  0
  181.5150  178.9660  140.8300 C   0  0  0  0  0  2  0  0  0  0  0  0
  181.2330  178.9950  142.3180 C   0  0  0  0  0  1  0  0  0  0  0  0
  187.3630  177.5940  138.6140 O   0  0  0  0  0  0  0  0  0  0  0  0
  188.4640  178.4310  138.9400 C   0  0  0  0  0  2  0  0  0  0  0  0
  189.4140  178.1650  143.8880 C   0  0  0  0  0  2  0  0  0  0  0  0
  190.5550  177.1120  137.3740 C   0  0  0  0  0  2  0  0  0  0  0  0
  191.2100  176.6220  144.6480 C   0  0  0  0  0  2  0  0  0  0  0  0
  190.5250  176.6030  142.2240 C   0  0  0  0  0  0  0  0  0  0  0  0
  191.1860  175.8380  143.3390 C   0  0  0  0  0  2  0  0  0  0  0  0
  189.8140  177.1450  144.9500 C   0  0  0  0  0  2  0  0  0  0  0  0
  189.6140  177.6480  142.4820 C   0  0  0  0  0  0  0  0  0  0  0  0
  190.1480  176.7820  139.8740 C   0  0  0  0  0  0  0  0  0  0  0  0
  190.9290  174.9310  138.3440 C   0  0  0  0  0  2  0  0  0  0  0  0
  190.7440  176.1990  140.9480 N   0  0  0  0  0  0  0  0  0  0  0  0
  191.4080  174.8730  136.9050 C   0  0  1  0  0  3  0  0  0  0  0  0
  188.9640  178.2680  141.3990 C   0  0  0  0  0  0  0  0  0  0  0  0
  190.9800  176.1850  136.2530 C   0  0  0  0  0  2  0  0  0  0  0  0
  189.2270  177.8350  140.0830 C   0  0  0  0  0  0  0  0  0  0  0  0
  190.4540  176.2830  138.5590 N   0  0  0  0  0  0  0  0  0  0  0  0
  192.9250  174.7460  136.8910 C   0  0  0  0  0  2  0  0  0  0  0  0
  193.3610  173.6510  135.9750 C   0  0  0  0  0  0  0  0  0  0  0  0
  194.5740  173.6250  135.5350 N   0  0  0  0  0  2  0  0  0  0  0  0
  192.4920  172.5540  135.7200 N   0  0  0  0  0  1  0  0  0  0  0  0
  187.9740  179.3720  141.6520 C   0  0  0  0  0  2  0  0  0  0  0  0
  185.6940  179.2940  140.9730 O   0  0  0  0  0  0  0  0  0  0  0  0
  186.5870  178.8310  141.7330 C   0  0  0  0  0  0  0  0  0  0  0  0
  186.2980  177.8080  142.6360 O   0  0  0  0  0  0  0  0  0  0  0  0
  185.7190  178.0730  143.9060 C   0  0  0  0  0  1  0  0  0  0  0  0
  1  5  1  0  0  0  0
  2  3  1  0  0  0  0
  3  5  2  0  0  0  0
  4  1  2  0  0  0  0
  5 30  1  0  0  0  0
  6  4  1  0  0  0  0
  6  2  2  0  0  0  0
  7  2  1  0  0  0  0
  8  7  1  0  0  0  0
  8 10  1  0  0  0  0
  9 10  1  0  0  0  0
  9 12  1  1  0  0  0
 11  9  1  0  0  0  0
 11 10  1  0  0  0  0
 12 14  1  0  0  0  0
 13 14  1  0  0  0  0
 14 15  1  0  0  0  0
 14 17  1  0  0  0  0
 16 21  1  0  0  0  0
 16 22  1  1  0  0  0
 16 25  1  0  0  0  0
 17 23  1  1  0  0  0
 19 18  1  6  0  0  0
 19 17  1  0  0  0  0
 19 27  1  0  0  0  0
 20 16  1  0  0  0  0
 21 19  1  0  0  0  0
 24 21  2  0  0  0  0
 25 17  1  0  0  0  0
 27 26  2  0  0  0  0
 27 28  1  0  0  0  0
 28 29  1  0  0  0  0
 30 31  1  0  0  0  0
 31 45  1  0  0  0  0
 32 37  1  0  0  0  0
 33 46  1  0  0  0  0
 34 37  1  0  0  0  0
 35 38  1  0  0  0  0
 35 36  1  0  0  0  0
 36 34  1  0  0  0  0
 38 32  1  0  0  0  0
 39 45  2  0  0  0  0
 39 41  1  0  0  0  0
 40 46  1  0  0  0  0
 41 35  2  0  0  0  0
 42 47  1  1  0  0  0
 42 40  1  0  0  0  0
 43 51  1  0  0  0  0
 43 38  2  0  0  0  0
 44 42  1  0  0  0  0
 44 33  1  0  0  0  0
 45 43  1  0  0  0  0
 46 39  1  0  0  0  0
 48 47  1  0  0  0  0
 49 48  2  0  0  0  0
 50 48  1  0  0  0  0
 51 53  1  0  0  0  0
 52 53  2  0  0  0  0
 53 54  1  0  0  0  0
 54 55  1  0  0  0  0
M  END
>  <MODEL>
9

>  <REMARK>
 VINA RESULT:      -6.5      3.045      6.434
  Name = 
  16 active torsions:
  status: ('A' for Active; 'I' for Inactive)
    1  A    between atoms: O_2  and  C_28
    2  A    between atoms: O_2  and  C_44
    3  A    between atoms: O_4  and  C_40
    4  A    between atoms: C_6  and  C_20
    5  A    between atoms: C_8  and  C_22
    6  A    between atoms: C_10  and  C_32
    7  A    between atoms: C_11  and  C_38
    8  A    between atoms: C_14  and  C_38
    9  A    between atoms: C_19  and  C_40
   10  A    between atoms: C_19  and  C_45
   11  A    between atoms: C_20  and  C_22
   12  A    between atoms: C_27  and  C_54
   13  A    between atoms: C_28  and  C_49
   14  A    between atoms: C_32  and  C_39
   15  A    between atoms: N_35  and  C_51
   16  A    between atoms: C_51  and  C_54
                            x       y       z     vdW  Elec       q    Type
                         _______ _______ _______ _____ _____    ______ ____

>  <TORSDO>
F 16

$$$$
