=
 OpenBabel11052414083D

 34 39  0  0  1  0  0  0  0  0999 V2000
  185.5350  178.0090  143.5270 C   0  0  0  0  0  0  0  0  0  0  0  0
  185.7550  178.8600  141.2620 C   0  0  0  0  0  0  0  0  0  0  0  0
  187.7440  177.8980  142.4890 C   0  0  0  0  0  0  0  0  0  0  0  0
  189.9510  177.4940  141.5520 C   0  0  0  0  0  0  0  0  0  0  0  0
  183.5740  178.7360  142.3130 C   0  0  0  0  0  3  0  0  0  0  0  0
  184.3750  179.0770  141.2270 C   0  0  0  0  0  3  0  0  0  0  0  0
  188.2790  177.7260  140.0170 N   0  0  0  0  0  2  0  0  0  0  0  0
  186.3580  178.2420  142.3910 C   0  0  0  0  0  0  0  0  0  0  0  0
  190.6310  177.3140  140.2480 C   0  0  0  0  0  2  0  0  0  0  0  0
  184.1570  178.2240  143.4670 C   0  0  0  0  0  3  0  0  0  0  0  0
  188.2840  177.5710  143.7730 C   0  0  0  0  0  0  0  0  0  0  0  0
  186.0770  177.6090  144.7020 N   0  0  0  0  0  0  0  0  0  0  0  0
  186.4770  179.4120  140.2590 F   0  0  0  0  0  0  0  0  0  0  0  0
  190.5010  177.2670  142.8030 C   0  0  0  0  0  3  0  0  0  0  0  0
  189.6790  177.3140  143.9380 C   0  0  0  0  0  0  0  0  0  0  0  0
  189.4850  177.4760  139.2330 C   0  0  1  0  0  3  0  0  0  0  0  0
  188.6250  177.7830  141.3870 C   0  0  0  0  0  0  0  0  0  0  0  0
  187.4070  177.4160  144.8500 C   0  0  0  0  0  3  0  0  0  0  0  0
  190.4160  177.4150  147.6680 C   0  0  0  0  0  0  0  0  0  0  0  0
  191.5600  176.6170  147.7420 C   0  0  0  0  0  3  0  0  0  0  0  0
  190.3100  177.0590  145.2620 C   0  0  0  0  0  0  0  0  0  0  0  0
  192.0880  176.0460  146.5820 C   0  0  0  0  0  3  0  0  0  0  0  0
  189.7980  177.6380  146.4340 C   0  0  0  0  0  3  0  0  0  0  0  0
  191.4690  176.2680  145.3490 C   0  0  0  0  0  3  0  0  0  0  0  0
  189.9070  177.9750  148.7910 F   0  0  0  0  0  0  0  0  0  0  0  0
  189.3070  176.2010  138.4260 C   0  0  0  0  0  2  0  0  0  0  0  0
  188.5490  176.4920  137.1410 C   0  0  0  0  0  2  0  0  0  0  0  0
  186.8160  178.6780  137.2060 O   0  0  0  0  0  1  0  0  0  0  0  0
  187.1180  176.3510  137.3720 N   0  0  0  0  0  0  0  0  0  0  0  0
  186.4380  177.4470  136.6640 C   0  0  1  0  0  3  0  0  0  0  0  0
  184.4710  175.9590  136.2450 C   0  0  0  0  0  2  0  0  0  0  0  0
  185.2380  174.8350  136.9260 C   0  0  0  0  0  2  0  0  0  0  0  0
  186.7350  175.0790  136.7560 C   0  0  0  0  0  2  0  0  0  0  0  0
  184.9210  177.3040  136.7990 C   0  0  0  0  0  2  0  0  0  0  0  0
  1 12  1  0  0  0  0
  2  8  1  0  0  0  0
  3 11  1  0  0  0  0
  4 14  2  0  0  0  0
  5 10  2  0  0  0  0
  6  2  2  0  0  0  0
  6  5  1  0  0  0  0
  7 17  1  0  0  0  0
  8  3  1  0  0  0  0
  8  1  2  0  0  0  0
  9  4  1  0  0  0  0
 10  1  1  0  0  0  0
 11 15  2  0  0  0  0
 11 18  1  0  0  0  0
 12 18  2  0  0  0  0
 13  2  1  0  0  0  0
 14 15  1  0  0  0  0
 15 21  1  0  0  0  0
 16 26  1  1  0  0  0
 16  7  1  0  0  0  0
 16  9  1  0  0  0  0
 17  4  1  0  0  0  0
 17  3  2  0  0  0  0
 19 20  1  0  0  0  0
 19 25  1  0  0  0  0
 21 24  2  0  0  0  0
 21 23  1  0  0  0  0
 22 20  2  0  0  0  0
 23 19  2  0  0  0  0
 24 22  1  0  0  0  0
 27 29  1  0  0  0  0
 27 26  1  0  0  0  0
 30 34  1  0  0  0  0
 30 28  1  1  0  0  0
 30 29  1  0  0  0  0
 31 34  1  0  0  0  0
 31 32  1  0  0  0  0
 33 32  1  0  0  0  0
 33 29  1  0  0  0  0
M  END
>  <MODEL>
1

>  <REMARK>
 VINA RESULT:      -9.8      0.000      0.000
  Name = 
  4 active torsions:
  status: ('A' for Active; 'I' for Inactive)
    1  A    between atoms: C_3  and  N_13
    2  A    between atoms: C_3  and  C_17
    3  A    between atoms: C_12  and  C_28
    4  A    between atoms: C_17  and  C_29
                            x       y       z     vdW  Elec       q    Type
                         _______ _______ _______ _____ _____    ______ ____

>  <TORSDO>
F 4

$$$$
=
 OpenBabel11052414083D

 34 39  0  0  1  0  0  0  0  0999 V2000
  190.0340  177.1630  146.8720 C   0  0  0  0  0  0  0  0  0  0  0  0
  191.4850  175.8380  145.4440 C   0  0  0  0  0  0  0  0  0  0  0  0
  189.3760  176.8940  144.5350 C   0  0  0  0  0  0  0  0  0  0  0  0
  188.6780  176.9330  142.2070 C   0  0  0  0  0  0  0  0  0  0  0  0
  192.1410  176.3370  147.7240 C   0  0  0  0  0  3  0  0  0  0  0  0
  192.3890  175.7180  146.5020 C   0  0  0  0  0  3  0  0  0  0  0  0
  190.8930  176.5000  142.5420 N   0  0  0  0  0  2  0  0  0  0  0  0
  190.3170  176.6360  145.5820 C   0  0  0  0  0  0  0  0  0  0  0  0
  189.2280  176.7830  140.8380 C   0  0  0  0  0  2  0  0  0  0  0  0
  190.9560  177.0390  147.9140 C   0  0  0  0  0  3  0  0  0  0  0  0
  188.1010  177.4470  144.8740 C   0  0  0  0  0  0  0  0  0  0  0  0
  188.8470  177.7630  147.1280 N   0  0  0  0  0  0  0  0  0  0  0  0
  191.6980  175.0360  144.3740 F   0  0  0  0  0  0  0  0  0  0  0  0
  187.4100  177.3800  142.5360 C   0  0  0  0  0  3  0  0  0  0  0  0
  187.0940  177.6330  143.8790 C   0  0  0  0  0  0  0  0  0  0  0  0
  190.7190  176.4920  141.0930 C   0  0  1  0  0  3  0  0  0  0  0  0
  189.6360  176.7110  143.1560 C   0  0  0  0  0  0  0  0  0  0  0  0
  187.8880  177.8890  146.1830 C   0  0  0  0  0  3  0  0  0  0  0  0
  183.5100  178.8370  143.4670 C   0  0  0  0  0  0  0  0  0  0  0  0
  183.1550  179.0990  144.7920 C   0  0  0  0  0  3  0  0  0  0  0  0
  185.7210  178.1180  144.1890 C   0  0  0  0  0  0  0  0  0  0  0  0
  184.0790  178.8810  145.8170 C   0  0  0  0  0  3  0  0  0  0  0  0
  184.7870  178.3540  143.1670 C   0  0  0  0  0  3  0  0  0  0  0  0
  185.3550  178.3970  145.5170 C   0  0  0  0  0  3  0  0  0  0  0  0
  182.6180  179.0540  142.4720 F   0  0  0  0  0  0  0  0  0  0  0  0
  191.5840  177.5770  140.4740 C   0  0  0  0  0  2  0  0  0  0  0  0
  191.5550  177.4730  138.9580 C   0  0  0  0  0  2  0  0  0  0  0  0
  189.7620  175.7530  137.6900 O   0  0  0  0  0  1  0  0  0  0  0  0
  191.9190  176.1240  138.5500 N   0  0  0  0  0  0  0  0  0  0  0  0
  191.1200  175.7810  137.3640 C   0  0  1  0  0  3  0  0  0  0  0  0
  193.0040  174.3830  136.4950 C   0  0  0  0  0  2  0  0  0  0  0  0
  193.8180  174.8170  137.7050 C   0  0  0  0  0  2  0  0  0  0  0  0
  193.3320  176.1870  138.1690 C   0  0  0  0  0  2  0  0  0  0  0  0
  191.5200  174.4020  136.8350 C   0  0  0  0  0  2  0  0  0  0  0  0
  1 12  1  0  0  0  0
  1 10  2  0  0  0  0
  2  8  2  0  0  0  0
  2  6  1  0  0  0  0
  3 11  1  0  0  0  0
  3  8  1  0  0  0  0
  4 14  2  0  0  0  0
  4 17  1  0  0  0  0
  5 10  1  0  0  0  0
  6  5  2  0  0  0  0
  7 17  1  0  0  0  0
  8  1  1  0  0  0  0
  9 16  1  0  0  0  0
  9  4  1  0  0  0  0
 11 18  1  0  0  0  0
 13  2  1  0  0  0  0
 14 15  1  0  0  0  0
 15 21  1  0  0  0  0
 15 11  2  0  0  0  0
 16 26  1  6  0  0  0
 16  7  1  0  0  0  0
 17  3  2  0  0  0  0
 18 12  2  0  0  0  0
 19 20  1  0  0  0  0
 20 22  2  0  0  0  0
 21 24  2  0  0  0  0
 23 19  2  0  0  0  0
 23 21  1  0  0  0  0
 24 22  1  0  0  0  0
 25 19  1  0  0  0  0
 27 26  1  0  0  0  0
 29 27  1  0  0  0  0
 30 28  1  1  0  0  0
 30 29  1  0  0  0  0
 31 34  1  0  0  0  0
 31 32  1  0  0  0  0
 32 33  1  0  0  0  0
 33 29  1  0  0  0  0
 34 30  1  0  0  0  0
M  END
>  <MODEL>
2

>  <REMARK>
 VINA RESULT:      -9.8      3.066      6.175
  Name = 
  4 active torsions:
  status: ('A' for Active; 'I' for Inactive)
    1  A    between atoms: C_3  and  N_13
    2  A    between atoms: C_3  and  C_17
    3  A    between atoms: C_12  and  C_28
    4  A    between atoms: C_17  and  C_29
                            x       y       z     vdW  Elec       q    Type
                         _______ _______ _______ _____ _____    ______ ____

>  <TORSDO>
F 4

$$$$
=
 OpenBabel11052414083D

 34 39  0  0  1  0  0  0  0  0999 V2000
  185.5950  177.9800  143.3420 C   0  0  0  0  0  0  0  0  0  0  0  0
  185.8850  178.8360  141.0870 C   0  0  0  0  0  0  0  0  0  0  0  0
  187.8400  177.8970  142.3850 C   0  0  0  0  0  0  0  0  0  0  0  0
  190.0840  177.5200  141.5270 C   0  0  0  0  0  0  0  0  0  0  0  0
  183.6690  178.6840  142.0590 C   0  0  0  0  0  3  0  0  0  0  0  0
  184.5050  179.0360  141.0030 C   0  0  0  0  0  3  0  0  0  0  0  0
  188.4660  177.7320  139.9330 N   0  0  0  0  0  2  0  0  0  0  0  0
  186.4550  178.2240  142.2370 C   0  0  0  0  0  0  0  0  0  0  0  0
  190.8130  177.3490  140.2480 C   0  0  0  0  0  2  0  0  0  0  0  0
  184.2170  178.1790  143.2330 C   0  0  0  0  0  3  0  0  0  0  0  0
  188.3380  177.5750  143.6870 C   0  0  0  0  0  0  0  0  0  0  0  0
  186.0980  177.5860  144.5360 N   0  0  0  0  0  0  0  0  0  0  0  0
  186.6360  179.3970  140.1110 F   0  0  0  0  0  0  0  0  0  0  0  0
  190.5910  177.2980  142.7970 C   0  0  0  0  0  3  0  0  0  0  0  0
  189.7290  177.3340  143.9020 C   0  0  0  0  0  0  0  0  0  0  0  0
  189.7020  177.4980  139.1930 C   0  0  1  0  0  3  0  0  0  0  0  0
  188.7620  177.7920  141.3150 C   0  0  0  0  0  0  0  0  0  0  0  0
  187.4250  177.4080  144.7320 C   0  0  0  0  0  3  0  0  0  0  0  0
  190.3280  177.4380  147.6560 C   0  0  0  0  0  0  0  0  0  0  0  0
  191.4800  176.6570  147.7710 C   0  0  0  0  0  3  0  0  0  0  0  0
  190.3150  177.0850  145.2470 C   0  0  0  0  0  0  0  0  0  0  0  0
  192.0580  176.0960  146.6290 C   0  0  0  0  0  3  0  0  0  0  0  0
  189.7520  177.6550  146.4010 C   0  0  0  0  0  3  0  0  0  0  0  0
  191.4810  176.3120  145.3750 C   0  0  0  0  0  3  0  0  0  0  0  0
  189.7700  177.9880  148.7610 F   0  0  0  0  0  0  0  0  0  0  0  0
  189.5680  176.2210  138.3790 C   0  0  0  0  0  2  0  0  0  0  0  0
  190.9280  175.5680  138.1960 C   0  0  0  0  0  2  0  0  0  0  0  0
  193.5490  176.5200  138.2920 O   0  0  0  0  0  1  0  0  0  0  0  0
  191.5970  176.1420  137.0370 N   0  0  0  0  0  0  0  0  0  0  0  0
  193.0360  175.8700  137.1670 C   0  0  1  0  0  3  0  0  0  0  0  0
  193.2340  175.7110  134.6780 C   0  0  0  0  0  2  0  0  0  0  0  0
  191.7300  175.9300  134.5940 C   0  0  0  0  0  2  0  0  0  0  0  0
  191.0800  175.4160  135.8750 C   0  0  0  0  0  2  0  0  0  0  0  0
  193.7850  176.3760  135.9330 C   0  0  0  0  0  2  0  0  0  0  0  0
  1 12  1  0  0  0  0
  2  8  1  0  0  0  0
  3 11  1  0  0  0  0
  4 14  2  0  0  0  0
  5 10  2  0  0  0  0
  6  2  2  0  0  0  0
  6  5  1  0  0  0  0
  7 17  1  0  0  0  0
  8  3  1  0  0  0  0
  8  1  2  0  0  0  0
  9  4  1  0  0  0  0
 10  1  1  0  0  0  0
 11 15  2  0  0  0  0
 11 18  1  0  0  0  0
 12 18  2  0  0  0  0
 13  2  1  0  0  0  0
 14 15  1  0  0  0  0
 15 21  1  0  0  0  0
 16 26  1  1  0  0  0
 16  7  1  0  0  0  0
 16  9  1  0  0  0  0
 17  4  1  0  0  0  0
 17  3  2  0  0  0  0
 19 20  1  0  0  0  0
 19 25  1  0  0  0  0
 21 24  2  0  0  0  0
 21 23  1  0  0  0  0
 22 20  2  0  0  0  0
 23 19  2  0  0  0  0
 24 22  1  0  0  0  0
 27 26  1  0  0  0  0
 29 30  1  0  0  0  0
 29 27  1  0  0  0  0
 30 28  1  1  0  0  0
 31 34  1  0  0  0  0
 32 31  1  0  0  0  0
 32 33  1  0  0  0  0
 33 29  1  0  0  0  0
 34 30  1  0  0  0  0
M  END
>  <MODEL>
3

>  <REMARK>
 VINA RESULT:      -9.8      2.248      3.227
  Name = 
  4 active torsions:
  status: ('A' for Active; 'I' for Inactive)
    1  A    between atoms: C_3  and  N_13
    2  A    between atoms: C_3  and  C_17
    3  A    between atoms: C_12  and  C_28
    4  A    between atoms: C_17  and  C_29
                            x       y       z     vdW  Elec       q    Type
                         _______ _______ _______ _____ _____    ______ ____

>  <TORSDO>
F 4

$$$$
=
 OpenBabel11052414083D

 34 39  0  0  1  0  0  0  0  0999 V2000
  188.1000  178.5550  139.4570 C   0  0  0  0  0  0  0  0  0  0  0  0
  186.3670  178.1250  137.8090 C   0  0  0  0  0  0  0  0  0  0  0  0
  185.7910  178.4550  140.2480 C   0  0  0  0  0  0  0  0  0  0  0  0
  183.5540  178.6200  141.1850 C   0  0  0  0  0  0  0  0  0  0  0  0
  188.6660  178.4440  137.1090 C   0  0  0  0  0  3  0  0  0  0  0  0
  187.3350  178.1760  136.8030 C   0  0  0  0  0  3  0  0  0  0  0  0
  183.6880  178.9960  138.9380 N   0  0  0  0  0  2  0  0  0  0  0  0
  186.7190  178.3960  139.1600 C   0  0  0  0  0  0  0  0  0  0  0  0
  182.1580  178.9180  140.7840 C   0  0  0  0  0  2  0  0  0  0  0  0
  189.0500  178.6110  138.4350 C   0  0  0  0  0  3  0  0  0  0  0  0
  186.2950  178.4280  141.5860 C   0  0  0  0  0  0  0  0  0  0  0  0
  188.5270  178.6170  140.7400 N   0  0  0  0  0  0  0  0  0  0  0  0
  185.1510  177.6530  137.4520 F   0  0  0  0  0  0  0  0  0  0  0  0
  184.0270  178.5010  142.4810 C   0  0  0  0  0  3  0  0  0  0  0  0
  185.4070  178.3890  142.7040 C   0  0  0  0  0  0  0  0  0  0  0  0
  182.2770  179.1660  139.2690 C   0  0  1  0  0  3  0  0  0  0  0  0
  184.3920  178.6160  140.1050 C   0  0  0  0  0  0  0  0  0  0  0  0
  187.6740  178.5330  141.7860 C   0  0  0  0  0  3  0  0  0  0  0  0
  187.4750  177.4560  145.7560 C   0  0  0  0  0  0  0  0  0  0  0  0
  186.6990  177.9920  146.7870 C   0  0  0  0  0  3  0  0  0  0  0  0
  185.8740  178.2680  144.1120 C   0  0  0  0  0  0  0  0  0  0  0  0
  185.5080  178.6570  146.4880 C   0  0  0  0  0  3  0  0  0  0  0  0
  187.0620  177.5890  144.4280 C   0  0  0  0  0  3  0  0  0  0  0  0
  185.0960  178.7910  145.1590 C   0  0  0  0  0  3  0  0  0  0  0  0
  188.6270  176.8050  146.0450 F   0  0  0  0  0  0  0  0  0  0  0  0
  181.8450  180.5810  138.9270 C   0  0  0  0  0  2  0  0  0  0  0  0
  181.0350  180.5890  137.6410 C   0  0  0  0  0  2  0  0  0  0  0  0
  180.4470  180.8280  134.9240 O   0  0  0  0  0  1  0  0  0  0  0  0
  181.3370  181.7910  136.8760 N   0  0  0  0  0  0  0  0  0  0  0  0
  180.3360  181.9070  135.8050 C   0  0  1  0  0  3  0  0  0  0  0  0
  180.4660  184.4010  135.9490 C   0  0  0  0  0  2  0  0  0  0  0  0
  181.4480  184.2340  137.0990 C   0  0  0  0  0  2  0  0  0  0  0  0
  181.1690  182.9110  137.8060 C   0  0  0  0  0  2  0  0  0  0  0  0
  180.5500  183.2000  135.0170 C   0  0  0  0  0  2  0  0  0  0  0  0
  1 12  1  0  0  0  0
  2  8  1  0  0  0  0
  3 11  1  0  0  0  0
  4 14  2  0  0  0  0
  5 10  2  0  0  0  0
  6  5  1  0  0  0  0
  6  2  2  0  0  0  0
  7 16  1  0  0  0  0
  7 17  1  0  0  0  0
  8  1  2  0  0  0  0
  8  3  1  0  0  0  0
  9  4  1  0  0  0  0
 10  1  1  0  0  0  0
 11 18  1  0  0  0  0
 11 15  2  0  0  0  0
 12 18  2  0  0  0  0
 13  2  1  0  0  0  0
 14 15  1  0  0  0  0
 15 21  1  0  0  0  0
 16 26  1  1  0  0  0
 16  9  1  0  0  0  0
 17  3  2  0  0  0  0
 17  4  1  0  0  0  0
 19 25  1  0  0  0  0
 19 20  1  0  0  0  0
 21 23  1  0  0  0  0
 21 24  2  0  0  0  0
 22 20  2  0  0  0  0
 23 19  2  0  0  0  0
 24 22  1  0  0  0  0
 27 26  1  0  0  0  0
 29 27  1  0  0  0  0
 29 33  1  0  0  0  0
 30 28  1  6  0  0  0
 30 29  1  0  0  0  0
 31 32  1  0  0  0  0
 32 33  1  0  0  0  0
 34 30  1  0  0  0  0
 34 31  1  0  0  0  0
M  END
>  <MODEL>
4

>  <REMARK>
 VINA RESULT:      -9.6      3.888      6.336
  Name = 
  4 active torsions:
  status: ('A' for Active; 'I' for Inactive)
    1  A    between atoms: C_3  and  N_13
    2  A    between atoms: C_3  and  C_17
    3  A    between atoms: C_12  and  C_28
    4  A    between atoms: C_17  and  C_29
                            x       y       z     vdW  Elec       q    Type
                         _______ _______ _______ _____ _____    ______ ____

>  <TORSDO>
F 4

$$$$
=
 OpenBabel11052414083D

 34 39  0  0  1  0  0  0  0  0999 V2000
  183.3830  178.5930  141.7770 C   0  0  0  0  0  0  0  0  0  0  0  0
  184.0380  179.3780  139.5730 C   0  0  0  0  0  0  0  0  0  0  0  0
  185.7600  178.5310  141.2180 C   0  0  0  0  0  0  0  0  0  0  0  0
  188.1230  178.1790  140.7690 C   0  0  0  0  0  0  0  0  0  0  0  0
  181.6920  179.2070  140.1600 C   0  0  0  0  0  3  0  0  0  0  0  0
  182.6890  179.5420  139.2490 C   0  0  0  0  0  3  0  0  0  0  0  0
  186.7970  178.2980  138.9160 N   0  0  0  0  0  2  0  0  0  0  0  0
  184.4150  178.8200  140.8250 C   0  0  0  0  0  0  0  0  0  0  0  0
  189.0630  177.9820  139.6390 C   0  0  0  0  0  2  0  0  0  0  0  0
  182.0400  178.7550  141.4280 C   0  0  0  0  0  3  0  0  0  0  0  0
  186.0340  178.2660  142.5970 C   0  0  0  0  0  0  0  0  0  0  0  0
  183.6830  178.2520  143.0530 N   0  0  0  0  0  0  0  0  0  0  0  0
  184.9340  179.9230  138.7180 F   0  0  0  0  0  0  0  0  0  0  0  0
  188.4110  178.0120  142.1140 C   0  0  0  0  0  3  0  0  0  0  0  0
  187.3720  178.0660  143.0540 C   0  0  0  0  0  0  0  0  0  0  0  0
  188.1450  178.0670  138.4060 C   0  0  1  0  0  3  0  0  0  0  0  0
  186.8520  178.4120  140.3250 C   0  0  0  0  0  0  0  0  0  0  0  0
  184.9590  178.1130  143.4770 C   0  0  0  0  0  3  0  0  0  0  0  0
  189.3070  177.2170  146.2160 C   0  0  0  0  0  0  0  0  0  0  0  0
  188.3460  177.4630  147.1990 C   0  0  0  0  0  3  0  0  0  0  0  0
  187.7250  177.8780  144.4880 C   0  0  0  0  0  0  0  0  0  0  0  0
  187.0730  177.9060  146.8330 C   0  0  0  0  0  3  0  0  0  0  0  0
  188.9960  177.4190  144.8680 C   0  0  0  0  0  3  0  0  0  0  0  0
  186.7630  178.1090  145.4860 C   0  0  0  0  0  3  0  0  0  0  0  0
  190.5400  176.7810  146.5680 F   0  0  0  0  0  0  0  0  0  0  0  0
  188.1750  176.7610  137.6300 C   0  0  0  0  0  2  0  0  0  0  0  0
  186.8240  176.5020  136.9830 C   0  0  0  0  0  2  0  0  0  0  0  0
  184.1670  176.2780  137.8040 O   0  0  0  0  0  1  0  0  0  0  0  0
  186.2640  175.2590  137.4950 N   0  0  0  0  0  0  0  0  0  0  0  0
  184.8330  175.2360  137.1550 C   0  0  1  0  0  3  0  0  0  0  0  0
  184.9240  172.7470  136.9280 C   0  0  0  0  0  2  0  0  0  0  0  0
  186.4160  172.8240  137.2190 C   0  0  0  0  0  2  0  0  0  0  0  0
  186.9420  174.1840  136.7690 C   0  0  0  0  0  2  0  0  0  0  0  0
  184.2050  173.9120  137.5930 C   0  0  0  0  0  2  0  0  0  0  0  0
  1 12  1  0  0  0  0
  2  8  1  0  0  0  0
  3 11  1  0  0  0  0
  4 14  2  0  0  0  0
  5 10  2  0  0  0  0
  6  2  2  0  0  0  0
  6  5  1  0  0  0  0
  7 17  1  0  0  0  0
  8  3  1  0  0  0  0
  8  1  2  0  0  0  0
  9  4  1  0  0  0  0
 10  1  1  0  0  0  0
 11 15  2  0  0  0  0
 11 18  1  0  0  0  0
 12 18  2  0  0  0  0
 13  2  1  0  0  0  0
 14 15  1  0  0  0  0
 15 21  1  0  0  0  0
 16 26  1  1  0  0  0
 16  7  1  0  0  0  0
 16  9  1  0  0  0  0
 17  4  1  0  0  0  0
 17  3  2  0  0  0  0
 19 25  1  0  0  0  0
 19 20  1  0  0  0  0
 21 23  1  0  0  0  0
 21 24  2  0  0  0  0
 22 20  2  0  0  0  0
 23 19  2  0  0  0  0
 24 22  1  0  0  0  0
 27 29  1  0  0  0  0
 27 26  1  0  0  0  0
 30 29  1  0  0  0  0
 30 34  1  0  0  0  0
 30 28  1  1  0  0  0
 31 32  1  0  0  0  0
 31 34  1  0  0  0  0
 33 32  1  0  0  0  0
 33 29  1  0  0  0  0
M  END
>  <MODEL>
5

>  <REMARK>
 VINA RESULT:      -9.6      1.691      2.743
  Name = 
  4 active torsions:
  status: ('A' for Active; 'I' for Inactive)
    1  A    between atoms: C_3  and  N_13
    2  A    between atoms: C_3  and  C_17
    3  A    between atoms: C_12  and  C_28
    4  A    between atoms: C_17  and  C_29
                            x       y       z     vdW  Elec       q    Type
                         _______ _______ _______ _____ _____    ______ ____

>  <TORSDO>
F 4

$$$$
=
 OpenBabel11052414083D

 34 39  0  0  1  0  0  0  0  0999 V2000
  185.6220  178.0050  143.2650 C   0  0  0  0  0  0  0  0  0  0  0  0
  185.9370  178.7420  140.9710 C   0  0  0  0  0  0  0  0  0  0  0  0
  187.8620  177.8020  142.3130 C   0  0  0  0  0  0  0  0  0  0  0  0
  190.0910  177.3110  141.4750 C   0  0  0  0  0  0  0  0  0  0  0  0
  183.7190  178.7100  141.9490 C   0  0  0  0  0  3  0  0  0  0  0  0
  184.5640  178.9830  140.8780 C   0  0  0  0  0  3  0  0  0  0  0  0
  188.4790  177.5000  139.8720 N   0  0  0  0  0  2  0  0  0  0  0  0
  186.4880  178.1680  142.1490 C   0  0  0  0  0  0  0  0  0  0  0  0
  190.8120  177.0550  140.2050 C   0  0  0  0  0  2  0  0  0  0  0  0
  184.2510  178.2440  143.1470 C   0  0  0  0  0  3  0  0  0  0  0  0
  188.3510  177.5270  143.6290 C   0  0  0  0  0  0  0  0  0  0  0  0
  186.1140  177.6520  144.4760 N   0  0  0  0  0  0  0  0  0  0  0  0
  186.7050  179.2300  139.9700 F   0  0  0  0  0  0  0  0  0  0  0  0
  190.5930  177.1330  142.7540 C   0  0  0  0  0  3  0  0  0  0  0  0
  189.7330  177.2510  143.8560 C   0  0  0  0  0  0  0  0  0  0  0  0
  189.7050  177.1900  139.1440 C   0  0  1  0  0  3  0  0  0  0  0  0
  188.7780  177.6170  141.2490 C   0  0  0  0  0  0  0  0  0  0  0  0
  187.4340  177.4400  144.6800 C   0  0  0  0  0  3  0  0  0  0  0  0
  190.3060  177.4710  147.6090 C   0  0  0  0  0  0  0  0  0  0  0  0
  191.4660  176.7060  147.7540 C   0  0  0  0  0  3  0  0  0  0  0  0
  190.3130  177.0480  145.2110 C   0  0  0  0  0  0  0  0  0  0  0  0
  192.0570  176.1180  146.6330 C   0  0  0  0  0  3  0  0  0  0  0  0
  189.7360  177.6440  146.3440 C   0  0  0  0  0  3  0  0  0  0  0  0
  191.4870  176.2910  145.3690 C   0  0  0  0  0  3  0  0  0  0  0  0
  189.7350  178.0460  148.6940 F   0  0  0  0  0  0  0  0  0  0  0  0
  189.5280  175.8810  138.3930 C   0  0  0  0  0  2  0  0  0  0  0  0
  189.1550  176.1510  136.9440 C   0  0  0  0  0  2  0  0  0  0  0  0
  189.9470  173.6170  136.0860 O   0  0  0  0  0  1  0  0  0  0  0  0
  188.2060  175.1470  136.4850 N   0  0  0  0  0  0  0  0  0  0  0  0
  188.7640  173.8230  136.8000 C   0  0  1  0  0  3  0  0  0  0  0  0
  186.4540  172.9310  137.1530 C   0  0  0  0  0  2  0  0  0  0  0  0
  185.9250  174.3320  136.8860 C   0  0  0  0  0  2  0  0  0  0  0  0
  186.9910  175.3510  137.2770 C   0  0  0  0  0  2  0  0  0  0  0  0
  187.7700  172.7240  136.4170 C   0  0  0  0  0  2  0  0  0  0  0  0
  1 12  1  0  0  0  0
  2  8  1  0  0  0  0
  3 11  1  0  0  0  0
  4 14  2  0  0  0  0
  5 10  2  0  0  0  0
  6  2  2  0  0  0  0
  6  5  1  0  0  0  0
  7 17  1  0  0  0  0
  8  3  1  0  0  0  0
  8  1  2  0  0  0  0
  9  4  1  0  0  0  0
 10  1  1  0  0  0  0
 11 15  2  0  0  0  0
 11 18  1  0  0  0  0
 12 18  2  0  0  0  0
 13  2  1  0  0  0  0
 14 15  1  0  0  0  0
 15 21  1  0  0  0  0
 16 26  1  1  0  0  0
 16  7  1  0  0  0  0
 16  9  1  0  0  0  0
 17  4  1  0  0  0  0
 17  3  2  0  0  0  0
 19 20  1  0  0  0  0
 19 25  1  0  0  0  0
 21 24  2  0  0  0  0
 21 23  1  0  0  0  0
 22 20  2  0  0  0  0
 23 19  2  0  0  0  0
 24 22  1  0  0  0  0
 27 26  1  0  0  0  0
 29 30  1  0  0  0  0
 29 27  1  0  0  0  0
 29 33  1  0  0  0  0
 30 28  1  6  0  0  0
 32 31  1  0  0  0  0
 32 33  1  0  0  0  0
 34 30  1  0  0  0  0
 34 31  1  0  0  0  0
M  END
>  <MODEL>
6

>  <REMARK>
 VINA RESULT:      -9.5      1.352      1.760
  Name = 
  4 active torsions:
  status: ('A' for Active; 'I' for Inactive)
    1  A    between atoms: C_3  and  N_13
    2  A    between atoms: C_3  and  C_17
    3  A    between atoms: C_12  and  C_28
    4  A    between atoms: C_17  and  C_29
                            x       y       z     vdW  Elec       q    Type
                         _______ _______ _______ _____ _____    ______ ____

>  <TORSDO>
F 4

$$$$
=
 OpenBabel11052414083D

 34 39  0  0  1  0  0  0  0  0999 V2000
  187.1230  177.5600  144.7080 C   0  0  0  0  0  0  0  0  0  0  0  0
  185.1750  179.0050  144.5660 C   0  0  0  0  0  0  0  0  0  0  0  0
  186.4050  178.2700  142.4840 C   0  0  0  0  0  0  0  0  0  0  0  0
  185.7140  178.6790  140.1890 C   0  0  0  0  0  0  0  0  0  0  0  0
  185.8540  178.0790  146.7010 C   0  0  0  0  0  3  0  0  0  0  0  0
  185.0010  178.8790  145.9460 C   0  0  0  0  0  3  0  0  0  0  0  0
  184.0600  178.8910  141.7450 N   0  0  0  0  0  2  0  0  0  0  0  0
  186.1990  178.2790  143.9000 C   0  0  0  0  0  0  0  0  0  0  0  0
  184.5110  179.0210  139.3930 C   0  0  0  0  0  2  0  0  0  0  0  0
  186.9250  177.4400  146.0850 C   0  0  0  0  0  3  0  0  0  0  0  0
  187.6370  177.7580  141.9690 C   0  0  0  0  0  0  0  0  0  0  0  0
  188.2340  177.0100  144.1640 N   0  0  0  0  0  0  0  0  0  0  0  0
  184.4400  179.9610  143.9500 F   0  0  0  0  0  0  0  0  0  0  0  0
  186.9400  178.2710  139.6890 C   0  0  0  0  0  3  0  0  0  0  0  0
  187.9290  177.8160  140.5720 C   0  0  0  0  0  0  0  0  0  0  0  0
  183.4140  179.1590  140.4640 C   0  0  1  0  0  3  0  0  0  0  0  0
  185.4400  178.6680  141.5270 C   0  0  0  0  0  0  0  0  0  0  0  0
  188.5150  177.1150  142.8460 C   0  0  0  0  0  3  0  0  0  0  0  0
  191.6590  177.2490  140.0890 C   0  0  0  0  0  0  0  0  0  0  0  0
  191.6800  176.6160  138.8440 C   0  0  0  0  0  3  0  0  0  0  0  0
  189.2300  177.3820  139.9920 C   0  0  0  0  0  0  0  0  0  0  0  0
  190.4840  176.3720  138.1660 C   0  0  0  0  0  3  0  0  0  0  0  0
  190.4410  177.6340  140.6570 C   0  0  0  0  0  3  0  0  0  0  0  0
  189.2670  176.7560  138.7340 C   0  0  0  0  0  3  0  0  0  0  0  0
  192.8180  177.4920  140.7450 F   0  0  0  0  0  0  0  0  0  0  0  0
  182.3130  178.1390  140.2310 C   0  0  0  0  0  2  0  0  0  0  0  0
  180.9490  178.8010  140.3360 C   0  0  0  0  0  2  0  0  0  0  0  0
  179.7680  181.2480  140.9690 O   0  0  0  0  0  1  0  0  0  0  0  0
  180.7130  179.2260  141.7090 N   0  0  0  0  0  0  0  0  0  0  0  0
  179.5250  180.0920  141.7150 C   0  0  1  0  0  3  0  0  0  0  0  0
  178.9310  179.2670  144.0000 C   0  0  0  0  0  2  0  0  0  0  0  0
  180.1340  178.3380  143.9240 C   0  0  0  0  0  2  0  0  0  0  0  0
  180.4150  178.0060  142.4610 C   0  0  0  0  0  2  0  0  0  0  0  0
  179.1750  180.5030  143.1460 C   0  0  0  0  0  2  0  0  0  0  0  0
  1 10  2  0  0  0  0
  2  6  1  0  0  0  0
  3  8  1  0  0  0  0
  4 17  1  0  0  0  0
  6  5  2  0  0  0  0
  8  2  2  0  0  0  0
  8  1  1  0  0  0  0
  9  4  1  0  0  0  0
  9 16  1  0  0  0  0
 10  5  1  0  0  0  0
 11  3  1  0  0  0  0
 11 18  1  0  0  0  0
 12  1  1  0  0  0  0
 13  2  1  0  0  0  0
 14  4  2  0  0  0  0
 14 15  1  0  0  0  0
 15 11  2  0  0  0  0
 16 26  1  6  0  0  0
 16  7  1  0  0  0  0
 17  7  1  0  0  0  0
 17  3  2  0  0  0  0
 18 12  2  0  0  0  0
 19 23  1  0  0  0  0
 19 25  1  0  0  0  0
 20 19  2  0  0  0  0
 21 15  1  0  0  0  0
 21 23  2  0  0  0  0
 22 24  2  0  0  0  0
 22 20  1  0  0  0  0
 24 21  1  0  0  0  0
 26 27  1  0  0  0  0
 27 29  1  0  0  0  0
 29 30  1  0  0  0  0
 29 33  1  0  0  0  0
 30 28  1  6  0  0  0
 30 34  1  0  0  0  0
 32 31  1  0  0  0  0
 33 32  1  0  0  0  0
 34 31  1  0  0  0  0
M  END
>  <MODEL>
7

>  <REMARK>
 VINA RESULT:      -9.4      3.441      6.389
  Name = 
  4 active torsions:
  status: ('A' for Active; 'I' for Inactive)
    1  A    between atoms: C_3  and  N_13
    2  A    between atoms: C_3  and  C_17
    3  A    between atoms: C_12  and  C_28
    4  A    between atoms: C_17  and  C_29
                            x       y       z     vdW  Elec       q    Type
                         _______ _______ _______ _____ _____    ______ ____

>  <TORSDO>
F 4

$$$$
=
 OpenBabel11052414083D

 34 39  0  0  1  0  0  0  0  0999 V2000
  183.4680  178.5770  141.9770 C   0  0  0  0  0  0  0  0  0  0  0  0
  184.2070  179.3400  139.7920 C   0  0  0  0  0  0  0  0  0  0  0  0
  185.8640  178.5100  141.5100 C   0  0  0  0  0  0  0  0  0  0  0  0
  188.2430  178.1530  141.1550 C   0  0  0  0  0  0  0  0  0  0  0  0
  181.8400  179.1750  140.2910 C   0  0  0  0  0  3  0  0  0  0  0  0
  182.8720  179.5010  139.4150 C   0  0  0  0  0  3  0  0  0  0  0  0
  186.9890  178.2540  139.2520 N   0  0  0  0  0  2  0  0  0  0  0  0
  184.5350  178.7950  141.0630 C   0  0  0  0  0  0  0  0  0  0  0  0
  189.2250  177.9450  140.0640 C   0  0  0  0  0  2  0  0  0  0  0  0
  182.1400  178.7350  141.5760 C   0  0  0  0  0  3  0  0  0  0  0  0
  186.0860  178.2580  142.9010 C   0  0  0  0  0  0  0  0  0  0  0  0
  183.7190  178.2490  143.2670 N   0  0  0  0  0  0  0  0  0  0  0  0
  185.1360  179.8770  138.9670 F   0  0  0  0  0  0  0  0  0  0  0  0
  188.4790  178.0000  142.5110 C   0  0  0  0  0  3  0  0  0  0  0  0
  187.4050  178.0630  143.4110 C   0  0  0  0  0  0  0  0  0  0  0  0
  188.3550  178.0190  138.7960 C   0  0  1  0  0  3  0  0  0  0  0  0
  186.9900  178.3820  140.6610 C   0  0  0  0  0  0  0  0  0  0  0  0
  184.9780  178.1140  143.7410 C   0  0  0  0  0  3  0  0  0  0  0  0
  189.1670  177.1280  146.6490 C   0  0  0  0  0  0  0  0  0  0  0  0
  188.2140  177.5060  147.5980 C   0  0  0  0  0  3  0  0  0  0  0  0
  187.7030  177.8890  144.8590 C   0  0  0  0  0  0  0  0  0  0  0  0
  187.0030  178.0660  147.1840 C   0  0  0  0  0  3  0  0  0  0  0  0
  188.9100  177.3150  145.2880 C   0  0  0  0  0  3  0  0  0  0  0  0
  186.7470  178.2520  145.8230 C   0  0  0  0  0  3  0  0  0  0  0  0
  190.3390  176.5800  147.0480 F   0  0  0  0  0  0  0  0  0  0  0  0
  188.4140  176.7050  138.0350 C   0  0  0  0  0  2  0  0  0  0  0  0
  189.6980  176.6210  137.2260 C   0  0  0  0  0  2  0  0  0  0  0  0
  190.8900  174.1260  137.5930 O   0  0  0  0  0  1  0  0  0  0  0  0
  189.5920  175.5500  136.2450 N   0  0  0  0  0  0  0  0  0  0  0  0
  189.6490  174.2710  136.9670 C   0  0  1  0  0  3  0  0  0  0  0  0
  188.1250  173.2420  135.2710 C   0  0  0  0  0  2  0  0  0  0  0  0
  188.0420  174.6020  134.5940 C   0  0  0  0  0  2  0  0  0  0  0  0
  188.2680  175.6930  135.6360 C   0  0  0  0  0  2  0  0  0  0  0  0
  189.4570  173.1050  135.9970 C   0  0  0  0  0  2  0  0  0  0  0  0
  1 12  1  0  0  0  0
  2  8  1  0  0  0  0
  3 11  1  0  0  0  0
  4 14  2  0  0  0  0
  5 10  2  0  0  0  0
  6  2  2  0  0  0  0
  6  5  1  0  0  0  0
  7 17  1  0  0  0  0
  8  3  1  0  0  0  0
  8  1  2  0  0  0  0
  9  4  1  0  0  0  0
 10  1  1  0  0  0  0
 11 15  2  0  0  0  0
 11 18  1  0  0  0  0
 12 18  2  0  0  0  0
 13  2  1  0  0  0  0
 14 15  1  0  0  0  0
 15 21  1  0  0  0  0
 16 26  1  1  0  0  0
 16  7  1  0  0  0  0
 16  9  1  0  0  0  0
 17  4  1  0  0  0  0
 17  3  2  0  0  0  0
 19 25  1  0  0  0  0
 19 20  1  0  0  0  0
 21 23  1  0  0  0  0
 21 24  2  0  0  0  0
 22 20  2  0  0  0  0
 23 19  2  0  0  0  0
 24 22  1  0  0  0  0
 27 26  1  0  0  0  0
 29 30  1  0  0  0  0
 29 27  1  0  0  0  0
 30 28  1  6  0  0  0
 31 34  1  0  0  0  0
 32 31  1  0  0  0  0
 32 33  1  0  0  0  0
 33 29  1  0  0  0  0
 34 30  1  0  0  0  0
M  END
>  <MODEL>
8

>  <REMARK>
 VINA RESULT:      -9.4      2.198      3.095
  Name = 
  4 active torsions:
  status: ('A' for Active; 'I' for Inactive)
    1  A    between atoms: C_3  and  N_13
    2  A    between atoms: C_3  and  C_17
    3  A    between atoms: C_12  and  C_28
    4  A    between atoms: C_17  and  C_29
                            x       y       z     vdW  Elec       q    Type
                         _______ _______ _______ _____ _____    ______ ____

>  <TORSDO>
F 4

$$$$
=
 OpenBabel11052414083D

 34 39  0  0  1  0  0  0  0  0999 V2000
  188.6820  177.0850  145.7790 C   0  0  0  0  0  0  0  0  0  0  0  0
  186.8330  178.5640  146.3300 C   0  0  0  0  0  0  0  0  0  0  0  0
  187.4270  178.0620  143.9250 C   0  0  0  0  0  0  0  0  0  0  0  0
  186.1660  178.7460  141.9620 C   0  0  0  0  0  0  0  0  0  0  0  0
  188.0180  177.3840  148.0860 C   0  0  0  0  0  3  0  0  0  0  0  0
  187.0300  178.2790  147.6830 C   0  0  0  0  0  3  0  0  0  0  0  0
  185.0000  178.7960  143.9230 N   0  0  0  0  0  2  0  0  0  0  0  0
  187.6090  177.9060  145.3360 C   0  0  0  0  0  0  0  0  0  0  0  0
  184.8110  179.1950  141.5650 C   0  0  0  0  0  2  0  0  0  0  0  0
  188.8550  176.8070  147.1370 C   0  0  0  0  0  3  0  0  0  0  0  0
  188.4520  177.5970  143.0420 C   0  0  0  0  0  0  0  0  0  0  0  0
  189.5810  176.5890  144.8980 N   0  0  0  0  0  0  0  0  0  0  0  0
  186.0040  179.5940  146.0450 F   0  0  0  0  0  0  0  0  0  0  0  0
  187.1940  178.3840  141.1070 C   0  0  0  0  0  3  0  0  0  0  0  0
  188.3620  177.8140  141.6340 C   0  0  0  0  0  0  0  0  0  0  0  0
  184.0470  179.2210  142.9020 C   0  0  1  0  0  3  0  0  0  0  0  0
  186.2600  178.5820  143.3160 C   0  0  0  0  0  0  0  0  0  0  0  0
  189.5040  176.8440  143.5720 C   0  0  0  0  0  3  0  0  0  0  0  0
  191.7970  177.1530  140.1410 C   0  0  0  0  0  0  0  0  0  0  0  0
  191.4610  176.7800  138.8370 C   0  0  0  0  0  3  0  0  0  0  0  0
  189.4390  177.4350  140.6790 C   0  0  0  0  0  0  0  0  0  0  0  0
  190.1200  176.7410  138.4470 C   0  0  0  0  0  3  0  0  0  0  0  0
  190.7920  177.4830  141.0540 C   0  0  0  0  0  3  0  0  0  0  0  0
  189.1160  177.0700  139.3610 C   0  0  0  0  0  3  0  0  0  0  0  0
  193.0960  177.1960  140.5180 F   0  0  0  0  0  0  0  0  0  0  0  0
  182.8800  178.2500  142.8660 C   0  0  0  0  0  2  0  0  0  0  0  0
  181.5820  178.9740  143.1850 C   0  0  0  0  0  2  0  0  0  0  0  0
  179.6700  180.8720  142.4590 O   0  0  0  0  0  1  0  0  0  0  0  0
  180.6170  178.7470  142.1180 N   0  0  0  0  0  0  0  0  0  0  0  0
  180.2940  180.0490  141.5180 C   0  0  1  0  0  3  0  0  0  0  0  0
  179.9790  178.9500  139.2930 C   0  0  0  0  0  2  0  0  0  0  0  0
  180.3830  177.6340  139.9420 C   0  0  0  0  0  2  0  0  0  0  0  0
  181.3060  177.9230  141.1220 C   0  0  0  0  0  2  0  0  0  0  0  0
  179.3460  179.8660  140.3310 C   0  0  0  0  0  2  0  0  0  0  0  0
  1 10  2  0  0  0  0
  2  6  1  0  0  0  0
  3  8  1  0  0  0  0
  4 17  2  0  0  0  0
  6  5  2  0  0  0  0
  8  1  1  0  0  0  0
  8  2  2  0  0  0  0
  9  4  1  0  0  0  0
  9 16  1  0  0  0  0
 10  5  1  0  0  0  0
 11 18  1  0  0  0  0
 11  3  2  0  0  0  0
 12  1  1  0  0  0  0
 13  2  1  0  0  0  0
 14 15  2  0  0  0  0
 14  4  1  0  0  0  0
 15 11  1  0  0  0  0
 16 26  1  6  0  0  0
 16  7  1  0  0  0  0
 17  7  1  0  0  0  0
 17  3  1  0  0  0  0
 18 12  2  0  0  0  0
 19 25  1  0  0  0  0
 19 23  1  0  0  0  0
 20 19  2  0  0  0  0
 21 23  2  0  0  0  0
 21 15  1  0  0  0  0
 22 20  1  0  0  0  0
 22 24  2  0  0  0  0
 24 21  1  0  0  0  0
 26 27  1  0  0  0  0
 29 27  1  0  0  0  0
 30 29  1  0  0  0  0
 30 28  1  1  0  0  0
 31 32  1  0  0  0  0
 31 34  1  0  0  0  0
 32 33  1  0  0  0  0
 33 29  1  0  0  0  0
 34 30  1  0  0  0  0
M  END
>  <MODEL>
9

>  <REMARK>
 VINA RESULT:      -9.3      3.387      6.319
  Name = 
  4 active torsions:
  status: ('A' for Active; 'I' for Inactive)
    1  A    between atoms: C_3  and  N_13
    2  A    between atoms: C_3  and  C_17
    3  A    between atoms: C_12  and  C_28
    4  A    between atoms: C_17  and  C_29
                            x       y       z     vdW  Elec       q    Type
                         _______ _______ _______ _____ _____    ______ ____

>  <TORSDO>
F 4

$$$$
