=
 OpenBabel11052415143D

 37 43  0  0  1  0  0  0  0  0999 V2000
  189.2420  176.7680  145.2970 C   0  0  0  0  0  2  0  0  0  0  0  0
  183.8320  178.6900  143.8330 C   0  0  0  0  0  2  0  0  0  0  0  0
  187.2750  177.9760  141.0390 C   0  0  0  0  0  0  0  0  0  0  0  0
  189.6530  178.1260  145.8780 C   0  0  2  0  0  3  0  0  0  0  0  0
  190.5290  176.0420  141.2960 O   0  0  0  0  0  0  0  0  0  0  0  0
  185.4320  179.2650  142.0380 C   0  0  0  0  0  0  0  0  0  0  0  0
  188.3780  177.2670  141.5010 C   0  0  0  0  0  0  0  0  0  0  0  0
  186.5910  178.4970  142.1950 C   0  0  2  0  0  3  0  0  0  0  0  0
  189.3400  176.4520  140.6480 C   0  0  1  0  0  3  0  0  0  0  0  0
  184.9970  179.5240  140.7730 N   0  0  0  0  0  0  0  0  0  0  0  0
  191.1000  178.4540  145.5280 C   0  0  0  0  0  2  0  0  0  0  0  0
  187.2810  178.0990  143.3240 C   0  0  0  0  0  0  0  0  0  0  0  0
  185.6610  177.4910  145.0960 C   0  0  0  0  0  2  0  0  0  0  0  0
  187.4200  177.8840  138.5570 O   0  0  0  0  0  0  0  0  0  0  0  0
  185.6460  179.0690  139.6590 C   0  0  0  0  0  3  0  0  0  0  0  0
  186.8430  178.3730  144.7270 C   0  0  0  0  0  2  0  0  0  0  0  0
  191.2930  178.4480  144.0130 C   0  0  0  0  0  2  0  0  0  0  0  0
  191.1290  177.1590  141.8970 C   0  0  0  0  0  2  0  0  0  0  0  0
  186.8030  178.2790  139.7500 C   0  0  0  0  0  0  0  0  0  0  0  0
  188.3970  177.3530  142.9070 C   0  0  0  0  0  0  0  0  0  0  0  0
  184.6580  179.7980  143.1980 C   0  0  0  0  0  2  0  0  0  0  0  0
  189.5820  177.0380  139.2540 C   0  0  2  0  0  3  0  0  0  0  0  0
  184.3870  178.3190  145.2020 C   0  0  0  0  0  2  0  0  0  0  0  0
  190.9380  177.0820  143.4110 C   0  0  2  0  0  0  0  0  0  0  0  0
  189.4740  176.7030  143.7780 C   0  0  1  0  0  3  0  0  0  0  0  0
  188.3330  176.8040  138.4270 C   0  0  0  0  0  2  0  0  0  0  0  0
  191.9800  177.1190  138.5510 C   0  0  0  0  0  3  0  0  0  0  0  0
  190.7660  176.4230  138.5630 C   0  0  0  0  0  0  0  0  0  0  0  0
  190.6820  175.1660  137.9440 C   0  0  0  0  0  3  0  0  0  0  0  0
  191.7170  173.4020  136.7220 F   0  0  0  0  0  0  0  0  0  0  0  0
  193.0120  175.3150  137.3080 C   0  0  0  0  0  3  0  0  0  0  0  0
  191.8030  174.6140  137.3180 C   0  0  0  0  0  0  0  0  0  0  0  0
  193.1010  176.5670  137.9240 C   0  0  0  0  0  3  0  0  0  0  0  0
  191.8790  175.9970  143.9560 C   0  0  0  0  0  2  0  0  0  0  0  0
  191.3470  174.7190  143.7630 O   0  0  0  0  0  1  0  0  0  0  0  0
  188.7630  176.9500  147.5280 C   0  0  0  0  0  1  0  0  0  0  0  0
  189.5010  178.1050  147.2650 O   0  0  0  0  0  0  0  0  0  0  0  0
  1  4  1  0  0  0  0
  2 23  1  0  0  0  0
  3  7  2  0  0  0  0
  4 37  1  1  0  0  0
  5 18  1  0  0  0  0
  6  8  1  0  0  0  0
  6 21  1  0  0  0  0
  7 20  1  0  0  0  0
  8  3  1  6  0  0  0
  8 12  1  0  0  0  0
  9  5  1  1  0  0  0
  9  7  1  0  0  0  0
 10  6  2  0  0  0  0
 11  4  1  0  0  0  0
 12 16  1  0  0  0  0
 13 23  1  0  0  0  0
 14 19  1  0  0  0  0
 15 19  2  0  0  0  0
 15 10  1  0  0  0  0
 16 13  1  0  0  0  0
 17 11  1  0  0  0  0
 18 24  1  0  0  0  0
 19  3  1  0  0  0  0
 20 12  2  0  0  0  0
 20 25  1  0  0  0  0
 21  2  1  0  0  0  0
 22 28  1  6  0  0  0
 22  9  1  0  0  0  0
 24 25  1  0  0  0  0
 24 34  1  1  0  0  0
 24 17  1  0  0  0  0
 25  1  1  1  0  0  0
 26 14  1  0  0  0  0
 26 22  1  0  0  0  0
 27 28  1  0  0  0  0
 29 28  2  0  0  0  0
 30 32  1  0  0  0  0
 31 32  2  0  0  0  0
 31 33  1  0  0  0  0
 32 29  1  0  0  0  0
 33 27  2  0  0  0  0
 35 34  1  0  0  0  0
 37 36  1  0  0  0  0
M  END
>  <MODEL>
1

>  <REMARK>
 VINA RESULT:      -8.8      0.000      0.000
  Name = 
  3 active torsions:
  status: ('A' for Active; 'I' for Inactive)
    1  A    between atoms: C_5  and  O_23
    2  A    between atoms: C_6  and  C_31
    3  A    between atoms: C_11  and  C_33
                            x       y       z     vdW  Elec       q    Type
                         _______ _______ _______ _____ _____    ______ ____

>  <TORSDO>
F 3

$$$$
=
 OpenBabel11052415143D

 37 43  0  0  1  0  0  0  0  0999 V2000
  183.5010  179.6130  141.8820 C   0  0  0  0  0  2  0  0  0  0  0  0
  186.9250  178.5560  146.6010 C   0  0  0  0  0  2  0  0  0  0  0  0
  187.8530  177.5360  142.3270 C   0  0  0  0  0  0  0  0  0  0  0  0
  182.5420  178.4670  142.2230 C   0  0  2  0  0  3  0  0  0  0  0  0
  186.4840  178.6810  138.9790 O   0  0  0  0  0  0  0  0  0  0  0  0
  187.6060  177.0860  144.7330 C   0  0  0  0  0  0  0  0  0  0  0  0
  187.0770  178.0970  141.3190 C   0  0  0  0  0  0  0  0  0  0  0  0
  187.0770  177.5880  143.5390 C   0  0  0  0  0  0  0  0  0  0  0  0
  187.5190  178.3520  139.8850 C   0  0  1  0  0  3  0  0  0  0  0  0
  188.8480  176.5270  144.7030 N   0  0  0  0  0  2  0  0  0  0  0  0
  182.0990  177.7330  140.9630 C   0  0  0  0  0  2  0  0  0  0  0  0
  185.8600  178.1730  143.2510 C   0  0  0  0  0  0  0  0  0  0  0  0
  185.2140  179.6700  145.1150 C   0  0  0  0  0  2  0  0  0  0  0  0
  189.9400  176.7720  141.2070 O   0  0  0  0  0  0  0  0  0  0  0  0
  189.5920  176.4360  143.5600 C   0  0  0  0  0  3  0  0  0  0  0  0
  184.8030  178.4800  144.2640 C   0  0  0  0  0  2  0  0  0  0  0  0
  183.3130  177.1970  140.2070 C   0  0  0  0  0  2  0  0  0  0  0  0
  185.4650  177.7210  139.0830 C   0  0  0  0  0  2  0  0  0  0  0  0
  189.1260  176.9360  142.3340 C   0  0  0  0  0  0  0  0  0  0  0  0
  185.8410  178.4760  141.8780 C   0  0  0  0  0  0  0  0  0  0  0  0
  186.8660  177.1480  146.0290 C   0  0  0  0  0  2  0  0  0  0  0  0
  188.4910  177.3020  139.3380 C   0  0  2  0  0  3  0  0  0  0  0  0
  185.5580  179.2250  146.5290 C   0  0  0  0  0  2  0  0  0  0  0  0
  184.2670  178.3320  139.8070 C   0  0  2  0  0  0  0  0  0  0  0  0
  184.7120  179.1220  141.0710 C   0  0  1  0  0  3  0  0  0  0  0  0
  189.8350  177.5200  140.0060 C   0  0  0  0  0  2  0  0  0  0  0  0
  189.2180  178.5280  137.2850 C   0  0  0  0  0  3  0  0  0  0  0  0
  188.6500  177.3790  137.8470 C   0  0  0  0  0  0  0  0  0  0  0  0
  188.2530  176.3230  137.0120 C   0  0  0  0  0  3  0  0  0  0  0  0
  188.0390  175.3980  134.8260 F   0  0  0  0  0  0  0  0  0  0  0  0
  188.9900  177.5690  135.0730 C   0  0  0  0  0  3  0  0  0  0  0  0
  188.4230  176.4190  135.6280 C   0  0  0  0  0  0  0  0  0  0  0  0
  189.3870  178.6230  135.9000 C   0  0  0  0  0  3  0  0  0  0  0  0
  183.5690  179.3010  138.8410 C   0  0  0  0  0  2  0  0  0  0  0  0
  184.1220  180.5820  138.9180 O   0  0  0  0  0  1  0  0  0  0  0  0
  180.5920  179.4530  141.8690 C   0  0  0  0  0  1  0  0  0  0  0  0
  181.4230  178.9760  142.8840 O   0  0  0  0  0  0  0  0  0  0  0  0
  1  4  1  0  0  0  0
  3 19  1  0  0  0  0
  3  8  1  0  0  0  0
  4 37  1  6  0  0  0
  5 18  1  0  0  0  0
  6 21  1  0  0  0  0
  7 20  1  0  0  0  0
  7  3  2  0  0  0  0
  8  6  2  0  0  0  0
  9  5  1  6  0  0  0
  9  7  1  0  0  0  0
 10  6  1  0  0  0  0
 11  4  1  0  0  0  0
 12  8  1  0  0  0  0
 12 16  1  0  0  0  0
 13 23  1  0  0  0  0
 14 19  1  0  0  0  0
 15 10  1  0  0  0  0
 16 13  1  0  0  0  0
 17 11  1  0  0  0  0
 18 24  1  0  0  0  0
 19 15  2  0  0  0  0
 20 12  2  0  0  0  0
 21  2  1  0  0  0  0
 22 28  1  6  0  0  0
 22  9  1  0  0  0  0
 22 26  1  0  0  0  0
 23  2  1  0  0  0  0
 24 34  1  6  0  0  0
 24 17  1  0  0  0  0
 24 25  1  0  0  0  0
 25 20  1  0  0  0  0
 25  1  1  1  0  0  0
 26 14  1  0  0  0  0
 27 28  1  0  0  0  0
 29 28  2  0  0  0  0
 30 32  1  0  0  0  0
 31 32  2  0  0  0  0
 31 33  1  0  0  0  0
 32 29  1  0  0  0  0
 33 27  2  0  0  0  0
 34 35  1  0  0  0  0
 36 37  1  0  0  0  0
M  END
>  <MODEL>
2

>  <REMARK>
 VINA RESULT:      -8.7      2.621      5.663
  Name = 
  3 active torsions:
  status: ('A' for Active; 'I' for Inactive)
    1  A    between atoms: C_5  and  O_23
    2  A    between atoms: C_6  and  C_31
    3  A    between atoms: C_11  and  C_33
                            x       y       z     vdW  Elec       q    Type
                         _______ _______ _______ _____ _____    ______ ____

>  <TORSDO>
F 3

$$$$
=
 OpenBabel11052415143D

 37 43  0  0  1  0  0  0  0  0999 V2000
  190.3300  176.2030  142.1890 C   0  0  0  0  0  2  0  0  0  0  0  0
  191.7200  175.8940  147.9400 C   0  0  0  0  0  2  0  0  0  0  0  0
  187.9890  177.6600  146.1700 C   0  0  0  0  0  0  0  0  0  0  0  0
  191.3110  177.3520  141.9330 C   0  0  2  0  0  3  0  0  0  0  0  0
  186.2750  177.3790  142.7960 O   0  0  0  0  0  0  0  0  0  0  0  0
  189.9960  177.6320  147.5940 C   0  0  0  0  0  0  0  0  0  0  0  0
  187.6930  177.4040  144.8360 C   0  0  0  0  0  0  0  0  0  0  0  0
  189.4030  177.4450  146.3400 C   0  0  0  0  0  0  0  0  0  0  0  0
  186.3050  177.4010  144.2110 C   0  0  1  0  0  3  0  0  0  0  0  0
  189.2070  178.0470  148.6240 N   0  0  0  0  0  2  0  0  0  0  0  0
  190.7170  178.3720  140.9690 C   0  0  0  0  0  2  0  0  0  0  0  0
  189.9340  177.0670  145.1220 C   0  0  0  0  0  0  0  0  0  0  0  0
  191.6300  175.3000  145.4880 C   0  0  0  0  0  2  0  0  0  0  0  0
  185.8460  178.4050  147.1920 O   0  0  0  0  0  0  0  0  0  0  0  0
  187.8690  178.2890  148.4820 C   0  0  0  0  0  3  0  0  0  0  0  0
  191.3610  176.6760  144.9030 C   0  0  0  0  0  2  0  0  0  0  0  0
  189.4000  178.9150  141.5170 C   0  0  0  0  0  2  0  0  0  0  0  0
  187.1020  178.4020  142.3070 C   0  0  0  0  0  2  0  0  0  0  0  0
  187.2120  178.1030  147.2550 C   0  0  0  0  0  0  0  0  0  0  0  0
  188.8900  177.0550  144.1810 C   0  0  0  0  0  0  0  0  0  0  0  0
  191.4470  177.3870  147.8410 C   0  0  0  0  0  2  0  0  0  0  0  0
  185.3470  178.4290  144.8200 C   0  0  2  0  0  3  0  0  0  0  0  0
  192.5040  175.4060  146.7300 C   0  0  0  0  0  2  0  0  0  0  0  0
  188.3790  177.7900  141.7340 C   0  0  2  0  0  0  0  0  0  0  0  0
  188.9690  176.7140  142.6910 C   0  0  1  0  0  3  0  0  0  0  0  0
  184.9490  177.9350  146.1980 C   0  0  0  0  0  2  0  0  0  0  0  0
  182.8780  178.7660  144.6250 C   0  0  0  0  0  3  0  0  0  0  0  0
  184.1170  178.6420  143.9860 C   0  0  0  0  0  0  0  0  0  0  0  0
  184.1860  178.7300  142.5860 C   0  0  0  0  0  3  0  0  0  0  0  0
  183.0960  179.0220  140.4870 F   0  0  0  0  0  0  0  0  0  0  0  0
  181.7910  179.0600  142.4810 C   0  0  0  0  0  3  0  0  0  0  0  0
  183.0250  178.9380  141.8370 C   0  0  0  0  0  0  0  0  0  0  0  0
  181.7170  178.9740  143.8740 C   0  0  0  0  0  3  0  0  0  0  0  0
  188.0290  177.1210  140.3970 C   0  0  0  0  0  2  0  0  0  0  0  0
  187.5990  178.0610  139.4550 O   0  0  0  0  0  1  0  0  0  0  0  0
  192.5920  177.4060  140.1280 C   0  0  0  0  0  1  0  0  0  0  0  0
  192.4970  176.8430  141.4020 O   0  0  0  0  0  0  0  0  0  0  0  0
  3  8  1  0  0  0  0
  3 19  1  0  0  0  0
  4 37  1  6  0  0  0
  4  1  1  0  0  0  0
  6 21  1  0  0  0  0
  6 10  1  0  0  0  0
  7  3  2  0  0  0  0
  8  6  2  0  0  0  0
  9  5  1  6  0  0  0
  9 22  1  0  0  0  0
  9  7  1  0  0  0  0
 11 17  1  0  0  0  0
 11  4  1  0  0  0  0
 12  8  1  0  0  0  0
 13 23  1  0  0  0  0
 14 19  1  0  0  0  0
 15 10  1  0  0  0  0
 16 12  1  0  0  0  0
 16 13  1  0  0  0  0
 17 24  1  0  0  0  0
 18  5  1  0  0  0  0
 19 15  2  0  0  0  0
 20  7  1  0  0  0  0
 20 12  2  0  0  0  0
 21  2  1  0  0  0  0
 22 28  1  6  0  0  0
 22 26  1  0  0  0  0
 23  2  1  0  0  0  0
 24 34  1  6  0  0  0
 24 18  1  0  0  0  0
 24 25  1  0  0  0  0
 25  1  1  6  0  0  0
 25 20  1  0  0  0  0
 26 14  1  0  0  0  0
 28 27  1  0  0  0  0
 29 28  2  0  0  0  0
 30 32  1  0  0  0  0
 31 33  1  0  0  0  0
 32 31  2  0  0  0  0
 32 29  1  0  0  0  0
 33 27  2  0  0  0  0
 35 34  1  0  0  0  0
 36 37  1  0  0  0  0
M  END
>  <MODEL>
3

>  <REMARK>
 VINA RESULT:      -8.4      3.031      7.406
  Name = 
  3 active torsions:
  status: ('A' for Active; 'I' for Inactive)
    1  A    between atoms: C_5  and  O_23
    2  A    between atoms: C_6  and  C_31
    3  A    between atoms: C_11  and  C_33
                            x       y       z     vdW  Elec       q    Type
                         _______ _______ _______ _____ _____    ______ ____

>  <TORSDO>
F 3

$$$$
=
 OpenBabel11052415143D

 37 43  0  0  1  0  0  0  0  0999 V2000
  183.7550  178.0760  143.1720 C   0  0  0  0  0  2  0  0  0  0  0  0
  185.5960  177.7720  137.5480 C   0  0  0  0  0  2  0  0  0  0  0  0
  188.1800  177.8070  141.2220 C   0  0  0  0  0  0  0  0  0  0  0  0
  183.4290  179.5700  143.0660 C   0  0  2  0  0  3  0  0  0  0  0  0
  187.5440  177.1640  144.9070 O   0  0  0  0  0  0  0  0  0  0  0  0
  187.4510  178.5430  138.9900 C   0  0  0  0  0  0  0  0  0  0  0  0
  187.5860  177.6020  142.4620 C   0  0  2  0  0  3  0  0  0  0  0  0
  187.1460  178.2520  140.3230 C   0  0  0  0  0  0  0  0  0  0  0  0
  188.2670  177.0310  143.6980 C   0  0  1  0  0  3  0  0  0  0  0  0
  188.7460  178.4220  138.5840 N   0  0  0  0  0  0  0  0  0  0  0  0
  183.8190  180.3050  144.3430 C   0  0  0  0  0  2  0  0  0  0  0  0
  185.9570  178.3080  141.0250 C   0  0  0  0  0  0  0  0  0  0  0  0
  184.1190  177.4960  139.5780 C   0  0  0  0  0  2  0  0  0  0  0  0
  190.6020  177.3510  141.5650 O   0  0  0  0  0  0  0  0  0  0  0  0
  189.7520  178.0320  139.4240 C   0  0  0  0  0  3  0  0  0  0  0  0
  184.6310  178.6500  140.4230 C   0  0  0  0  0  2  0  0  0  0  0  0
  185.3050  180.1090  144.6350 C   0  0  0  0  0  2  0  0  0  0  0  0
  187.1510  178.5030  145.0580 C   0  0  0  0  0  2  0  0  0  0  0  0
  189.5080  177.7090  140.7680 C   0  0  0  0  0  0  0  0  0  0  0  0
  186.2200  177.9260  142.3520 C   0  0  0  0  0  0  0  0  0  0  0  0
  186.4150  178.9690  138.0030 C   0  0  0  0  0  2  0  0  0  0  0  0
  189.7420  177.4200  143.8300 C   0  0  2  0  0  3  0  0  0  0  0  0
  184.1780  177.8480  138.0970 C   0  0  0  0  0  2  0  0  0  0  0  0
  185.6510  178.6230  144.7970 C   0  0  2  0  0  0  0  0  0  0  0  0
  185.2340  177.8380  143.5190 C   0  0  1  0  0  3  0  0  0  0  0  0
  190.5240  176.6400  142.7900 C   0  0  0  0  0  2  0  0  0  0  0  0
  191.3980  176.2800  145.3160 C   0  0  0  0  0  3  0  0  0  0  0  0
  190.2980  177.1360  145.1960 C   0  0  0  0  0  0  0  0  0  0  0  0
  189.7450  177.7180  146.3470 C   0  0  0  0  0  3  0  0  0  0  0  0
  189.7530  178.0070  148.7130 F   0  0  0  0  0  0  0  0  0  0  0  0
  191.3870  176.5870  147.7180 C   0  0  0  0  0  3  0  0  0  0  0  0
  190.2890  177.4430  147.6050 C   0  0  0  0  0  0  0  0  0  0  0  0
  191.9420  176.0050  146.5740 C   0  0  0  0  0  3  0  0  0  0  0  0
  184.9080  178.0300  146.0030 C   0  0  0  0  0  2  0  0  0  0  0  0
  185.2260  178.7120  147.1820 O   0  0  0  0  0  1  0  0  0  0  0  0
  181.4380  178.8600  143.7240 C   0  0  0  0  0  1  0  0  0  0  0  0
  182.0620  179.7330  142.8320 O   0  0  0  0  0  0  0  0  0  0  0  0
  2 21  1  0  0  0  0
  2 23  1  0  0  0  0
  4 37  1  1  0  0  0
  4  1  1  0  0  0  0
  4 11  1  0  0  0  0
  5 18  1  0  0  0  0
  6  8  1  0  0  0  0
  7  3  1  6  0  0  0
  7  9  1  0  0  0  0
  8 12  1  0  0  0  0
  8  3  2  0  0  0  0
  9 22  1  0  0  0  0
  9  5  1  1  0  0  0
 10  6  2  0  0  0  0
 10 15  1  0  0  0  0
 11 17  1  0  0  0  0
 12 20  2  0  0  0  0
 13 16  1  0  0  0  0
 14 26  1  0  0  0  0
 15 19  2  0  0  0  0
 16 12  1  0  0  0  0
 17 24  1  0  0  0  0
 19  3  1  0  0  0  0
 19 14  1  0  0  0  0
 20  7  1  0  0  0  0
 20 25  1  0  0  0  0
 21  6  1  0  0  0  0
 22 28  1  1  0  0  0
 23 13  1  0  0  0  0
 24 18  1  0  0  0  0
 24 34  1  1  0  0  0
 25  1  1  6  0  0  0
 25 24  1  0  0  0  0
 26 22  1  0  0  0  0
 27 33  1  0  0  0  0
 28 27  2  0  0  0  0
 28 29  1  0  0  0  0
 29 32  2  0  0  0  0
 32 31  1  0  0  0  0
 32 30  1  0  0  0  0
 33 31  2  0  0  0  0
 34 35  1  0  0  0  0
 37 36  1  0  0  0  0
M  END
>  <MODEL>
4

>  <REMARK>
 VINA RESULT:      -7.6      3.067      6.442
  Name = 
  3 active torsions:
  status: ('A' for Active; 'I' for Inactive)
    1  A    between atoms: C_5  and  O_23
    2  A    between atoms: C_6  and  C_31
    3  A    between atoms: C_11  and  C_33
                            x       y       z     vdW  Elec       q    Type
                         _______ _______ _______ _____ _____    ______ ____

>  <TORSDO>
F 3

$$$$
=
 OpenBabel11052415143D

 37 43  0  0  1  0  0  0  0  0999 V2000
  189.7010  178.4040  143.1300 C   0  0  0  0  0  2  0  0  0  0  0  0
  192.6720  176.7590  138.2740 C   0  0  0  0  0  2  0  0  0  0  0  0
  188.2230  177.2290  138.6700 C   0  0  0  0  0  0  0  0  0  0  0  0
  189.8810  177.0370  143.7990 C   0  0  2  0  0  3  0  0  0  0  0  0
  185.9620  178.9830  141.1610 O   0  0  0  0  0  0  0  0  0  0  0  0
  190.3080  176.0630  138.0780 C   0  0  0  0  0  0  0  0  0  0  0  0
  187.7140  177.8840  139.7850 C   0  0  2  0  0  3  0  0  0  0  0  0
  189.5440  176.7680  139.0140 C   0  0  0  0  0  0  0  0  0  0  0  0
  186.3870  178.6280  139.8590 C   0  0  1  0  0  3  0  0  0  0  0  0
  189.7560  175.8050  136.8590 N   0  0  0  0  0  0  0  0  0  0  0  0
  188.6160  176.6230  144.5420 C   0  0  0  0  0  2  0  0  0  0  0  0
  189.8100  177.1480  140.3150 C   0  0  0  0  0  0  0  0  0  0  0  0
  192.1710  177.8780  140.4820 C   0  0  0  0  0  2  0  0  0  0  0  0
  186.3910  177.2670  136.9860 O   0  0  0  0  0  0  0  0  0  0  0  0
  188.4930  176.2020  136.5190 C   0  0  0  0  0  3  0  0  0  0  0  0
  191.1130  176.9250  141.0150 C   0  0  0  0  0  2  0  0  0  0  0  0
  187.4260  176.5900  143.5860 C   0  0  0  0  0  2  0  0  0  0  0  0
  186.0070  177.8460  141.9820 C   0  0  0  0  0  2  0  0  0  0  0  0
  187.6830  176.9280  137.4060 C   0  0  0  0  0  0  0  0  0  0  0  0
  188.6800  177.8230  140.8080 C   0  0  0  0  0  0  0  0  0  0  0  0
  191.6970  175.5960  138.3620 C   0  0  0  0  0  2  0  0  0  0  0  0
  185.2770  178.0030  139.0090 C   0  0  2  0  0  3  0  0  0  0  0  0
  193.2030  177.1240  139.6540 C   0  0  0  0  0  2  0  0  0  0  0  0
  187.1900  177.9620  142.9410 C   0  0  2  0  0  0  0  0  0  0  0  0
  188.4760  178.4280  142.1990 C   0  0  1  0  0  3  0  0  0  0  0  0
  185.5880  178.2910  137.5530 C   0  0  0  0  0  2  0  0  0  0  0  0
  183.5180  179.7690  138.8140 C   0  0  0  0  0  3  0  0  0  0  0  0
  183.9160  178.5390  139.3490 C   0  0  0  0  0  0  0  0  0  0  0  0
  183.0340  177.8270  140.1780 C   0  0  0  0  0  3  0  0  0  0  0  0
  180.9220  177.6560  141.2680 F   0  0  0  0  0  0  0  0  0  0  0  0
  181.3790  179.5750  139.9320 C   0  0  0  0  0  3  0  0  0  0  0  0
  181.7690  178.3450  140.4680 C   0  0  0  0  0  0  0  0  0  0  0  0
  182.2530  180.2870  139.1050 C   0  0  0  0  0  3  0  0  0  0  0  0
  186.8360  179.0030  144.0130 C   0  0  0  0  0  2  0  0  0  0  0  0
  185.6800  178.6400  144.7120 O   0  0  0  0  0  1  0  0  0  0  0  0
  191.6510  178.2490  144.3440 C   0  0  0  0  0  1  0  0  0  0  0  0
  190.9520  177.0920  144.6920 O   0  0  0  0  0  0  0  0  0  0  0  0
  1  4  1  0  0  0  0
  2 21  1  0  0  0  0
  2 23  1  0  0  0  0
  3  8  2  0  0  0  0
  4 11  1  0  0  0  0
  4 37  1  1  0  0  0
  5 18  1  0  0  0  0
  6 21  1  0  0  0  0
  6  8  1  0  0  0  0
  7  3  1  6  0  0  0
  7  9  1  0  0  0  0
  7 20  1  0  0  0  0
  8 12  1  0  0  0  0
  9  5  1  1  0  0  0
 10  6  2  0  0  0  0
 12 20  2  0  0  0  0
 12 16  1  0  0  0  0
 13 16  1  0  0  0  0
 14 19  1  0  0  0  0
 14 26  1  0  0  0  0
 15 10  1  0  0  0  0
 15 19  2  0  0  0  0
 17 11  1  0  0  0  0
 18 24  1  0  0  0  0
 19  3  1  0  0  0  0
 20 25  1  0  0  0  0
 22 28  1  1  0  0  0
 22  9  1  0  0  0  0
 23 13  1  0  0  0  0
 24 17  1  0  0  0  0
 24 34  1  1  0  0  0
 25 24  1  0  0  0  0
 25  1  1  1  0  0  0
 26 22  1  0  0  0  0
 27 33  2  0  0  0  0
 27 28  1  0  0  0  0
 28 29  2  0  0  0  0
 29 32  1  0  0  0  0
 31 32  2  0  0  0  0
 32 30  1  0  0  0  0
 33 31  1  0  0  0  0
 34 35  1  0  0  0  0
 36 37  1  0  0  0  0
M  END
>  <MODEL>
5

>  <REMARK>
 VINA RESULT:      -7.3      3.073      6.690
  Name = 
  3 active torsions:
  status: ('A' for Active; 'I' for Inactive)
    1  A    between atoms: C_5  and  O_23
    2  A    between atoms: C_6  and  C_31
    3  A    between atoms: C_11  and  C_33
                            x       y       z     vdW  Elec       q    Type
                         _______ _______ _______ _____ _____    ______ ____

>  <TORSDO>
F 3

$$$$
=
 OpenBabel11052415143D

 37 43  0  0  1  0  0  0  0  0999 V2000
  190.3880  176.6360  144.6930 C   0  0  0  0  0  2  0  0  0  0  0  0
  185.0510  177.8790  146.9480 C   0  0  0  0  0  2  0  0  0  0  0  0
  186.3440  178.3780  142.6760 C   0  0  0  0  0  0  0  0  0  0  0  0
  191.0260  177.8870  145.3090 C   0  0  2  0  0  3  0  0  0  0  0  0
  189.2200  177.0170  140.6090 O   0  0  0  0  0  0  0  0  0  0  0  0
  185.3550  179.0900  144.8140 C   0  0  0  0  0  0  0  0  0  0  0  0
  187.5300  177.7840  142.2600 C   0  0  0  0  0  0  0  0  0  0  0  0
  186.4170  178.5150  144.1080 C   0  0  2  0  0  3  0  0  0  0  0  0
  187.8640  177.3480  140.8400 C   0  0  1  0  0  3  0  0  0  0  0  0
  184.2790  179.5370  144.1070 N   0  0  0  0  0  0  0  0  0  0  0  0
  192.0190  178.5230  144.3440 C   0  0  0  0  0  2  0  0  0  0  0  0
  187.6300  178.0060  144.5320 C   0  0  0  0  0  0  0  0  0  0  0  0
  187.2980  176.7650  146.6490 C   0  0  0  0  0  2  0  0  0  0  0  0
  185.0720  178.8480  140.5900 O   0  0  0  0  0  0  0  0  0  0  0  0
  184.1990  179.4490  142.7450 C   0  0  0  0  0  3  0  0  0  0  0  0
  188.0500  177.8930  145.9630 C   0  0  0  0  0  2  0  0  0  0  0  0
  191.3290  178.8760  143.0280 C   0  0  0  0  0  2  0  0  0  0  0  0
  190.0310  178.0640  141.0730 C   0  0  0  0  0  2  0  0  0  0  0  0
  185.2230  178.8670  141.9820 C   0  0  0  0  0  0  0  0  0  0  0  0
  188.3340  177.5680  143.3970 C   0  0  0  0  0  0  0  0  0  0  0  0
  185.3550  179.2210  146.3010 C   0  0  0  0  0  2  0  0  0  0  0  0
  187.2690  178.2530  139.7570 C   0  0  2  0  0  3  0  0  0  0  0  0
  186.2870  177.3220  147.6420 C   0  0  0  0  0  2  0  0  0  0  0  0
  190.7250  177.6310  142.3640 C   0  0  2  0  0  0  0  0  0  0  0  0
  189.7280  176.9400  143.3380 C   0  0  1  0  0  3  0  0  0  0  0  0
  185.7760  177.9930  139.7020 C   0  0  0  0  0  2  0  0  0  0  0  0
  188.8440  178.8990  137.9260 C   0  0  0  0  0  3  0  0  0  0  0  0
  187.8730  178.0110  138.4030 C   0  0  0  0  0  0  0  0  0  0  0  0
  187.4930  176.9120  137.6170 C   0  0  0  0  0  3  0  0  0  0  0  0
  187.7110  175.6460  135.6090 F   0  0  0  0  0  0  0  0  0  0  0  0
  189.0480  177.5970  135.8940 C   0  0  0  0  0  3  0  0  0  0  0  0
  188.0800  176.7070  136.3650 C   0  0  0  0  0  0  0  0  0  0  0  0
  189.4300  178.6930  136.6740 C   0  0  0  0  0  3  0  0  0  0  0  0
  191.8310  176.6310  141.9980 C   0  0  0  0  0  2  0  0  0  0  0  0
  192.6420  177.1220  140.9710 O   0  0  0  0  0  1  0  0  0  0  0  0
  191.6920  176.1470  146.5040 C   0  0  0  0  0  1  0  0  0  0  0  0
  191.6800  177.5420  146.4930 O   0  0  0  0  0  0  0  0  0  0  0  0
  1  4  1  0  0  0  0
  2 23  1  0  0  0  0
  4 37  1  1  0  0  0
  5 18  1  0  0  0  0
  6 21  1  0  0  0  0
  7  3  2  0  0  0  0
  7 20  1  0  0  0  0
  8  3  1  6  0  0  0
  8 12  1  0  0  0  0
  8  6  1  0  0  0  0
  9  5  1  1  0  0  0
  9  7  1  0  0  0  0
 10  6  2  0  0  0  0
 11  4  1  0  0  0  0
 12 16  1  0  0  0  0
 13 23  1  0  0  0  0
 14 19  1  0  0  0  0
 15 10  1  0  0  0  0
 16 13  1  0  0  0  0
 17 11  1  0  0  0  0
 18 24  1  0  0  0  0
 19  3  1  0  0  0  0
 19 15  2  0  0  0  0
 20 12  2  0  0  0  0
 21  2  1  0  0  0  0
 22 28  1  6  0  0  0
 22  9  1  0  0  0  0
 24 34  1  6  0  0  0
 24 17  1  0  0  0  0
 24 25  1  0  0  0  0
 25 20  1  0  0  0  0
 25  1  1  1  0  0  0
 26 22  1  0  0  0  0
 26 14  1  0  0  0  0
 27 28  1  0  0  0  0
 29 28  2  0  0  0  0
 30 32  1  0  0  0  0
 31 32  2  0  0  0  0
 31 33  1  0  0  0  0
 32 29  1  0  0  0  0
 33 27  2  0  0  0  0
 35 34  1  0  0  0  0
 37 36  1  0  0  0  0
M  END
>  <MODEL>
6

>  <REMARK>
 VINA RESULT:      -7.2      2.283      2.817
  Name = 
  3 active torsions:
  status: ('A' for Active; 'I' for Inactive)
    1  A    between atoms: C_5  and  O_23
    2  A    between atoms: C_6  and  C_31
    3  A    between atoms: C_11  and  C_33
                            x       y       z     vdW  Elec       q    Type
                         _______ _______ _______ _____ _____    ______ ____

>  <TORSDO>
F 3

$$$$
=
 OpenBabel11052415143D

 37 43  0  0  1  0  0  0  0  0999 V2000
  184.9850  179.1990  139.2600 C   0  0  0  0  0  2  0  0  0  0  0  0
  185.6560  179.0280  145.1450 C   0  0  0  0  0  2  0  0  0  0  0  0
  188.5010  177.4090  142.0690 C   0  0  0  0  0  0  0  0  0  0  0  0
  183.9410  178.0770  139.2680 C   0  0  2  0  0  3  0  0  0  0  0  0
  188.9650  177.9670  138.3450 O   0  0  0  0  0  0  0  0  0  0  0  0
  187.1030  177.3210  144.0930 C   0  0  0  0  0  0  0  0  0  0  0  0
  188.3300  177.7740  140.7390 C   0  0  0  0  0  0  0  0  0  0  0  0
  187.2370  177.6110  142.7310 C   0  0  0  0  0  0  0  0  0  0  0  0
  189.4200  177.8270  139.6780 C   0  0  1  0  0  3  0  0  0  0  0  0
  188.1840  176.8200  144.7540 N   0  0  0  0  0  2  0  0  0  0  0  0
  184.1380  177.1400  138.0820 C   0  0  0  0  0  2  0  0  0  0  0  0
  186.3330  178.0910  141.8030 C   0  0  0  0  0  0  0  0  0  0  0  0
  184.9200  179.8250  142.8640 C   0  0  0  0  0  2  0  0  0  0  0  0
  190.8400  176.5760  142.2320 O   0  0  0  0  0  0  0  0  0  0  0  0
  189.3840  176.5880  144.1430 C   0  0  0  0  0  3  0  0  0  0  0  0
  184.9300  178.5020  142.1180 C   0  0  0  0  0  2  0  0  0  0  0  0
  185.5460  176.5490  138.1010 C   0  0  0  0  0  2  0  0  0  0  0  0
  187.9900  176.9900  138.0920 C   0  0  0  0  0  2  0  0  0  0  0  0
  189.5880  176.8750  142.7840 C   0  0  0  0  0  0  0  0  0  0  0  0
  186.9920  178.1790  140.5640 C   0  0  0  0  0  0  0  0  0  0  0  0
  185.8320  177.5480  144.8420 C   0  0  0  0  0  2  0  0  0  0  0  0
  190.4970  176.7490  139.8390 C   0  0  2  0  0  3  0  0  0  0  0  0
  184.5200  179.6170  144.3190 C   0  0  0  0  0  2  0  0  0  0  0  0
  186.6140  177.6510  138.0410 C   0  0  2  0  0  0  0  0  0  0  0  0
  186.4190  178.6440  139.2230 C   0  0  1  0  0  3  0  0  0  0  0  0
  191.3570  177.1260  141.0300 C   0  0  0  0  0  2  0  0  0  0  0  0
  192.7270  176.8920  138.7190 C   0  0  0  0  0  3  0  0  0  0  0  0
  191.3610  176.6050  138.6190 C   0  0  0  0  0  0  0  0  0  0  0  0
  190.8300  176.1790  137.3920 C   0  0  0  0  0  3  0  0  0  0  0  0
  191.1450  175.6330  135.0930 F   0  0  0  0  0  0  0  0  0  0  0  0
  193.0230  176.3320  136.3810 C   0  0  0  0  0  3  0  0  0  0  0  0
  191.6600  176.0440  136.2750 C   0  0  0  0  0  0  0  0  0  0  0  0
  193.5570  176.7560  137.6020 C   0  0  0  0  0  3  0  0  0  0  0  0
  186.5060  178.4280  136.7220 C   0  0  0  0  0  2  0  0  0  0  0  0
  186.9900  177.6770  135.6470 O   0  0  0  0  0  1  0  0  0  0  0  0
  182.8690  180.0070  139.1040 C   0  0  0  0  0  1  0  0  0  0  0  0
  182.6610  178.6310  139.2180 O   0  0  0  0  0  0  0  0  0  0  0  0
  1  4  1  0  0  0  0
  3  8  1  0  0  0  0
  3 19  1  0  0  0  0
  4 37  1  6  0  0  0
  6 10  1  0  0  0  0
  6 21  1  0  0  0  0
  7  3  2  0  0  0  0
  8  6  2  0  0  0  0
  9  5  1  6  0  0  0
  9 22  1  0  0  0  0
  9  7  1  0  0  0  0
 11 17  1  0  0  0  0
 11  4  1  0  0  0  0
 12 16  1  0  0  0  0
 12  8  1  0  0  0  0
 13 23  1  0  0  0  0
 14 19  1  0  0  0  0
 15 10  1  0  0  0  0
 16 13  1  0  0  0  0
 18  5  1  0  0  0  0
 19 15  2  0  0  0  0
 20  7  1  0  0  0  0
 20 12  2  0  0  0  0
 21  2  1  0  0  0  0
 22 28  1  6  0  0  0
 22 26  1  0  0  0  0
 23  2  1  0  0  0  0
 24 34  1  6  0  0  0
 24 18  1  0  0  0  0
 24 17  1  0  0  0  0
 24 25  1  0  0  0  0
 25  1  1  1  0  0  0
 25 20  1  0  0  0  0
 26 14  1  0  0  0  0
 28 27  1  0  0  0  0
 29 28  2  0  0  0  0
 30 32  1  0  0  0  0
 31 33  1  0  0  0  0
 32 31  2  0  0  0  0
 32 29  1  0  0  0  0
 33 27  2  0  0  0  0
 35 34  1  0  0  0  0
 36 37  1  0  0  0  0
M  END
>  <MODEL>
7

>  <REMARK>
 VINA RESULT:      -7.1      1.981      5.361
  Name = 
  3 active torsions:
  status: ('A' for Active; 'I' for Inactive)
    1  A    between atoms: C_5  and  O_23
    2  A    between atoms: C_6  and  C_31
    3  A    between atoms: C_11  and  C_33
                            x       y       z     vdW  Elec       q    Type
                         _______ _______ _______ _____ _____    ______ ____

>  <TORSDO>
F 3

$$$$
=
 OpenBabel11052415143D

 37 43  0  0  1  0  0  0  0  0999 V2000
  188.0050  179.0140  141.9420 C   0  0  0  0  0  2  0  0  0  0  0  0
  188.3110  178.0050  136.1110 C   0  0  0  0  0  2  0  0  0  0  0  0
  184.5950  178.0810  138.6320 C   0  0  0  0  0  0  0  0  0  0  0  0
  188.5300  177.6170  142.2900 C   0  0  2  0  0  3  0  0  0  0  0  0
  183.7630  179.4440  142.0740 O   0  0  0  0  0  0  0  0  0  0  0  0
  186.1700  177.1380  136.9940 C   0  0  0  0  0  0  0  0  0  0  0  0
  184.6670  178.6030  139.9180 C   0  0  2  0  0  3  0  0  0  0  0  0
  185.9310  177.7020  138.2510 C   0  0  0  0  0  0  0  0  0  0  0  0
  183.5180  179.2280  140.6970 C   0  0  1  0  0  3  0  0  0  0  0  0
  185.1070  176.9330  136.1670 N   0  0  0  0  0  0  0  0  0  0  0  0
  187.7970  177.0440  143.4980 C   0  0  0  0  0  2  0  0  0  0  0  0
  186.7810  177.9980  139.2990 C   0  0  0  0  0  0  0  0  0  0  0  0
  188.9040  178.9000  138.3960 C   0  0  0  0  0  2  0  0  0  0  0  0
  182.1770  178.1040  138.0430 O   0  0  0  0  0  0  0  0  0  0  0  0
  183.8250  177.2540  136.5160 C   0  0  0  0  0  3  0  0  0  0  0  0
  188.2670  177.8270  139.2630 C   0  0  0  0  0  2  0  0  0  0  0  0
  186.2950  176.9920  143.2300 C   0  0  0  0  0  2  0  0  0  0  0  0
  184.2370  178.2530  142.6440 C   0  0  0  0  0  2  0  0  0  0  0  0
  183.5210  177.8390  137.7560 C   0  0  0  0  0  0  0  0  0  0  0  0
  186.0090  178.5390  140.3420 C   0  0  0  0  0  0  0  0  0  0  0  0
  187.5380  176.7630  136.5280 C   0  0  0  0  0  2  0  0  0  0  0  0
  182.1570  178.5860  140.4180 C   0  0  2  0  0  3  0  0  0  0  0  0
  189.4310  178.3010  137.1000 C   0  0  0  0  0  2  0  0  0  0  0  0
  185.7320  178.3870  142.9280 C   0  0  2  0  0  0  0  0  0  0  0  0
  186.4840  179.0130  141.7180 C   0  0  1  0  0  3  0  0  0  0  0  0
  181.7160  179.0130  139.0310 C   0  0  0  0  0  2  0  0  0  0  0  0
  180.3450  180.1270  141.1880 C   0  0  0  0  0  3  0  0  0  0  0  0
  181.1120  178.9810  141.4230 C   0  0  0  0  0  0  0  0  0  0  0  0
  180.8840  178.2200  142.5800 C   0  0  0  0  0  3  0  0  0  0  0  0
  179.6810  177.8700  144.6080 F   0  0  0  0  0  0  0  0  0  0  0  0
  179.1360  179.7530  143.2520 C   0  0  0  0  0  3  0  0  0  0  0  0
  179.8980  178.6070  143.4930 C   0  0  0  0  0  0  0  0  0  0  0  0
  179.3590  180.5130  142.1010 C   0  0  0  0  0  3  0  0  0  0  0  0
  185.9060  179.3080  144.1450 C   0  0  0  0  0  2  0  0  0  0  0  0
  184.9800  179.0060  145.1480 O   0  0  0  0  0  1  0  0  0  0  0  0
  190.3220  176.3590  142.6180 C   0  0  0  0  0  1  0  0  0  0  0  0
  189.8970  177.6870  142.5640 O   0  0  0  0  0  0  0  0  0  0  0  0
  1  4  1  0  0  0  0
  2 21  1  0  0  0  0
  2 23  1  0  0  0  0
  4 37  1  1  0  0  0
  4 11  1  0  0  0  0
  5 18  1  0  0  0  0
  6  8  1  0  0  0  0
  7  3  1  6  0  0  0
  7 20  1  0  0  0  0
  7  9  1  0  0  0  0
  8  3  2  0  0  0  0
  8 12  1  0  0  0  0
  9  5  1  1  0  0  0
 10 15  1  0  0  0  0
 10  6  2  0  0  0  0
 12 20  2  0  0  0  0
 13 16  1  0  0  0  0
 14 26  1  0  0  0  0
 15 19  2  0  0  0  0
 16 12  1  0  0  0  0
 17 11  1  0  0  0  0
 18 24  1  0  0  0  0
 19 14  1  0  0  0  0
 19  3  1  0  0  0  0
 20 25  1  0  0  0  0
 21  6  1  0  0  0  0
 22  9  1  0  0  0  0
 22 28  1  1  0  0  0
 23 13  1  0  0  0  0
 24 17  1  0  0  0  0
 24 34  1  1  0  0  0
 25  1  1  1  0  0  0
 25 24  1  0  0  0  0
 26 22  1  0  0  0  0
 27 28  2  0  0  0  0
 27 33  1  0  0  0  0
 28 29  1  0  0  0  0
 29 32  2  0  0  0  0
 31 32  1  0  0  0  0
 32 30  1  0  0  0  0
 33 31  2  0  0  0  0
 34 35  1  0  0  0  0
 37 36  1  0  0  0  0
M  END
>  <MODEL>
8

>  <REMARK>
 VINA RESULT:      -7.1      3.903      7.944
  Name = 
  3 active torsions:
  status: ('A' for Active; 'I' for Inactive)
    1  A    between atoms: C_5  and  O_23
    2  A    between atoms: C_6  and  C_31
    3  A    between atoms: C_11  and  C_33
                            x       y       z     vdW  Elec       q    Type
                         _______ _______ _______ _____ _____    ______ ____

>  <TORSDO>
F 3

$$$$
=
 OpenBabel11052415143D

 37 43  0  0  1  0  0  0  0  0999 V2000
  186.4350  178.7990  137.2490 C   0  0  0  0  0  2  0  0  0  0  0  0
  181.3240  179.9200  140.0290 C   0  0  0  0  0  2  0  0  0  0  0  0
  185.1310  178.4430  141.8990 C   0  0  0  0  0  0  0  0  0  0  0  0
  185.9120  177.4890  136.6480 C   0  0  2  0  0  3  0  0  0  0  0  0
  188.7610  178.3690  140.7980 O   0  0  0  0  0  0  0  0  0  0  0  0
  182.7170  178.4240  141.4200 C   0  0  0  0  0  0  0  0  0  0  0  0
  186.3070  178.4970  141.1600 C   0  0  0  0  0  0  0  0  0  0  0  0
  184.0370  178.4700  140.9610 C   0  0  0  0  0  0  0  0  0  0  0  0
  187.7160  178.5950  141.7260 C   0  0  1  0  0  3  0  0  0  0  0  0
  182.5040  178.3230  142.7620 N   0  0  0  0  0  2  0  0  0  0  0  0
  186.9920  176.4140  136.6620 C   0  0  0  0  0  2  0  0  0  0  0  0
  184.5620  178.5410  139.6850 C   0  0  0  0  0  0  0  0  0  0  0  0
  183.1760  180.0730  138.3190 C   0  0  0  0  0  2  0  0  0  0  0  0
  185.8490  178.2200  144.2710 O   0  0  0  0  0  0  0  0  0  0  0  0
  183.5240  178.2620  143.6710 C   0  0  0  0  0  3  0  0  0  0  0  0
  183.7470  178.6700  138.4380 C   0  0  0  0  0  2  0  0  0  0  0  0
  187.4890  176.1800  138.0870 C   0  0  0  0  0  2  0  0  0  0  0  0
  188.5170  177.1630  140.1230 C   0  0  0  0  0  2  0  0  0  0  0  0
  184.8700  178.3210  143.2760 C   0  0  0  0  0  0  0  0  0  0  0  0
  185.9640  178.5400  139.7940 C   0  0  0  0  0  0  0  0  0  0  0  0
  181.5430  178.4910  140.5000 C   0  0  0  0  0  2  0  0  0  0  0  0
  187.9090  177.8480  143.0480 C   0  0  2  0  0  3  0  0  0  0  0  0
  181.6720  180.0610  138.5530 C   0  0  0  0  0  2  0  0  0  0  0  0
  188.0670  177.4650  138.6950 C   0  0  2  0  0  0  0  0  0  0  0  0
  186.9960  178.5940  138.6660 C   0  0  1  0  0  3  0  0  0  0  0  0
  187.2000  178.6340  144.1350 C   0  0  0  0  0  2  0  0  0  0  0  0
  190.1310  178.8130  143.6640 C   0  0  0  0  0  3  0  0  0  0  0  0
  189.3550  177.6750  143.4130 C   0  0  0  0  0  0  0  0  0  0  0  0
  189.9380  176.4030  143.5170 C   0  0  0  0  0  3  0  0  0  0  0  0
  191.8440  175.0440  143.9680 F   0  0  0  0  0  0  0  0  0  0  0  0
  192.0540  177.4120  144.1170 C   0  0  0  0  0  3  0  0  0  0  0  0
  191.2850  176.2730  143.8680 C   0  0  0  0  0  0  0  0  0  0  0  0
  191.4780  178.6820  144.0140 C   0  0  0  0  0  3  0  0  0  0  0  0
  189.2940  177.9290  137.8960 C   0  0  0  0  0  2  0  0  0  0  0  0
  190.4230  177.1670  138.2100 O   0  0  0  0  0  1  0  0  0  0  0  0
  186.6660  177.9350  134.6160 C   0  0  0  0  0  1  0  0  0  0  0  0
  185.4920  177.7130  135.3360 O   0  0  0  0  0  0  0  0  0  0  0  0
  2 21  1  0  0  0  0
  3 19  1  0  0  0  0
  4 37  1  6  0  0  0
  4 11  1  0  0  0  0
  4  1  1  0  0  0  0
  6 10  1  0  0  0  0
  7  9  1  0  0  0  0
  7  3  2  0  0  0  0
  8  6  2  0  0  0  0
  8  3  1  0  0  0  0
  9  5  1  6  0  0  0
  9 22  1  0  0  0  0
 10 15  1  0  0  0  0
 11 17  1  0  0  0  0
 12 20  2  0  0  0  0
 12  8  1  0  0  0  0
 13 16  1  0  0  0  0
 13 23  1  0  0  0  0
 16 12  1  0  0  0  0
 17 24  1  0  0  0  0
 18  5  1  0  0  0  0
 19 15  2  0  0  0  0
 19 14  1  0  0  0  0
 20  7  1  0  0  0  0
 21  6  1  0  0  0  0
 22 28  1  1  0  0  0
 22 26  1  0  0  0  0
 23  2  1  0  0  0  0
 24 34  1  6  0  0  0
 24 18  1  0  0  0  0
 25  1  1  6  0  0  0
 25 24  1  0  0  0  0
 25 20  1  0  0  0  0
 26 14  1  0  0  0  0
 27 33  1  0  0  0  0
 28 29  1  0  0  0  0
 28 27  2  0  0  0  0
 29 32  2  0  0  0  0
 32 30  1  0  0  0  0
 32 31  1  0  0  0  0
 33 31  2  0  0  0  0
 34 35  1  0  0  0  0
 36 37  1  0  0  0  0
M  END
>  <MODEL>
9

>  <REMARK>
 VINA RESULT:      -6.9      2.694      6.448
  Name = 
  3 active torsions:
  status: ('A' for Active; 'I' for Inactive)
    1  A    between atoms: C_5  and  O_23
    2  A    between atoms: C_6  and  C_31
    3  A    between atoms: C_11  and  C_33
                            x       y       z     vdW  Elec       q    Type
                         _______ _______ _______ _____ _____    ______ ____

>  <TORSDO>
F 3

$$$$
