=
 OpenBabel11052416503D

 32 36  0  0  1  0  0  0  0  0999 V2000
  179.7630  174.9560  140.0730 C   0  0  2  0  0  3  0  0  0  0  0  0
  182.4570  176.7870  138.0390 C   0  0  0  0  0  2  0  0  0  0  0  0
  182.8000  177.9820  141.0210 C   0  0  0  0  0  2  0  0  0  0  0  0
  187.5360  177.6880  138.9030 C   0  0  0  0  0  2  0  0  0  0  0  0
  188.2380  178.4030  140.0490 C   0  0  0  0  0  2  0  0  0  0  0  0
  181.0590  178.8930  139.3840 C   0  0  1  0  0  3  0  0  0  0  0  0
  183.3160  180.0710  138.7620 C   0  0  0  0  0  2  0  0  0  0  0  0
  181.1640  175.3910  139.6610 C   0  0  0  0  0  2  0  0  0  0  0  0
  182.4570  178.1340  137.3260 C   0  0  0  0  0  2  0  0  0  0  0  0
  186.5170  178.5600  138.2450 C   0  0  0  0  0  3  0  0  0  0  0  0
  184.3160  179.2250  139.4880 C   0  0  0  0  0  0  0  0  0  0  0  0
  185.4160  178.8930  138.8590 C   0  0  0  0  0  0  0  0  0  0  0  0
  185.2390  178.1510  141.6440 C   0  0  2  0  0  3  0  0  0  0  0  0
  178.9310  176.1350  140.4930 C   0  0  0  0  0  3  0  0  0  0  0  0
  179.1220  177.3590  139.9790 C   0  0  0  0  0  3  0  0  0  0  0  0
  179.8450  173.9570  141.2070 C   0  0  0  0  0  1  0  0  0  0  0  0
  182.0950  179.2710  138.2930 C   0  0  1  0  0  3  0  0  0  0  0  0
  180.2230  177.6630  138.9880 C   0  0  2  0  0  3  0  0  0  0  0  0
  181.0600  176.4300  138.5510 C   0  0  1  0  0  3  0  0  0  0  0  0
  187.5710  178.0940  141.3810 C   0  0  0  0  0  2  0  0  0  0  0  0
  186.4380  178.9800  141.5950 N   0  0  0  0  0  2  0  0  0  0  0  0
  181.5690  178.8550  140.8350 C   0  0  0  0  0  2  0  0  0  0  0  0
  184.0580  178.8390  140.9290 C   0  0  2  0  0  3  0  0  0  0  0  0
  184.9160  177.7270  143.0930 C   0  0  0  0  0  2  0  0  0  0  0  0
  186.8880  177.3270  144.6740 C   0  0  0  0  0  2  0  0  0  0  0  0
  187.5580  177.8000  145.9360 C   0  0  0  0  0  0  0  0  0  0  0  0
  185.0100  178.8960  145.3560 C   0  0  0  0  0  0  0  0  0  0  0  0
  185.3440  178.5120  146.7700 C   0  0  0  0  0  2  0  0  0  0  0  0
  186.8340  178.3570  146.9160 C   0  0  0  0  0  3  0  0  0  0  0  0
  188.9060  177.7010  146.0630 F   0  0  0  0  0  0  0  0  0  0  0  0
  184.1100  179.6920  145.1420 O   0  0  0  0  0  0  0  0  0  0  0  0
  185.8030  178.3100  144.2060 C   0  0  2  0  0  3  0  0  0  0  0  0
  1 14  1  0  0  0  0
  1 16  1  1  0  0  0
  4  5  1  0  0  0  0
  5 20  1  0  0  0  0
  6 22  1  1  0  0  0
  7 11  1  0  0  0  0
  8  1  1  0  0  0  0
  9  2  1  0  0  0  0
 10 12  2  0  0  0  0
 10  4  1  0  0  0  0
 11 23  1  0  0  0  0
 12 11  2  0  0  0  0
 13 24  1  1  0  0  0
 15 14  2  0  0  0  0
 17  9  1  1  0  0  0
 17  7  1  0  0  0  0
 17  6  1  0  0  0  0
 18  6  1  0  0  0  0
 18 15  1  1  0  0  0
 19  2  1  1  0  0  0
 19 18  1  0  0  0  0
 19  8  1  0  0  0  0
 20 21  1  0  0  0  0
 21 13  1  0  0  0  0
 22  3  1  0  0  0  0
 23  3  1  6  0  0  0
 23 13  1  0  0  0  0
 25 26  1  0  0  0  0
 26 30  1  0  0  0  0
 26 29  2  0  0  0  0
 27 28  1  0  0  0  0
 28 29  1  0  0  0  0
 31 27  2  0  0  0  0
 32 24  1  6  0  0  0
 32 25  1  0  0  0  0
 32 27  1  0  0  0  0
M  END
>  <MODEL>
1

>  <REMARK>
 VINA RESULT:      -8.8      0.000      0.000
  Name = 
  2 active torsions:
  status: ('A' for Active; 'I' for Inactive)
    1  A    between atoms: C_16  and  C_27
    2  A    between atoms: C_27  and  C_32
                            x       y       z     vdW  Elec       q    Type
                         _______ _______ _______ _____ _____    ______ ____

>  <TORSDO>
F 2

$$$$
=
 OpenBabel11052416503D

 32 36  0  0  1  0  0  0  0  0999 V2000
  185.3820  174.2740  136.5010 C   0  0  2  0  0  3  0  0  0  0  0  0
  188.8820  175.7320  137.1140 C   0  0  0  0  0  2  0  0  0  0  0  0
  186.9850  177.4240  139.1070 C   0  0  0  0  0  2  0  0  0  0  0  0
  191.5610  176.7760  141.4810 C   0  0  0  0  0  2  0  0  0  0  0  0
  191.2280  177.6800  142.6610 C   0  0  0  0  0  2  0  0  0  0  0  0
  187.2490  178.0360  136.6380 C   0  0  1  0  0  3  0  0  0  0  0  0
  189.3090  179.0920  137.8650 C   0  0  0  0  0  2  0  0  0  0  0  0
  186.6410  174.6330  137.2790 C   0  0  0  0  0  2  0  0  0  0  0  0
  189.6040  176.9350  136.5190 C   0  0  0  0  0  2  0  0  0  0  0  0
  191.5320  177.5210  140.1860 C   0  0  0  0  0  3  0  0  0  0  0  0
  189.2790  178.3860  139.1860 C   0  0  0  0  0  0  0  0  0  0  0  0
  190.4100  177.9530  139.6810 C   0  0  0  0  0  0  0  0  0  0  0  0
  188.0780  177.7020  141.3640 C   0  0  2  0  0  3  0  0  0  0  0  0
  184.6900  175.5070  135.9890 C   0  0  0  0  0  3  0  0  0  0  0  0
  185.3640  176.6230  135.6810 C   0  0  0  0  0  3  0  0  0  0  0  0
  184.4370  173.4860  137.3830 C   0  0  0  0  0  1  0  0  0  0  0  0
  188.7870  178.2220  136.7170 C   0  0  1  0  0  3  0  0  0  0  0  0
  186.8580  176.7540  135.8800 C   0  0  2  0  0  3  0  0  0  0  0  0
  187.5590  175.4660  136.3910 C   0  0  1  0  0  3  0  0  0  0  0  0
  189.7490  177.6040  143.0090 C   0  0  0  0  0  2  0  0  0  0  0  0
  188.9850  178.5120  142.1680 N   0  0  0  0  0  2  0  0  0  0  0  0
  186.4610  178.2490  137.9430 C   0  0  0  0  0  2  0  0  0  0  0  0
  187.9660  178.2540  139.9280 C   0  0  2  0  0  3  0  0  0  0  0  0
  186.7130  177.5330  142.0650 C   0  0  0  0  0  2  0  0  0  0  0  0
  186.6770  177.2530  144.6090 C   0  0  0  0  0  2  0  0  0  0  0  0
  186.2320  177.8820  145.9010 C   0  0  0  0  0  0  0  0  0  0  0  0
  185.2810  179.0690  143.5100 C   0  0  0  0  0  0  0  0  0  0  0  0
  184.3480  178.9120  144.6780 C   0  0  0  0  0  2  0  0  0  0  0  0
  185.1420  178.6610  145.9320 C   0  0  0  0  0  3  0  0  0  0  0  0
  186.9610  177.6940  147.0310 F   0  0  0  0  0  0  0  0  0  0  0  0
  185.0290  179.8870  142.6410 O   0  0  0  0  0  0  0  0  0  0  0  0
  186.5370  178.2260  143.4270 C   0  0  2  0  0  3  0  0  0  0  0  0
  1  8  1  0  0  0  0
  1 16  1  1  0  0  0
  4  5  1  0  0  0  0
  5 20  1  0  0  0  0
  6 17  1  0  0  0  0
  6 22  1  1  0  0  0
  7 11  1  0  0  0  0
  9  2  1  0  0  0  0
 10  4  1  0  0  0  0
 11 12  2  0  0  0  0
 11 23  1  0  0  0  0
 12 10  2  0  0  0  0
 13 24  1  1  0  0  0
 13 21  1  0  0  0  0
 14  1  1  0  0  0  0
 15 14  2  0  0  0  0
 17  9  1  1  0  0  0
 17  7  1  0  0  0  0
 18 15  1  1  0  0  0
 18 19  1  0  0  0  0
 18  6  1  0  0  0  0
 19  2  1  1  0  0  0
 19  8  1  0  0  0  0
 21 20  1  0  0  0  0
 22  3  1  0  0  0  0
 23  3  1  6  0  0  0
 23 13  1  0  0  0  0
 25 26  1  0  0  0  0
 26 29  2  0  0  0  0
 26 30  1  0  0  0  0
 27 28  1  0  0  0  0
 28 29  1  0  0  0  0
 31 27  2  0  0  0  0
 32 24  1  6  0  0  0
 32 27  1  0  0  0  0
 32 25  1  0  0  0  0
M  END
>  <MODEL>
2

>  <REMARK>
 VINA RESULT:      -7.9      3.587      5.025
  Name = 
  2 active torsions:
  status: ('A' for Active; 'I' for Inactive)
    1  A    between atoms: C_16  and  C_27
    2  A    between atoms: C_27  and  C_32
                            x       y       z     vdW  Elec       q    Type
                         _______ _______ _______ _____ _____    ______ ____

>  <TORSDO>
F 2

$$$$
=
 OpenBabel11052416503D

 32 36  0  0  1  0  0  0  0  0999 V2000
  180.0580  183.0540  136.9880 C   0  0  2  0  0  3  0  0  0  0  0  0
  179.7450  181.2260  140.3510 C   0  0  0  0  0  2  0  0  0  0  0  0
  182.0320  179.5680  138.7840 C   0  0  0  0  0  2  0  0  0  0  0  0
  183.2920  179.5850  143.8250 C   0  0  0  0  0  2  0  0  0  0  0  0
  184.4650  178.6260  143.6720 C   0  0  0  0  0  2  0  0  0  0  0  0
  179.5410  179.1340  138.4070 C   0  0  1  0  0  3  0  0  0  0  0  0
  180.1860  177.7910  140.5630 C   0  0  0  0  0  2  0  0  0  0  0  0
  180.4960  182.5160  138.3440 C   0  0  0  0  0  2  0  0  0  0  0  0
  178.9310  180.0120  140.7790 C   0  0  0  0  0  2  0  0  0  0  0  0
  182.0010  178.9530  143.4180 C   0  0  0  0  0  3  0  0  0  0  0  0
  181.5140  178.3890  140.9140 C   0  0  0  0  0  0  0  0  0  0  0  0
  181.7510  178.6720  142.1700 C   0  0  0  0  0  0  0  0  0  0  0  0
  183.9490  179.0070  140.3260 C   0  0  2  0  0  3  0  0  0  0  0  0
  179.6550  181.9380  136.0650 C   0  0  0  0  0  3  0  0  0  0  0  0
  179.1350  180.7910  136.5220 C   0  0  0  0  0  3  0  0  0  0  0  0
  181.1800  183.8550  136.3630 C   0  0  0  0  0  1  0  0  0  0  0  0
  179.2440  178.7960  139.8920 C   0  0  1  0  0  3  0  0  0  0  0  0
  178.9690  180.5030  137.9980 C   0  0  2  0  0  3  0  0  0  0  0  0
  179.3710  181.6740  138.9360 C   0  0  1  0  0  3  0  0  0  0  0  0
  185.1560  178.8140  142.3300 C   0  0  0  0  0  2  0  0  0  0  0  0
  184.4700  178.0530  141.2980 N   0  0  0  0  0  2  0  0  0  0  0  0
  180.9800  178.8920  137.9200 C   0  0  0  0  0  2  0  0  0  0  0  0
  182.5510  178.5850  139.8290 C   0  0  2  0  0  3  0  0  0  0  0  0
  184.9600  179.2480  139.1850 C   0  0  0  0  0  2  0  0  0  0  0  0
  187.2990  178.2530  138.8890 C   0  0  0  0  0  2  0  0  0  0  0  0
  188.0940  177.1900  138.1790 C   0  0  0  0  0  0  0  0  0  0  0  0
  185.4180  177.5650  137.3270 C   0  0  0  0  0  0  0  0  0  0  0  0
  186.4930  177.3350  136.3030 C   0  0  0  0  0  2  0  0  0  0  0  0
  187.7140  176.7590  136.9680 C   0  0  0  0  0  3  0  0  0  0  0  0
  189.1740  176.6360  138.7860 F   0  0  0  0  0  0  0  0  0  0  0  0
  184.2520  177.3540  137.0360 O   0  0  0  0  0  0  0  0  0  0  0  0
  185.7860  178.0380  138.7180 C   0  0  2  0  0  3  0  0  0  0  0  0
  1 16  1  6  0  0  0
  1  8  1  0  0  0  0
  2  9  1  0  0  0  0
  5  4  1  0  0  0  0
  6 22  1  1  0  0  0
  6 17  1  0  0  0  0
  7 11  1  0  0  0  0
 10  4  1  0  0  0  0
 11 12  2  0  0  0  0
 12 10  2  0  0  0  0
 13 24  1  6  0  0  0
 13 21  1  0  0  0  0
 14 15  2  0  0  0  0
 14  1  1  0  0  0  0
 17  7  1  1  0  0  0
 17  9  1  0  0  0  0
 18 15  1  6  0  0  0
 18  6  1  0  0  0  0
 18 19  1  0  0  0  0
 19  8  1  6  0  0  0
 19  2  1  0  0  0  0
 20  5  1  0  0  0  0
 21 20  1  0  0  0  0
 22  3  1  0  0  0  0
 23  3  1  6  0  0  0
 23 13  1  0  0  0  0
 23 11  1  0  0  0  0
 26 30  1  0  0  0  0
 26 25  1  0  0  0  0
 27 32  1  0  0  0  0
 28 29  1  0  0  0  0
 28 27  1  0  0  0  0
 29 26  2  0  0  0  0
 31 27  2  0  0  0  0
 32 25  1  0  0  0  0
 32 24  1  6  0  0  0
M  END
>  <MODEL>
3

>  <REMARK>
 VINA RESULT:      -7.5      3.058      6.135
  Name = 
  2 active torsions:
  status: ('A' for Active; 'I' for Inactive)
    1  A    between atoms: C_16  and  C_27
    2  A    between atoms: C_27  and  C_32
                            x       y       z     vdW  Elec       q    Type
                         _______ _______ _______ _____ _____    ______ ____

>  <TORSDO>
F 2

$$$$
=
 OpenBabel11052416503D

 32 36  0  0  1  0  0  0  0  0999 V2000
  182.8670  175.8740  138.1610 C   0  0  2  0  0  3  0  0  0  0  0  0
  185.9760  174.6950  136.2410 C   0  0  0  0  0  2  0  0  0  0  0  0
  186.8810  177.5280  137.5020 C   0  0  0  0  0  2  0  0  0  0  0  0
  191.0340  174.4060  137.5390 C   0  0  0  0  0  2  0  0  0  0  0  0
  192.0060  175.4840  137.9970 C   0  0  0  0  0  2  0  0  0  0  0  0
  185.5670  177.3730  135.3130 C   0  0  1  0  0  3  0  0  0  0  0  0
  188.0770  176.9710  134.6760 C   0  0  0  0  0  2  0  0  0  0  0  0
  184.3070  175.4260  137.9540 C   0  0  0  0  0  2  0  0  0  0  0  0
  186.4720  174.9820  134.8290 C   0  0  0  0  0  2  0  0  0  0  0  0
  190.4110  174.7430  136.2230 C   0  0  0  0  0  3  0  0  0  0  0  0
  188.6970  176.7050  136.0140 C   0  0  0  0  0  0  0  0  0  0  0  0
  189.5530  175.7190  136.1130 C   0  0  0  0  0  0  0  0  0  0  0  0
  189.2150  177.3840  138.4480 C   0  0  2  0  0  3  0  0  0  0  0  0
  182.5790  177.1420  137.4060 C   0  0  0  0  0  3  0  0  0  0  0  0
  183.2110  177.4470  136.2640 C   0  0  0  0  0  3  0  0  0  0  0  0
  182.5990  176.0860  139.6360 C   0  0  0  0  0  1  0  0  0  0  0  0
  186.6230  176.4930  134.5940 C   0  0  1  0  0  3  0  0  0  0  0  0
  184.3020  176.5770  135.6790 C   0  0  2  0  0  3  0  0  0  0  0  0
  184.5730  175.2640  136.4620 C   0  0  1  0  0  3  0  0  0  0  0  0
  191.3260  176.4770  138.9270 C   0  0  0  0  0  2  0  0  0  0  0  0
  190.6390  177.5010  138.1570 N   0  0  0  0  0  2  0  0  0  0  0  0
  186.0820  178.2770  136.4480 C   0  0  0  0  0  2  0  0  0  0  0  0
  188.3690  177.6140  137.1790 C   0  0  2  0  0  3  0  0  0  0  0  0
  188.8110  178.2940  139.6280 C   0  0  0  0  0  2  0  0  0  0  0  0
  186.8850  178.4750  141.3040 C   0  0  0  0  0  2  0  0  0  0  0  0
  186.3480  177.9530  142.6090 C   0  0  0  0  0  0  0  0  0  0  0  0
  188.9850  177.1820  141.9160 C   0  0  0  0  0  0  0  0  0  0  0  0
  188.6750  177.5570  143.3370 C   0  0  0  0  0  2  0  0  0  0  0  0
  187.1880  177.5200  143.5600 C   0  0  0  0  0  3  0  0  0  0  0  0
  185.0070  177.8780  142.8060 F   0  0  0  0  0  0  0  0  0  0  0  0
  189.9700  176.5050  141.6690 O   0  0  0  0  0  0  0  0  0  0  0  0
  188.0660  177.6290  140.7980 C   0  0  2  0  0  3  0  0  0  0  0  0
  1 16  1  1  0  0  0
  4  5  1  0  0  0  0
  5 20  1  0  0  0  0
  6 18  1  0  0  0  0
  6 22  1  1  0  0  0
  7 11  1  0  0  0  0
  8  1  1  0  0  0  0
  9  2  1  0  0  0  0
 10  4  1  0  0  0  0
 11 12  2  0  0  0  0
 11 23  1  0  0  0  0
 12 10  2  0  0  0  0
 13 24  1  1  0  0  0
 14  1  1  0  0  0  0
 15 14  2  0  0  0  0
 17  7  1  1  0  0  0
 17  9  1  0  0  0  0
 17  6  1  0  0  0  0
 18 15  1  1  0  0  0
 18 19  1  0  0  0  0
 19  2  1  1  0  0  0
 19  8  1  0  0  0  0
 21 13  1  0  0  0  0
 21 20  1  0  0  0  0
 22  3  1  0  0  0  0
 23  3  1  1  0  0  0
 23 13  1  0  0  0  0
 25 26  1  0  0  0  0
 26 30  1  0  0  0  0
 26 29  2  0  0  0  0
 27 28  1  0  0  0  0
 28 29  1  0  0  0  0
 31 27  2  0  0  0  0
 32 24  1  6  0  0  0
 32 25  1  0  0  0  0
 32 27  1  0  0  0  0
M  END
>  <MODEL>
4

>  <REMARK>
 VINA RESULT:      -7.0      3.418      5.262
  Name = 
  2 active torsions:
  status: ('A' for Active; 'I' for Inactive)
    1  A    between atoms: C_16  and  C_27
    2  A    between atoms: C_27  and  C_32
                            x       y       z     vdW  Elec       q    Type
                         _______ _______ _______ _____ _____    ______ ____

>  <TORSDO>
F 2

$$$$
=
 OpenBabel11052416503D

 32 36  0  0  1  0  0  0  0  0999 V2000
  179.3310  178.3400  142.9790 C   0  0  2  0  0  3  0  0  0  0  0  0
  180.2310  177.1600  139.4370 C   0  0  0  0  0  2  0  0  0  0  0  0
  182.4640  179.4020  140.0910 C   0  0  0  0  0  2  0  0  0  0  0  0
  184.7470  175.7110  137.2350 C   0  0  0  0  0  2  0  0  0  0  0  0
  186.0610  176.4630  137.0720 C   0  0  0  0  0  2  0  0  0  0  0  0
  180.1420  180.0140  139.2120 C   0  0  1  0  0  3  0  0  0  0  0  0
  181.5590  179.3620  137.1070 C   0  0  0  0  0  2  0  0  0  0  0  0
  180.1760  177.7190  141.8740 C   0  0  0  0  0  2  0  0  0  0  0  0
  179.8630  177.6980  138.0590 C   0  0  0  0  0  2  0  0  0  0  0  0
  183.6010  176.4610  136.6400 C   0  0  0  0  0  3  0  0  0  0  0  0
  182.7370  178.6750  137.7270 C   0  0  0  0  0  0  0  0  0  0  0  0
  183.1630  177.5650  137.1790 C   0  0  0  0  0  0  0  0  0  0  0  0
  184.7480  178.6370  139.3420 C   0  0  2  0  0  3  0  0  0  0  0  0
  179.0320  179.7840  142.6880 C   0  0  0  0  0  3  0  0  0  0  0  0
  178.9310  180.2490  141.4340 C   0  0  0  0  0  3  0  0  0  0  0  0
  180.0510  178.2250  144.3060 C   0  0  0  0  0  1  0  0  0  0  0  0
  180.2710  179.1720  137.9150 C   0  0  1  0  0  3  0  0  0  0  0  0
  179.1680  179.3780  140.2210 C   0  0  2  0  0  3  0  0  0  0  0  0
  179.4570  177.8860  140.5400 C   0  0  1  0  0  3  0  0  0  0  0  0
  186.3730  177.2970  138.3050 C   0  0  0  0  0  2  0  0  0  0  0  0
  185.6920  178.5800  138.2320 N   0  0  0  0  0  2  0  0  0  0  0  0
  181.4530  180.5110  139.8440 C   0  0  0  0  0  2  0  0  0  0  0  0
  183.4280  179.3110  138.9140 C   0  0  2  0  0  3  0  0  0  0  0  0
  185.3920  179.2840  140.5870 C   0  0  0  0  0  2  0  0  0  0  0  0
  184.4010  179.2470  142.9470 C   0  0  0  0  0  2  0  0  0  0  0  0
  184.5210  178.6280  144.3130 C   0  0  0  0  0  0  0  0  0  0  0  0
  186.6110  178.0850  142.4780 C   0  0  0  0  0  0  0  0  0  0  0  0
  186.9460  178.3700  143.9150 C   0  0  0  0  0  2  0  0  0  0  0  0
  185.7140  178.2150  144.7640 C   0  0  0  0  0  3  0  0  0  0  0  0
  183.4110  178.4470  145.0730 F   0  0  0  0  0  0  0  0  0  0  0  0
  187.4140  177.4930  141.7760 O   0  0  0  0  0  0  0  0  0  0  0  0
  185.2720  178.5140  141.9140 C   0  0  2  0  0  3  0  0  0  0  0  0
  1 16  1  1  0  0  0
  5  4  1  0  0  0  0
  5 20  1  0  0  0  0
  6 22  1  1  0  0  0
  6 18  1  0  0  0  0
  7 11  1  0  0  0  0
  8  1  1  0  0  0  0
  9  2  1  0  0  0  0
 10 12  2  0  0  0  0
 10  4  1  0  0  0  0
 11 23  1  0  0  0  0
 12 11  2  0  0  0  0
 13 24  1  1  0  0  0
 14  1  1  0  0  0  0
 15 14  2  0  0  0  0
 17  7  1  1  0  0  0
 17  9  1  0  0  0  0
 17  6  1  0  0  0  0
 18 19  1  0  0  0  0
 18 15  1  1  0  0  0
 19  2  1  6  0  0  0
 19  8  1  0  0  0  0
 21 20  1  0  0  0  0
 21 13  1  0  0  0  0
 22  3  1  0  0  0  0
 23 13  1  0  0  0  0
 23  3  1  1  0  0  0
 25 26  1  0  0  0  0
 26 29  2  0  0  0  0
 26 30  1  0  0  0  0
 27 28  1  0  0  0  0
 28 29  1  0  0  0  0
 31 27  2  0  0  0  0
 32 24  1  6  0  0  0
 32 27  1  0  0  0  0
 32 25  1  0  0  0  0
M  END
>  <MODEL>
5

>  <REMARK>
 VINA RESULT:      -6.9      2.292      3.350
  Name = 
  2 active torsions:
  status: ('A' for Active; 'I' for Inactive)
    1  A    between atoms: C_16  and  C_27
    2  A    between atoms: C_27  and  C_32
                            x       y       z     vdW  Elec       q    Type
                         _______ _______ _______ _____ _____    ______ ____

>  <TORSDO>
F 2

$$$$
=
 OpenBabel11052416503D

 32 36  0  0  1  0  0  0  0  0999 V2000
  182.7470  178.1360  140.8160 C   0  0  2  0  0  3  0  0  0  0  0  0
  183.1880  175.2300  138.3430 C   0  0  0  0  0  2  0  0  0  0  0  0
  185.5960  177.2500  137.5940 C   0  0  0  0  0  2  0  0  0  0  0  0
  187.3510  172.4070  136.9140 C   0  0  0  0  0  2  0  0  0  0  0  0
  188.6780  172.8320  136.2990 C   0  0  0  0  0  2  0  0  0  0  0  0
  183.2270  177.5620  136.6820 C   0  0  1  0  0  3  0  0  0  0  0  0
  184.3690  175.7870  135.1280 C   0  0  0  0  0  2  0  0  0  0  0  0
  183.4300  176.9560  140.1380 C   0  0  0  0  0  2  0  0  0  0  0  0
  182.7010  175.0250  136.9140 C   0  0  0  0  0  2  0  0  0  0  0  0
  186.1880  172.8620  136.0940 C   0  0  0  0  0  3  0  0  0  0  0  0
  185.5690  175.3960  135.9350 C   0  0  0  0  0  0  0  0  0  0  0  0
  185.8730  174.1250  136.0130 C   0  0  0  0  0  0  0  0  0  0  0  0
  187.7400  175.9810  137.1980 C   0  0  2  0  0  3  0  0  0  0  0  0
  182.4950  179.2510  139.8400 C   0  0  0  0  0  3  0  0  0  0  0  0
  182.2810  179.0200  138.5370 C   0  0  0  0  0  3  0  0  0  0  0  0
  183.6000  178.6400  141.9600 C   0  0  0  0  0  1  0  0  0  0  0  0
  183.1680  176.1690  136.0010 C   0  0  1  0  0  3  0  0  0  0  0  0
  182.3380  177.6330  137.9360 C   0  0  2  0  0  3  0  0  0  0  0  0
  182.5800  176.4920  138.9610 C   0  0  1  0  0  3  0  0  0  0  0  0
  189.1670  174.1410  136.8990 C   0  0  0  0  0  2  0  0  0  0  0  0
  188.5520  175.2700  136.2180 N   0  0  0  0  0  2  0  0  0  0  0  0
  184.6250  178.1750  136.8770 C   0  0  0  0  0  2  0  0  0  0  0  0
  186.4190  176.4740  136.5720 C   0  0  2  0  0  3  0  0  0  0  0  0
  188.5500  177.1020  137.8840 C   0  0  0  0  0  2  0  0  0  0  0  0
  188.2430  178.0730  140.2320 C   0  0  0  0  0  2  0  0  0  0  0  0
  188.7640  178.0460  141.6430 C   0  0  0  0  0  0  0  0  0  0  0  0
  190.3020  176.6880  139.6890 C   0  0  0  0  0  0  0  0  0  0  0  0
  190.9990  177.5030  140.7410 C   0  0  0  0  0  2  0  0  0  0  0  0
  190.0550  177.7760  141.8800 C   0  0  0  0  0  3  0  0  0  0  0  0
  187.9150  178.2520  142.6820 F   0  0  0  0  0  0  0  0  0  0  0  0
  190.9150  175.8170  139.0930 O   0  0  0  0  0  0  0  0  0  0  0  0
  188.8390  176.9360  139.3860 C   0  0  2  0  0  3  0  0  0  0  0  0
  1 16  1  1  0  0  0
  5 20  1  0  0  0  0
  5  4  1  0  0  0  0
  6 22  1  1  0  0  0
  6 18  1  0  0  0  0
  7 11  1  0  0  0  0
  8  1  1  0  0  0  0
  9  2  1  0  0  0  0
 10  4  1  0  0  0  0
 11 12  2  0  0  0  0
 11 23  1  0  0  0  0
 12 10  2  0  0  0  0
 13 24  1  6  0  0  0
 14  1  1  0  0  0  0
 15 14  2  0  0  0  0
 17  7  1  1  0  0  0
 17  6  1  0  0  0  0
 17  9  1  0  0  0  0
 18 15  1  1  0  0  0
 18 19  1  0  0  0  0
 19  2  1  6  0  0  0
 19  8  1  0  0  0  0
 21 20  1  0  0  0  0
 21 13  1  0  0  0  0
 22  3  1  0  0  0  0
 23 13  1  0  0  0  0
 23  3  1  1  0  0  0
 25 26  1  0  0  0  0
 26 29  2  0  0  0  0
 26 30  1  0  0  0  0
 27 28  1  0  0  0  0
 28 29  1  0  0  0  0
 31 27  2  0  0  0  0
 32 24  1  6  0  0  0
 32 27  1  0  0  0  0
 32 25  1  0  0  0  0
M  END
>  <MODEL>
6

>  <REMARK>
 VINA RESULT:      -6.8      3.522      5.447
  Name = 
  2 active torsions:
  status: ('A' for Active; 'I' for Inactive)
    1  A    between atoms: C_16  and  C_27
    2  A    between atoms: C_27  and  C_32
                            x       y       z     vdW  Elec       q    Type
                         _______ _______ _______ _____ _____    ______ ____

>  <TORSDO>
F 2

$$$$
=
 OpenBabel11052416503D

 32 36  0  0  1  0  0  0  0  0999 V2000
  179.6360  175.3020  139.4880 C   0  0  2  0  0  3  0  0  0  0  0  0
  182.6300  174.5220  137.2130 C   0  0  0  0  0  2  0  0  0  0  0  0
  182.9610  177.6680  137.8660 C   0  0  0  0  0  2  0  0  0  0  0  0
  187.7290  175.6220  137.5770 C   0  0  0  0  0  2  0  0  0  0  0  0
  188.4530  176.9570  137.6880 C   0  0  0  0  0  2  0  0  0  0  0  0
  181.4260  176.8220  136.0040 C   0  0  1  0  0  3  0  0  0  0  0  0
  183.8370  176.8850  134.9770 C   0  0  0  0  0  2  0  0  0  0  0  0
  181.0980  175.1600  139.0840 C   0  0  0  0  0  2  0  0  0  0  0  0
  182.8260  174.6490  135.7070 C   0  0  0  0  0  2  0  0  0  0  0  0
  186.8570  175.5630  136.3660 C   0  0  0  0  0  3  0  0  0  0  0  0
  184.6910  177.0160  136.2000 C   0  0  0  0  0  0  0  0  0  0  0  0
  185.7730  176.2840  136.2780 C   0  0  0  0  0  0  0  0  0  0  0  0
  185.3680  178.2290  138.3730 C   0  0  2  0  0  3  0  0  0  0  0  0
  178.9310  176.3120  138.6260 C   0  0  0  0  0  3  0  0  0  0  0  0
  179.2920  176.5360  137.3550 C   0  0  0  0  0  3  0  0  0  0  0  0
  179.5410  175.7150  140.9410 C   0  0  0  0  0  1  0  0  0  0  0  0
  182.5540  176.0860  135.2340 C   0  0  1  0  0  3  0  0  0  0  0  0
  180.4700  175.8420  136.7090 C   0  0  2  0  0  3  0  0  0  0  0  0
  181.1750  174.7900  137.6070 C   0  0  1  0  0  3  0  0  0  0  0  0
  187.6870  177.9240  138.5770 C   0  0  0  0  0  2  0  0  0  0  0  0
  186.6590  178.6080  137.8100 N   0  0  0  0  0  2  0  0  0  0  0  0
  181.8550  178.0110  136.8830 C   0  0  0  0  0  2  0  0  0  0  0  0
  184.3160  178.0250  137.2640 C   0  0  2  0  0  3  0  0  0  0  0  0
  184.9240  179.2250  139.4660 C   0  0  0  0  0  2  0  0  0  0  0  0
  183.0060  179.0430  141.1510 C   0  0  0  0  0  2  0  0  0  0  0  0
  182.6570  178.6870  142.5710 C   0  0  0  0  0  0  0  0  0  0  0  0
  185.4140  178.8620  141.9410 C   0  0  0  0  0  0  0  0  0  0  0  0
  184.9180  179.4200  143.2450 C   0  0  0  0  0  2  0  0  0  0  0  0
  183.5550  178.8620  143.5510 C   0  0  0  0  0  3  0  0  0  0  0  0
  181.4440  178.1470  142.8530 F   0  0  0  0  0  0  0  0  0  0  0  0
  186.5950  178.5850  141.8120 O   0  0  0  0  0  0  0  0  0  0  0  0
  184.4450  178.6290  140.8010 C   0  0  2  0  0  3  0  0  0  0  0  0
  1 16  1  1  0  0  0
  4  5  1  0  0  0  0
  5 20  1  0  0  0  0
  6 18  1  0  0  0  0
  6 22  1  1  0  0  0
  7 11  1  0  0  0  0
  8  1  1  0  0  0  0
  9  2  1  0  0  0  0
 10  4  1  0  0  0  0
 11 12  2  0  0  0  0
 11 23  1  0  0  0  0
 12 10  2  0  0  0  0
 13 24  1  1  0  0  0
 14  1  1  0  0  0  0
 15 14  2  0  0  0  0
 17  7  1  1  0  0  0
 17  9  1  0  0  0  0
 17  6  1  0  0  0  0
 18 15  1  1  0  0  0
 18 19  1  0  0  0  0
 19  2  1  6  0  0  0
 19  8  1  0  0  0  0
 21 13  1  0  0  0  0
 21 20  1  0  0  0  0
 22  3  1  0  0  0  0
 23  3  1  1  0  0  0
 23 13  1  0  0  0  0
 25 26  1  0  0  0  0
 26 30  1  0  0  0  0
 26 29  2  0  0  0  0
 27 28  1  0  0  0  0
 28 29  1  0  0  0  0
 31 27  2  0  0  0  0
 32 24  1  6  0  0  0
 32 25  1  0  0  0  0
 32 27  1  0  0  0  0
M  END
>  <MODEL>
7

>  <REMARK>
 VINA RESULT:      -6.7      2.580      3.815
  Name = 
  2 active torsions:
  status: ('A' for Active; 'I' for Inactive)
    1  A    between atoms: C_16  and  C_27
    2  A    between atoms: C_27  and  C_32
                            x       y       z     vdW  Elec       q    Type
                         _______ _______ _______ _____ _____    ______ ____

>  <TORSDO>
F 2

$$$$
=
 OpenBabel11052416503D

 32 36  0  0  1  0  0  0  0  0999 V2000
  183.8840  172.5730  136.2880 C   0  0  2  0  0  3  0  0  0  0  0  0
  186.9350  174.8240  136.8940 C   0  0  0  0  0  2  0  0  0  0  0  0
  184.4240  176.7160  137.6390 C   0  0  0  0  0  2  0  0  0  0  0  0
  188.3050  177.9250  140.8760 C   0  0  0  0  0  2  0  0  0  0  0  0
  187.5890  179.1140  141.5030 C   0  0  0  0  0  2  0  0  0  0  0  0
  185.2280  176.4100  135.2300 C   0  0  1  0  0  3  0  0  0  0  0  0
  186.7850  178.2360  136.2820 C   0  0  0  0  0  2  0  0  0  0  0  0
  184.8600  173.4390  137.0720 C   0  0  0  0  0  2  0  0  0  0  0  0
  187.6450  175.8410  136.0080 C   0  0  0  0  0  2  0  0  0  0  0  0
  188.5180  178.1160  139.4100 C   0  0  0  0  0  3  0  0  0  0  0  0
  186.5040  178.0780  137.7450 C   0  0  0  0  0  0  0  0  0  0  0  0
  187.5170  178.0950  138.5730 C   0  0  0  0  0  0  0  0  0  0  0  0
  184.8810  178.0220  139.7480 C   0  0  2  0  0  3  0  0  0  0  0  0
  183.2090  173.3620  135.2010 C   0  0  0  0  0  3  0  0  0  0  0  0
  183.8110  174.3970  134.5970 C   0  0  0  0  0  3  0  0  0  0  0  0
  182.8420  171.9940  137.2220 C   0  0  0  0  0  1  0  0  0  0  0  0
  186.6670  176.9170  135.5110 C   0  0  1  0  0  3  0  0  0  0  0  0
  185.1840  174.8890  135.0000 C   0  0  2  0  0  3  0  0  0  0  0  0
  185.8730  174.0500  136.1100 C   0  0  1  0  0  3  0  0  0  0  0  0
  186.0880  178.8770  141.5710 C   0  0  0  0  0  2  0  0  0  0  0  0
  185.4630  179.2360  140.3080 N   0  0  0  0  0  2  0  0  0  0  0  0
  184.1200  176.9280  136.1650 C   0  0  0  0  0  2  0  0  0  0  0  0
  185.0710  177.9700  138.2190 C   0  0  2  0  0  3  0  0  0  0  0  0
  183.4110  177.8540  140.1910 C   0  0  0  0  0  2  0  0  0  0  0  0
  183.2220  178.1650  142.7240 C   0  0  0  0  0  2  0  0  0  0  0  0
  182.4980  178.9100  143.8130 C   0  0  0  0  0  0  0  0  0  0  0  0
  181.4740  179.1800  141.1840 C   0  0  0  0  0  0  0  0  0  0  0  0
  180.5210  179.0230  142.3350 C   0  0  0  0  0  2  0  0  0  0  0  0
  181.2330  179.3140  143.6280 C   0  0  0  0  0  3  0  0  0  0  0  0
  183.1430  179.2120  144.9690 F   0  0  0  0  0  0  0  0  0  0  0  0
  181.0820  179.6650  140.1360 O   0  0  0  0  0  0  0  0  0  0  0  0
  182.9200  178.7550  141.3370 C   0  0  2  0  0  3  0  0  0  0  0  0
  1  8  1  0  0  0  0
  1 16  1  1  0  0  0
  4  5  1  0  0  0  0
  5 20  1  0  0  0  0
  6 17  1  0  0  0  0
  6 22  1  1  0  0  0
  7 11  1  0  0  0  0
  9  2  1  0  0  0  0
 10  4  1  0  0  0  0
 11 23  1  0  0  0  0
 11 12  2  0  0  0  0
 12 10  2  0  0  0  0
 13 24  1  6  0  0  0
 13 21  1  0  0  0  0
 14  1  1  0  0  0  0
 15 14  2  0  0  0  0
 17  9  1  1  0  0  0
 17  7  1  0  0  0  0
 18 15  1  1  0  0  0
 18  6  1  0  0  0  0
 18 19  1  0  0  0  0
 19  2  1  1  0  0  0
 19  8  1  0  0  0  0
 21 20  1  0  0  0  0
 22  3  1  0  0  0  0
 23  3  1  1  0  0  0
 23 13  1  0  0  0  0
 25 26  1  0  0  0  0
 26 30  1  0  0  0  0
 27 32  1  0  0  0  0
 27 28  1  0  0  0  0
 28 29  1  0  0  0  0
 29 26  2  0  0  0  0
 31 27  2  0  0  0  0
 32 24  1  6  0  0  0
 32 25  1  0  0  0  0
M  END
>  <MODEL>
8

>  <REMARK>
 VINA RESULT:      -6.6      3.128      4.999
  Name = 
  2 active torsions:
  status: ('A' for Active; 'I' for Inactive)
    1  A    between atoms: C_16  and  C_27
    2  A    between atoms: C_27  and  C_32
                            x       y       z     vdW  Elec       q    Type
                         _______ _______ _______ _____ _____    ______ ____

>  <TORSDO>
F 2

$$$$
=
 OpenBabel11052416503D

 32 36  0  0  1  0  0  0  0  0999 V2000
  184.1250  172.5890  136.3480 C   0  0  2  0  0  3  0  0  0  0  0  0
  187.1330  174.8120  137.2170 C   0  0  0  0  0  2  0  0  0  0  0  0
  184.5930  176.7720  137.5980 C   0  0  0  0  0  2  0  0  0  0  0  0
  188.1030  178.0440  141.2120 C   0  0  0  0  0  2  0  0  0  0  0  0
  187.3440  179.2680  141.7080 C   0  0  0  0  0  2  0  0  0  0  0  0
  185.6600  176.3600  135.3110 C   0  0  1  0  0  3  0  0  0  0  0  0
  187.1240  178.2000  136.4660 C   0  0  0  0  0  2  0  0  0  0  0  0
  185.0230  173.4690  137.2070 C   0  0  0  0  0  2  0  0  0  0  0  0
  187.9600  175.7820  136.3810 C   0  0  0  0  0  2  0  0  0  0  0  0
  188.4860  178.1740  139.7740 C   0  0  0  0  0  3  0  0  0  0  0  0
  186.6750  178.1030  137.8920 C   0  0  0  0  0  0  0  0  0  0  0  0
  187.5870  178.1370  138.8300 C   0  0  0  0  0  0  0  0  0  0  0  0
  184.8320  178.1520  139.6960 C   0  0  2  0  0  3  0  0  0  0  0  0
  183.5960  173.3460  135.1620 C   0  0  0  0  0  3  0  0  0  0  0  0
  184.2840  174.3460  134.5940 C   0  0  0  0  0  3  0  0  0  0  0  0
  182.9720  172.0640  137.1760 C   0  0  0  0  0  1  0  0  0  0  0  0
  187.0670  176.8540  135.7360 C   0  0  1  0  0  3  0  0  0  0  0  0
  185.6110  174.8310  135.1330 C   0  0  2  0  0  3  0  0  0  0  0  0
  186.1510  174.0260  136.3450 C   0  0  1  0  0  3  0  0  0  0  0  0
  185.8410  179.0580  141.6120 C   0  0  0  0  0  2  0  0  0  0  0  0
  185.3710  179.3780  140.2740 N   0  0  0  0  0  2  0  0  0  0  0  0
  184.4640  176.9320  136.0920 C   0  0  0  0  0  2  0  0  0  0  0  0
  185.1950  178.0370  138.2010 C   0  0  2  0  0  3  0  0  0  0  0  0
  183.3190  178.0250  139.9730 C   0  0  0  0  0  2  0  0  0  0  0  0
  182.1530  180.1240  139.0850 C   0  0  0  0  0  2  0  0  0  0  0  0
  181.0180  180.6230  138.2320 C   0  0  0  0  0  0  0  0  0  0  0  0
  181.0620  177.8470  138.8010 C   0  0  0  0  0  0  0  0  0  0  0  0
  179.7540  178.5860  138.8330 C   0  0  0  0  0  2  0  0  0  0  0  0
  179.8950  179.9000  138.1130 C   0  0  0  0  0  3  0  0  0  0  0  0
  181.1490  181.7870  137.5470 F   0  0  0  0  0  0  0  0  0  0  0  0
  181.0680  176.6340  138.6660 O   0  0  0  0  0  0  0  0  0  0  0  0
  182.3650  178.6100  138.9160 C   0  0  2  0  0  3  0  0  0  0  0  0
  1 16  1  1  0  0  0
  1  8  1  0  0  0  0
  4  5  1  0  0  0  0
  6 17  1  0  0  0  0
  6 22  1  1  0  0  0
  7 11  1  0  0  0  0
  9  2  1  0  0  0  0
 10  4  1  0  0  0  0
 11 23  1  0  0  0  0
 11 12  2  0  0  0  0
 12 10  2  0  0  0  0
 13 24  1  6  0  0  0
 13 21  1  0  0  0  0
 14  1  1  0  0  0  0
 15 14  2  0  0  0  0
 17  9  1  1  0  0  0
 17  7  1  0  0  0  0
 18 15  1  1  0  0  0
 18  6  1  0  0  0  0
 18 19  1  0  0  0  0
 19  8  1  1  0  0  0
 19  2  1  0  0  0  0
 20  5  1  0  0  0  0
 21 20  1  0  0  0  0
 22  3  1  0  0  0  0
 23  3  1  1  0  0  0
 23 13  1  0  0  0  0
 26 25  1  0  0  0  0
 27 28  1  0  0  0  0
 27 32  1  0  0  0  0
 29 26  2  0  0  0  0
 29 28  1  0  0  0  0
 30 26  1  0  0  0  0
 31 27  2  0  0  0  0
 32 25  1  0  0  0  0
 32 24  1  1  0  0  0
M  END
>  <MODEL>
9

>  <REMARK>
 VINA RESULT:      -6.5      3.713      6.349
  Name = 
  2 active torsions:
  status: ('A' for Active; 'I' for Inactive)
    1  A    between atoms: C_16  and  C_27
    2  A    between atoms: C_27  and  C_32
                            x       y       z     vdW  Elec       q    Type
                         _______ _______ _______ _____ _____    ______ ____

>  <TORSDO>
F 2

$$$$
