=
 OpenBabel11052412393D

 30 30  0  0  1  0  0  0  0  0999 V2000
  185.9910  178.7990  142.2390 C   0  0  2  0  0  3  0  0  0  0  0  0
  185.9940  178.7780  146.6580 O   0  0  0  0  0  1  0  0  0  0  0  0
  186.8930  176.0370  143.8090 O   0  0  0  0  0  1  0  0  0  0  0  0
  187.4140  178.1990  144.8000 C   0  0  2  0  0  3  0  0  0  0  0  0
  184.8610  178.2930  143.1180 C   0  0  0  0  0  2  0  0  0  0  0  0
  185.4640  178.9680  140.8270 C   0  0  0  0  0  1  0  0  0  0  0  0
  185.9900  178.1810  145.3920 C   0  0  2  0  0  3  0  0  0  0  0  0
  184.9710  178.9070  144.5040 C   0  0  2  0  0  3  0  0  0  0  0  0
  187.5660  177.2440  143.6040 C   0  0  2  0  0  3  0  0  0  0  0  0
  183.5950  178.8640  145.1470 C   0  0  0  0  0  1  0  0  0  0  0  0
  187.1960  177.8490  142.2380 C   0  0  2  0  0  3  0  0  0  0  0  0
  188.4020  178.5010  141.5400 C   0  0  1  0  0  3  0  0  0  0  0  0
  189.4580  178.7290  142.4260 O   0  0  0  0  0  1  0  0  0  0  0  0
  188.8810  177.7770  140.2720 C   0  0  2  0  0  3  0  0  0  0  0  0
  190.5320  175.8190  139.4270 O   0  0  0  0  0  0  0  0  0  0  0  0
  189.9680  175.8590  141.8100 O   0  0  0  0  0  0  0  0  0  0  0  0
  190.2760  176.7110  140.6110 S   0  0  0  0  0  0  0  0  0  0  0  0
  191.7310  177.6940  140.9350 C   0  0  0  0  0  3  0  0  0  0  0  0
  192.2480  177.4170  142.3320 C   0  0  0  0  0  1  0  0  0  0  0  0
  192.8120  177.3770  139.9220 C   0  0  0  0  0  1  0  0  0  0  0  0
  189.1950  178.7110  139.1110 C   0  0  0  0  0  2  0  0  0  0  0  0
  188.7320  178.1020  137.8030 C   0  0  0  0  0  2  0  0  0  0  0  0
  186.3010  178.0860  137.3540 C   0  0  0  0  0  1  0  0  0  0  0  0
  187.4380  177.3490  138.0290 C   0  0  0  0  0  2  0  0  0  0  0  0
  188.4450  177.8160  145.8560 C   0  0  0  0  0  2  0  0  0  0  0  0
  189.8480  177.9790  145.3060 C   0  0  0  0  0  2  0  0  0  0  0  0
  191.5270  176.4220  146.6750 C   0  0  0  0  0  0  0  0  0  0  0  0
  190.7690  177.1240  146.0540 C   0  0  0  0  0  0  0  0  0  0  0  0
  192.4470  175.5710  147.4300 C   0  0  0  0  0  2  0  0  0  0  0  0
  192.8680  176.2410  148.5630 F   0  0  0  0  0  0  0  0  0  0  0  0
  1  6  1  6  0  0  0
  1  5  1  0  0  0  0
  4  7  1  0  0  0  0
  4 25  1  1  0  0  0
  5  8  1  0  0  0  0
  7  2  1  1  0  0  0
  8 10  1  1  0  0  0
  8  7  1  0  0  0  0
  9  3  1  1  0  0  0
  9  4  1  0  0  0  0
 11 12  1  1  0  0  0
 11  1  1  0  0  0  0
 11  9  1  0  0  0  0
 12 13  1  1  0  0  0
 14 21  1  6  0  0  0
 14 17  1  0  0  0  0
 14 12  1  0  0  0  0
 15 17  2  0  0  0  0
 17 18  1  0  0  0  0
 17 16  2  0  0  0  0
 18 19  1  0  0  0  0
 20 18  1  0  0  0  0
 22 24  1  0  0  0  0
 22 21  1  0  0  0  0
 23 24  1  0  0  0  0
 26 25  1  0  0  0  0
 26 28  1  0  0  0  0
 27 29  1  0  0  0  0
 28 27  3  0  0  0  0
 29 30  1  0  0  0  0
M  END
>  <MODEL>
1

>  <REMARK>
 VINA RESULT:      -7.5      0.000      0.000
  Name = 
  11 active torsions:
  status: ('A' for Active; 'I' for Inactive)
    1  A    between atoms: C_1  and  C_4
    2  A    between atoms: C_1  and  C_29
    3  A    between atoms: C_4  and  C_5
    4  A    between atoms: C_4  and  S_12
    5  A    between atoms: C_5  and  C_21
    6  A    between atoms: C_10  and  C_16
    7  A    between atoms: C_11  and  C_24
    8  A    between atoms: S_12  and  C_13
    9  A    between atoms: C_15  and  C_24
   10  A    between atoms: C_15  and  C_25
   11  A    between atoms: C_17  and  C_21
                            x       y       z     vdW  Elec       q    Type
                         _______ _______ _______ _____ _____    ______ ____

>  <TORSDO>
F 11

$$$$
=
 OpenBabel11052412393D

 30 30  0  0  1  0  0  0  0  0999 V2000
  190.8810  176.0370  144.3380 C   0  0  2  0  0  3  0  0  0  0  0  0
  189.1770  177.4290  148.1700 O   0  0  0  0  0  1  0  0  0  0  0  0
  190.1100  179.2320  144.6600 O   0  0  0  0  0  1  0  0  0  0  0  0
  188.7610  177.5560  145.8000 C   0  0  2  0  0  3  0  0  0  0  0  0
  191.6680  176.6620  145.4760 C   0  0  0  0  0  2  0  0  0  0  0  0
  191.8580  175.3800  143.3810 C   0  0  0  0  0  1  0  0  0  0  0  0
  189.8080  177.5990  146.9320 C   0  0  2  0  0  3  0  0  0  0  0  0
  190.8920  176.5250  146.7760 C   0  0  2  0  0  3  0  0  0  0  0  0
  189.3090  178.1030  144.4710 C   0  0  2  0  0  3  0  0  0  0  0  0
  191.8820  176.6130  147.9240 C   0  0  0  0  0  1  0  0  0  0  0  0
  190.0260  177.0670  143.5870 C   0  0  2  0  0  3  0  0  0  0  0  0
  189.0680  176.3680  142.6080 C   0  0  1  0  0  3  0  0  0  0  0  0
  187.9230  175.8900  143.2500 O   0  0  0  0  0  1  0  0  0  0  0  0
  188.7090  177.1920  141.3610 C   0  0  2  0  0  3  0  0  0  0  0  0
  190.5850  175.7920  140.0230 O   0  0  0  0  0  0  0  0  0  0  0  0
  191.1330  178.0990  140.6360 O   0  0  0  0  0  0  0  0  0  0  0  0
  190.0370  177.1850  140.1640 S   0  0  0  0  0  0  0  0  0  0  0  0
  189.4340  177.7460  138.5800 C   0  0  0  0  0  3  0  0  0  0  0  0
  190.3870  177.3270  137.4790 C   0  0  0  0  0  1  0  0  0  0  0  0
  188.0600  177.1650  138.3100 C   0  0  0  0  0  1  0  0  0  0  0  0
  188.2810  178.6210  141.6700 C   0  0  0  0  0  2  0  0  0  0  0  0
  186.7960  178.6740  141.9680 C   0  0  0  0  0  2  0  0  0  0  0  0
  184.5390  178.7090  140.9610 C   0  0  0  0  0  1  0  0  0  0  0  0
  186.0240  178.7240  140.6670 C   0  0  0  0  0  2  0  0  0  0  0  0
  187.5210  178.3600  146.1770 C   0  0  0  0  0  2  0  0  0  0  0  0
  186.2840  177.4880  146.0970 C   0  0  0  0  0  2  0  0  0  0  0  0
  184.3280  178.8160  144.8620 C   0  0  0  0  0  0  0  0  0  0  0  0
  185.2140  178.2180  145.4190 C   0  0  0  0  0  0  0  0  0  0  0  0
  183.2520  179.5400  144.1860 C   0  0  0  0  0  2  0  0  0  0  0  0
  182.2140  178.6700  143.9110 F   0  0  0  0  0  0  0  0  0  0  0  0
  1  6  1  6  0  0  0
  1  5  1  0  0  0  0
  4 25  1  1  0  0  0
  4  7  1  0  0  0  0
  5  8  1  0  0  0  0
  7  2  1  1  0  0  0
  8  7  1  0  0  0  0
  8 10  1  1  0  0  0
  9  3  1  1  0  0  0
  9  4  1  0  0  0  0
 11 12  1  1  0  0  0
 11  1  1  0  0  0  0
 11  9  1  0  0  0  0
 12 13  1  1  0  0  0
 14 21  1  1  0  0  0
 14 12  1  0  0  0  0
 15 17  2  0  0  0  0
 17 16  2  0  0  0  0
 17 14  1  0  0  0  0
 18 17  1  0  0  0  0
 19 18  1  0  0  0  0
 20 18  1  0  0  0  0
 21 22  1  0  0  0  0
 24 23  1  0  0  0  0
 24 22  1  0  0  0  0
 26 25  1  0  0  0  0
 27 28  3  0  0  0  0
 28 26  1  0  0  0  0
 29 27  1  0  0  0  0
 30 29  1  0  0  0  0
M  END
>  <MODEL>
2

>  <REMARK>
 VINA RESULT:      -7.1      2.711      5.341
  Name = 
  11 active torsions:
  status: ('A' for Active; 'I' for Inactive)
    1  A    between atoms: C_1  and  C_4
    2  A    between atoms: C_1  and  C_29
    3  A    between atoms: C_4  and  C_5
    4  A    between atoms: C_4  and  S_12
    5  A    between atoms: C_5  and  C_21
    6  A    between atoms: C_10  and  C_16
    7  A    between atoms: C_11  and  C_24
    8  A    between atoms: S_12  and  C_13
    9  A    between atoms: C_15  and  C_24
   10  A    between atoms: C_15  and  C_25
   11  A    between atoms: C_17  and  C_21
                            x       y       z     vdW  Elec       q    Type
                         _______ _______ _______ _____ _____    ______ ____

>  <TORSDO>
F 11

$$$$
=
 OpenBabel11052412393D

 30 30  0  0  1  0  0  0  0  0999 V2000
  186.5790  178.2200  144.8210 C   0  0  2  0  0  3  0  0  0  0  0  0
  190.9870  177.9490  144.6680 O   0  0  0  0  0  1  0  0  0  0  0  0
  187.9550  175.7000  143.1880 O   0  0  0  0  0  1  0  0  0  0  0  0
  189.0720  177.8640  143.2080 C   0  0  2  0  0  3  0  0  0  0  0  0
  187.4430  177.3900  145.7540 C   0  0  0  0  0  2  0  0  0  0  0  0
  185.1890  178.3270  145.4190 C   0  0  0  0  0  1  0  0  0  0  0  0
  189.6850  177.4450  144.5600 C   0  0  2  0  0  3  0  0  0  0  0  0
  188.8630  177.9320  145.7600 C   0  0  2  0  0  3  0  0  0  0  0  0
  187.8160  177.0500  142.8550 C   0  0  2  0  0  3  0  0  0  0  0  0
  189.5250  177.4980  147.0560 C   0  0  0  0  0  1  0  0  0  0  0  0
  186.4970  177.6160  143.4130 C   0  0  2  0  0  3  0  0  0  0  0  0
  185.8210  178.5960  142.4390 C   0  0  1  0  0  3  0  0  0  0  0  0
  186.7540  179.3930  141.7700 O   0  0  0  0  0  1  0  0  0  0  0  0
  184.8310  177.9480  141.4580 C   0  0  2  0  0  3  0  0  0  0  0  0
  186.4800  178.4880  139.3930 O   0  0  0  0  0  0  0  0  0  0  0  0
  184.6120  180.0270  139.7690 O   0  0  0  0  0  0  0  0  0  0  0  0
  185.0360  178.5860  139.7990 S   0  0  0  0  0  0  0  0  0  0  0  0
  184.0350  177.6460  138.6570 C   0  0  0  0  0  3  0  0  0  0  0  0
  182.8450  178.4680  138.2070 C   0  0  0  0  0  1  0  0  0  0  0  0
  184.8600  177.2450  137.4500 C   0  0  0  0  0  1  0  0  0  0  0  0
  183.3750  178.0550  141.8920 C   0  0  0  0  0  2  0  0  0  0  0  0
  183.2110  179.1520  142.9250 C   0  0  0  0  0  2  0  0  0  0  0  0
  180.7690  178.7760  142.9080 C   0  0  0  0  0  1  0  0  0  0  0  0
  182.0000  178.8570  143.7830 C   0  0  0  0  0  2  0  0  0  0  0  0
  190.0840  177.7010  142.0800 C   0  0  0  0  0  2  0  0  0  0  0  0
  189.3710  177.5490  140.7510 C   0  0  0  0  0  2  0  0  0  0  0  0
  191.0500  176.5200  138.9510 C   0  0  0  0  0  0  0  0  0  0  0  0
  190.2900  176.9820  139.7640 C   0  0  0  0  0  0  0  0  0  0  0  0
  191.9730  175.9610  137.9640 C   0  0  0  0  0  2  0  0  0  0  0  0
  193.1610  176.6670  137.9920 F   0  0  0  0  0  0  0  0  0  0  0  0
  1  6  1  1  0  0  0
  1  5  1  0  0  0  0
  4 25  1  6  0  0  0
  4  7  1  0  0  0  0
  5  8  1  0  0  0  0
  7  2  1  1  0  0  0
  7  8  1  0  0  0  0
  8 10  1  1  0  0  0
  9  3  1  1  0  0  0
  9  4  1  0  0  0  0
  9 11  1  0  0  0  0
 11 12  1  6  0  0  0
 11  1  1  0  0  0  0
 12 13  1  6  0  0  0
 14 21  1  1  0  0  0
 14 12  1  0  0  0  0
 15 17  2  0  0  0  0
 16 17  2  0  0  0  0
 17 14  1  0  0  0  0
 18 17  1  0  0  0  0
 19 18  1  0  0  0  0
 20 18  1  0  0  0  0
 21 22  1  0  0  0  0
 22 24  1  0  0  0  0
 23 24  1  0  0  0  0
 26 25  1  0  0  0  0
 27 28  3  0  0  0  0
 28 26  1  0  0  0  0
 29 30  1  0  0  0  0
 29 27  1  0  0  0  0
M  END
>  <MODEL>
3

>  <REMARK>
 VINA RESULT:      -7.0      3.112      6.059
  Name = 
  11 active torsions:
  status: ('A' for Active; 'I' for Inactive)
    1  A    between atoms: C_1  and  C_4
    2  A    between atoms: C_1  and  C_29
    3  A    between atoms: C_4  and  C_5
    4  A    between atoms: C_4  and  S_12
    5  A    between atoms: C_5  and  C_21
    6  A    between atoms: C_10  and  C_16
    7  A    between atoms: C_11  and  C_24
    8  A    between atoms: S_12  and  C_13
    9  A    between atoms: C_15  and  C_24
   10  A    between atoms: C_15  and  C_25
   11  A    between atoms: C_17  and  C_21
                            x       y       z     vdW  Elec       q    Type
                         _______ _______ _______ _____ _____    ______ ____

>  <TORSDO>
F 11

$$$$
=
 OpenBabel11052412393D

 30 30  0  0  1  0  0  0  0  0999 V2000
  186.1610  178.7570  142.1240 C   0  0  2  0  0  3  0  0  0  0  0  0
  186.3280  178.6440  146.5380 O   0  0  0  0  0  1  0  0  0  0  0  0
  187.2160  175.9960  143.5980 O   0  0  0  0  0  1  0  0  0  0  0  0
  187.6980  178.1550  144.6170 C   0  0  2  0  0  3  0  0  0  0  0  0
  185.0820  178.1930  143.0320 C   0  0  0  0  0  2  0  0  0  0  0  0
  185.5760  178.9380  140.7360 C   0  0  0  0  0  1  0  0  0  0  0  0
  186.2980  178.0740  145.2600 C   0  0  2  0  0  3  0  0  0  0  0  0
  185.2220  178.7820  144.4260 C   0  0  2  0  0  3  0  0  0  0  0  0
  187.8380  177.2310  143.3960 C   0  0  2  0  0  3  0  0  0  0  0  0
  183.8740  178.6760  145.1170 C   0  0  0  0  0  1  0  0  0  0  0  0
  187.3970  177.8510  142.0570 C   0  0  2  0  0  3  0  0  0  0  0  0
  188.5530  178.5610  141.3310 C   0  0  1  0  0  3  0  0  0  0  0  0
  189.6190  178.8370  142.1910 O   0  0  0  0  0  1  0  0  0  0  0  0
  189.0330  177.8610  140.0500 C   0  0  2  0  0  3  0  0  0  0  0  0
  190.4640  175.8240  141.0880 O   0  0  0  0  0  0  0  0  0  0  0  0
  191.5330  178.0270  141.0220 O   0  0  0  0  0  0  0  0  0  0  0  0
  190.6270  177.0830  140.2820 S   0  0  0  0  0  0  0  0  0  0  0  0
  191.3470  176.6830  138.6980 C   0  0  0  0  0  3  0  0  0  0  0  0
  192.8580  176.6540  138.8040 C   0  0  0  0  0  1  0  0  0  0  0  0
  190.8460  175.3340  138.2230 C   0  0  0  0  0  1  0  0  0  0  0  0
  189.0580  178.7670  138.8260 C   0  0  0  0  0  2  0  0  0  0  0  0
  187.8920  178.4510  137.9110 C   0  0  0  0  0  2  0  0  0  0  0  0
  186.4020  176.6530  137.1030 C   0  0  0  0  0  1  0  0  0  0  0  0
  187.6540  176.9560  137.8970 C   0  0  0  0  0  2  0  0  0  0  0  0
  188.7800  177.7870  145.6260 C   0  0  0  0  0  2  0  0  0  0  0  0
  190.0860  177.4920  144.9150 C   0  0  0  0  0  2  0  0  0  0  0  0
  191.7690  176.2990  146.6060 C   0  0  0  0  0  0  0  0  0  0  0  0
  191.0100  176.8360  145.8390 C   0  0  0  0  0  0  0  0  0  0  0  0
  192.6890  175.6470  147.5370 C   0  0  0  0  0  2  0  0  0  0  0  0
  191.9670  174.9460  148.4830 F   0  0  0  0  0  0  0  0  0  0  0  0
  1  6  1  6  0  0  0
  1  5  1  0  0  0  0
  4  7  1  0  0  0  0
  4 25  1  1  0  0  0
  5  8  1  0  0  0  0
  7  2  1  1  0  0  0
  8 10  1  1  0  0  0
  8  7  1  0  0  0  0
  9  3  1  1  0  0  0
  9  4  1  0  0  0  0
 11 12  1  1  0  0  0
 11  1  1  0  0  0  0
 11  9  1  0  0  0  0
 12 13  1  1  0  0  0
 14 21  1  6  0  0  0
 14 17  1  0  0  0  0
 14 12  1  0  0  0  0
 17 16  2  0  0  0  0
 17 15  2  0  0  0  0
 18 19  1  0  0  0  0
 18 17  1  0  0  0  0
 20 18  1  0  0  0  0
 22 21  1  0  0  0  0
 23 24  1  0  0  0  0
 24 22  1  0  0  0  0
 26 25  1  0  0  0  0
 26 28  1  0  0  0  0
 27 29  1  0  0  0  0
 28 27  3  0  0  0  0
 29 30  1  0  0  0  0
M  END
>  <MODEL>
4

>  <REMARK>
 VINA RESULT:      -6.8      1.045      1.284
  Name = 
  11 active torsions:
  status: ('A' for Active; 'I' for Inactive)
    1  A    between atoms: C_1  and  C_4
    2  A    between atoms: C_1  and  C_29
    3  A    between atoms: C_4  and  C_5
    4  A    between atoms: C_4  and  S_12
    5  A    between atoms: C_5  and  C_21
    6  A    between atoms: C_10  and  C_16
    7  A    between atoms: C_11  and  C_24
    8  A    between atoms: S_12  and  C_13
    9  A    between atoms: C_15  and  C_24
   10  A    between atoms: C_15  and  C_25
   11  A    between atoms: C_17  and  C_21
                            x       y       z     vdW  Elec       q    Type
                         _______ _______ _______ _____ _____    ______ ____

>  <TORSDO>
F 11

$$$$
=
 OpenBabel11052412393D

 30 30  0  0  1  0  0  0  0  0999 V2000
  186.7740  178.3180  144.1810 C   0  0  2  0  0  3  0  0  0  0  0  0
  190.6180  177.1170  146.0000 O   0  0  0  0  0  1  0  0  0  0  0  0
  188.0840  175.4050  143.3380 O   0  0  0  0  0  1  0  0  0  0  0  0
  189.5570  177.2770  143.8430 C   0  0  2  0  0  3  0  0  0  0  0  0
  186.9310  177.4310  145.4040 C   0  0  0  0  0  2  0  0  0  0  0  0
  185.3310  178.7770  144.1010 C   0  0  0  0  0  1  0  0  0  0  0  0
  189.4120  176.8870  145.3280 C   0  0  2  0  0  3  0  0  0  0  0  0
  188.2930  177.6620  146.0370 C   0  0  2  0  0  3  0  0  0  0  0  0
  188.4230  176.7110  142.9730 C   0  0  2  0  0  3  0  0  0  0  0  0
  188.2100  177.2410  147.4940 C   0  0  0  0  0  1  0  0  0  0  0  0
  187.1660  177.5960  142.8850 C   0  0  2  0  0  3  0  0  0  0  0  0
  187.2270  178.5850  141.7090 C   0  0  1  0  0  3  0  0  0  0  0  0
  188.5390  178.9600  141.4090 O   0  0  0  0  0  1  0  0  0  0  0  0
  186.4710  178.1340  140.4490 C   0  0  2  0  0  3  0  0  0  0  0  0
  188.3320  176.7460  139.0780 O   0  0  0  0  0  0  0  0  0  0  0  0
  188.5180  179.1880  139.0620 O   0  0  0  0  0  0  0  0  0  0  0  0
  187.5570  178.0330  139.0310 S   0  0  0  0  0  0  0  0  0  0  0  0
  186.6000  178.0930  137.5250 C   0  0  0  0  0  3  0  0  0  0  0  0
  187.4720  178.5400  136.3700 C   0  0  0  0  0  1  0  0  0  0  0  0
  186.0170  176.7270  137.2220 C   0  0  0  0  0  1  0  0  0  0  0  0
  185.2520  178.9860  140.1240 C   0  0  0  0  0  2  0  0  0  0  0  0
  184.0190  178.4260  140.8050 C   0  0  0  0  0  2  0  0  0  0  0  0
  183.1920  179.6690  138.8350 C   0  0  0  0  0  1  0  0  0  0  0  0
  182.7820  178.8910  140.0670 C   0  0  0  0  0  2  0  0  0  0  0  0
  190.8870  176.7860  143.2810 C   0  0  0  0  0  2  0  0  0  0  0  0
  191.5400  177.8720  142.4490 C   0  0  0  0  0  2  0  0  0  0  0  0
  191.7340  177.0650  139.9130 C   0  0  0  0  0  0  0  0  0  0  0  0
  191.6430  177.4280  141.0590 C   0  0  0  0  0  0  0  0  0  0  0  0
  191.8450  176.6250  138.5230 C   0  0  0  0  0  2  0  0  0  0  0  0
  190.9050  177.2860  137.7550 F   0  0  0  0  0  0  0  0  0  0  0  0
  1  6  1  6  0  0  0
  1  5  1  0  0  0  0
  4 25  1  6  0  0  0
  4  7  1  0  0  0  0
  5  8  1  0  0  0  0
  7  2  1  1  0  0  0
  7  8  1  0  0  0  0
  8 10  1  1  0  0  0
  9  3  1  1  0  0  0
  9  4  1  0  0  0  0
 11 12  1  6  0  0  0
 11  9  1  0  0  0  0
 11  1  1  0  0  0  0
 12 13  1  6  0  0  0
 14 21  1  6  0  0  0
 14 12  1  0  0  0  0
 17 16  2  0  0  0  0
 17 15  2  0  0  0  0
 17 14  1  0  0  0  0
 18 17  1  0  0  0  0
 19 18  1  0  0  0  0
 20 18  1  0  0  0  0
 21 22  1  0  0  0  0
 23 24  1  0  0  0  0
 24 22  1  0  0  0  0
 26 25  1  0  0  0  0
 27 28  3  0  0  0  0
 28 26  1  0  0  0  0
 29 27  1  0  0  0  0
 30 29  1  0  0  0  0
M  END
>  <MODEL>
5

>  <REMARK>
 VINA RESULT:      -6.6      2.801      4.855
  Name = 
  11 active torsions:
  status: ('A' for Active; 'I' for Inactive)
    1  A    between atoms: C_1  and  C_4
    2  A    between atoms: C_1  and  C_29
    3  A    between atoms: C_4  and  C_5
    4  A    between atoms: C_4  and  S_12
    5  A    between atoms: C_5  and  C_21
    6  A    between atoms: C_10  and  C_16
    7  A    between atoms: C_11  and  C_24
    8  A    between atoms: S_12  and  C_13
    9  A    between atoms: C_15  and  C_24
   10  A    between atoms: C_15  and  C_25
   11  A    between atoms: C_17  and  C_21
                            x       y       z     vdW  Elec       q    Type
                         _______ _______ _______ _____ _____    ______ ____

>  <TORSDO>
F 11

$$$$
=
 OpenBabel11052412393D

 30 30  0  0  1  0  0  0  0  0999 V2000
  186.5340  178.2590  142.9260 C   0  0  2  0  0  3  0  0  0  0  0  0
  189.0660  178.2650  146.5470 O   0  0  0  0  0  1  0  0  0  0  0  0
  188.9090  175.9800  143.2010 O   0  0  0  0  0  1  0  0  0  0  0  0
  189.2630  178.1950  144.1470 C   0  0  2  0  0  3  0  0  0  0  0  0
  186.3090  177.4020  144.1590 C   0  0  0  0  0  2  0  0  0  0  0  0
  185.2730  178.2300  142.0820 C   0  0  0  0  0  1  0  0  0  0  0  0
  188.5090  177.6950  145.3960 C   0  0  2  0  0  3  0  0  0  0  0  0
  187.0110  178.0240  145.3550 C   0  0  2  0  0  3  0  0  0  0  0  0
  188.9670  177.3430  142.9010 C   0  0  2  0  0  3  0  0  0  0  0  0
  186.3310  177.5170  146.6140 C   0  0  0  0  0  1  0  0  0  0  0  0
  187.7300  177.7780  142.0940 C   0  0  2  0  0  3  0  0  0  0  0  0
  188.0760  178.7990  140.9970 C   0  0  1  0  0  3  0  0  0  0  0  0
  188.6770  179.9460  141.5220 O   0  0  0  0  0  1  0  0  0  0  0  0
  188.8840  178.2300  139.8210 C   0  0  2  0  0  3  0  0  0  0  0  0
  188.4050  179.3670  137.4230 O   0  0  0  0  0  0  0  0  0  0  0  0
  186.4840  178.4450  138.6310 O   0  0  0  0  0  0  0  0  0  0  0  0
  187.9370  178.2420  138.3040 S   0  0  0  0  0  0  0  0  0  0  0  0
  188.1430  176.6910  137.4440 C   0  0  0  0  0  3  0  0  0  0  0  0
  186.7960  176.0330  137.2240 C   0  0  0  0  0  1  0  0  0  0  0  0
  188.8180  176.9230  136.1060 C   0  0  0  0  0  1  0  0  0  0  0  0
  189.4540  176.8410  140.0800 C   0  0  0  0  0  2  0  0  0  0  0  0
  190.8890  176.7610  139.6010 C   0  0  0  0  0  2  0  0  0  0  0  0
  193.2310  177.3310  140.1460 C   0  0  0  0  0  1  0  0  0  0  0  0
  191.7930  177.4420  140.6050 C   0  0  0  0  0  2  0  0  0  0  0  0
  190.7690  178.1940  144.3860 C   0  0  0  0  0  2  0  0  0  0  0  0
  191.3120  176.7810  144.3160 C   0  0  0  0  0  2  0  0  0  0  0  0
  192.0310  175.9740  146.7550 C   0  0  0  0  0  0  0  0  0  0  0  0
  191.7070  176.3420  145.6530 C   0  0  0  0  0  0  0  0  0  0  0  0
  192.4230  175.5270  148.0910 C   0  0  0  0  0  2  0  0  0  0  0  0
  193.2130  176.4920  148.6860 F   0  0  0  0  0  0  0  0  0  0  0  0
  1  6  1  6  0  0  0
  1  5  1  0  0  0  0
  4 25  1  1  0  0  0
  4  7  1  0  0  0  0
  5  8  1  0  0  0  0
  7  2  1  1  0  0  0
  8  7  1  0  0  0  0
  8 10  1  1  0  0  0
  9  3  1  1  0  0  0
  9  4  1  0  0  0  0
 11 12  1  6  0  0  0
 11  9  1  0  0  0  0
 11  1  1  0  0  0  0
 12 13  1  1  0  0  0
 14 21  1  1  0  0  0
 14 12  1  0  0  0  0
 15 17  2  0  0  0  0
 17 16  2  0  0  0  0
 17 14  1  0  0  0  0
 18 17  1  0  0  0  0
 19 18  1  0  0  0  0
 20 18  1  0  0  0  0
 22 21  1  0  0  0  0
 22 24  1  0  0  0  0
 23 24  1  0  0  0  0
 26 25  1  0  0  0  0
 26 28  1  0  0  0  0
 27 29  1  0  0  0  0
 28 27  3  0  0  0  0
 29 30  1  0  0  0  0
M  END
>  <MODEL>
6

>  <REMARK>
 VINA RESULT:      -6.5      1.880      3.388
  Name = 
  11 active torsions:
  status: ('A' for Active; 'I' for Inactive)
    1  A    between atoms: C_1  and  C_4
    2  A    between atoms: C_1  and  C_29
    3  A    between atoms: C_4  and  C_5
    4  A    between atoms: C_4  and  S_12
    5  A    between atoms: C_5  and  C_21
    6  A    between atoms: C_10  and  C_16
    7  A    between atoms: C_11  and  C_24
    8  A    between atoms: S_12  and  C_13
    9  A    between atoms: C_15  and  C_24
   10  A    between atoms: C_15  and  C_25
   11  A    between atoms: C_17  and  C_21
                            x       y       z     vdW  Elec       q    Type
                         _______ _______ _______ _____ _____    ______ ____

>  <TORSDO>
F 11

$$$$
=
 OpenBabel11052412393D

 30 30  0  0  1  0  0  0  0  0999 V2000
  186.1490  178.2560  143.2370 C   0  0  2  0  0  3  0  0  0  0  0  0
  189.3360  178.3400  146.2970 O   0  0  0  0  0  1  0  0  0  0  0  0
  188.4120  175.8510  143.2330 O   0  0  0  0  0  1  0  0  0  0  0  0
  189.0570  178.0970  143.9160 C   0  0  2  0  0  3  0  0  0  0  0  0
  186.1260  177.5010  144.5540 C   0  0  0  0  0  2  0  0  0  0  0  0
  184.7480  178.2540  142.6550 C   0  0  0  0  0  1  0  0  0  0  0  0
  188.5370  177.7320  145.3220 C   0  0  2  0  0  3  0  0  0  0  0  0
  187.0780  178.1550  145.5410 C   0  0  2  0  0  3  0  0  0  0  0  0
  188.4810  177.1840  142.8210 C   0  0  2  0  0  3  0  0  0  0  0  0
  186.6320  177.7790  146.9430 C   0  0  0  0  0  1  0  0  0  0  0  0
  187.1350  177.6430  142.2330 C   0  0  2  0  0  3  0  0  0  0  0  0
  187.3110  178.5640  141.0130 C   0  0  1  0  0  3  0  0  0  0  0  0
  188.4130  179.4110  141.1540 O   0  0  0  0  0  1  0  0  0  0  0  0
  187.3300  177.8390  139.6580 C   0  0  2  0  0  3  0  0  0  0  0  0
  190.0180  177.7540  139.8510 O   0  0  0  0  0  0  0  0  0  0  0  0
  189.0560  179.3780  138.2890 O   0  0  0  0  0  0  0  0  0  0  0  0
  188.9190  177.9910  138.8520 S   0  0  0  0  0  0  0  0  0  0  0  0
  189.0500  176.7960  137.5330 C   0  0  0  0  0  3  0  0  0  0  0  0
  189.0820  177.5000  136.1920 C   0  0  0  0  0  1  0  0  0  0  0  0
  190.3100  175.9700  137.7010 C   0  0  0  0  0  1  0  0  0  0  0  0
  186.2130  178.2680  138.7150 C   0  0  0  0  0  2  0  0  0  0  0  0
  185.1220  178.9890  139.4810 C   0  0  0  0  0  2  0  0  0  0  0  0
  183.3850  177.2710  139.1100 C   0  0  0  0  0  1  0  0  0  0  0  0
  183.7830  178.7050  138.8360 C   0  0  0  0  0  2  0  0  0  0  0  0
  190.5790  178.0130  143.8630 C   0  0  0  0  0  2  0  0  0  0  0  0
  191.0280  176.5660  143.8860 C   0  0  0  0  0  2  0  0  0  0  0  0
  191.9640  175.9600  146.3090 C   0  0  0  0  0  0  0  0  0  0  0  0
  191.5440  176.2350  145.2140 C   0  0  0  0  0  0  0  0  0  0  0  0
  192.4720  175.6260  147.6400 C   0  0  0  0  0  2  0  0  0  0  0  0
  192.4090  176.7440  148.4500 F   0  0  0  0  0  0  0  0  0  0  0  0
  1  6  1  6  0  0  0
  1  5  1  0  0  0  0
  4 25  1  1  0  0  0
  4  7  1  0  0  0  0
  5  8  1  0  0  0  0
  7  8  1  0  0  0  0
  7  2  1  1  0  0  0
  8 10  1  1  0  0  0
  9  3  1  1  0  0  0
  9  4  1  0  0  0  0
 11 12  1  6  0  0  0
 11  9  1  0  0  0  0
 11  1  1  0  0  0  0
 12 13  1  1  0  0  0
 14 21  1  6  0  0  0
 14 12  1  0  0  0  0
 16 17  2  0  0  0  0
 17 14  1  0  0  0  0
 17 15  2  0  0  0  0
 18 20  1  0  0  0  0
 18 17  1  0  0  0  0
 19 18  1  0  0  0  0
 21 22  1  0  0  0  0
 24 23  1  0  0  0  0
 24 22  1  0  0  0  0
 25 26  1  0  0  0  0
 26 28  1  0  0  0  0
 27 29  1  0  0  0  0
 28 27  3  0  0  0  0
 29 30  1  0  0  0  0
M  END
>  <MODEL>
7

>  <REMARK>
 VINA RESULT:      -6.4      1.848      2.892
  Name = 
  11 active torsions:
  status: ('A' for Active; 'I' for Inactive)
    1  A    between atoms: C_1  and  C_4
    2  A    between atoms: C_1  and  C_29
    3  A    between atoms: C_4  and  C_5
    4  A    between atoms: C_4  and  S_12
    5  A    between atoms: C_5  and  C_21
    6  A    between atoms: C_10  and  C_16
    7  A    between atoms: C_11  and  C_24
    8  A    between atoms: S_12  and  C_13
    9  A    between atoms: C_15  and  C_24
   10  A    between atoms: C_15  and  C_25
   11  A    between atoms: C_17  and  C_21
                            x       y       z     vdW  Elec       q    Type
                         _______ _______ _______ _____ _____    ______ ____

>  <TORSDO>
F 11

$$$$
=
 OpenBabel11052412393D

 30 30  0  0  1  0  0  0  0  0999 V2000
  184.8330  178.2300  144.8770 C   0  0  2  0  0  3  0  0  0  0  0  0
  181.9990  178.3970  141.4910 O   0  0  0  0  0  1  0  0  0  0  0  0
  185.3720  180.4250  142.4680 O   0  0  0  0  0  1  0  0  0  0  0  0
  184.3670  178.2750  141.9240 C   0  0  2  0  0  3  0  0  0  0  0  0
  183.6600  179.1870  144.7570 C   0  0  0  0  0  2  0  0  0  0  0  0
  185.3220  178.2460  146.3130 C   0  0  0  0  0  1  0  0  0  0  0  0
  183.0120  178.8990  142.3170 C   0  0  2  0  0  3  0  0  0  0  0  0
  182.6380  178.6290  143.7800 C   0  0  2  0  0  3  0  0  0  0  0  0
  185.5610  179.0420  142.5160 C   0  0  2  0  0  3  0  0  0  0  0  0
  181.2930  179.2580  144.0990 C   0  0  0  0  0  1  0  0  0  0  0  0
  185.9820  178.5970  143.9290 C   0  0  2  0  0  3  0  0  0  0  0  0
  187.0420  177.4830  143.9010 C   0  0  1  0  0  3  0  0  0  0  0  0
  187.1840  176.9300  142.6260 O   0  0  0  0  0  1  0  0  0  0  0  0
  188.4030  177.8740  144.4970 C   0  0  2  0  0  3  0  0  0  0  0  0
  190.6910  179.1040  143.7750 O   0  0  0  0  0  0  0  0  0  0  0  0
  188.9250  178.9400  142.0860 O   0  0  0  0  0  0  0  0  0  0  0  0
  189.6040  178.2260  143.2200 S   0  0  0  0  0  0  0  0  0  0  0  0
  190.3220  176.7040  142.6220 C   0  0  0  0  0  3  0  0  0  0  0  0
  190.4700  176.7540  141.1150 C   0  0  0  0  0  1  0  0  0  0  0  0
  191.6800  176.4820  143.2580 C   0  0  0  0  0  1  0  0  0  0  0  0
  188.9590  176.8550  145.4830 C   0  0  0  0  0  2  0  0  0  0  0  0
  189.4150  177.5440  146.7540 C   0  0  0  0  0  2  0  0  0  0  0  0
  188.3060  178.2530  148.8450 C   0  0  0  0  0  1  0  0  0  0  0  0
  188.5510  177.0880  147.9100 C   0  0  0  0  0  2  0  0  0  0  0  0
  184.5250  178.2330  140.4080 C   0  0  0  0  0  2  0  0  0  0  0  0
  185.9340  178.6280  140.0140 C   0  0  0  0  0  2  0  0  0  0  0  0
  186.3840  177.9420  137.4760 C   0  0  0  0  0  0  0  0  0  0  0  0
  186.1780  178.2500  138.6230 C   0  0  0  0  0  0  0  0  0  0  0  0
  186.6340  177.5700  136.0840 C   0  0  0  0  0  2  0  0  0  0  0  0
  187.5440  178.4490  135.5290 F   0  0  0  0  0  0  0  0  0  0  0  0
  1  6  1  1  0  0  0
  4 25  1  6  0  0  0
  4  7  1  0  0  0  0
  4  9  1  0  0  0  0
  5  1  1  0  0  0  0
  7  2  1  6  0  0  0
  7  8  1  0  0  0  0
  8 10  1  1  0  0  0
  8  5  1  0  0  0  0
  9  3  1  1  0  0  0
  9 11  1  0  0  0  0
 11 12  1  6  0  0  0
 11  1  1  0  0  0  0
 12 13  1  6  0  0  0
 12 14  1  0  0  0  0
 14 21  1  6  0  0  0
 16 17  2  0  0  0  0
 17 15  2  0  0  0  0
 17 14  1  0  0  0  0
 18 17  1  0  0  0  0
 18 20  1  0  0  0  0
 19 18  1  0  0  0  0
 21 22  1  0  0  0  0
 22 24  1  0  0  0  0
 24 23  1  0  0  0  0
 26 25  1  0  0  0  0
 27 28  3  0  0  0  0
 28 26  1  0  0  0  0
 29 27  1  0  0  0  0
 30 29  1  0  0  0  0
M  END
>  <MODEL>
8

>  <REMARK>
 VINA RESULT:      -6.4      3.367      6.561
  Name = 
  11 active torsions:
  status: ('A' for Active; 'I' for Inactive)
    1  A    between atoms: C_1  and  C_4
    2  A    between atoms: C_1  and  C_29
    3  A    between atoms: C_4  and  C_5
    4  A    between atoms: C_4  and  S_12
    5  A    between atoms: C_5  and  C_21
    6  A    between atoms: C_10  and  C_16
    7  A    between atoms: C_11  and  C_24
    8  A    between atoms: S_12  and  C_13
    9  A    between atoms: C_15  and  C_24
   10  A    between atoms: C_15  and  C_25
   11  A    between atoms: C_17  and  C_21
                            x       y       z     vdW  Elec       q    Type
                         _______ _______ _______ _____ _____    ______ ____

>  <TORSDO>
F 11

$$$$
=
 OpenBabel11052412393D

 30 30  0  0  1  0  0  0  0  0999 V2000
  185.9350  178.0150  142.4890 C   0  0  2  0  0  3  0  0  0  0  0  0
  186.6090  178.2470  138.1280 O   0  0  0  0  0  1  0  0  0  0  0  0
  188.3170  180.0050  141.3590 O   0  0  0  0  0  1  0  0  0  0  0  0
  187.8330  177.9300  140.1800 C   0  0  2  0  0  3  0  0  0  0  0  0
  185.3530  179.0680  141.5630 C   0  0  0  0  0  2  0  0  0  0  0  0
  185.1890  178.0690  143.8090 C   0  0  0  0  0  1  0  0  0  0  0  0
  186.7140  178.7000  139.4490 C   0  0  2  0  0  3  0  0  0  0  0  0
  185.3490  178.5520  140.1330 C   0  0  2  0  0  3  0  0  0  0  0  0
  188.2590  178.6150  141.4890 C   0  0  2  0  0  3  0  0  0  0  0  0
  184.2920  179.3220  139.3600 C   0  0  0  0  0  1  0  0  0  0  0  0
  187.4370  178.2170  142.7290 C   0  0  2  0  0  3  0  0  0  0  0  0
  188.0380  177.0080  143.4660 C   0  0  1  0  0  3  0  0  0  0  0  0
  188.5790  176.0730  142.5810 O   0  0  0  0  0  1  0  0  0  0  0  0
  189.0320  177.3650  144.5820 C   0  0  2  0  0  3  0  0  0  0  0  0
  190.5420  175.5040  143.3470 O   0  0  0  0  0  0  0  0  0  0  0  0
  191.2920  176.2760  145.5480 O   0  0  0  0  0  0  0  0  0  0  0  0
  190.6590  176.6990  144.2520 S   0  0  0  0  0  0  0  0  0  0  0  0
  191.6780  177.9380  143.4680 C   0  0  0  0  0  3  0  0  0  0  0  0
  191.7020  177.7220  141.9680 C   0  0  0  0  0  1  0  0  0  0  0  0
  191.1420  179.3230  143.7720 C   0  0  0  0  0  1  0  0  0  0  0  0
  188.5660  176.9620  145.9750 C   0  0  0  0  0  2  0  0  0  0  0  0
  187.4550  177.8780  146.4460 C   0  0  0  0  0  2  0  0  0  0  0  0
  189.1200  177.9970  148.2690 C   0  0  0  0  0  1  0  0  0  0  0  0
  187.6670  178.2140  147.9070 C   0  0  0  0  0  2  0  0  0  0  0  0
  189.0620  177.7850  139.2890 C   0  0  0  0  0  2  0  0  0  0  0  0
  189.5070  176.3370  139.2370 C   0  0  0  0  0  2  0  0  0  0  0  0
  191.9620  176.1880  138.2060 C   0  0  0  0  0  0  0  0  0  0  0  0
  190.8520  176.2580  138.6710 C   0  0  0  0  0  0  0  0  0  0  0  0
  193.3100  176.1020  137.6440 C   0  0  0  0  0  2  0  0  0  0  0  0
  193.9780  175.0340  138.2110 F   0  0  0  0  0  0  0  0  0  0  0  0
  1 11  1  0  0  0  0
  1  6  1  1  0  0  0
  4 25  1  6  0  0  0
  4  9  1  0  0  0  0
  5  1  1  0  0  0  0
  7  2  1  6  0  0  0
  7  8  1  0  0  0  0
  7  4  1  0  0  0  0
  8 10  1  6  0  0  0
  8  5  1  0  0  0  0
  9  3  1  6  0  0  0
  9 11  1  0  0  0  0
 11 12  1  6  0  0  0
 12 13  1  6  0  0  0
 12 14  1  0  0  0  0
 14 21  1  1  0  0  0
 15 17  2  0  0  0  0
 17 14  1  0  0  0  0
 17 16  2  0  0  0  0
 18 20  1  0  0  0  0
 18 17  1  0  0  0  0
 19 18  1  0  0  0  0
 21 22  1  0  0  0  0
 22 24  1  0  0  0  0
 24 23  1  0  0  0  0
 26 25  1  0  0  0  0
 27 28  3  0  0  0  0
 28 26  1  0  0  0  0
 29 27  1  0  0  0  0
 29 30  1  0  0  0  0
M  END
>  <MODEL>
9

>  <REMARK>
 VINA RESULT:      -6.1      2.876      6.068
  Name = 
  11 active torsions:
  status: ('A' for Active; 'I' for Inactive)
    1  A    between atoms: C_1  and  C_4
    2  A    between atoms: C_1  and  C_29
    3  A    between atoms: C_4  and  C_5
    4  A    between atoms: C_4  and  S_12
    5  A    between atoms: C_5  and  C_21
    6  A    between atoms: C_10  and  C_16
    7  A    between atoms: C_11  and  C_24
    8  A    between atoms: S_12  and  C_13
    9  A    between atoms: C_15  and  C_24
   10  A    between atoms: C_15  and  C_25
   11  A    between atoms: C_17  and  C_21
                            x       y       z     vdW  Elec       q    Type
                         _______ _______ _______ _____ _____    ______ ____

>  <TORSDO>
F 11

$$$$
