=
 OpenBabel11052415153D

 37 41  0  0  1  0  0  0  0  0999 V2000
  184.3950  177.0620  137.1590 C   0  0  2  0  0  3  0  0  0  0  0  0
  184.1460  177.6070  138.5860 C   0  0  2  0  0  3  0  0  0  0  0  0
  182.7610  178.2630  138.7360 C   0  0  2  0  0  3  0  0  0  0  0  0
  181.8670  176.8380  136.8830 C   0  0  0  0  0  2  0  0  0  0  0  0
  183.3540  175.8660  135.1940 C   0  0  0  0  0  1  0  0  0  0  0  0
  183.2250  176.1740  136.6740 C   0  0  1  0  0  3  0  0  0  0  0  0
  181.6830  177.2620  138.3330 C   0  0  0  0  0  2  0  0  0  0  0  0
  180.9520  180.3240  139.8790 C   0  0  0  0  0  3  0  0  0  0  0  0
  181.6880  180.5680  138.5710 C   0  0  2  0  0  0  0  0  0  0  0  0
  183.1780  180.7430  138.7320 C   0  0  0  0  0  2  0  0  0  0  0  0
  181.0360  181.6090  137.7030 C   0  0  0  0  0  2  0  0  0  0  0  0
  178.9840  183.4810  136.8740 C   0  0  0  0  0  1  0  0  0  0  0  0
  178.9310  182.7960  138.1390 N   0  0  0  0  0  0  0  0  0  0  0  0
  179.8400  181.9680  138.5200 C   0  0  0  0  0  0  0  0  0  0  0  0
  182.6350  179.5640  137.9290 C   0  0  1  0  0  3  0  0  0  0  0  0
  179.7410  181.2490  139.8260 C   0  0  0  0  0  3  0  0  0  0  0  0
  187.4470  178.4950  140.5720 C   0  0  2  0  0  3  0  0  0  0  0  0
  187.4020  178.8360  141.9610 O   0  0  0  0  0  0  0  0  0  0  0  0
  186.7470  177.8260  142.7180 C   0  0  0  0  0  2  0  0  0  0  0  0
  185.2250  178.0990  142.8870 C   0  0  2  0  0  3  0  0  0  0  0  0
  184.3880  178.0910  141.5820 C   0  0  0  0  0  2  0  0  0  0  0  0
  185.2590  178.5560  139.0500 C   0  0  1  0  0  3  0  0  0  0  0  0
  185.1120  178.9070  140.5260 C   0  0  2  0  0  3  0  0  0  0  0  0
  186.1390  177.8850  140.0740 C   0  0  2  0  0  3  0  0  0  0  0  0
  184.9180  179.2870  143.8020 C   0  0  0  0  0  2  0  0  0  0  0  0
  185.1040  178.9660  145.2760 C   0  0  0  0  0  1  0  0  0  0  0  0
  189.5570  178.1890  139.2830 C   0  0  0  0  0  1  0  0  0  0  0  0
  188.6030  177.5530  140.2760 C   0  0  0  0  0  2  0  0  0  0  0  0
  185.7530  176.3330  137.1110 C   0  0  2  0  0  3  0  0  0  0  0  0
  186.7460  176.8280  136.0560 C   0  0  2  0  0  3  0  0  0  0  0  0
  188.0200  177.0140  136.5960 O   0  0  0  0  0  1  0  0  0  0  0  0
  186.2590  178.1280  135.4460 C   0  0  0  0  0  1  0  0  0  0  0  0
  185.7690  174.8400  137.4630 C   0  0  0  0  0  2  0  0  0  0  0  0
  186.6710  174.0230  136.5520 C   0  0  0  0  0  2  0  0  0  0  0  0
  185.8410  173.0890  135.6890 C   0  0  0  0  0  2  0  0  0  0  0  0
  184.7070  172.5610  136.4500 C   0  0  0  0  0  0  0  0  0  0  0  0
  183.7710  172.1260  137.0760 C   0  0  0  0  0  3  0  0  0  0  0  0
  1 29  1  1  0  0  0
  1  2  1  0  0  0  0
  2  3  1  0  0  0  0
  2 22  1  6  0  0  0
  3  7  1  6  0  0  0
  4  7  1  0  0  0  0
  6  5  1  6  0  0  0
  6  4  1  0  0  0  0
  6  1  1  0  0  0  0
  9 11  1  6  0  0  0
  9 10  1  0  0  0  0
  9  8  1  0  0  0  0
 11 14  1  0  0  0  0
 12 13  1  0  0  0  0
 13 14  2  0  0  0  0
 14 16  1  0  0  0  0
 15  9  1  0  0  0  0
 15 10  1  1  0  0  0
 15  3  1  0  0  0  0
 16  8  2  0  0  0  0
 17 28  1  1  0  0  0
 17 18  1  0  0  0  0
 18 19  1  0  0  0  0
 19 20  1  0  0  0  0
 20 25  1  6  0  0  0
 21 20  1  0  0  0  0
 22 24  1  0  0  0  0
 22 23  1  0  0  0  0
 23 21  1  0  0  0  0
 24 23  1  0  0  0  0
 24 17  1  0  0  0  0
 25 26  1  0  0  0  0
 27 28  1  0  0  0  0
 29 33  1  0  0  0  0
 30 31  1  0  0  0  0
 30 29  1  0  0  0  0
 32 30  1  0  0  0  0
 34 33  1  0  0  0  0
 35 36  1  0  0  0  0
 35 34  1  0  0  0  0
 36 37  3  0  0  0  0
M  END
>  <MODEL>
1

>  <REMARK>
 VINA RESULT:      -4.9      0.000      0.000
  Name = 
  10 active torsions:
  status: ('A' for Active; 'I' for Inactive)
    1  A    between atoms: C_1  and  C_23
    2  A    between atoms: C_3  and  C_30
    3  A    between atoms: C_4  and  C_13
    4  A    between atoms: C_9  and  C_13
    5  A    between atoms: C_9  and  C_16
    6  A    between atoms: C_10  and  C_29
    7  A    between atoms: C_11  and  C_26
    8  A    between atoms: C_13  and  C_20
    9  A    between atoms: C_14  and  C_31
   10  A    between atoms: C_16  and  C_30
                            x       y       z     vdW  Elec       q    Type
                         _______ _______ _______ _____ _____    ______ ____

>  <TORSDO>
F 10

$$$$
=
 OpenBabel11052415153D

 37 41  0  0  1  0  0  0  0  0999 V2000
  185.6720  177.5610  137.4780 C   0  0  2  0  0  3  0  0  0  0  0  0
  185.0220  177.7960  138.8630 C   0  0  2  0  0  3  0  0  0  0  0  0
  183.5130  178.0860  138.7650 C   0  0  2  0  0  3  0  0  0  0  0  0
  183.3900  176.8140  136.6130 C   0  0  0  0  0  2  0  0  0  0  0  0
  185.3740  176.4940  135.2100 C   0  0  0  0  0  1  0  0  0  0  0  0
  184.8870  176.5200  136.6470 C   0  0  1  0  0  3  0  0  0  0  0  0
  182.8260  176.9450  138.0210 C   0  0  0  0  0  2  0  0  0  0  0  0
  180.6470  178.8630  138.6410 C   0  0  0  0  0  3  0  0  0  0  0  0
  181.7280  179.7650  138.0640 C   0  0  2  0  0  0  0  0  0  0  0  0
  182.6080  180.4070  139.1090 C   0  0  0  0  0  2  0  0  0  0  0  0
  181.2170  180.7170  137.0190 C   0  0  0  0  0  2  0  0  0  0  0  0
  179.2990  181.8750  135.1790 C   0  0  0  0  0  1  0  0  0  0  0  0
  178.9340  180.8490  136.1220 N   0  0  0  0  0  0  0  0  0  0  0  0
  179.7770  180.3340  136.9480 C   0  0  0  0  0  0  0  0  0  0  0  0
  183.2140  179.4380  138.0980 C   0  0  1  0  0  3  0  0  0  0  0  0
  179.3760  179.2490  137.8940 C   0  0  0  0  0  3  0  0  0  0  0  0
  187.4010  179.0840  141.7450 C   0  0  2  0  0  3  0  0  0  0  0  0
  186.9130  179.2630  143.0780 O   0  0  0  0  0  0  0  0  0  0  0  0
  186.3080  178.0730  143.5690 C   0  0  0  0  0  2  0  0  0  0  0  0
  184.7750  178.0330  143.3120 C   0  0  2  0  0  3  0  0  0  0  0  0
  184.3410  178.0030  141.8230 C   0  0  0  0  0  2  0  0  0  0  0  0
  185.7410  178.8860  139.6680 C   0  0  1  0  0  3  0  0  0  0  0  0
  185.1320  179.0460  141.0560 C   0  0  2  0  0  3  0  0  0  0  0  0
  186.4350  178.2910  140.8680 C   0  0  2  0  0  3  0  0  0  0  0  0
  183.9890  179.0390  144.1560 C   0  0  0  0  0  2  0  0  0  0  0  0
  182.5060  179.0610  143.8250 C   0  0  0  0  0  1  0  0  0  0  0  0
  188.7500  177.1870  140.8570 C   0  0  0  0  0  1  0  0  0  0  0  0
  188.7660  178.4150  141.7470 C   0  0  0  0  0  2  0  0  0  0  0  0
  187.1550  177.1780  137.6600 C   0  0  2  0  0  3  0  0  0  0  0  0
  188.1800  178.1700  137.1050 C   0  0  2  0  0  3  0  0  0  0  0  0
  188.5810  179.0930  138.0730 O   0  0  0  0  0  1  0  0  0  0  0  0
  187.6030  178.9070  135.9110 C   0  0  0  0  0  1  0  0  0  0  0  0
  187.5130  175.6870  137.6240 C   0  0  0  0  0  2  0  0  0  0  0  0
  188.4260  175.3210  136.4650 C   0  0  0  0  0  2  0  0  0  0  0  0
  189.5880  174.4770  136.9570 C   0  0  0  0  0  2  0  0  0  0  0  0
  190.5770  175.3140  137.6400 C   0  0  0  0  0  0  0  0  0  0  0  0
  191.3900  176.0060  138.2020 C   0  0  0  0  0  3  0  0  0  0  0  0
  1 29  1  1  0  0  0
  1  2  1  0  0  0  0
  2 22  1  6  0  0  0
  3  7  1  6  0  0  0
  3  2  1  0  0  0  0
  4  6  1  0  0  0  0
  4  7  1  0  0  0  0
  6  5  1  6  0  0  0
  6  1  1  0  0  0  0
  9 11  1  6  0  0  0
  9 15  1  0  0  0  0
  9  8  1  0  0  0  0
  9 10  1  0  0  0  0
 12 13  1  0  0  0  0
 13 14  2  0  0  0  0
 14 11  1  0  0  0  0
 14 16  1  0  0  0  0
 15  3  1  0  0  0  0
 15 10  1  1  0  0  0
 16  8  2  0  0  0  0
 17 28  1  1  0  0  0
 17 18  1  0  0  0  0
 18 19  1  0  0  0  0
 20 19  1  0  0  0  0
 20 25  1  6  0  0  0
 21 20  1  0  0  0  0
 22 24  1  0  0  0  0
 22 23  1  0  0  0  0
 23 21  1  0  0  0  0
 24 23  1  0  0  0  0
 24 17  1  0  0  0  0
 26 25  1  0  0  0  0
 27 28  1  0  0  0  0
 30 29  1  0  0  0  0
 30 31  1  0  0  0  0
 32 30  1  0  0  0  0
 33 29  1  0  0  0  0
 34 35  1  0  0  0  0
 34 33  1  0  0  0  0
 35 36  1  0  0  0  0
 36 37  3  0  0  0  0
M  END
>  <MODEL>
2

>  <REMARK>
 VINA RESULT:      -4.4      1.849      2.510
  Name = 
  10 active torsions:
  status: ('A' for Active; 'I' for Inactive)
    1  A    between atoms: C_1  and  C_23
    2  A    between atoms: C_3  and  C_30
    3  A    between atoms: C_4  and  C_13
    4  A    between atoms: C_9  and  C_13
    5  A    between atoms: C_9  and  C_16
    6  A    between atoms: C_10  and  C_29
    7  A    between atoms: C_11  and  C_26
    8  A    between atoms: C_13  and  C_20
    9  A    between atoms: C_14  and  C_31
   10  A    between atoms: C_16  and  C_30
                            x       y       z     vdW  Elec       q    Type
                         _______ _______ _______ _____ _____    ______ ____

>  <TORSDO>
F 10

$$$$
=
 OpenBabel11052415153D

 37 41  0  0  1  0  0  0  0  0999 V2000
  191.8850  175.5910  138.2160 C   0  0  2  0  0  3  0  0  0  0  0  0
  190.6280  176.4580  138.4700 C   0  0  2  0  0  3  0  0  0  0  0  0
  190.6710  177.1760  139.8320 C   0  0  2  0  0  3  0  0  0  0  0  0
  193.1730  177.1230  139.8000 C   0  0  0  0  0  2  0  0  0  0  0  0
  194.3940  175.4660  138.4700 C   0  0  0  0  0  1  0  0  0  0  0  0
  193.1870  176.3870  138.4640 C   0  0  1  0  0  3  0  0  0  0  0  0
  191.9430  178.0130  139.9210 C   0  0  0  0  0  2  0  0  0  0  0  0
  190.5330  178.4230  142.5250 C   0  0  0  0  0  3  0  0  0  0  0  0
  190.5080  176.9120  142.3610 C   0  0  2  0  0  0  0  0  0  0  0  0
  189.2360  176.3870  141.7400 C   0  0  0  0  0  2  0  0  0  0  0  0
  190.9440  176.1690  143.5940 C   0  0  0  0  0  2  0  0  0  0  0  0
  192.0310  175.8400  146.2610 C   0  0  0  0  0  1  0  0  0  0  0  0
  191.7670  177.1380  145.6950 N   0  0  0  0  0  0  0  0  0  0  0  0
  191.2780  177.2940  144.5150 C   0  0  0  0  0  0  0  0  0  0  0  0
  190.5660  176.2020  141.0160 C   0  0  1  0  0  3  0  0  0  0  0  0
  191.0450  178.6550  143.9420 C   0  0  0  0  0  3  0  0  0  0  0  0
  187.3390  175.3930  136.5520 C   0  0  2  0  0  3  0  0  0  0  0  0
  186.1440  176.1720  136.6520 O   0  0  0  0  0  0  0  0  0  0  0  0
  186.3830  177.5290  136.3000 C   0  0  0  0  0  2  0  0  0  0  0  0
  186.7290  178.4140  137.5310 C   0  0  2  0  0  3  0  0  0  0  0  0
  188.0440  178.0550  138.2720 C   0  0  0  0  0  2  0  0  0  0  0  0
  189.3280  175.6600  138.3090 C   0  0  1  0  0  3  0  0  0  0  0  0
  188.1030  176.5520  138.4750 C   0  0  2  0  0  3  0  0  0  0  0  0
  188.5640  176.1250  137.0940 C   0  0  2  0  0  3  0  0  0  0  0  0
  185.5420  178.6400  138.4720 C   0  0  0  0  0  2  0  0  0  0  0  0
  185.9430  178.6680  139.9370 C   0  0  0  0  0  1  0  0  0  0  0  0
  187.7680  173.4500  135.0540 C   0  0  0  0  0  1  0  0  0  0  0  0
  187.5900  174.9550  135.1180 C   0  0  0  0  0  2  0  0  0  0  0  0
  191.8200  174.9860  136.7990 C   0  0  2  0  0  3  0  0  0  0  0  0
  191.7250  175.9850  135.6430 C   0  0  2  0  0  3  0  0  0  0  0  0
  190.7610  175.6010  134.7090 O   0  0  0  0  0  1  0  0  0  0  0  0
  193.0700  176.1220  134.9570 C   0  0  0  0  0  1  0  0  0  0  0  0
  191.1090  173.6360  136.6360 C   0  0  0  0  0  2  0  0  0  0  0  0
  191.9070  172.6370  135.8150 C   0  0  0  0  0  2  0  0  0  0  0  0
  193.2680  172.4040  136.4480 C   0  0  0  0  0  2  0  0  0  0  0  0
  194.3360  172.7570  135.5110 C   0  0  0  0  0  0  0  0  0  0  0  0
  195.2180  173.0500  134.7410 C   0  0  0  0  0  3  0  0  0  0  0  0
  1 29  1  6  0  0  0
  1  6  1  0  0  0  0
  1  2  1  0  0  0  0
  2 22  1  1  0  0  0
  2  3  1  0  0  0  0
  3  7  1  1  0  0  0
  3 15  1  0  0  0  0
  4  7  1  0  0  0  0
  6  5  1  1  0  0  0
  6  4  1  0  0  0  0
  8 16  2  0  0  0  0
  9 10  1  1  0  0  0
  9  8  1  0  0  0  0
  9 11  1  0  0  0  0
 11 14  1  0  0  0  0
 13 12  1  0  0  0  0
 14 13  2  0  0  0  0
 15 10  1  6  0  0  0
 15  9  1  0  0  0  0
 16 14  1  0  0  0  0
 17 28  1  6  0  0  0
 17 18  1  0  0  0  0
 17 24  1  0  0  0  0
 19 18  1  0  0  0  0
 19 20  1  0  0  0  0
 20 21  1  0  0  0  0
 20 25  1  1  0  0  0
 21 23  1  0  0  0  0
 22 23  1  0  0  0  0
 24 22  1  0  0  0  0
 24 23  1  0  0  0  0
 25 26  1  0  0  0  0
 27 28  1  0  0  0  0
 30 29  1  0  0  0  0
 31 30  1  0  0  0  0
 32 30  1  0  0  0  0
 33 29  1  0  0  0  0
 34 35  1  0  0  0  0
 34 33  1  0  0  0  0
 36 35  1  0  0  0  0
 37 36  3  0  0  0  0
M  END
>  <MODEL>
3

>  <REMARK>
 VINA RESULT:      -4.2      4.785      8.870
  Name = 
  10 active torsions:
  status: ('A' for Active; 'I' for Inactive)
    1  A    between atoms: C_1  and  C_23
    2  A    between atoms: C_3  and  C_30
    3  A    between atoms: C_4  and  C_13
    4  A    between atoms: C_9  and  C_13
    5  A    between atoms: C_9  and  C_16
    6  A    between atoms: C_10  and  C_29
    7  A    between atoms: C_11  and  C_26
    8  A    between atoms: C_13  and  C_20
    9  A    between atoms: C_14  and  C_31
   10  A    between atoms: C_16  and  C_30
                            x       y       z     vdW  Elec       q    Type
                         _______ _______ _______ _____ _____    ______ ____

>  <TORSDO>
F 10

$$$$
=
 OpenBabel11052415153D

 37 41  0  0  1  0  0  0  0  0999 V2000
  184.0750  175.0380  136.3570 C   0  0  2  0  0  3  0  0  0  0  0  0
  183.9010  176.4830  136.8830 C   0  0  2  0  0  3  0  0  0  0  0  0
  185.2130  177.2890  136.8400 C   0  0  2  0  0  3  0  0  0  0  0  0
  186.0510  175.8590  134.9650 C   0  0  0  0  0  2  0  0  0  0  0  0
  185.1820  173.5960  134.6030 C   0  0  0  0  0  1  0  0  0  0  0  0
  184.7830  175.0110  134.9820 C   0  0  1  0  0  3  0  0  0  0  0  0
  185.7620  177.2840  135.4170 C   0  0  0  0  0  2  0  0  0  0  0  0
  187.9190  178.4970  136.6280 C   0  0  0  0  0  3  0  0  0  0  0  0
  187.6200  177.4250  137.6640 C   0  0  2  0  0  0  0  0  0  0  0  0
  186.7060  177.8870  138.7730 C   0  0  0  0  0  2  0  0  0  0  0  0
  188.8460  176.6950  138.1400 C   0  0  0  0  0  2  0  0  0  0  0  0
  191.6390  175.9250  138.1800 C   0  0  0  0  0  1  0  0  0  0  0  0
  191.1490  176.9850  137.3390 N   0  0  0  0  0  0  0  0  0  0  0  0
  189.9110  177.3390  137.3190 C   0  0  0  0  0  0  0  0  0  0  0  0
  186.2580  176.7680  137.8370 C   0  0  1  0  0  3  0  0  0  0  0  0
  189.4260  178.4230  136.4110 C   0  0  0  0  0  3  0  0  0  0  0  0
  180.8600  176.4200  139.4070 C   0  0  2  0  0  3  0  0  0  0  0  0
  180.1190  177.6080  139.6970 O   0  0  0  0  0  0  0  0  0  0  0  0
  179.6300  178.2130  138.5070 C   0  0  0  0  0  2  0  0  0  0  0  0
  180.5990  179.2900  137.9420 C   0  0  2  0  0  3  0  0  0  0  0  0
  181.9840  178.7720  137.4730 C   0  0  0  0  0  2  0  0  0  0  0  0
  183.2750  176.5230  138.2830 C   0  0  1  0  0  3  0  0  0  0  0  0
  182.5450  177.8380  138.5290 C   0  0  2  0  0  3  0  0  0  0  0  0
  181.7710  176.5770  138.1920 C   0  0  2  0  0  3  0  0  0  0  0  0
  180.6790  180.5500  138.8070 C   0  0  0  0  0  2  0  0  0  0  0  0
  181.7480  181.5240  138.3390 C   0  0  0  0  0  1  0  0  0  0  0  0
  179.3600  174.7860  140.5410 C   0  0  0  0  0  1  0  0  0  0  0  0
  179.9340  175.2310  139.2090 C   0  0  0  0  0  2  0  0  0  0  0  0
  182.7070  174.3260  136.3350 C   0  0  2  0  0  3  0  0  0  0  0  0
  182.5490  173.1410  137.2910 C   0  0  2  0  0  3  0  0  0  0  0  0
  183.5980  172.2290  137.1580 O   0  0  0  0  0  1  0  0  0  0  0  0
  181.2290  172.4370  137.0400 C   0  0  0  0  0  1  0  0  0  0  0  0
  181.9590  174.2680  134.9960 C   0  0  0  0  0  2  0  0  0  0  0  0
  180.7420  175.1770  134.9550 C   0  0  0  0  0  2  0  0  0  0  0  0
  181.1540  176.5930  134.5940 C   0  0  0  0  0  2  0  0  0  0  0  0
  179.9980  177.4900  134.6390 C   0  0  0  0  0  0  0  0  0  0  0  0
  179.0470  178.2320  134.6760 C   0  0  0  0  0  3  0  0  0  0  0  0
  1 29  1  6  0  0  0
  1  2  1  0  0  0  0
  2 22  1  1  0  0  0
  3  7  1  6  0  0  0
  3  2  1  0  0  0  0
  3 15  1  0  0  0  0
  4  6  1  0  0  0  0
  4  7  1  0  0  0  0
  6  5  1  1  0  0  0
  6  1  1  0  0  0  0
  9  8  1  6  0  0  0
  9 15  1  0  0  0  0
  9 11  1  0  0  0  0
  9 10  1  0  0  0  0
 13 12  1  0  0  0  0
 14 13  2  0  0  0  0
 14 11  1  0  0  0  0
 15 10  1  1  0  0  0
 16  8  2  0  0  0  0
 16 14  1  0  0  0  0
 17 28  1  6  0  0  0
 17 18  1  0  0  0  0
 19 18  1  0  0  0  0
 20 19  1  0  0  0  0
 20 25  1  1  0  0  0
 21 20  1  0  0  0  0
 21 23  1  0  0  0  0
 22 23  1  0  0  0  0
 24 22  1  0  0  0  0
 24 23  1  0  0  0  0
 24 17  1  0  0  0  0
 26 25  1  0  0  0  0
 28 27  1  0  0  0  0
 29 30  1  0  0  0  0
 31 30  1  0  0  0  0
 32 30  1  0  0  0  0
 33 29  1  0  0  0  0
 34 33  1  0  0  0  0
 35 36  1  0  0  0  0
 35 34  1  0  0  0  0
 36 37  3  0  0  0  0
M  END
>  <MODEL>
4

>  <REMARK>
 VINA RESULT:      -4.0      3.648      7.203
  Name = 
  10 active torsions:
  status: ('A' for Active; 'I' for Inactive)
    1  A    between atoms: C_1  and  C_23
    2  A    between atoms: C_3  and  C_30
    3  A    between atoms: C_4  and  C_13
    4  A    between atoms: C_9  and  C_13
    5  A    between atoms: C_9  and  C_16
    6  A    between atoms: C_10  and  C_29
    7  A    between atoms: C_11  and  C_26
    8  A    between atoms: C_13  and  C_20
    9  A    between atoms: C_14  and  C_31
   10  A    between atoms: C_16  and  C_30
                            x       y       z     vdW  Elec       q    Type
                         _______ _______ _______ _____ _____    ______ ____

>  <TORSDO>
F 10

$$$$
=
 OpenBabel11052415153D

 37 41  0  0  1  0  0  0  0  0999 V2000
  190.4750  176.7840  138.4450 C   0  0  2  0  0  3  0  0  0  0  0  0
  190.2640  175.5580  137.5240 C   0  0  2  0  0  3  0  0  0  0  0  0
  191.5790  175.0500  136.9050 C   0  0  2  0  0  3  0  0  0  0  0  0
  192.8690  175.9880  138.8330 C   0  0  0  0  0  2  0  0  0  0  0  0
  191.9750  177.8220  140.1910 C   0  0  0  0  0  1  0  0  0  0  0  0
  191.5990  176.5360  139.4780 C   0  0  1  0  0  3  0  0  0  0  0  0
  192.5730  174.7360  138.0180 C   0  0  0  0  0  2  0  0  0  0  0  0
  194.4040  174.5600  136.1260 C   0  0  0  0  0  3  0  0  0  0  0  0
  193.6260  175.7320  135.5490 C   0  0  2  0  0  0  0  0  0  0  0  0
  192.5300  175.3260  134.5940 C   0  0  0  0  0  2  0  0  0  0  0  0
  194.5050  176.8420  135.0430 C   0  0  0  0  0  2  0  0  0  0  0  0
  196.9760  178.2890  134.5940 C   0  0  0  0  0  1  0  0  0  0  0  0
  196.9540  176.9710  135.1740 N   0  0  0  0  0  0  0  0  0  0  0  0
  195.8620  176.3180  135.3710 C   0  0  0  0  0  0  0  0  0  0  0  0
  192.1760  176.0410  135.8940 C   0  0  1  0  0  3  0  0  0  0  0  0
  195.8690  174.9640  136.0040 C   0  0  0  0  0  3  0  0  0  0  0  0
  186.5850  175.5070  136.0770 C   0  0  2  0  0  3  0  0  0  0  0  0
  186.0490  174.3280  135.4710 O   0  0  0  0  0  0  0  0  0  0  0  0
  186.1430  173.2110  136.3460 C   0  0  0  0  0  2  0  0  0  0  0  0
  187.4470  172.3910  136.1300 C   0  0  2  0  0  3  0  0  0  0  0  0
  188.7710  173.1350  136.4430 C   0  0  0  0  0  2  0  0  0  0  0  0
  189.2080  175.8170  136.4420 C   0  0  1  0  0  3  0  0  0  0  0  0
  188.7230  174.5150  135.8140 C   0  0  2  0  0  3  0  0  0  0  0  0
  187.8760  175.2370  136.8460 C   0  0  2  0  0  3  0  0  0  0  0  0
  187.4740  171.6290  134.8020 C   0  0  0  0  0  2  0  0  0  0  0  0
  188.6200  170.6360  134.7120 C   0  0  0  0  0  1  0  0  0  0  0  0
  184.6070  177.0180  136.1830 C   0  0  0  0  0  1  0  0  0  0  0  0
  185.5650  176.1650  136.9930 C   0  0  0  0  0  2  0  0  0  0  0  0
  189.1370  177.1730  139.1060 C   0  0  2  0  0  3  0  0  0  0  0  0
  188.5680  178.5410  138.7210 C   0  0  2  0  0  3  0  0  0  0  0  0
  187.1840  178.4920  138.5480 O   0  0  0  0  0  1  0  0  0  0  0  0
  189.2210  179.0400  137.4460 C   0  0  0  0  0  1  0  0  0  0  0  0
  188.8760  176.6670  140.5310 C   0  0  0  0  0  2  0  0  0  0  0  0
  188.6760  177.7900  141.5350 C   0  0  0  0  0  2  0  0  0  0  0  0
  188.6910  177.2400  142.9500 C   0  0  0  0  0  2  0  0  0  0  0  0
  189.9050  176.4530  143.1810 C   0  0  0  0  0  0  0  0  0  0  0  0
  190.9060  175.8080  143.3710 C   0  0  0  0  0  3  0  0  0  0  0  0
  1 29  1  1  0  0  0
  1  6  1  0  0  0  0
  2 22  1  6  0  0  0
  2  1  1  0  0  0  0
  3  2  1  0  0  0  0
  3  7  1  1  0  0  0
  4  6  1  0  0  0  0
  6  5  1  6  0  0  0
  7  4  1  0  0  0  0
  9 10  1  6  0  0  0
  9 15  1  0  0  0  0
  9  8  1  0  0  0  0
 11 14  1  0  0  0  0
 11  9  1  0  0  0  0
 12 13  1  0  0  0  0
 13 14  2  0  0  0  0
 14 16  1  0  0  0  0
 15 10  1  6  0  0  0
 15  3  1  0  0  0  0
 16  8  2  0  0  0  0
 17 24  1  0  0  0  0
 17 28  1  1  0  0  0
 18 17  1  0  0  0  0
 18 19  1  0  0  0  0
 20 25  1  6  0  0  0
 20 19  1  0  0  0  0
 20 21  1  0  0  0  0
 22 24  1  0  0  0  0
 23 22  1  0  0  0  0
 23 21  1  0  0  0  0
 23 24  1  0  0  0  0
 26 25  1  0  0  0  0
 27 28  1  0  0  0  0
 29 33  1  0  0  0  0
 30 29  1  0  0  0  0
 31 30  1  0  0  0  0
 32 30  1  0  0  0  0
 33 34  1  0  0  0  0
 34 35  1  0  0  0  0
 35 36  1  0  0  0  0
 36 37  3  0  0  0  0
M  END
>  <MODEL>
5

>  <REMARK>
 VINA RESULT:      -4.0      5.061     10.389
  Name = 
  10 active torsions:
  status: ('A' for Active; 'I' for Inactive)
    1  A    between atoms: C_1  and  C_23
    2  A    between atoms: C_3  and  C_30
    3  A    between atoms: C_4  and  C_13
    4  A    between atoms: C_9  and  C_13
    5  A    between atoms: C_9  and  C_16
    6  A    between atoms: C_10  and  C_29
    7  A    between atoms: C_11  and  C_26
    8  A    between atoms: C_13  and  C_20
    9  A    between atoms: C_14  and  C_31
   10  A    between atoms: C_16  and  C_30
                            x       y       z     vdW  Elec       q    Type
                         _______ _______ _______ _____ _____    ______ ____

>  <TORSDO>
F 10

$$$$
=
 OpenBabel11052415153D

 37 41  0  0  1  0  0  0  0  0999 V2000
  186.5870  177.9070  139.5110 C   0  0  2  0  0  3  0  0  0  0  0  0
  186.2580  178.4440  140.9250 C   0  0  2  0  0  3  0  0  0  0  0  0
  187.4840  178.4480  141.8560 C   0  0  2  0  0  3  0  0  0  0  0  0
  189.0070  178.6320  139.8790 C   0  0  0  0  0  2  0  0  0  0  0  0
  188.2960  177.8950  137.6520 C   0  0  0  0  0  1  0  0  0  0  0  0
  187.8290  178.6050  138.9090 C   0  0  1  0  0  3  0  0  0  0  0  0
  188.6070  179.2530  141.2100 C   0  0  0  0  0  2  0  0  0  0  0  0
  189.3370  178.2470  144.1710 C   0  0  0  0  0  3  0  0  0  0  0  0
  188.9070  177.0070  143.4020 C   0  0  2  0  0  0  0  0  0  0  0  0
  187.4580  176.6370  143.6020 C   0  0  0  0  0  2  0  0  0  0  0  0
  189.8620  175.8540  143.5470 C   0  0  0  0  0  2  0  0  0  0  0  0
  192.2940  174.4930  144.3430 C   0  0  0  0  0  1  0  0  0  0  0  0
  192.0030  175.8430  144.7500 N   0  0  0  0  0  0  0  0  0  0  0  0
  190.9230  176.4530  144.4080 C   0  0  0  0  0  0  0  0  0  0  0  0
  187.9570  177.0310  142.2140 C   0  0  1  0  0  3  0  0  0  0  0  0
  190.6620  177.8660  144.8200 C   0  0  0  0  0  3  0  0  0  0  0  0
  182.6770  178.2550  142.5890 C   0  0  2  0  0  3  0  0  0  0  0  0
  182.4990  178.5140  143.9840 O   0  0  0  0  0  0  0  0  0  0  0  0
  183.0340  179.7820  144.3450 C   0  0  0  0  0  2  0  0  0  0  0  0
  184.5070  179.6910  144.8350 C   0  0  2  0  0  3  0  0  0  0  0  0
  185.5400  179.2130  143.7820 C   0  0  0  0  0  2  0  0  0  0  0  0
  185.0780  177.7050  141.5690 C   0  0  1  0  0  3  0  0  0  0  0  0
  184.9870  177.9970  143.0620 C   0  0  2  0  0  3  0  0  0  0  0  0
  184.0520  178.6830  142.0830 C   0  0  2  0  0  3  0  0  0  0  0  0
  184.6550  179.0000  146.1930 C   0  0  0  0  0  2  0  0  0  0  0  0
  186.0900  178.6100  146.5060 C   0  0  0  0  0  1  0  0  0  0  0  0
  180.7300  177.8780  141.0820 C   0  0  0  0  0  1  0  0  0  0  0  0
  181.5900  178.9240  141.7640 C   0  0  0  0  0  2  0  0  0  0  0  0
  185.3430  178.0270  138.6070 C   0  0  2  0  0  3  0  0  0  0  0  0
  185.1410  176.9040  137.5870 C   0  0  2  0  0  3  0  0  0  0  0  0
  185.0730  177.4000  136.2840 O   0  0  0  0  0  1  0  0  0  0  0  0
  183.8750  176.1310  137.9030 C   0  0  0  0  0  1  0  0  0  0  0  0
  184.8830  179.4380  138.2170 C   0  0  0  0  0  2  0  0  0  0  0  0
  183.6410  179.8890  138.9690 C   0  0  0  0  0  2  0  0  0  0  0  0
  182.3920  179.5380  138.1790 C   0  0  0  0  0  2  0  0  0  0  0  0
  181.3840  180.5910  138.3210 C   0  0  0  0  0  0  0  0  0  0  0  0
  180.5540  181.4580  138.4400 C   0  0  0  0  0  3  0  0  0  0  0  0
  1 29  1  6  0  0  0
  1  2  1  0  0  0  0
  2 22  1  1  0  0  0
  2  3  1  0  0  0  0
  3  7  1  6  0  0  0
  3 15  1  0  0  0  0
  4  7  1  0  0  0  0
  6  5  1  6  0  0  0
  6  1  1  0  0  0  0
  6  4  1  0  0  0  0
  8 16  2  0  0  0  0
  9 11  1  1  0  0  0
  9 10  1  0  0  0  0
  9  8  1  0  0  0  0
 11 14  1  0  0  0  0
 12 13  1  0  0  0  0
 14 13  2  0  0  0  0
 14 16  1  0  0  0  0
 15  9  1  0  0  0  0
 15 10  1  1  0  0  0
 17 28  1  6  0  0  0
 17 18  1  0  0  0  0
 18 19  1  0  0  0  0
 19 20  1  0  0  0  0
 20 25  1  1  0  0  0
 21 20  1  0  0  0  0
 22 24  1  0  0  0  0
 22 23  1  0  0  0  0
 23 21  1  0  0  0  0
 24 17  1  0  0  0  0
 24 23  1  0  0  0  0
 25 26  1  0  0  0  0
 27 28  1  0  0  0  0
 30 32  1  0  0  0  0
 30 29  1  0  0  0  0
 31 30  1  0  0  0  0
 33 29  1  0  0  0  0
 33 34  1  0  0  0  0
 35 36  1  0  0  0  0
 35 34  1  0  0  0  0
 36 37  3  0  0  0  0
M  END
>  <MODEL>
6

>  <REMARK>
 VINA RESULT:      -4.0      3.541      7.717
  Name = 
  10 active torsions:
  status: ('A' for Active; 'I' for Inactive)
    1  A    between atoms: C_1  and  C_23
    2  A    between atoms: C_3  and  C_30
    3  A    between atoms: C_4  and  C_13
    4  A    between atoms: C_9  and  C_13
    5  A    between atoms: C_9  and  C_16
    6  A    between atoms: C_10  and  C_29
    7  A    between atoms: C_11  and  C_26
    8  A    between atoms: C_13  and  C_20
    9  A    between atoms: C_14  and  C_31
   10  A    between atoms: C_16  and  C_30
                            x       y       z     vdW  Elec       q    Type
                         _______ _______ _______ _____ _____    ______ ____

>  <TORSDO>
F 10

$$$$
=
 OpenBabel11052415153D

 37 41  0  0  1  0  0  0  0  0999 V2000
  186.3090  178.0240  144.9140 C   0  0  2  0  0  3  0  0  0  0  0  0
  186.8150  178.3040  143.4780 C   0  0  2  0  0  3  0  0  0  0  0  0
  185.7110  178.8620  142.5610 C   0  0  2  0  0  3  0  0  0  0  0  0
  184.5090  179.7950  144.5480 C   0  0  0  0  0  2  0  0  0  0  0  0
  184.8470  178.8700  146.7920 C   0  0  0  0  0  1  0  0  0  0  0  0
  185.5600  179.2410  145.5040 C   0  0  1  0  0  3  0  0  0  0  0  0
  185.1190  180.1190  143.1910 C   0  0  0  0  0  2  0  0  0  0  0  0
  183.8310  179.5670  140.3700 C   0  0  0  0  0  3  0  0  0  0  0  0
  183.6880  178.2590  141.1330 C   0  0  2  0  0  0  0  0  0  0  0  0
  184.7880  177.2650  140.8520 C   0  0  0  0  0  2  0  0  0  0  0  0
  182.3020  177.6790  141.0700 C   0  0  0  0  0  2  0  0  0  0  0  0
  179.4710  177.6050  140.4510 C   0  0  0  0  0  1  0  0  0  0  0  0
  180.3270  178.6720  140.0010 N   0  0  0  0  0  0  0  0  0  0  0  0
  181.5860  178.7110  140.2650 C   0  0  0  0  0  0  0  0  0  0  0  0
  184.6160  177.8270  142.2600 C   0  0  1  0  0  3  0  0  0  0  0  0
  182.4420  179.8490  139.8110 C   0  0  0  0  0  3  0  0  0  0  0  0
  189.8850  176.3490  141.9370 C   0  0  2  0  0  3  0  0  0  0  0  0
  190.2410  176.5040  140.5610 O   0  0  0  0  0  0  0  0  0  0  0  0
  190.4420  177.8730  140.2320 C   0  0  0  0  0  2  0  0  0  0  0  0
  189.1530  178.5520  139.6870 C   0  0  2  0  0  3  0  0  0  0  0  0
  187.9680  178.6480  140.6820 C   0  0  0  0  0  2  0  0  0  0  0  0
  187.4880  177.0780  142.8480 C   0  0  1  0  0  3  0  0  0  0  0  0
  187.7910  177.3070  141.3710 C   0  0  2  0  0  3  0  0  0  0  0  0
  188.8930  177.4080  142.4110 C   0  0  2  0  0  3  0  0  0  0  0  0
  188.7450  178.0540  138.2980 C   0  0  0  0  0  2  0  0  0  0  0  0
  189.0540  179.0520  137.1940 C   0  0  0  0  0  1  0  0  0  0  0  0
  191.6800  177.7650  142.9270 C   0  0  0  0  0  1  0  0  0  0  0  0
  191.1180  176.3590  142.8270 C   0  0  0  0  0  2  0  0  0  0  0  0
  187.4860  177.5650  145.7990 C   0  0  2  0  0  3  0  0  0  0  0  0
  187.2330  177.5620  147.3080 C   0  0  2  0  0  3  0  0  0  0  0  0
  187.8330  178.6570  147.9330 O   0  0  0  0  0  1  0  0  0  0  0  0
  187.7540  176.2780  147.9250 C   0  0  0  0  0  1  0  0  0  0  0  0
  188.9060  177.8870  145.3130 C   0  0  0  0  0  2  0  0  0  0  0  0
  189.9260  176.8340  145.7150 C   0  0  0  0  0  2  0  0  0  0  0  0
  190.9540  177.4310  146.6590 C   0  0  0  0  0  2  0  0  0  0  0  0
  191.7640  176.3740  147.2690 C   0  0  0  0  0  0  0  0  0  0  0  0
  192.4320  175.5030  147.7690 C   0  0  0  0  0  3  0  0  0  0  0  0
  1  6  1  0  0  0  0
  1 29  1  1  0  0  0
  2 22  1  6  0  0  0
  2  1  1  0  0  0  0
  3  7  1  1  0  0  0
  3  2  1  0  0  0  0
  4  6  1  0  0  0  0
  6  5  1  1  0  0  0
  7  4  1  0  0  0  0
  9  8  1  6  0  0  0
  9 15  1  0  0  0  0
 10  9  1  0  0  0  0
 11  9  1  0  0  0  0
 13 14  2  0  0  0  0
 13 12  1  0  0  0  0
 14 11  1  0  0  0  0
 15 10  1  6  0  0  0
 15  3  1  0  0  0  0
 16 14  1  0  0  0  0
 16  8  2  0  0  0  0
 17 24  1  0  0  0  0
 17 28  1  1  0  0  0
 18 17  1  0  0  0  0
 19 18  1  0  0  0  0
 20 25  1  6  0  0  0
 20 19  1  0  0  0  0
 20 21  1  0  0  0  0
 21 23  1  0  0  0  0
 23 24  1  0  0  0  0
 23 22  1  0  0  0  0
 24 22  1  0  0  0  0
 26 25  1  0  0  0  0
 28 27  1  0  0  0  0
 29 30  1  0  0  0  0
 30 32  1  0  0  0  0
 30 31  1  0  0  0  0
 33 34  1  0  0  0  0
 33 29  1  0  0  0  0
 34 35  1  0  0  0  0
 35 36  1  0  0  0  0
 36 37  3  0  0  0  0
M  END
>  <MODEL>
7

>  <REMARK>
 VINA RESULT:      -3.1      3.499      7.700
  Name = 
  10 active torsions:
  status: ('A' for Active; 'I' for Inactive)
    1  A    between atoms: C_1  and  C_23
    2  A    between atoms: C_3  and  C_30
    3  A    between atoms: C_4  and  C_13
    4  A    between atoms: C_9  and  C_13
    5  A    between atoms: C_9  and  C_16
    6  A    between atoms: C_10  and  C_29
    7  A    between atoms: C_11  and  C_26
    8  A    between atoms: C_13  and  C_20
    9  A    between atoms: C_14  and  C_31
   10  A    between atoms: C_16  and  C_30
                            x       y       z     vdW  Elec       q    Type
                         _______ _______ _______ _____ _____    ______ ____

>  <TORSDO>
F 10

$$$$
=
 OpenBabel11052415153D

 37 41  0  0  1  0  0  0  0  0999 V2000
  188.1990  176.8040  137.0250 C   0  0  2  0  0  3  0  0  0  0  0  0
  187.1610  175.8820  136.3420 C   0  0  2  0  0  3  0  0  0  0  0  0
  185.7730  176.5390  136.2270 C   0  0  2  0  0  3  0  0  0  0  0  0
  186.8270  178.8090  136.2430 C   0  0  0  0  0  2  0  0  0  0  0  0
  189.0440  179.1760  137.2200 C   0  0  0  0  0  1  0  0  0  0  0  0
  188.2230  178.2110  136.3840 C   0  0  1  0  0  3  0  0  0  0  0  0
  185.9020  177.8660  135.4850 C   0  0  0  0  0  2  0  0  0  0  0  0
  182.9240  177.3820  136.1550 C   0  0  0  0  0  3  0  0  0  0  0  0
  183.6450  177.1720  137.4780 C   0  0  2  0  0  0  0  0  0  0  0  0
  183.9650  175.7270  137.7760 C   0  0  0  0  0  2  0  0  0  0  0  0
  183.0160  177.9130  138.6260 C   0  0  0  0  0  2  0  0  0  0  0  0
  181.2050  179.7630  139.9290 C   0  0  0  0  0  1  0  0  0  0  0  0
  181.1010  179.4480  138.5280 N   0  0  0  0  0  0  0  0  0  0  0  0
  181.8960  178.6220  137.9420 C   0  0  0  0  0  0  0  0  0  0  0  0
  185.0980  176.7340  137.5930 C   0  0  1  0  0  3  0  0  0  0  0  0
  181.7820  178.3390  136.4790 C   0  0  0  0  0  3  0  0  0  0  0  0
  187.4260  171.9390  136.4080 C   0  0  2  0  0  3  0  0  0  0  0  0
  186.3450  171.1200  135.9520 O   0  0  0  0  0  0  0  0  0  0  0  0
  185.9600  171.4670  134.6270 C   0  0  0  0  0  2  0  0  0  0  0  0
  184.8120  172.5150  134.5940 C   0  0  2  0  0  3  0  0  0  0  0  0
  185.1530  173.9080  135.1860 C   0  0  0  0  0  2  0  0  0  0  0  0
  187.0670  174.5090  137.0190 C   0  0  1  0  0  3  0  0  0  0  0  0
  185.8640  173.7200  136.5130 C   0  0  2  0  0  3  0  0  0  0  0  0
  187.2610  173.4040  136.0110 C   0  0  2  0  0  3  0  0  0  0  0  0
  183.4670  171.9620  135.0720 C   0  0  0  0  0  2  0  0  0  0  0  0
  182.6870  172.9500  135.9220 C   0  0  0  0  0  1  0  0  0  0  0  0
  189.1390  172.1000  134.6070 C   0  0  0  0  0  1  0  0  0  0  0  0
  188.7610  171.4130  135.9050 C   0  0  0  0  0  2  0  0  0  0  0  0
  189.5840  176.1240  137.0140 C   0  0  2  0  0  3  0  0  0  0  0  0
  190.2660  175.9650  138.3740 C   0  0  2  0  0  3  0  0  0  0  0  0
  189.5020  176.5200  139.4020 O   0  0  0  0  0  1  0  0  0  0  0  0
  191.6360  176.6150  138.3530 C   0  0  0  0  0  1  0  0  0  0  0  0
  190.4780  176.3540  135.7890 C   0  0  0  0  0  2  0  0  0  0  0  0
  190.7100  175.0920  134.9740 C   0  0  0  0  0  2  0  0  0  0  0  0
  192.0010  174.4190  135.4040 C   0  0  0  0  0  2  0  0  0  0  0  0
  193.1380  175.3230  135.2170 C   0  0  0  0  0  0  0  0  0  0  0  0
  194.0740  176.0690  135.0660 C   0  0  0  0  0  3  0  0  0  0  0  0
  1 29  1  6  0  0  0
  2 22  1  1  0  0  0
  2  1  1  0  0  0  0
  3  7  1  1  0  0  0
  3  2  1  0  0  0  0
  3 15  1  0  0  0  0
  4  6  1  0  0  0  0
  6  1  1  0  0  0  0
  6  5  1  1  0  0  0
  7  4  1  0  0  0  0
  8 16  2  0  0  0  0
  9  8  1  6  0  0  0
  9 15  1  0  0  0  0
  9 10  1  0  0  0  0
  9 11  1  0  0  0  0
 13 12  1  0  0  0  0
 14 13  2  0  0  0  0
 14 11  1  0  0  0  0
 15 10  1  6  0  0  0
 16 14  1  0  0  0  0
 17 28  1  6  0  0  0
 18 17  1  0  0  0  0
 19 18  1  0  0  0  0
 20 19  1  0  0  0  0
 20 25  1  1  0  0  0
 20 21  1  0  0  0  0
 21 23  1  0  0  0  0
 23 22  1  0  0  0  0
 24 17  1  0  0  0  0
 24 23  1  0  0  0  0
 24 22  1  0  0  0  0
 25 26  1  0  0  0  0
 27 28  1  0  0  0  0
 29 30  1  0  0  0  0
 30 31  1  0  0  0  0
 32 30  1  0  0  0  0
 33 29  1  0  0  0  0
 34 35  1  0  0  0  0
 34 33  1  0  0  0  0
 36 35  1  0  0  0  0
 37 36  3  0  0  0  0
M  END
>  <MODEL>
8

>  <REMARK>
 VINA RESULT:      -3.1      2.919      6.677
  Name = 
  10 active torsions:
  status: ('A' for Active; 'I' for Inactive)
    1  A    between atoms: C_1  and  C_23
    2  A    between atoms: C_3  and  C_30
    3  A    between atoms: C_4  and  C_13
    4  A    between atoms: C_9  and  C_13
    5  A    between atoms: C_9  and  C_16
    6  A    between atoms: C_10  and  C_29
    7  A    between atoms: C_11  and  C_26
    8  A    between atoms: C_13  and  C_20
    9  A    between atoms: C_14  and  C_31
   10  A    between atoms: C_16  and  C_30
                            x       y       z     vdW  Elec       q    Type
                         _______ _______ _______ _____ _____    ______ ____

>  <TORSDO>
F 10

$$$$
=
 OpenBabel11052415153D

 37 41  0  0  1  0  0  0  0  0999 V2000
  186.5010  177.9120  141.8310 C   0  0  2  0  0  3  0  0  0  0  0  0
  186.5990  178.2210  140.3170 C   0  0  2  0  0  3  0  0  0  0  0  0
  185.2360  178.5760  139.6970 C   0  0  2  0  0  3  0  0  0  0  0  0
  184.4140  179.3780  141.9210 C   0  0  0  0  0  2  0  0  0  0  0  0
  185.4180  178.5840  144.0110 C   0  0  0  0  0  1  0  0  0  0  0  0
  185.7360  179.0190  142.5920 C   0  0  1  0  0  3  0  0  0  0  0  0
  184.6240  179.7480  140.4590 C   0  0  0  0  0  2  0  0  0  0  0  0
  182.4980  179.1440  138.6910 C   0  0  0  0  0  3  0  0  0  0  0  0
  182.8910  177.7460  139.1430 C   0  0  2  0  0  0  0  0  0  0  0  0
  183.8720  177.0610  138.2240 C   0  0  0  0  0  2  0  0  0  0  0  0
  181.7170  176.8930  139.5370 C   0  0  0  0  0  2  0  0  0  0  0  0
  178.9480  176.2900  140.1480 C   0  0  0  0  0  1  0  0  0  0  0  0
  179.3570  177.5680  139.6260 N   0  0  0  0  0  0  0  0  0  0  0  0
  180.5830  177.8430  139.3450 C   0  0  0  0  0  0  0  0  0  0  0  0
  184.2740  177.3790  139.6610 C   0  0  1  0  0  3  0  0  0  0  0  0
  180.9810  179.1900  138.8340 C   0  0  0  0  0  3  0  0  0  0  0  0
  189.4950  176.6970  138.0990 C   0  0  2  0  0  3  0  0  0  0  0  0
  189.5070  176.8760  136.6800 O   0  0  0  0  0  0  0  0  0  0  0  0
  189.4280  178.2530  136.3330 C   0  0  0  0  0  2  0  0  0  0  0  0
  187.9660  178.7280  136.1000 C   0  0  2  0  0  3  0  0  0  0  0  0
  187.0330  178.6720  137.3380 C   0  0  0  0  0  2  0  0  0  0  0  0
  187.2840  177.0930  139.5350 C   0  0  1  0  0  3  0  0  0  0  0  0
  187.2110  177.3340  138.0320 C   0  0  2  0  0  3  0  0  0  0  0  0
  188.4920  177.6120  138.7980 C   0  0  2  0  0  3  0  0  0  0  0  0
  187.3320  178.1490  134.8330 C   0  0  0  0  0  2  0  0  0  0  0  0
  185.9570  177.5500  135.0770 C   0  0  0  0  0  1  0  0  0  0  0  0
  191.8790  175.9800  138.0150 C   0  0  0  0  0  1  0  0  0  0  0  0
  190.8810  176.9030  138.6880 C   0  0  0  0  0  2  0  0  0  0  0  0
  187.9120  177.6650  142.4030 C   0  0  2  0  0  3  0  0  0  0  0  0
  188.0750  176.4210  143.2790 C   0  0  2  0  0  3  0  0  0  0  0  0
  188.1940  176.7550  144.6300 O   0  0  0  0  0  1  0  0  0  0  0  0
  189.2930  175.6280  142.8440 C   0  0  0  0  0  1  0  0  0  0  0  0
  188.7660  178.8940  142.7410 C   0  0  0  0  0  2  0  0  0  0  0  0
  190.2590  178.6180  142.6790 C   0  0  0  0  0  2  0  0  0  0  0  0
  190.9300  179.0580  143.9680 C   0  0  0  0  0  2  0  0  0  0  0  0
  191.3430  177.8930  144.7540 C   0  0  0  0  0  0  0  0  0  0  0  0
  191.6800  176.9330  145.4010 C   0  0  0  0  0  3  0  0  0  0  0  0
  1 29  1  1  0  0  0
  1  6  1  0  0  0  0
  2 22  1  6  0  0  0
  2  1  1  0  0  0  0
  3  2  1  0  0  0  0
  3  7  1  1  0  0  0
  4  6  1  0  0  0  0
  6  5  1  1  0  0  0
  7  4  1  0  0  0  0
  8 16  2  0  0  0  0
  8  9  1  0  0  0  0
  9 10  1  6  0  0  0
  9 11  1  0  0  0  0
  9 15  1  0  0  0  0
 13 12  1  0  0  0  0
 14 11  1  0  0  0  0
 14 13  2  0  0  0  0
 15 10  1  6  0  0  0
 15  3  1  0  0  0  0
 16 14  1  0  0  0  0
 17 28  1  1  0  0  0
 17 24  1  0  0  0  0
 18 17  1  0  0  0  0
 19 18  1  0  0  0  0
 20 25  1  6  0  0  0
 20 19  1  0  0  0  0
 20 21  1  0  0  0  0
 21 23  1  0  0  0  0
 23 24  1  0  0  0  0
 23 22  1  0  0  0  0
 24 22  1  0  0  0  0
 25 26  1  0  0  0  0
 27 28  1  0  0  0  0
 29 33  1  0  0  0  0
 29 30  1  0  0  0  0
 30 31  1  0  0  0  0
 32 30  1  0  0  0  0
 34 33  1  0  0  0  0
 34 35  1  0  0  0  0
 35 36  1  0  0  0  0
 36 37  3  0  0  0  0
M  END
>  <MODEL>
9

>  <REMARK>
 VINA RESULT:      -3.0      2.529      6.608
  Name = 
  10 active torsions:
  status: ('A' for Active; 'I' for Inactive)
    1  A    between atoms: C_1  and  C_23
    2  A    between atoms: C_3  and  C_30
    3  A    between atoms: C_4  and  C_13
    4  A    between atoms: C_9  and  C_13
    5  A    between atoms: C_9  and  C_16
    6  A    between atoms: C_10  and  C_29
    7  A    between atoms: C_11  and  C_26
    8  A    between atoms: C_13  and  C_20
    9  A    between atoms: C_14  and  C_31
   10  A    between atoms: C_16  and  C_30
                            x       y       z     vdW  Elec       q    Type
                         _______ _______ _______ _____ _____    ______ ____

>  <TORSDO>
F 10

$$$$
