=
 OpenBabel11052416003D

 34 38  0  0  1  0  0  0  0  0999 V2000
  189.2750  177.2230  138.8090 C   0  0  1  0  0  0  0  0  0  0  0  0
  190.6350  173.3320  136.4160 O   0  0  0  0  0  0  0  0  0  0  0  0
  188.6150  175.6680  137.1530 C   0  0  1  0  0  3  0  0  0  0  0  0
  189.8020  178.5270  138.8850 O   0  0  0  0  0  1  0  0  0  0  0  0
  188.4380  177.0540  137.6000 N   0  0  2  0  0  0  0  0  0  0  0  0
  190.7690  174.4950  136.8830 C   0  0  0  0  0  0  0  0  0  0  0  0
  191.8640  175.3330  136.4940 N   0  0  0  0  0  0  0  0  0  0  0  0
  191.7810  176.6580  136.7910 O   0  0  0  0  0  0  0  0  0  0  0  0
  189.7920  175.0380  137.8790 C   0  0  1  0  0  3  0  0  0  0  0  0
  191.7390  176.7190  138.1940 C   0  0  0  0  0  2  0  0  0  0  0  0
  190.3910  176.1670  138.7270 C   0  0  1  0  0  3  0  0  0  0  0  0
  193.0020  174.8150  135.7390 C   0  0  0  0  0  3  0  0  0  0  0  0
  194.2540  175.6100  136.0690 C   0  0  0  0  0  2  0  0  0  0  0  0
  194.0420  174.2490  136.6910 C   0  0  0  0  0  2  0  0  0  0  0  0
  187.7950  177.9720  135.4280 C   0  0  0  0  0  2  0  0  0  0  0  0
  188.8760  177.9110  136.4950 C   0  0  0  0  0  3  0  0  0  0  0  0
  187.9600  179.1190  136.3960 C   0  0  0  0  0  2  0  0  0  0  0  0
  187.3360  174.8590  137.3470 C   0  0  0  0  0  2  0  0  0  0  0  0
  186.6520  174.7030  136.1400 O   0  0  0  0  0  1  0  0  0  0  0  0
  188.4450  176.9830  139.9340 O   0  0  0  0  0  0  0  0  0  0  0  0
  188.9380  177.6670  141.0630 C   0  0  2  0  0  3  0  0  0  0  0  0
  189.3000  176.4610  142.3790 S   0  0  0  0  0  0  0  0  0  0  0  0
  188.6230  177.5170  143.7040 C   0  0  1  0  0  3  0  0  0  0  0  0
  186.4650  177.5960  144.9410 C   0  0  0  0  0  2  0  0  0  0  0  0
  187.4590  176.8820  144.4130 C   0  0  0  0  0  3  0  0  0  0  0  0
  189.7060  178.0310  144.6540 C   0  0  0  0  0  2  0  0  0  0  0  0
  191.8790  177.4760  145.4680 O   0  0  0  0  0  0  0  0  0  0  0  0
  191.0200  177.1970  146.5460 C   0  0  1  0  0  3  0  0  0  0  0  0
  190.6250  176.9250  145.1480 C   0  0  1  0  0  3  0  0  0  0  0  0
  192.6700  176.1170  147.8710 O   0  0  0  0  0  1  0  0  0  0  0  0
  191.4600  175.9100  147.2100 C   0  0  0  0  0  2  0  0  0  0  0  0
  187.8890  178.6480  141.5610 C   0  0  0  0  0  2  0  0  0  0  0  0
  185.4320  178.9170  141.5770 C   0  0  0  0  0  1  0  0  0  0  0  0
  186.6250  178.5280  140.7320 C   0  0  0  0  0  2  0  0  0  0  0  0
  1  4  1  1  0  0  0
  1 20  1  0  0  0  0
  2  6  2  0  0  0  0
  3 18  1  1  0  0  0
  3  5  1  0  0  0  0
  3  9  1  0  0  0  0
  5 16  1  6  0  0  0
  5  1  1  0  0  0  0
  7  8  1  0  0  0  0
  7  6  1  0  0  0  0
  8 10  1  0  0  0  0
  9  6  1  6  0  0  0
  9 11  1  0  0  0  0
 11 10  1  6  0  0  0
 11  1  1  0  0  0  0
 12 13  1  0  0  0  0
 12  7  1  0  0  0  0
 12 14  1  0  0  0  0
 13 14  1  0  0  0  0
 15 17  1  0  0  0  0
 15 16  1  0  0  0  0
 17 16  1  0  0  0  0
 19 18  1  0  0  0  0
 20 21  1  0  0  0  0
 21 32  1  1  0  0  0
 21 22  1  0  0  0  0
 22 23  1  0  0  0  0
 23 25  1  1  0  0  0
 23 26  1  0  0  0  0
 25 24  2  0  0  0  0
 27 28  1  0  0  0  0
 28 31  1  1  0  0  0
 29 26  1  6  0  0  0
 29 27  1  0  0  0  0
 29 28  1  0  0  0  0
 31 30  1  0  0  0  0
 34 32  1  0  0  0  0
 34 33  1  0  0  0  0
M  END
>  <MODEL>
1

>  <REMARK>
 VINA RESULT:      -5.7      0.000      0.000
  Name = 
  13 active torsions:
  status: ('A' for Active; 'I' for Inactive)
    1  A    between atoms: C_1  and  O_8
    2  A    between atoms: C_3  and  N_25
    3  A    between atoms: C_5  and  C_19
    4  A    between atoms: S_6  and  C_18
    5  A    between atoms: S_6  and  C_28
    6  A    between atoms: O_8  and  C_18
    7  A    between atoms: C_11  and  C_21
    8  A    between atoms: C_12  and  N_20
    9  A    between atoms: C_16  and  C_28
   10  A    between atoms: C_18  and  C_30
   11  A    between atoms: C_26  and  C_28
   12  A    between atoms: C_26  and  C_29
   13  A    between atoms: C_30  and  C_31
                            x       y       z     vdW  Elec       q    Type
                         _______ _______ _______ _____ _____    ______ ____

>  <TORSDO>
F 13

$$$$
=
 OpenBabel11052416003D

 34 38  0  0  1  0  0  0  0  0999 V2000
  183.8710  179.2760  139.8390 C   0  0  1  0  0  0  0  0  0  0  0  0
  181.3000  175.2860  139.4050 O   0  0  0  0  0  0  0  0  0  0  0  0
  181.7040  178.3600  140.0910 C   0  0  1  0  0  3  0  0  0  0  0  0
  184.5890  180.0530  138.9100 O   0  0  0  0  0  1  0  0  0  0  0  0
  182.4280  179.6050  139.8100 N   0  0  2  0  0  0  0  0  0  0  0  0
  182.1150  176.1710  139.0280 C   0  0  0  0  0  0  0  0  0  0  0  0
  182.5660  176.2390  137.6700 N   0  0  0  0  0  0  0  0  0  0  0  0
  183.1900  177.3790  137.2690 O   0  0  0  0  0  0  0  0  0  0  0  0
  182.6550  177.1780  139.9960 C   0  0  1  0  0  3  0  0  0  0  0  0
  184.3500  177.4620  138.0560 C   0  0  0  0  0  2  0  0  0  0  0  0
  183.9900  177.7730  139.5330 C   0  0  1  0  0  3  0  0  0  0  0  0
  182.3080  175.1630  136.7160 C   0  0  0  0  0  3  0  0  0  0  0  0
  183.3080  175.2260  135.5750 C   0  0  0  0  0  2  0  0  0  0  0  0
  183.4900  174.2100  136.6770 C   0  0  0  0  0  2  0  0  0  0  0  0
  180.6160  180.7050  138.5930 C   0  0  0  0  0  2  0  0  0  0  0  0
  181.9870  180.0570  138.4870 C   0  0  0  0  0  3  0  0  0  0  0  0
  181.8490  181.5700  138.4880 C   0  0  0  0  0  2  0  0  0  0  0  0
  181.0150  178.4190  141.4510 C   0  0  0  0  0  2  0  0  0  0  0  0
  179.9080  177.5690  141.4910 O   0  0  0  0  0  1  0  0  0  0  0  0
  184.3400  179.5550  141.1490 O   0  0  0  0  0  0  0  0  0  0  0  0
  185.1580  178.5060  141.6120 C   0  0  2  0  0  3  0  0  0  0  0  0
  184.5160  177.9100  143.2100 S   0  0  0  0  0  0  0  0  0  0  0  0
  185.9860  178.4570  144.1440 C   0  0  1  0  0  3  0  0  0  0  0  0
  185.0410  178.5000  146.4450 C   0  0  0  0  0  2  0  0  0  0  0  0
  185.6300  179.1400  145.4350 C   0  0  0  0  0  3  0  0  0  0  0  0
  187.0190  177.3420  144.3110 C   0  0  0  0  0  2  0  0  0  0  0  0
  188.7090  177.0020  145.9610 O   0  0  0  0  0  0  0  0  0  0  0  0
  189.3710  176.8040  144.7360 C   0  0  1  0  0  3  0  0  0  0  0  0
  188.3300  177.8410  144.8970 C   0  0  1  0  0  3  0  0  0  0  0  0
  191.6450  176.5490  145.3770 O   0  0  0  0  0  1  0  0  0  0  0  0
  190.7420  177.4440  144.8040 C   0  0  0  0  0  2  0  0  0  0  0  0
  186.5770  179.0130  141.8030 C   0  0  0  0  0  2  0  0  0  0  0  0
  188.6800  177.8510  141.2220 C   0  0  0  0  0  1  0  0  0  0  0  0
  187.4580  178.5460  140.6620 C   0  0  0  0  0  2  0  0  0  0  0  0
  1  4  1  6  0  0  0
  1 20  1  0  0  0  0
  3 18  1  1  0  0  0
  5 16  1  6  0  0  0
  5  1  1  0  0  0  0
  5  3  1  0  0  0  0
  6  2  2  0  0  0  0
  7  6  1  0  0  0  0
  8  7  1  0  0  0  0
  8 10  1  0  0  0  0
  9  6  1  6  0  0  0
  9  3  1  0  0  0  0
 11 10  1  6  0  0  0
 11  1  1  0  0  0  0
 11  9  1  0  0  0  0
 12  7  1  0  0  0  0
 13 14  1  0  0  0  0
 13 12  1  0  0  0  0
 14 12  1  0  0  0  0
 16 17  1  0  0  0  0
 16 15  1  0  0  0  0
 17 15  1  0  0  0  0
 18 19  1  0  0  0  0
 20 21  1  0  0  0  0
 21 32  1  1  0  0  0
 21 22  1  0  0  0  0
 22 23  1  0  0  0  0
 23 26  1  1  0  0  0
 23 25  1  0  0  0  0
 25 24  2  0  0  0  0
 28 31  1  1  0  0  0
 28 29  1  0  0  0  0
 28 27  1  0  0  0  0
 29 26  1  6  0  0  0
 29 27  1  0  0  0  0
 31 30  1  0  0  0  0
 34 33  1  0  0  0  0
 34 32  1  0  0  0  0
M  END
>  <MODEL>
2

>  <REMARK>
 VINA RESULT:      -5.5      4.734      6.645
  Name = 
  13 active torsions:
  status: ('A' for Active; 'I' for Inactive)
    1  A    between atoms: C_1  and  O_8
    2  A    between atoms: C_3  and  N_25
    3  A    between atoms: C_5  and  C_19
    4  A    between atoms: S_6  and  C_18
    5  A    between atoms: S_6  and  C_28
    6  A    between atoms: O_8  and  C_18
    7  A    between atoms: C_11  and  C_21
    8  A    between atoms: C_12  and  N_20
    9  A    between atoms: C_16  and  C_28
   10  A    between atoms: C_18  and  C_30
   11  A    between atoms: C_26  and  C_28
   12  A    between atoms: C_26  and  C_29
   13  A    between atoms: C_30  and  C_31
                            x       y       z     vdW  Elec       q    Type
                         _______ _______ _______ _____ _____    ______ ____

>  <TORSDO>
F 13

$$$$
=
 OpenBabel11052416003D

 34 38  0  0  1  0  0  0  0  0999 V2000
  189.7160  176.9700  139.2430 C   0  0  1  0  0  0  0  0  0  0  0  0
  190.9150  173.6520  136.0390 O   0  0  0  0  0  0  0  0  0  0  0  0
  189.0070  175.8700  137.2730 C   0  0  1  0  0  3  0  0  0  0  0  0
  190.3090  178.1920  139.6170 O   0  0  0  0  0  1  0  0  0  0  0  0
  188.8950  177.1260  138.0210 N   0  0  2  0  0  0  0  0  0  0  0  0
  191.1020  174.6700  136.7590 C   0  0  0  0  0  0  0  0  0  0  0  0
  192.2460  175.5120  136.5770 N   0  0  0  0  0  0  0  0  0  0  0  0
  192.2280  176.7370  137.1670 O   0  0  0  0  0  0  0  0  0  0  0  0
  190.1350  175.0270  137.8460 C   0  0  1  0  0  3  0  0  0  0  0  0
  192.1610  176.4820  138.5470 C   0  0  0  0  0  2  0  0  0  0  0  0
  190.7760  175.8990  138.9320 C   0  0  1  0  0  3  0  0  0  0  0  0
  193.3700  175.1150  135.7330 C   0  0  0  0  0  3  0  0  0  0  0  0
  194.5460  176.0500  135.9550 C   0  0  0  0  0  2  0  0  0  0  0  0
  194.5420  174.6830  136.5970 C   0  0  0  0  0  2  0  0  0  0  0  0
  188.4840  178.3370  135.9380 C   0  0  0  0  0  2  0  0  0  0  0  0
  189.3990  178.1850  137.1430 C   0  0  0  0  0  3  0  0  0  0  0  0
  188.3880  179.3180  137.0830 C   0  0  0  0  0  2  0  0  0  0  0  0
  187.6840  175.1100  137.2690 C   0  0  0  0  0  2  0  0  0  0  0  0
  186.6020  175.9840  137.3890 O   0  0  0  0  0  1  0  0  0  0  0  0
  188.8530  176.5290  140.2780 O   0  0  0  0  0  0  0  0  0  0  0  0
  188.9870  177.3520  141.4140 C   0  0  2  0  0  3  0  0  0  0  0  0
  188.5370  176.3960  142.8990 S   0  0  0  0  0  0  0  0  0  0  0  0
  189.8700  177.1170  143.9170 C   0  0  1  0  0  3  0  0  0  0  0  0
  191.4130  179.0550  143.6830 C   0  0  0  0  0  2  0  0  0  0  0  0
  190.7730  178.0260  143.1290 C   0  0  0  0  0  3  0  0  0  0  0  0
  189.3430  177.7520  145.2040 C   0  0  0  0  0  2  0  0  0  0  0  0
  187.8260  177.2580  146.9790 O   0  0  0  0  0  0  0  0  0  0  0  0
  187.2220  178.3240  146.2890 C   0  0  1  0  0  3  0  0  0  0  0  0
  187.9550  177.2560  145.5780 C   0  0  1  0  0  3  0  0  0  0  0  0
  185.0420  179.1060  146.8220 O   0  0  0  0  0  1  0  0  0  0  0  0
  185.7320  178.0710  146.1910 C   0  0  0  0  0  2  0  0  0  0  0  0
  188.0550  178.5460  141.2890 C   0  0  0  0  0  2  0  0  0  0  0  0
  185.6100  178.8990  141.3840 C   0  0  0  0  0  1  0  0  0  0  0  0
  186.8030  178.3210  142.1140 C   0  0  0  0  0  2  0  0  0  0  0  0
  1  4  1  1  0  0  0
  1 20  1  0  0  0  0
  2  6  2  0  0  0  0
  3 18  1  1  0  0  0
  3  9  1  0  0  0  0
  3  5  1  0  0  0  0
  5 16  1  6  0  0  0
  5  1  1  0  0  0  0
  7  6  1  0  0  0  0
  7  8  1  0  0  0  0
  8 10  1  0  0  0  0
  9  6  1  6  0  0  0
  9 11  1  0  0  0  0
 11 10  1  6  0  0  0
 11  1  1  0  0  0  0
 12 13  1  0  0  0  0
 12  7  1  0  0  0  0
 12 14  1  0  0  0  0
 13 14  1  0  0  0  0
 15 17  1  0  0  0  0
 15 16  1  0  0  0  0
 17 16  1  0  0  0  0
 18 19  1  0  0  0  0
 20 21  1  0  0  0  0
 21 32  1  6  0  0  0
 21 22  1  0  0  0  0
 22 23  1  0  0  0  0
 23 25  1  6  0  0  0
 23 26  1  0  0  0  0
 25 24  2  0  0  0  0
 28 31  1  6  0  0  0
 28 27  1  0  0  0  0
 29 26  1  1  0  0  0
 29 28  1  0  0  0  0
 29 27  1  0  0  0  0
 31 30  1  0  0  0  0
 32 34  1  0  0  0  0
 33 34  1  0  0  0  0
M  END
>  <MODEL>
3

>  <REMARK>
 VINA RESULT:      -5.4      1.722      2.469
  Name = 
  13 active torsions:
  status: ('A' for Active; 'I' for Inactive)
    1  A    between atoms: C_1  and  O_8
    2  A    between atoms: C_3  and  N_25
    3  A    between atoms: C_5  and  C_19
    4  A    between atoms: S_6  and  C_18
    5  A    between atoms: S_6  and  C_28
    6  A    between atoms: O_8  and  C_18
    7  A    between atoms: C_11  and  C_21
    8  A    between atoms: C_12  and  N_20
    9  A    between atoms: C_16  and  C_28
   10  A    between atoms: C_18  and  C_30
   11  A    between atoms: C_26  and  C_28
   12  A    between atoms: C_26  and  C_29
   13  A    between atoms: C_30  and  C_31
                            x       y       z     vdW  Elec       q    Type
                         _______ _______ _______ _____ _____    ______ ____

>  <TORSDO>
F 13

$$$$
=
 OpenBabel11052416003D

 34 38  0  0  1  0  0  0  0  0999 V2000
  183.5750  178.9770  140.1770 C   0  0  1  0  0  0  0  0  0  0  0  0
  181.2050  175.4210  138.0670 O   0  0  0  0  0  0  0  0  0  0  0  0
  181.4330  178.2560  139.4790 C   0  0  1  0  0  3  0  0  0  0  0  0
  184.5990  179.8360  139.7320 O   0  0  0  0  0  1  0  0  0  0  0  0
  182.2460  179.4510  139.7280 N   0  0  2  0  0  0  0  0  0  0  0  0
  182.1270  176.2730  138.1850 C   0  0  0  0  0  0  0  0  0  0  0  0
  183.0310  176.5450  137.1070 N   0  0  0  0  0  0  0  0  0  0  0  0
  183.7910  177.6700  137.1910 O   0  0  0  0  0  0  0  0  0  0  0  0
  182.3200  177.0220  139.4670 C   0  0  1  0  0  3  0  0  0  0  0  0
  184.5990  177.4860  138.3250 C   0  0  0  0  0  2  0  0  0  0  0  0
  183.7500  177.5530  139.6220 C   0  0  1  0  0  3  0  0  0  0  0  0
  183.0960  175.6970  135.9200 C   0  0  0  0  0  3  0  0  0  0  0  0
  184.4520  175.8370  135.2510 C   0  0  0  0  0  2  0  0  0  0  0  0
  184.1570  174.6260  136.1040 C   0  0  0  0  0  2  0  0  0  0  0  0
  180.9600  180.7900  138.1380 C   0  0  0  0  0  2  0  0  0  0  0  0
  182.3160  180.1840  138.4600 C   0  0  0  0  0  3  0  0  0  0  0  0
  182.0550  181.6590  138.7120 C   0  0  0  0  0  2  0  0  0  0  0  0
  180.3090  178.1310  140.5030 C   0  0  0  0  0  2  0  0  0  0  0  0
  180.2940  179.2270  141.3690 O   0  0  0  0  0  1  0  0  0  0  0  0
  183.5580  178.9590  141.5950 O   0  0  0  0  0  0  0  0  0  0  0  0
  184.8550  179.1640  142.1050 C   0  0  2  0  0  3  0  0  0  0  0  0
  185.7000  177.5570  142.2520 S   0  0  0  0  0  0  0  0  0  0  0  0
  187.2990  178.3000  142.7200 C   0  0  1  0  0  3  0  0  0  0  0  0
  188.3810  177.7110  144.8820 C   0  0  0  0  0  2  0  0  0  0  0  0
  188.1150  177.4050  143.6130 C   0  0  0  0  0  3  0  0  0  0  0  0
  188.0760  178.8240  141.5120 C   0  0  0  0  0  2  0  0  0  0  0  0
  187.7710  178.5960  139.1570 O   0  0  0  0  0  0  0  0  0  0  0  0
  189.1080  178.2200  139.3730 C   0  0  1  0  0  3  0  0  0  0  0  0
  188.0380  177.8690  140.3300 C   0  0  1  0  0  3  0  0  0  0  0  0
  190.1800  177.4300  137.4060 O   0  0  0  0  0  1  0  0  0  0  0  0
  189.4320  177.0200  138.5080 C   0  0  0  0  0  2  0  0  0  0  0  0
  184.7660  179.8080  143.4790 C   0  0  0  0  0  2  0  0  0  0  0  0
  184.7990  178.7290  145.7030 C   0  0  0  0  0  1  0  0  0  0  0  0
  184.0020  178.9080  144.4290 C   0  0  0  0  0  2  0  0  0  0  0  0
  1  4  1  6  0  0  0
  1 20  1  0  0  0  0
  2  6  2  0  0  0  0
  3  5  1  0  0  0  0
  3 18  1  1  0  0  0
  5 16  1  6  0  0  0
  5  1  1  0  0  0  0
  7  8  1  0  0  0  0
  7  6  1  0  0  0  0
  8 10  1  0  0  0  0
  9  6  1  6  0  0  0
  9  3  1  0  0  0  0
  9 11  1  0  0  0  0
 11 10  1  6  0  0  0
 11  1  1  0  0  0  0
 12 14  1  0  0  0  0
 12  7  1  0  0  0  0
 13 12  1  0  0  0  0
 13 14  1  0  0  0  0
 15 16  1  0  0  0  0
 15 17  1  0  0  0  0
 16 17  1  0  0  0  0
 18 19  1  0  0  0  0
 20 21  1  0  0  0  0
 21 22  1  0  0  0  0
 21 32  1  1  0  0  0
 22 23  1  0  0  0  0
 23 26  1  6  0  0  0
 23 25  1  0  0  0  0
 25 24  2  0  0  0  0
 27 28  1  0  0  0  0
 27 29  1  0  0  0  0
 28 31  1  6  0  0  0
 28 29  1  0  0  0  0
 29 26  1  1  0  0  0
 30 31  1  0  0  0  0
 32 34  1  0  0  0  0
 34 33  1  0  0  0  0
M  END
>  <MODEL>
4

>  <REMARK>
 VINA RESULT:      -5.1      4.037      7.187
  Name = 
  13 active torsions:
  status: ('A' for Active; 'I' for Inactive)
    1  A    between atoms: C_1  and  O_8
    2  A    between atoms: C_3  and  N_25
    3  A    between atoms: C_5  and  C_19
    4  A    between atoms: S_6  and  C_18
    5  A    between atoms: S_6  and  C_28
    6  A    between atoms: O_8  and  C_18
    7  A    between atoms: C_11  and  C_21
    8  A    between atoms: C_12  and  N_20
    9  A    between atoms: C_16  and  C_28
   10  A    between atoms: C_18  and  C_30
   11  A    between atoms: C_26  and  C_28
   12  A    between atoms: C_26  and  C_29
   13  A    between atoms: C_30  and  C_31
                            x       y       z     vdW  Elec       q    Type
                         _______ _______ _______ _____ _____    ______ ____

>  <TORSDO>
F 13

$$$$
=
 OpenBabel11052416003D

 34 38  0  0  1  0  0  0  0  0999 V2000
  188.9610  177.2000  138.3820 C   0  0  1  0  0  0  0  0  0  0  0  0
  190.1600  173.1150  136.2400 O   0  0  0  0  0  0  0  0  0  0  0  0
  188.1960  175.5200  136.9030 C   0  0  1  0  0  3  0  0  0  0  0  0
  189.4960  178.5020  138.3200 O   0  0  0  0  0  1  0  0  0  0  0  0
  188.0510  176.9400  137.2450 N   0  0  2  0  0  0  0  0  0  0  0  0
  190.3260  174.3110  136.6010 C   0  0  0  0  0  0  0  0  0  0  0  0
  191.3980  175.1060  136.0780 N   0  0  0  0  0  0  0  0  0  0  0  0
  191.3380  176.4500  136.2700 O   0  0  0  0  0  0  0  0  0  0  0  0
  189.4130  174.9420  137.6060 C   0  0  1  0  0  3  0  0  0  0  0  0
  191.3810  176.6270  137.6630 C   0  0  0  0  0  2  0  0  0  0  0  0
  190.0660  176.1310  138.3210 C   0  0  1  0  0  3  0  0  0  0  0  0
  192.4860  174.5180  135.3010 C   0  0  0  0  0  3  0  0  0  0  0  0
  193.7260  175.3910  135.3950 C   0  0  0  0  0  2  0  0  0  0  0  0
  193.6310  174.1300  136.2210 C   0  0  0  0  0  2  0  0  0  0  0  0
  187.2830  177.6740  135.0430 C   0  0  0  0  0  2  0  0  0  0  0  0
  188.4240  177.7000  136.0480 C   0  0  0  0  0  3  0  0  0  0  0  0
  187.5010  178.8980  135.9010 C   0  0  0  0  0  2  0  0  0  0  0  0
  186.9290  174.7400  137.2400 C   0  0  0  0  0  2  0  0  0  0  0  0
  186.8210  173.5920  136.4530 O   0  0  0  0  0  1  0  0  0  0  0  0
  188.2010  177.0600  139.5720 O   0  0  0  0  0  0  0  0  0  0  0  0
  187.7640  178.3190  140.0270 C   0  0  2  0  0  3  0  0  0  0  0  0
  188.6120  178.7140  141.5910 S   0  0  0  0  0  0  0  0  0  0  0  0
  188.6870  176.9720  142.1330 C   0  0  1  0  0  3  0  0  0  0  0  0
  190.4830  175.5060  143.0370 C   0  0  0  0  0  2  0  0  0  0  0  0
  190.0920  176.4370  142.1660 C   0  0  0  0  0  3  0  0  0  0  0  0
  187.9130  176.7290  143.4290 C   0  0  0  0  0  2  0  0  0  0  0  0
  187.1970  177.8140  145.4300 O   0  0  0  0  0  0  0  0  0  0  0  0
  188.3040  177.0440  145.8270 C   0  0  1  0  0  3  0  0  0  0  0  0
  188.2650  177.7290  144.5190 C   0  0  1  0  0  3  0  0  0  0  0  0
  190.0390  176.9990  147.4500 O   0  0  0  0  0  1  0  0  0  0  0  0
  189.1430  177.8460  146.7980 C   0  0  0  0  0  2  0  0  0  0  0  0
  186.2650  178.2810  140.2690 C   0  0  0  0  0  2  0  0  0  0  0  0
  184.2360  179.3190  139.3110 C   0  0  0  0  0  1  0  0  0  0  0  0
  185.5200  178.5870  138.9850 C   0  0  0  0  0  2  0  0  0  0  0  0
  1  4  1  6  0  0  0
  1 20  1  0  0  0  0
  2  6  2  0  0  0  0
  3 18  1  1  0  0  0
  3  5  1  0  0  0  0
  3  9  1  0  0  0  0
  5 16  1  6  0  0  0
  5  1  1  0  0  0  0
  7  8  1  0  0  0  0
  7  6  1  0  0  0  0
  8 10  1  0  0  0  0
  9  6  1  6  0  0  0
  9 11  1  0  0  0  0
 11 10  1  6  0  0  0
 11  1  1  0  0  0  0
 12 13  1  0  0  0  0
 12  7  1  0  0  0  0
 12 14  1  0  0  0  0
 13 14  1  0  0  0  0
 15 17  1  0  0  0  0
 15 16  1  0  0  0  0
 17 16  1  0  0  0  0
 19 18  1  0  0  0  0
 20 21  1  0  0  0  0
 21 32  1  1  0  0  0
 21 22  1  0  0  0  0
 22 23  1  0  0  0  0
 23 25  1  1  0  0  0
 23 26  1  0  0  0  0
 25 24  2  0  0  0  0
 27 28  1  0  0  0  0
 28 31  1  1  0  0  0
 29 26  1  6  0  0  0
 29 27  1  0  0  0  0
 29 28  1  0  0  0  0
 31 30  1  0  0  0  0
 34 33  1  0  0  0  0
 34 32  1  0  0  0  0
M  END
>  <MODEL>
5

>  <REMARK>
 VINA RESULT:      -4.9      1.521      1.973
  Name = 
  13 active torsions:
  status: ('A' for Active; 'I' for Inactive)
    1  A    between atoms: C_1  and  O_8
    2  A    between atoms: C_3  and  N_25
    3  A    between atoms: C_5  and  C_19
    4  A    between atoms: S_6  and  C_18
    5  A    between atoms: S_6  and  C_28
    6  A    between atoms: O_8  and  C_18
    7  A    between atoms: C_11  and  C_21
    8  A    between atoms: C_12  and  N_20
    9  A    between atoms: C_16  and  C_28
   10  A    between atoms: C_18  and  C_30
   11  A    between atoms: C_26  and  C_28
   12  A    between atoms: C_26  and  C_29
   13  A    between atoms: C_30  and  C_31
                            x       y       z     vdW  Elec       q    Type
                         _______ _______ _______ _____ _____    ______ ____

>  <TORSDO>
F 13

$$$$
=
 OpenBabel11052416003D

 34 38  0  0  1  0  0  0  0  0999 V2000
  183.3560  178.3540  140.3800 C   0  0  1  0  0  0  0  0  0  0  0  0
  181.7710  174.8450  137.5710 O   0  0  0  0  0  0  0  0  0  0  0  0
  181.4120  177.2270  139.6400 C   0  0  1  0  0  3  0  0  0  0  0  0
  184.0530  179.5480  140.1110 O   0  0  0  0  0  1  0  0  0  0  0  0
  181.9050  178.5160  140.1380 N   0  0  2  0  0  0  0  0  0  0  0  0
  182.4410  175.8760  137.8490 C   0  0  0  0  0  0  0  0  0  0  0  0
  183.1010  176.6340  136.8290 N   0  0  0  0  0  0  0  0  0  0  0  0
  183.5400  177.8800  137.1530 O   0  0  0  0  0  0  0  0  0  0  0  0
  182.5860  176.3360  139.2670 C   0  0  1  0  0  3  0  0  0  0  0  0
  184.5010  177.6820  138.1570 C   0  0  0  0  0  2  0  0  0  0  0  0
  183.8320  177.2060  139.4730 C   0  0  1  0  0  3  0  0  0  0  0  0
  183.2400  176.1340  135.4640 C   0  0  0  0  0  3  0  0  0  0  0  0
  184.0170  177.1290  134.6190 C   0  0  0  0  0  2  0  0  0  0  0  0
  184.7050  175.8910  135.1460 C   0  0  0  0  0  2  0  0  0  0  0  0
  180.1180  179.6450  138.9100 C   0  0  0  0  0  2  0  0  0  0  0  0
  181.6210  179.5060  139.0960 C   0  0  0  0  0  3  0  0  0  0  0  0
  180.8760  180.6830  139.7030 C   0  0  0  0  0  2  0  0  0  0  0  0
  180.4980  176.5550  140.6590 C   0  0  0  0  0  2  0  0  0  0  0  0
  180.2310  175.2330  140.3000 O   0  0  0  0  0  1  0  0  0  0  0  0
  183.5210  178.0090  141.7460 O   0  0  0  0  0  0  0  0  0  0  0  0
  183.2180  179.1100  142.5710 C   0  0  2  0  0  3  0  0  0  0  0  0
  184.7530  179.7180  143.3420 S   0  0  0  0  0  0  0  0  0  0  0  0
  185.4340  178.0430  143.5940 C   0  0  1  0  0  3  0  0  0  0  0  0
  186.9880  178.5400  141.7150 C   0  0  0  0  0  2  0  0  0  0  0  0
  186.6660  177.7900  142.7680 C   0  0  0  0  0  3  0  0  0  0  0  0
  185.6140  177.7020  145.0740 C   0  0  0  0  0  2  0  0  0  0  0  0
  186.7340  178.3880  147.0660 O   0  0  0  0  0  0  0  0  0  0  0  0
  187.5220  177.3370  146.5660 C   0  0  1  0  0  3  0  0  0  0  0  0
  186.8730  178.3140  145.6680 C   0  0  1  0  0  3  0  0  0  0  0  0
  189.6480  176.6430  147.3700 O   0  0  0  0  0  1  0  0  0  0  0  0
  188.9850  177.6910  146.7330 C   0  0  0  0  0  2  0  0  0  0  0  0
  182.2500  178.6790  143.6600 C   0  0  0  0  0  2  0  0  0  0  0  0
  179.8400  178.3540  144.1030 C   0  0  0  0  0  1  0  0  0  0  0  0
  180.8560  179.1870  143.3530 C   0  0  0  0  0  2  0  0  0  0  0  0
  1  4  1  6  0  0  0
  1 20  1  0  0  0  0
  2  6  2  0  0  0  0
  3  5  1  0  0  0  0
  3 18  1  1  0  0  0
  5 16  1  6  0  0  0
  5  1  1  0  0  0  0
  7  8  1  0  0  0  0
  7  6  1  0  0  0  0
  8 10  1  0  0  0  0
  9  6  1  6  0  0  0
  9 11  1  0  0  0  0
  9  3  1  0  0  0  0
 11 10  1  6  0  0  0
 11  1  1  0  0  0  0
 12  7  1  0  0  0  0
 13 14  1  0  0  0  0
 13 12  1  0  0  0  0
 14 12  1  0  0  0  0
 15 16  1  0  0  0  0
 15 17  1  0  0  0  0
 16 17  1  0  0  0  0
 19 18  1  0  0  0  0
 20 21  1  0  0  0  0
 21 22  1  0  0  0  0
 21 32  1  1  0  0  0
 22 23  1  0  0  0  0
 23 25  1  6  0  0  0
 23 26  1  0  0  0  0
 24 25  2  0  0  0  0
 28 31  1  1  0  0  0
 28 27  1  0  0  0  0
 29 26  1  6  0  0  0
 29 28  1  0  0  0  0
 29 27  1  0  0  0  0
 31 30  1  0  0  0  0
 34 32  1  0  0  0  0
 34 33  1  0  0  0  0
M  END
>  <MODEL>
6

>  <REMARK>
 VINA RESULT:      -4.9      5.207      6.845
  Name = 
  13 active torsions:
  status: ('A' for Active; 'I' for Inactive)
    1  A    between atoms: C_1  and  O_8
    2  A    between atoms: C_3  and  N_25
    3  A    between atoms: C_5  and  C_19
    4  A    between atoms: S_6  and  C_18
    5  A    between atoms: S_6  and  C_28
    6  A    between atoms: O_8  and  C_18
    7  A    between atoms: C_11  and  C_21
    8  A    between atoms: C_12  and  N_20
    9  A    between atoms: C_16  and  C_28
   10  A    between atoms: C_18  and  C_30
   11  A    between atoms: C_26  and  C_28
   12  A    between atoms: C_26  and  C_29
   13  A    between atoms: C_30  and  C_31
                            x       y       z     vdW  Elec       q    Type
                         _______ _______ _______ _____ _____    ______ ____

>  <TORSDO>
F 13

$$$$
=
 OpenBabel11052416003D

 34 38  0  0  1  0  0  0  0  0999 V2000
  183.8420  178.9370  138.5640 C   0  0  1  0  0  0  0  0  0  0  0  0
  179.3730  177.5760  139.5050 O   0  0  0  0  0  0  0  0  0  0  0  0
  182.5320  177.3520  139.7330 C   0  0  1  0  0  3  0  0  0  0  0  0
  184.5530  180.1240  138.8300 O   0  0  0  0  0  1  0  0  0  0  0  0
  183.8220  178.0490  139.7480 N   0  0  2  0  0  0  0  0  0  0  0  0
  180.3220  178.3990  139.4010 C   0  0  0  0  0  0  0  0  0  0  0  0
  180.2090  179.7350  139.9050 N   0  0  0  0  0  0  0  0  0  0  0  0
  181.3530  180.4590  140.0340 O   0  0  0  0  0  0  0  0  0  0  0  0
  181.6020  178.0110  138.7270 C   0  0  1  0  0  3  0  0  0  0  0  0
  181.8560  180.5900  138.7290 C   0  0  0  0  0  2  0  0  0  0  0  0
  182.3750  179.2260  138.2010 C   0  0  1  0  0  3  0  0  0  0  0  0
  178.9310  180.2910  140.3400 C   0  0  0  0  0  3  0  0  0  0  0  0
  179.0600  180.8690  141.7390 C   0  0  0  0  0  2  0  0  0  0  0  0
  179.0580  181.7910  140.5420 C   0  0  0  0  0  2  0  0  0  0  0  0
  184.5250  177.9420  142.0860 C   0  0  0  0  0  2  0  0  0  0  0  0
  183.8810  178.7970  141.0070 C   0  0  0  0  0  3  0  0  0  0  0  0
  185.3320  179.0180  141.3980 C   0  0  0  0  0  2  0  0  0  0  0  0
  182.7120  175.8650  139.4410 C   0  0  0  0  0  2  0  0  0  0  0  0
  182.3830  175.5690  138.1170 O   0  0  0  0  0  1  0  0  0  0  0  0
  184.4830  178.2290  137.5160 O   0  0  0  0  0  0  0  0  0  0  0  0
  185.6990  177.6780  137.9660 C   0  0  2  0  0  3  0  0  0  0  0  0
  187.0790  178.6980  137.3520 S   0  0  0  0  0  0  0  0  0  0  0  0
  188.3300  177.8310  138.3580 C   0  0  1  0  0  3  0  0  0  0  0  0
  189.6950  176.6310  136.6590 C   0  0  0  0  0  2  0  0  0  0  0  0
  189.6030  177.5690  137.6010 C   0  0  0  0  0  3  0  0  0  0  0  0
  188.5570  178.5010  139.7140 C   0  0  0  0  0  2  0  0  0  0  0  0
  189.9840  177.4630  141.3200 O   0  0  0  0  0  0  0  0  0  0  0  0
  189.0660  178.1980  142.0910 C   0  0  1  0  0  3  0  0  0  0  0  0
  188.6570  177.5000  140.8540 C   0  0  1  0  0  3  0  0  0  0  0  0
  189.7590  177.2170  144.1410 O   0  0  0  0  0  1  0  0  0  0  0  0
  188.6610  177.3760  143.2970 C   0  0  0  0  0  2  0  0  0  0  0  0
  185.8470  176.2650  137.4280 C   0  0  0  0  0  2  0  0  0  0  0  0
  186.2700  175.8530  135.0280 C   0  0  0  0  0  1  0  0  0  0  0  0
  185.2060  176.1550  136.0600 C   0  0  0  0  0  2  0  0  0  0  0  0
  1  4  1  1  0  0  0
  1  5  1  0  0  0  0
  3 18  1  6  0  0  0
  3  5  1  0  0  0  0
  5 16  1  1  0  0  0
  6  2  2  0  0  0  0
  6  7  1  0  0  0  0
  7  8  1  0  0  0  0
  7 12  1  0  0  0  0
  9  6  1  1  0  0  0
  9  3  1  0  0  0  0
 10  8  1  0  0  0  0
 11  1  1  0  0  0  0
 11  9  1  0  0  0  0
 11 10  1  1  0  0  0
 12 14  1  0  0  0  0
 12 13  1  0  0  0  0
 14 13  1  0  0  0  0
 16 17  1  0  0  0  0
 16 15  1  0  0  0  0
 17 15  1  0  0  0  0
 19 18  1  0  0  0  0
 20 21  1  0  0  0  0
 20  1  1  0  0  0  0
 21 32  1  6  0  0  0
 22 21  1  0  0  0  0
 22 23  1  0  0  0  0
 23 25  1  6  0  0  0
 23 26  1  0  0  0  0
 24 25  2  0  0  0  0
 27 28  1  0  0  0  0
 28 31  1  1  0  0  0
 29 26  1  6  0  0  0
 29 27  1  0  0  0  0
 29 28  1  0  0  0  0
 31 30  1  0  0  0  0
 33 34  1  0  0  0  0
 34 32  1  0  0  0  0
M  END
>  <MODEL>
7

>  <REMARK>
 VINA RESULT:      -4.7      4.491      8.566
  Name = 
  13 active torsions:
  status: ('A' for Active; 'I' for Inactive)
    1  A    between atoms: C_1  and  O_8
    2  A    between atoms: C_3  and  N_25
    3  A    between atoms: C_5  and  C_19
    4  A    between atoms: S_6  and  C_18
    5  A    between atoms: S_6  and  C_28
    6  A    between atoms: O_8  and  C_18
    7  A    between atoms: C_11  and  C_21
    8  A    between atoms: C_12  and  N_20
    9  A    between atoms: C_16  and  C_28
   10  A    between atoms: C_18  and  C_30
   11  A    between atoms: C_26  and  C_28
   12  A    between atoms: C_26  and  C_29
   13  A    between atoms: C_30  and  C_31
                            x       y       z     vdW  Elec       q    Type
                         _______ _______ _______ _____ _____    ______ ____

>  <TORSDO>
F 13

$$$$
=
 OpenBabel11052416003D

 34 38  0  0  1  0  0  0  0  0999 V2000
  183.6560  178.8660  140.1760 C   0  0  1  0  0  0  0  0  0  0  0  0
  181.4010  175.2370  138.0650 O   0  0  0  0  0  0  0  0  0  0  0  0
  181.5360  178.0680  139.4950 C   0  0  1  0  0  3  0  0  0  0  0  0
  184.6420  179.7660  139.7270 O   0  0  0  0  0  1  0  0  0  0  0  0
  182.3060  179.2910  139.7450 N   0  0  2  0  0  0  0  0  0  0  0  0
  182.2910  176.1220  138.1780 C   0  0  0  0  0  0  0  0  0  0  0  0
  183.1720  176.4370  137.0940 N   0  0  0  0  0  0  0  0  0  0  0  0
  183.8890  177.5900  137.1780 O   0  0  0  0  0  0  0  0  0  0  0  0
  182.4690  176.8690  139.4640 C   0  0  1  0  0  3  0  0  0  0  0  0
  184.7160  177.4280  138.3020 C   0  0  0  0  0  2  0  0  0  0  0  0
  183.8790  177.4530  139.6080 C   0  0  1  0  0  3  0  0  0  0  0  0
  183.2560  175.6010  135.8990 C   0  0  0  0  0  3  0  0  0  0  0  0
  184.6050  175.7850  135.2250 C   0  0  0  0  0  2  0  0  0  0  0  0
  184.3480  174.5590  136.0700 C   0  0  0  0  0  2  0  0  0  0  0  0
  180.9150  180.3310  138.0250 C   0  0  0  0  0  2  0  0  0  0  0  0
  182.3340  180.0360  138.4820 C   0  0  0  0  0  3  0  0  0  0  0  0
  181.7300  181.4140  138.6920 C   0  0  0  0  0  2  0  0  0  0  0  0
  180.4290  177.8930  140.5310 C   0  0  0  0  0  2  0  0  0  0  0  0
  180.4420  178.9330  141.4620 O   0  0  0  0  0  1  0  0  0  0  0  0
  183.6560  178.8360  141.5940 O   0  0  0  0  0  0  0  0  0  0  0  0
  184.9630  179.0150  142.0900 C   0  0  2  0  0  3  0  0  0  0  0  0
  185.6960  177.3840  142.4420 S   0  0  0  0  0  0  0  0  0  0  0  0
  187.0960  178.0800  143.3830 C   0  0  1  0  0  3  0  0  0  0  0  0
  186.8750  177.7680  145.8410 C   0  0  0  0  0  2  0  0  0  0  0  0
  187.3510  177.3450  144.6700 C   0  0  0  0  0  3  0  0  0  0  0  0
  188.3500  178.2510  142.5230 C   0  0  0  0  0  2  0  0  0  0  0  0
  190.3200  177.2100  141.6710 O   0  0  0  0  0  0  0  0  0  0  0  0
  190.6480  177.5460  142.9960 C   0  0  1  0  0  3  0  0  0  0  0  0
  189.2990  177.0680  142.6270 C   0  0  1  0  0  3  0  0  0  0  0  0
  191.6710  176.6880  144.9610 O   0  0  0  0  0  1  0  0  0  0  0  0
  191.4390  176.4130  143.6140 C   0  0  0  0  0  2  0  0  0  0  0  0
  184.9130  179.8260  143.3740 C   0  0  0  0  0  2  0  0  0  0  0  0
  183.5570  178.8670  145.2050 C   0  0  0  0  0  1  0  0  0  0  0  0
  183.5270  179.7580  143.9830 C   0  0  0  0  0  2  0  0  0  0  0  0
  1  4  1  6  0  0  0
  1 20  1  0  0  0  0
  2  6  2  0  0  0  0
  3  5  1  0  0  0  0
  3 18  1  1  0  0  0
  5 16  1  6  0  0  0
  5  1  1  0  0  0  0
  7  8  1  0  0  0  0
  7  6  1  0  0  0  0
  8 10  1  0  0  0  0
  9  6  1  6  0  0  0
  9  3  1  0  0  0  0
  9 11  1  0  0  0  0
 11 10  1  6  0  0  0
 11  1  1  0  0  0  0
 12 14  1  0  0  0  0
 12  7  1  0  0  0  0
 13 12  1  0  0  0  0
 13 14  1  0  0  0  0
 15 16  1  0  0  0  0
 15 17  1  0  0  0  0
 16 17  1  0  0  0  0
 18 19  1  0  0  0  0
 20 21  1  0  0  0  0
 21 22  1  0  0  0  0
 21 32  1  1  0  0  0
 22 23  1  0  0  0  0
 23 26  1  6  0  0  0
 23 25  1  0  0  0  0
 25 24  2  0  0  0  0
 27 29  1  0  0  0  0
 27 28  1  0  0  0  0
 28 31  1  1  0  0  0
 29 26  1  6  0  0  0
 29 28  1  0  0  0  0
 31 30  1  0  0  0  0
 32 34  1  0  0  0  0
 34 33  1  0  0  0  0
M  END
>  <MODEL>
8

>  <REMARK>
 VINA RESULT:      -4.6      4.449      6.456
  Name = 
  13 active torsions:
  status: ('A' for Active; 'I' for Inactive)
    1  A    between atoms: C_1  and  O_8
    2  A    between atoms: C_3  and  N_25
    3  A    between atoms: C_5  and  C_19
    4  A    between atoms: S_6  and  C_18
    5  A    between atoms: S_6  and  C_28
    6  A    between atoms: O_8  and  C_18
    7  A    between atoms: C_11  and  C_21
    8  A    between atoms: C_12  and  N_20
    9  A    between atoms: C_16  and  C_28
   10  A    between atoms: C_18  and  C_30
   11  A    between atoms: C_26  and  C_28
   12  A    between atoms: C_26  and  C_29
   13  A    between atoms: C_30  and  C_31
                            x       y       z     vdW  Elec       q    Type
                         _______ _______ _______ _____ _____    ______ ____

>  <TORSDO>
F 13

$$$$
=
 OpenBabel11052416003D

 34 38  0  0  1  0  0  0  0  0999 V2000
  180.9620  177.6090  138.4690 C   0  0  1  0  0  0  0  0  0  0  0  0
  183.2310  178.7910  142.4890 O   0  0  0  0  0  0  0  0  0  0  0  0
  182.6540  178.9920  139.3740 C   0  0  1  0  0  3  0  0  0  0  0  0
  179.6140  177.7090  138.0700 O   0  0  0  0  0  1  0  0  0  0  0  0
  181.6700  178.8960  138.2900 N   0  0  2  0  0  0  0  0  0  0  0  0
  182.2230  178.5660  141.7660 C   0  0  0  0  0  0  0  0  0  0  0  0
  180.9010  178.8980  142.2060 N   0  0  0  0  0  0  0  0  0  0  0  0
  179.9120  178.9140  141.2730 O   0  0  0  0  0  0  0  0  0  0  0  0
  182.3740  177.9260  140.4210 C   0  0  1  0  0  3  0  0  0  0  0  0
  179.8310  177.5950  140.7980 C   0  0  0  0  0  2  0  0  0  0  0  0
  181.0850  177.2370  139.9560 C   0  0  1  0  0  3  0  0  0  0  0  0
  180.6200  179.2800  143.5870 C   0  0  0  0  0  3  0  0  0  0  0  0
  179.1270  179.2050  143.8570 C   0  0  0  0  0  2  0  0  0  0  0  0
  180.0350  178.1000  144.3440 C   0  0  0  0  0  2  0  0  0  0  0  0
  181.5180  181.3260  138.0790 C   0  0  0  0  0  2  0  0  0  0  0  0
  180.7750  180.0480  138.4320 C   0  0  0  0  0  3  0  0  0  0  0  0
  180.5740  180.7050  137.0770 C   0  0  0  0  0  2  0  0  0  0  0  0
  184.0780  178.8890  138.8350 C   0  0  0  0  0  2  0  0  0  0  0  0
  184.9360  179.7570  139.5150 O   0  0  0  0  0  1  0  0  0  0  0  0
  181.6220  176.6480  137.6600 O   0  0  0  0  0  0  0  0  0  0  0  0
  181.1370  176.7010  136.3390 C   0  0  2  0  0  3  0  0  0  0  0  0
  180.9560  175.0040  135.7010 S   0  0  0  0  0  0  0  0  0  0  0  0
  181.5330  174.2290  137.2500 C   0  0  1  0  0  3  0  0  0  0  0  0
  179.5830  174.0820  138.7880 C   0  0  0  0  0  2  0  0  0  0  0  0
  180.4420  173.4810  137.9650 C   0  0  0  0  0  3  0  0  0  0  0  0
  182.8060  173.4050  137.0520 C   0  0  0  0  0  2  0  0  0  0  0  0
  184.9910  173.1300  137.9690 O   0  0  0  0  0  0  0  0  0  0  0  0
  185.2080  173.7740  136.7380 C   0  0  1  0  0  3  0  0  0  0  0  0
  184.0460  174.1000  137.5910 C   0  0  1  0  0  3  0  0  0  0  0  0
  187.5300  174.2160  136.9730 O   0  0  0  0  0  1  0  0  0  0  0  0
  186.2790  174.8290  136.9120 C   0  0  0  0  0  2  0  0  0  0  0  0
  182.1240  177.4590  135.4650 C   0  0  0  0  0  2  0  0  0  0  0  0
  184.4350  177.1110  134.6620 C   0  0  0  0  0  1  0  0  0  0  0  0
  183.0600  176.4890  134.7720 C   0  0  0  0  0  2  0  0  0  0  0  0
  1  4  1  6  0  0  0
  1 11  1  0  0  0  0
  3 18  1  6  0  0  0
  3  9  1  0  0  0  0
  5 16  1  1  0  0  0
  5  1  1  0  0  0  0
  5  3  1  0  0  0  0
  6  7  1  0  0  0  0
  6  2  2  0  0  0  0
  7 12  1  0  0  0  0
  8  7  1  0  0  0  0
  9  6  1  1  0  0  0
 10  8  1  0  0  0  0
 11  9  1  0  0  0  0
 11 10  1  1  0  0  0
 12 13  1  0  0  0  0
 12 14  1  0  0  0  0
 13 14  1  0  0  0  0
 15 16  1  0  0  0  0
 17 15  1  0  0  0  0
 17 16  1  0  0  0  0
 18 19  1  0  0  0  0
 20  1  1  0  0  0  0
 21 32  1  6  0  0  0
 21 20  1  0  0  0  0
 22 21  1  0  0  0  0
 22 23  1  0  0  0  0
 23 26  1  6  0  0  0
 23 25  1  0  0  0  0
 25 24  2  0  0  0  0
 28 31  1  1  0  0  0
 28 29  1  0  0  0  0
 28 27  1  0  0  0  0
 29 26  1  6  0  0  0
 29 27  1  0  0  0  0
 31 30  1  0  0  0  0
 33 34  1  0  0  0  0
 34 32  1  0  0  0  0
M  END
>  <MODEL>
9

>  <REMARK>
 VINA RESULT:      -4.6      6.575     10.473
  Name = 
  13 active torsions:
  status: ('A' for Active; 'I' for Inactive)
    1  A    between atoms: C_1  and  O_8
    2  A    between atoms: C_3  and  N_25
    3  A    between atoms: C_5  and  C_19
    4  A    between atoms: S_6  and  C_18
    5  A    between atoms: S_6  and  C_28
    6  A    between atoms: O_8  and  C_18
    7  A    between atoms: C_11  and  C_21
    8  A    between atoms: C_12  and  N_20
    9  A    between atoms: C_16  and  C_28
   10  A    between atoms: C_18  and  C_30
   11  A    between atoms: C_26  and  C_28
   12  A    between atoms: C_26  and  C_29
   13  A    between atoms: C_30  and  C_31
                            x       y       z     vdW  Elec       q    Type
                         _______ _______ _______ _____ _____    ______ ____

>  <TORSDO>
F 13

$$$$
