=
 OpenBabel11052416483D

 32 37  0  0  1  0  0  0  0  0999 V2000
  180.7480  178.5250  142.5060 C   0  0  0  0  0  2  0  0  0  0  0  0
  185.8480  178.2870  142.7070 C   0  0  0  0  0  0  0  0  0  0  0  0
  186.7420  178.0700  147.5610 C   0  0  0  0  0  3  0  0  0  0  0  0
  188.0400  177.8380  147.3700 C   0  0  0  0  0  3  0  0  0  0  0  0
  187.7370  177.9640  141.1370 C   0  0  0  0  0  0  0  0  0  0  0  0
  189.1010  177.7190  141.0120 C   0  0  0  0  0  0  0  0  0  0  0  0
  183.5680  178.7010  141.8990 C   0  0  0  0  0  0  0  0  0  0  0  0
  183.9510  178.6290  144.3050 C   0  0  0  0  0  3  0  0  0  0  0  0
  191.2330  177.3250  141.6380 C   0  0  0  0  0  0  0  0  0  0  0  0
  181.6630  179.1210  143.5770 C   0  0  0  0  0  2  0  0  0  0  0  0
  185.8240  178.2500  146.4280 C   0  0  0  0  0  3  0  0  0  0  0  0
  185.3470  178.3630  144.0630 N   0  0  0  0  0  0  0  0  0  0  0  0
  186.2500  178.1880  145.1600 C   0  0  2  0  0  3  0  0  0  0  0  0
  188.0850  177.8730  143.5820 C   0  0  0  0  0  0  0  0  0  0  0  0
  191.2210  177.3450  140.1410 C   0  0  0  0  0  2  0  0  0  0  0  0
  182.5770  178.8760  140.8230 C   0  0  0  0  0  0  0  0  0  0  0  0
  183.0930  178.7750  143.2960 C   0  0  0  0  0  0  0  0  0  0  0  0
  189.8410  177.5990  139.8390 O   0  0  0  0  0  0  0  0  0  0  0  0
  182.9470  179.0090  139.6240 O   0  0  0  0  0  0  0  0  0  0  0  0
  181.1810  178.9270  141.1660 N   0  0  0  0  0  0  0  0  0  0  0  0
  188.6550  177.7420  146.0000 C   0  0  0  0  0  3  0  0  0  0  0  0
  187.6690  177.9340  144.8650 C   0  0  0  0  0  0  0  0  0  0  0  0
  189.4130  177.6350  143.3550 N   0  0  0  0  0  0  0  0  0  0  0  0
  184.8550  178.4760  141.6280 C   0  0  0  0  0  3  0  0  0  0  0  0
  186.8630  178.1430  139.6120 Cl  0  0  0  0  0  0  0  0  0  0  0  0
  192.2410  177.1340  142.3670 O   0  0  0  0  0  0  0  0  0  0  0  0
  187.1780  178.0500  142.4650 C   0  0  0  0  0  0  0  0  0  0  0  0
  189.8890  177.5640  142.0970 C   0  0  0  0  0  0  0  0  0  0  0  0
  180.1940  179.4370  140.2170 C   0  0  0  0  0  2  0  0  0  0  0  0
  180.1140  180.9650  140.2180 C   0  0  0  0  0  3  0  0  0  0  0  0
  180.0780  181.5380  138.8140 C   0  0  0  0  0  1  0  0  0  0  0  0
  178.9320  181.4670  141.0250 C   0  0  0  0  0  1  0  0  0  0  0  0
  1 10  1  0  0  0  0
  2 12  1  0  0  0  0
  4  3  1  0  0  0  0
  5 27  1  0  0  0  0
  6  5  2  0  0  0  0
  6 28  1  0  0  0  0
  7 17  1  0  0  0  0
  9 28  1  0  0  0  0
  9 26  2  0  0  0  0
 11  3  2  0  0  0  0
 12  8  1  0  0  0  0
 12 13  1  0  0  0  0
 13 11  1  6  0  0  0
 14 22  2  0  0  0  0
 15  9  1  0  0  0  0
 16 20  1  0  0  0  0
 16  7  1  0  0  0  0
 17 10  1  0  0  0  0
 17  8  2  0  0  0  0
 18 15  1  0  0  0  0
 18  6  1  0  0  0  0
 19 16  2  0  0  0  0
 20  1  1  0  0  0  0
 21  4  2  0  0  0  0
 22 13  1  0  0  0  0
 22 21  1  0  0  0  0
 23 14  1  0  0  0  0
 24  7  2  0  0  0  0
 24  2  1  0  0  0  0
 25  5  1  0  0  0  0
 27  2  2  0  0  0  0
 27 14  1  0  0  0  0
 28 23  2  0  0  0  0
 29 30  1  0  0  0  0
 29 20  1  0  0  0  0
 30 32  1  0  0  0  0
 31 30  1  0  0  0  0
M  END
>  <MODEL>
1

>  <REMARK>
 VINA RESULT:     -10.4      0.000      0.000
  Name = 
  2 active torsions:
  status: ('A' for Active; 'I' for Inactive)
    1  A    between atoms: C_1  and  C_10
    2  A    between atoms: C_10  and  N_24
                            x       y       z     vdW  Elec       q    Type
                         _______ _______ _______ _____ _____    ______ ____

>  <TORSDO>
F 2

$$$$
=
 OpenBabel11052416483D

 32 37  0  0  0  0  0  0  0  0999 V2000
  183.0410  178.2540  144.9150 C   0  0  0  0  0  2  0  0  0  0  0  0
  187.6150  177.8780  142.6700 C   0  0  0  0  0  0  0  0  0  0  0  0
  190.6430  177.0590  146.4870 C   0  0  0  0  0  3  0  0  0  0  0  0
  191.6810  176.8220  145.6870 C   0  0  0  0  0  3  0  0  0  0  0  0
  188.5270  177.7020  140.3730 C   0  0  0  0  0  0  0  0  0  0  0  0
  189.6530  177.4430  139.5990 C   0  0  0  0  0  0  0  0  0  0  0  0
  185.2590  178.4370  143.0730 C   0  0  0  0  0  0  0  0  0  0  0  0
  186.7100  178.0690  144.9970 C   0  0  0  0  0  3  0  0  0  0  0  0
  191.7950  176.9280  139.1080 C   0  0  0  0  0  0  0  0  0  0  0  0
  184.3910  178.6960  145.4820 C   0  0  0  0  0  2  0  0  0  0  0  0
  189.3200  177.3950  145.9420 C   0  0  0  0  0  3  0  0  0  0  0  0
  187.8080  177.8020  144.1030 N   0  0  0  0  0  0  0  0  0  0  0  0
  189.1010  177.4750  144.6240 C   0  0  0  0  0  0  0  0  0  0  0  0
  189.9630  177.3100  142.3460 C   0  0  0  0  0  0  0  0  0  0  0  0
  191.0900  177.1280  137.8020 C   0  0  0  0  0  2  0  0  0  0  0  0
  183.8980  178.7620  142.6120 C   0  0  0  0  0  0  0  0  0  0  0  0
  185.4960  178.3540  144.5290 C   0  0  0  0  0  0  0  0  0  0  0  0
  189.7520  177.4480  138.2100 O   0  0  0  0  0  0  0  0  0  0  0  0
  183.6780  179.0300  141.3990 O   0  0  0  0  0  0  0  0  0  0  0  0
  182.8310  178.8040  143.5740 N   0  0  0  0  0  0  0  0  0  0  0  0
  191.5790  176.8770  144.1860 C   0  0  0  0  0  2  0  0  0  0  0  0
  190.1970  177.2260  143.6730 C   0  0  0  0  0  0  0  0  0  0  0  0
  191.0110  177.0720  141.5000 N   0  0  0  0  0  0  0  0  0  0  0  0
  186.2520  178.2170  142.2090 C   0  0  0  0  0  3  0  0  0  0  0  0
  187.0610  178.0830  139.4630 Cl  0  0  0  0  0  0  0  0  0  0  0  0
  193.0080  176.6280  139.2550 O   0  0  0  0  0  0  0  0  0  0  0  0
  188.6570  177.6410  141.8090 C   0  0  0  0  0  0  0  0  0  0  0  0
  190.8410  177.1410  140.1650 C   0  0  0  0  0  0  0  0  0  0  0  0
  181.5580  179.4460  143.2540 C   0  0  0  0  0  2  0  0  0  0  0  0
  180.3700  178.4870  143.3790 C   0  0  0  0  0  3  0  0  0  0  0  0
  179.3170  179.0030  144.3410 C   0  0  0  0  0  1  0  0  0  0  0  0
  179.7490  178.1810  142.0290 C   0  0  0  0  0  1  0  0  0  0  0  0
  1 10  1  0  0  0  0
  2 12  1  0  0  0  0
  4  3  2  0  0  0  0
  5 27  1  0  0  0  0
  6 28  1  0  0  0  0
  6  5  2  0  0  0  0
  7 17  1  0  0  0  0
  9 26  2  0  0  0  0
  9 28  1  0  0  0  0
 11  3  1  0  0  0  0
 12 13  1  0  0  0  0
 12  8  1  0  0  0  0
 13 11  2  0  0  0  0
 14 22  2  0  0  0  0
 15 18  1  0  0  0  0
 15  9  1  0  0  0  0
 16  7  1  0  0  0  0
 16 20  1  0  0  0  0
 17  8  2  0  0  0  0
 17 10  1  0  0  0  0
 18  6  1  0  0  0  0
 19 16  2  0  0  0  0
 20  1  1  0  0  0  0
 21  4  1  0  0  0  0
 22 21  1  0  0  0  0
 22 13  1  0  0  0  0
 23 14  1  0  0  0  0
 24  2  1  0  0  0  0
 24  7  2  0  0  0  0
 25  5  1  0  0  0  0
 27 14  1  0  0  0  0
 27  2  2  0  0  0  0
 28 23  2  0  0  0  0
 29 30  1  0  0  0  0
 29 20  1  0  0  0  0
 30 31  1  0  0  0  0
 32 30  1  0  0  0  0
M  END
>  <MODEL>
2

>  <REMARK>
 VINA RESULT:     -10.3      1.919      2.933
  Name = 
  2 active torsions:
  status: ('A' for Active; 'I' for Inactive)
    1  A    between atoms: C_1  and  C_10
    2  A    between atoms: C_10  and  N_24
                            x       y       z     vdW  Elec       q    Type
                         _______ _______ _______ _____ _____    ______ ____

>  <TORSDO>
F 2

$$$$
=
 OpenBabel11052416483D

 32 37  0  0  1  0  0  0  0  0999 V2000
  187.4450  177.3120  137.3330 C   0  0  0  0  0  2  0  0  0  0  0  0
  187.6630  177.8810  142.4070 C   0  0  0  0  0  0  0  0  0  0  0  0
  183.0130  179.0770  143.5720 C   0  0  0  0  0  3  0  0  0  0  0  0
  183.2590  178.9940  144.8790 C   0  0  0  0  0  3  0  0  0  0  0  0
  189.2690  177.4360  144.2400 C   0  0  0  0  0  0  0  0  0  0  0  0
  189.4540  177.3690  145.6160 C   0  0  0  0  0  0  0  0  0  0  0  0
  188.3340  177.7300  140.0500 C   0  0  0  0  0  0  0  0  0  0  0  0
  186.0330  178.3490  140.5640 C   0  0  0  0  0  3  0  0  0  0  0  0
  188.9480  177.4680  147.8140 C   0  0  0  0  0  0  0  0  0  0  0  0
  186.6470  178.2940  138.1910 C   0  0  0  0  0  2  0  0  0  0  0  0
  184.0650  178.8170  142.5800 C   0  0  0  0  0  3  0  0  0  0  0  0
  186.3290  178.2360  141.9700 N   0  0  0  0  0  0  0  0  0  0  0  0
  185.3110  178.4880  142.9440 C   0  0  2  0  0  3  0  0  0  0  0  0
  186.9210  178.0410  144.7230 C   0  0  0  0  0  0  0  0  0  0  0  0
  190.3950  177.0920  147.7220 C   0  0  0  0  0  2  0  0  0  0  0  0
  189.3240  177.4710  138.9900 C   0  0  0  0  0  0  0  0  0  0  0  0
  186.9630  178.0990  139.6430 C   0  0  0  0  0  0  0  0  0  0  0  0
  190.6220  177.0540  146.3050 O   0  0  0  0  0  0  0  0  0  0  0  0
  190.5470  177.3370  139.2720 O   0  0  0  0  0  0  0  0  0  0  0  0
  188.8770  177.4060  137.6250 N   0  0  0  0  0  0  0  0  0  0  0  0
  184.6120  178.6330  145.4300 C   0  0  0  0  0  3  0  0  0  0  0  0
  185.6630  178.3750  144.3690 C   0  0  0  0  0  0  0  0  0  0  0  0
  187.2030  177.9490  146.0590 N   0  0  0  0  0  0  0  0  0  0  0  0
  188.6580  177.6330  141.3420 C   0  0  0  0  0  3  0  0  0  0  0  0
  190.7030  177.0800  143.2710 Cl  0  0  0  0  0  0  0  0  0  0  0  0
  188.2900  177.6240  148.8760 O   0  0  0  0  0  0  0  0  0  0  0  0
  187.9590  177.7850  143.7420 C   0  0  0  0  0  0  0  0  0  0  0  0
  188.4420  177.6200  146.4750 C   0  0  0  0  0  0  0  0  0  0  0  0
  189.8290  177.4990  136.5200 C   0  0  0  0  0  2  0  0  0  0  0  0
  190.3080  176.1260  136.0420 C   0  0  0  0  0  3  0  0  0  0  0  0
  189.9230  175.8560  134.6000 C   0  0  0  0  0  1  0  0  0  0  0  0
  191.8030  175.9530  136.2320 C   0  0  0  0  0  1  0  0  0  0  0  0
  1 20  1  0  0  0  0
  1 10  1  0  0  0  0
  2 27  2  0  0  0  0
  3  4  1  0  0  0  0
  4 21  2  0  0  0  0
  5  6  2  0  0  0  0
  6 18  1  0  0  0  0
  6 28  1  0  0  0  0
  7 24  2  0  0  0  0
  8 12  1  0  0  0  0
  9 26  2  0  0  0  0
 10 17  1  0  0  0  0
 11  3  2  0  0  0  0
 12  2  1  0  0  0  0
 12 13  1  0  0  0  0
 13 11  1  6  0  0  0
 13 22  1  0  0  0  0
 14 23  1  0  0  0  0
 15  9  1  0  0  0  0
 16 19  2  0  0  0  0
 16  7  1  0  0  0  0
 17  7  1  0  0  0  0
 17  8  2  0  0  0  0
 18 15  1  0  0  0  0
 20 16  1  0  0  0  0
 22 14  2  0  0  0  0
 22 21  1  0  0  0  0
 23 28  2  0  0  0  0
 24  2  1  0  0  0  0
 25  5  1  0  0  0  0
 27  5  1  0  0  0  0
 27 14  1  0  0  0  0
 28  9  1  0  0  0  0
 29 20  1  0  0  0  0
 30 32  1  0  0  0  0
 30 29  1  0  0  0  0
 31 30  1  0  0  0  0
M  END
>  <MODEL>
3

>  <REMARK>
 VINA RESULT:     -10.1      3.058      6.717
  Name = 
  2 active torsions:
  status: ('A' for Active; 'I' for Inactive)
    1  A    between atoms: C_1  and  C_10
    2  A    between atoms: C_10  and  N_24
                            x       y       z     vdW  Elec       q    Type
                         _______ _______ _______ _____ _____    ______ ____

>  <TORSDO>
F 2

$$$$
=
 OpenBabel11052416483D

 32 37  0  0  1  0  0  0  0  0999 V2000
  191.2580  177.2230  137.8960 C   0  0  0  0  0  2  0  0  0  0  0  0
  188.4100  177.4150  142.1340 C   0  0  0  0  0  0  0  0  0  0  0  0
  191.6810  176.3960  145.6950 C   0  0  0  0  0  3  0  0  0  0  0  0
  190.8030  176.6720  146.6580 C   0  0  0  0  0  3  0  0  0  0  0  0
  186.1300  178.1300  142.7870 C   0  0  0  0  0  0  0  0  0  0  0  0
  185.2680  178.4020  143.8430 C   0  0  0  0  0  0  0  0  0  0  0  0
  189.0650  177.2150  139.7770 C   0  0  0  0  0  0  0  0  0  0  0  0
  190.7130  176.6740  141.4890 C   0  0  0  0  0  3  0  0  0  0  0  0
  184.5580  178.6300  145.9740 C   0  0  0  0  0  0  0  0  0  0  0  0
  191.4190  176.3780  139.1600 C   0  0  0  0  0  2  0  0  0  0  0  0
  191.3150  176.5070  144.2760 C   0  0  0  0  0  3  0  0  0  0  0  0
  189.7460  176.9960  142.5060 N   0  0  0  0  0  0  0  0  0  0  0  0
  190.0910  176.8900  143.8920 C   0  0  2  0  0  3  0  0  0  0  0  0
  187.8350  177.5990  144.4950 C   0  0  0  0  0  0  0  0  0  0  0  0
  183.4010  178.9910  145.0940 C   0  0  0  0  0  2  0  0  0  0  0  0
  188.7880  177.3160  138.3330 C   0  0  0  0  0  0  0  0  0  0  0  0
  190.4150  176.7870  140.1950 C   0  0  0  0  0  0  0  0  0  0  0  0
  183.9410  178.8180  143.7750 O   0  0  0  0  0  0  0  0  0  0  0  0
  187.6110  177.4920  137.9160 O   0  0  0  0  0  0  0  0  0  0  0  0
  189.8780  177.1760  137.4060 N   0  0  0  0  0  0  0  0  0  0  0  0
  189.3940  177.1140  146.3720 C   0  0  0  0  0  3  0  0  0  0  0  0
  189.0650  177.2140  144.8960 C   0  0  0  0  0  0  0  0  0  0  0  0
  186.9130  177.8900  145.4640 N   0  0  0  0  0  0  0  0  0  0  0  0
  188.1300  177.5040  140.6860 C   0  0  0  0  0  3  0  0  0  0  0  0
  185.4350  178.3420  141.1760 Cl  0  0  0  0  0  0  0  0  0  0  0  0
  184.5580  178.6320  147.2320 O   0  0  0  0  0  0  0  0  0  0  0  0
  187.4760  177.7090  143.0940 C   0  0  0  0  0  0  0  0  0  0  0  0
  185.6680  178.2800  145.1270 C   0  0  0  0  0  0  0  0  0  0  0  0
  189.6290  176.9210  135.9890 C   0  0  0  0  0  2  0  0  0  0  0  0
  189.4500  175.4320  135.6840 C   0  0  0  0  0  3  0  0  0  0  0  0
  188.0690  175.1220  135.1380 C   0  0  0  0  0  1  0  0  0  0  0  0
  190.5200  174.9170  134.7390 C   0  0  0  0  0  1  0  0  0  0  0  0
  1 10  1  0  0  0  0
  2 12  1  0  0  0  0
  2 27  2  0  0  0  0
  3  4  1  0  0  0  0
  5 27  1  0  0  0  0
  5  6  2  0  0  0  0
  6 28  1  0  0  0  0
  7 17  1  0  0  0  0
  7 24  2  0  0  0  0
  8 12  1  0  0  0  0
  9 26  2  0  0  0  0
 10 17  1  0  0  0  0
 11  3  2  0  0  0  0
 12 13  1  0  0  0  0
 13 11  1  6  0  0  0
 13 22  1  0  0  0  0
 14 22  2  0  0  0  0
 14 23  1  0  0  0  0
 15  9  1  0  0  0  0
 16  7  1  0  0  0  0
 17  8  2  0  0  0  0
 18  6  1  0  0  0  0
 18 15  1  0  0  0  0
 19 16  2  0  0  0  0
 20  1  1  0  0  0  0
 20 16  1  0  0  0  0
 21  4  2  0  0  0  0
 22 21  1  0  0  0  0
 24  2  1  0  0  0  0
 25  5  1  0  0  0  0
 27 14  1  0  0  0  0
 28 23  2  0  0  0  0
 28  9  1  0  0  0  0
 29 20  1  0  0  0  0
 30 29  1  0  0  0  0
 31 30  1  0  0  0  0
 32 30  1  0  0  0  0
M  END
>  <MODEL>
4

>  <REMARK>
 VINA RESULT:     -10.1      3.419      7.240
  Name = 
  2 active torsions:
  status: ('A' for Active; 'I' for Inactive)
    1  A    between atoms: C_1  and  C_10
    2  A    between atoms: C_10  and  N_24
                            x       y       z     vdW  Elec       q    Type
                         _______ _______ _______ _____ _____    ______ ____

>  <TORSDO>
F 2

$$$$
=
 OpenBabel11052416483D

 32 37  0  0  1  0  0  0  0  0999 V2000
  191.8860  177.5510  140.4180 C   0  0  0  0  0  2  0  0  0  0  0  0
  187.1830  177.8930  142.3880 C   0  0  0  0  0  0  0  0  0  0  0  0
  188.0320  177.8640  147.2550 C   0  0  0  0  0  3  0  0  0  0  0  0
  186.7590  178.1350  147.5370 C   0  0  0  0  0  3  0  0  0  0  0  0
  184.8830  178.3440  141.5880 C   0  0  0  0  0  0  0  0  0  0  0  0
  183.5710  178.6260  141.9550 C   0  0  0  0  0  0  0  0  0  0  0  0
  189.0260  177.4730  140.8210 C   0  0  0  0  0  0  0  0  0  0  0  0
  189.5000  177.4210  143.2120 C   0  0  0  0  0  3  0  0  0  0  0  0
  181.8040  179.0330  143.3000 C   0  0  0  0  0  0  0  0  0  0  0  0
  191.3750  176.9190  141.7140 C   0  0  0  0  0  2  0  0  0  0  0  0
  188.4940  177.7260  145.8670 C   0  0  0  0  0  3  0  0  0  0  0  0
  188.1190  177.7310  143.4810 N   0  0  0  0  0  0  0  0  0  0  0  0
  187.6590  177.8670  144.8300 C   0  0  2  0  0  3  0  0  0  0  0  0
  185.4060  178.3090  144.0030 C   0  0  0  0  0  0  0  0  0  0  0  0
  181.2980  179.0950  141.8920 C   0  0  0  0  0  2  0  0  0  0  0  0
  189.5750  177.3350  139.4620 C   0  0  0  0  0  0  0  0  0  0  0  0
  189.9500  177.3120  141.9620 C   0  0  0  0  0  0  0  0  0  0  0  0
  182.4760  178.8270  141.1190 O   0  0  0  0  0  0  0  0  0  0  0  0
  188.8080  177.2760  138.4610 O   0  0  0  0  0  0  0  0  0  0  0  0
  191.0000  177.2330  139.2960 N   0  0  0  0  0  0  0  0  0  0  0  0
  185.7120  178.3200  146.4710 C   0  0  0  0  0  3  0  0  0  0  0  0
  186.2370  178.1690  145.0570 C   0  0  0  0  0  0  0  0  0  0  0  0
  184.0920  178.5880  144.2620 N   0  0  0  0  0  0  0  0  0  0  0  0
  187.7340  177.7410  141.0250 C   0  0  0  0  0  3  0  0  0  0  0  0
  185.1670  178.2290  139.8480 Cl  0  0  0  0  0  0  0  0  0  0  0  0
  181.1190  179.2070  144.3410 O   0  0  0  0  0  0  0  0  0  0  0  0
  185.8630  178.1720  142.6330 C   0  0  0  0  0  0  0  0  0  0  0  0
  183.2130  178.7400  143.2520 C   0  0  0  0  0  0  0  0  0  0  0  0
  191.5770  176.7550  138.0420 C   0  0  0  0  0  2  0  0  0  0  0  0
  191.7150  175.2300  138.0050 C   0  0  0  0  0  3  0  0  0  0  0  0
  190.6760  174.5830  137.1080 C   0  0  0  0  0  1  0  0  0  0  0  0
  193.1110  174.8010  137.5930 C   0  0  0  0  0  1  0  0  0  0  0  0
  1 10  1  0  0  0  0
  2 27  2  0  0  0  0
  2 12  1  0  0  0  0
  3  4  1  0  0  0  0
  5  6  2  0  0  0  0
  5 27  1  0  0  0  0
  6 28  1  0  0  0  0
  7 24  2  0  0  0  0
  7 17  1  0  0  0  0
  8 12  1  0  0  0  0
  9 26  2  0  0  0  0
 10 17  1  0  0  0  0
 11  3  2  0  0  0  0
 12 13  1  0  0  0  0
 13 22  1  0  0  0  0
 13 11  1  6  0  0  0
 14 23  1  0  0  0  0
 14 22  2  0  0  0  0
 15  9  1  0  0  0  0
 16  7  1  0  0  0  0
 17  8  2  0  0  0  0
 18 15  1  0  0  0  0
 18  6  1  0  0  0  0
 19 16  2  0  0  0  0
 20 16  1  0  0  0  0
 20  1  1  0  0  0  0
 21  4  2  0  0  0  0
 22 21  1  0  0  0  0
 24  2  1  0  0  0  0
 25  5  1  0  0  0  0
 27 14  1  0  0  0  0
 28  9  1  0  0  0  0
 28 23  2  0  0  0  0
 29 20  1  0  0  0  0
 30 29  1  0  0  0  0
 31 30  1  0  0  0  0
 32 30  1  0  0  0  0
M  END
>  <MODEL>
5

>  <REMARK>
 VINA RESULT:      -9.9      1.878      7.586
  Name = 
  2 active torsions:
  status: ('A' for Active; 'I' for Inactive)
    1  A    between atoms: C_1  and  C_10
    2  A    between atoms: C_10  and  N_24
                            x       y       z     vdW  Elec       q    Type
                         _______ _______ _______ _____ _____    ______ ____

>  <TORSDO>
F 2

$$$$
=
 OpenBabel11052416483D

 32 37  0  0  1  0  0  0  0  0999 V2000
  183.3710  179.7350  139.0940 C   0  0  0  0  0  2  0  0  0  0  0  0
  186.6620  178.1770  142.6780 C   0  0  0  0  0  0  0  0  0  0  0  0
  190.8320  177.5040  140.1150 C   0  0  0  0  0  3  0  0  0  0  0  0
  191.5450  177.2960  141.2200 C   0  0  0  0  0  3  0  0  0  0  0  0
  186.7480  178.0110  145.1480 C   0  0  0  0  0  0  0  0  0  0  0  0
  187.5530  177.7840  146.2590 C   0  0  0  0  0  0  0  0  0  0  0  0
  184.5660  178.6720  141.4990 C   0  0  0  0  0  0  0  0  0  0  0  0
  186.5860  178.3250  140.1800 C   0  0  0  0  0  3  0  0  0  0  0  0
  189.4200  177.3430  147.4490 C   0  0  0  0  0  0  0  0  0  0  0  0
  184.5210  178.7400  138.9270 C   0  0  0  0  0  2  0  0  0  0  0  0
  189.3910  177.7850  140.1780 C   0  0  0  0  0  3  0  0  0  0  0  0
  187.3320  178.1210  141.3960 N   0  0  0  0  0  0  0  0  0  0  0  0
  188.7360  177.8450  141.3450 C   0  0  2  0  0  3  0  0  0  0  0  0
  188.7810  177.6910  143.7800 C   0  0  0  0  0  0  0  0  0  0  0  0
  188.3070  177.5040  148.4380 C   0  0  0  0  0  2  0  0  0  0  0  0
  183.1250  178.9760  141.4730 C   0  0  0  0  0  0  0  0  0  0  0  0
  185.2830  178.6030  140.2100 C   0  0  0  0  0  0  0  0  0  0  0  0
  187.1760  177.7780  147.5990 O   0  0  0  0  0  0  0  0  0  0  0  0
  182.4260  178.8640  142.5170 O   0  0  0  0  0  0  0  0  0  0  0  0
  182.5210  179.3680  140.2280 N   0  0  0  0  0  0  0  0  0  0  0  0
  190.9400  177.3340  142.5980 C   0  0  0  0  0  3  0  0  0  0  0  0
  189.4530  177.6270  142.6110 C   0  0  0  0  0  0  0  0  0  0  0  0
  189.4880  177.4810  144.9320 N   0  0  0  0  0  0  0  0  0  0  0  0
  185.2130  178.4690  142.6490 C   0  0  0  0  0  3  0  0  0  0  0  0
  185.0460  178.3230  145.5060 Cl  0  0  0  0  0  0  0  0  0  0  0  0
  190.6220  177.0890  147.7220 O   0  0  0  0  0  0  0  0  0  0  0  0
  187.3590  177.9680  143.8410 C   0  0  0  0  0  0  0  0  0  0  0  0
  188.8730  177.5310  146.1300 C   0  0  0  0  0  0  0  0  0  0  0  0
  181.0700  179.3450  140.0590 C   0  0  0  0  0  2  0  0  0  0  0  0
  180.5470  177.9560  139.6810 C   0  0  0  0  0  3  0  0  0  0  0  0
  179.7060  177.3420  140.7840 C   0  0  0  0  0  1  0  0  0  0  0  0
  179.7720  177.9820  138.3770 C   0  0  0  0  0  1  0  0  0  0  0  0
  1 20  1  0  0  0  0
  2 27  2  0  0  0  0
  3 11  2  0  0  0  0
  3  4  1  0  0  0  0
  4 21  2  0  0  0  0
  5 25  1  0  0  0  0
  5  6  2  0  0  0  0
  6 18  1  0  0  0  0
  7 24  2  0  0  0  0
  8 17  2  0  0  0  0
  8 12  1  0  0  0  0
  9 26  2  0  0  0  0
  9 15  1  0  0  0  0
 10  1  1  0  0  0  0
 10 17  1  0  0  0  0
 12  2  1  0  0  0  0
 13 11  1  1  0  0  0
 13 12  1  0  0  0  0
 13 22  1  0  0  0  0
 14 27  1  0  0  0  0
 14 23  1  0  0  0  0
 16  7  1  0  0  0  0
 16 19  2  0  0  0  0
 17  7  1  0  0  0  0
 18 15  1  0  0  0  0
 20 16  1  0  0  0  0
 21 22  1  0  0  0  0
 22 14  2  0  0  0  0
 23 28  2  0  0  0  0
 24  2  1  0  0  0  0
 27  5  1  0  0  0  0
 28  6  1  0  0  0  0
 28  9  1  0  0  0  0
 29 20  1  0  0  0  0
 30 29  1  0  0  0  0
 30 31  1  0  0  0  0
 32 30  1  0  0  0  0
M  END
>  <MODEL>
6

>  <REMARK>
 VINA RESULT:      -9.9      2.571      4.704
  Name = 
  2 active torsions:
  status: ('A' for Active; 'I' for Inactive)
    1  A    between atoms: C_1  and  C_10
    2  A    between atoms: C_10  and  N_24
                            x       y       z     vdW  Elec       q    Type
                         _______ _______ _______ _____ _____    ______ ____

>  <TORSDO>
F 2

$$$$
=
 OpenBabel11052416483D

 32 37  0  0  1  0  0  0  0  0999 V2000
  189.7040  176.6660  136.9500 C   0  0  0  0  0  2  0  0  0  0  0  0
  188.9270  177.5280  141.9270 C   0  0  0  0  0  0  0  0  0  0  0  0
  184.2140  179.0030  142.0570 C   0  0  0  0  0  3  0  0  0  0  0  0
  184.1860  178.9870  143.3890 C   0  0  0  0  0  3  0  0  0  0  0  0
  190.1030  177.1210  144.0690 C   0  0  0  0  0  0  0  0  0  0  0  0
  190.0030  177.1280  145.4560 C   0  0  0  0  0  0  0  0  0  0  0  0
  190.0500  177.2060  139.7680 C   0  0  0  0  0  0  0  0  0  0  0  0
  187.7320  177.9590  139.7690 C   0  0  0  0  0  3  0  0  0  0  0  0
  189.0710  177.3820  147.4960 C   0  0  0  0  0  0  0  0  0  0  0  0
  188.8060  177.7330  137.5770 C   0  0  0  0  0  2  0  0  0  0  0  0
  185.4280  178.6360  141.3150 C   0  0  0  0  0  3  0  0  0  0  0  0
  187.7310  177.9160  141.2090 N   0  0  0  0  0  0  0  0  0  0  0  0
  186.5540  178.2720  141.9420 C   0  0  2  0  0  3  0  0  0  0  0  0
  187.7450  177.8600  144.0310 C   0  0  0  0  0  0  0  0  0  0  0  0
  190.4830  176.9360  147.7200 C   0  0  0  0  0  2  0  0  0  0  0  0
  191.2160  176.8380  138.9460 C   0  0  0  0  0  0  0  0  0  0  0  0
  188.8130  177.6110  139.0710 C   0  0  0  0  0  0  0  0  0  0  0  0
  190.9890  176.8020  146.3830 O   0  0  0  0  0  0  0  0  0  0  0  0
  192.3480  176.6660  139.4770 O   0  0  0  0  0  0  0  0  0  0  0  0
  191.0510  176.7120  137.5230 N   0  0  0  0  0  0  0  0  0  0  0  0
  185.3780  178.5990  144.2220 C   0  0  0  0  0  3  0  0  0  0  0  0
  186.6040  178.2290  143.4120 C   0  0  0  0  0  0  0  0  0  0  0  0
  187.7460  177.8360  145.4000 N   0  0  0  0  0  0  0  0  0  0  0  0
  190.1010  177.1710  141.1010 C   0  0  0  0  0  3  0  0  0  0  0  0
  191.6810  176.6420  143.4320 Cl  0  0  0  0  0  0  0  0  0  0  0  0
  188.2240  177.6310  148.3920 O   0  0  0  0  0  0  0  0  0  0  0  0
  188.9430  177.4990  143.2980 C   0  0  0  0  0  0  0  0  0  0  0  0
  188.8550  177.4760  146.0760 C   0  0  0  0  0  0  0  0  0  0  0  0
  192.2100  176.6960  136.6330 C   0  0  0  0  0  2  0  0  0  0  0  0
  192.4140  175.3340  135.9630 C   0  0  0  0  0  3  0  0  0  0  0  0
  193.0820  175.4580  134.6070 C   0  0  0  0  0  1  0  0  0  0  0  0
  193.1920  174.3800  136.8500 C   0  0  0  0  0  1  0  0  0  0  0  0
  1 20  1  0  0  0  0
  1 10  1  0  0  0  0
  2 27  2  0  0  0  0
  3  4  1  0  0  0  0
  4 21  2  0  0  0  0
  5  6  2  0  0  0  0
  6 28  1  0  0  0  0
  6 18  1  0  0  0  0
  7 24  2  0  0  0  0
  8 12  1  0  0  0  0
  9 15  1  0  0  0  0
  9 26  2  0  0  0  0
 10 17  1  0  0  0  0
 11  3  2  0  0  0  0
 12  2  1  0  0  0  0
 12 13  1  0  0  0  0
 13 11  1  6  0  0  0
 13 22  1  0  0  0  0
 14 23  1  0  0  0  0
 16 19  2  0  0  0  0
 16  7  1  0  0  0  0
 17  7  1  0  0  0  0
 17  8  2  0  0  0  0
 18 15  1  0  0  0  0
 20 16  1  0  0  0  0
 22 14  2  0  0  0  0
 22 21  1  0  0  0  0
 23 28  2  0  0  0  0
 24  2  1  0  0  0  0
 25  5  1  0  0  0  0
 27 14  1  0  0  0  0
 27  5  1  0  0  0  0
 28  9  1  0  0  0  0
 29 20  1  0  0  0  0
 30 29  1  0  0  0  0
 30 32  1  0  0  0  0
 31 30  1  0  0  0  0
M  END
>  <MODEL>
7

>  <REMARK>
 VINA RESULT:      -9.4      3.408      7.845
  Name = 
  2 active torsions:
  status: ('A' for Active; 'I' for Inactive)
    1  A    between atoms: C_1  and  C_10
    2  A    between atoms: C_10  and  N_24
                            x       y       z     vdW  Elec       q    Type
                         _______ _______ _______ _____ _____    ______ ____

>  <TORSDO>
F 2

$$$$
=
 OpenBabel11052416483D

 32 37  0  0  1  0  0  0  0  0999 V2000
  190.7510  176.6100  137.3570 C   0  0  0  0  0  2  0  0  0  0  0  0
  187.9360  177.9100  141.4180 C   0  0  0  0  0  0  0  0  0  0  0  0
  183.5870  179.1000  139.3980 C   0  0  0  0  0  3  0  0  0  0  0  0
  183.0010  179.2140  140.5880 C   0  0  0  0  0  3  0  0  0  0  0  0
  188.1040  177.7890  143.8870 C   0  0  0  0  0  0  0  0  0  0  0  0
  187.4270  177.9260  145.0950 C   0  0  0  0  0  0  0  0  0  0  0  0
  189.8690  177.4450  139.9790 C   0  0  0  0  0  0  0  0  0  0  0  0
  187.7560  178.0520  138.9250 C   0  0  0  0  0  3  0  0  0  0  0  0
  185.7190  178.3220  146.5150 C   0  0  0  0  0  0  0  0  0  0  0  0
  189.6580  177.6780  137.4240 C   0  0  0  0  0  2  0  0  0  0  0  0
  185.0060  178.7370  139.2780 C   0  0  0  0  0  3  0  0  0  0  0  0
  187.1490  178.1520  140.2280 N   0  0  0  0  0  0  0  0  0  0  0  0
  185.7670  178.5060  140.3550 C   0  0  2  0  0  3  0  0  0  0  0  0
  185.9710  178.3750  142.7830 C   0  0  0  0  0  0  0  0  0  0  0  0
  186.9100  177.9870  147.3580 C   0  0  0  0  0  2  0  0  0  0  0  0
  191.2780  177.0710  139.7680 C   0  0  0  0  0  0  0  0  0  0  0  0
  189.0350  177.7040  138.7870 C   0  0  0  0  0  0  0  0  0  0  0  0
  187.9340  177.7540  146.3800 O   0  0  0  0  0  0  0  0  0  0  0  0
  192.0820  177.0210  140.7390 O   0  0  0  0  0  0  0  0  0  0  0  0
  191.7300  176.7950  138.4310 N   0  0  0  0  0  0  0  0  0  0  0  0
  183.7340  178.9830  141.8820 C   0  0  0  0  0  3  0  0  0  0  0  0
  185.1930  178.6110  141.7070 C   0  0  0  0  0  0  0  0  0  0  0  0
  185.3950  178.4860  144.0200 N   0  0  0  0  0  0  0  0  0  0  0  0
  189.3530  177.5460  141.2060 C   0  0  0  0  0  3  0  0  0  0  0  0
  189.8090  177.3460  144.0270 Cl  0  0  0  0  0  0  0  0  0  0  0  0
  184.5690  178.6060  146.9400 O   0  0  0  0  0  0  0  0  0  0  0  0
  187.3720  178.0170  142.6640 C   0  0  0  0  0  0  0  0  0  0  0  0
  186.1200  178.2630  145.1340 C   0  0  0  0  0  0  0  0  0  0  0  0
  193.1560  176.7610  138.1140 C   0  0  0  0  0  2  0  0  0  0  0  0
  193.5250  175.5910  137.1990 C   0  0  0  0  0  3  0  0  0  0  0  0
  194.3020  176.0430  135.9770 C   0  0  0  0  0  1  0  0  0  0  0  0
  194.2910  174.5130  137.9430 C   0  0  0  0  0  1  0  0  0  0  0  0
  1 10  1  0  0  0  0
  1 20  1  0  0  0  0
  2 27  2  0  0  0  0
  3  4  1  0  0  0  0
  4 21  2  0  0  0  0
  5 25  1  0  0  0  0
  5  6  2  0  0  0  0
  6 28  1  0  0  0  0
  6 18  1  0  0  0  0
  7 24  2  0  0  0  0
  8 12  1  0  0  0  0
  9 26  2  0  0  0  0
  9 15  1  0  0  0  0
 10 17  1  0  0  0  0
 11  3  2  0  0  0  0
 12 13  1  0  0  0  0
 12  2  1  0  0  0  0
 13 11  1  6  0  0  0
 13 22  1  0  0  0  0
 14 23  1  0  0  0  0
 16  7  1  0  0  0  0
 16 19  2  0  0  0  0
 17  8  2  0  0  0  0
 17  7  1  0  0  0  0
 18 15  1  0  0  0  0
 20 16  1  0  0  0  0
 22 21  1  0  0  0  0
 22 14  2  0  0  0  0
 23 28  2  0  0  0  0
 24  2  1  0  0  0  0
 27 14  1  0  0  0  0
 27  5  1  0  0  0  0
 28  9  1  0  0  0  0
 29 20  1  0  0  0  0
 30 32  1  0  0  0  0
 30 29  1  0  0  0  0
 31 30  1  0  0  0  0
M  END
>  <MODEL>
8

>  <REMARK>
 VINA RESULT:      -9.3      2.995      8.463
  Name = 
  2 active torsions:
  status: ('A' for Active; 'I' for Inactive)
    1  A    between atoms: C_1  and  C_10
    2  A    between atoms: C_10  and  N_24
                            x       y       z     vdW  Elec       q    Type
                         _______ _______ _______ _____ _____    ______ ____

>  <TORSDO>
F 2

$$$$
=
 OpenBabel11052416483D

 32 37  0  0  1  0  0  0  0  0999 V2000
  189.3400  178.5910  138.8820 C   0  0  0  0  0  2  0  0  0  0  0  0
  185.0010  178.4920  141.5780 C   0  0  0  0  0  0  0  0  0  0  0  0
  186.6170  178.2890  146.2430 C   0  0  0  0  0  3  0  0  0  0  0  0
  185.3900  178.4530  146.7350 C   0  0  0  0  0  3  0  0  0  0  0  0
  182.5780  178.8110  141.1750 C   0  0  0  0  0  0  0  0  0  0  0  0
  181.3260  178.9790  141.7580 C   0  0  0  0  0  0  0  0  0  0  0  0
  186.5930  178.2840  139.7210 C   0  0  0  0  0  0  0  0  0  0  0  0
  187.4460  178.1520  142.0000 C   0  0  0  0  0  3  0  0  0  0  0  0
  179.7750  179.1900  143.3840 C   0  0  0  0  0  0  0  0  0  0  0  0
  189.0850  177.8610  140.2010 C   0  0  0  0  0  2  0  0  0  0  0  0
  186.8590  178.2530  144.7930 C   0  0  0  0  0  3  0  0  0  0  0  0
  186.1080  178.3470  142.5000 N   0  0  0  0  0  0  0  0  0  0  0  0
  185.8620  178.3830  143.9100 C   0  0  2  0  0  3  0  0  0  0  0  0
  183.4820  178.6980  143.4720 C   0  0  0  0  0  0  0  0  0  0  0  0
  179.0460  179.2830  142.0780 C   0  0  0  0  0  2  0  0  0  0  0  0
  186.9260  178.2530  138.2860 C   0  0  0  0  0  0  0  0  0  0  0  0
  187.6960  178.1360  140.6910 C   0  0  0  0  0  0  0  0  0  0  0  0
  180.1020  179.1390  141.1160 O   0  0  0  0  0  0  0  0  0  0  0  0
  186.0140  178.1860  137.4160 O   0  0  0  0  0  0  0  0  0  0  0  0
  188.3090  178.2640  137.8940 N   0  0  0  0  0  0  0  0  0  0  0  0
  184.1770  178.6120  145.8590 C   0  0  0  0  0  3  0  0  0  0  0  0
  184.4770  178.5680  144.3740 C   0  0  0  0  0  0  0  0  0  0  0  0
  182.2100  178.8680  143.9490 N   0  0  0  0  0  0  0  0  0  0  0  0
  185.3350  178.4470  140.1390 C   0  0  0  0  0  3  0  0  0  0  0  0
  182.5880  178.8020  139.4080 Cl  0  0  0  0  0  0  0  0  0  0  0  0
  179.2550  179.2630  144.5270 O   0  0  0  0  0  0  0  0  0  0  0  0
  183.7220  178.6620  142.0420 C   0  0  0  0  0  0  0  0  0  0  0  0
  181.1740  179.0030  143.0990 C   0  0  0  0  0  0  0  0  0  0  0  0
  188.7080  177.8900  136.5390 C   0  0  0  0  0  2  0  0  0  0  0  0
  189.5050  176.5830  136.5030 C   0  0  0  0  0  3  0  0  0  0  0  0
  188.6410  175.3770  136.8190 C   0  0  0  0  0  1  0  0  0  0  0  0
  190.2140  176.3920  135.1750 C   0  0  0  0  0  1  0  0  0  0  0  0
  1 10  1  0  0  0  0
  2 27  2  0  0  0  0
  2 12  1  0  0  0  0
  3  4  1  0  0  0  0
  5  6  2  0  0  0  0
  5 27  1  0  0  0  0
  6 28  1  0  0  0  0
  7 24  2  0  0  0  0
  7 17  1  0  0  0  0
  8 12  1  0  0  0  0
  9 26  2  0  0  0  0
 10 17  1  0  0  0  0
 11  3  2  0  0  0  0
 12 13  1  0  0  0  0
 13 22  1  0  0  0  0
 13 11  1  6  0  0  0
 14 23  1  0  0  0  0
 14 22  2  0  0  0  0
 15  9  1  0  0  0  0
 16  7  1  0  0  0  0
 17  8  2  0  0  0  0
 18  6  1  0  0  0  0
 18 15  1  0  0  0  0
 19 16  2  0  0  0  0
 20 16  1  0  0  0  0
 20  1  1  0  0  0  0
 21  4  2  0  0  0  0
 22 21  1  0  0  0  0
 24  2  1  0  0  0  0
 25  5  1  0  0  0  0
 27 14  1  0  0  0  0
 28  9  1  0  0  0  0
 28 23  2  0  0  0  0
 29 20  1  0  0  0  0
 30 29  1  0  0  0  0
 30 31  1  0  0  0  0
 32 30  1  0  0  0  0
M  END
>  <MODEL>
9

>  <REMARK>
 VINA RESULT:      -9.3      2.763      7.353
  Name = 
  2 active torsions:
  status: ('A' for Active; 'I' for Inactive)
    1  A    between atoms: C_1  and  C_10
    2  A    between atoms: C_10  and  N_24
                            x       y       z     vdW  Elec       q    Type
                         _______ _______ _______ _____ _____    ______ ____

>  <TORSDO>
F 2

$$$$
