=
 OpenBabel11052414303D

 32 35  0  0  1  0  0  0  0  0999 V2000
  189.3050  178.4530  144.0220 C   0  0  1  0  0  3  0  0  0  0  0  0
  188.1420  177.6850  141.8170 C   0  0  0  0  0  2  0  0  0  0  0  0
  190.6360  178.8750  144.6680 C   0  0  0  0  0  2  0  0  0  0  0  0
  189.3790  178.2840  142.4800 C   0  0  2  0  0  3  0  0  0  0  0  0
  190.6740  176.3100  138.7140 C   0  0  0  0  0  2  0  0  0  0  0  0
  188.4570  177.3030  138.8920 N   0  0  1  0  0  0  0  0  0  0  0  0
  190.7000  177.7120  142.0230 C   0  0  0  0  0  0  0  0  0  0  0  0
  189.6660  177.2500  138.0850 C   0  0  0  0  0  2  0  0  0  0  0  0
  190.7730  176.5610  141.0620 C   0  0  0  0  0  2  0  0  0  0  0  0
  191.8150  178.1800  142.6000 C   0  0  0  0  0  3  0  0  0  0  0  0
  187.5950  178.6440  140.7720 C   0  0  0  0  0  2  0  0  0  0  0  0
  191.3770  176.9750  139.8020 N   0  0  0  0  0  0  0  0  0  0  0  0
  191.7030  179.2560  143.6380 C   0  0  0  0  0  2  0  0  0  0  0  0
  188.4210  178.6380  139.4900 C   0  0  0  0  0  2  0  0  0  0  0  0
  187.2760  175.7280  137.4100 C   0  0  0  0  0  2  0  0  0  0  0  0
  186.9000  177.2800  135.5440 C   0  0  0  0  0  1  0  0  0  0  0  0
  187.3480  177.1390  137.9600 C   0  0  2  0  0  3  0  0  0  0  0  0
  187.8970  176.8220  136.5830 C   0  0  1  0  0  3  0  0  0  0  0  0
  192.7950  176.5840  139.7780 C   0  0  0  0  0  2  0  0  0  0  0  0
  193.3280  176.2950  138.3690 C   0  0  0  0  0  1  0  0  0  0  0  0
  189.6050  176.3240  145.0710 O   0  0  0  0  0  1  0  0  0  0  0  0
  188.6500  177.3070  144.8130 C   0  0  1  0  0  3  0  0  0  0  0  0
  187.9580  177.7400  146.1210 C   0  0  2  0  0  3  0  0  0  0  0  0
  188.0860  176.1130  147.8650 O   0  0  0  0  0  1  0  0  0  0  0  0
  188.6220  177.1050  147.3040 C   0  0  0  0  0  0  0  0  0  0  0  0
  189.8360  177.5860  147.7720 O   0  0  0  0  0  0  0  0  0  0  0  0
  186.4690  177.3890  146.1120 C   0  0  0  0  0  2  0  0  0  0  0  0
  185.8300  179.5520  147.2230 O   0  0  0  0  0  1  0  0  0  0  0  0
  184.1150  178.4510  145.8970 C   0  0  0  0  0  2  0  0  0  0  0  0
  185.5840  178.6360  146.2000 C   0  0  2  0  0  0  0  0  0  0  0  0
  185.2310  178.4200  143.6950 C   0  0  0  0  0  1  0  0  0  0  0  0
  184.9930  179.2510  144.9400 C   0  0  1  0  0  3  0  0  0  0  0  0
  1  3  1  0  0  0  0
  1 22  1  1  0  0  0
  4  2  1  1  0  0  0
  4  1  1  0  0  0  0
  5 12  1  0  0  0  0
  6  8  1  6  0  0  0
  6 14  1  0  0  0  0
  7  4  1  0  0  0  0
  7 10  2  0  0  0  0
  8  5  1  0  0  0  0
  9  7  1  0  0  0  0
 10 13  1  0  0  0  0
 11  2  1  0  0  0  0
 12  9  1  0  0  0  0
 13  3  1  0  0  0  0
 14 11  1  0  0  0  0
 17 15  1  1  0  0  0
 17  6  1  0  0  0  0
 18 16  1  6  0  0  0
 18 15  1  0  0  0  0
 18 17  1  0  0  0  0
 19 12  1  0  0  0  0
 20 19  1  0  0  0  0
 22 21  1  1  0  0  0
 22 23  1  0  0  0  0
 23 27  1  6  0  0  0
 23 25  1  0  0  0  0
 25 26  2  0  0  0  0
 25 24  1  0  0  0  0
 27 30  1  0  0  0  0
 29 30  1  0  0  0  0
 30 28  1  1  0  0  0
 32 31  1  6  0  0  0
 32 29  1  0  0  0  0
 32 30  1  0  0  0  0
M  END
>  <MODEL>
1

>  <REMARK>
 VINA RESULT:      -7.4      0.000      0.000
  Name = 
  7 active torsions:
  status: ('A' for Active; 'I' for Inactive)
    1  A    between atoms: C_1  and  C_27
    2  A    between atoms: N_10  and  C_12
    3  A    between atoms: C_13  and  N_29
    4  A    between atoms: C_15  and  C_20
    5  A    between atoms: C_16  and  C_20
    6  A    between atoms: C_16  and  C_22
    7  A    between atoms: C_16  and  C_27
                            x       y       z     vdW  Elec       q    Type
                         _______ _______ _______ _____ _____    ______ ____

>  <TORSDO>
F 7

$$$$
=
 OpenBabel11052414303D

 32 35  0  0  1  0  0  0  0  0999 V2000
  190.1900  177.4410  142.1120 C   0  0  1  0  0  3  0  0  0  0  0  0
  188.5120  177.3780  140.1160 C   0  0  0  0  0  2  0  0  0  0  0  0
  191.6740  177.4670  142.5150 C   0  0  0  0  0  2  0  0  0  0  0  0
  189.9490  177.5870  140.5850 C   0  0  2  0  0  3  0  0  0  0  0  0
  190.0830  176.2440  136.3510 C   0  0  0  0  0  2  0  0  0  0  0  0
  188.2080  177.5660  137.1700 N   0  0  1  0  0  0  0  0  0  0  0  0
  191.0070  176.8920  139.7620 C   0  0  0  0  0  0  0  0  0  0  0  0
  189.2130  177.4630  136.1230 C   0  0  0  0  0  2  0  0  0  0  0  0
  190.6510  175.9750  138.6290 C   0  0  0  0  0  2  0  0  0  0  0  0
  192.2820  177.0160  140.1540 C   0  0  0  0  0  3  0  0  0  0  0  0
  188.0140  178.6180  139.3910 C   0  0  0  0  0  2  0  0  0  0  0  0
  191.0970  176.5260  137.3560 N   0  0  0  0  0  0  0  0  0  0  0  0
  192.5990  177.8530  141.3570 C   0  0  0  0  0  2  0  0  0  0  0  0
  188.5770  178.7300  137.9770 C   0  0  0  0  0  2  0  0  0  0  0  0
  185.8280  176.9430  137.0430 C   0  0  0  0  0  2  0  0  0  0  0  0
  185.6420  176.9250  134.5950 C   0  0  0  0  0  1  0  0  0  0  0  0
  186.9430  177.8080  136.4880 C   0  0  2  0  0  3  0  0  0  0  0  0
  186.5180  176.5450  135.7660 C   0  0  1  0  0  3  0  0  0  0  0  0
  192.3660  175.8950  136.9590 C   0  0  0  0  0  2  0  0  0  0  0  0
  192.4780  174.4230  137.3770 C   0  0  0  0  0  1  0  0  0  0  0  0
  190.3100  175.2080  142.9610 O   0  0  0  0  0  1  0  0  0  0  0  0
  189.4480  176.2950  142.8220 C   0  0  1  0  0  3  0  0  0  0  0  0
  188.8350  176.6710  144.1860 C   0  0  2  0  0  3  0  0  0  0  0  0
  186.9570  177.3740  142.8880 O   0  0  0  0  0  0  0  0  0  0  0  0
  187.4000  177.0720  144.0280 C   0  0  0  0  0  0  0  0  0  0  0  0
  186.5490  177.0900  145.1230 O   0  0  0  0  0  1  0  0  0  0  0  0
  189.6170  177.8000  144.8610 C   0  0  0  0  0  2  0  0  0  0  0  0
  191.8040  177.1920  145.9430 O   0  0  0  0  0  1  0  0  0  0  0  0
  189.7980  176.1950  146.8870 C   0  0  0  0  0  2  0  0  0  0  0  0
  190.4180  177.3020  146.0670 C   0  0  2  0  0  0  0  0  0  0  0  0
  188.5690  178.2360  147.5350 C   0  0  0  0  0  1  0  0  0  0  0  0
  189.9400  177.5920  147.4820 C   0  0  1  0  0  3  0  0  0  0  0  0
  1  3  1  0  0  0  0
  1 22  1  6  0  0  0
  4  2  1  1  0  0  0
  4  1  1  0  0  0  0
  5 12  1  0  0  0  0
  6  8  1  6  0  0  0
  6 14  1  0  0  0  0
  7 10  2  0  0  0  0
  7  4  1  0  0  0  0
  8  5  1  0  0  0  0
  9  7  1  0  0  0  0
 10 13  1  0  0  0  0
 11  2  1  0  0  0  0
 12  9  1  0  0  0  0
 13  3  1  0  0  0  0
 14 11  1  0  0  0  0
 17 15  1  1  0  0  0
 17  6  1  0  0  0  0
 18 16  1  6  0  0  0
 18 17  1  0  0  0  0
 18 15  1  0  0  0  0
 19 12  1  0  0  0  0
 19 20  1  0  0  0  0
 22 21  1  1  0  0  0
 22 23  1  0  0  0  0
 23 27  1  6  0  0  0
 24 25  2  0  0  0  0
 25 23  1  0  0  0  0
 25 26  1  0  0  0  0
 27 30  1  0  0  0  0
 29 32  1  0  0  0  0
 30 28  1  6  0  0  0
 30 29  1  0  0  0  0
 30 32  1  0  0  0  0
 32 31  1  6  0  0  0
M  END
>  <MODEL>
2

>  <REMARK>
 VINA RESULT:      -7.2      2.037      3.311
  Name = 
  7 active torsions:
  status: ('A' for Active; 'I' for Inactive)
    1  A    between atoms: C_1  and  C_27
    2  A    between atoms: N_10  and  C_12
    3  A    between atoms: C_13  and  N_29
    4  A    between atoms: C_15  and  C_20
    5  A    between atoms: C_16  and  C_20
    6  A    between atoms: C_16  and  C_22
    7  A    between atoms: C_16  and  C_27
                            x       y       z     vdW  Elec       q    Type
                         _______ _______ _______ _____ _____    ______ ____

>  <TORSDO>
F 7

$$$$
=
 OpenBabel11052414303D

 32 35  0  0  1  0  0  0  0  0999 V2000
  190.5470  177.3470  139.0390 C   0  0  1  0  0  3  0  0  0  0  0  0
  191.2550  176.9210  141.5130 C   0  0  0  0  0  2  0  0  0  0  0  0
  189.4710  177.9460  138.1170 C   0  0  0  0  0  2  0  0  0  0  0  0
  190.3240  177.6470  140.5450 C   0  0  2  0  0  3  0  0  0  0  0  0
  188.2200  177.2860  144.4440 C   0  0  0  0  0  2  0  0  0  0  0  0
  190.6470  177.4860  144.3610 N   0  0  1  0  0  0  0  0  0  0  0  0
  188.8630  177.6440  140.9260 C   0  0  0  0  0  0  0  0  0  0  0  0
  189.4370  178.0220  144.9660 C   0  0  0  0  0  2  0  0  0  0  0  0
  188.3580  176.8850  142.1190 C   0  0  0  0  0  2  0  0  0  0  0  0
  188.0000  178.2390  140.0920 C   0  0  0  0  0  3  0  0  0  0  0  0
  192.0160  177.9270  142.3600 C   0  0  0  0  0  2  0  0  0  0  0  0
  187.8430  177.7950  143.1330 N   0  0  0  0  0  0  0  0  0  0  0  0
  188.5220  178.8970  138.8500 C   0  0  0  0  0  2  0  0  0  0  0  0
  191.1520  178.5270  143.4660 C   0  0  0  0  0  2  0  0  0  0  0  0
  191.8900  175.7990  145.6570 C   0  0  0  0  0  2  0  0  0  0  0  0
  191.5480  176.7960  147.8740 C   0  0  0  0  0  1  0  0  0  0  0  0
  191.5800  177.2700  145.4600 C   0  0  2  0  0  3  0  0  0  0  0  0
  190.8890  176.4790  146.5530 C   0  0  1  0  0  3  0  0  0  0  0  0
  186.3760  177.8650  143.0400 C   0  0  0  0  0  2  0  0  0  0  0  0
  185.6970  178.2720  144.3540 C   0  0  0  0  0  1  0  0  0  0  0  0
  189.6490  175.2470  138.3310 O   0  0  0  0  0  1  0  0  0  0  0  0
  190.8440  175.8850  138.6610 C   0  0  1  0  0  3  0  0  0  0  0  0
  191.8770  175.7080  137.5300 C   0  0  2  0  0  3  0  0  0  0  0  0
  190.7580  175.8460  135.4230 O   0  0  0  0  0  0  0  0  0  0  0  0
  191.2350  175.1010  136.3200 C   0  0  0  0  0  0  0  0  0  0  0  0
  191.1850  173.7230  136.1670 O   0  0  0  0  0  1  0  0  0  0  0  0
  193.0590  174.8460  137.9780 C   0  0  0  0  0  2  0  0  0  0  0  0
  194.4690  176.4090  136.6030 O   0  0  0  0  0  1  0  0  0  0  0  0
  194.8470  174.0280  136.2910 C   0  0  0  0  0  2  0  0  0  0  0  0
  194.3240  175.1410  137.1690 C   0  0  2  0  0  0  0  0  0  0  0  0
  195.4980  173.3920  138.5860 C   0  0  0  0  0  1  0  0  0  0  0  0
  195.6390  174.4610  137.5200 C   0  0  1  0  0  3  0  0  0  0  0  0
  1 22  1  1  0  0  0
  1  4  1  0  0  0  0
  2 11  1  0  0  0  0
  3 13  1  0  0  0  0
  3  1  1  0  0  0  0
  4  7  1  0  0  0  0
  4  2  1  1  0  0  0
  5  8  1  0  0  0  0
  6 14  1  6  0  0  0
  6  8  1  0  0  0  0
  6 17  1  0  0  0  0
  7  9  1  0  0  0  0
  9 12  1  0  0  0  0
 10  7  2  0  0  0  0
 11 14  1  0  0  0  0
 12  5  1  0  0  0  0
 13 10  1  0  0  0  0
 15 18  1  0  0  0  0
 17 15  1  6  0  0  0
 17 18  1  0  0  0  0
 18 16  1  1  0  0  0
 19 12  1  0  0  0  0
 19 20  1  0  0  0  0
 22 21  1  6  0  0  0
 23 27  1  1  0  0  0
 23 22  1  0  0  0  0
 24 25  2  0  0  0  0
 25 23  1  0  0  0  0
 26 25  1  0  0  0  0
 29 30  1  0  0  0  0
 29 32  1  0  0  0  0
 30 28  1  6  0  0  0
 30 32  1  0  0  0  0
 30 27  1  0  0  0  0
 32 31  1  1  0  0  0
M  END
>  <MODEL>
3

>  <REMARK>
 VINA RESULT:      -7.1      3.821      9.069
  Name = 
  7 active torsions:
  status: ('A' for Active; 'I' for Inactive)
    1  A    between atoms: C_1  and  C_27
    2  A    between atoms: N_10  and  C_12
    3  A    between atoms: C_13  and  N_29
    4  A    between atoms: C_15  and  C_20
    5  A    between atoms: C_16  and  C_20
    6  A    between atoms: C_16  and  C_22
    7  A    between atoms: C_16  and  C_27
                            x       y       z     vdW  Elec       q    Type
                         _______ _______ _______ _____ _____    ______ ____

>  <TORSDO>
F 7

$$$$
=
 OpenBabel11052414303D

 32 35  0  0  1  0  0  0  0  0999 V2000
  190.7040  177.6310  141.0980 C   0  0  1  0  0  3  0  0  0  0  0  0
  188.7260  177.6680  139.4000 C   0  0  0  0  0  2  0  0  0  0  0  0
  192.2060  177.3550  141.2840 C   0  0  0  0  0  2  0  0  0  0  0  0
  190.2340  177.5880  139.6200 C   0  0  2  0  0  3  0  0  0  0  0  0
  189.3170  175.6000  135.7520 C   0  0  0  0  0  2  0  0  0  0  0  0
  187.9520  177.4560  136.5430 N   0  0  1  0  0  0  0  0  0  0  0  0
  190.9520  176.5320  138.8130 C   0  0  0  0  0  0  0  0  0  0  0  0
  188.7070  176.9440  135.4100 C   0  0  0  0  0  2  0  0  0  0  0  0
  190.2090  175.5640  137.9400 C   0  0  0  0  0  2  0  0  0  0  0  0
  192.2720  176.3990  138.9960 C   0  0  0  0  0  3  0  0  0  0  0  0
  188.3880  178.8610  138.5200 C   0  0  0  0  0  2  0  0  0  0  0  0
  190.5310  175.7790  136.5360 N   0  0  0  0  0  0  0  0  0  0  0  0
  192.9710  177.3120  139.9590 C   0  0  0  0  0  2  0  0  0  0  0  0
  188.7030  178.6060  137.0490 C   0  0  0  0  0  2  0  0  0  0  0  0
  185.5160  177.5010  136.9090 C   0  0  0  0  0  2  0  0  0  0  0  0
  184.8450  177.0270  134.5950 C   0  0  0  0  0  1  0  0  0  0  0  0
  186.6690  177.8900  136.0040 C   0  0  2  0  0  3  0  0  0  0  0  0
  185.8220  176.6720  135.6910 C   0  0  1  0  0  3  0  0  0  0  0  0
  191.5410  174.8010  136.1010 C   0  0  0  0  0  2  0  0  0  0  0  0
  192.7610  175.4380  135.4240 C   0  0  0  0  0  1  0  0  0  0  0  0
  190.5660  175.6770  142.4710 O   0  0  0  0  0  1  0  0  0  0  0  0
  189.8690  176.8300  142.1130 C   0  0  1  0  0  3  0  0  0  0  0  0
  189.4550  177.6180  143.3720 C   0  0  2  0  0  3  0  0  0  0  0  0
  190.9650  179.3680  143.9780 O   0  0  0  0  0  0  0  0  0  0  0  0
  190.6620  178.1500  144.0830 C   0  0  0  0  0  0  0  0  0  0  0  0
  191.4350  177.3150  144.8770 O   0  0  0  0  0  1  0  0  0  0  0  0
  188.6280  176.7570  144.3280 C   0  0  0  0  0  2  0  0  0  0  0  0
  188.4250  178.2590  146.3330 O   0  0  0  0  0  1  0  0  0  0  0  0
  186.4220  177.0620  145.6520 C   0  0  0  0  0  2  0  0  0  0  0  0
  187.7820  177.6050  145.2810 C   0  0  2  0  0  0  0  0  0  0  0  0
  186.1590  177.9390  143.3580 C   0  0  0  0  0  1  0  0  0  0  0  0
  186.5300  178.3090  144.7800 C   0  0  1  0  0  3  0  0  0  0  0  0
  1  3  1  0  0  0  0
  1 22  1  1  0  0  0
  4  2  1  1  0  0  0
  4  1  1  0  0  0  0
  5 12  1  0  0  0  0
  6  8  1  6  0  0  0
  6 14  1  0  0  0  0
  7 10  2  0  0  0  0
  7  4  1  0  0  0  0
  8  5  1  0  0  0  0
  9  7  1  0  0  0  0
 10 13  1  0  0  0  0
 11  2  1  0  0  0  0
 12  9  1  0  0  0  0
 13  3  1  0  0  0  0
 14 11  1  0  0  0  0
 17  6  1  0  0  0  0
 17 15  1  1  0  0  0
 18 16  1  6  0  0  0
 18 17  1  0  0  0  0
 18 15  1  0  0  0  0
 19 12  1  0  0  0  0
 20 19  1  0  0  0  0
 22 21  1  1  0  0  0
 22 23  1  0  0  0  0
 23 25  1  0  0  0  0
 23 27  1  1  0  0  0
 24 25  2  0  0  0  0
 25 26  1  0  0  0  0
 27 30  1  0  0  0  0
 30 29  1  0  0  0  0
 30 28  1  1  0  0  0
 32 31  1  6  0  0  0
 32 30  1  0  0  0  0
 32 29  1  0  0  0  0
M  END
>  <MODEL>
4

>  <REMARK>
 VINA RESULT:      -6.9      1.839      3.182
  Name = 
  7 active torsions:
  status: ('A' for Active; 'I' for Inactive)
    1  A    between atoms: C_1  and  C_27
    2  A    between atoms: N_10  and  C_12
    3  A    between atoms: C_13  and  N_29
    4  A    between atoms: C_15  and  C_20
    5  A    between atoms: C_16  and  C_20
    6  A    between atoms: C_16  and  C_22
    7  A    between atoms: C_16  and  C_27
                            x       y       z     vdW  Elec       q    Type
                         _______ _______ _______ _____ _____    ______ ____

>  <TORSDO>
F 7

$$$$
=
 OpenBabel11052414303D

 32 35  0  0  1  0  0  0  0  0999 V2000
  184.6030  178.2690  142.5250 C   0  0  1  0  0  3  0  0  0  0  0  0
  183.5500  177.7680  140.1920 C   0  0  0  0  0  2  0  0  0  0  0  0
  184.3180  178.7050  143.9730 C   0  0  0  0  0  2  0  0  0  0  0  0
  183.3250  178.0170  141.6810 C   0  0  2  0  0  3  0  0  0  0  0  0
  179.6320  179.2290  139.5250 C   0  0  0  0  0  2  0  0  0  0  0  0
  181.0250  177.4210  138.6730 N   0  0  1  0  0  0  0  0  0  0  0  0
  182.2100  178.9800  142.0160 C   0  0  0  0  0  0  0  0  0  0  0  0
  179.6660  177.7980  139.0290 C   0  0  0  0  0  2  0  0  0  0  0  0
  181.4540  179.7160  140.9480 C   0  0  0  0  0  2  0  0  0  0  0  0
  181.9950  179.2580  143.3080 C   0  0  0  0  0  3  0  0  0  0  0  0
  182.9760  176.4170  139.7960 C   0  0  0  0  0  2  0  0  0  0  0  0
  180.0600  179.2940  140.9150 N   0  0  0  0  0  0  0  0  0  0  0  0
  182.8400  178.5880  144.3500 C   0  0  0  0  0  2  0  0  0  0  0  0
  181.4550  176.4450  139.6750 C   0  0  0  0  0  2  0  0  0  0  0  0
  181.9570  177.3500  136.3930 C   0  0  0  0  0  2  0  0  0  0  0  0
  179.8260  177.1370  135.1930 C   0  0  0  0  0  1  0  0  0  0  0  0
  180.9340  176.7900  137.3620 C   0  0  2  0  0  3  0  0  0  0  0  0
  180.5310  177.8290  136.3350 C   0  0  1  0  0  3  0  0  0  0  0  0
  179.2280  180.2690  141.6360 C   0  0  0  0  0  2  0  0  0  0  0  0
  178.9330  181.5410  140.8300 C   0  0  0  0  0  1  0  0  0  0  0  0
  185.6700  180.4100  142.4950 O   0  0  0  0  0  1  0  0  0  0  0  0
  185.6890  179.1540  141.8880 C   0  0  1  0  0  3  0  0  0  0  0  0
  187.1110  178.5590  141.9310 C   0  0  2  0  0  3  0  0  0  0  0  0
  188.6790  177.6280  140.3870 O   0  0  0  0  0  1  0  0  0  0  0  0
  187.5950  178.2490  140.5470 C   0  0  0  0  0  0  0  0  0  0  0  0
  186.8460  178.6200  139.4400 O   0  0  0  0  0  0  0  0  0  0  0  0
  187.1680  177.2980  142.7940 C   0  0  0  0  0  2  0  0  0  0  0  0
  187.2490  177.8450  145.2460 O   0  0  0  0  0  1  0  0  0  0  0  0
  189.2750  178.2480  143.9650 C   0  0  0  0  0  2  0  0  0  0  0  0
  187.9560  177.5220  144.0870 C   0  0  2  0  0  0  0  0  0  0  0  0
  189.7240  175.9630  143.1430 C   0  0  0  0  0  1  0  0  0  0  0  0
  189.2540  176.7700  144.3380 C   0  0  1  0  0  3  0  0  0  0  0  0
  1 22  1  6  0  0  0
  1  3  1  0  0  0  0
  3 13  1  0  0  0  0
  4  2  1  6  0  0  0
  4  7  1  0  0  0  0
  4  1  1  0  0  0  0
  5 12  1  0  0  0  0
  6  8  1  1  0  0  0
  6 14  1  0  0  0  0
  7 10  2  0  0  0  0
  8  5  1  0  0  0  0
  9  7  1  0  0  0  0
 10 13  1  0  0  0  0
 11  2  1  0  0  0  0
 12  9  1  0  0  0  0
 12 19  1  0  0  0  0
 14 11  1  0  0  0  0
 17 15  1  6  0  0  0
 17  6  1  0  0  0  0
 18 16  1  6  0  0  0
 18 15  1  0  0  0  0
 18 17  1  0  0  0  0
 20 19  1  0  0  0  0
 22 23  1  0  0  0  0
 22 21  1  1  0  0  0
 23 27  1  1  0  0  0
 24 25  1  0  0  0  0
 25 23  1  0  0  0  0
 26 25  2  0  0  0  0
 27 30  1  0  0  0  0
 29 30  1  0  0  0  0
 29 32  1  0  0  0  0
 30 32  1  0  0  0  0
 30 28  1  1  0  0  0
 32 31  1  6  0  0  0
M  END
>  <MODEL>
5

>  <REMARK>
 VINA RESULT:      -6.8      4.820      7.857
  Name = 
  7 active torsions:
  status: ('A' for Active; 'I' for Inactive)
    1  A    between atoms: C_1  and  C_27
    2  A    between atoms: N_10  and  C_12
    3  A    between atoms: C_13  and  N_29
    4  A    between atoms: C_15  and  C_20
    5  A    between atoms: C_16  and  C_20
    6  A    between atoms: C_16  and  C_22
    7  A    between atoms: C_16  and  C_27
                            x       y       z     vdW  Elec       q    Type
                         _______ _______ _______ _____ _____    ______ ____

>  <TORSDO>
F 7

$$$$
=
 OpenBabel11052414303D

 32 35  0  0  1  0  0  0  0  0999 V2000
  189.5070  178.1530  142.8000 C   0  0  1  0  0  3  0  0  0  0  0  0
  188.1020  177.8750  140.6210 C   0  0  0  0  0  2  0  0  0  0  0  0
  190.9220  178.1280  143.4040 C   0  0  0  0  0  2  0  0  0  0  0  0
  189.4810  178.0450  141.2520 C   0  0  2  0  0  3  0  0  0  0  0  0
  190.0120  175.9610  137.3620 C   0  0  0  0  0  2  0  0  0  0  0  0
  188.2000  177.5600  137.6720 N   0  0  1  0  0  0  0  0  0  0  0  0
  190.5560  177.1280  140.7170 C   0  0  0  0  0  0  0  0  0  0  0  0
  189.3140  177.1880  136.8120 C   0  0  0  0  0  2  0  0  0  0  0  0
  190.2520  176.0560  139.7110 C   0  0  0  0  0  2  0  0  0  0  0  0
  191.7760  177.2140  141.2630 C   0  0  0  0  0  3  0  0  0  0  0  0
  187.8360  179.0030  139.6360 C   0  0  0  0  0  2  0  0  0  0  0  0
  190.9140  176.3320  138.4430 N   0  0  0  0  0  0  0  0  0  0  0  0
  192.0230  178.2220  142.3450 C   0  0  0  0  0  2  0  0  0  0  0  0
  188.5850  178.8140  138.3200 C   0  0  0  0  0  2  0  0  0  0  0  0
  185.8460  176.9900  137.2180 C   0  0  0  0  0  2  0  0  0  0  0  0
  186.0420  176.7850  134.7790 C   0  0  0  0  0  1  0  0  0  0  0  0
  187.0660  177.7800  136.7830 C   0  0  2  0  0  3  0  0  0  0  0  0
  186.7100  176.4750  136.0980 C   0  0  1  0  0  3  0  0  0  0  0  0
  192.1480  175.5380  138.3430 C   0  0  0  0  0  2  0  0  0  0  0  0
  193.3220  176.3040  137.7190 C   0  0  0  0  0  1  0  0  0  0  0  0
  189.2760  176.1000  144.0050 O   0  0  0  0  0  1  0  0  0  0  0  0
  188.5620  177.2180  143.5750 C   0  0  1  0  0  3  0  0  0  0  0  0
  187.8330  177.8780  144.7620 C   0  0  2  0  0  3  0  0  0  0  0  0
  187.8320  176.7530  146.8700 O   0  0  0  0  0  1  0  0  0  0  0  0
  188.4670  177.4780  146.0600 C   0  0  0  0  0  0  0  0  0  0  0  0
  189.7600  177.8810  146.3640 O   0  0  0  0  0  0  0  0  0  0  0  0
  186.3460  177.5160  144.7800 C   0  0  0  0  0  2  0  0  0  0  0  0
  185.6810  179.3860  146.3220 O   0  0  0  0  0  1  0  0  0  0  0  0
  184.0070  178.6280  144.7310 C   0  0  0  0  0  2  0  0  0  0  0  0
  185.4650  178.7220  145.1140 C   0  0  2  0  0  0  0  0  0  0  0  0
  185.1970  179.0710  142.6130 C   0  0  0  0  0  1  0  0  0  0  0  0
  184.9200  179.6090  144.0030 C   0  0  1  0  0  3  0  0  0  0  0  0
  1  3  1  0  0  0  0
  1 22  1  1  0  0  0
  4  2  1  1  0  0  0
  4  1  1  0  0  0  0
  5 12  1  0  0  0  0
  6  8  1  6  0  0  0
  6 14  1  0  0  0  0
  7  4  1  0  0  0  0
  7 10  2  0  0  0  0
  8  5  1  0  0  0  0
  9  7  1  0  0  0  0
 10 13  1  0  0  0  0
 11  2  1  0  0  0  0
 12  9  1  0  0  0  0
 13  3  1  0  0  0  0
 14 11  1  0  0  0  0
 17 15  1  1  0  0  0
 17  6  1  0  0  0  0
 18 16  1  6  0  0  0
 18 17  1  0  0  0  0
 18 15  1  0  0  0  0
 19 12  1  0  0  0  0
 20 19  1  0  0  0  0
 22 21  1  1  0  0  0
 22 23  1  0  0  0  0
 23 27  1  1  0  0  0
 23 25  1  0  0  0  0
 25 26  2  0  0  0  0
 25 24  1  0  0  0  0
 27 30  1  0  0  0  0
 29 30  1  0  0  0  0
 30 28  1  1  0  0  0
 32 31  1  6  0  0  0
 32 29  1  0  0  0  0
 32 30  1  0  0  0  0
M  END
>  <MODEL>
6

>  <REMARK>
 VINA RESULT:      -6.5      1.183      1.355
  Name = 
  7 active torsions:
  status: ('A' for Active; 'I' for Inactive)
    1  A    between atoms: C_1  and  C_27
    2  A    between atoms: N_10  and  C_12
    3  A    between atoms: C_13  and  N_29
    4  A    between atoms: C_15  and  C_20
    5  A    between atoms: C_16  and  C_20
    6  A    between atoms: C_16  and  C_22
    7  A    between atoms: C_16  and  C_27
                            x       y       z     vdW  Elec       q    Type
                         _______ _______ _______ _____ _____    ______ ____

>  <TORSDO>
F 7

$$$$
=
 OpenBabel11052414303D

 32 35  0  0  1  0  0  0  0  0999 V2000
  184.1860  178.6350  138.6550 C   0  0  1  0  0  3  0  0  0  0  0  0
  185.2440  178.2490  141.0070 C   0  0  0  0  0  2  0  0  0  0  0  0
  182.9820  179.2110  137.8900 C   0  0  0  0  0  2  0  0  0  0  0  0
  184.1780  178.9540  140.1740 C   0  0  2  0  0  3  0  0  0  0  0  0
  182.6570  178.6280  144.3380 C   0  0  0  0  0  2  0  0  0  0  0  0
  185.0440  178.8480  143.9060 N   0  0  1  0  0  0  0  0  0  0  0  0
  182.7850  178.9440  140.7610 C   0  0  0  0  0  0  0  0  0  0  0  0
  183.9280  179.3820  144.6720 C   0  0  0  0  0  2  0  0  0  0  0  0
  182.4650  178.1970  142.0230 C   0  0  0  0  0  2  0  0  0  0  0  0
  181.8060  179.5190  140.0510 C   0  0  0  0  0  3  0  0  0  0  0  0
  186.1080  179.2740  141.7250 C   0  0  0  0  0  2  0  0  0  0  0  0
  182.0910  179.1160  143.0890 N   0  0  0  0  0  0  0  0  0  0  0  0
  182.1380  180.1650  138.7390 C   0  0  0  0  0  2  0  0  0  0  0  0
  185.4060  179.8810  142.9350 C   0  0  0  0  0  2  0  0  0  0  0  0
  186.4450  177.1870  145.0680 C   0  0  0  0  0  2  0  0  0  0  0  0
  186.4480  178.2710  147.2720 C   0  0  0  0  0  1  0  0  0  0  0  0
  186.1280  178.6560  144.8630 C   0  0  2  0  0  3  0  0  0  0  0  0
  185.5970  177.9170  146.0750 C   0  0  1  0  0  3  0  0  0  0  0  0
  180.6250  179.1710  143.2060 C   0  0  0  0  0  2  0  0  0  0  0  0
  180.0590  178.2280  144.2760 C   0  0  0  0  0  1  0  0  0  0  0  0
  183.2520  176.6090  137.7930 O   0  0  0  0  0  1  0  0  0  0  0  0
  184.4410  177.1710  138.2570 C   0  0  1  0  0  3  0  0  0  0  0  0
  185.5680  176.9700  137.2240 C   0  0  2  0  0  3  0  0  0  0  0  0
  184.9200  175.8300  135.2270 O   0  0  0  0  0  0  0  0  0  0  0  0
  185.3280  175.7320  136.4150 C   0  0  0  0  0  0  0  0  0  0  0  0
  185.5750  174.4790  136.9560 O   0  0  0  0  0  1  0  0  0  0  0  0
  186.9390  176.8920  137.8960 C   0  0  0  0  0  2  0  0  0  0  0  0
  187.2340  179.1550  136.8420 O   0  0  0  0  0  1  0  0  0  0  0  0
  189.2590  177.9110  137.3550 C   0  0  0  0  0  2  0  0  0  0  0  0
  187.7880  178.1350  137.6170 C   0  0  2  0  0  0  0  0  0  0  0  0
  188.9980  177.6570  139.7980 C   0  0  0  0  0  1  0  0  0  0  0  0
  188.8140  178.6120  138.6350 C   0  0  1  0  0  3  0  0  0  0  0  0
  1 22  1  1  0  0  0
  1  4  1  0  0  0  0
  2 11  1  0  0  0  0
  3  1  1  0  0  0  0
  3 13  1  0  0  0  0
  4  7  1  0  0  0  0
  4  2  1  1  0  0  0
  5  8  1  0  0  0  0
  6 14  1  6  0  0  0
  6  8  1  0  0  0  0
  6 17  1  0  0  0  0
  7  9  1  0  0  0  0
  9 12  1  0  0  0  0
 10  7  2  0  0  0  0
 11 14  1  0  0  0  0
 12 19  1  0  0  0  0
 12  5  1  0  0  0  0
 13 10  1  0  0  0  0
 15 18  1  0  0  0  0
 17 15  1  6  0  0  0
 17 18  1  0  0  0  0
 18 16  1  1  0  0  0
 19 20  1  0  0  0  0
 22 21  1  6  0  0  0
 23 27  1  1  0  0  0
 23 22  1  0  0  0  0
 24 25  2  0  0  0  0
 25 26  1  0  0  0  0
 25 23  1  0  0  0  0
 29 30  1  0  0  0  0
 29 32  1  0  0  0  0
 30 28  1  6  0  0  0
 30 27  1  0  0  0  0
 30 32  1  0  0  0  0
 32 31  1  1  0  0  0
M  END
>  <MODEL>
7

>  <REMARK>
 VINA RESULT:      -6.4      4.730      9.304
  Name = 
  7 active torsions:
  status: ('A' for Active; 'I' for Inactive)
    1  A    between atoms: C_1  and  C_27
    2  A    between atoms: N_10  and  C_12
    3  A    between atoms: C_13  and  N_29
    4  A    between atoms: C_15  and  C_20
    5  A    between atoms: C_16  and  C_20
    6  A    between atoms: C_16  and  C_22
    7  A    between atoms: C_16  and  C_27
                            x       y       z     vdW  Elec       q    Type
                         _______ _______ _______ _____ _____    ______ ____

>  <TORSDO>
F 7

$$$$
=
 OpenBabel11052414303D

 32 35  0  0  1  0  0  0  0  0999 V2000
  186.0480  177.7390  137.3050 C   0  0  1  0  0  3  0  0  0  0  0  0
  184.4430  178.3430  139.2700 C   0  0  0  0  0  2  0  0  0  0  0  0
  186.1520  177.1020  135.9090 C   0  0  0  0  0  2  0  0  0  0  0  0
  184.5910  177.8930  137.8200 C   0  0  2  0  0  3  0  0  0  0  0  0
  180.6800  176.4010  139.3130 C   0  0  0  0  0  2  0  0  0  0  0  0
  181.6170  178.4820  140.1640 N   0  0  1  0  0  0  0  0  0  0  0  0
  183.7050  176.7430  137.4040 C   0  0  0  0  0  0  0  0  0  0  0  0
  180.4290  177.8680  139.5920 C   0  0  0  0  0  2  0  0  0  0  0  0
  182.8220  176.0300  138.3860 C   0  0  0  0  0  2  0  0  0  0  0  0
  183.8220  176.2880  136.1490 C   0  0  0  0  0  3  0  0  0  0  0  0
  183.6360  179.6290  139.3380 C   0  0  0  0  0  2  0  0  0  0  0  0
  181.4160  176.2400  138.0670 N   0  0  0  0  0  0  0  0  0  0  0  0
  184.7940  176.9520  135.2200 C   0  0  0  0  0  2  0  0  0  0  0  0
  182.1420  179.3890  139.1430 C   0  0  0  0  0  2  0  0  0  0  0  0
  181.9210  178.8690  142.5790 C   0  0  0  0  0  2  0  0  0  0  0  0
  179.5420  179.0360  143.1670 C   0  0  0  0  0  1  0  0  0  0  0  0
  181.1570  179.2400  141.3220 C   0  0  2  0  0  3  0  0  0  0  0  0
  180.5550  178.2860  142.3340 C   0  0  1  0  0  3  0  0  0  0  0  0
  180.8920  175.0750  137.3380 C   0  0  0  0  0  2  0  0  0  0  0  0
  180.1420  175.4430  136.0510 C   0  0  0  0  0  1  0  0  0  0  0  0
  187.7820  176.1190  137.6040 O   0  0  0  0  0  1  0  0  0  0  0  0
  187.0600  177.1060  138.2750 C   0  0  1  0  0  3  0  0  0  0  0  0
  188.0210  178.1070  138.9490 C   0  0  2  0  0  3  0  0  0  0  0  0
  188.9970  179.5820  137.3440 O   0  0  0  0  0  0  0  0  0  0  0  0
  189.1080  178.5140  138.0030 C   0  0  0  0  0  0  0  0  0  0  0  0
  190.2490  177.7360  137.8650 O   0  0  0  0  0  1  0  0  0  0  0  0
  188.6340  177.5250  140.2250 C   0  0  0  0  0  2  0  0  0  0  0  0
  187.0750  179.1500  141.3430 O   0  0  0  0  0  1  0  0  0  0  0  0
  189.1040  178.5680  142.5500 C   0  0  0  0  0  2  0  0  0  0  0  0
  188.0940  178.2070  141.4840 C   0  0  2  0  0  0  0  0  0  0  0  0
  188.7870  176.1280  142.7660 C   0  0  0  0  0  1  0  0  0  0  0  0
  188.0800  177.4680  142.8140 C   0  0  1  0  0  3  0  0  0  0  0  0
  1  4  1  0  0  0  0
  1 22  1  1  0  0  0
  2 11  1  0  0  0  0
  3  1  1  0  0  0  0
  4  2  1  1  0  0  0
  5  8  1  0  0  0  0
  6 14  1  6  0  0  0
  6 17  1  0  0  0  0
  7  4  1  0  0  0  0
  7  9  1  0  0  0  0
  8  6  1  0  0  0  0
 10  7  2  0  0  0  0
 12  9  1  0  0  0  0
 12  5  1  0  0  0  0
 13  3  1  0  0  0  0
 13 10  1  0  0  0  0
 14 11  1  0  0  0  0
 17 18  1  0  0  0  0
 17 15  1  1  0  0  0
 18 15  1  0  0  0  0
 18 16  1  1  0  0  0
 19 12  1  0  0  0  0
 20 19  1  0  0  0  0
 22 21  1  6  0  0  0
 22 23  1  0  0  0  0
 23 27  1  1  0  0  0
 24 25  2  0  0  0  0
 25 23  1  0  0  0  0
 26 25  1  0  0  0  0
 27 30  1  0  0  0  0
 29 32  1  0  0  0  0
 30 28  1  6  0  0  0
 30 29  1  0  0  0  0
 30 32  1  0  0  0  0
 32 31  1  6  0  0  0
M  END
>  <MODEL>
8

>  <REMARK>
 VINA RESULT:      -6.2      4.707      8.465
  Name = 
  7 active torsions:
  status: ('A' for Active; 'I' for Inactive)
    1  A    between atoms: C_1  and  C_27
    2  A    between atoms: N_10  and  C_12
    3  A    between atoms: C_13  and  N_29
    4  A    between atoms: C_15  and  C_20
    5  A    between atoms: C_16  and  C_20
    6  A    between atoms: C_16  and  C_22
    7  A    between atoms: C_16  and  C_27
                            x       y       z     vdW  Elec       q    Type
                         _______ _______ _______ _____ _____    ______ ____

>  <TORSDO>
F 7

$$$$
=
 OpenBabel11052414303D

 32 35  0  0  1  0  0  0  0  0999 V2000
  188.4660  178.3060  139.6310 C   0  0  1  0  0  3  0  0  0  0  0  0
  185.9090  177.8990  139.9510 C   0  0  0  0  0  2  0  0  0  0  0  0
  189.5860  178.5670  138.6100 C   0  0  0  0  0  2  0  0  0  0  0  0
  187.0380  178.3370  139.0220 C   0  0  2  0  0  3  0  0  0  0  0  0
  183.7140  176.8110  136.4970 C   0  0  0  0  0  2  0  0  0  0  0  0
  183.2510  177.8900  138.6320 N   0  0  1  0  0  0  0  0  0  0  0  0
  186.9900  177.7610  137.6270 C   0  0  0  0  0  0  0  0  0  0  0  0
  182.9150  177.8780  137.2170 C   0  0  0  0  0  2  0  0  0  0  0  0
  185.9610  176.7450  137.2270 C   0  0  0  0  0  2  0  0  0  0  0  0
  187.9780  178.0880  136.7840 C   0  0  0  0  0  3  0  0  0  0  0  0
  184.8870  179.0150  140.0930 C   0  0  0  0  0  2  0  0  0  0  0  0
  185.0610  177.2880  136.2180 N   0  0  0  0  0  0  0  0  0  0  0  0
  189.0550  179.0220  137.2480 C   0  0  0  0  0  2  0  0  0  0  0  0
  183.9840  179.1350  138.8690 C   0  0  0  0  0  2  0  0  0  0  0  0
  181.7510  176.6330  140.1290 C   0  0  0  0  0  2  0  0  0  0  0  0
  179.6420  177.2180  139.0160 C   0  0  0  0  0  1  0  0  0  0  0  0
  181.9800  177.9110  139.3450 C   0  0  2  0  0  3  0  0  0  0  0  0
  181.0820  176.8200  138.7930 C   0  0  1  0  0  3  0  0  0  0  0  0
  185.4740  176.8280  134.8830 C   0  0  0  0  0  2  0  0  0  0  0  0
  186.0080  175.3900  134.8680 C   0  0  0  0  0  1  0  0  0  0  0  0
  189.8490  176.3800  139.9450 O   0  0  0  0  0  1  0  0  0  0  0  0
  188.8090  177.1030  140.5270 C   0  0  1  0  0  3  0  0  0  0  0  0
  189.1570  177.4640  141.9860 C   0  0  2  0  0  3  0  0  0  0  0  0
  191.5100  177.8780  141.9750 O   0  0  0  0  0  0  0  0  0  0  0  0
  190.5760  177.0960  142.2960 C   0  0  0  0  0  0  0  0  0  0  0  0
  190.8670  175.9110  142.9570 O   0  0  0  0  0  1  0  0  0  0  0  0
  188.2150  176.7760  142.9750 C   0  0  0  0  0  2  0  0  0  0  0  0
  189.1390  178.2530  144.7880 O   0  0  0  0  0  1  0  0  0  0  0  0
  187.1120  177.0150  145.3080 C   0  0  0  0  0  2  0  0  0  0  0  0
  188.0300  177.5940  144.2560 C   0  0  2  0  0  0  0  0  0  0  0  0
  185.6060  177.9090  143.5660 C   0  0  0  0  0  1  0  0  0  0  0  0
  186.7000  178.2740  144.5500 C   0  0  1  0  0  3  0  0  0  0  0  0
  1 22  1  6  0  0  0
  2 11  1  0  0  0  0
  3  1  1  0  0  0  0
  4  1  1  0  0  0  0
  4  2  1  1  0  0  0
  5  8  1  0  0  0  0
  6  8  1  6  0  0  0
  6 14  1  0  0  0  0
  6 17  1  0  0  0  0
  7  4  1  0  0  0  0
  9  7  1  0  0  0  0
 10 13  1  0  0  0  0
 10  7  2  0  0  0  0
 12  5  1  0  0  0  0
 12  9  1  0  0  0  0
 13  3  1  0  0  0  0
 14 11  1  0  0  0  0
 17 15  1  1  0  0  0
 18 16  1  1  0  0  0
 18 17  1  0  0  0  0
 18 15  1  0  0  0  0
 19 12  1  0  0  0  0
 20 19  1  0  0  0  0
 22 21  1  6  0  0  0
 22 23  1  0  0  0  0
 23 25  1  0  0  0  0
 23 27  1  1  0  0  0
 24 25  2  0  0  0  0
 25 26  1  0  0  0  0
 27 30  1  0  0  0  0
 30 32  1  0  0  0  0
 30 28  1  1  0  0  0
 30 29  1  0  0  0  0
 32 31  1  6  0  0  0
 32 29  1  0  0  0  0
M  END
>  <MODEL>
9

>  <REMARK>
 VINA RESULT:      -6.1      3.267      5.640
  Name = 
  7 active torsions:
  status: ('A' for Active; 'I' for Inactive)
    1  A    between atoms: C_1  and  C_27
    2  A    between atoms: N_10  and  C_12
    3  A    between atoms: C_13  and  N_29
    4  A    between atoms: C_15  and  C_20
    5  A    between atoms: C_16  and  C_20
    6  A    between atoms: C_16  and  C_22
    7  A    between atoms: C_16  and  C_27
                            x       y       z     vdW  Elec       q    Type
                         _______ _______ _______ _____ _____    ______ ____

>  <TORSDO>
F 7

$$$$
