=
 OpenBabel11052412413D

 25 27  0  0  0  0  0  0  0  0999 V2000
  185.6700  178.4420  145.3300 C   0  0  0  0  0  0  0  0  0  0  0  0
  185.9100  178.3970  143.9430 C   0  0  0  0  0  0  0  0  0  0  0  0
  183.3900  178.9640  144.9030 C   0  0  0  0  0  3  0  0  0  0  0  0
  183.6060  178.9250  143.5630 N   0  0  0  0  0  0  0  0  0  0  0  0
  185.0860  178.6240  141.6880 C   0  0  0  0  0  0  0  0  0  0  0  0
  183.9970  178.8840  140.7040 C   0  0  0  0  0  1  0  0  0  0  0  0
  187.1470  178.1460  143.4370 N   0  0  0  0  0  0  0  0  0  0  0  0
  184.4110  178.7260  145.7670 N   0  0  0  0  0  0  0  0  0  0  0  0
  186.3410  178.3650  141.2350 N   0  0  0  0  0  0  0  0  0  0  0  0
  187.3650  178.1240  142.0950 C   0  0  0  0  0  0  0  0  0  0  0  0
  184.8410  178.6510  143.0670 C   0  0  0  0  0  0  0  0  0  0  0  0
  186.7390  178.1820  146.3290 C   0  0  0  0  0  0  0  0  0  0  0  0
  188.7250  177.6400  148.2090 C   0  0  0  0  0  3  0  0  0  0  0  0
  186.8080  178.8850  147.5510 C   0  0  0  0  0  0  0  0  0  0  0  0
  187.7930  178.5990  148.4450 N   0  0  0  0  0  0  0  0  0  0  0  0
  188.6950  176.9160  147.0180 C   0  0  0  0  0  3  0  0  0  0  0  0
  185.8800  179.9230  147.8540 N   0  0  0  0  0  1  0  0  0  0  0  0
  187.6980  177.1890  146.0830 C   0  0  0  0  0  3  0  0  0  0  0  0
  188.7360  177.8680  141.5680 C   0  0  0  0  0  2  0  0  0  0  0  0
  189.5040  176.9930  142.5160 C   0  0  0  0  0  0  0  0  0  0  0  0
  189.0610  175.8820  142.7700 O   0  0  0  0  0  0  0  0  0  0  0  0
  191.8780  177.5070  142.0410 C   0  0  0  0  0  1  0  0  0  0  0  0
  190.7230  178.7920  143.7950 C   0  0  0  0  0  1  0  0  0  0  0  0
  191.2600  176.4220  144.1700 C   0  0  0  0  0  1  0  0  0  0  0  0
  190.8200  177.4300  143.1250 C   0  0  0  0  0  0  0  0  0  0  0  0
  1  8  1  0  0  0  0
  1 12  1  0  0  0  0
  2  1  2  0  0  0  0
  3  8  2  0  0  0  0
  4  3  1  0  0  0  0
  5 11  1  0  0  0  0
  6  5  1  0  0  0  0
  7  2  1  0  0  0  0
  9  5  2  0  0  0  0
  9 10  1  0  0  0  0
 10  7  2  0  0  0  0
 11  4  2  0  0  0  0
 11  2  1  0  0  0  0
 12 14  1  0  0  0  0
 13 15  1  0  0  0  0
 14 17  1  0  0  0  0
 14 15  2  0  0  0  0
 16 13  2  0  0  0  0
 18 12  2  0  0  0  0
 18 16  1  0  0  0  0
 19 10  1  0  0  0  0
 19 20  1  0  0  0  0
 20 21  2  0  0  0  0
 20 25  1  0  0  0  0
 22 25  1  0  0  0  0
 25 23  1  0  0  0  0
 25 24  1  0  0  0  0
M  END
>  <MODEL>
1

>  <REMARK>
 VINA RESULT:      -8.2      0.000      0.000
  Name = 
  4 active torsions:
  status: ('A' for Active; 'I' for Inactive)
    1  A    between atoms: C_1  and  C_5
    2  A    between atoms: C_6  and  C_15
    3  A    between atoms: C_6  and  C_23
    4  A    between atoms: C_15  and  C_21
                            x       y       z     vdW  Elec       q    Type
                         _______ _______ _______ _____ _____    ______ ____

>  <TORSDO>
F 4

$$$$
=
 OpenBabel11052412413D

 25 27  0  0  0  0  0  0  0  0999 V2000
  183.7360  178.4190  142.4740 C   0  0  0  0  0  0  0  0  0  0  0  0
  184.8310  178.1940  143.3310 C   0  0  0  0  0  0  0  0  0  0  0  0
  182.5330  179.3750  144.2880 C   0  0  0  0  0  3  0  0  0  0  0  0
  183.5800  179.1640  145.1270 N   0  0  0  0  0  0  0  0  0  0  0  0
  185.8050  178.3380  145.5330 C   0  0  0  0  0  0  0  0  0  0  0  0
  185.7540  178.7210  146.9720 C   0  0  0  0  0  1  0  0  0  0  0  0
  185.9690  177.5890  142.8970 N   0  0  0  0  0  0  0  0  0  0  0  0
  182.6170  179.0060  142.9840 N   0  0  0  0  0  0  0  0  0  0  0  0
  186.9200  177.7320  145.0470 N   0  0  0  0  0  0  0  0  0  0  0  0
  187.0090  177.3620  143.7420 C   0  0  0  0  0  0  0  0  0  0  0  0
  184.7210  178.5800  144.6780 C   0  0  0  0  0  0  0  0  0  0  0  0
  183.7660  178.0490  141.0360 C   0  0  0  0  0  0  0  0  0  0  0  0
  183.8380  177.3010  138.3510 C   0  0  0  0  0  3  0  0  0  0  0  0
  184.6430  178.6700  140.1210 C   0  0  0  0  0  0  0  0  0  0  0  0
  184.6510  178.2850  138.8160 N   0  0  0  0  0  0  0  0  0  0  0  0
  182.9580  176.6550  139.2170 C   0  0  0  0  0  3  0  0  0  0  0  0
  185.5030  179.7290  140.5330 N   0  0  0  0  0  1  0  0  0  0  0  0
  182.9280  177.0300  140.5590 C   0  0  0  0  0  3  0  0  0  0  0  0
  188.2370  176.6790  143.2450 C   0  0  0  0  0  2  0  0  0  0  0  0
  189.3070  177.6860  142.9390 C   0  0  0  0  0  0  0  0  0  0  0  0
  189.0950  178.5100  142.0600 O   0  0  0  0  0  0  0  0  0  0  0  0
  191.0110  179.1810  143.9330 C   0  0  0  0  0  1  0  0  0  0  0  0
  190.5010  177.0560  145.0680 C   0  0  0  0  0  1  0  0  0  0  0  0
  191.7000  177.0380  142.9200 C   0  0  0  0  0  1  0  0  0  0  0  0
  190.6090  177.7350  143.7110 C   0  0  0  0  0  0  0  0  0  0  0  0
  1  8  2  0  0  0  0
  1  2  1  0  0  0  0
  2 11  2  0  0  0  0
  3  4  2  0  0  0  0
  5  6  1  0  0  0  0
  7  2  1  0  0  0  0
  7 10  2  0  0  0  0
  8  3  1  0  0  0  0
  9  5  2  0  0  0  0
 10  9  1  0  0  0  0
 11  4  1  0  0  0  0
 11  5  1  0  0  0  0
 12  1  1  0  0  0  0
 13 15  2  0  0  0  0
 13 16  1  0  0  0  0
 14 17  1  0  0  0  0
 14 12  2  0  0  0  0
 15 14  1  0  0  0  0
 16 18  2  0  0  0  0
 18 12  1  0  0  0  0
 19 10  1  0  0  0  0
 20 19  1  0  0  0  0
 20 25  1  0  0  0  0
 21 20  2  0  0  0  0
 24 25  1  0  0  0  0
 25 22  1  0  0  0  0
 25 23  1  0  0  0  0
M  END
>  <MODEL>
2

>  <REMARK>
 VINA RESULT:      -8.2      1.840      5.130
  Name = 
  4 active torsions:
  status: ('A' for Active; 'I' for Inactive)
    1  A    between atoms: C_1  and  C_5
    2  A    between atoms: C_6  and  C_15
    3  A    between atoms: C_6  and  C_23
    4  A    between atoms: C_15  and  C_21
                            x       y       z     vdW  Elec       q    Type
                         _______ _______ _______ _____ _____    ______ ____

>  <TORSDO>
F 4

$$$$
=
 OpenBabel11052412413D

 25 27  0  0  0  0  0  0  0  0999 V2000
  190.2710  177.0350  138.3470 C   0  0  0  0  0  0  0  0  0  0  0  0
  189.6370  177.1370  139.6010 C   0  0  0  0  0  0  0  0  0  0  0  0
  188.7530  178.6390  137.4660 C   0  0  0  0  0  3  0  0  0  0  0  0
  188.1300  178.7480  138.6680 N   0  0  0  0  0  0  0  0  0  0  0  0
  187.9060  178.1010  140.9770 C   0  0  0  0  0  0  0  0  0  0  0  0
  186.7450  179.0110  141.1860 C   0  0  0  0  0  1  0  0  0  0  0  0
  190.0310  176.3910  140.6670 N   0  0  0  0  0  0  0  0  0  0  0  0
  189.8060  177.7930  137.3160 N   0  0  0  0  0  0  0  0  0  0  0  0
  188.3420  177.3340  142.0110 N   0  0  0  0  0  0  0  0  0  0  0  0
  189.3960  176.4890  141.8650 C   0  0  0  0  0  0  0  0  0  0  0  0
  188.5470  178.0150  139.7340 C   0  0  0  0  0  0  0  0  0  0  0  0
  191.4320  176.1380  138.1170 C   0  0  0  0  0  0  0  0  0  0  0  0
  193.6310  174.4890  137.6460 C   0  0  0  0  0  3  0  0  0  0  0  0
  191.2750  174.8160  137.6480 C   0  0  0  0  0  0  0  0  0  0  0  0
  192.3690  174.0360  137.4320 N   0  0  0  0  0  0  0  0  0  0  0  0
  193.8370  175.7900  138.1040 C   0  0  0  0  0  3  0  0  0  0  0  0
  189.9800  174.2640  137.4290 N   0  0  0  0  0  1  0  0  0  0  0  0
  192.7340  176.6100  138.3360 C   0  0  0  0  0  3  0  0  0  0  0  0
  189.8350  175.6430  143.0110 C   0  0  0  0  0  2  0  0  0  0  0  0
  190.8830  176.3580  143.8150 C   0  0  0  0  0  0  0  0  0  0  0  0
  192.0560  176.2100  143.5020 O   0  0  0  0  0  0  0  0  0  0  0  0
  190.6530  178.7240  144.5060 C   0  0  0  0  0  1  0  0  0  0  0  0
  189.1050  177.0630  145.4570 C   0  0  0  0  0  1  0  0  0  0  0  0
  191.4720  177.0480  146.1220 C   0  0  0  0  0  1  0  0  0  0  0  0
  190.5250  177.2830  144.9600 C   0  0  0  0  0  0  0  0  0  0  0  0
  1  2  1  0  0  0  0
  2 11  2  0  0  0  0
  2  7  1  0  0  0  0
  3  4  2  0  0  0  0
  4 11  1  0  0  0  0
  5  6  1  0  0  0  0
  5  9  2  0  0  0  0
  7 10  2  0  0  0  0
  8  3  1  0  0  0  0
  8  1  2  0  0  0  0
 10  9  1  0  0  0  0
 10 19  1  0  0  0  0
 11  5  1  0  0  0  0
 12 18  1  0  0  0  0
 12  1  1  0  0  0  0
 13 16  1  0  0  0  0
 14 12  2  0  0  0  0
 15 13  2  0  0  0  0
 15 14  1  0  0  0  0
 16 18  2  0  0  0  0
 17 14  1  0  0  0  0
 19 20  1  0  0  0  0
 20 25  1  0  0  0  0
 21 20  2  0  0  0  0
 22 25  1  0  0  0  0
 25 23  1  0  0  0  0
 25 24  1  0  0  0  0
M  END
>  <MODEL>
3

>  <REMARK>
 VINA RESULT:      -8.2      3.749      7.332
  Name = 
  4 active torsions:
  status: ('A' for Active; 'I' for Inactive)
    1  A    between atoms: C_1  and  C_5
    2  A    between atoms: C_6  and  C_15
    3  A    between atoms: C_6  and  C_23
    4  A    between atoms: C_15  and  C_21
                            x       y       z     vdW  Elec       q    Type
                         _______ _______ _______ _____ _____    ______ ____

>  <TORSDO>
F 4

$$$$
=
 OpenBabel11052412413D

 25 27  0  0  0  0  0  0  0  0999 V2000
  189.5310  177.3570  141.2590 C   0  0  0  0  0  0  0  0  0  0  0  0
  188.4020  177.8010  140.5420 C   0  0  0  0  0  0  0  0  0  0  0  0
  190.4640  176.5160  139.2410 C   0  0  0  0  0  3  0  0  0  0  0  0
  189.3820  176.9360  138.5360 N   0  0  0  0  0  0  0  0  0  0  0  0
  187.2210  177.9940  138.4480 C   0  0  0  0  0  0  0  0  0  0  0  0
  187.1040  177.7800  136.9780 C   0  0  0  0  0  1  0  0  0  0  0  0
  187.3570  178.4130  141.1580 N   0  0  0  0  0  0  0  0  0  0  0  0
  190.5300  176.7250  140.5810 N   0  0  0  0  0  0  0  0  0  0  0  0
  186.2050  178.6050  139.1130 N   0  0  0  0  0  0  0  0  0  0  0  0
  186.2670  178.8190  140.4530 C   0  0  0  0  0  0  0  0  0  0  0  0
  188.3530  177.5690  139.1570 C   0  0  0  0  0  0  0  0  0  0  0  0
  189.6710  177.5630  142.7240 C   0  0  0  0  0  0  0  0  0  0  0  0
  189.9890  177.9410  145.4680 C   0  0  0  0  0  3  0  0  0  0  0  0
  189.0450  176.7140  143.6620 C   0  0  0  0  0  0  0  0  0  0  0  0
  189.2180  176.9290  144.9940 N   0  0  0  0  0  0  0  0  0  0  0  0
  190.6320  178.8020  144.5800 C   0  0  0  0  0  3  0  0  0  0  0  0
  188.1980  175.6500  143.2380 N   0  0  0  0  0  1  0  0  0  0  0  0
  190.4720  178.6070  143.2090 C   0  0  0  0  0  3  0  0  0  0  0  0
  185.1260  179.4700  141.1570 C   0  0  0  0  0  2  0  0  0  0  0  0
  184.5320  178.5310  142.1670 C   0  0  0  0  0  0  0  0  0  0  0  0
  184.0230  177.4930  141.7660 O   0  0  0  0  0  0  0  0  0  0  0  0
  185.0020  180.2520  143.8830 C   0  0  0  0  0  1  0  0  0  0  0  0
  183.2410  178.5900  144.3320 C   0  0  0  0  0  1  0  0  0  0  0  0
  185.6010  177.8960  144.3110 C   0  0  0  0  0  1  0  0  0  0  0  0
  184.5850  178.8110  143.6540 C   0  0  0  0  0  0  0  0  0  0  0  0
  1 12  1  0  0  0  0
  2  7  1  0  0  0  0
  2  1  2  0  0  0  0
  3  8  2  0  0  0  0
  4 11  2  0  0  0  0
  4  3  1  0  0  0  0
  5  9  2  0  0  0  0
  5 11  1  0  0  0  0
  6  5  1  0  0  0  0
  8  1  1  0  0  0  0
  9 10  1  0  0  0  0
 10 19  1  0  0  0  0
 10  7  2  0  0  0  0
 11  2  1  0  0  0  0
 12 18  2  0  0  0  0
 12 14  1  0  0  0  0
 14 15  2  0  0  0  0
 15 13  1  0  0  0  0
 16 13  2  0  0  0  0
 17 14  1  0  0  0  0
 18 16  1  0  0  0  0
 19 20  1  0  0  0  0
 20 25  1  0  0  0  0
 21 20  2  0  0  0  0
 25 22  1  0  0  0  0
 25 24  1  0  0  0  0
 25 23  1  0  0  0  0
M  END
>  <MODEL>
4

>  <REMARK>
 VINA RESULT:      -7.9      2.743      5.527
  Name = 
  4 active torsions:
  status: ('A' for Active; 'I' for Inactive)
    1  A    between atoms: C_1  and  C_5
    2  A    between atoms: C_6  and  C_15
    3  A    between atoms: C_6  and  C_23
    4  A    between atoms: C_15  and  C_21
                            x       y       z     vdW  Elec       q    Type
                         _______ _______ _______ _____ _____    ______ ____

>  <TORSDO>
F 4

$$$$
=
 OpenBabel11052412413D

 25 27  0  0  0  0  0  0  0  0999 V2000
  185.5700  178.5640  142.3070 C   0  0  0  0  0  0  0  0  0  0  0  0
  186.7420  178.3410  141.5580 C   0  0  0  0  0  0  0  0  0  0  0  0
  184.3800  178.9800  140.2910 C   0  0  0  0  0  3  0  0  0  0  0  0
  185.5020  178.7690  139.5550 N   0  0  0  0  0  0  0  0  0  0  0  0
  187.8490  178.2530  139.4170 C   0  0  0  0  0  0  0  0  0  0  0  0
  187.8510  178.3600  137.9300 C   0  0  0  0  0  1  0  0  0  0  0  0
  187.9290  178.0510  142.1530 N   0  0  0  0  0  0  0  0  0  0  0  0
  184.4210  178.8780  141.6450 N   0  0  0  0  0  0  0  0  0  0  0  0
  189.0100  177.9620  140.0620 N   0  0  0  0  0  0  0  0  0  0  0  0
  189.0550  177.8570  141.4160 C   0  0  0  0  0  0  0  0  0  0  0  0
  186.6780  178.4560  140.1580 C   0  0  0  0  0  0  0  0  0  0  0  0
  185.5440  178.4590  143.7880 C   0  0  0  0  0  0  0  0  0  0  0  0
  185.4840  178.2060  146.5640 C   0  0  0  0  0  3  0  0  0  0  0  0
  184.5910  179.1470  144.5700 C   0  0  0  0  0  0  0  0  0  0  0  0
  184.5910  179.0040  145.9230 N   0  0  0  0  0  0  0  0  0  0  0  0
  186.4400  177.5030  145.8340 C   0  0  0  0  0  3  0  0  0  0  0  0
  183.6430  180.0240  143.9680 N   0  0  0  0  0  1  0  0  0  0  0  0
  186.4640  177.6310  144.4460 C   0  0  0  0  0  3  0  0  0  0  0  0
  190.3480  177.5600  142.0960 C   0  0  0  0  0  2  0  0  0  0  0  0
  190.0990  176.9560  143.4480 C   0  0  0  0  0  0  0  0  0  0  0  0
  189.3400  176.0010  143.5260 O   0  0  0  0  0  0  0  0  0  0  0  0
  191.6490  178.6660  144.3440 C   0  0  0  0  0  1  0  0  0  0  0  0
  189.8040  177.8830  145.7740 C   0  0  0  0  0  1  0  0  0  0  0  0
  191.6810  176.3770  145.2670 C   0  0  0  0  0  1  0  0  0  0  0  0
  190.7920  177.4650  144.6960 C   0  0  0  0  0  0  0  0  0  0  0  0
  1 12  1  0  0  0  0
  2  7  1  0  0  0  0
  2  1  2  0  0  0  0
  3  8  2  0  0  0  0
  4 11  2  0  0  0  0
  4  3  1  0  0  0  0
  5  9  2  0  0  0  0
  5 11  1  0  0  0  0
  6  5  1  0  0  0  0
  8  1  1  0  0  0  0
  9 10  1  0  0  0  0
 10 19  1  0  0  0  0
 10  7  2  0  0  0  0
 11  2  1  0  0  0  0
 12 18  2  0  0  0  0
 12 14  1  0  0  0  0
 14 15  2  0  0  0  0
 15 13  1  0  0  0  0
 16 13  2  0  0  0  0
 17 14  1  0  0  0  0
 18 16  1  0  0  0  0
 19 20  1  0  0  0  0
 20 21  2  0  0  0  0
 20 25  1  0  0  0  0
 22 25  1  0  0  0  0
 25 24  1  0  0  0  0
 25 23  1  0  0  0  0
M  END
>  <MODEL>
5

>  <REMARK>
 VINA RESULT:      -7.9      1.576      3.104
  Name = 
  4 active torsions:
  status: ('A' for Active; 'I' for Inactive)
    1  A    between atoms: C_1  and  C_5
    2  A    between atoms: C_6  and  C_15
    3  A    between atoms: C_6  and  C_23
    4  A    between atoms: C_15  and  C_21
                            x       y       z     vdW  Elec       q    Type
                         _______ _______ _______ _____ _____    ______ ____

>  <TORSDO>
F 4

$$$$
=
 OpenBabel11052412413D

 25 27  0  0  0  0  0  0  0  0999 V2000
  188.5810  177.6600  143.4960 C   0  0  0  0  0  0  0  0  0  0  0  0
  187.2190  177.8610  143.7970 C   0  0  0  0  0  0  0  0  0  0  0  0
  189.0910  177.7520  145.8170 C   0  0  0  0  0  3  0  0  0  0  0  0
  187.7830  177.9480  146.1230 N   0  0  0  0  0  0  0  0  0  0  0  0
  185.4910  178.2280  145.4390 C   0  0  0  0  0  0  0  0  0  0  0  0
  185.0240  178.3930  146.8440 C   0  0  0  0  0  1  0  0  0  0  0  0
  186.2750  177.9470  142.8230 N   0  0  0  0  0  0  0  0  0  0  0  0
  189.4770  177.6120  144.5220 N   0  0  0  0  0  0  0  0  0  0  0  0
  184.5870  178.3030  144.4270 N   0  0  0  0  0  0  0  0  0  0  0  0
  184.9680  178.1610  143.1300 C   0  0  0  0  0  0  0  0  0  0  0  0
  186.8430  178.0090  145.1430 C   0  0  0  0  0  0  0  0  0  0  0  0
  189.0680  177.4890  142.1040 C   0  0  0  0  0  0  0  0  0  0  0  0
  189.9300  177.1600  139.4720 C   0  0  0  0  0  3  0  0  0  0  0  0
  189.9410  176.4410  141.7400 C   0  0  0  0  0  0  0  0  0  0  0  0
  190.3460  176.3110  140.4470 N   0  0  0  0  0  0  0  0  0  0  0  0
  189.0630  178.2060  139.7820 C   0  0  0  0  0  3  0  0  0  0  0  0
  190.4420  175.5310  142.7150 N   0  0  0  0  0  1  0  0  0  0  0  0
  188.6330  178.3650  141.0990 C   0  0  0  0  0  3  0  0  0  0  0  0
  183.9560  178.2710  142.0410 C   0  0  0  0  0  2  0  0  0  0  0  0
  184.5550  178.9420  140.8390 C   0  0  0  0  0  0  0  0  0  0  0  0
  185.4450  179.7630  141.0150 O   0  0  0  0  0  0  0  0  0  0  0  0
  183.2620  179.7200  138.8770 C   0  0  0  0  0  1  0  0  0  0  0  0
  185.3060  178.4020  138.4930 C   0  0  0  0  0  1  0  0  0  0  0  0
  183.3120  177.3170  139.4390 C   0  0  0  0  0  1  0  0  0  0  0  0
  184.1230  178.5990  139.4280 C   0  0  0  0  0  0  0  0  0  0  0  0
  1  2  2  0  0  0  0
  1  8  1  0  0  0  0
  2 11  1  0  0  0  0
  3  4  1  0  0  0  0
  5  6  1  0  0  0  0
  7 10  2  0  0  0  0
  7  2  1  0  0  0  0
  8  3  2  0  0  0  0
  9  5  2  0  0  0  0
 10  9  1  0  0  0  0
 11  5  1  0  0  0  0
 11  4  2  0  0  0  0
 12  1  1  0  0  0  0
 13 16  2  0  0  0  0
 13 15  1  0  0  0  0
 14 12  1  0  0  0  0
 14 17  1  0  0  0  0
 15 14  2  0  0  0  0
 16 18  1  0  0  0  0
 18 12  2  0  0  0  0
 19 10  1  0  0  0  0
 20 21  2  0  0  0  0
 20 19  1  0  0  0  0
 22 25  1  0  0  0  0
 23 25  1  0  0  0  0
 25 24  1  0  0  0  0
 25 20  1  0  0  0  0
M  END
>  <MODEL>
6

>  <REMARK>
 VINA RESULT:      -7.9      2.269      6.130
  Name = 
  4 active torsions:
  status: ('A' for Active; 'I' for Inactive)
    1  A    between atoms: C_1  and  C_5
    2  A    between atoms: C_6  and  C_15
    3  A    between atoms: C_6  and  C_23
    4  A    between atoms: C_15  and  C_21
                            x       y       z     vdW  Elec       q    Type
                         _______ _______ _______ _____ _____    ______ ____

>  <TORSDO>
F 4

$$$$
=
 OpenBabel11052412413D

 25 27  0  0  0  0  0  0  0  0999 V2000
  187.6250  177.9140  144.6660 C   0  0  0  0  0  0  0  0  0  0  0  0
  186.5460  178.1960  143.8060 C   0  0  0  0  0  0  0  0  0  0  0  0
  186.1750  178.1410  146.5360 C   0  0  0  0  0  3  0  0  0  0  0  0
  185.1250  178.4160  145.7200 N   0  0  0  0  0  0  0  0  0  0  0  0
  184.2160  178.7510  143.5160 C   0  0  0  0  0  0  0  0  0  0  0  0
  182.8540  179.0320  144.0490 C   0  0  0  0  0  1  0  0  0  0  0  0
  186.7000  178.2580  142.4570 N   0  0  0  0  0  0  0  0  0  0  0  0
  187.4030  177.8960  146.0100 N   0  0  0  0  0  0  0  0  0  0  0  0
  184.4250  178.7970  142.1730 N   0  0  0  0  0  0  0  0  0  0  0  0
  185.6520  178.5500  141.6420 C   0  0  0  0  0  0  0  0  0  0  0  0
  185.2850  178.4520  144.3710 C   0  0  0  0  0  0  0  0  0  0  0  0
  188.9910  177.6270  144.1560 C   0  0  0  0  0  0  0  0  0  0  0  0
  191.5500  177.1340  143.1660 C   0  0  0  0  0  3  0  0  0  0  0  0
  189.2870  176.4520  143.4320 C   0  0  0  0  0  0  0  0  0  0  0  0
  190.5470  176.2400  142.9660 N   0  0  0  0  0  0  0  0  0  0  0  0
  191.3050  178.3110  143.8700 C   0  0  0  0  0  3  0  0  0  0  0  0
  188.2920  175.4570  143.2090 N   0  0  0  0  0  1  0  0  0  0  0  0
  190.0230  178.5540  144.3600 C   0  0  0  0  0  3  0  0  0  0  0  0
  185.8540  178.6310  140.1680 C   0  0  0  0  0  2  0  0  0  0  0  0
  184.5660  178.9850  139.4840 C   0  0  0  0  0  0  0  0  0  0  0  0
  184.2020  180.1530  139.4990 O   0  0  0  0  0  0  0  0  0  0  0  0
  184.6260  177.1800  137.7910 C   0  0  0  0  0  1  0  0  0  0  0  0
  183.0750  176.9630  139.6900 C   0  0  0  0  0  1  0  0  0  0  0  0
  182.6480  178.6470  137.9500 C   0  0  0  0  0  1  0  0  0  0  0  0
  183.7370  177.9540  138.7460 C   0  0  0  0  0  0  0  0  0  0  0  0
  1  8  1  0  0  0  0
  2 11  1  0  0  0  0
  2  1  2  0  0  0  0
  4  3  1  0  0  0  0
  5  6  1  0  0  0  0
  5 11  1  0  0  0  0
  7  2  1  0  0  0  0
  8  3  2  0  0  0  0
  9  5  2  0  0  0  0
 10  9  1  0  0  0  0
 10  7  2  0  0  0  0
 11  4  2  0  0  0  0
 12 18  1  0  0  0  0
 12  1  1  0  0  0  0
 13 16  1  0  0  0  0
 14 12  2  0  0  0  0
 15 13  2  0  0  0  0
 15 14  1  0  0  0  0
 16 18  2  0  0  0  0
 17 14  1  0  0  0  0
 19 10  1  0  0  0  0
 20 21  2  0  0  0  0
 20 19  1  0  0  0  0
 22 25  1  0  0  0  0
 24 25  1  0  0  0  0
 25 20  1  0  0  0  0
 25 23  1  0  0  0  0
M  END
>  <MODEL>
7

>  <REMARK>
 VINA RESULT:      -7.8      2.335      5.257
  Name = 
  4 active torsions:
  status: ('A' for Active; 'I' for Inactive)
    1  A    between atoms: C_1  and  C_5
    2  A    between atoms: C_6  and  C_15
    3  A    between atoms: C_6  and  C_23
    4  A    between atoms: C_15  and  C_21
                            x       y       z     vdW  Elec       q    Type
                         _______ _______ _______ _____ _____    ______ ____

>  <TORSDO>
F 4

$$$$
=
 OpenBabel11052412413D

 25 27  0  0  0  0  0  0  0  0999 V2000
  189.5180  177.5220  141.9180 C   0  0  0  0  0  0  0  0  0  0  0  0
  188.5550  177.9100  140.9660 C   0  0  0  0  0  0  0  0  0  0  0  0
  191.0730  177.1290  140.1630 C   0  0  0  0  0  3  0  0  0  0  0  0
  190.1560  177.4990  139.2330 N   0  0  0  0  0  0  0  0  0  0  0  0
  187.9420  178.2520  138.6580 C   0  0  0  0  0  0  0  0  0  0  0  0
  188.2490  178.2470  137.2000 C   0  0  0  0  0  1  0  0  0  0  0  0
  187.2960  178.2740  141.3260 N   0  0  0  0  0  0  0  0  0  0  0  0
  190.7520  177.1420  141.4830 N   0  0  0  0  0  0  0  0  0  0  0  0
  186.6980  178.6110  139.0730 N   0  0  0  0  0  0  0  0  0  0  0  0
  186.3730  178.6280  140.3930 C   0  0  0  0  0  0  0  0  0  0  0  0
  188.9070  177.8840  139.6050 C   0  0  0  0  0  0  0  0  0  0  0  0
  189.2350  177.5230  143.3770 C   0  0  0  0  0  0  0  0  0  0  0  0
  188.6550  177.5490  146.1040 C   0  0  0  0  0  3  0  0  0  0  0  0
  190.0170  178.2640  144.2890 C   0  0  0  0  0  0  0  0  0  0  0  0
  189.7090  178.2530  145.6140 N   0  0  0  0  0  0  0  0  0  0  0  0
  187.8510  176.8060  145.2410 C   0  0  0  0  0  3  0  0  0  0  0  0
  191.1550  179.0020  143.8510 N   0  0  0  0  0  1  0  0  0  0  0  0
  188.1440  176.7990  143.8780 C   0  0  0  0  0  3  0  0  0  0  0  0
  184.9940  179.0030  140.8140 C   0  0  0  0  0  2  0  0  0  0  0  0
  184.1590  179.3510  139.6160 C   0  0  0  0  0  0  0  0  0  0  0  0
  184.3220  180.4450  139.0930 O   0  0  0  0  0  0  0  0  0  0  0  0
  181.8190  179.0600  138.8640 C   0  0  0  0  0  1  0  0  0  0  0  0
  183.6030  177.8700  137.6530 C   0  0  0  0  0  1  0  0  0  0  0  0
  183.0050  177.1810  139.9370 C   0  0  0  0  0  1  0  0  0  0  0  0
  183.1650  178.3780  139.0190 C   0  0  0  0  0  0  0  0  0  0  0  0
  1 12  1  0  0  0  0
  2  7  1  0  0  0  0
  2  1  2  0  0  0  0
  3  8  2  0  0  0  0
  4 11  2  0  0  0  0
  4  3  1  0  0  0  0
  5  9  2  0  0  0  0
  5 11  1  0  0  0  0
  6  5  1  0  0  0  0
  8  1  1  0  0  0  0
  9 10  1  0  0  0  0
 10 19  1  0  0  0  0
 10  7  2  0  0  0  0
 11  2  1  0  0  0  0
 12 18  2  0  0  0  0
 12 14  1  0  0  0  0
 14 15  2  0  0  0  0
 15 13  1  0  0  0  0
 16 13  2  0  0  0  0
 17 14  1  0  0  0  0
 18 16  1  0  0  0  0
 20 19  1  0  0  0  0
 21 20  2  0  0  0  0
 22 25  1  0  0  0  0
 23 25  1  0  0  0  0
 25 20  1  0  0  0  0
 25 24  1  0  0  0  0
M  END
>  <MODEL>
8

>  <REMARK>
 VINA RESULT:      -7.6      2.965      6.105
  Name = 
  4 active torsions:
  status: ('A' for Active; 'I' for Inactive)
    1  A    between atoms: C_1  and  C_5
    2  A    between atoms: C_6  and  C_15
    3  A    between atoms: C_6  and  C_23
    4  A    between atoms: C_15  and  C_21
                            x       y       z     vdW  Elec       q    Type
                         _______ _______ _______ _____ _____    ______ ____

>  <TORSDO>
F 4

$$$$
=
 OpenBabel11052412413D

 25 27  0  0  0  0  0  0  0  0999 V2000
  186.9650  178.3010  140.4760 C   0  0  0  0  0  0  0  0  0  0  0  0
  186.7070  178.1740  141.8550 C   0  0  0  0  0  0  0  0  0  0  0  0
  184.8550  179.3590  140.1950 C   0  0  0  0  0  3  0  0  0  0  0  0
  184.5900  179.2420  141.5210 N   0  0  0  0  0  0  0  0  0  0  0  0
  185.2240  178.5140  143.7270 C   0  0  0  0  0  0  0  0  0  0  0  0
  183.9510  179.0050  144.3250 C   0  0  0  0  0  1  0  0  0  0  0  0
  187.5870  177.5710  142.6970 N   0  0  0  0  0  0  0  0  0  0  0  0
  186.0260  178.8930  139.6870 N   0  0  0  0  0  0  0  0  0  0  0  0
  186.1400  177.9050  144.5250 N   0  0  0  0  0  0  0  0  0  0  0  0
  187.3140  177.4390  144.0220 C   0  0  0  0  0  0  0  0  0  0  0  0
  185.4870  178.6590  142.3580 C   0  0  0  0  0  0  0  0  0  0  0  0
  188.2290  177.8230  139.8590 C   0  0  0  0  0  0  0  0  0  0  0  0
  190.6210  176.9770  138.7040 C   0  0  0  0  0  3  0  0  0  0  0  0
  188.2680  177.2880  138.5540 C   0  0  0  0  0  0  0  0  0  0  0  0
  189.4510  176.8800  138.0200 N   0  0  0  0  0  0  0  0  0  0  0  0
  190.6340  177.5040  139.9940 C   0  0  0  0  0  3  0  0  0  0  0  0
  187.0750  177.1290  137.7900 N   0  0  0  0  0  1  0  0  0  0  0  0
  189.4350  177.9280  140.5660 C   0  0  0  0  0  3  0  0  0  0  0  0
  188.2880  176.7550  144.9190 C   0  0  0  0  0  2  0  0  0  0  0  0
  189.5760  177.5240  144.9730 C   0  0  0  0  0  0  0  0  0  0  0  0
  189.5720  178.6280  145.4980 O   0  0  0  0  0  0  0  0  0  0  0  0
  191.6830  176.3780  145.5850 C   0  0  0  0  0  1  0  0  0  0  0  0
  190.6440  175.8530  143.4150 C   0  0  0  0  0  1  0  0  0  0  0  0
  191.6800  178.0540  143.7740 C   0  0  0  0  0  1  0  0  0  0  0  0
  190.8750  176.9550  144.4390 C   0  0  0  0  0  0  0  0  0  0  0  0
  1  2  1  0  0  0  0
  2 11  2  0  0  0  0
  2  7  1  0  0  0  0
  3  4  2  0  0  0  0
  4 11  1  0  0  0  0
  5  6  1  0  0  0  0
  5  9  2  0  0  0  0
  7 10  2  0  0  0  0
  8  3  1  0  0  0  0
  8  1  2  0  0  0  0
 10  9  1  0  0  0  0
 10 19  1  0  0  0  0
 11  5  1  0  0  0  0
 12  1  1  0  0  0  0
 12 18  1  0  0  0  0
 13 16  1  0  0  0  0
 14 12  2  0  0  0  0
 15 14  1  0  0  0  0
 15 13  2  0  0  0  0
 16 18  2  0  0  0  0
 17 14  1  0  0  0  0
 19 20  1  0  0  0  0
 20 21  2  0  0  0  0
 23 25  1  0  0  0  0
 24 25  1  0  0  0  0
 25 20  1  0  0  0  0
 25 22  1  0  0  0  0
M  END
>  <MODEL>
9

>  <REMARK>
 VINA RESULT:      -7.6      2.187      5.413
  Name = 
  4 active torsions:
  status: ('A' for Active; 'I' for Inactive)
    1  A    between atoms: C_1  and  C_5
    2  A    between atoms: C_6  and  C_15
    3  A    between atoms: C_6  and  C_23
    4  A    between atoms: C_15  and  C_21
                            x       y       z     vdW  Elec       q    Type
                         _______ _______ _______ _____ _____    ______ ____

>  <TORSDO>
F 4

$$$$
