=
 OpenBabel11052413383D

 28 30  0  0  1  0  0  0  0  0999 V2000
  186.5680  178.2800  139.3870 O   0  0  0  0  0  1  0  0  0  0  0  0
  185.1660  177.9180  142.3430 C   0  0  1  0  0  3  0  0  0  0  0  0
  185.6690  180.2750  142.1260 O   0  0  0  0  0  1  0  0  0  0  0  0
  184.1650  178.5530  139.7650 C   0  0  2  0  0  3  0  0  0  0  0  0
  183.6410  178.0560  142.2240 C   0  0  0  0  0  2  0  0  0  0  0  0
  185.6100  179.0060  140.0990 C   0  0  1  0  0  3  0  0  0  0  0  0
  185.9470  179.0130  141.5950 C   0  0  2  0  0  3  0  0  0  0  0  0
  183.2000  178.7910  140.9450 C   0  0  2  0  0  3  0  0  0  0  0  0
  181.7290  178.5120  140.5960 C   0  0  1  0  0  3  0  0  0  0  0  0
  180.7840  179.1230  141.6440 C   0  0  1  0  0  3  0  0  0  0  0  0
  180.1890  180.4510  141.2450 C   0  0  0  0  0  0  0  0  0  0  0  0
  179.0800  180.8970  139.0320 C   0  0  0  0  0  1  0  0  0  0  0  0
  180.3640  180.9900  139.8460 C   0  0  2  0  0  3  0  0  0  0  0  0
  181.4690  180.4340  139.1600 O   0  0  0  0  0  0  0  0  0  0  0  0
  181.3790  179.0290  139.1960 C   0  0  0  0  0  2  0  0  0  0  0  0
  179.5650  181.1030  142.0670 O   0  0  0  0  0  0  0  0  0  0  0  0
  179.5140  177.9250  142.1880 S   0  0  0  0  0  0  0  0  0  0  0  0
  179.8290  178.1130  143.9700 C   0  0  0  0  0  1  0  0  0  0  0  0
  184.9850  178.6600  144.7690 C   0  0  0  0  0  2  0  0  0  0  0  0
  187.1220  177.6330  143.9490 C   0  0  0  0  0  0  0  0  0  0  0  0
  186.8350  178.2350  146.3510 C   0  0  0  0  0  0  0  0  0  0  0  0
  185.6180  177.6610  143.7890 C   0  0  2  0  0  3  0  0  0  0  0  0
  187.6720  177.8640  145.2490 N   0  0  0  0  0  2  0  0  0  0  0  0
  188.0800  176.9500  142.8080 S   0  0  0  0  0  0  0  0  0  0  0  0
  187.3820  178.2080  147.7320 C   0  0  0  0  0  1  0  0  0  0  0  0
  185.5540  178.5480  146.1530 C   0  0  0  0  0  3  0  0  0  0  0  0
  184.0550  177.1510  139.1450 C   0  0  0  0  0  2  0  0  0  0  0  0
  183.9730  177.2090  137.7530 O   0  0  0  0  0  1  0  0  0  0  0  0
  2  5  1  1  0  0  0
  2 22  1  0  0  0  0
  4 27  1  1  0  0  0
  4  6  1  0  0  0  0
  4  8  1  0  0  0  0
  6  1  1  6  0  0  0
  6  7  1  0  0  0  0
  7  3  1  1  0  0  0
  7  2  1  0  0  0  0
  8  5  1  1  0  0  0
  9 15  1  6  0  0  0
  9  8  1  0  0  0  0
  9 10  1  0  0  0  0
 10 17  1  6  0  0  0
 11 10  1  0  0  0  0
 11 16  2  0  0  0  0
 13 12  1  6  0  0  0
 13 11  1  0  0  0  0
 14 15  1  0  0  0  0
 14 13  1  0  0  0  0
 17 18  1  0  0  0  0
 19 26  1  0  0  0  0
 20 23  1  0  0  0  0
 21 25  1  0  0  0  0
 22 20  1  0  0  0  0
 22 19  1  1  0  0  0
 23 21  1  0  0  0  0
 24 20  2  0  0  0  0
 26 21  2  0  0  0  0
 28 27  1  0  0  0  0
M  END
>  <MODEL>
1

>  <REMARK>
 VINA RESULT:      -6.4      0.000      0.000
  Name = 
  4 active torsions:
  status: ('A' for Active; 'I' for Inactive)
    1  A    between atoms: C_1  and  C_27
    2  A    between atoms: C_2  and  S_7
    3  A    between atoms: C_10  and  C_13
    4  A    between atoms: C_16  and  C_19
                            x       y       z     vdW  Elec       q    Type
                         _______ _______ _______ _____ _____    ______ ____

>  <TORSDO>
F 4

$$$$
=
 OpenBabel11052413383D

 28 30  0  0  1  0  0  0  0  0999 V2000
  180.0770  181.2100  140.5440 O   0  0  0  0  0  1  0  0  0  0  0  0
  182.2960  178.8970  141.2940 C   0  0  1  0  0  3  0  0  0  0  0  0
  180.1540  178.0220  142.0010 O   0  0  0  0  0  1  0  0  0  0  0  0
  180.6380  179.3630  139.0400 C   0  0  2  0  0  3  0  0  0  0  0  0
  182.4870  177.9440  140.1050 C   0  0  0  0  0  2  0  0  0  0  0  0
  180.1030  179.8180  140.4220 C   0  0  1  0  0  3  0  0  0  0  0  0
  180.8220  179.1900  141.6230 C   0  0  2  0  0  3  0  0  0  0  0  0
  181.3120  177.9760  139.1110 C   0  0  2  0  0  3  0  0  0  0  0  0
  181.7030  177.4160  137.7350 C   0  0  1  0  0  3  0  0  0  0  0  0
  183.0340  176.6490  137.8050 C   0  0  1  0  0  3  0  0  0  0  0  0
  182.8830  175.1510  137.9040 C   0  0  0  0  0  0  0  0  0  0  0  0
  181.4190  173.7730  136.3930 C   0  0  0  0  0  1  0  0  0  0  0  0
  181.5360  174.4940  137.7300 C   0  0  2  0  0  3  0  0  0  0  0  0
  180.4460  175.3670  137.9590 O   0  0  0  0  0  0  0  0  0  0  0  0
  180.6000  176.5180  137.1620 C   0  0  0  0  0  2  0  0  0  0  0  0
  183.8630  174.4610  138.1360 O   0  0  0  0  0  0  0  0  0  0  0  0
  184.1720  177.1480  136.4630 S   0  0  0  0  0  0  0  0  0  0  0  0
  185.6040  177.4640  137.5390 C   0  0  0  0  0  1  0  0  0  0  0  0
  182.5630  178.9980  143.8210 C   0  0  0  0  0  2  0  0  0  0  0  0
  184.6060  178.9800  142.3640 C   0  0  0  0  0  0  0  0  0  0  0  0
  184.8100  178.9210  144.8480 C   0  0  0  0  0  0  0  0  0  0  0  0
  183.1730  178.5140  142.4960 C   0  0  2  0  0  3  0  0  0  0  0  0
  185.3920  179.1070  143.5530 N   0  0  0  0  0  2  0  0  0  0  0  0
  185.3790  178.9320  140.9200 S   0  0  0  0  0  0  0  0  0  0  0  0
  185.6900  178.7940  146.0390 C   0  0  0  0  0  1  0  0  0  0  0  0
  183.4890  178.8020  144.9860 C   0  0  0  0  0  3  0  0  0  0  0  0
  181.4640  180.4170  138.2860 C   0  0  0  0  0  2  0  0  0  0  0  0
  180.8270  180.8290  137.1160 O   0  0  0  0  0  1  0  0  0  0  0  0
  2  5  1  6  0  0  0
  2  7  1  0  0  0  0
  2 22  1  0  0  0  0
  4 27  1  1  0  0  0
  4  8  1  0  0  0  0
  4  6  1  0  0  0  0
  6  1  1  1  0  0  0
  6  7  1  0  0  0  0
  7  3  1  6  0  0  0
  8  5  1  1  0  0  0
  9 15  1  1  0  0  0
  9 10  1  0  0  0  0
  9  8  1  0  0  0  0
 10 17  1  6  0  0  0
 10 11  1  0  0  0  0
 11 16  2  0  0  0  0
 13 12  1  6  0  0  0
 13 11  1  0  0  0  0
 13 14  1  0  0  0  0
 15 14  1  0  0  0  0
 17 18  1  0  0  0  0
 19 26  1  0  0  0  0
 20 22  1  0  0  0  0
 20 23  1  0  0  0  0
 21 26  2  0  0  0  0
 21 25  1  0  0  0  0
 22 19  1  1  0  0  0
 23 21  1  0  0  0  0
 24 20  2  0  0  0  0
 28 27  1  0  0  0  0
M  END
>  <MODEL>
2

>  <REMARK>
 VINA RESULT:      -6.3      2.734      5.117
  Name = 
  4 active torsions:
  status: ('A' for Active; 'I' for Inactive)
    1  A    between atoms: C_1  and  C_27
    2  A    between atoms: C_2  and  S_7
    3  A    between atoms: C_10  and  C_13
    4  A    between atoms: C_16  and  C_19
                            x       y       z     vdW  Elec       q    Type
                         _______ _______ _______ _____ _____    ______ ____

>  <TORSDO>
F 4

$$$$
=
 OpenBabel11052413383D

 28 30  0  0  1  0  0  0  0  0999 V2000
  189.3470  179.8620  137.4760 O   0  0  0  0  0  1  0  0  0  0  0  0
  189.3990  177.1730  139.3740 C   0  0  1  0  0  3  0  0  0  0  0  0
  187.3680  178.3580  139.9490 O   0  0  0  0  0  1  0  0  0  0  0  0
  188.2610  177.7620  136.8420 C   0  0  2  0  0  3  0  0  0  0  0  0
  188.7160  176.0040  138.6500 C   0  0  0  0  0  2  0  0  0  0  0  0
  188.3800  178.9280  137.8570 C   0  0  1  0  0  3  0  0  0  0  0  0
  188.6050  178.4900  139.3100 C   0  0  2  0  0  3  0  0  0  0  0  0
  187.7810  176.4590  137.5160 C   0  0  2  0  0  3  0  0  0  0  0  0
  187.4880  175.3280  136.5170 C   0  0  1  0  0  3  0  0  0  0  0  0
  187.1020  174.0310  137.2460 C   0  0  1  0  0  3  0  0  0  0  0  0
  185.6160  173.7790  137.3200 C   0  0  0  0  0  0  0  0  0  0  0  0
  184.0580  173.9060  135.3490 C   0  0  0  0  0  1  0  0  0  0  0  0
  184.6440  174.6390  136.5490 C   0  0  2  0  0  3  0  0  0  0  0  0
  185.1670  175.9050  136.1940 O   0  0  0  0  0  0  0  0  0  0  0  0
  186.3930  175.7290  135.5230 C   0  0  0  0  0  2  0  0  0  0  0  0
  185.1920  172.8730  138.0200 O   0  0  0  0  0  0  0  0  0  0  0  0
  188.0210  172.5900  136.5930 S   0  0  0  0  0  0  0  0  0  0  0  0
  189.5210  173.5150  136.1410 C   0  0  0  0  0  1  0  0  0  0  0  0
  188.8880  177.1360  141.8650 C   0  0  0  0  0  2  0  0  0  0  0  0
  191.2660  177.3550  141.0960 C   0  0  0  0  0  0  0  0  0  0  0  0
  190.7230  177.1580  143.5210 C   0  0  0  0  0  0  0  0  0  0  0  0
  189.9060  176.7800  140.7700 C   0  0  2  0  0  3  0  0  0  0  0  0
  191.6470  177.4650  142.4710 N   0  0  0  0  0  2  0  0  0  0  0  0
  192.4370  177.4530  139.9530 S   0  0  0  0  0  0  0  0  0  0  0  0
  191.2140  177.0210  144.9170 C   0  0  0  0  0  1  0  0  0  0  0  0
  189.4370  176.9350  143.2480 C   0  0  0  0  0  3  0  0  0  0  0  0
  189.4820  177.5740  135.9270 C   0  0  0  0  0  2  0  0  0  0  0  0
  189.1720  177.8510  134.5950 O   0  0  0  0  0  1  0  0  0  0  0  0
  2  5  1  1  0  0  0
  2 22  1  0  0  0  0
  4 27  1  1  0  0  0
  4  8  1  0  0  0  0
  4  6  1  0  0  0  0
  6  1  1  6  0  0  0
  6  7  1  0  0  0  0
  7  2  1  0  0  0  0
  7  3  1  6  0  0  0
  8  5  1  1  0  0  0
  9 15  1  6  0  0  0
  9 10  1  0  0  0  0
  9  8  1  0  0  0  0
 10 17  1  6  0  0  0
 10 11  1  0  0  0  0
 11 16  2  0  0  0  0
 13 12  1  6  0  0  0
 13 11  1  0  0  0  0
 14 13  1  0  0  0  0
 15 14  1  0  0  0  0
 18 17  1  0  0  0  0
 19 26  1  0  0  0  0
 20 23  1  0  0  0  0
 21 25  1  0  0  0  0
 22 20  1  0  0  0  0
 22 19  1  1  0  0  0
 23 21  1  0  0  0  0
 24 20  2  0  0  0  0
 26 21  2  0  0  0  0
 28 27  1  0  0  0  0
M  END
>  <MODEL>
3

>  <REMARK>
 VINA RESULT:      -5.7      5.992      7.008
  Name = 
  4 active torsions:
  status: ('A' for Active; 'I' for Inactive)
    1  A    between atoms: C_1  and  C_27
    2  A    between atoms: C_2  and  S_7
    3  A    between atoms: C_10  and  C_13
    4  A    between atoms: C_16  and  C_19
                            x       y       z     vdW  Elec       q    Type
                         _______ _______ _______ _____ _____    ______ ____

>  <TORSDO>
F 4

$$$$
=
 OpenBabel11052413383D

 28 30  0  0  1  0  0  0  0  0999 V2000
  185.9330  178.0990  143.3250 O   0  0  0  0  0  1  0  0  0  0  0  0
  189.1750  177.6790  143.7090 C   0  0  1  0  0  3  0  0  0  0  0  0
  188.2220  175.4570  143.6020 O   0  0  0  0  0  1  0  0  0  0  0  0
  187.4730  177.8210  141.4440 C   0  0  2  0  0  3  0  0  0  0  0  0
  189.8670  177.6360  142.3390 C   0  0  0  0  0  2  0  0  0  0  0  0
  186.8720  177.2400  142.7500 C   0  0  1  0  0  3  0  0  0  0  0  0
  187.9100  176.8070  143.7930 C   0  0  2  0  0  3  0  0  0  0  0  0
  188.9030  177.3010  141.1870 C   0  0  2  0  0  3  0  0  0  0  0  0
  189.4680  177.7190  139.8200 C   0  0  1  0  0  3  0  0  0  0  0  0
  190.3140  176.5940  139.2010 C   0  0  1  0  0  3  0  0  0  0  0  0
  189.5860  175.7630  138.1740 C   0  0  0  0  0  0  0  0  0  0  0  0
  188.2710  176.7180  136.2540 C   0  0  0  0  0  1  0  0  0  0  0  0
  188.2210  176.1690  137.6740 C   0  0  2  0  0  3  0  0  0  0  0  0
  187.5310  177.0350  138.5550 O   0  0  0  0  0  0  0  0  0  0  0  0
  188.3520  178.1390  138.8570 C   0  0  0  0  0  2  0  0  0  0  0  0
  190.1040  174.7430  137.7470 O   0  0  0  0  0  0  0  0  0  0  0  0
  191.9190  177.2180  138.5830 S   0  0  0  0  0  0  0  0  0  0  0  0
  192.6910  177.4040  140.2200 C   0  0  0  0  0  1  0  0  0  0  0  0
  191.2360  176.4510  144.5550 C   0  0  0  0  0  2  0  0  0  0  0  0
  189.4950  177.2120  146.1920 C   0  0  0  0  0  0  0  0  0  0  0  0
  191.6050  176.1430  146.9790 C   0  0  0  0  0  0  0  0  0  0  0  0
  190.1670  177.5090  144.8710 C   0  0  2  0  0  3  0  0  0  0  0  0
  190.2670  176.5900  147.2240 N   0  0  0  0  0  2  0  0  0  0  0  0
  188.0870  177.9430  146.6060 S   0  0  0  0  0  0  0  0  0  0  0  0
  192.4700  175.7500  148.1210 C   0  0  0  0  0  1  0  0  0  0  0  0
  192.1000  176.1330  145.7400 C   0  0  0  0  0  3  0  0  0  0  0  0
  187.3280  179.3430  141.2870 C   0  0  0  0  0  2  0  0  0  0  0  0
  186.0280  179.7010  140.9320 O   0  0  0  0  0  1  0  0  0  0  0  0
  2  5  1  6  0  0  0
  2  7  1  0  0  0  0
  2 22  1  0  0  0  0
  4 27  1  1  0  0  0
  4  6  1  0  0  0  0
  6  1  1  1  0  0  0
  6  7  1  0  0  0  0
  7  3  1  6  0  0  0
  8  4  1  0  0  0  0
  8  5  1  1  0  0  0
  9 15  1  6  0  0  0
  9  8  1  0  0  0  0
 10 17  1  6  0  0  0
 10  9  1  0  0  0  0
 11 10  1  0  0  0  0
 13 12  1  6  0  0  0
 13 11  1  0  0  0  0
 13 14  1  0  0  0  0
 14 15  1  0  0  0  0
 16 11  2  0  0  0  0
 17 18  1  0  0  0  0
 19 26  1  0  0  0  0
 20 24  2  0  0  0  0
 20 23  1  0  0  0  0
 21 23  1  0  0  0  0
 21 25  1  0  0  0  0
 22 19  1  6  0  0  0
 22 20  1  0  0  0  0
 26 21  2  0  0  0  0
 28 27  1  0  0  0  0
M  END
>  <MODEL>
4

>  <REMARK>
 VINA RESULT:      -5.5      4.888      7.396
  Name = 
  4 active torsions:
  status: ('A' for Active; 'I' for Inactive)
    1  A    between atoms: C_1  and  C_27
    2  A    between atoms: C_2  and  S_7
    3  A    between atoms: C_10  and  C_13
    4  A    between atoms: C_16  and  C_19
                            x       y       z     vdW  Elec       q    Type
                         _______ _______ _______ _____ _____    ______ ____

>  <TORSDO>
F 4

$$$$
=
 OpenBabel11052413383D

 28 30  0  0  1  0  0  0  0  0999 V2000
  186.4590  178.2600  145.4240 O   0  0  0  0  0  1  0  0  0  0  0  0
  187.7230  178.4990  142.3940 C   0  0  1  0  0  3  0  0  0  0  0  0
  187.4490  176.1320  142.8190 O   0  0  0  0  0  1  0  0  0  0  0  0
  185.0770  178.3310  143.4060 C   0  0  2  0  0  3  0  0  0  0  0  0
  186.5940  178.6200  141.3600 C   0  0  0  0  0  2  0  0  0  0  0  0
  186.1940  177.6190  144.2120 C   0  0  1  0  0  3  0  0  0  0  0  0
  187.4950  177.3870  143.4330 C   0  0  2  0  0  3  0  0  0  0  0  0
  185.2380  178.1160  141.8860 C   0  0  2  0  0  3  0  0  0  0  0  0
  184.0590  178.6620  141.0640 C   0  0  1  0  0  3  0  0  0  0  0  0
  184.4100  178.7330  139.5690 C   0  0  1  0  0  3  0  0  0  0  0  0
  183.8930  177.5730  138.7540 C   0  0  0  0  0  0  0  0  0  0  0  0
  181.5220  176.7390  138.8260 C   0  0  0  0  0  1  0  0  0  0  0  0
  182.9400  176.5680  139.3540 C   0  0  2  0  0  3  0  0  0  0  0  0
  182.9790  176.5250  140.7670 O   0  0  0  0  0  0  0  0  0  0  0  0
  182.7930  177.8250  141.2760 C   0  0  0  0  0  2  0  0  0  0  0  0
  184.2570  177.4400  137.5970 O   0  0  0  0  0  0  0  0  0  0  0  0
  183.9580  180.3510  138.8450 S   0  0  0  0  0  0  0  0  0  0  0  0
  182.1620  180.0570  138.8380 C   0  0  0  0  0  1  0  0  0  0  0  0
  189.1460  177.6880  140.4490 C   0  0  0  0  0  2  0  0  0  0  0  0
  190.2180  178.0800  142.6830 C   0  0  0  0  0  0  0  0  0  0  0  0
  191.5910  177.4340  140.7050 C   0  0  0  0  0  0  0  0  0  0  0  0
  189.1150  178.5140  141.7440 C   0  0  2  0  0  3  0  0  0  0  0  0
  191.4460  177.6100  142.1190 N   0  0  0  0  0  2  0  0  0  0  0  0
  190.2030  178.5180  144.2620 S   0  0  0  0  0  0  0  0  0  0  0  0
  192.9400  177.2060  140.1260 C   0  0  0  0  0  1  0  0  0  0  0  0
  190.5340  177.5330  139.8980 C   0  0  0  0  0  3  0  0  0  0  0  0
  184.8270  179.7950  143.8030 C   0  0  0  0  0  2  0  0  0  0  0  0
  183.5370  179.9780  144.3010 O   0  0  0  0  0  1  0  0  0  0  0  0
  2  5  1  6  0  0  0
  2  7  1  0  0  0  0
  4 27  1  6  0  0  0
  4  6  1  0  0  0  0
  6  1  1  1  0  0  0
  7  3  1  6  0  0  0
  7  6  1  0  0  0  0
  8  5  1  6  0  0  0
  8  4  1  0  0  0  0
  9 15  1  6  0  0  0
  9  8  1  0  0  0  0
 10 17  1  6  0  0  0
 10  9  1  0  0  0  0
 11 13  1  0  0  0  0
 11 10  1  0  0  0  0
 13 12  1  1  0  0  0
 13 14  1  0  0  0  0
 14 15  1  0  0  0  0
 16 11  2  0  0  0  0
 18 17  1  0  0  0  0
 20 24  2  0  0  0  0
 21 23  1  0  0  0  0
 22 19  1  6  0  0  0
 22  2  1  0  0  0  0
 22 20  1  0  0  0  0
 23 20  1  0  0  0  0
 25 21  1  0  0  0  0
 26 19  1  0  0  0  0
 26 21  2  0  0  0  0
 27 28  1  0  0  0  0
M  END
>  <MODEL>
5

>  <REMARK>
 VINA RESULT:      -5.2      3.175      5.232
  Name = 
  4 active torsions:
  status: ('A' for Active; 'I' for Inactive)
    1  A    between atoms: C_1  and  C_27
    2  A    between atoms: C_2  and  S_7
    3  A    between atoms: C_10  and  C_13
    4  A    between atoms: C_16  and  C_19
                            x       y       z     vdW  Elec       q    Type
                         _______ _______ _______ _____ _____    ______ ____

>  <TORSDO>
F 4

$$$$
=
 OpenBabel11052413383D

 28 30  0  0  1  0  0  0  0  0999 V2000
  187.7220  179.3130  141.1060 O   0  0  0  0  0  1  0  0  0  0  0  0
  190.4030  177.4930  141.6790 C   0  0  1  0  0  3  0  0  0  0  0  0
  188.5150  176.0010  141.9330 O   0  0  0  0  0  1  0  0  0  0  0  0
  188.8530  178.0210  139.3620 C   0  0  2  0  0  3  0  0  0  0  0  0
  190.9230  176.8910  140.3660 C   0  0  0  0  0  2  0  0  0  0  0  0
  188.1170  178.0280  140.7270 C   0  0  1  0  0  3  0  0  0  0  0  0
  188.8830  177.3470  141.8690 C   0  0  2  0  0  3  0  0  0  0  0  0
  189.8570  176.8530  139.2560 C   0  0  2  0  0  3  0  0  0  0  0  0
  190.4810  176.7110  137.8590 C   0  0  1  0  0  3  0  0  0  0  0  0
  191.4540  175.5220  137.8040 C   0  0  1  0  0  3  0  0  0  0  0  0
  190.8670  174.2660  137.2080 C   0  0  0  0  0  0  0  0  0  0  0  0
  189.6170  174.1840  135.0270 C   0  0  0  0  0  1  0  0  0  0  0  0
  189.5120  174.2830  136.5430 C   0  0  2  0  0  3  0  0  0  0  0  0
  188.6960  175.3650  136.9490 O   0  0  0  0  0  0  0  0  0  0  0  0
  189.4040  176.5700  136.7770 C   0  0  0  0  0  2  0  0  0  0  0  0
  191.4910  173.2190  137.2720 O   0  0  0  0  0  0  0  0  0  0  0  0
  193.0430  175.9850  137.0260 S   0  0  0  0  0  0  0  0  0  0  0  0
  194.1010  175.2540  138.3130 C   0  0  0  0  0  1  0  0  0  0  0  0
  191.0100  175.6190  143.2880 C   0  0  0  0  0  2  0  0  0  0  0  0
  191.0880  177.9980  144.0800 C   0  0  0  0  0  0  0  0  0  0  0  0
  191.8210  176.1350  145.5650 C   0  0  0  0  0  0  0  0  0  0  0  0
  191.2570  177.0820  142.8890 C   0  0  2  0  0  3  0  0  0  0  0  0
  191.4380  177.5030  145.3750 N   0  0  0  0  0  2  0  0  0  0  0  0
  190.9280  179.6180  143.8820 S   0  0  0  0  0  0  0  0  0  0  0  0
  192.4300  175.7140  146.8530 C   0  0  0  0  0  1  0  0  0  0  0  0
  191.6890  175.2510  144.5760 C   0  0  0  0  0  3  0  0  0  0  0  0
  189.4310  179.3780  138.9320 C   0  0  0  0  0  2  0  0  0  0  0  0
  188.9740  179.7530  137.6680 O   0  0  0  0  0  1  0  0  0  0  0  0
  2  5  1  6  0  0  0
  2  7  1  0  0  0  0
  2 22  1  0  0  0  0
  4 27  1  1  0  0  0
  4  6  1  0  0  0  0
  6  1  1  1  0  0  0
  6  7  1  0  0  0  0
  7  3  1  6  0  0  0
  8  4  1  0  0  0  0
  8  5  1  1  0  0  0
  9 15  1  6  0  0  0
  9  8  1  0  0  0  0
 10 17  1  6  0  0  0
 10  9  1  0  0  0  0
 11 16  2  0  0  0  0
 11 10  1  0  0  0  0
 13 12  1  6  0  0  0
 13 14  1  0  0  0  0
 13 11  1  0  0  0  0
 15 14  1  0  0  0  0
 17 18  1  0  0  0  0
 19 26  1  0  0  0  0
 20 23  1  0  0  0  0
 21 25  1  0  0  0  0
 22 19  1  1  0  0  0
 22 20  1  0  0  0  0
 23 21  1  0  0  0  0
 24 20  2  0  0  0  0
 26 21  2  0  0  0  0
 28 27  1  0  0  0  0
M  END
>  <MODEL>
6

>  <REMARK>
 VINA RESULT:      -5.2      6.016      8.596
  Name = 
  4 active torsions:
  status: ('A' for Active; 'I' for Inactive)
    1  A    between atoms: C_1  and  C_27
    2  A    between atoms: C_2  and  S_7
    3  A    between atoms: C_10  and  C_13
    4  A    between atoms: C_16  and  C_19
                            x       y       z     vdW  Elec       q    Type
                         _______ _______ _______ _____ _____    ______ ____

>  <TORSDO>
F 4

$$$$
=
 OpenBabel11052413383D

 28 30  0  0  1  0  0  0  0  0999 V2000
  189.9430  177.5650  134.7760 O   0  0  0  0  0  1  0  0  0  0  0  0
  188.9620  176.6040  137.7680 C   0  0  1  0  0  3  0  0  0  0  0  0
  188.3370  178.9340  137.5760 O   0  0  0  0  0  1  0  0  0  0  0  0
  187.6920  176.7210  135.2330 C   0  0  2  0  0  3  0  0  0  0  0  0
  187.5370  176.0380  137.6990 C   0  0  0  0  0  2  0  0  0  0  0  0
  188.7860  177.7790  135.5300 C   0  0  1  0  0  3  0  0  0  0  0  0
  189.1370  177.9350  137.0150 C   0  0  2  0  0  3  0  0  0  0  0  0
  186.7660  176.4950  136.4470 C   0  0  2  0  0  3  0  0  0  0  0  0
  185.5680  175.5810  136.1400 C   0  0  1  0  0  3  0  0  0  0  0  0
  184.8720  175.1250  137.4320 C   0  0  1  0  0  3  0  0  0  0  0  0
  183.6380  175.9170  137.7860 C   0  0  0  0  0  0  0  0  0  0  0  0
  181.7670  176.4150  136.1810 C   0  0  0  0  0  1  0  0  0  0  0  0
  183.0550  176.9180  136.8180 C   0  0  2  0  0  3  0  0  0  0  0  0
  183.9820  177.3770  135.8520 O   0  0  0  0  0  0  0  0  0  0  0  0
  184.5650  176.2690  135.2070 C   0  0  0  0  0  2  0  0  0  0  0  0
  183.1080  175.7540  138.8730 O   0  0  0  0  0  0  0  0  0  0  0  0
  184.5670  173.3210  137.4330 S   0  0  0  0  0  0  0  0  0  0  0  0
  186.0970  172.8710  136.5590 C   0  0  0  0  0  1  0  0  0  0  0  0
  188.7480  177.5010  140.1380 C   0  0  0  0  0  2  0  0  0  0  0  0
  191.0130  176.8860  139.2520 C   0  0  0  0  0  0  0  0  0  0  0  0
  190.7250  177.6230  141.6160 C   0  0  0  0  0  0  0  0  0  0  0  0
  189.5330  176.5780  139.1940 C   0  0  2  0  0  3  0  0  0  0  0  0
  191.5650  177.3420  140.4900 N   0  0  0  0  0  2  0  0  0  0  0  0
  192.0370  176.3250  138.1010 S   0  0  0  0  0  0  0  0  0  0  0  0
  191.3350  177.8340  142.9540 C   0  0  0  0  0  1  0  0  0  0  0  0
  189.3980  177.6360  141.4840 C   0  0  0  0  0  3  0  0  0  0  0  0
  188.2050  175.4210  134.5940 C   0  0  0  0  0  2  0  0  0  0  0  0
  189.2920  174.8970  135.2950 O   0  0  0  0  0  1  0  0  0  0  0  0
  2  5  1  1  0  0  0
  2 22  1  0  0  0  0
  4 27  1  1  0  0  0
  4  6  1  0  0  0  0
  4  8  1  0  0  0  0
  6  1  1  6  0  0  0
  6  7  1  0  0  0  0
  7  3  1  1  0  0  0
  7  2  1  0  0  0  0
  8  5  1  1  0  0  0
  9 15  1  6  0  0  0
  9  8  1  0  0  0  0
  9 10  1  0  0  0  0
 10 17  1  6  0  0  0
 10 11  1  0  0  0  0
 11 16  2  0  0  0  0
 13 12  1  6  0  0  0
 13 11  1  0  0  0  0
 14 13  1  0  0  0  0
 15 14  1  0  0  0  0
 18 17  1  0  0  0  0
 19 26  1  0  0  0  0
 20 23  1  0  0  0  0
 21 25  1  0  0  0  0
 22 20  1  0  0  0  0
 22 19  1  1  0  0  0
 23 21  1  0  0  0  0
 24 20  2  0  0  0  0
 26 21  2  0  0  0  0
 27 28  1  0  0  0  0
M  END
>  <MODEL>
7

>  <REMARK>
 VINA RESULT:      -5.0      5.213      6.467
  Name = 
  4 active torsions:
  status: ('A' for Active; 'I' for Inactive)
    1  A    between atoms: C_1  and  C_27
    2  A    between atoms: C_2  and  S_7
    3  A    between atoms: C_10  and  C_13
    4  A    between atoms: C_16  and  C_19
                            x       y       z     vdW  Elec       q    Type
                         _______ _______ _______ _____ _____    ______ ____

>  <TORSDO>
F 4

$$$$
=
 OpenBabel11052413383D

 28 30  0  0  1  0  0  0  0  0999 V2000
  182.1200  174.8720  137.9590 O   0  0  0  0  0  1  0  0  0  0  0  0
  183.6380  177.7890  138.1070 C   0  0  1  0  0  3  0  0  0  0  0  0
  183.5490  177.2000  135.7620 O   0  0  0  0  0  1  0  0  0  0  0  0
  180.9360  177.0020  137.7460 C   0  0  2  0  0  3  0  0  0  0  0  0
  182.6060  178.9240  138.0390 C   0  0  0  0  0  2  0  0  0  0  0  0
  182.0330  176.0470  137.2090 C   0  0  1  0  0  3  0  0  0  0  0  0
  183.4180  176.6880  137.0560 C   0  0  2  0  0  3  0  0  0  0  0  0
  181.2590  178.4800  137.4390 C   0  0  2  0  0  3  0  0  0  0  0  0
  180.1180  179.4430  137.8040 C   0  0  1  0  0  3  0  0  0  0  0  0
  180.6570  180.7080  138.4900 C   0  0  1  0  0  3  0  0  0  0  0  0
  180.8040  181.8980  137.5740 C   0  0  0  0  0  0  0  0  0  0  0  0
  179.0020  182.7190  136.0210 C   0  0  0  0  0  1  0  0  0  0  0  0
  180.2550  181.8650  136.1670 C   0  0  2  0  0  3  0  0  0  0  0  0
  180.0690  180.5570  135.6630 O   0  0  0  0  0  0  0  0  0  0  0  0
  179.2870  179.8170  136.5710 C   0  0  0  0  0  2  0  0  0  0  0  0
  181.3800  182.8980  137.9710 O   0  0  0  0  0  0  0  0  0  0  0  0
  179.7150  181.1080  140.0060 S   0  0  0  0  0  0  0  0  0  0  0  0
  180.4350  179.7860  141.0280 C   0  0  0  0  0  1  0  0  0  0  0  0
  186.0580  177.4560  137.4020 C   0  0  0  0  0  2  0  0  0  0  0  0
  185.5540  178.4630  139.6430 C   0  0  0  0  0  0  0  0  0  0  0  0
  187.9040  178.2570  138.8380 C   0  0  0  0  0  0  0  0  0  0  0  0
  185.0780  178.3140  138.2160 C   0  0  2  0  0  3  0  0  0  0  0  0
  186.9630  178.4900  139.8920 N   0  0  0  0  0  2  0  0  0  0  0  0
  184.5460  179.0040  140.8170 S   0  0  0  0  0  0  0  0  0  0  0  0
  189.3430  178.5510  139.0580 C   0  0  0  0  0  1  0  0  0  0  0  0
  187.4910  177.8350  137.6420 C   0  0  0  0  0  3  0  0  0  0  0  0
  180.5120  176.7480  139.2010 C   0  0  0  0  0  2  0  0  0  0  0  0
  179.1420  176.5050  139.3020 O   0  0  0  0  0  1  0  0  0  0  0  0
  2  5  1  6  0  0  0
  2 22  1  0  0  0  0
  4 27  1  1  0  0  0
  6  4  1  0  0  0  0
  6  1  1  1  0  0  0
  7  3  1  6  0  0  0
  7  6  1  0  0  0  0
  7  2  1  0  0  0  0
  8  4  1  0  0  0  0
  8  9  1  0  0  0  0
  8  5  1  1  0  0  0
  9 15  1  6  0  0  0
  9 10  1  0  0  0  0
 10 17  1  1  0  0  0
 11 16  2  0  0  0  0
 11 10  1  0  0  0  0
 13 12  1  1  0  0  0
 13 11  1  0  0  0  0
 14 13  1  0  0  0  0
 14 15  1  0  0  0  0
 17 18  1  0  0  0  0
 19 26  1  0  0  0  0
 20 23  1  0  0  0  0
 20 24  2  0  0  0  0
 21 25  1  0  0  0  0
 21 23  1  0  0  0  0
 22 19  1  6  0  0  0
 22 20  1  0  0  0  0
 26 21  2  0  0  0  0
 27 28  1  0  0  0  0
M  END
>  <MODEL>
8

>  <REMARK>
 VINA RESULT:      -5.0      4.002      5.273
  Name = 
  4 active torsions:
  status: ('A' for Active; 'I' for Inactive)
    1  A    between atoms: C_1  and  C_27
    2  A    between atoms: C_2  and  S_7
    3  A    between atoms: C_10  and  C_13
    4  A    between atoms: C_16  and  C_19
                            x       y       z     vdW  Elec       q    Type
                         _______ _______ _______ _____ _____    ______ ____

>  <TORSDO>
F 4

$$$$
=
 OpenBabel11052413383D

 28 30  0  0  1  0  0  0  0  0999 V2000
  193.2550  176.8960  140.2620 O   0  0  0  0  0  1  0  0  0  0  0  0
  190.1120  176.4850  141.1500 C   0  0  1  0  0  3  0  0  0  0  0  0
  190.4650  178.8760  141.0260 O   0  0  0  0  0  1  0  0  0  0  0  0
  191.4150  176.8120  138.6510 C   0  0  2  0  0  3  0  0  0  0  0  0
  189.2220  176.3780  139.9040 C   0  0  0  0  0  2  0  0  0  0  0  0
  192.0550  177.5030  139.8830 C   0  0  1  0  0  3  0  0  0  0  0  0
  191.1220  177.6450  141.0920 C   0  0  2  0  0  3  0  0  0  0  0  0
  189.8790  176.9630  138.6410 C   0  0  2  0  0  3  0  0  0  0  0  0
  189.2230  176.4400  137.3530 C   0  0  1  0  0  3  0  0  0  0  0  0
  187.7480  176.0750  137.5890 C   0  0  1  0  0  3  0  0  0  0  0  0
  186.7680  177.1370  137.1570 C   0  0  0  0  0  0  0  0  0  0  0  0
  186.8050  178.2670  134.9100 C   0  0  0  0  0  1  0  0  0  0  0  0
  187.2270  178.3420  136.3710 C   0  0  2  0  0  3  0  0  0  0  0  0
  188.6070  178.6170  136.5120 O   0  0  0  0  0  0  0  0  0  0  0  0
  189.3450  177.4550  136.2110 C   0  0  0  0  0  2  0  0  0  0  0  0
  185.5890  177.0260  137.4530 O   0  0  0  0  0  0  0  0  0  0  0  0
  187.3420  174.4290  136.9010 S   0  0  0  0  0  0  0  0  0  0  0  0
  189.0560  173.8220  136.8440 C   0  0  0  0  0  1  0  0  0  0  0  0
  188.0950  177.3270  142.4510 C   0  0  0  0  0  2  0  0  0  0  0  0
  190.1460  176.5940  143.6950 C   0  0  0  0  0  0  0  0  0  0  0  0
  188.0880  177.2810  144.9220 C   0  0  0  0  0  0  0  0  0  0  0  0
  189.3070  176.3820  142.4550 C   0  0  2  0  0  3  0  0  0  0  0  0
  189.4880  176.9800  144.9050 N   0  0  0  0  0  2  0  0  0  0  0  0
  191.6720  176.0030  143.7920 S   0  0  0  0  0  0  0  0  0  0  0  0
  187.3790  177.4150  146.2210 C   0  0  0  0  0  1  0  0  0  0  0  0
  187.4030  177.3820  143.7820 C   0  0  0  0  0  3  0  0  0  0  0  0
  191.9000  175.3780  138.3890 C   0  0  0  0  0  2  0  0  0  0  0  0
  192.6890  175.3040  137.2410 O   0  0  0  0  0  1  0  0  0  0  0  0
  2  5  1  6  0  0  0
  2 22  1  0  0  0  0
  4 27  1  1  0  0  0
  4  6  1  0  0  0  0
  6  1  1  1  0  0  0
  6  7  1  0  0  0  0
  7  3  1  6  0  0  0
  7  2  1  0  0  0  0
  8  4  1  0  0  0  0
  8  5  1  1  0  0  0
  9 15  1  6  0  0  0
  9 10  1  0  0  0  0
  9  8  1  0  0  0  0
 10 17  1  6  0  0  0
 11 16  2  0  0  0  0
 11 10  1  0  0  0  0
 13 12  1  6  0  0  0
 13 14  1  0  0  0  0
 13 11  1  0  0  0  0
 15 14  1  0  0  0  0
 18 17  1  0  0  0  0
 19 26  1  0  0  0  0
 20 24  2  0  0  0  0
 20 23  1  0  0  0  0
 21 25  1  0  0  0  0
 22 19  1  6  0  0  0
 22 20  1  0  0  0  0
 23 21  1  0  0  0  0
 26 21  2  0  0  0  0
 28 27  1  0  0  0  0
M  END
>  <MODEL>
9

>  <REMARK>
 VINA RESULT:      -4.9      5.262      7.025
  Name = 
  4 active torsions:
  status: ('A' for Active; 'I' for Inactive)
    1  A    between atoms: C_1  and  C_27
    2  A    between atoms: C_2  and  S_7
    3  A    between atoms: C_10  and  C_13
    4  A    between atoms: C_16  and  C_19
                            x       y       z     vdW  Elec       q    Type
                         _______ _______ _______ _____ _____    ______ ____

>  <TORSDO>
F 4

$$$$
