=
 OpenBabel11052413383D

 28 30  0  0  1  0  0  0  0  0999 V2000
  186.1640  178.9780  138.1540 O   0  0  0  0  0  0  0  0  0  0  0  0
  183.4140  177.7470  140.0480 C   0  0  1  0  0  3  0  0  0  0  0  0
  183.2990  180.0600  138.9880 C   0  0  0  0  0  1  0  0  0  0  0  0
  184.5490  177.4140  137.4030 C   0  0  2  0  0  3  0  0  0  0  0  0
  182.8600  176.7480  139.0120 C   0  0  0  0  0  2  0  0  0  0  0  0
  185.0690  178.4730  138.3400 C   0  0  0  0  0  0  0  0  0  0  0  0
  184.2060  178.9400  139.4750 C   0  0  2  0  0  3  0  0  0  0  0  0
  183.1030  177.1870  137.6280 N   0  0  2  0  0  0  0  0  0  0  0  0
  182.5460  176.2180  136.6650 C   0  0  1  0  0  3  0  0  0  0  0  0
  181.1060  175.7650  137.0550 C   0  0  1  0  0  3  0  0  0  0  0  0
  179.9880  176.7080  136.8370 N   0  0  0  0  0  0  0  0  0  0  0  0
  180.4390  178.0940  136.7280 C   0  0  0  0  0  2  0  0  0  0  0  0
  180.8860  178.4060  135.2990 C   0  0  0  0  0  2  0  0  0  0  0  0
  181.1350  177.2210  134.5940 O   0  0  0  0  0  0  0  0  0  0  0  0
  182.7740  176.7970  134.9160 S   0  0  0  0  0  0  0  0  0  0  0  0
  179.1490  176.6490  138.0210 C   0  0  0  0  0  1  0  0  0  0  0  0
  180.7720  174.3490  136.5830 C   0  0  0  0  0  2  0  0  0  0  0  0
  181.9180  173.3770  136.8060 C   0  0  0  0  0  1  0  0  0  0  0  0
  181.0480  177.9870  140.8770 C   0  0  0  0  0  3  0  0  0  0  0  0
  182.8670  178.5810  142.3710 C   0  0  0  0  0  0  0  0  0  0  0  0
  180.5650  178.7960  143.1050 C   0  0  0  0  0  0  0  0  0  0  0  0
  182.4250  178.1050  141.1220 C   0  0  0  0  0  0  0  0  0  0  0  0
  181.9340  178.9230  143.3560 C   0  0  0  0  0  3  0  0  0  0  0  0
  184.5770  178.7640  142.7330 Cl  0  0  0  0  0  0  0  0  0  0  0  0
  179.5800  179.1600  144.1570 C   0  0  0  0  0  1  0  0  0  0  0  0
  180.1230  178.3290  141.8650 C   0  0  0  0  0  3  0  0  0  0  0  0
  185.4040  176.1340  137.4310 C   0  0  0  0  0  2  0  0  0  0  0  0
  186.2800  176.0760  136.3450 O   0  0  0  0  0  1  0  0  0  0  0  0
  1  6  2  0  0  0  0
  2 22  1  6  0  0  0
  4 27  1  1  0  0  0
  4  8  1  0  0  0  0
  4  6  1  0  0  0  0
  5  2  1  0  0  0  0
  6  7  1  0  0  0  0
  7  3  1  6  0  0  0
  7  2  1  0  0  0  0
  8  5  1  1  0  0  0
  9 15  1  6  0  0  0
  9 10  1  0  0  0  0
  9  8  1  0  0  0  0
 10 17  1  6  0  0  0
 11 10  1  0  0  0  0
 11 16  1  0  0  0  0
 12 11  1  0  0  0  0
 13 12  1  0  0  0  0
 14 15  1  0  0  0  0
 14 13  1  0  0  0  0
 17 18  1  0  0  0  0
 19 22  2  0  0  0  0
 19 26  1  0  0  0  0
 20 24  1  0  0  0  0
 20 23  2  0  0  0  0
 21 23  1  0  0  0  0
 21 25  1  0  0  0  0
 22 20  1  0  0  0  0
 26 21  2  0  0  0  0
 28 27  1  0  0  0  0
M  END
>  <MODEL>
1

>  <REMARK>
 VINA RESULT:      -4.9      0.000      0.000
  Name = 
  4 active torsions:
  status: ('A' for Active; 'I' for Inactive)
    1  A    between atoms: C_1  and  N_27
    2  A    between atoms: C_2  and  C_7
    3  A    between atoms: C_10  and  C_13
    4  A    between atoms: C_16  and  C_19
                            x       y       z     vdW  Elec       q    Type
                         _______ _______ _______ _____ _____    ______ ____

>  <TORSDO>
F 4

$$$$
=
 OpenBabel11052413383D

 28 30  0  0  1  0  0  0  0  0999 V2000
  185.1600  178.1850  137.2850 O   0  0  0  0  0  0  0  0  0  0  0  0
  184.2800  177.6260  140.6880 C   0  0  1  0  0  3  0  0  0  0  0  0
  184.4120  180.0030  139.7780 C   0  0  0  0  0  1  0  0  0  0  0  0
  183.0340  177.4970  138.0750 C   0  0  2  0  0  3  0  0  0  0  0  0
  182.8340  177.1390  140.4670 C   0  0  0  0  0  2  0  0  0  0  0  0
  184.4160  178.0730  138.2460 C   0  0  0  0  0  0  0  0  0  0  0  0
  184.8510  178.5560  139.5970 C   0  0  2  0  0  3  0  0  0  0  0  0
  182.2140  177.7530  139.2810 N   0  0  2  0  0  0  0  0  0  0  0  0
  180.8280  177.2780  139.1100 C   0  0  1  0  0  3  0  0  0  0  0  0
  180.0590  177.2090  140.4650 C   0  0  1  0  0  3  0  0  0  0  0  0
  179.6070  178.4740  141.0830 N   0  0  0  0  0  0  0  0  0  0  0  0
  180.3450  179.6330  140.5860 C   0  0  0  0  0  2  0  0  0  0  0  0
  179.7380  180.1400  139.2770 C   0  0  0  0  0  2  0  0  0  0  0  0
  178.9310  179.1530  138.6970 O   0  0  0  0  0  0  0  0  0  0  0  0
  179.9710  178.1770  137.7300 S   0  0  0  0  0  0  0  0  0  0  0  0
  179.9070  178.3810  142.5010 C   0  0  0  0  0  1  0  0  0  0  0  0
  178.9740  176.1310  140.4860 C   0  0  0  0  0  2  0  0  0  0  0  0
  179.5350  174.7460  140.7580 C   0  0  0  0  0  1  0  0  0  0  0  0
  183.4880  178.4180  142.9440 C   0  0  0  0  0  3  0  0  0  0  0  0
  185.8740  178.1590  142.5780 C   0  0  0  0  0  0  0  0  0  0  0  0
  185.0450  178.9240  144.7250 C   0  0  0  0  0  0  0  0  0  0  0  0
  184.5530  178.0690  142.0990 C   0  0  0  0  0  0  0  0  0  0  0  0
  186.1120  178.5850  143.8890 C   0  0  0  0  0  3  0  0  0  0  0  0
  187.2490  177.7490  141.5640 Cl  0  0  0  0  0  0  0  0  0  0  0  0
  185.3060  179.3750  146.1170 C   0  0  0  0  0  1  0  0  0  0  0  0
  183.7330  178.8420  144.2520 C   0  0  0  0  0  3  0  0  0  0  0  0
  183.0630  176.0240  137.6290 C   0  0  0  0  0  2  0  0  0  0  0  0
  182.5380  175.8650  136.3450 O   0  0  0  0  0  1  0  0  0  0  0  0
  1  6  2  0  0  0  0
  2 22  1  1  0  0  0
  4 27  1  1  0  0  0
  4  6  1  0  0  0  0
  4  8  1  0  0  0  0
  5  2  1  0  0  0  0
  6  7  1  0  0  0  0
  7  3  1  1  0  0  0
  7  2  1  0  0  0  0
  8  5  1  1  0  0  0
  9 15  1  6  0  0  0
  9  8  1  0  0  0  0
  9 10  1  0  0  0  0
 10 17  1  6  0  0  0
 10 11  1  0  0  0  0
 11 16  1  0  0  0  0
 12 11  1  0  0  0  0
 13 12  1  0  0  0  0
 14 13  1  0  0  0  0
 15 14  1  0  0  0  0
 17 18  1  0  0  0  0
 19 26  1  0  0  0  0
 20 23  2  0  0  0  0
 21 25  1  0  0  0  0
 22 20  1  0  0  0  0
 22 19  2  0  0  0  0
 23 21  1  0  0  0  0
 24 20  1  0  0  0  0
 26 21  2  0  0  0  0
 28 27  1  0  0  0  0
M  END
>  <MODEL>
2

>  <REMARK>
 VINA RESULT:      -4.4      2.602      3.591
  Name = 
  4 active torsions:
  status: ('A' for Active; 'I' for Inactive)
    1  A    between atoms: C_1  and  N_27
    2  A    between atoms: C_2  and  C_7
    3  A    between atoms: C_10  and  C_13
    4  A    between atoms: C_16  and  C_19
                            x       y       z     vdW  Elec       q    Type
                         _______ _______ _______ _____ _____    ______ ____

>  <TORSDO>
F 4

$$$$
=
 OpenBabel11052413383D

 28 30  0  0  1  0  0  0  0  0999 V2000
  180.8430  178.8020  141.9050 O   0  0  0  0  0  0  0  0  0  0  0  0
  183.5470  179.1880  139.6240 C   0  0  1  0  0  3  0  0  0  0  0  0
  182.8020  176.8580  140.3370 C   0  0  0  0  0  1  0  0  0  0  0  0
  180.6520  179.2870  139.5930 C   0  0  2  0  0  3  0  0  0  0  0  0
  182.7300  179.5580  138.3700 C   0  0  0  0  0  2  0  0  0  0  0  0
  181.3970  178.8250  140.8180 C   0  0  0  0  0  0  0  0  0  0  0  0
  182.8100  178.3410  140.6810 C   0  0  2  0  0  3  0  0  0  0  0  0
  181.3990  178.9290  138.3660 N   0  0  2  0  0  0  0  0  0  0  0  0
  180.6520  179.2910  137.1470 C   0  0  1  0  0  3  0  0  0  0  0  0
  181.4770  179.0220  135.8510 C   0  0  1  0  0  3  0  0  0  0  0  0
  181.6430  177.6230  135.4000 N   0  0  0  0  0  0  0  0  0  0  0  0
  181.4140  176.6590  136.4750 C   0  0  0  0  0  2  0  0  0  0  0  0
  179.9220  176.3590  136.6230 C   0  0  0  0  0  2  0  0  0  0  0  0
  179.1570  177.3560  136.0040 O   0  0  0  0  0  0  0  0  0  0  0  0
  178.9310  178.5970  137.1780 S   0  0  0  0  0  0  0  0  0  0  0  0
  183.0320  177.4680  135.0070 C   0  0  0  0  0  1  0  0  0  0  0  0
  181.1170  179.9640  134.7020 C   0  0  0  0  0  2  0  0  0  0  0  0
  180.7670  181.3610  135.1830 C   0  0  0  0  0  1  0  0  0  0  0  0
  185.2640  178.2710  138.0250 C   0  0  0  0  0  3  0  0  0  0  0  0
  185.9390  178.7340  140.3100 C   0  0  0  0  0  0  0  0  0  0  0  0
  187.5400  177.8430  138.7210 C   0  0  0  0  0  0  0  0  0  0  0  0
  184.9450  178.7290  139.3130 C   0  0  0  0  0  0  0  0  0  0  0  0
  187.2310  178.2920  140.0080 C   0  0  0  0  0  3  0  0  0  0  0  0
  185.5980  179.2820  141.9450 Cl  0  0  0  0  0  0  0  0  0  0  0  0
  188.9160  177.3760  138.4080 C   0  0  0  0  0  1  0  0  0  0  0  0
  186.5570  177.8330  137.7300 C   0  0  0  0  0  3  0  0  0  0  0  0
  180.2460  180.7700  139.6780 C   0  0  0  0  0  2  0  0  0  0  0  0
  178.9320  180.9190  140.1270 O   0  0  0  0  0  1  0  0  0  0  0  0
  2 22  1  6  0  0  0
  2  7  1  0  0  0  0
  4 27  1  1  0  0  0
  4  6  1  0  0  0  0
  5  2  1  0  0  0  0
  6  1  2  0  0  0  0
  7  3  1  6  0  0  0
  7  6  1  0  0  0  0
  8  5  1  1  0  0  0
  8  4  1  0  0  0  0
  9 15  1  6  0  0  0
  9  8  1  0  0  0  0
 10 17  1  6  0  0  0
 10  9  1  0  0  0  0
 11 10  1  0  0  0  0
 11 12  1  0  0  0  0
 12 13  1  0  0  0  0
 14 13  1  0  0  0  0
 14 15  1  0  0  0  0
 16 11  1  0  0  0  0
 17 18  1  0  0  0  0
 19 22  1  0  0  0  0
 20 24  1  0  0  0  0
 21 23  2  0  0  0  0
 22 20  2  0  0  0  0
 23 20  1  0  0  0  0
 25 21  1  0  0  0  0
 26 19  2  0  0  0  0
 26 21  1  0  0  0  0
 27 28  1  0  0  0  0
M  END
>  <MODEL>
3

>  <REMARK>
 VINA RESULT:      -4.3      2.742      5.358
  Name = 
  4 active torsions:
  status: ('A' for Active; 'I' for Inactive)
    1  A    between atoms: C_1  and  N_27
    2  A    between atoms: C_2  and  C_7
    3  A    between atoms: C_10  and  C_13
    4  A    between atoms: C_16  and  C_19
                            x       y       z     vdW  Elec       q    Type
                         _______ _______ _______ _____ _____    ______ ____

>  <TORSDO>
F 4

$$$$
=
 OpenBabel11052413383D

 28 30  0  0  1  0  0  0  0  0999 V2000
  185.5540  179.6210  147.1970 O   0  0  0  0  0  0  0  0  0  0  0  0
  185.0280  178.0980  144.0240 C   0  0  1  0  0  3  0  0  0  0  0  0
  185.6980  180.5520  144.1660 C   0  0  0  0  0  1  0  0  0  0  0  0
  187.0770  178.1960  146.0700 C   0  0  2  0  0  3  0  0  0  0  0  0
  186.3320  177.2780  143.9510 C   0  0  0  0  0  2  0  0  0  0  0  0
  185.8670  179.0910  146.1430 C   0  0  0  0  0  0  0  0  0  0  0  0
  185.0800  179.3690  144.8970 C   0  0  2  0  0  3  0  0  0  0  0  0
  187.4430  177.9350  144.6600 N   0  0  2  0  0  0  0  0  0  0  0  0
  188.6760  177.1320  144.5560 C   0  0  1  0  0  3  0  0  0  0  0  0
  188.9850  176.7170  143.0850 C   0  0  1  0  0  3  0  0  0  0  0  0
  189.5100  177.7440  142.1590 N   0  0  0  0  0  0  0  0  0  0  0  0
  189.2250  179.1030  142.6130 C   0  0  0  0  0  2  0  0  0  0  0  0
  190.2820  179.5700  143.6150 C   0  0  0  0  0  2  0  0  0  0  0  0
  190.9810  178.4740  144.1370 O   0  0  0  0  0  0  0  0  0  0  0  0
  190.0740  177.9170  145.4930 S   0  0  0  0  0  0  0  0  0  0  0  0
  188.8000  177.5800  140.9020 C   0  0  0  0  0  1  0  0  0  0  0  0
  189.7480  175.3960  142.9800 C   0  0  0  0  0  2  0  0  0  0  0  0
  191.2410  175.5670  143.2020 C   0  0  0  0  0  1  0  0  0  0  0  0
  185.1200  178.2320  141.5100 C   0  0  0  0  0  3  0  0  0  0  0  0
  182.9740  178.5170  142.6080 C   0  0  0  0  0  0  0  0  0  0  0  0
  183.1350  178.6410  140.1910 C   0  0  0  0  0  0  0  0  0  0  0  0
  184.3600  178.2780  142.6890 C   0  0  0  0  0  0  0  0  0  0  0  0
  182.3700  178.6960  141.3590 C   0  0  0  0  0  3  0  0  0  0  0  0
  181.9710  178.6010  144.0480 Cl  0  0  0  0  0  0  0  0  0  0  0  0
  182.4840  178.8310  138.8680 C   0  0  0  0  0  1  0  0  0  0  0  0
  184.5100  178.4100  140.2670 C   0  0  0  0  0  3  0  0  0  0  0  0
  186.9210  176.9290  146.9300 C   0  0  0  0  0  2  0  0  0  0  0  0
  187.7720  176.9520  148.0380 O   0  0  0  0  0  1  0  0  0  0  0  0
  2 22  1  6  0  0  0
  2  7  1  0  0  0  0
  4  6  1  0  0  0  0
  4 27  1  6  0  0  0
  5  2  1  0  0  0  0
  6  1  2  0  0  0  0
  7  3  1  6  0  0  0
  7  6  1  0  0  0  0
  8  5  1  1  0  0  0
  8  4  1  0  0  0  0
  9  8  1  0  0  0  0
  9 15  1  6  0  0  0
 10 17  1  1  0  0  0
 10  9  1  0  0  0  0
 11 12  1  0  0  0  0
 11 10  1  0  0  0  0
 12 13  1  0  0  0  0
 13 14  1  0  0  0  0
 14 15  1  0  0  0  0
 16 11  1  0  0  0  0
 17 18  1  0  0  0  0
 19 22  1  0  0  0  0
 20 22  2  0  0  0  0
 20 24  1  0  0  0  0
 21 26  1  0  0  0  0
 21 23  2  0  0  0  0
 23 20  1  0  0  0  0
 25 21  1  0  0  0  0
 26 19  2  0  0  0  0
 27 28  1  0  0  0  0
M  END
>  <MODEL>
4

>  <REMARK>
 VINA RESULT:      -4.2      6.035      8.581
  Name = 
  4 active torsions:
  status: ('A' for Active; 'I' for Inactive)
    1  A    between atoms: C_1  and  N_27
    2  A    between atoms: C_2  and  C_7
    3  A    between atoms: C_10  and  C_13
    4  A    between atoms: C_16  and  C_19
                            x       y       z     vdW  Elec       q    Type
                         _______ _______ _______ _____ _____    ______ ____

>  <TORSDO>
F 4

$$$$
=
 OpenBabel11052413383D

 28 30  0  0  1  0  0  0  0  0999 V2000
  182.5870  178.2630  137.0100 O   0  0  0  0  0  0  0  0  0  0  0  0
  184.1810  175.0990  137.3540 C   0  0  1  0  0  3  0  0  0  0  0  0
  183.6800  176.0300  135.0360 C   0  0  0  0  0  1  0  0  0  0  0  0
  184.8770  177.9070  137.5090 C   0  0  2  0  0  3  0  0  0  0  0  0
  185.5860  175.5990  137.7460 C   0  0  0  0  0  2  0  0  0  0  0  0
  183.5170  177.4730  137.0270 C   0  0  0  0  0  0  0  0  0  0  0  0
  183.3290  176.0750  136.5170 C   0  0  2  0  0  3  0  0  0  0  0  0
  185.9020  176.9040  137.1420 N   0  0  2  0  0  0  0  0  0  0  0  0
  187.2570  177.3430  137.5250 C   0  0  1  0  0  3  0  0  0  0  0  0
  188.2780  176.1640  137.5270 C   0  0  1  0  0  3  0  0  0  0  0  0
  188.7530  175.6420  136.2280 N   0  0  0  0  0  0  0  0  0  0  0  0
  187.8550  175.9820  135.1260 C   0  0  0  0  0  2  0  0  0  0  0  0
  188.1600  177.3830  134.5940 C   0  0  0  0  0  2  0  0  0  0  0  0
  188.9050  178.1120  135.5290 O   0  0  0  0  0  0  0  0  0  0  0  0
  187.7660  178.8610  136.5840 S   0  0  0  0  0  0  0  0  0  0  0  0
  188.7420  174.1930  136.3260 C   0  0  0  0  0  1  0  0  0  0  0  0
  189.4180  176.3570  138.5280 C   0  0  0  0  0  2  0  0  0  0  0  0
  189.0180  177.2340  139.7030 C   0  0  0  0  0  1  0  0  0  0  0  0
  185.3360  173.0970  136.3530 C   0  0  0  0  0  3  0  0  0  0  0  0
  182.9800  172.9180  136.9090 C   0  0  0  0  0  0  0  0  0  0  0  0
  184.1500  171.0300  135.9360 C   0  0  0  0  0  0  0  0  0  0  0  0
  184.1660  173.6760  136.8700 C   0  0  0  0  0  0  0  0  0  0  0  0
  182.9790  171.6000  136.4430 C   0  0  0  0  0  3  0  0  0  0  0  0
  181.4800  173.5910  137.5320 Cl  0  0  0  0  0  0  0  0  0  0  0  0
  184.1410  169.6280  135.4430 C   0  0  0  0  0  1  0  0  0  0  0  0
  185.3280  171.7790  135.8900 C   0  0  0  0  0  3  0  0  0  0  0  0
  184.8740  178.2950  138.9990 C   0  0  0  0  0  2  0  0  0  0  0  0
  184.7850  179.6790  139.1710 O   0  0  0  0  0  1  0  0  0  0  0  0
  1  6  2  0  0  0  0
  2 22  1  6  0  0  0
  2  5  1  0  0  0  0
  4 27  1  1  0  0  0
  6  4  1  0  0  0  0
  7  3  1  6  0  0  0
  7  6  1  0  0  0  0
  7  2  1  0  0  0  0
  8  4  1  0  0  0  0
  8  9  1  0  0  0  0
  8  5  1  1  0  0  0
  9 15  1  6  0  0  0
  9 10  1  0  0  0  0
 10 17  1  1  0  0  0
 11 16  1  0  0  0  0
 11 10  1  0  0  0  0
 12 11  1  0  0  0  0
 13 12  1  0  0  0  0
 13 14  1  0  0  0  0
 14 15  1  0  0  0  0
 17 18  1  0  0  0  0
 19 22  1  0  0  0  0
 20 24  1  0  0  0  0
 21 23  2  0  0  0  0
 22 20  2  0  0  0  0
 23 20  1  0  0  0  0
 25 21  1  0  0  0  0
 26 21  1  0  0  0  0
 26 19  2  0  0  0  0
 27 28  1  0  0  0  0
M  END
>  <MODEL>
5

>  <REMARK>
 VINA RESULT:      -4.2      3.912      7.331
  Name = 
  4 active torsions:
  status: ('A' for Active; 'I' for Inactive)
    1  A    between atoms: C_1  and  N_27
    2  A    between atoms: C_2  and  C_7
    3  A    between atoms: C_10  and  C_13
    4  A    between atoms: C_16  and  C_19
                            x       y       z     vdW  Elec       q    Type
                         _______ _______ _______ _____ _____    ______ ____

>  <TORSDO>
F 4

$$$$
=
 OpenBabel11052413383D

 28 30  0  0  1  0  0  0  0  0999 V2000
  182.0700  179.4730  138.2330 O   0  0  0  0  0  0  0  0  0  0  0  0
  182.2610  175.9200  138.1790 C   0  0  1  0  0  3  0  0  0  0  0  0
  181.5990  177.1930  136.0750 C   0  0  0  0  0  1  0  0  0  0  0  0
  184.0580  178.1910  138.0830 C   0  0  2  0  0  3  0  0  0  0  0  0
  183.7960  175.7800  138.1570 C   0  0  0  0  0  2  0  0  0  0  0  0
  182.5650  178.3820  138.0050 C   0  0  0  0  0  0  0  0  0  0  0  0
  181.6970  177.2300  137.5930 C   0  0  2  0  0  3  0  0  0  0  0  0
  184.4490  176.9040  137.4650 N   0  0  2  0  0  0  0  0  0  0  0  0
  185.9140  176.7280  137.4480 C   0  0  1  0  0  3  0  0  0  0  0  0
  186.3430  175.4480  136.6680 C   0  0  1  0  0  3  0  0  0  0  0  0
  186.2730  175.4660  135.1910 N   0  0  0  0  0  0  0  0  0  0  0  0
  185.3740  176.5030  134.6880 C   0  0  0  0  0  2  0  0  0  0  0  0
  186.0970  177.8480  134.5980 C   0  0  0  0  0  2  0  0  0  0  0  0
  187.2570  177.8350  135.3830 O   0  0  0  0  0  0  0  0  0  0  0  0
  186.7760  178.3020  136.9710 S   0  0  0  0  0  0  0  0  0  0  0  0
  185.6970  174.1980  134.7810 C   0  0  0  0  0  1  0  0  0  0  0  0
  187.6510  174.8420  137.1800 C   0  0  0  0  0  2  0  0  0  0  0  0
  188.8130  175.0800  136.2310 C   0  0  0  0  0  1  0  0  0  0  0  0
  182.0760  173.8700  136.7270 C   0  0  0  0  0  3  0  0  0  0  0  0
  180.3150  174.3130  138.3370 C   0  0  0  0  0  0  0  0  0  0  0  0
  180.1950  172.3610  136.9020 C   0  0  0  0  0  0  0  0  0  0  0  0
  181.5400  174.6740  137.7450 C   0  0  0  0  0  0  0  0  0  0  0  0
  179.6500  173.1580  137.9130 C   0  0  0  0  0  3  0  0  0  0  0  0
  179.5860  175.2850  139.6060 Cl  0  0  0  0  0  0  0  0  0  0  0  0
  179.4830  171.1350  136.4580 C   0  0  0  0  0  1  0  0  0  0  0  0
  181.4080  172.7180  136.3090 C   0  0  0  0  0  3  0  0  0  0  0  0
  184.6030  178.4010  139.5080 C   0  0  0  0  0  2  0  0  0  0  0  0
  184.9190  179.7410  139.7450 O   0  0  0  0  0  1  0  0  0  0  0  0
  2 22  1  6  0  0  0
  4 27  1  1  0  0  0
  5  2  1  0  0  0  0
  6  4  1  0  0  0  0
  6  1  2  0  0  0  0
  7  3  1  6  0  0  0
  7  6  1  0  0  0  0
  7  2  1  0  0  0  0
  8  4  1  0  0  0  0
  8  5  1  1  0  0  0
  9 15  1  6  0  0  0
  9  8  1  0  0  0  0
 10 17  1  6  0  0  0
 10  9  1  0  0  0  0
 11 10  1  0  0  0  0
 12 11  1  0  0  0  0
 13 12  1  0  0  0  0
 13 14  1  0  0  0  0
 14 15  1  0  0  0  0
 16 11  1  0  0  0  0
 18 17  1  0  0  0  0
 19 22  1  0  0  0  0
 20 24  1  0  0  0  0
 21 23  2  0  0  0  0
 22 20  2  0  0  0  0
 23 20  1  0  0  0  0
 25 21  1  0  0  0  0
 26 19  2  0  0  0  0
 26 21  1  0  0  0  0
 27 28  1  0  0  0  0
M  END
>  <MODEL>
6

>  <REMARK>
 VINA RESULT:      -3.8      3.271      5.828
  Name = 
  4 active torsions:
  status: ('A' for Active; 'I' for Inactive)
    1  A    between atoms: C_1  and  N_27
    2  A    between atoms: C_2  and  C_7
    3  A    between atoms: C_10  and  C_13
    4  A    between atoms: C_16  and  C_19
                            x       y       z     vdW  Elec       q    Type
                         _______ _______ _______ _____ _____    ______ ____

>  <TORSDO>
F 4

$$$$
=
 OpenBabel11052413383D

 28 30  0  0  1  0  0  0  0  0999 V2000
  187.4810  174.6890  136.7680 O   0  0  0  0  0  0  0  0  0  0  0  0
  184.1760  173.9540  135.6710 C   0  0  1  0  0  3  0  0  0  0  0  0
  184.9620  173.1730  137.9650 C   0  0  0  0  0  1  0  0  0  0  0  0
  185.6520  176.1970  136.7590 C   0  0  2  0  0  3  0  0  0  0  0  0
  183.5620  175.3560  135.8580 C   0  0  0  0  0  2  0  0  0  0  0  0
  186.2710  174.8250  136.6890 C   0  0  0  0  0  0  0  0  0  0  0  0
  185.3820  173.6220  136.5730 C   0  0  2  0  0  3  0  0  0  0  0  0
  184.1900  176.0960  136.9660 N   0  0  2  0  0  0  0  0  0  0  0  0
  183.5670  177.4240  137.1260 C   0  0  1  0  0  3  0  0  0  0  0  0
  182.0100  177.3510  137.0930 C   0  0  1  0  0  3  0  0  0  0  0  0
  181.3050  176.8160  138.2780 N   0  0  0  0  0  0  0  0  0  0  0  0
  182.1730  175.9990  139.1230 C   0  0  0  0  0  2  0  0  0  0  0  0
  182.9730  176.8780  140.0850 C   0  0  0  0  0  2  0  0  0  0  0  0
  182.9820  178.2070  139.6430 O   0  0  0  0  0  0  0  0  0  0  0  0
  184.3110  178.3490  138.5540 S   0  0  0  0  0  0  0  0  0  0  0  0
  180.2670  175.9270  137.7850 C   0  0  0  0  0  1  0  0  0  0  0  0
  181.3590  178.6270  136.5560 C   0  0  0  0  0  2  0  0  0  0  0  0
  181.2230  178.6170  135.0430 C   0  0  0  0  0  1  0  0  0  0  0  0
  181.8240  173.1000  135.9610 C   0  0  0  0  0  3  0  0  0  0  0  0
  183.5090  171.5840  135.0910 C   0  0  0  0  0  0  0  0  0  0  0  0
  181.2260  170.8240  135.4010 C   0  0  0  0  0  0  0  0  0  0  0  0
  183.1490  172.8610  135.5650 C   0  0  0  0  0  0  0  0  0  0  0  0
  182.5450  170.5740  135.0100 C   0  0  0  0  0  3  0  0  0  0  0  0
  185.1540  171.2190  134.5940 Cl  0  0  0  0  0  0  0  0  0  0  0  0
  180.2090  169.7450  135.3120 C   0  0  0  0  0  1  0  0  0  0  0  0
  180.8670  172.0870  135.8770 C   0  0  0  0  0  3  0  0  0  0  0  0
  186.0650  177.0890  135.5740 C   0  0  0  0  0  2  0  0  0  0  0  0
  186.9390  178.1030  135.9730 O   0  0  0  0  0  1  0  0  0  0  0  0
  2 22  1  1  0  0  0
  2  5  1  0  0  0  0
  2  7  1  0  0  0  0
  4 27  1  6  0  0  0
  4  8  1  0  0  0  0
  6  4  1  0  0  0  0
  6  1  2  0  0  0  0
  7  6  1  0  0  0  0
  7  3  1  1  0  0  0
  8  5  1  6  0  0  0
  8  9  1  0  0  0  0
  9 15  1  1  0  0  0
 10 17  1  1  0  0  0
 10  9  1  0  0  0  0
 10 11  1  0  0  0  0
 11 12  1  0  0  0  0
 12 13  1  0  0  0  0
 14 13  1  0  0  0  0
 15 14  1  0  0  0  0
 16 11  1  0  0  0  0
 18 17  1  0  0  0  0
 20 22  1  0  0  0  0
 21 26  2  0  0  0  0
 22 19  2  0  0  0  0
 23 20  2  0  0  0  0
 23 21  1  0  0  0  0
 24 20  1  0  0  0  0
 25 21  1  0  0  0  0
 26 19  1  0  0  0  0
 27 28  1  0  0  0  0
M  END
>  <MODEL>
7

>  <REMARK>
 VINA RESULT:      -3.6      3.384      6.497
  Name = 
  4 active torsions:
  status: ('A' for Active; 'I' for Inactive)
    1  A    between atoms: C_1  and  N_27
    2  A    between atoms: C_2  and  C_7
    3  A    between atoms: C_10  and  C_13
    4  A    between atoms: C_16  and  C_19
                            x       y       z     vdW  Elec       q    Type
                         _______ _______ _______ _____ _____    ______ ____

>  <TORSDO>
F 4

$$$$
=
 OpenBabel11052413383D

 28 30  0  0  1  0  0  0  0  0999 V2000
  193.5880  176.7860  139.4550 O   0  0  0  0  0  0  0  0  0  0  0  0
  190.5090  176.2680  141.1630 C   0  0  1  0  0  3  0  0  0  0  0  0
  191.4270  178.6270  140.8740 C   0  0  0  0  0  1  0  0  0  0  0  0
  191.4890  176.3610  138.4380 C   0  0  2  0  0  3  0  0  0  0  0  0
  189.6200  175.9780  139.9370 C   0  0  0  0  0  2  0  0  0  0  0  0
  192.3760  176.7490  139.5930 C   0  0  0  0  0  0  0  0  0  0  0  0
  191.7530  177.1410  140.9000 C   0  0  2  0  0  3  0  0  0  0  0  0
  190.0770  176.6940  138.7340 N   0  0  2  0  0  0  0  0  0  0  0  0
  189.1960  176.4060  137.5870 C   0  0  1  0  0  3  0  0  0  0  0  0
  187.6990  176.7070  137.9060 C   0  0  1  0  0  3  0  0  0  0  0  0
  187.2610  178.1180  137.9590 N   0  0  0  0  0  0  0  0  0  0  0  0
  188.3740  179.0410  138.1700 C   0  0  0  0  0  2  0  0  0  0  0  0
  189.0550  179.3780  136.8440 C   0  0  0  0  0  2  0  0  0  0  0  0
  188.7220  178.4310  135.8670 O   0  0  0  0  0  0  0  0  0  0  0  0
  189.8620  177.1480  136.0210 S   0  0  0  0  0  0  0  0  0  0  0  0
  186.4010  178.2490  139.1230 C   0  0  0  0  0  1  0  0  0  0  0  0
  186.7280  175.8250  137.1190 C   0  0  0  0  0  2  0  0  0  0  0  0
  187.2910  174.4420  136.8440 C   0  0  0  0  0  1  0  0  0  0  0  0
  188.4750  177.2610  142.2700 C   0  0  0  0  0  3  0  0  0  0  0  0
  190.2520  176.3900  143.6760 C   0  0  0  0  0  0  0  0  0  0  0  0
  188.2700  177.3650  144.6770 C   0  0  0  0  0  0  0  0  0  0  0  0
  189.7280  176.6400  142.3930 C   0  0  0  0  0  0  0  0  0  0  0  0
  189.5190  176.7530  144.8110 C   0  0  0  0  0  3  0  0  0  0  0  0
  191.8200  175.6280  143.8960 Cl  0  0  0  0  0  0  0  0  0  0  0  0
  187.4980  177.7480  145.8880 C   0  0  0  0  0  1  0  0  0  0  0  0
  187.7490  177.6200  143.4070 C   0  0  0  0  0  3  0  0  0  0  0  0
  191.7170  174.9070  137.9860 C   0  0  0  0  0  2  0  0  0  0  0  0
  192.5840  174.8370  136.8940 O   0  0  0  0  0  1  0  0  0  0  0  0
  1  6  2  0  0  0  0
  2 22  1  1  0  0  0
  4 27  1  1  0  0  0
  4  8  1  0  0  0  0
  4  6  1  0  0  0  0
  5  2  1  0  0  0  0
  6  7  1  0  0  0  0
  7  3  1  6  0  0  0
  7  2  1  0  0  0  0
  8  5  1  1  0  0  0
  9 15  1  6  0  0  0
  9 10  1  0  0  0  0
  9  8  1  0  0  0  0
 10 17  1  6  0  0  0
 10 11  1  0  0  0  0
 11 12  1  0  0  0  0
 11 16  1  0  0  0  0
 13 12  1  0  0  0  0
 14 15  1  0  0  0  0
 14 13  1  0  0  0  0
 18 17  1  0  0  0  0
 19 22  2  0  0  0  0
 19 26  1  0  0  0  0
 20 24  1  0  0  0  0
 20 23  2  0  0  0  0
 21 23  1  0  0  0  0
 21 25  1  0  0  0  0
 22 20  1  0  0  0  0
 26 21  2  0  0  0  0
 28 27  1  0  0  0  0
M  END
>  <MODEL>
8

>  <REMARK>
 VINA RESULT:      -3.0      5.785      7.448
  Name = 
  4 active torsions:
  status: ('A' for Active; 'I' for Inactive)
    1  A    between atoms: C_1  and  N_27
    2  A    between atoms: C_2  and  C_7
    3  A    between atoms: C_10  and  C_13
    4  A    between atoms: C_16  and  C_19
                            x       y       z     vdW  Elec       q    Type
                         _______ _______ _______ _____ _____    ______ ____

>  <TORSDO>
F 4

$$$$
=
 OpenBabel11052413383D

 28 30  0  0  1  0  0  0  0  0999 V2000
  192.3660  177.1270  138.0710 O   0  0  0  0  0  0  0  0  0  0  0  0
  189.4400  176.5240  140.0030 C   0  0  1  0  0  3  0  0  0  0  0  0
  189.9830  178.8850  139.2150 C   0  0  0  0  0  1  0  0  0  0  0  0
  190.3340  176.2110  137.2650 C   0  0  2  0  0  3  0  0  0  0  0  0
  188.5780  175.8700  138.9050 C   0  0  0  0  0  2  0  0  0  0  0  0
  191.1770  176.9450  138.2750 C   0  0  0  0  0  0  0  0  0  0  0  0
  190.5310  177.4960  139.5120 C   0  0  2  0  0  3  0  0  0  0  0  0
  188.8950  176.3890  137.5630 N   0  0  2  0  0  0  0  0  0  0  0  0
  188.0420  175.7540  136.5410 C   0  0  1  0  0  3  0  0  0  0  0  0
  186.5320  175.7910  136.9300 C   0  0  1  0  0  3  0  0  0  0  0  0
  185.8070  177.0750  136.8170 N   0  0  0  0  0  0  0  0  0  0  0  0
  186.7080  178.2260  136.8080 C   0  0  0  0  0  2  0  0  0  0  0  0
  187.2390  178.4850  135.3980 C   0  0  0  0  0  2  0  0  0  0  0  0
  187.0690  177.3500  134.5940 O   0  0  0  0  0  0  0  0  0  0  0  0
  188.4620  176.3650  134.8390 S   0  0  0  0  0  0  0  0  0  0  0  0
  184.9940  177.2060  138.0140 C   0  0  0  0  0  1  0  0  0  0  0  0
  185.7350  174.6200  136.3550 C   0  0  0  0  0  2  0  0  0  0  0  0
  185.7280  173.4120  137.2760 C   0  0  0  0  0  1  0  0  0  0  0  0
  187.5350  177.8590  140.9700 C   0  0  0  0  0  3  0  0  0  0  0  0
  188.9990  176.6590  142.4900 C   0  0  0  0  0  0  0  0  0  0  0  0
  187.1500  177.9700  143.3550 C   0  0  0  0  0  0  0  0  0  0  0  0
  188.6390  177.0170  141.1760 C   0  0  0  0  0  0  0  0  0  0  0  0
  188.2520  177.1370  143.5720 C   0  0  0  0  0  3  0  0  0  0  0  0
  190.3790  175.6210  142.8140 Cl  0  0  0  0  0  0  0  0  0  0  0  0
  186.3620  178.4720  144.5100 C   0  0  0  0  0  1  0  0  0  0  0  0
  186.7930  178.3310  142.0550 C   0  0  0  0  0  3  0  0  0  0  0  0
  190.7690  174.7440  137.0930 C   0  0  0  0  0  2  0  0  0  0  0  0
  191.8040  174.4080  137.9690 O   0  0  0  0  0  1  0  0  0  0  0  0
  1  6  2  0  0  0  0
  2 22  1  1  0  0  0
  4 27  1  1  0  0  0
  4  8  1  0  0  0  0
  4  6  1  0  0  0  0
  5  2  1  0  0  0  0
  6  7  1  0  0  0  0
  7  3  1  6  0  0  0
  7  2  1  0  0  0  0
  8  5  1  1  0  0  0
  9 15  1  6  0  0  0
  9 10  1  0  0  0  0
  9  8  1  0  0  0  0
 10 17  1  6  0  0  0
 11 10  1  0  0  0  0
 11 16  1  0  0  0  0
 12 11  1  0  0  0  0
 13 12  1  0  0  0  0
 14 15  1  0  0  0  0
 14 13  1  0  0  0  0
 17 18  1  0  0  0  0
 19 22  2  0  0  0  0
 19 26  1  0  0  0  0
 20 24  1  0  0  0  0
 20 23  2  0  0  0  0
 21 23  1  0  0  0  0
 21 25  1  0  0  0  0
 22 20  1  0  0  0  0
 26 21  2  0  0  0  0
 27 28  1  0  0  0  0
M  END
>  <MODEL>
9

>  <REMARK>
 VINA RESULT:      -2.7      4.539      6.087
  Name = 
  4 active torsions:
  status: ('A' for Active; 'I' for Inactive)
    1  A    between atoms: C_1  and  N_27
    2  A    between atoms: C_2  and  C_7
    3  A    between atoms: C_10  and  C_13
    4  A    between atoms: C_16  and  C_19
                            x       y       z     vdW  Elec       q    Type
                         _______ _______ _______ _____ _____    ______ ____

>  <TORSDO>
F 4

$$$$
