=
 OpenBabel11052413213D

 28 30  0  0  1  0  0  0  0  0999 V2000
  187.9330  177.7830  144.0870 C   0  0  0  0  0  0  0  0  0  0  0  0
  183.2620  178.6470  145.0500 F   0  0  0  0  0  0  0  0  0  0  0  0
  185.0910  178.7740  141.8840 C   0  0  0  0  0  0  0  0  0  0  0  0
  185.5780  178.2110  144.5940 C   0  0  0  0  0  0  0  0  0  0  0  0
  186.3770  178.4160  142.3080 C   0  0  0  0  0  3  0  0  0  0  0  0
  187.1070  177.5850  146.3660 C   0  0  0  0  0  3  0  0  0  0  0  0
  184.2890  178.5650  144.1660 C   0  0  0  0  0  0  0  0  0  0  0  0
  185.8250  177.9340  145.9420 C   0  0  0  0  0  3  0  0  0  0  0  0
  184.0530  178.8460  142.8180 C   0  0  0  0  0  3  0  0  0  0  0  0
  188.1530  177.5100  145.4450 C   0  0  0  0  0  3  0  0  0  0  0  0
  186.6370  178.1340  143.6550 C   0  0  0  0  0  0  0  0  0  0  0  0
  189.0740  177.6920  143.1060 C   0  0  2  0  0  3  0  0  0  0  0  0
  189.1980  176.2820  142.5150 C   0  0  0  0  0  2  0  0  0  0  0  0
  191.4820  177.1730  144.0160 C   0  0  1  0  0  3  0  0  0  0  0  0
  189.9180  175.4430  143.3830 O   0  0  0  0  0  0  0  0  0  0  0  0
  190.5410  179.3370  143.9620 O   0  0  0  0  0  0  0  0  0  0  0  0
  190.3790  178.1540  143.7110 C   0  0  0  0  0  0  0  0  0  0  0  0
  191.5660  176.9280  145.5120 C   0  0  0  0  0  1  0  0  0  0  0  0
  191.2570  175.8500  143.2770 C   0  0  0  0  0  2  0  0  0  0  0  0
  185.4870  178.5970  139.4770 C   0  0  0  0  0  0  0  0  0  0  0  0
  184.7980  179.0850  140.4780 C   0  0  0  0  0  3  0  0  0  0  0  0
  186.1620  178.1200  138.4640 C   0  0  0  0  0  3  0  0  0  0  0  0
  187.5430  177.7420  138.5610 N   0  0  0  0  0  0  0  0  0  0  0  0
  187.9930  176.5850  137.8110 C   0  0  0  0  0  1  0  0  0  0  0  0
  188.4960  178.4060  139.4430 C   0  0  0  0  0  2  0  0  0  0  0  0
  189.8220  177.7910  139.3210 C   0  0  0  0  0  0  0  0  0  0  0  0
  192.1550  176.7220  139.1530 O   0  0  0  0  0  1  0  0  0  0  0  0
  190.9150  177.2880  139.2390 C   0  0  0  0  0  0  0  0  0  0  0  0
  1 10  1  0  0  0  0
  3  5  2  0  0  0  0
  3  9  1  0  0  0  0
  4  8  2  0  0  0  0
  5 11  1  0  0  0  0
  7  4  1  0  0  0  0
  7  2  1  0  0  0  0
  8  6  1  0  0  0  0
  9  7  2  0  0  0  0
 10  6  2  0  0  0  0
 11  1  2  0  0  0  0
 11  4  1  0  0  0  0
 12 17  1  0  0  0  0
 12  1  1  1  0  0  0
 13 12  1  0  0  0  0
 13 15  1  0  0  0  0
 14 18  1  1  0  0  0
 17 16  2  0  0  0  0
 17 14  1  0  0  0  0
 19 15  1  0  0  0  0
 19 14  1  0  0  0  0
 20 21  2  0  0  0  0
 21  3  1  0  0  0  0
 22 23  1  0  0  0  0
 22 20  2  0  0  0  0
 23 25  1  0  0  0  0
 24 23  1  0  0  0  0
 26 25  1  0  0  0  0
 27 28  1  0  0  0  0
 28 26  3  0  0  0  0
M  END
>  <MODEL>
1

>  <REMARK>
 VINA RESULT:      -9.3      0.000      0.000
  Name = 
  5 active torsions:
  status: ('A' for Active; 'I' for Inactive)
    1  A    between atoms: C_1  and  C_2
    2  A    between atoms: C_9  and  C_15
    3  A    between atoms: C_10  and  C_13
    4  A    between atoms: N_12  and  C_15
    5  A    between atoms: N_12  and  C_24
                            x       y       z     vdW  Elec       q    Type
                         _______ _______ _______ _____ _____    ______ ____

>  <TORSDO>
F 5

$$$$
=
 OpenBabel11052413213D

 28 30  0  0  1  0  0  0  0  0999 V2000
  187.9570  177.8460  143.9940 C   0  0  0  0  0  0  0  0  0  0  0  0
  183.2030  178.5190  144.6480 F   0  0  0  0  0  0  0  0  0  0  0  0
  185.2200  178.6810  141.6020 C   0  0  0  0  0  0  0  0  0  0  0  0
  185.5590  178.1770  144.3460 C   0  0  0  0  0  0  0  0  0  0  0  0
  186.4920  178.3850  142.1100 C   0  0  0  0  0  3  0  0  0  0  0  0
  186.9980  177.6430  146.2200 C   0  0  0  0  0  3  0  0  0  0  0  0
  184.2850  178.4700  143.8320 C   0  0  0  0  0  0  0  0  0  0  0  0
  185.7310  177.9310  145.7110 C   0  0  0  0  0  3  0  0  0  0  0  0
  184.1240  178.7210  142.4670 C   0  0  0  0  0  3  0  0  0  0  0  0
  188.1030  177.6010  145.3680 C   0  0  0  0  0  3  0  0  0  0  0  0
  186.6780  178.1340  143.4760 C   0  0  0  0  0  0  0  0  0  0  0  0
  189.1610  177.7900  143.0880 C   0  0  2  0  0  3  0  0  0  0  0  0
  189.3300  176.4010  142.4590 C   0  0  0  0  0  2  0  0  0  0  0  0
  191.5060  177.2460  144.1370 C   0  0  1  0  0  3  0  0  0  0  0  0
  189.9940  175.5350  143.3440 O   0  0  0  0  0  0  0  0  0  0  0  0
  190.5600  179.4090  144.0940 O   0  0  0  0  0  0  0  0  0  0  0  0
  190.4210  178.2340  143.7930 C   0  0  0  0  0  0  0  0  0  0  0  0
  191.4920  176.9510  145.6260 C   0  0  0  0  0  1  0  0  0  0  0  0
  191.3360  175.9490  143.3400 C   0  0  0  0  0  2  0  0  0  0  0  0
  183.8500  179.3370  139.6850 C   0  0  0  0  0  0  0  0  0  0  0  0
  185.0040  178.9590  140.1740 C   0  0  0  0  0  3  0  0  0  0  0  0
  182.7060  179.7150  139.1760 C   0  0  0  0  0  3  0  0  0  0  0  0
  181.4430  179.3650  139.7600 N   0  0  0  0  0  0  0  0  0  0  0  0
  180.4420  180.4040  139.9070 C   0  0  0  0  0  1  0  0  0  0  0  0
  181.1470  178.0420  140.2970 C   0  0  0  0  0  2  0  0  0  0  0  0
  180.5290  178.1530  141.6230 C   0  0  0  0  0  0  0  0  0  0  0  0
  179.4090  178.3210  143.9310 O   0  0  0  0  0  1  0  0  0  0  0  0
  180.0070  178.2330  142.7070 C   0  0  0  0  0  0  0  0  0  0  0  0
  1 10  1  0  0  0  0
  3  5  2  0  0  0  0
  3  9  1  0  0  0  0
  4  8  2  0  0  0  0
  5 11  1  0  0  0  0
  7  4  1  0  0  0  0
  7  2  1  0  0  0  0
  8  6  1  0  0  0  0
  9  7  2  0  0  0  0
 10  6  2  0  0  0  0
 11  1  2  0  0  0  0
 11  4  1  0  0  0  0
 12 17  1  0  0  0  0
 12  1  1  1  0  0  0
 13 12  1  0  0  0  0
 13 15  1  0  0  0  0
 14 18  1  1  0  0  0
 17 16  2  0  0  0  0
 17 14  1  0  0  0  0
 19 15  1  0  0  0  0
 19 14  1  0  0  0  0
 20 21  2  0  0  0  0
 21  3  1  0  0  0  0
 22 20  2  0  0  0  0
 22 23  1  0  0  0  0
 23 24  1  0  0  0  0
 23 25  1  0  0  0  0
 25 26  1  0  0  0  0
 26 28  3  0  0  0  0
 28 27  1  0  0  0  0
M  END
>  <MODEL>
2

>  <REMARK>
 VINA RESULT:      -9.1      2.904      4.641
  Name = 
  5 active torsions:
  status: ('A' for Active; 'I' for Inactive)
    1  A    between atoms: C_1  and  C_2
    2  A    between atoms: C_9  and  C_15
    3  A    between atoms: C_10  and  C_13
    4  A    between atoms: N_12  and  C_15
    5  A    between atoms: N_12  and  C_24
                            x       y       z     vdW  Elec       q    Type
                         _______ _______ _______ _____ _____    ______ ____

>  <TORSDO>
F 5

$$$$
=
 OpenBabel11052413213D

 28 30  0  0  1  0  0  0  0  0999 V2000
  188.0000  177.8120  144.0170 C   0  0  0  0  0  0  0  0  0  0  0  0
  183.2650  178.5210  144.7690 F   0  0  0  0  0  0  0  0  0  0  0  0
  185.2300  178.7190  141.6900 C   0  0  0  0  0  0  0  0  0  0  0  0
  185.6120  178.1610  144.4180 C   0  0  0  0  0  0  0  0  0  0  0  0
  186.5070  178.4020  142.1710 C   0  0  0  0  0  3  0  0  0  0  0  0
  187.0780  177.5780  146.2560 C   0  0  0  0  0  3  0  0  0  0  0  0
  184.3320  178.4760  143.9330 C   0  0  0  0  0  0  0  0  0  0  0  0
  185.8060  177.8870  145.7760 C   0  0  0  0  0  3  0  0  0  0  0  0
  184.1490  178.7540  142.5760 C   0  0  0  0  0  3  0  0  0  0  0  0
  188.1680  177.5410  145.3840 C   0  0  0  0  0  3  0  0  0  0  0  0
  186.7150  178.1230  143.5280 C   0  0  0  0  0  0  0  0  0  0  0  0
  189.1870  177.7620  143.0890 C   0  0  2  0  0  3  0  0  0  0  0  0
  189.3530  176.3720  142.4610 C   0  0  0  0  0  2  0  0  0  0  0  0
  191.5540  177.2350  144.0950 C   0  0  1  0  0  3  0  0  0  0  0  0
  190.0390  175.5130  143.3350 O   0  0  0  0  0  0  0  0  0  0  0  0
  190.5950  179.3920  144.0650 O   0  0  0  0  0  0  0  0  0  0  0  0
  190.4570  178.2160  143.7690 C   0  0  0  0  0  0  0  0  0  0  0  0
  191.5700  176.9440  145.5850 C   0  0  0  0  0  1  0  0  0  0  0  0
  191.3780  175.9350  143.3050 C   0  0  0  0  0  2  0  0  0  0  0  0
  185.7140  178.5310  139.3010 C   0  0  0  0  0  0  0  0  0  0  0  0
  184.9910  179.0260  140.2730 C   0  0  0  0  0  3  0  0  0  0  0  0
  186.4250  178.0470  138.3150 C   0  0  0  0  0  3  0  0  0  0  0  0
  187.7990  177.6630  138.4640 N   0  0  0  0  0  0  0  0  0  0  0  0
  188.6290  178.4210  139.3800 C   0  0  0  0  0  1  0  0  0  0  0  0
  188.4270  176.6100  137.6750 C   0  0  0  0  0  2  0  0  0  0  0  0
  187.4430  175.5850  137.3120 C   0  0  0  0  0  0  0  0  0  0  0  0
  185.7240  173.7660  136.7180 O   0  0  0  0  0  1  0  0  0  0  0  0
  186.6350  174.7340  137.0300 C   0  0  0  0  0  0  0  0  0  0  0  0
  1 10  1  0  0  0  0
  3  5  2  0  0  0  0
  3  9  1  0  0  0  0
  4  8  2  0  0  0  0
  5 11  1  0  0  0  0
  7  4  1  0  0  0  0
  7  2  1  0  0  0  0
  8  6  1  0  0  0  0
  9  7  2  0  0  0  0
 10  6  2  0  0  0  0
 11  1  2  0  0  0  0
 11  4  1  0  0  0  0
 12 17  1  0  0  0  0
 12  1  1  1  0  0  0
 13 12  1  0  0  0  0
 13 15  1  0  0  0  0
 14 18  1  1  0  0  0
 17 16  2  0  0  0  0
 17 14  1  0  0  0  0
 19 15  1  0  0  0  0
 19 14  1  0  0  0  0
 20 21  2  0  0  0  0
 21  3  1  0  0  0  0
 22 23  1  0  0  0  0
 22 20  2  0  0  0  0
 23 24  1  0  0  0  0
 25 23  1  0  0  0  0
 26 25  1  0  0  0  0
 27 28  1  0  0  0  0
 28 26  3  0  0  0  0
M  END
>  <MODEL>
3

>  <REMARK>
 VINA RESULT:      -9.0      1.519      2.016
  Name = 
  5 active torsions:
  status: ('A' for Active; 'I' for Inactive)
    1  A    between atoms: C_1  and  C_2
    2  A    between atoms: C_9  and  C_15
    3  A    between atoms: C_10  and  C_13
    4  A    between atoms: N_12  and  C_15
    5  A    between atoms: N_12  and  C_24
                            x       y       z     vdW  Elec       q    Type
                         _______ _______ _______ _____ _____    ______ ____

>  <TORSDO>
F 5

$$$$
=
 OpenBabel11052413213D

 28 30  0  0  1  0  0  0  0  0999 V2000
  188.0260  177.8120  144.0810 C   0  0  0  0  0  0  0  0  0  0  0  0
  183.2880  178.5300  144.8080 F   0  0  0  0  0  0  0  0  0  0  0  0
  185.2610  178.6790  141.7320 C   0  0  0  0  0  0  0  0  0  0  0  0
  185.6370  178.1660  144.4690 C   0  0  0  0  0  0  0  0  0  0  0  0
  186.5370  178.3700  142.2210 C   0  0  0  0  0  3  0  0  0  0  0  0
  187.0980  177.6140  146.3210 C   0  0  0  0  0  3  0  0  0  0  0  0
  184.3580  178.4710  143.9750 C   0  0  0  0  0  0  0  0  0  0  0  0
  185.8270  177.9140  145.8320 C   0  0  0  0  0  3  0  0  0  0  0  0
  184.1790  178.7280  142.6140 C   0  0  0  0  0  3  0  0  0  0  0  0
  188.1900  177.5630  145.4520 C   0  0  0  0  0  3  0  0  0  0  0  0
  186.7420  178.1130  143.5830 C   0  0  0  0  0  0  0  0  0  0  0  0
  189.2160  177.7470  143.1570 C   0  0  2  0  0  3  0  0  0  0  0  0
  189.3740  176.3520  142.5390 C   0  0  0  0  0  2  0  0  0  0  0  0
  191.5750  177.2110  144.1750 C   0  0  1  0  0  3  0  0  0  0  0  0
  190.0510  175.4940  143.4210 O   0  0  0  0  0  0  0  0  0  0  0  0
  190.6310  179.3740  144.1260 O   0  0  0  0  0  0  0  0  0  0  0  0
  190.4860  178.1970  143.8390 C   0  0  0  0  0  0  0  0  0  0  0  0
  191.5850  176.9290  145.6670 C   0  0  0  0  0  1  0  0  0  0  0  0
  191.3930  175.9060  143.3930 C   0  0  0  0  0  2  0  0  0  0  0  0
  183.8430  179.2330  139.8180 C   0  0  0  0  0  0  0  0  0  0  0  0
  185.0260  178.9620  140.3090 C   0  0  0  0  0  3  0  0  0  0  0  0
  182.6700  179.5050  139.3080 C   0  0  0  0  0  3  0  0  0  0  0  0
  181.4450  179.0200  139.8750 N   0  0  0  0  0  0  0  0  0  0  0  0
  181.1220  177.6150  139.7140 C   0  0  0  0  0  1  0  0  0  0  0  0
  180.4660  179.8830  140.5250 C   0  0  0  0  0  2  0  0  0  0  0  0
  180.1350  181.0220  139.6630 C   0  0  0  0  0  0  0  0  0  0  0  0
  179.5850  183.0480  138.1770 O   0  0  0  0  0  1  0  0  0  0  0  0
  179.8760  181.9700  138.9630 C   0  0  0  0  0  0  0  0  0  0  0  0
  1 10  1  0  0  0  0
  3  5  2  0  0  0  0
  3  9  1  0  0  0  0
  4  8  2  0  0  0  0
  5 11  1  0  0  0  0
  7  4  1  0  0  0  0
  7  2  1  0  0  0  0
  8  6  1  0  0  0  0
  9  7  2  0  0  0  0
 10  6  2  0  0  0  0
 11  1  2  0  0  0  0
 11  4  1  0  0  0  0
 12 17  1  0  0  0  0
 12  1  1  1  0  0  0
 13 12  1  0  0  0  0
 13 15  1  0  0  0  0
 14 18  1  1  0  0  0
 17 16  2  0  0  0  0
 17 14  1  0  0  0  0
 19 15  1  0  0  0  0
 19 14  1  0  0  0  0
 20 21  2  0  0  0  0
 21  3  1  0  0  0  0
 22 20  2  0  0  0  0
 22 23  1  0  0  0  0
 23 25  1  0  0  0  0
 24 23  1  0  0  0  0
 26 25  1  0  0  0  0
 27 28  1  0  0  0  0
 28 26  3  0  0  0  0
M  END
>  <MODEL>
4

>  <REMARK>
 VINA RESULT:      -8.7      3.340      4.729
  Name = 
  5 active torsions:
  status: ('A' for Active; 'I' for Inactive)
    1  A    between atoms: C_1  and  C_2
    2  A    between atoms: C_9  and  C_15
    3  A    between atoms: C_10  and  C_13
    4  A    between atoms: N_12  and  C_15
    5  A    between atoms: N_12  and  C_24
                            x       y       z     vdW  Elec       q    Type
                         _______ _______ _______ _____ _____    ______ ____

>  <TORSDO>
F 5

$$$$
=
 OpenBabel11052413213D

 28 30  0  0  1  0  0  0  0  0999 V2000
  187.7280  177.4460  144.1540 C   0  0  0  0  0  0  0  0  0  0  0  0
  183.4920  179.0550  145.8730 F   0  0  0  0  0  0  0  0  0  0  0  0
  184.5260  178.3070  142.4460 C   0  0  0  0  0  0  0  0  0  0  0  0
  185.5970  178.2540  145.0440 C   0  0  0  0  0  0  0  0  0  0  0  0
  185.8460  177.8880  142.6530 C   0  0  0  0  0  3  0  0  0  0  0  0
  187.4510  177.8200  146.5410 C   0  0  0  0  0  3  0  0  0  0  0  0
  184.2720  178.6690  144.8330 C   0  0  0  0  0  0  0  0  0  0  0  0
  186.1340  178.2300  146.3350 C   0  0  0  0  0  3  0  0  0  0  0  0
  183.7460  178.6950  143.5390 C   0  0  0  0  0  3  0  0  0  0  0  0
  188.2420  177.4310  145.4590 C   0  0  0  0  0  3  0  0  0  0  0  0
  186.3960  177.8570  143.9420 C   0  0  0  0  0  0  0  0  0  0  0  0
  188.5960  177.0160  142.9980 C   0  0  2  0  0  3  0  0  0  0  0  0
  189.4040  175.7570  143.3380 C   0  0  0  0  0  2  0  0  0  0  0  0
  190.9790  178.0870  142.7450 C   0  0  1  0  0  3  0  0  0  0  0  0
  190.5690  176.0940  144.0480 O   0  0  0  0  0  0  0  0  0  0  0  0
  189.0000  179.0910  141.9400 O   0  0  0  0  0  0  0  0  0  0  0  0
  189.4900  178.1340  142.5170 C   0  0  0  0  0  0  0  0  0  0  0  0
  191.3710  179.0550  143.8460 C   0  0  0  0  0  1  0  0  0  0  0  0
  191.4330  176.6690  143.1030 C   0  0  0  0  0  2  0  0  0  0  0  0
  182.6920  178.7100  140.8790 C   0  0  0  0  0  0  0  0  0  0  0  0
  183.9320  178.3570  141.1020 C   0  0  0  0  0  3  0  0  0  0  0  0
  181.4550  179.0600  140.6350 C   0  0  0  0  0  3  0  0  0  0  0  0
  180.3960  178.8800  141.5850 N   0  0  0  0  0  0  0  0  0  0  0  0
  180.3630  179.7420  142.7510 C   0  0  0  0  0  1  0  0  0  0  0  0
  179.4030  177.8160  141.4860 C   0  0  0  0  0  2  0  0  0  0  0  0
  179.8790  176.7520  140.5960 C   0  0  0  0  0  0  0  0  0  0  0  0
  180.7540  174.8820  139.0620 O   0  0  0  0  0  1  0  0  0  0  0  0
  180.2860  175.8750  139.8750 C   0  0  0  0  0  0  0  0  0  0  0  0
  1 10  1  0  0  0  0
  3  5  2  0  0  0  0
  3  9  1  0  0  0  0
  4  8  2  0  0  0  0
  5 11  1  0  0  0  0
  7  4  1  0  0  0  0
  7  2  1  0  0  0  0
  8  6  1  0  0  0  0
  9  7  2  0  0  0  0
 10  6  2  0  0  0  0
 11  1  2  0  0  0  0
 11  4  1  0  0  0  0
 12 13  1  0  0  0  0
 12  1  1  1  0  0  0
 13 15  1  0  0  0  0
 14 19  1  0  0  0  0
 14 18  1  1  0  0  0
 16 17  2  0  0  0  0
 17 14  1  0  0  0  0
 17 12  1  0  0  0  0
 19 15  1  0  0  0  0
 20 21  2  0  0  0  0
 21  3  1  0  0  0  0
 22 20  2  0  0  0  0
 22 23  1  0  0  0  0
 23 24  1  0  0  0  0
 25 23  1  0  0  0  0
 26 25  1  0  0  0  0
 27 28  1  0  0  0  0
 28 26  3  0  0  0  0
M  END
>  <MODEL>
5

>  <REMARK>
 VINA RESULT:      -8.6      3.258      4.848
  Name = 
  5 active torsions:
  status: ('A' for Active; 'I' for Inactive)
    1  A    between atoms: C_1  and  C_2
    2  A    between atoms: C_9  and  C_15
    3  A    between atoms: C_10  and  C_13
    4  A    between atoms: N_12  and  C_15
    5  A    between atoms: N_12  and  C_24
                            x       y       z     vdW  Elec       q    Type
                         _______ _______ _______ _____ _____    ______ ____

>  <TORSDO>
F 5

$$$$
=
 OpenBabel11052413213D

 28 30  0  0  1  0  0  0  0  0999 V2000
  188.0540  177.8610  144.3720 C   0  0  0  0  0  0  0  0  0  0  0  0
  183.4210  178.6540  145.5540 F   0  0  0  0  0  0  0  0  0  0  0  0
  185.0800  178.7290  142.2950 C   0  0  0  0  0  0  0  0  0  0  0  0
  185.7200  178.2530  144.9900 C   0  0  0  0  0  0  0  0  0  0  0  0
  186.3940  178.4110  142.6600 C   0  0  0  0  0  3  0  0  0  0  0  0
  187.3510  177.7100  146.6960 C   0  0  0  0  0  3  0  0  0  0  0  0
  184.4020  178.5680  144.6200 C   0  0  0  0  0  0  0  0  0  0  0  0
  186.0410  178.0200  146.3310 C   0  0  0  0  0  3  0  0  0  0  0  0
  184.0910  178.8060  143.2800 C   0  0  0  0  0  3  0  0  0  0  0  0
  188.3500  177.6310  145.7240 C   0  0  0  0  0  3  0  0  0  0  0  0
  186.7300  178.1720  143.9990 C   0  0  0  0  0  0  0  0  0  0  0  0
  189.1450  177.7660  143.3360 C   0  0  2  0  0  3  0  0  0  0  0  0
  189.1560  176.3920  142.6540 C   0  0  0  0  0  2  0  0  0  0  0  0
  191.5520  177.0480  144.1000 C   0  0  1  0  0  3  0  0  0  0  0  0
  189.8580  175.4580  143.4340 O   0  0  0  0  0  0  0  0  0  0  0  0
  190.7450  179.2630  144.2230 O   0  0  0  0  0  0  0  0  0  0  0  0
  190.5000  178.1100  143.9070 C   0  0  0  0  0  0  0  0  0  0  0  0
  191.6840  176.7030  145.5720 C   0  0  0  0  0  1  0  0  0  0  0  0
  191.2150  175.7920  143.2920 C   0  0  0  0  0  2  0  0  0  0  0  0
  183.4680  179.0080  140.4770 C   0  0  0  0  0  0  0  0  0  0  0  0
  184.7070  178.9940  140.8980 C   0  0  0  0  0  3  0  0  0  0  0  0
  182.2370  179.0280  140.0360 C   0  0  0  0  0  3  0  0  0  0  0  0
  181.1830  178.2660  140.6430 N   0  0  0  0  0  0  0  0  0  0  0  0
  180.6950  178.6820  141.9440 C   0  0  0  0  0  1  0  0  0  0  0  0
  180.6410  177.0440  140.0610 C   0  0  0  0  0  2  0  0  0  0  0  0
  181.7030  176.2700  139.4110 C   0  0  0  0  0  0  0  0  0  0  0  0
  183.5330  174.8870  138.2480 O   0  0  0  0  0  1  0  0  0  0  0  0
  182.5640  175.6240  138.8660 C   0  0  0  0  0  0  0  0  0  0  0  0
  1 10  1  0  0  0  0
  3  5  2  0  0  0  0
  3  9  1  0  0  0  0
  4  8  2  0  0  0  0
  5 11  1  0  0  0  0
  7  4  1  0  0  0  0
  7  2  1  0  0  0  0
  8  6  1  0  0  0  0
  9  7  2  0  0  0  0
 10  6  2  0  0  0  0
 11  1  2  0  0  0  0
 11  4  1  0  0  0  0
 12 17  1  0  0  0  0
 12  1  1  1  0  0  0
 13 12  1  0  0  0  0
 13 15  1  0  0  0  0
 14 18  1  1  0  0  0
 17 14  1  0  0  0  0
 17 16  2  0  0  0  0
 19 15  1  0  0  0  0
 19 14  1  0  0  0  0
 20 21  2  0  0  0  0
 21  3  1  0  0  0  0
 22 20  2  0  0  0  0
 22 23  1  0  0  0  0
 23 24  1  0  0  0  0
 25 23  1  0  0  0  0
 26 25  1  0  0  0  0
 27 28  1  0  0  0  0
 28 26  3  0  0  0  0
M  END
>  <MODEL>
6

>  <REMARK>
 VINA RESULT:      -8.6      2.630      3.917
  Name = 
  5 active torsions:
  status: ('A' for Active; 'I' for Inactive)
    1  A    between atoms: C_1  and  C_2
    2  A    between atoms: C_9  and  C_15
    3  A    between atoms: C_10  and  C_13
    4  A    between atoms: N_12  and  C_15
    5  A    between atoms: N_12  and  C_24
                            x       y       z     vdW  Elec       q    Type
                         _______ _______ _______ _____ _____    ______ ____

>  <TORSDO>
F 5

$$$$
=
 OpenBabel11052413213D

 28 30  0  0  1  0  0  0  0  0999 V2000
  184.0400  178.3800  142.2240 C   0  0  0  0  0  0  0  0  0  0  0  0
  186.4580  178.4700  146.4230 F   0  0  0  0  0  0  0  0  0  0  0  0
  187.4770  177.2480  143.1290 C   0  0  0  0  0  0  0  0  0  0  0  0
  185.2440  178.4390  144.3520 C   0  0  0  0  0  0  0  0  0  0  0  0
  186.3260  177.5210  142.3780 C   0  0  0  0  0  3  0  0  0  0  0  0
  182.9810  179.2930  144.2140 C   0  0  0  0  0  3  0  0  0  0  0  0
  186.4010  178.1680  145.1010 C   0  0  0  0  0  0  0  0  0  0  0  0
  184.1300  179.0270  144.9590 C   0  0  0  0  0  3  0  0  0  0  0  0
  187.5060  177.5740  144.4880 C   0  0  0  0  0  3  0  0  0  0  0  0
  182.9360  178.9710  142.8570 C   0  0  0  0  0  3  0  0  0  0  0  0
  185.2040  178.1120  142.9730 C   0  0  0  0  0  0  0  0  0  0  0  0
  183.9750  178.0440  140.7550 C   0  0  2  0  0  3  0  0  0  0  0  0
  184.8560  178.9850  139.9230 C   0  0  0  0  0  2  0  0  0  0  0  0
  182.0500  179.0890  139.3070 C   0  0  1  0  0  3  0  0  0  0  0  0
  184.1770  180.1840  139.6480 O   0  0  0  0  0  0  0  0  0  0  0  0
  181.8020  177.1270  140.5950 O   0  0  0  0  0  0  0  0  0  0  0  0
  182.5540  178.0200  140.2420 C   0  0  0  0  0  0  0  0  0  0  0  0
  181.1320  180.0430  140.0480 C   0  0  0  0  0  1  0  0  0  0  0  0
  183.2150  179.8590  138.6780 C   0  0  0  0  0  2  0  0  0  0  0  0
  189.7980  176.4800  143.1610 C   0  0  0  0  0  0  0  0  0  0  0  0
  188.6610  176.6180  142.5280 C   0  0  0  0  0  3  0  0  0  0  0  0
  190.9430  176.3330  143.7760 C   0  0  0  0  0  3  0  0  0  0  0  0
  191.3860  177.2180  144.8150 N   0  0  0  0  0  0  0  0  0  0  0  0
  191.7020  178.5880  144.4620 C   0  0  0  0  0  1  0  0  0  0  0  0
  191.6230  176.7870  146.1880 C   0  0  0  0  0  2  0  0  0  0  0  0
  190.4190  176.9850  147.0020 C   0  0  0  0  0  0  0  0  0  0  0  0
  188.3080  177.3800  148.4170 O   0  0  0  0  0  1  0  0  0  0  0  0
  189.4280  177.1670  147.6660 C   0  0  0  0  0  0  0  0  0  0  0  0
  1 10  2  0  0  0  0
  1 11  1  0  0  0  0
  3  9  1  0  0  0  0
  4  8  1  0  0  0  0
  4  7  1  0  0  0  0
  5 11  1  0  0  0  0
  5  3  2  0  0  0  0
  6  8  2  0  0  0  0
  7  2  1  0  0  0  0
  9  7  2  0  0  0  0
 10  6  1  0  0  0  0
 11  4  2  0  0  0  0
 12  1  1  1  0  0  0
 13 12  1  0  0  0  0
 14 18  1  1  0  0  0
 14 17  1  0  0  0  0
 15 13  1  0  0  0  0
 17 16  2  0  0  0  0
 17 12  1  0  0  0  0
 19 14  1  0  0  0  0
 19 15  1  0  0  0  0
 20 22  2  0  0  0  0
 21  3  1  0  0  0  0
 21 20  2  0  0  0  0
 22 23  1  0  0  0  0
 23 25  1  0  0  0  0
 24 23  1  0  0  0  0
 25 26  1  0  0  0  0
 26 28  3  0  0  0  0
 28 27  1  0  0  0  0
M  END
>  <MODEL>
7

>  <REMARK>
 VINA RESULT:      -8.6      3.243      6.869
  Name = 
  5 active torsions:
  status: ('A' for Active; 'I' for Inactive)
    1  A    between atoms: C_1  and  C_2
    2  A    between atoms: C_9  and  C_15
    3  A    between atoms: C_10  and  C_13
    4  A    between atoms: N_12  and  C_15
    5  A    between atoms: N_12  and  C_24
                            x       y       z     vdW  Elec       q    Type
                         _______ _______ _______ _____ _____    ______ ____

>  <TORSDO>
F 5

$$$$
=
 OpenBabel11052413213D

 28 30  0  0  1  0  0  0  0  0999 V2000
  188.2650  177.8400  142.4750 C   0  0  0  0  0  0  0  0  0  0  0  0
  183.8300  179.3770  141.2640 F   0  0  0  0  0  0  0  0  0  0  0  0
  185.2530  178.5950  144.5420 C   0  0  0  0  0  0  0  0  0  0  0  0
  186.0340  178.6200  141.8420 C   0  0  0  0  0  0  0  0  0  0  0  0
  186.5540  178.2200  144.1830 C   0  0  0  0  0  3  0  0  0  0  0  0
  187.7170  178.2480  140.1410 C   0  0  0  0  0  3  0  0  0  0  0  0
  184.7310  178.9990  142.2060 C   0  0  0  0  0  0  0  0  0  0  0  0
  186.4240  178.6280  140.5000 C   0  0  0  0  0  3  0  0  0  0  0  0
  184.3490  178.9820  143.5490 C   0  0  0  0  0  3  0  0  0  0  0  0
  188.6310  177.8570  141.1210 C   0  0  0  0  0  3  0  0  0  0  0  0
  186.9590  178.2260  142.8420 C   0  0  0  0  0  0  0  0  0  0  0  0
  189.2670  177.4200  143.5200 C   0  0  2  0  0  3  0  0  0  0  0  0
  189.8090  178.6260  144.2980 C   0  0  0  0  0  2  0  0  0  0  0  0
  191.7820  177.1480  142.8200 C   0  0  1  0  0  3  0  0  0  0  0  0
  190.8540  179.2430  143.5880 O   0  0  0  0  0  0  0  0  0  0  0  0
  190.1540  175.4620  142.5370 O   0  0  0  0  0  0  0  0  0  0  0  0
  190.3850  176.5940  142.9320 C   0  0  0  0  0  0  0  0  0  0  0  0
  192.0900  177.5020  141.3760 C   0  0  0  0  0  1  0  0  0  0  0  0
  191.9550  178.3800  143.7130 C   0  0  0  0  0  2  0  0  0  0  0  0
  185.6280  178.5900  146.9590 C   0  0  0  0  0  0  0  0  0  0  0  0
  184.8040  178.5860  145.9420 C   0  0  0  0  0  3  0  0  0  0  0  0
  186.4340  178.5940  147.9880 C   0  0  0  0  0  3  0  0  0  0  0  0
  187.7580  178.0430  147.9400 N   0  0  0  0  0  0  0  0  0  0  0  0
  188.7780  178.6280  148.7900 C   0  0  0  0  0  1  0  0  0  0  0  0
  188.1540  176.9870  147.0150 C   0  0  0  0  0  2  0  0  0  0  0  0
  189.5990  176.7530  147.0930 C   0  0  0  0  0  0  0  0  0  0  0  0
  192.1400  176.3660  147.1880 O   0  0  0  0  0  1  0  0  0  0  0  0
  190.7910  176.5700  147.1410 C   0  0  0  0  0  0  0  0  0  0  0  0
  1 11  1  0  0  0  0
  2  7  1  0  0  0  0
  3 21  1  0  0  0  0
  4  7  2  0  0  0  0
  4 11  1  0  0  0  0
  5  3  1  0  0  0  0
  6  8  2  0  0  0  0
  6 10  1  0  0  0  0
  7  9  1  0  0  0  0
  8  4  1  0  0  0  0
  9  3  2  0  0  0  0
 10  1  2  0  0  0  0
 11  5  2  0  0  0  0
 12  1  1  6  0  0  0
 12 13  1  0  0  0  0
 14 18  1  6  0  0  0
 14 17  1  0  0  0  0
 14 19  1  0  0  0  0
 15 19  1  0  0  0  0
 15 13  1  0  0  0  0
 16 17  2  0  0  0  0
 17 12  1  0  0  0  0
 20 22  2  0  0  0  0
 21 20  2  0  0  0  0
 23 22  1  0  0  0  0
 23 24  1  0  0  0  0
 25 26  1  0  0  0  0
 25 23  1  0  0  0  0
 26 28  3  0  0  0  0
 28 27  1  0  0  0  0
M  END
>  <MODEL>
8

>  <REMARK>
 VINA RESULT:      -8.5      2.490      5.483
  Name = 
  5 active torsions:
  status: ('A' for Active; 'I' for Inactive)
    1  A    between atoms: C_1  and  C_2
    2  A    between atoms: C_9  and  C_15
    3  A    between atoms: C_10  and  C_13
    4  A    between atoms: N_12  and  C_15
    5  A    between atoms: N_12  and  C_24
                            x       y       z     vdW  Elec       q    Type
                         _______ _______ _______ _____ _____    ______ ____

>  <TORSDO>
F 5

$$$$
=
 OpenBabel11052413213D

 28 30  0  0  1  0  0  0  0  0999 V2000
  184.1570  178.2760  142.4550 C   0  0  0  0  0  0  0  0  0  0  0  0
  185.3990  178.6020  147.1280 F   0  0  0  0  0  0  0  0  0  0  0  0
  187.2850  177.3400  144.2590 C   0  0  0  0  0  0  0  0  0  0  0  0
  184.7650  178.4530  144.8170 C   0  0  0  0  0  0  0  0  0  0  0  0
  186.3580  177.5350  143.2270 C   0  0  0  0  0  3  0  0  0  0  0  0
  182.5830  179.1910  144.0680 C   0  0  0  0  0  3  0  0  0  0  0  0
  185.6980  178.2610  145.8490 C   0  0  0  0  0  0  0  0  0  0  0  0
  183.5100  179.0030  145.0930 C   0  0  0  0  0  3  0  0  0  0  0  0
  186.9480  177.7050  145.5660 C   0  0  0  0  0  3  0  0  0  0  0  0
  182.9040  178.8300  142.7580 C   0  0  0  0  0  3  0  0  0  0  0  0
  185.0970  178.0870  143.4890 C   0  0  0  0  0  0  0  0  0  0  0  0
  184.4880  177.8970  141.0340 C   0  0  2  0  0  3  0  0  0  0  0  0
  185.2820  179.0030  140.3260 C   0  0  0  0  0  2  0  0  0  0  0  0
  182.7290  178.3990  139.1510 C   0  0  1  0  0  3  0  0  0  0  0  0
  184.4160  179.9910  139.8280 O   0  0  0  0  0  0  0  0  0  0  0  0
  182.6770  176.4700  140.5110 O   0  0  0  0  0  0  0  0  0  0  0  0
  183.2570  177.5120  140.2490 C   0  0  0  0  0  0  0  0  0  0  0  0
  181.4750  179.1180  139.6160 C   0  0  0  0  0  1  0  0  0  0  0  0
  183.7870  179.4150  138.7120 C   0  0  0  0  0  2  0  0  0  0  0  0
  189.3020  176.9840  142.9230 C   0  0  0  0  0  0  0  0  0  0  0  0
  188.6090  176.7530  144.0090 C   0  0  0  0  0  3  0  0  0  0  0  0
  190.0100  177.2030  141.8450 C   0  0  0  0  0  3  0  0  0  0  0  0
  189.4180  177.5260  140.5790 N   0  0  0  0  0  0  0  0  0  0  0  0
  188.4760  178.6280  140.5220 C   0  0  0  0  0  1  0  0  0  0  0  0
  189.6430  176.7480  139.3670 C   0  0  0  0  0  2  0  0  0  0  0  0
  191.0680  176.7420  139.0190 C   0  0  0  0  0  0  0  0  0  0  0  0
  193.5560  176.7530  138.3670 O   0  0  0  0  0  1  0  0  0  0  0  0
  192.2360  176.7470  138.7170 C   0  0  0  0  0  0  0  0  0  0  0  0
  1 10  2  0  0  0  0
  1 11  1  0  0  0  0
  3  9  1  0  0  0  0
  4  8  1  0  0  0  0
  4  7  1  0  0  0  0
  5 11  1  0  0  0  0
  5  3  2  0  0  0  0
  6  8  2  0  0  0  0
  7  2  1  0  0  0  0
  9  7  2  0  0  0  0
 10  6  1  0  0  0  0
 11  4  2  0  0  0  0
 12  1  1  1  0  0  0
 13 12  1  0  0  0  0
 14 18  1  1  0  0  0
 14 17  1  0  0  0  0
 15 13  1  0  0  0  0
 17 16  2  0  0  0  0
 17 12  1  0  0  0  0
 19 14  1  0  0  0  0
 19 15  1  0  0  0  0
 20 21  2  0  0  0  0
 21  3  1  0  0  0  0
 22 20  2  0  0  0  0
 23 22  1  0  0  0  0
 24 23  1  0  0  0  0
 25 23  1  0  0  0  0
 26 25  1  0  0  0  0
 27 28  1  0  0  0  0
 28 26  3  0  0  0  0
M  END
>  <MODEL>
9

>  <REMARK>
 VINA RESULT:      -8.4      2.572      5.514
  Name = 
  5 active torsions:
  status: ('A' for Active; 'I' for Inactive)
    1  A    between atoms: C_1  and  C_2
    2  A    between atoms: C_9  and  C_15
    3  A    between atoms: C_10  and  C_13
    4  A    between atoms: N_12  and  C_15
    5  A    between atoms: N_12  and  C_24
                            x       y       z     vdW  Elec       q    Type
                         _______ _______ _______ _____ _____    ______ ____

>  <TORSDO>
F 5

$$$$
