=
 OpenBabel11052412483D

 25 29  0  0  1  0  0  0  0  0999 V2000
  187.2290  177.9660  145.4790 C   0  0  0  0  0  0  0  0  0  0  0  0
  188.5320  177.6130  145.0930 C   0  0  0  0  0  0  0  0  0  0  0  0
  187.8890  177.9340  147.7800 N   0  0  0  0  0  0  0  0  0  0  0  0
  186.0980  178.2050  144.6800 C   0  0  0  0  0  0  0  0  0  0  0  0
  183.6550  178.7560  143.4390 C   0  0  0  0  0  3  0  0  0  0  0  0
  189.1310  177.5910  147.4250 N   0  0  0  0  0  0  0  0  0  0  0  0
  184.9720  178.5390  145.4330 C   0  0  0  0  0  0  0  0  0  0  0  0
  183.7440  178.8180  144.8380 C   0  0  0  0  0  3  0  0  0  0  0  0
  190.8750  177.0530  145.7710 C   0  0  0  0  0  0  0  0  0  0  0  0
  191.7340  176.8910  146.6770 O   0  0  0  0  0  0  0  0  0  0  0  0
  188.8990  177.3720  143.6540 C   0  0  0  0  0  2  0  0  0  0  0  0
  184.7840  178.4220  142.6690 C   0  0  0  0  0  3  0  0  0  0  0  0
  186.9470  178.1220  146.8270 C   0  0  0  0  0  0  0  0  0  0  0  0
  185.3350  178.5470  147.0810 S   0  0  0  0  0  0  0  0  0  0  0  0
  190.3820  177.6550  143.4040 C   0  0  1  0  0  3  0  0  0  0  0  0
  186.0140  178.1450  143.2850 C   0  0  0  0  0  3  0  0  0  0  0  0
  191.2620  176.8260  144.3410 C   0  0  0  0  0  2  0  0  0  0  0  0
  189.4870  177.4150  146.1170 C   0  0  0  0  0  0  0  0  0  0  0  0
  192.3780  177.2570  140.1880 C   0  0  0  0  0  0  0  0  0  0  0  0
  190.7390  177.4120  141.9730 C   0  0  0  0  0  0  0  0  0  0  0  0
  192.0690  177.4920  141.5300 C   0  0  0  0  0  3  0  0  0  0  0  0
  193.6940  177.3370  139.7530 O   0  0  0  0  0  1  0  0  0  0  0  0
  189.7260  177.0980  141.0610 C   0  0  0  0  0  3  0  0  0  0  0  0
  191.3600  176.9440  139.2800 C   0  0  0  0  0  3  0  0  0  0  0  0
  190.0340  176.8640  139.7180 C   0  0  0  0  0  3  0  0  0  0  0  0
  1 13  1  0  0  0  0
  2  1  2  0  0  0  0
  2 18  1  0  0  0  0
  4  7  1  0  0  0  0
  4  1  1  0  0  0  0
  5  8  1  0  0  0  0
  6  3  1  0  0  0  0
  7 14  1  0  0  0  0
  8  7  2  0  0  0  0
  9 18  1  0  0  0  0
  9 10  2  0  0  0  0
 11  2  1  0  0  0  0
 12 16  1  0  0  0  0
 12  5  2  0  0  0  0
 13 14  1  0  0  0  0
 13  3  2  0  0  0  0
 15 20  1  6  0  0  0
 15 11  1  0  0  0  0
 15 17  1  0  0  0  0
 16  4  2  0  0  0  0
 17  9  1  0  0  0  0
 18  6  2  0  0  0  0
 19 21  1  0  0  0  0
 21 20  2  0  0  0  0
 22 19  1  0  0  0  0
 23 20  1  0  0  0  0
 24 25  1  0  0  0  0
 24 19  2  0  0  0  0
 25 23  2  0  0  0  0
M  END
>  <MODEL>
1

>  <REMARK>
 VINA RESULT:     -11.4      0.000      0.000
  Name = 
  1 active torsions:
  status: ('A' for Active; 'I' for Inactive)
    1  A    between atoms: C_6  and  C_20
                            x       y       z     vdW  Elec       q    Type
                         _______ _______ _______ _____ _____    ______ ____

>  <TORSDO>
F 1

$$$$
=
 OpenBabel11052412483D

 25 29  0  0  1  0  0  0  0  0999 V2000
  186.9750  177.8520  144.8170 C   0  0  0  0  0  0  0  0  0  0  0  0
  188.1380  177.4760  144.1260 C   0  0  0  0  0  0  0  0  0  0  0  0
  188.0940  177.5210  146.9070 N   0  0  0  0  0  0  0  0  0  0  0  0
  185.7250  178.2420  144.3070 C   0  0  0  0  0  0  0  0  0  0  0  0
  183.1270  179.0610  143.6820 C   0  0  0  0  0  3  0  0  0  0  0  0
  189.2050  177.1540  146.2610 N   0  0  0  0  0  0  0  0  0  0  0  0
  184.8090  178.5470  145.3140 C   0  0  0  0  0  0  0  0  0  0  0  0
  183.5090  178.9580  145.0280 C   0  0  0  0  0  3  0  0  0  0  0  0
  190.5210  176.7170  144.2250 C   0  0  0  0  0  0  0  0  0  0  0  0
  191.5350  176.4060  144.9040 O   0  0  0  0  0  0  0  0  0  0  0  0
  188.1790  177.3820  142.6240 C   0  0  0  0  0  2  0  0  0  0  0  0
  184.0420  178.7580  142.6570 C   0  0  0  0  0  3  0  0  0  0  0  0
  186.9920  177.8670  146.2020 C   0  0  0  0  0  0  0  0  0  0  0  0
  185.5050  178.3470  146.8370 S   0  0  0  0  0  0  0  0  0  0  0  0
  189.5950  177.6120  142.0920 C   0  0  1  0  0  3  0  0  0  0  0  0
  185.3480  178.3470  142.9640 C   0  0  0  0  0  3  0  0  0  0  0  0
  190.5840  176.6350  142.7300 C   0  0  0  0  0  2  0  0  0  0  0  0
  189.2670  177.1110  144.8950 C   0  0  0  0  0  0  0  0  0  0  0  0
  188.8080  178.1700  138.4100 C   0  0  0  0  0  0  0  0  0  0  0  0
  189.6270  177.5160  140.6000 C   0  0  0  0  0  0  0  0  0  0  0  0
  188.7570  178.2760  139.8030 C   0  0  0  0  0  3  0  0  0  0  0  0
  187.9460  178.9230  137.6240 O   0  0  0  0  0  1  0  0  0  0  0  0
  190.5440  176.6510  139.9920 C   0  0  0  0  0  3  0  0  0  0  0  0
  189.7260  177.3030  137.8080 C   0  0  0  0  0  3  0  0  0  0  0  0
  190.5940  176.5450  138.5990 C   0  0  0  0  0  3  0  0  0  0  0  0
  1 13  1  0  0  0  0
  2  1  2  0  0  0  0
  2 18  1  0  0  0  0
  4  1  1  0  0  0  0
  4  7  1  0  0  0  0
  5  8  1  0  0  0  0
  6  3  1  0  0  0  0
  7 14  1  0  0  0  0
  8  7  2  0  0  0  0
  9 18  1  0  0  0  0
  9 10  2  0  0  0  0
 11  2  1  0  0  0  0
 12 16  1  0  0  0  0
 12  5  2  0  0  0  0
 13 14  1  0  0  0  0
 13  3  2  0  0  0  0
 15 20  1  6  0  0  0
 15 11  1  0  0  0  0
 15 17  1  0  0  0  0
 16  4  2  0  0  0  0
 17  9  1  0  0  0  0
 18  6  2  0  0  0  0
 19 21  1  0  0  0  0
 21 20  2  0  0  0  0
 22 19  1  0  0  0  0
 23 20  1  0  0  0  0
 24 19  2  0  0  0  0
 24 25  1  0  0  0  0
 25 23  2  0  0  0  0
M  END
>  <MODEL>
2

>  <REMARK>
 VINA RESULT:     -11.1      1.672      2.046
  Name = 
  1 active torsions:
  status: ('A' for Active; 'I' for Inactive)
    1  A    between atoms: C_6  and  C_20
                            x       y       z     vdW  Elec       q    Type
                         _______ _______ _______ _____ _____    ______ ____

>  <TORSDO>
F 1

$$$$
=
 OpenBabel11052412483D

 25 29  0  0  1  0  0  0  0  0999 V2000
  186.0150  178.4640  141.8840 C   0  0  0  0  0  0  0  0  0  0  0  0
  187.3820  178.1940  142.0490 C   0  0  0  0  0  0  0  0  0  0  0  0
  186.3100  178.5700  139.5110 N   0  0  0  0  0  0  0  0  0  0  0  0
  185.0080  178.5890  142.8560 C   0  0  0  0  0  0  0  0  0  0  0  0
  182.7550  178.9010  144.4800 C   0  0  0  0  0  3  0  0  0  0  0  0
  187.6150  178.3200  139.6560 N   0  0  0  0  0  0  0  0  0  0  0  0
  183.7580  178.8600  142.3010 C   0  0  0  0  0  0  0  0  0  0  0  0
  182.6200  179.0200  143.0890 C   0  0  0  0  0  3  0  0  0  0  0  0
  189.6250  177.8450  140.9970 C   0  0  0  0  0  0  0  0  0  0  0  0
  190.3420  177.7770  139.9640 O   0  0  0  0  0  0  0  0  0  0  0  0
  188.0060  178.0440  143.4110 C   0  0  0  0  0  2  0  0  0  0  0  0
  184.0100  178.6270  145.0530 C   0  0  0  0  0  3  0  0  0  0  0  0
  185.5150  178.6420  140.6030 C   0  0  0  0  0  0  0  0  0  0  0  0
  183.8580  178.9530  140.6190 S   0  0  0  0  0  0  0  0  0  0  0  0
  189.2450  177.1470  143.3580 C   0  0  1  0  0  3  0  0  0  0  0  0
  185.1450  178.4680  144.2430 C   0  0  0  0  0  3  0  0  0  0  0  0
  190.2600  177.6770  142.3440 C   0  0  0  0  0  2  0  0  0  0  0  0
  188.1840  178.1360  140.8860 C   0  0  0  0  0  0  0  0  0  0  0  0
  189.7360  177.1800  147.1320 C   0  0  0  0  0  0  0  0  0  0  0  0
  189.8600  177.0060  144.7140 C   0  0  0  0  0  0  0  0  0  0  0  0
  189.1400  177.3230  145.8760 C   0  0  0  0  0  3  0  0  0  0  0  0
  189.0210  177.4930  148.2800 O   0  0  0  0  0  1  0  0  0  0  0  0
  191.1780  176.5490  144.8210 C   0  0  0  0  0  3  0  0  0  0  0  0
  191.0540  176.7230  147.2330 C   0  0  0  0  0  3  0  0  0  0  0  0
  191.7740  176.4070  146.0770 C   0  0  0  0  0  3  0  0  0  0  0  0
  1  2  1  0  0  0  0
  1  4  1  0  0  0  0
  2 11  1  0  0  0  0
  3  6  2  0  0  0  0
  3 13  1  0  0  0  0
  4 16  1  0  0  0  0
  5 12  1  0  0  0  0
  6 18  1  0  0  0  0
  7  4  2  0  0  0  0
  7  8  1  0  0  0  0
  8  5  2  0  0  0  0
  9 17  1  0  0  0  0
 10  9  2  0  0  0  0
 13 14  1  0  0  0  0
 13  1  2  0  0  0  0
 14  7  1  0  0  0  0
 15 11  1  0  0  0  0
 15 20  1  1  0  0  0
 16 12  2  0  0  0  0
 17 15  1  0  0  0  0
 18  9  1  0  0  0  0
 18  2  2  0  0  0  0
 19 24  1  0  0  0  0
 19 22  1  0  0  0  0
 20 23  2  0  0  0  0
 20 21  1  0  0  0  0
 21 19  2  0  0  0  0
 23 25  1  0  0  0  0
 25 24  2  0  0  0  0
M  END
>  <MODEL>
3

>  <REMARK>
 VINA RESULT:     -11.0      3.088      5.276
  Name = 
  1 active torsions:
  status: ('A' for Active; 'I' for Inactive)
    1  A    between atoms: C_6  and  C_20
                            x       y       z     vdW  Elec       q    Type
                         _______ _______ _______ _____ _____    ______ ____

>  <TORSDO>
F 1

$$$$
=
 OpenBabel11052412483D

 25 29  0  0  1  0  0  0  0  0999 V2000
  185.2570  178.5590  141.5280 C   0  0  0  0  0  0  0  0  0  0  0  0
  186.5900  178.3420  141.9100 C   0  0  0  0  0  0  0  0  0  0  0  0
  185.9070  178.5810  139.2240 N   0  0  0  0  0  0  0  0  0  0  0  0
  184.1110  178.6890  142.3310 C   0  0  0  0  0  0  0  0  0  0  0  0
  181.6300  178.9900  143.5800 C   0  0  0  0  0  3  0  0  0  0  0  0
  187.1810  178.3810  139.5760 N   0  0  0  0  0  0  0  0  0  0  0  0
  182.9530  178.8960  141.5820 C   0  0  0  0  0  0  0  0  0  0  0  0
  181.7050  179.0480  142.1810 C   0  0  0  0  0  3  0  0  0  0  0  0
  188.9760  178.0280  141.2250 C   0  0  0  0  0  0  0  0  0  0  0  0
  189.8440  177.9430  140.3150 O   0  0  0  0  0  0  0  0  0  0  0  0
  187.0040  178.2680  143.3550 C   0  0  0  0  0  2  0  0  0  0  0  0
  182.7900  178.7810  144.3480 C   0  0  0  0  0  3  0  0  0  0  0  0
  184.9540  178.6690  140.1800 C   0  0  0  0  0  0  0  0  0  0  0  0
  183.3060  178.9240  139.9320 S   0  0  0  0  0  0  0  0  0  0  0  0
  188.2610  177.4120  143.5300 C   0  0  1  0  0  3  0  0  0  0  0  0
  184.0390  178.6280  143.7270 C   0  0  0  0  0  3  0  0  0  0  0  0
  189.4030  177.9350  142.6580 C   0  0  0  0  0  2  0  0  0  0  0  0
  187.5610  178.2650  140.8840 C   0  0  0  0  0  0  0  0  0  0  0  0
  190.3560  177.0720  146.6890 C   0  0  0  0  0  0  0  0  0  0  0  0
  188.6660  177.3460  144.9680 C   0  0  0  0  0  0  0  0  0  0  0  0
  190.0020  177.1270  145.3380 C   0  0  0  0  0  3  0  0  0  0  0  0
  191.6780  176.8560  147.0520 O   0  0  0  0  0  1  0  0  0  0  0  0
  187.6920  177.5060  145.9590 C   0  0  0  0  0  3  0  0  0  0  0  0
  189.3780  177.2320  147.6760 C   0  0  0  0  0  3  0  0  0  0  0  0
  188.0460  177.4490  147.3100 C   0  0  0  0  0  3  0  0  0  0  0  0
  1  2  1  0  0  0  0
  1  4  1  0  0  0  0
  2 11  1  0  0  0  0
  3  6  2  0  0  0  0
  3 13  1  0  0  0  0
  4 16  1  0  0  0  0
  5 12  1  0  0  0  0
  6 18  1  0  0  0  0
  7  8  1  0  0  0  0
  7  4  2  0  0  0  0
  8  5  2  0  0  0  0
  9 17  1  0  0  0  0
 10  9  2  0  0  0  0
 11 15  1  0  0  0  0
 13  1  2  0  0  0  0
 14 13  1  0  0  0  0
 14  7  1  0  0  0  0
 15 20  1  1  0  0  0
 16 12  2  0  0  0  0
 17 15  1  0  0  0  0
 18  9  1  0  0  0  0
 18  2  2  0  0  0  0
 19 22  1  0  0  0  0
 19 24  1  0  0  0  0
 20 21  1  0  0  0  0
 20 23  2  0  0  0  0
 21 19  2  0  0  0  0
 23 25  1  0  0  0  0
 25 24  2  0  0  0  0
M  END
>  <MODEL>
4

>  <REMARK>
 VINA RESULT:     -10.9      3.254      5.502
  Name = 
  1 active torsions:
  status: ('A' for Active; 'I' for Inactive)
    1  A    between atoms: C_6  and  C_20
                            x       y       z     vdW  Elec       q    Type
                         _______ _______ _______ _____ _____    ______ ____

>  <TORSDO>
F 1

$$$$
=
 OpenBabel11052412483D

 25 29  0  0  1  0  0  0  0  0999 V2000
  189.1790  177.6030  143.2450 C   0  0  0  0  0  0  0  0  0  0  0  0
  188.0800  177.8690  142.4140 C   0  0  0  0  0  0  0  0  0  0  0  0
  190.6460  177.6900  141.3560 N   0  0  0  0  0  0  0  0  0  0  0  0
  189.2140  177.3940  144.6350 C   0  0  0  0  0  0  0  0  0  0  0  0
  189.6840  176.9370  147.3510 C   0  0  0  0  0  3  0  0  0  0  0  0
  189.6060  177.9360  140.5520 N   0  0  0  0  0  0  0  0  0  0  0  0
  190.5050  177.1590  145.1080 C   0  0  0  0  0  0  0  0  0  0  0  0
  190.7650  176.9290  146.4570 C   0  0  0  0  0  3  0  0  0  0  0  0
  187.2130  178.3160  140.1090 C   0  0  0  0  0  0  0  0  0  0  0  0
  187.4290  178.4710  138.8780 O   0  0  0  0  0  0  0  0  0  0  0  0
  186.6710  177.9130  142.9430 C   0  0  0  0  0  2  0  0  0  0  0  0
  188.3770  177.1730  146.8870 C   0  0  0  0  0  3  0  0  0  0  0  0
  190.4440  177.5260  142.6830 C   0  0  0  0  0  0  0  0  0  0  0  0
  191.6220  177.2030  143.8450 S   0  0  0  0  0  0  0  0  0  0  0  0
  185.7840  178.8190  142.0870 C   0  0  1  0  0  3  0  0  0  0  0  0
  188.1340  177.4040  145.5240 C   0  0  0  0  0  3  0  0  0  0  0  0
  185.8060  178.3800  140.6220 C   0  0  0  0  0  2  0  0  0  0  0  0
  188.3280  178.0250  141.0300 C   0  0  0  0  0  0  0  0  0  0  0  0
  181.9830  178.8270  142.2790 C   0  0  0  0  0  0  0  0  0  0  0  0
  184.3870  178.8550  142.6190 C   0  0  0  0  0  0  0  0  0  0  0  0
  183.2790  178.7950  141.7580 C   0  0  0  0  0  3  0  0  0  0  0  0
  180.8900  178.7660  141.4260 O   0  0  0  0  0  1  0  0  0  0  0  0
  184.1850  178.9510  143.9990 C   0  0  0  0  0  3  0  0  0  0  0  0
  181.7870  178.9240  143.6610 C   0  0  0  0  0  3  0  0  0  0  0  0
  182.8880  178.9850  144.5200 C   0  0  0  0  0  3  0  0  0  0  0  0
  1  4  1  0  0  0  0
  2 11  1  0  0  0  0
  2  1  1  0  0  0  0
  3 13  1  0  0  0  0
  4  7  2  0  0  0  0
  4 16  1  0  0  0  0
  6 18  1  0  0  0  0
  6  3  2  0  0  0  0
  7  8  1  0  0  0  0
  8  5  2  0  0  0  0
  9 17  1  0  0  0  0
  9 18  1  0  0  0  0
 10  9  2  0  0  0  0
 12  5  1  0  0  0  0
 13  1  2  0  0  0  0
 13 14  1  0  0  0  0
 14  7  1  0  0  0  0
 15 20  1  1  0  0  0
 15 11  1  0  0  0  0
 16 12  2  0  0  0  0
 17 15  1  0  0  0  0
 18  2  2  0  0  0  0
 19 24  1  0  0  0  0
 20 23  2  0  0  0  0
 21 19  2  0  0  0  0
 21 20  1  0  0  0  0
 22 19  1  0  0  0  0
 23 25  1  0  0  0  0
 24 25  2  0  0  0  0
M  END
>  <MODEL>
5

>  <REMARK>
 VINA RESULT:     -10.3      3.842      7.111
  Name = 
  1 active torsions:
  status: ('A' for Active; 'I' for Inactive)
    1  A    between atoms: C_6  and  C_20
                            x       y       z     vdW  Elec       q    Type
                         _______ _______ _______ _____ _____    ______ ____

>  <TORSDO>
F 1

$$$$
=
 OpenBabel11052412483D

 25 29  0  0  1  0  0  0  0  0999 V2000
  189.5400  177.5070  144.0430 C   0  0  0  0  0  0  0  0  0  0  0  0
  188.9500  177.6670  142.7800 C   0  0  0  0  0  0  0  0  0  0  0  0
  191.6990  177.3210  143.0260 N   0  0  0  0  0  0  0  0  0  0  0  0
  188.9350  177.4880  145.3120 C   0  0  0  0  0  0  0  0  0  0  0  0
  188.1080  177.4020  147.9800 C   0  0  0  0  0  3  0  0  0  0  0  0
  191.1470  177.4650  141.8170 N   0  0  0  0  0  0  0  0  0  0  0  0
  189.8580  177.3080  146.3420 C   0  0  0  0  0  0  0  0  0  0  0  0
  189.4710  177.2620  147.6790 C   0  0  0  0  0  3  0  0  0  0  0  0
  189.2380  177.8040  140.2980 C   0  0  0  0  0  0  0  0  0  0  0  0
  189.9920  177.7880  139.2890 O   0  0  0  0  0  0  0  0  0  0  0  0
  187.4600  177.7960  142.6060 C   0  0  0  0  0  2  0  0  0  0  0  0
  187.1670  177.5850  146.9510 C   0  0  0  0  0  3  0  0  0  0  0  0
  190.9130  177.3410  144.1280 C   0  0  0  0  0  0  0  0  0  0  0  0
  191.4220  177.1690  145.7250 S   0  0  0  0  0  0  0  0  0  0  0  0
  187.1150  178.5860  141.3410 C   0  0  1  0  0  3  0  0  0  0  0  0
  187.5760  177.6300  145.6090 C   0  0  0  0  0  3  0  0  0  0  0  0
  187.7590  177.9510  140.1080 C   0  0  0  0  0  2  0  0  0  0  0  0
  189.8000  177.6310  141.6510 C   0  0  0  0  0  0  0  0  0  0  0  0
  183.6760  179.1060  139.7950 C   0  0  0  0  0  0  0  0  0  0  0  0
  185.6340  178.7080  141.1750 C   0  0  0  0  0  0  0  0  0  0  0  0
  185.0640  178.9990  139.9260 C   0  0  0  0  0  3  0  0  0  0  0  0
  183.1150  179.3930  138.5590 O   0  0  0  0  0  1  0  0  0  0  0  0
  184.8060  178.5260  142.2870 C   0  0  0  0  0  3  0  0  0  0  0  0
  182.8530  178.9230  140.9110 C   0  0  0  0  0  3  0  0  0  0  0  0
  183.4180  178.6330  142.1560 C   0  0  0  0  0  3  0  0  0  0  0  0
  1 13  2  0  0  0  0
  1  4  1  0  0  0  0
  2  1  1  0  0  0  0
  3 13  1  0  0  0  0
  4 16  2  0  0  0  0
  4  7  1  0  0  0  0
  6  3  2  0  0  0  0
  7  8  2  0  0  0  0
  8  5  1  0  0  0  0
  9 18  1  0  0  0  0
 10  9  2  0  0  0  0
 11  2  1  0  0  0  0
 12  5  2  0  0  0  0
 13 14  1  0  0  0  0
 14  7  1  0  0  0  0
 15 20  1  6  0  0  0
 15 11  1  0  0  0  0
 16 12  1  0  0  0  0
 17  9  1  0  0  0  0
 17 15  1  0  0  0  0
 18  6  1  0  0  0  0
 18  2  2  0  0  0  0
 19 21  2  0  0  0  0
 19 24  1  0  0  0  0
 20 23  2  0  0  0  0
 21 20  1  0  0  0  0
 22 19  1  0  0  0  0
 24 25  2  0  0  0  0
 25 23  1  0  0  0  0
M  END
>  <MODEL>
6

>  <REMARK>
 VINA RESULT:     -10.3      3.393      6.017
  Name = 
  1 active torsions:
  status: ('A' for Active; 'I' for Inactive)
    1  A    between atoms: C_6  and  C_20
                            x       y       z     vdW  Elec       q    Type
                         _______ _______ _______ _____ _____    ______ ____

>  <TORSDO>
F 1

$$$$
=
 OpenBabel11052412483D

 25 29  0  0  1  0  0  0  0  0999 V2000
  188.5140  177.6540  144.6150 C   0  0  0  0  0  0  0  0  0  0  0  0
  187.1580  178.0180  144.6010 C   0  0  0  0  0  0  0  0  0  0  0  0
  188.4490  177.4520  146.9990 N   0  0  0  0  0  0  0  0  0  0  0  0
  189.4090  177.5150  143.5400 C   0  0  0  0  0  0  0  0  0  0  0  0
  191.4630  177.1330  141.6840 C   0  0  0  0  0  3  0  0  0  0  0  0
  187.1590  177.8050  146.9990 N   0  0  0  0  0  0  0  0  0  0  0  0
  190.6850  177.1330  143.9530 C   0  0  0  0  0  0  0  0  0  0  0  0
  191.7250  176.9360  143.0470 C   0  0  0  0  0  3  0  0  0  0  0  0
  185.0610  178.4640  145.8900 C   0  0  0  0  0  0  0  0  0  0  0  0
  184.4550  178.5220  146.9930 O   0  0  0  0  0  0  0  0  0  0  0  0
  186.4450  178.3880  143.3280 C   0  0  0  0  0  2  0  0  0  0  0  0
  190.1800  177.5180  141.2540 C   0  0  0  0  0  3  0  0  0  0  0  0
  189.1230  177.3760  145.8280 C   0  0  0  0  0  0  0  0  0  0  0  0
  190.7440  176.9590  145.6300 S   0  0  0  0  0  0  0  0  0  0  0  0
  184.9450  178.1010  143.4290 C   0  0  1  0  0  3  0  0  0  0  0  0
  189.1430  177.7100  142.1810 C   0  0  0  0  0  3  0  0  0  0  0  0
  184.3310  178.8200  144.6310 C   0  0  0  0  0  2  0  0  0  0  0  0
  186.4890  178.0970  145.8440 C   0  0  0  0  0  0  0  0  0  0  0  0
  184.2850  179.1430  139.8280 C   0  0  0  0  0  0  0  0  0  0  0  0
  184.2440  178.4740  142.1610 C   0  0  0  0  0  0  0  0  0  0  0  0
  184.9630  178.8010  141.0010 C   0  0  0  0  0  3  0  0  0  0  0  0
  184.9990  179.4650  138.6820 O   0  0  0  0  0  1  0  0  0  0  0  0
  182.8460  178.4960  142.1370 C   0  0  0  0  0  3  0  0  0  0  0  0
  182.8870  179.1640  139.8090 C   0  0  0  0  0  3  0  0  0  0  0  0
  182.1680  178.8400  140.9640 C   0  0  0  0  0  3  0  0  0  0  0  0
  1 13  1  0  0  0  0
  2  1  2  0  0  0  0
  2 18  1  0  0  0  0
  4  7  1  0  0  0  0
  4  1  1  0  0  0  0
  5  8  1  0  0  0  0
  6  3  1  0  0  0  0
  7 14  1  0  0  0  0
  8  7  2  0  0  0  0
  9 10  2  0  0  0  0
 11 15  1  0  0  0  0
 11  2  1  0  0  0  0
 12  5  2  0  0  0  0
 12 16  1  0  0  0  0
 13  3  2  0  0  0  0
 14 13  1  0  0  0  0
 15 20  1  6  0  0  0
 15 17  1  0  0  0  0
 16  4  2  0  0  0  0
 17  9  1  0  0  0  0
 18  9  1  0  0  0  0
 18  6  2  0  0  0  0
 19 21  1  0  0  0  0
 21 20  2  0  0  0  0
 22 19  1  0  0  0  0
 23 20  1  0  0  0  0
 24 19  2  0  0  0  0
 24 25  1  0  0  0  0
 25 23  2  0  0  0  0
M  END
>  <MODEL>
7

>  <REMARK>
 VINA RESULT:     -10.3      2.949      6.037
  Name = 
  1 active torsions:
  status: ('A' for Active; 'I' for Inactive)
    1  A    between atoms: C_6  and  C_20
                            x       y       z     vdW  Elec       q    Type
                         _______ _______ _______ _____ _____    ______ ____

>  <TORSDO>
F 1

$$$$
=
 OpenBabel11052412483D

 25 29  0  0  1  0  0  0  0  0999 V2000
  188.3560  177.6190  144.2890 C   0  0  0  0  0  0  0  0  0  0  0  0
  188.2880  177.8050  142.9000 C   0  0  0  0  0  0  0  0  0  0  0  0
  186.0630  178.2730  144.5030 N   0  0  0  0  0  0  0  0  0  0  0  0
  189.4420  177.2040  145.0790 C   0  0  0  0  0  0  0  0  0  0  0  0
  191.3470  176.4110  146.9640 C   0  0  0  0  0  3  0  0  0  0  0  0
  185.9880  178.4600  143.1820 N   0  0  0  0  0  0  0  0  0  0  0  0
  189.1220  177.1340  146.4350 C   0  0  0  0  0  0  0  0  0  0  0  0
  190.0530  176.7410  147.3930 C   0  0  0  0  0  3  0  0  0  0  0  0
  186.9240  178.4510  140.9040 C   0  0  0  0  0  0  0  0  0  0  0  0
  185.8280  178.8320  140.4130 O   0  0  0  0  0  0  0  0  0  0  0  0
  189.4870  177.6180  142.0100 C   0  0  0  0  0  2  0  0  0  0  0  0
  191.6830  176.4760  145.5990 C   0  0  0  0  0  3  0  0  0  0  0  0
  187.2270  177.8580  145.0560 C   0  0  0  0  0  0  0  0  0  0  0  0
  187.5140  177.5760  146.6930 S   0  0  0  0  0  0  0  0  0  0  0  0
  189.0700  177.2260  140.5910 C   0  0  1  0  0  3  0  0  0  0  0  0
  190.7310  176.8720  144.6470 C   0  0  0  0  0  3  0  0  0  0  0  0
  188.1040  178.2540  140.0010 C   0  0  0  0  0  2  0  0  0  0  0  0
  187.0590  178.2490  142.3580 C   0  0  0  0  0  0  0  0  0  0  0  0
  192.6700  177.0840  139.3610 C   0  0  0  0  0  0  0  0  0  0  0  0
  190.2680  177.0450  139.7130 C   0  0  0  0  0  0  0  0  0  0  0  0
  191.5660  177.2620  140.2010 C   0  0  0  0  0  3  0  0  0  0  0  0
  193.9530  177.2980  139.8460 O   0  0  0  0  0  1  0  0  0  0  0  0
  190.0860  176.6520  138.3830 C   0  0  0  0  0  3  0  0  0  0  0  0
  192.4820  176.6910  138.0320 C   0  0  0  0  0  3  0  0  0  0  0  0
  191.1890  176.4750  137.5440 C   0  0  0  0  0  3  0  0  0  0  0  0
  1 13  2  0  0  0  0
  1  4  1  0  0  0  0
  2  1  1  0  0  0  0
  3 13  1  0  0  0  0
  4  7  1  0  0  0  0
  5  8  1  0  0  0  0
  6  3  2  0  0  0  0
  7 14  1  0  0  0  0
  7  8  2  0  0  0  0
  9 18  1  0  0  0  0
 10  9  2  0  0  0  0
 11  2  1  0  0  0  0
 12  5  2  0  0  0  0
 13 14  1  0  0  0  0
 15 20  1  6  0  0  0
 15 11  1  0  0  0  0
 16  4  2  0  0  0  0
 16 12  1  0  0  0  0
 17 15  1  0  0  0  0
 17  9  1  0  0  0  0
 18  2  2  0  0  0  0
 18  6  1  0  0  0  0
 19 22  1  0  0  0  0
 19 21  1  0  0  0  0
 20 21  2  0  0  0  0
 23 20  1  0  0  0  0
 24 19  2  0  0  0  0
 25 24  1  0  0  0  0
 25 23  2  0  0  0  0
M  END
>  <MODEL>
8

>  <REMARK>
 VINA RESULT:     -10.1      2.415      4.535
  Name = 
  1 active torsions:
  status: ('A' for Active; 'I' for Inactive)
    1  A    between atoms: C_6  and  C_20
                            x       y       z     vdW  Elec       q    Type
                         _______ _______ _______ _____ _____    ______ ____

>  <TORSDO>
F 1

$$$$
=
 OpenBabel11052412483D

 25 29  0  0  1  0  0  0  0  0999 V2000
  189.2350  177.5850  143.5150 C   0  0  0  0  0  0  0  0  0  0  0  0
  188.0670  177.8620  144.2430 C   0  0  0  0  0  0  0  0  0  0  0  0
  190.4340  177.2200  145.5540 N   0  0  0  0  0  0  0  0  0  0  0  0
  189.4350  177.5750  142.1240 C   0  0  0  0  0  0  0  0  0  0  0  0
  190.2150  177.4500  139.4430 C   0  0  0  0  0  3  0  0  0  0  0  0
  189.3300  177.4890  146.2580 N   0  0  0  0  0  0  0  0  0  0  0  0
  190.7450  177.2480  141.7750 C   0  0  0  0  0  0  0  0  0  0  0  0
  191.1580  177.1780  140.4460 C   0  0  0  0  0  3  0  0  0  0  0  0
  186.9500  178.0880  146.4710 C   0  0  0  0  0  0  0  0  0  0  0  0
  187.0120  178.0330  147.7280 O   0  0  0  0  0  0  0  0  0  0  0  0
  186.7850  178.2710  143.5680 C   0  0  0  0  0  2  0  0  0  0  0  0
  188.8910  177.7800  139.7820 C   0  0  0  0  0  3  0  0  0  0  0  0
  190.3950  177.2650  144.2020 C   0  0  0  0  0  0  0  0  0  0  0  0
  191.6790  176.9660  143.1510 S   0  0  0  0  0  0  0  0  0  0  0  0
  185.5670  177.8840  144.4100 C   0  0  1  0  0  3  0  0  0  0  0  0
  188.4920  177.8440  141.1270 C   0  0  0  0  0  3  0  0  0  0  0  0
  185.6610  178.4800  145.8150 C   0  0  0  0  0  2  0  0  0  0  0  0
  188.1480  177.8160  145.6540 C   0  0  0  0  0  0  0  0  0  0  0  0
  182.9940  178.6980  141.7250 C   0  0  0  0  0  0  0  0  0  0  0  0
  184.2980  178.2960  143.7330 C   0  0  0  0  0  0  0  0  0  0  0  0
  184.1910  178.3110  142.3340 C   0  0  0  0  0  3  0  0  0  0  0  0
  182.8910  178.7120  140.3410 O   0  0  0  0  0  1  0  0  0  0  0  0
  183.2000  178.6710  144.5140 C   0  0  0  0  0  3  0  0  0  0  0  0
  181.8990  179.0720  142.5110 C   0  0  0  0  0  3  0  0  0  0  0  0
  182.0020  179.0580  143.9050 C   0  0  0  0  0  3  0  0  0  0  0  0
  1 13  1  0  0  0  0
  1  2  2  0  0  0  0
  2 18  1  0  0  0  0
  3  6  1  0  0  0  0
  4  1  1  0  0  0  0
  5 12  2  0  0  0  0
  5  8  1  0  0  0  0
  7  4  1  0  0  0  0
  7 14  1  0  0  0  0
  8  7  2  0  0  0  0
  9 10  2  0  0  0  0
 11  2  1  0  0  0  0
 11 15  1  0  0  0  0
 12 16  1  0  0  0  0
 13  3  2  0  0  0  0
 14 13  1  0  0  0  0
 15 20  1  6  0  0  0
 15 17  1  0  0  0  0
 16  4  2  0  0  0  0
 17  9  1  0  0  0  0
 18  6  2  0  0  0  0
 18  9  1  0  0  0  0
 19 21  2  0  0  0  0
 19 24  1  0  0  0  0
 20 23  2  0  0  0  0
 21 20  1  0  0  0  0
 22 19  1  0  0  0  0
 24 25  2  0  0  0  0
 25 23  1  0  0  0  0
M  END
>  <MODEL>
9

>  <REMARK>
 VINA RESULT:     -10.1      3.051      6.384
  Name = 
  1 active torsions:
  status: ('A' for Active; 'I' for Inactive)
    1  A    between atoms: C_6  and  C_20
                            x       y       z     vdW  Elec       q    Type
                         _______ _______ _______ _____ _____    ______ ____

>  <TORSDO>
F 1

$$$$
