=
 OpenBabel11052414053D

 34 39  0  0  1  0  0  0  0  0999 V2000
  185.9720  178.3060  145.8470 C   0  0  0  0  0  0  0  0  0  0  0  0
  187.5540  177.2430  144.3440 C   0  0  0  0  0  0  0  0  0  0  0  0
  185.3950  178.2430  143.4650 C   0  0  0  0  0  0  0  0  0  0  0  0
  184.7330  178.5240  141.1490 C   0  0  0  0  0  0  0  0  0  0  0  0
  188.1350  177.6080  146.6710 C   0  0  0  0  0  3  0  0  0  0  0  0
  188.4550  177.1250  145.4050 C   0  0  0  0  0  3  0  0  0  0  0  0
  186.9750  178.2790  141.5620 N   0  0  0  0  0  0  0  0  0  0  0  0
  186.3260  177.9450  144.5170 C   0  0  0  0  0  0  0  0  0  0  0  0
  188.1180  178.4250  139.4020 N   0  0  0  0  0  2  0  0  0  0  0  0
  185.3860  178.6330  139.6070 S   0  0  0  0  0  0  0  0  0  0  0  0
  186.8840  178.1700  146.8960 C   0  0  0  0  0  3  0  0  0  0  0  0
  184.0520  178.6070  143.8110 C   0  0  0  0  0  0  0  0  0  0  0  0
  184.6940  178.7620  146.1470 C   0  0  0  0  0  3  0  0  0  0  0  0
  187.8630  176.5570  143.1770 O   0  0  0  0  0  1  0  0  0  0  0  0
  183.4460  178.7450  141.4840 N   0  0  0  0  0  0  0  0  0  0  0  0
  183.0660  178.7840  142.7920 C   0  0  0  0  0  0  0  0  0  0  0  0
  186.9470  178.4240  140.2150 C   0  0  0  0  0  0  0  0  0  0  0  0
  185.7230  178.2980  142.0890 C   0  0  0  0  0  0  0  0  0  0  0  0
  183.7400  178.8790  145.1470 C   0  0  0  0  0  3  0  0  0  0  0  0
  179.5950  180.3440  142.7510 C   0  0  0  0  0  0  0  0  0  0  0  0
  178.9450  179.5770  143.7210 C   0  0  0  0  0  3  0  0  0  0  0  0
  181.6330  179.0520  143.0800 C   0  0  0  0  0  0  0  0  0  0  0  0
  179.6350  178.5570  144.3790 C   0  0  0  0  0  3  0  0  0  0  0  0
  180.9330  180.0860  142.4370 C   0  0  0  0  0  3  0  0  0  0  0  0
  180.9720  178.2990  144.0640 C   0  0  0  0  0  3  0  0  0  0  0  0
  178.9310  181.3390  142.1160 F   0  0  0  0  0  0  0  0  0  0  0  0
  189.4420  178.2480  139.9740 C   0  0  0  0  0  2  0  0  0  0  0  0
  192.2300  177.4910  140.3740 F   0  0  0  0  0  0  0  0  0  0  0  0
  190.0830  176.9820  139.4320 C   0  0  2  0  0  3  0  0  0  0  0  0
  191.5870  177.1840  139.1890 C   0  0  2  0  0  3  0  0  0  0  0  0
  191.6480  175.8700  137.3500 C   0  0  0  0  0  2  0  0  0  0  0  0
  190.1670  175.5010  137.4050 C   0  0  0  0  0  2  0  0  0  0  0  0
  189.4080  176.6210  138.1100 C   0  0  0  0  0  2  0  0  0  0  0  0
  192.1520  176.0100  138.6550 O   0  0  0  0  0  0  0  0  0  0  0  0
  1 13  1  0  0  0  0
  1 11  2  0  0  0  0
  2  8  2  0  0  0  0
  2  6  1  0  0  0  0
  3 12  1  0  0  0  0
  3  8  1  0  0  0  0
  4 15  2  0  0  0  0
  4 18  1  0  0  0  0
  5 11  1  0  0  0  0
  6  5  2  0  0  0  0
  7 18  1  0  0  0  0
  8  1  1  0  0  0  0
  9 27  1  0  0  0  0
  9 17  1  0  0  0  0
 10 17  1  0  0  0  0
 10  4  1  0  0  0  0
 12 19  1  0  0  0  0
 14  2  1  0  0  0  0
 15 16  1  0  0  0  0
 16 22  1  0  0  0  0
 16 12  2  0  0  0  0
 17  7  2  0  0  0  0
 18  3  2  0  0  0  0
 19 13  2  0  0  0  0
 20 21  1  0  0  0  0
 21 23  2  0  0  0  0
 22 25  2  0  0  0  0
 24 20  2  0  0  0  0
 24 22  1  0  0  0  0
 25 23  1  0  0  0  0
 26 20  1  0  0  0  0
 29 27  1  6  0  0  0
 30 29  1  0  0  0  0
 30 28  1  1  0  0  0
 31 32  1  0  0  0  0
 31 34  1  0  0  0  0
 32 33  1  0  0  0  0
 33 29  1  0  0  0  0
 34 30  1  0  0  0  0
M  END
>  <MODEL>
1

>  <REMARK>
 VINA RESULT:     -11.0      0.000      0.000
  Name = 
  3 active torsions:
  status: ('A' for Active; 'I' for Inactive)
    1  A    between atoms: C_3  and  C_13
    2  A    between atoms: C_3  and  N_17
    3  A    between atoms: C_12  and  C_28
                            x       y       z     vdW  Elec       q    Type
                         _______ _______ _______ _____ _____    ______ ____

>  <TORSDO>
F 3

$$$$
=
 OpenBabel11052414053D

 34 39  0  0  1  0  0  0  0  0999 V2000
  185.1250  178.1280  144.1660 C   0  0  0  0  0  0  0  0  0  0  0  0
  185.1540  179.1010  141.9420 C   0  0  0  0  0  0  0  0  0  0  0  0
  187.2280  178.0080  142.9110 C   0  0  0  0  0  0  0  0  0  0  0  0
  189.3220  177.5490  141.7770 C   0  0  0  0  0  0  0  0  0  0  0  0
  183.0690  178.9150  143.1680 C   0  0  0  0  0  3  0  0  0  0  0  0
  183.7750  179.3090  142.0350 C   0  0  0  0  0  3  0  0  0  0  0  0
  187.4750  177.8550  140.4540 N   0  0  0  0  0  0  0  0  0  0  0  0
  185.8460  178.3960  142.9690 C   0  0  0  0  0  0  0  0  0  0  0  0
  188.2030  177.5680  138.1350 N   0  0  0  0  0  2  0  0  0  0  0  0
  189.9550  177.3370  140.2380 S   0  0  0  0  0  0  0  0  0  0  0  0
  183.7490  178.3540  144.2420 C   0  0  0  0  0  3  0  0  0  0  0  0
  187.8990  177.6520  144.1270 C   0  0  0  0  0  0  0  0  0  0  0  0
  185.7780  177.6770  145.3070 C   0  0  0  0  0  3  0  0  0  0  0  0
  185.8110  179.7040  140.8780 O   0  0  0  0  0  1  0  0  0  0  0  0
  189.9710  177.3350  142.9390 N   0  0  0  0  0  0  0  0  0  0  0  0
  189.3030  177.3860  144.1260 C   0  0  0  0  0  0  0  0  0  0  0  0
  188.4440  177.6110  139.5390 C   0  0  0  0  0  0  0  0  0  0  0  0
  187.9750  177.8570  141.7180 C   0  0  0  0  0  0  0  0  0  0  0  0
  187.1490  177.4740  145.2940 C   0  0  0  0  0  3  0  0  0  0  0  0
  190.4910  177.4450  147.7410 C   0  0  0  0  0  0  0  0  0  0  0  0
  191.6400  176.6560  147.6590 C   0  0  0  0  0  3  0  0  0  0  0  0
  190.0840  177.1190  145.3620 C   0  0  0  0  0  0  0  0  0  0  0  0
  192.0200  176.1050  146.4330 C   0  0  0  0  0  3  0  0  0  0  0  0
  189.7210  177.6800  146.5980 C   0  0  0  0  0  3  0  0  0  0  0  0
  191.2490  176.3390  145.2910 C   0  0  0  0  0  3  0  0  0  0  0  0
  190.1240  177.9870  148.9270 F   0  0  0  0  0  0  0  0  0  0  0  0
  186.8800  177.8050  137.5810 C   0  0  0  0  0  2  0  0  0  0  0  0
  184.1110  177.2720  136.8360 F   0  0  0  0  0  0  0  0  0  0  0  0
  186.4100  176.5860  136.8070 C   0  0  2  0  0  3  0  0  0  0  0  0
  184.9580  176.2300  137.1640 C   0  0  2  0  0  3  0  0  0  0  0  0
  185.2770  173.9970  137.0010 C   0  0  0  0  0  2  0  0  0  0  0  0
  186.7460  174.1050  136.6000 C   0  0  0  0  0  2  0  0  0  0  0  0
  187.3140  175.4050  137.1600 C   0  0  0  0  0  2  0  0  0  0  0  0
  184.5560  175.0770  136.4620 O   0  0  0  0  0  0  0  0  0  0  0  0
  1 11  1  0  0  0  0
  1 13  1  0  0  0  0
  2  6  2  0  0  0  0
  2  8  1  0  0  0  0
  3  8  1  0  0  0  0
  3 12  1  0  0  0  0
  4 15  2  0  0  0  0
  5 11  2  0  0  0  0
  6  5  1  0  0  0  0
  7 18  1  0  0  0  0
  8  1  2  0  0  0  0
  9 17  1  0  0  0  0
 10  4  1  0  0  0  0
 12 19  1  0  0  0  0
 14  2  1  0  0  0  0
 15 16  1  0  0  0  0
 16 12  2  0  0  0  0
 16 22  1  0  0  0  0
 17 10  1  0  0  0  0
 17  7  2  0  0  0  0
 18  4  1  0  0  0  0
 18  3  2  0  0  0  0
 19 13  2  0  0  0  0
 20 26  1  0  0  0  0
 21 20  1  0  0  0  0
 22 24  1  0  0  0  0
 23 21  2  0  0  0  0
 24 20  2  0  0  0  0
 25 22  2  0  0  0  0
 25 23  1  0  0  0  0
 27  9  1  0  0  0  0
 29 33  1  0  0  0  0
 29 30  1  0  0  0  0
 29 27  1  1  0  0  0
 30 28  1  6  0  0  0
 32 31  1  0  0  0  0
 32 33  1  0  0  0  0
 34 31  1  0  0  0  0
 34 30  1  0  0  0  0
M  END
>  <MODEL>
2

>  <REMARK>
 VINA RESULT:     -10.3      3.503      6.825
  Name = 
  3 active torsions:
  status: ('A' for Active; 'I' for Inactive)
    1  A    between atoms: C_3  and  C_13
    2  A    between atoms: C_3  and  N_17
    3  A    between atoms: C_12  and  C_28
                            x       y       z     vdW  Elec       q    Type
                         _______ _______ _______ _____ _____    ______ ____

>  <TORSDO>
F 3

$$$$
=
 OpenBabel11052414053D

 34 39  0  0  1  0  0  0  0  0999 V2000
  185.0430  178.1580  144.1060 C   0  0  0  0  0  0  0  0  0  0  0  0
  185.0890  179.0930  141.8650 C   0  0  0  0  0  0  0  0  0  0  0  0
  187.1620  178.0410  142.8800 C   0  0  0  0  0  0  0  0  0  0  0  0
  189.2760  177.5860  141.7800 C   0  0  0  0  0  0  0  0  0  0  0  0
  182.9910  178.9050  143.0680 C   0  0  0  0  0  3  0  0  0  0  0  0
  183.7070  179.2860  141.9370 C   0  0  0  0  0  3  0  0  0  0  0  0
  187.4420  177.8470  140.4290 N   0  0  0  0  0  0  0  0  0  0  0  0
  185.7760  178.4130  142.9130 C   0  0  0  0  0  0  0  0  0  0  0  0
  188.2030  177.5290  138.1240 N   0  0  0  0  0  2  0  0  0  0  0  0
  189.9310  177.3530  140.2530 S   0  0  0  0  0  0  0  0  0  0  0  0
  183.6630  178.3700  144.1600 C   0  0  0  0  0  3  0  0  0  0  0  0
  187.8220  177.7130  144.1090 C   0  0  0  0  0  0  0  0  0  0  0  0
  185.6860  177.7350  145.2620 C   0  0  0  0  0  3  0  0  0  0  0  0
  185.7520  179.6840  140.7990 O   0  0  0  0  0  1  0  0  0  0  0  0
  189.9120  177.3980  142.9540 N   0  0  0  0  0  0  0  0  0  0  0  0
  189.2290  177.4630  144.1310 C   0  0  0  0  0  0  0  0  0  0  0  0
  188.4250  177.5990  139.5300 C   0  0  0  0  0  0  0  0  0  0  0  0
  187.9260  177.8770  141.6980 C   0  0  0  0  0  0  0  0  0  0  0  0
  187.0600  177.5470  145.2700 C   0  0  0  0  0  3  0  0  0  0  0  0
  191.8270  176.1750  146.5950 C   0  0  0  0  0  0  0  0  0  0  0  0
  191.3690  176.7390  147.7870 C   0  0  0  0  0  3  0  0  0  0  0  0
  189.9970  177.2260  145.3820 C   0  0  0  0  0  0  0  0  0  0  0  0
  190.2230  177.5380  147.7850 C   0  0  0  0  0  3  0  0  0  0  0  0
  191.1410  176.4120  145.4000 C   0  0  0  0  0  3  0  0  0  0  0  0
  189.5390  177.7760  146.5900 C   0  0  0  0  0  3  0  0  0  0  0  0
  192.9340  175.3940  146.5960 F   0  0  0  0  0  0  0  0  0  0  0  0
  186.8850  177.7410  137.5500 C   0  0  0  0  0  2  0  0  0  0  0  0
  184.1100  177.1270  136.8910 F   0  0  0  0  0  0  0  0  0  0  0  0
  186.4230  176.4900  136.8220 C   0  0  2  0  0  3  0  0  0  0  0  0
  184.9890  176.1130  137.2270 C   0  0  2  0  0  3  0  0  0  0  0  0
  185.3530  173.8840  137.1180 C   0  0  0  0  0  2  0  0  0  0  0  0
  186.8090  174.0120  136.6760 C   0  0  0  0  0  2  0  0  0  0  0  0
  187.3610  175.3400  137.1850 C   0  0  0  0  0  2  0  0  0  0  0  0
  184.5950  174.9330  136.5680 O   0  0  0  0  0  0  0  0  0  0  0  0
  1 11  1  0  0  0  0
  1 13  1  0  0  0  0
  2  6  2  0  0  0  0
  2  8  1  0  0  0  0
  3  8  1  0  0  0  0
  3 12  1  0  0  0  0
  4 15  2  0  0  0  0
  5 11  2  0  0  0  0
  6  5  1  0  0  0  0
  7 18  1  0  0  0  0
  8  1  2  0  0  0  0
  9 17  1  0  0  0  0
 10  4  1  0  0  0  0
 12 16  2  0  0  0  0
 12 19  1  0  0  0  0
 13 19  2  0  0  0  0
 14  2  1  0  0  0  0
 15 16  1  0  0  0  0
 16 22  1  0  0  0  0
 17 10  1  0  0  0  0
 17  7  2  0  0  0  0
 18  4  1  0  0  0  0
 18  3  2  0  0  0  0
 20 26  1  0  0  0  0
 20 21  1  0  0  0  0
 22 24  1  0  0  0  0
 22 25  2  0  0  0  0
 23 21  2  0  0  0  0
 24 20  2  0  0  0  0
 25 23  1  0  0  0  0
 27  9  1  0  0  0  0
 29 33  1  0  0  0  0
 29 30  1  0  0  0  0
 29 27  1  1  0  0  0
 30 28  1  6  0  0  0
 32 31  1  0  0  0  0
 32 33  1  0  0  0  0
 34 31  1  0  0  0  0
 34 30  1  0  0  0  0
M  END
>  <MODEL>
3

>  <REMARK>
 VINA RESULT:     -10.2      3.327      6.921
  Name = 
  3 active torsions:
  status: ('A' for Active; 'I' for Inactive)
    1  A    between atoms: C_3  and  C_13
    2  A    between atoms: C_3  and  N_17
    3  A    between atoms: C_12  and  C_28
                            x       y       z     vdW  Elec       q    Type
                         _______ _______ _______ _____ _____    ______ ____

>  <TORSDO>
F 3

$$$$
=
 OpenBabel11052414053D

 34 39  0  0  1  0  0  0  0  0999 V2000
  182.7760  178.7590  141.7780 C   0  0  0  0  0  0  0  0  0  0  0  0
  183.6510  179.5710  139.6640 C   0  0  0  0  0  0  0  0  0  0  0  0
  185.2070  178.6960  141.4660 C   0  0  0  0  0  0  0  0  0  0  0  0
  187.5940  178.3030  141.2920 C   0  0  0  0  0  0  0  0  0  0  0  0
  181.2580  179.3290  139.9850 C   0  0  0  0  0  3  0  0  0  0  0  0
  182.3420  179.6880  139.1890 C   0  0  0  0  0  3  0  0  0  0  0  0
  186.4140  178.3850  139.3290 N   0  0  0  0  0  0  0  0  0  0  0  0
  183.9030  178.9900  140.9410 C   0  0  0  0  0  0  0  0  0  0  0  0
  188.0120  177.9850  137.5180 N   0  0  0  0  0  2  0  0  0  0  0  0
  188.7930  178.0260  140.1520 S   0  0  0  0  0  0  0  0  0  0  0  0
  181.4760  178.8940  141.2870 C   0  0  0  0  0  3  0  0  0  0  0  0
  185.3530  178.4750  142.8750 C   0  0  0  0  0  0  0  0  0  0  0  0
  182.9380  178.4370  143.1200 C   0  0  0  0  0  3  0  0  0  0  0  0
  184.6540  180.1400  138.8910 O   0  0  0  0  0  1  0  0  0  0  0  0
  187.7360  178.2180  142.6300 N   0  0  0  0  0  0  0  0  0  0  0  0
  186.6510  178.3070  143.4490 C   0  0  0  0  0  0  0  0  0  0  0  0
  187.6740  178.1450  138.8930 C   0  0  0  0  0  0  0  0  0  0  0  0
  186.3710  178.5120  140.6810 C   0  0  0  0  0  0  0  0  0  0  0  0
  184.2090  178.3290  143.6650 C   0  0  0  0  0  3  0  0  0  0  0  0
  188.1240  177.2850  146.8060 C   0  0  0  0  0  0  0  0  0  0  0  0
  187.2410  177.9110  147.6880 C   0  0  0  0  0  3  0  0  0  0  0  0
  186.8860  178.1840  144.9120 C   0  0  0  0  0  0  0  0  0  0  0  0
  186.1760  178.6650  147.1900 C   0  0  0  0  0  3  0  0  0  0  0  0
  187.9430  177.4160  145.4260 C   0  0  0  0  0  3  0  0  0  0  0  0
  185.9970  178.7960  145.8100 C   0  0  0  0  0  3  0  0  0  0  0  0
  189.1530  176.5480  147.2870 F   0  0  0  0  0  0  0  0  0  0  0  0
  187.0090  178.0890  136.4710 C   0  0  0  0  0  2  0  0  0  0  0  0
  184.3020  177.0240  136.6710 F   0  0  0  0  0  0  0  0  0  0  0  0
  186.5870  176.7050  136.0100 C   0  0  2  0  0  3  0  0  0  0  0  0
  185.3940  176.1900  136.8320 C   0  0  2  0  0  3  0  0  0  0  0  0
  186.0820  174.0360  136.8150 C   0  0  0  0  0  2  0  0  0  0  0  0
  187.3270  174.3050  135.9730 C   0  0  0  0  0  2  0  0  0  0  0  0
  187.7650  175.7490  136.1920 C   0  0  0  0  0  2  0  0  0  0  0  0
  185.0420  174.8930  136.4120 O   0  0  0  0  0  0  0  0  0  0  0  0
  1 13  1  0  0  0  0
  2  8  1  0  0  0  0
  3 12  1  0  0  0  0
  4 15  2  0  0  0  0
  5 11  2  0  0  0  0
  6  2  2  0  0  0  0
  6  5  1  0  0  0  0
  7 18  1  0  0  0  0
  8  3  1  0  0  0  0
  8  1  2  0  0  0  0
  9 17  1  0  0  0  0
 10  4  1  0  0  0  0
 11  1  1  0  0  0  0
 12 16  2  0  0  0  0
 12 19  1  0  0  0  0
 13 19  2  0  0  0  0
 14  2  1  0  0  0  0
 15 16  1  0  0  0  0
 16 22  1  0  0  0  0
 17  7  2  0  0  0  0
 17 10  1  0  0  0  0
 18  4  1  0  0  0  0
 18  3  2  0  0  0  0
 20 26  1  0  0  0  0
 20 21  1  0  0  0  0
 22 24  1  0  0  0  0
 22 25  2  0  0  0  0
 23 21  2  0  0  0  0
 24 20  2  0  0  0  0
 25 23  1  0  0  0  0
 27  9  1  0  0  0  0
 29 33  1  0  0  0  0
 29 27  1  1  0  0  0
 29 30  1  0  0  0  0
 30 28  1  6  0  0  0
 32 33  1  0  0  0  0
 32 31  1  0  0  0  0
 34 31  1  0  0  0  0
 34 30  1  0  0  0  0
M  END
>  <MODEL>
4

>  <REMARK>
 VINA RESULT:     -10.1      3.322      6.063
  Name = 
  3 active torsions:
  status: ('A' for Active; 'I' for Inactive)
    1  A    between atoms: C_3  and  C_13
    2  A    between atoms: C_3  and  N_17
    3  A    between atoms: C_12  and  C_28
                            x       y       z     vdW  Elec       q    Type
                         _______ _______ _______ _____ _____    ______ ____

>  <TORSDO>
F 3

$$$$
=
 OpenBabel11052414053D

 34 39  0  0  1  0  0  0  0  0999 V2000
  185.5050  178.0340  143.6630 C   0  0  0  0  0  0  0  0  0  0  0  0
  185.7550  178.7930  141.3710 C   0  0  0  0  0  0  0  0  0  0  0  0
  187.7110  177.7750  142.6250 C   0  0  0  0  0  0  0  0  0  0  0  0
  189.8910  177.1900  141.7360 C   0  0  0  0  0  0  0  0  0  0  0  0
  183.5640  178.7450  142.4100 C   0  0  0  0  0  3  0  0  0  0  0  0
  184.3780  179.0230  141.3160 C   0  0  0  0  0  3  0  0  0  0  0  0
  188.1780  177.3880  140.2260 N   0  0  0  0  0  0  0  0  0  0  0  0
  186.3380  178.1800  142.5180 C   0  0  0  0  0  0  0  0  0  0  0  0
  189.1090  176.8770  138.0200 N   0  0  0  0  0  2  0  0  0  0  0  0
  190.6580  176.8260  140.2890 S   0  0  0  0  0  0  0  0  0  0  0  0
  184.1330  178.2800  143.5900 C   0  0  0  0  0  3  0  0  0  0  0  0
  188.2620  177.5280  143.9250 C   0  0  0  0  0  0  0  0  0  0  0  0
  186.0430  177.6860  144.8960 C   0  0  0  0  0  3  0  0  0  0  0  0
  186.5170  179.2860  140.3200 O   0  0  0  0  0  1  0  0  0  0  0  0
  190.4270  177.0780  142.9690 N   0  0  0  0  0  0  0  0  0  0  0  0
  189.6550  177.2480  144.0790 C   0  0  0  0  0  0  0  0  0  0  0  0
  189.2210  177.0500  139.4310 C   0  0  0  0  0  0  0  0  0  0  0  0
  188.5610  177.5040  141.5250 C   0  0  0  0  0  0  0  0  0  0  0  0
  187.4060  177.4680  145.0290 C   0  0  0  0  0  3  0  0  0  0  0  0
  192.0350  176.1230  146.8260 C   0  0  0  0  0  0  0  0  0  0  0  0
  191.4790  176.7560  147.9390 C   0  0  0  0  0  3  0  0  0  0  0  0
  190.3150  177.0910  145.4020 C   0  0  0  0  0  0  0  0  0  0  0  0
  190.3380  177.5480  147.7930 C   0  0  0  0  0  3  0  0  0  0  0  0
  191.4530  176.2850  145.5660 C   0  0  0  0  0  3  0  0  0  0  0  0
  189.7570  177.7100  146.5320 C   0  0  0  0  0  3  0  0  0  0  0  0
  193.1380  175.3480  146.9680 F   0  0  0  0  0  0  0  0  0  0  0  0
  187.8470  177.0740  137.3280 C   0  0  0  0  0  2  0  0  0  0  0  0
  188.9260  175.2060  135.3650 F   0  0  0  0  0  0  0  0  0  0  0  0
  187.2270  175.7320  136.9760 C   0  0  2  0  0  3  0  0  0  0  0  0
  187.5590  175.3330  135.5290 C   0  0  2  0  0  3  0  0  0  0  0  0
  185.5610  174.3420  135.1550 C   0  0  0  0  0  2  0  0  0  0  0  0
  185.0220  174.6030  136.5600 C   0  0  0  0  0  2  0  0  0  0  0  0
  185.7110  175.8410  137.1270 C   0  0  0  0  0  2  0  0  0  0  0  0
  186.9460  174.1050  135.2140 O   0  0  0  0  0  0  0  0  0  0  0  0
  1 13  1  0  0  0  0
  2  8  1  0  0  0  0
  3 12  1  0  0  0  0
  4 15  2  0  0  0  0
  5 11  2  0  0  0  0
  6  2  2  0  0  0  0
  6  5  1  0  0  0  0
  7 18  1  0  0  0  0
  8  3  1  0  0  0  0
  8  1  2  0  0  0  0
  9 17  1  0  0  0  0
 10  4  1  0  0  0  0
 11  1  1  0  0  0  0
 12 16  2  0  0  0  0
 12 19  1  0  0  0  0
 13 19  2  0  0  0  0
 14  2  1  0  0  0  0
 15 16  1  0  0  0  0
 16 22  1  0  0  0  0
 17  7  2  0  0  0  0
 17 10  1  0  0  0  0
 18  4  1  0  0  0  0
 18  3  2  0  0  0  0
 20 26  1  0  0  0  0
 20 21  1  0  0  0  0
 22 24  1  0  0  0  0
 22 25  2  0  0  0  0
 23 21  2  0  0  0  0
 24 20  2  0  0  0  0
 25 23  1  0  0  0  0
 27  9  1  0  0  0  0
 29 33  1  0  0  0  0
 29 27  1  6  0  0  0
 30 28  1  1  0  0  0
 30 29  1  0  0  0  0
 31 34  1  0  0  0  0
 31 32  1  0  0  0  0
 32 33  1  0  0  0  0
 34 30  1  0  0  0  0
M  END
>  <MODEL>
5

>  <REMARK>
 VINA RESULT:     -10.0      3.770      6.996
  Name = 
  3 active torsions:
  status: ('A' for Active; 'I' for Inactive)
    1  A    between atoms: C_3  and  C_13
    2  A    between atoms: C_3  and  N_17
    3  A    between atoms: C_12  and  C_28
                            x       y       z     vdW  Elec       q    Type
                         _______ _______ _______ _____ _____    ______ ____

>  <TORSDO>
F 3

$$$$
=
 OpenBabel11052414053D

 34 39  0  0  1  0  0  0  0  0999 V2000
  189.5480  177.2140  146.1550 C   0  0  0  0  0  0  0  0  0  0  0  0
  191.0600  176.1340  144.5920 C   0  0  0  0  0  0  0  0  0  0  0  0
  188.9440  177.2730  143.7790 C   0  0  0  0  0  0  0  0  0  0  0  0
  188.2740  177.6780  141.4840 C   0  0  0  0  0  0  0  0  0  0  0  0
  191.6820  176.3780  146.9240 C   0  0  0  0  0  3  0  0  0  0  0  0
  191.9650  175.9300  145.6370 C   0  0  0  0  0  3  0  0  0  0  0  0
  190.5050  177.3070  141.8600 N   0  0  0  0  0  0  0  0  0  0  0  0
  189.8700  176.8880  144.8070 C   0  0  0  0  0  0  0  0  0  0  0  0
  191.6320  177.4820  139.6930 N   0  0  0  0  0  2  0  0  0  0  0  0
  188.9160  177.8160  139.9400 S   0  0  0  0  0  0  0  0  0  0  0  0
  190.4620  176.9910  147.1860 C   0  0  0  0  0  3  0  0  0  0  0  0
  187.6240  177.6890  144.1550 C   0  0  0  0  0  0  0  0  0  0  0  0
  188.2970  177.7190  146.4870 C   0  0  0  0  0  3  0  0  0  0  0  0
  191.3230  175.4810  143.3960 O   0  0  0  0  0  1  0  0  0  0  0  0
  187.0030  177.9490  141.8420 N   0  0  0  0  0  0  0  0  0  0  0  0
  186.6390  177.9550  143.1550 C   0  0  0  0  0  0  0  0  0  0  0  0
  190.4710  177.5070  140.5200 C   0  0  0  0  0  0  0  0  0  0  0  0
  189.2600  177.3670  142.4020 C   0  0  0  0  0  0  0  0  0  0  0  0
  187.3400  177.9230  145.5040 C   0  0  0  0  0  3  0  0  0  0  0  0
  182.9120  178.6320  142.7930 C   0  0  0  0  0  0  0  0  0  0  0  0
  182.5760  178.9890  144.1010 C   0  0  0  0  0  3  0  0  0  0  0  0
  185.2240  178.2820  143.4720 C   0  0  0  0  0  0  0  0  0  0  0  0
  183.5580  179.0030  145.0940 C   0  0  0  0  0  3  0  0  0  0  0  0
  184.2300  178.2870  142.4800 C   0  0  0  0  0  3  0  0  0  0  0  0
  184.8740  178.6560  144.7790 C   0  0  0  0  0  3  0  0  0  0  0  0
  181.9620  178.6250  141.8270 F   0  0  0  0  0  0  0  0  0  0  0  0
  192.9510  177.2180  140.2420 C   0  0  0  0  0  2  0  0  0  0  0  0
  192.1680  176.7530  137.4710 F   0  0  0  0  0  0  0  0  0  0  0  0
  193.8520  176.6170  139.1760 C   0  0  2  0  0  3  0  0  0  0  0  0
  193.0280  175.8780  138.1100 C   0  0  2  0  0  3  0  0  0  0  0  0
  194.5660  174.2510  137.7930 C   0  0  0  0  0  2  0  0  0  0  0  0
  195.5660  174.8210  138.7960 C   0  0  0  0  0  2  0  0  0  0  0  0
  194.8050  175.6280  139.8440 C   0  0  0  0  0  2  0  0  0  0  0  0
  193.8840  175.3000  137.1530 O   0  0  0  0  0  0  0  0  0  0  0  0
  1 13  1  0  0  0  0
  1 11  2  0  0  0  0
  2  8  2  0  0  0  0
  2  6  1  0  0  0  0
  3 12  1  0  0  0  0
  3  8  1  0  0  0  0
  4 15  2  0  0  0  0
  4 18  1  0  0  0  0
  5 11  1  0  0  0  0
  6  5  2  0  0  0  0
  7 18  1  0  0  0  0
  8  1  1  0  0  0  0
  9 27  1  0  0  0  0
  9 17  1  0  0  0  0
 10 17  1  0  0  0  0
 10  4  1  0  0  0  0
 12 19  1  0  0  0  0
 14  2  1  0  0  0  0
 15 16  1  0  0  0  0
 16 22  1  0  0  0  0
 16 12  2  0  0  0  0
 17  7  2  0  0  0  0
 18  3  2  0  0  0  0
 19 13  2  0  0  0  0
 20 21  1  0  0  0  0
 21 23  2  0  0  0  0
 22 25  2  0  0  0  0
 24 20  2  0  0  0  0
 24 22  1  0  0  0  0
 25 23  1  0  0  0  0
 26 20  1  0  0  0  0
 29 33  1  0  0  0  0
 29 27  1  1  0  0  0
 30 28  1  6  0  0  0
 30 29  1  0  0  0  0
 31 32  1  0  0  0  0
 32 33  1  0  0  0  0
 34 31  1  0  0  0  0
 34 30  1  0  0  0  0
M  END
>  <MODEL>
6

>  <REMARK>
 VINA RESULT:      -9.7      2.471      3.785
  Name = 
  3 active torsions:
  status: ('A' for Active; 'I' for Inactive)
    1  A    between atoms: C_3  and  C_13
    2  A    between atoms: C_3  and  N_17
    3  A    between atoms: C_12  and  C_28
                            x       y       z     vdW  Elec       q    Type
                         _______ _______ _______ _____ _____    ______ ____

>  <TORSDO>
F 3

$$$$
=
 OpenBabel11052414053D

 34 39  0  0  1  0  0  0  0  0999 V2000
  184.4480  178.7110  144.7220 C   0  0  0  0  0  0  0  0  0  0  0  0
  186.6230  177.7080  145.1160 C   0  0  0  0  0  0  0  0  0  0  0  0
  185.8710  178.3040  142.7680 C   0  0  0  0  0  0  0  0  0  0  0  0
  187.1880  178.2300  140.7330 C   0  0  0  0  0  0  0  0  0  0  0  0
  185.2430  178.4080  146.9850 C   0  0  0  0  0  3  0  0  0  0  0  0
  186.4110  177.8330  146.4920 C   0  0  0  0  0  3  0  0  0  0  0  0
  188.3440  178.3380  142.7100 N   0  0  0  0  0  0  0  0  0  0  0  0
  185.6860  178.2540  144.1910 C   0  0  0  0  0  0  0  0  0  0  0  0
  190.7250  178.3920  142.1420 N   0  0  0  0  0  2  0  0  0  0  0  0
  188.7810  178.2520  140.2060 S   0  0  0  0  0  0  0  0  0  0  0  0
  184.2520  178.8180  146.1010 C   0  0  0  0  0  3  0  0  0  0  0  0
  184.7300  178.5200  141.9280 C   0  0  0  0  0  0  0  0  0  0  0  0
  183.3830  179.0220  143.8850 C   0  0  0  0  0  3  0  0  0  0  0  0
  187.7100  176.9430  144.7150 O   0  0  0  0  0  1  0  0  0  0  0  0
  186.0920  178.3130  139.9520 N   0  0  0  0  0  0  0  0  0  0  0  0
  184.8550  178.4480  140.5060 C   0  0  0  0  0  0  0  0  0  0  0  0
  189.3440  178.3250  141.7950 C   0  0  0  0  0  0  0  0  0  0  0  0
  187.1260  178.2470  142.1150 C   0  0  0  0  0  0  0  0  0  0  0  0
  183.5150  178.8960  142.5100 C   0  0  0  0  0  3  0  0  0  0  0  0
  182.1390  179.8680  138.2520 C   0  0  0  0  0  0  0  0  0  0  0  0
  181.4510  178.7060  137.8950 C   0  0  0  0  0  3  0  0  0  0  0  0
  183.6970  178.5510  139.5790 C   0  0  0  0  0  0  0  0  0  0  0  0
  181.8750  177.4680  138.3830 C   0  0  0  0  0  3  0  0  0  0  0  0
  183.2510  179.7910  139.0940 C   0  0  0  0  0  3  0  0  0  0  0  0
  182.9880  177.3930  139.2240 C   0  0  0  0  0  3  0  0  0  0  0  0
  181.7250  181.0710  137.7850 F   0  0  0  0  0  0  0  0  0  0  0  0
  191.1600  178.4610  143.5270 C   0  0  0  0  0  2  0  0  0  0  0  0
  190.0600  178.0920  146.2040 F   0  0  0  0  0  0  0  0  0  0  0  0
  190.9630  177.1160  144.2060 C   0  0  2  0  0  3  0  0  0  0  0  0
  191.0520  177.2500  145.7350 C   0  0  2  0  0  3  0  0  0  0  0  0
  192.0560  175.2460  146.0310 C   0  0  0  0  0  2  0  0  0  0  0  0
  192.0520  174.8790  144.5490 C   0  0  0  0  0  2  0  0  0  0  0  0
  192.0560  176.1620  143.7250 C   0  0  0  0  0  2  0  0  0  0  0  0
  190.9020  175.9880  146.3400 O   0  0  0  0  0  0  0  0  0  0  0  0
  1 11  2  0  0  0  0
  2  6  1  0  0  0  0
  3  8  1  0  0  0  0
  4 18  2  0  0  0  0
  6  5  2  0  0  0  0
  8  1  1  0  0  0  0
  8  2  2  0  0  0  0
  9 27  1  0  0  0  0
 10  4  1  0  0  0  0
 10 17  1  0  0  0  0
 11  5  1  0  0  0  0
 12 19  1  0  0  0  0
 12  3  2  0  0  0  0
 13  1  1  0  0  0  0
 14  2  1  0  0  0  0
 15 16  2  0  0  0  0
 15  4  1  0  0  0  0
 16 12  1  0  0  0  0
 17  9  1  0  0  0  0
 17  7  2  0  0  0  0
 18  7  1  0  0  0  0
 18  3  1  0  0  0  0
 19 13  2  0  0  0  0
 20 24  1  0  0  0  0
 21 20  2  0  0  0  0
 21 23  1  0  0  0  0
 22 16  1  0  0  0  0
 23 25  2  0  0  0  0
 24 22  2  0  0  0  0
 25 22  1  0  0  0  0
 26 20  1  0  0  0  0
 29 27  1  6  0  0  0
 29 30  1  0  0  0  0
 30 28  1  1  0  0  0
 30 34  1  0  0  0  0
 31 34  1  0  0  0  0
 32 31  1  0  0  0  0
 33 29  1  0  0  0  0
 33 32  1  0  0  0  0
M  END
>  <MODEL>
7

>  <REMARK>
 VINA RESULT:      -9.7      3.144      4.420
  Name = 
  3 active torsions:
  status: ('A' for Active; 'I' for Inactive)
    1  A    between atoms: C_3  and  C_13
    2  A    between atoms: C_3  and  N_17
    3  A    between atoms: C_12  and  C_28
                            x       y       z     vdW  Elec       q    Type
                         _______ _______ _______ _____ _____    ______ ____

>  <TORSDO>
F 3

$$$$
=
 OpenBabel11052414053D

 34 39  0  0  1  0  0  0  0  0999 V2000
  187.3140  177.9110  145.6140 C   0  0  0  0  0  0  0  0  0  0  0  0
  188.9290  176.8220  144.1650 C   0  0  0  0  0  0  0  0  0  0  0  0
  186.8190  177.8590  143.2140 C   0  0  0  0  0  0  0  0  0  0  0  0
  186.2430  178.1530  140.8760 C   0  0  0  0  0  0  0  0  0  0  0  0
  189.4350  177.1760  146.5110 C   0  0  0  0  0  3  0  0  0  0  0  0
  189.7910  176.6880  145.2560 C   0  0  0  0  0  3  0  0  0  0  0  0
  188.4640  177.8710  141.3660 N   0  0  0  0  0  0  0  0  0  0  0  0
  187.7080  177.5450  144.2960 C   0  0  0  0  0  0  0  0  0  0  0  0
  189.6830  177.9990  139.2470 N   0  0  0  0  0  2  0  0  0  0  0  0
  186.9500  178.2530  139.3580 S   0  0  0  0  0  0  0  0  0  0  0  0
  188.1870  177.7580  146.6930 C   0  0  0  0  0  3  0  0  0  0  0  0
  185.4710  178.2450  143.5130 C   0  0  0  0  0  0  0  0  0  0  0  0
  186.0350  178.3880  145.8700 C   0  0  0  0  0  3  0  0  0  0  0  0
  189.2670  176.1320  143.0080 O   0  0  0  0  0  1  0  0  0  0  0  0
  184.9480  178.3960  141.1660 N   0  0  0  0  0  0  0  0  0  0  0  0
  184.5240  178.4410  142.4610 C   0  0  0  0  0  0  0  0  0  0  0  0
  188.4850  178.0180  140.0190 C   0  0  0  0  0  0  0  0  0  0  0  0
  187.1950  177.9100  141.8490 C   0  0  0  0  0  0  0  0  0  0  0  0
  185.1180  178.5210  144.8380 C   0  0  0  0  0  3  0  0  0  0  0  0
  180.8240  179.1180  141.8880 C   0  0  0  0  0  0  0  0  0  0  0  0
  180.3930  179.3720  143.1920 C   0  0  0  0  0  3  0  0  0  0  0  0
  183.0870  178.7330  142.7000 C   0  0  0  0  0  0  0  0  0  0  0  0
  181.3030  179.3180  144.2500 C   0  0  0  0  0  3  0  0  0  0  0  0
  182.1640  178.8070  141.6440 C   0  0  0  0  0  3  0  0  0  0  0  0
  182.6430  179.0040  144.0040 C   0  0  0  0  0  3  0  0  0  0  0  0
  179.9440  179.1780  140.8600 F   0  0  0  0  0  0  0  0  0  0  0  0
  190.9840  177.7990  139.8640 C   0  0  0  0  0  2  0  0  0  0  0  0
  193.7840  177.1290  140.3320 F   0  0  0  0  0  0  0  0  0  0  0  0
  191.7440  176.7010  139.1410 C   0  0  2  0  0  3  0  0  0  0  0  0
  193.2440  177.0270  139.0620 C   0  0  2  0  0  3  0  0  0  0  0  0
  193.5190  176.1080  137.0150 C   0  0  0  0  0  2  0  0  0  0  0  0
  192.0660  175.6560  136.8790 C   0  0  0  0  0  2  0  0  0  0  0  0
  191.1870  176.5730  137.7240 C   0  0  0  0  0  2  0  0  0  0  0  0
  193.9230  176.0140  138.3580 O   0  0  0  0  0  0  0  0  0  0  0  0
  1 13  1  0  0  0  0
  1 11  2  0  0  0  0
  2  8  2  0  0  0  0
  2  6  1  0  0  0  0
  3 12  1  0  0  0  0
  3  8  1  0  0  0  0
  4 15  2  0  0  0  0
  4 18  1  0  0  0  0
  5 11  1  0  0  0  0
  6  5  2  0  0  0  0
  7 18  1  0  0  0  0
  8  1  1  0  0  0  0
  9 27  1  0  0  0  0
  9 17  1  0  0  0  0
 10 17  1  0  0  0  0
 10  4  1  0  0  0  0
 12 19  1  0  0  0  0
 14  2  1  0  0  0  0
 15 16  1  0  0  0  0
 16 22  1  0  0  0  0
 16 12  2  0  0  0  0
 17  7  2  0  0  0  0
 18  3  2  0  0  0  0
 19 13  2  0  0  0  0
 20 21  1  0  0  0  0
 21 23  2  0  0  0  0
 22 25  2  0  0  0  0
 24 20  2  0  0  0  0
 24 22  1  0  0  0  0
 25 23  1  0  0  0  0
 26 20  1  0  0  0  0
 29 27  1  6  0  0  0
 30 29  1  0  0  0  0
 30 28  1  1  0  0  0
 31 34  1  0  0  0  0
 32 31  1  0  0  0  0
 32 33  1  0  0  0  0
 33 29  1  0  0  0  0
 34 30  1  0  0  0  0
M  END
>  <MODEL>
8

>  <REMARK>
 VINA RESULT:      -9.7      1.344      1.663
  Name = 
  3 active torsions:
  status: ('A' for Active; 'I' for Inactive)
    1  A    between atoms: C_3  and  C_13
    2  A    between atoms: C_3  and  N_17
    3  A    between atoms: C_12  and  C_28
                            x       y       z     vdW  Elec       q    Type
                         _______ _______ _______ _____ _____    ______ ____

>  <TORSDO>
F 3

$$$$
=
 OpenBabel11052414053D

 34 39  0  0  1  0  0  0  0  0999 V2000
  186.8680  177.6100  144.7080 C   0  0  0  0  0  0  0  0  0  0  0  0
  184.9770  179.0820  144.3160 C   0  0  0  0  0  0  0  0  0  0  0  0
  186.4350  178.2960  142.3940 C   0  0  0  0  0  0  0  0  0  0  0  0
  186.0560  178.6310  140.0220 C   0  0  0  0  0  0  0  0  0  0  0  0
  185.3430  178.1200  146.5130 C   0  0  0  0  0  3  0  0  0  0  0  0
  184.6090  178.9340  145.6560 C   0  0  0  0  0  3  0  0  0  0  0  0
  184.2310  178.8170  141.3970 N   0  0  0  0  0  0  0  0  0  0  0  0
  186.0600  178.3260  143.7800 C   0  0  0  0  0  0  0  0  0  0  0  0
  182.3040  179.2890  139.9640 N   0  0  0  0  0  2  0  0  0  0  0  0
  184.8270  178.9590  138.9280 S   0  0  0  0  0  0  0  0  0  0  0  0
  186.4870  177.4840  146.0450 C   0  0  0  0  0  3  0  0  0  0  0  0
  187.7380  177.8160  142.0380 C   0  0  0  0  0  0  0  0  0  0  0  0
  188.0810  177.0560  144.3180 C   0  0  0  0  0  3  0  0  0  0  0  0
  184.3210  180.0640  143.5880 O   0  0  0  0  0  1  0  0  0  0  0  0
  187.3240  178.2930  139.7130 N   0  0  0  0  0  0  0  0  0  0  0  0
  188.1910  177.8920  140.6850 C   0  0  0  0  0  0  0  0  0  0  0  0
  183.6910  179.0390  140.1740 C   0  0  0  0  0  0  0  0  0  0  0  0
  185.5740  178.6230  141.3190 C   0  0  0  0  0  0  0  0  0  0  0  0
  188.5220  177.1860  143.0100 C   0  0  0  0  0  3  0  0  0  0  0  0
  191.0990  176.3830  138.7490 C   0  0  0  0  0  0  0  0  0  0  0  0
  192.1790  176.7590  139.5510 C   0  0  0  0  0  3  0  0  0  0  0  0
  189.5670  177.5170  140.2640 C   0  0  0  0  0  0  0  0  0  0  0  0
  191.9590  177.5040  140.7110 C   0  0  0  0  0  3  0  0  0  0  0  0
  189.8000  176.7550  139.1080 C   0  0  0  0  0  3  0  0  0  0  0  0
  190.6600  177.8760  141.0680 C   0  0  0  0  0  3  0  0  0  0  0  0
  191.3090  175.6540  137.6270 F   0  0  0  0  0  0  0  0  0  0  0  0
  181.3630  179.3410  141.0700 C   0  0  0  0  0  2  0  0  0  0  0  0
  179.8980  177.7720  143.0440 F   0  0  0  0  0  0  0  0  0  0  0  0
  180.1480  178.4820  140.7650 C   0  0  2  0  0  3  0  0  0  0  0  0
  180.0420  177.3060  141.7500 C   0  0  2  0  0  3  0  0  0  0  0  0
  179.2290  175.8600  140.2140 C   0  0  0  0  0  2  0  0  0  0  0  0
  179.2170  176.8760  139.0730 C   0  0  0  0  0  2  0  0  0  0  0  0
  180.2820  177.9330  139.3460 C   0  0  0  0  0  2  0  0  0  0  0  0
  178.9310  176.5040  141.4270 O   0  0  0  0  0  0  0  0  0  0  0  0
  1 11  2  0  0  0  0
  2  6  1  0  0  0  0
  3  8  1  0  0  0  0
  4 18  1  0  0  0  0
  6  5  2  0  0  0  0
  8  2  2  0  0  0  0
  8  1  1  0  0  0  0
  9 17  1  0  0  0  0
  9 27  1  0  0  0  0
 10  4  1  0  0  0  0
 10 17  1  0  0  0  0
 11  5  1  0  0  0  0
 12  3  1  0  0  0  0
 12 19  1  0  0  0  0
 13  1  1  0  0  0  0
 14  2  1  0  0  0  0
 15  4  2  0  0  0  0
 15 16  1  0  0  0  0
 16 12  2  0  0  0  0
 17  7  2  0  0  0  0
 18  7  1  0  0  0  0
 18  3  2  0  0  0  0
 19 13  2  0  0  0  0
 20 24  2  0  0  0  0
 20 21  1  0  0  0  0
 21 23  2  0  0  0  0
 22 16  1  0  0  0  0
 22 25  2  0  0  0  0
 23 25  1  0  0  0  0
 24 22  1  0  0  0  0
 26 20  1  0  0  0  0
 29 27  1  1  0  0  0
 29 30  1  0  0  0  0
 30 28  1  1  0  0  0
 31 34  1  0  0  0  0
 32 33  1  0  0  0  0
 32 31  1  0  0  0  0
 33 29  1  0  0  0  0
 34 30  1  0  0  0  0
M  END
>  <MODEL>
9

>  <REMARK>
 VINA RESULT:      -9.5      2.687      8.191
  Name = 
  3 active torsions:
  status: ('A' for Active; 'I' for Inactive)
    1  A    between atoms: C_3  and  C_13
    2  A    between atoms: C_3  and  N_17
    3  A    between atoms: C_12  and  C_28
                            x       y       z     vdW  Elec       q    Type
                         _______ _______ _______ _____ _____    ______ ____

>  <TORSDO>
F 3

$$$$
