=
 OpenBabel11052412523D

 25 28  0  0  1  0  0  0  0  0999 V2000
  187.7230  177.9100  145.7940 N   0  0  0  0  0  0  0  0  0  0  0  0
  186.7420  177.6210  144.7430 C   0  0  0  0  0  0  0  0  0  0  0  0
  186.0390  178.6410  147.3310 C   0  0  0  0  0  3  0  0  0  0  0  0
  189.0400  177.3790  145.8710 C   0  0  0  0  0  0  0  0  0  0  0  0
  191.5980  176.3680  146.3110 C   0  0  0  0  0  3  0  0  0  0  0  0
  185.1090  178.6960  146.2370 N   0  0  0  0  0  0  0  0  0  0  0  0
  189.6030  177.4390  147.1370 C   0  0  0  0  0  0  0  0  0  0  0  0
  190.8830  176.9330  147.3750 C   0  0  0  0  0  3  0  0  0  0  0  0
  184.4920  178.4820  143.9070 C   0  0  1  0  0  3  0  0  0  0  0  0
  183.0410  178.7270  144.1310 C   0  0  0  0  0  1  0  0  0  0  0  0
  187.2340  178.0040  143.3740 C   0  0  0  0  0  3  0  0  0  0  0  0
  191.0300  176.3060  145.0280 C   0  0  0  0  0  3  0  0  0  0  0  0
  187.3030  178.2900  147.1030 C   0  0  0  0  0  0  0  0  0  0  0  0
  188.5440  178.1550  148.3950 S   0  0  0  0  0  0  0  0  0  0  0  0
  184.9660  178.5020  142.6950 N   0  0  0  0  0  0  0  0  0  0  0  0
  189.7410  176.8090  144.8020 C   0  0  0  0  0  3  0  0  0  0  0  0
  186.3690  178.3420  142.4080 C   0  0  0  0  0  0  0  0  0  0  0  0
  185.4140  178.2850  145.0380 C   0  0  0  0  0  0  0  0  0  0  0  0
  186.8790  178.6600  141.0470 C   0  0  0  0  0  2  0  0  0  0  0  0
  188.3990  178.5460  141.0190 C   0  0  0  0  0  2  0  0  0  0  0  0
  189.1210  178.6460  138.5970 C   0  0  0  0  0  1  0  0  0  0  0  0
  188.9090  177.7580  139.8130 C   0  0  1  0  0  3  0  0  0  0  0  0
  190.1330  176.9600  140.1310 C   0  0  0  0  0  0  0  0  0  0  0  0
  190.5700  175.9560  139.2750 O   0  0  0  0  0  1  0  0  0  0  0  0
  190.8180  177.2230  141.2340 C   0  0  0  0  0  2  0  0  0  0  0  0
  1  4  1  0  0  0  0
  1 13  1  0  0  0  0
  2 18  1  0  0  0  0
  2  1  1  0  0  0  0
  4  7  1  0  0  0  0
  5  8  1  0  0  0  0
  6  3  1  0  0  0  0
  7  8  2  0  0  0  0
  7 14  1  0  0  0  0
  9 10  1  1  0  0  0
  9 18  1  0  0  0  0
 11  2  2  0  0  0  0
 12  5  2  0  0  0  0
 13  3  2  0  0  0  0
 13 14  1  0  0  0  0
 15  9  1  0  0  0  0
 16 12  1  0  0  0  0
 16  4  2  0  0  0  0
 17 15  2  0  0  0  0
 17 11  1  0  0  0  0
 18  6  2  0  0  0  0
 19 17  1  0  0  0  0
 20 19  1  0  0  0  0
 22 21  1  6  0  0  0
 22 23  1  0  0  0  0
 22 20  1  0  0  0  0
 23 25  2  0  0  0  0
 24 23  1  0  0  0  0
M  END
>  <MODEL>
1

>  <REMARK>
 VINA RESULT:      -9.2      0.000      0.000
  Name = 
  4 active torsions:
  status: ('A' for Active; 'I' for Inactive)
    1  A    between atoms: C_2  and  C_25
    2  A    between atoms: C_6  and  C_15
    3  A    between atoms: C_6  and  C_23
    4  A    between atoms: C_15  and  C_25
                            x       y       z     vdW  Elec       q    Type
                         _______ _______ _______ _____ _____    ______ ____

>  <TORSDO>
F 4

$$$$
=
 OpenBabel11052412523D

 25 28  0  0  1  0  0  0  0  0999 V2000
  188.1660  177.7140  145.5590 N   0  0  0  0  0  0  0  0  0  0  0  0
  187.3350  177.4470  144.3810 C   0  0  0  0  0  0  0  0  0  0  0  0
  186.2890  178.3920  146.8790 C   0  0  0  0  0  3  0  0  0  0  0  0
  189.4680  177.1890  145.7940 C   0  0  0  0  0  0  0  0  0  0  0  0
  191.9550  176.1820  146.5410 C   0  0  0  0  0  3  0  0  0  0  0  0
  185.5100  178.4710  145.6750 N   0  0  0  0  0  0  0  0  0  0  0  0
  189.8580  177.2180  147.1240 C   0  0  0  0  0  0  0  0  0  0  0  0
  191.1000  176.7140  147.5160 C   0  0  0  0  0  3  0  0  0  0  0  0
  185.2060  178.3170  143.2790 C   0  0  1  0  0  3  0  0  0  0  0  0
  183.7350  178.5470  143.3160 C   0  0  0  0  0  1  0  0  0  0  0  0
  187.9990  177.8710  143.0990 C   0  0  0  0  0  3  0  0  0  0  0  0
  191.5610  176.1520  145.1930 C   0  0  0  0  0  3  0  0  0  0  0  0
  187.5750  178.0560  146.8100 C   0  0  0  0  0  0  0  0  0  0  0  0
  188.6360  177.8940  148.2510 S   0  0  0  0  0  0  0  0  0  0  0  0
  185.8350  178.3730  142.1400 N   0  0  0  0  0  0  0  0  0  0  0  0
  190.3080  176.6530  144.8130 C   0  0  0  0  0  3  0  0  0  0  0  0
  187.2650  178.2290  142.0360 C   0  0  0  0  0  0  0  0  0  0  0  0
  185.9730  178.0950  144.5160 C   0  0  0  0  0  0  0  0  0  0  0  0
  187.9460  178.5870  140.7630 C   0  0  0  0  0  2  0  0  0  0  0  0
  188.9050  177.4760  140.3530 C   0  0  0  0  0  2  0  0  0  0  0  0
  190.8070  176.7850  138.8350 C   0  0  0  0  0  1  0  0  0  0  0  0
  189.7980  177.8700  139.1770 C   0  0  1  0  0  3  0  0  0  0  0  0
  189.0080  178.2860  137.9770 C   0  0  0  0  0  0  0  0  0  0  0  0
  188.9830  179.6140  137.5680 O   0  0  0  0  0  1  0  0  0  0  0  0
  188.3380  177.3750  137.2870 C   0  0  0  0  0  2  0  0  0  0  0  0
  1  4  1  0  0  0  0
  1 13  1  0  0  0  0
  2 18  1  0  0  0  0
  2  1  1  0  0  0  0
  4  7  1  0  0  0  0
  5  8  1  0  0  0  0
  6  3  1  0  0  0  0
  7  8  2  0  0  0  0
  7 14  1  0  0  0  0
  9 10  1  1  0  0  0
  9 18  1  0  0  0  0
 11  2  2  0  0  0  0
 12  5  2  0  0  0  0
 13  3  2  0  0  0  0
 13 14  1  0  0  0  0
 15  9  1  0  0  0  0
 16 12  1  0  0  0  0
 16  4  2  0  0  0  0
 17 15  2  0  0  0  0
 17 11  1  0  0  0  0
 18  6  2  0  0  0  0
 19 17  1  0  0  0  0
 20 19  1  0  0  0  0
 22 21  1  6  0  0  0
 22 20  1  0  0  0  0
 23 22  1  0  0  0  0
 24 23  1  0  0  0  0
 25 23  2  0  0  0  0
M  END
>  <MODEL>
2

>  <REMARK>
 VINA RESULT:      -8.9      1.205      1.645
  Name = 
  4 active torsions:
  status: ('A' for Active; 'I' for Inactive)
    1  A    between atoms: C_2  and  C_25
    2  A    between atoms: C_6  and  C_15
    3  A    between atoms: C_6  and  C_23
    4  A    between atoms: C_15  and  C_25
                            x       y       z     vdW  Elec       q    Type
                         _______ _______ _______ _____ _____    ______ ____

>  <TORSDO>
F 4

$$$$
=
 OpenBabel11052412523D

 25 28  0  0  1  0  0  0  0  0999 V2000
  186.8050  178.3490  142.7590 N   0  0  0  0  0  0  0  0  0  0  0  0
  187.9560  177.5790  142.2780 C   0  0  0  0  0  0  0  0  0  0  0  0
  186.0260  178.7970  140.5400 C   0  0  0  0  0  3  0  0  0  0  0  0
  186.2420  178.2760  144.0630 C   0  0  0  0  0  0  0  0  0  0  0  0
  184.8850  178.2080  146.4940 C   0  0  0  0  0  3  0  0  0  0  0  0
  187.2970  178.3550  140.0380 N   0  0  0  0  0  0  0  0  0  0  0  0
  184.9390  178.7430  144.1450 C   0  0  0  0  0  0  0  0  0  0  0  0
  184.2430  178.7130  145.3560 C   0  0  0  0  0  3  0  0  0  0  0  0
  189.5580  177.5290  140.2940 C   0  0  1  0  0  3  0  0  0  0  0  0
  189.7990  177.3500  138.8360 C   0  0  0  0  0  1  0  0  0  0  0  0
  189.1990  177.8330  143.0880 C   0  0  0  0  0  3  0  0  0  0  0  0
  186.2050  177.7340  146.4140 C   0  0  0  0  0  3  0  0  0  0  0  0
  185.8080  178.8180  141.8530 C   0  0  0  0  0  0  0  0  0  0  0  0
  184.2490  179.3180  142.5920 S   0  0  0  0  0  0  0  0  0  0  0  0
  190.5600  177.4680  141.1220 N   0  0  0  0  0  0  0  0  0  0  0  0
  186.8910  177.7620  145.1910 C   0  0  0  0  0  3  0  0  0  0  0  0
  190.4130  177.6990  142.5370 C   0  0  0  0  0  0  0  0  0  0  0  0
  188.2150  177.8420  140.8090 C   0  0  0  0  0  0  0  0  0  0  0  0
  191.6240  177.8990  143.3760 C   0  0  0  0  0  2  0  0  0  0  0  0
  191.2230  178.1020  144.8330 C   0  0  0  0  0  2  0  0  0  0  0  0
  191.9680  175.7090  145.1750 C   0  0  0  0  0  1  0  0  0  0  0  0
  190.9660  176.7840  145.5630 C   0  0  1  0  0  3  0  0  0  0  0  0
  190.8930  176.9600  147.0470 C   0  0  0  0  0  0  0  0  0  0  0  0
  192.0270  176.8040  147.8370 O   0  0  0  0  0  1  0  0  0  0  0  0
  189.7400  177.2850  147.6120 C   0  0  0  0  0  2  0  0  0  0  0  0
  1  4  1  0  0  0  0
  2  1  1  0  0  0  0
  2 11  2  0  0  0  0
  3 13  2  0  0  0  0
  4  7  2  0  0  0  0
  4 16  1  0  0  0  0
  6  3  1  0  0  0  0
  6 18  2  0  0  0  0
  7  8  1  0  0  0  0
  8  5  2  0  0  0  0
  9 10  1  6  0  0  0
  9 18  1  0  0  0  0
  9 15  1  0  0  0  0
 12  5  1  0  0  0  0
 13 14  1  0  0  0  0
 13  1  1  0  0  0  0
 14  7  1  0  0  0  0
 15 17  2  0  0  0  0
 16 12  2  0  0  0  0
 17 11  1  0  0  0  0
 17 19  1  0  0  0  0
 18  2  1  0  0  0  0
 19 20  1  0  0  0  0
 20 22  1  0  0  0  0
 22 21  1  1  0  0  0
 22 23  1  0  0  0  0
 23 25  2  0  0  0  0
 23 24  1  0  0  0  0
M  END
>  <MODEL>
3

>  <REMARK>
 VINA RESULT:      -8.6      2.877      5.946
  Name = 
  4 active torsions:
  status: ('A' for Active; 'I' for Inactive)
    1  A    between atoms: C_2  and  C_25
    2  A    between atoms: C_6  and  C_15
    3  A    between atoms: C_6  and  C_23
    4  A    between atoms: C_15  and  C_25
                            x       y       z     vdW  Elec       q    Type
                         _______ _______ _______ _____ _____    ______ ____

>  <TORSDO>
F 4

$$$$
=
 OpenBabel11052412523D

 25 28  0  0  1  0  0  0  0  0999 V2000
  184.3820  178.5260  143.0250 N   0  0  0  0  0  0  0  0  0  0  0  0
  185.6660  178.6860  143.7150 C   0  0  2  0  0  3  0  0  0  0  0  0
  183.1240  178.8820  145.0300 C   0  0  0  0  0  3  0  0  0  0  0  0
  184.1670  178.6620  141.6250 C   0  0  0  0  0  0  0  0  0  0  0  0
  183.4750  179.0110  138.9500 C   0  0  0  0  0  3  0  0  0  0  0  0
  184.3340  178.7050  145.7840 N   0  0  0  0  0  0  0  0  0  0  0  0
  182.8470  178.8990  141.2740 C   0  0  0  0  0  0  0  0  0  0  0  0
  182.4830  179.0790  139.9380 C   0  0  0  0  0  3  0  0  0  0  0  0
  186.7000  178.2450  146.0040 C   0  0  0  0  0  0  0  0  0  0  0  0
  186.7500  178.5080  147.4690 C   0  0  0  0  0  1  0  0  0  0  0  0
  186.7110  177.7240  143.2190 C   0  0  0  0  0  3  0  0  0  0  0  0
  184.8130  178.7720  139.3040 C   0  0  0  0  0  3  0  0  0  0  0  0
  183.1510  178.7640  143.7040 C   0  0  0  0  0  0  0  0  0  0  0  0
  181.7090  178.9960  142.6580 S   0  0  0  0  0  0  0  0  0  0  0  0
  187.7100  177.6690  145.4220 N   0  0  0  0  0  0  0  0  0  0  0  0
  185.1670  178.6000  140.6490 C   0  0  0  0  0  3  0  0  0  0  0  0
  187.7050  177.3210  144.0230 C   0  0  0  0  0  0  0  0  0  0  0  0
  185.4990  178.5650  145.2150 C   0  0  0  0  0  0  0  0  0  0  0  0
  188.7570  176.4160  143.4890 C   0  0  0  0  0  2  0  0  0  0  0  0
  189.7170  177.1980  142.6000 C   0  0  0  0  0  2  0  0  0  0  0  0
  190.8800  179.0070  143.9320 C   0  0  0  0  0  1  0  0  0  0  0  0
  190.9930  177.6140  143.3320 C   0  0  1  0  0  3  0  0  0  0  0  0
  191.4180  176.6070  144.3530 C   0  0  0  0  0  0  0  0  0  0  0  0
  191.8840  175.3560  143.9650 O   0  0  0  0  0  1  0  0  0  0  0  0
  191.3640  176.9170  145.6400 C   0  0  0  0  0  2  0  0  0  0  0  0
  1 13  1  0  0  0  0
  1  2  1  0  0  0  0
  2 11  1  6  0  0  0
  2 18  1  0  0  0  0
  3  6  1  0  0  0  0
  4  1  1  0  0  0  0
  5 12  2  0  0  0  0
  5  8  1  0  0  0  0
  7  4  1  0  0  0  0
  7 14  1  0  0  0  0
  8  7  2  0  0  0  0
  9 10  1  0  0  0  0
 11 17  2  0  0  0  0
 12 16  1  0  0  0  0
 13  3  2  0  0  0  0
 14 13  1  0  0  0  0
 15  9  2  0  0  0  0
 16  4  2  0  0  0  0
 17 15  1  0  0  0  0
 18  6  2  0  0  0  0
 18  9  1  0  0  0  0
 19 17  1  0  0  0  0
 20 22  1  0  0  0  0
 20 19  1  0  0  0  0
 22 21  1  1  0  0  0
 22 23  1  0  0  0  0
 23 25  2  0  0  0  0
 24 23  1  0  0  0  0
M  END
>  <MODEL>
4

>  <REMARK>
 VINA RESULT:      -8.2      2.748      5.786
  Name = 
  4 active torsions:
  status: ('A' for Active; 'I' for Inactive)
    1  A    between atoms: C_2  and  C_25
    2  A    between atoms: C_6  and  C_15
    3  A    between atoms: C_6  and  C_23
    4  A    between atoms: C_15  and  C_25
                            x       y       z     vdW  Elec       q    Type
                         _______ _______ _______ _____ _____    ______ ____

>  <TORSDO>
F 4

$$$$
=
 OpenBabel11052412523D

 25 28  0  0  1  0  0  0  0  0999 V2000
  189.4640  177.6080  143.6460 N   0  0  0  0  0  0  0  0  0  0  0  0
  188.3840  177.2450  144.5690 C   0  0  2  0  0  3  0  0  0  0  0  0
  191.1480  177.3570  145.3290 C   0  0  0  0  0  3  0  0  0  0  0  0
  189.3970  177.5560  142.2260 C   0  0  0  0  0  0  0  0  0  0  0  0
  189.5560  177.4070  139.4490 C   0  0  0  0  0  3  0  0  0  0  0  0
  190.1090  177.3340  146.3210 N   0  0  0  0  0  0  0  0  0  0  0  0
  190.6340  177.5180  141.6010 C   0  0  0  0  0  0  0  0  0  0  0  0
  190.7320  177.4400  140.2110 C   0  0  0  0  0  3  0  0  0  0  0  0
  187.8020  177.4510  147.0430 C   0  0  0  0  0  0  0  0  0  0  0  0
  188.0930  177.1290  148.4680 C   0  0  0  0  0  1  0  0  0  0  0  0
  187.1430  178.0690  144.3570 C   0  0  0  0  0  3  0  0  0  0  0  0
  188.3010  177.4440  140.0800 C   0  0  0  0  0  3  0  0  0  0  0  0
  190.8290  177.5190  144.0460 C   0  0  0  0  0  0  0  0  0  0  0  0
  192.0390  177.5290  142.7180 S   0  0  0  0  0  0  0  0  0  0  0  0
  186.6260  177.9030  146.7150 N   0  0  0  0  0  0  0  0  0  0  0  0
  188.2160  177.5140  141.4780 C   0  0  0  0  0  3  0  0  0  0  0  0
  186.2950  178.3000  145.3700 C   0  0  0  0  0  0  0  0  0  0  0  0
  188.8430  177.3320  146.0090 C   0  0  0  0  0  0  0  0  0  0  0  0
  185.0470  179.0690  145.1190 C   0  0  0  0  0  2  0  0  0  0  0  0
  184.9320  179.4100  143.6380 C   0  0  0  0  0  2  0  0  0  0  0  0
  182.4510  179.0010  143.3690 C   0  0  0  0  0  1  0  0  0  0  0  0
  183.8490  178.5990  142.9280 C   0  0  1  0  0  3  0  0  0  0  0  0
  183.9910  178.6400  141.4390 C   0  0  0  0  0  0  0  0  0  0  0  0
  185.0070  179.3790  140.8430 O   0  0  0  0  0  1  0  0  0  0  0  0
  183.1490  177.9530  140.6820 C   0  0  0  0  0  2  0  0  0  0  0  0
  1 13  1  0  0  0  0
  1  2  1  0  0  0  0
  2 11  1  1  0  0  0
  2 18  1  0  0  0  0
  3  6  1  0  0  0  0
  4  1  1  0  0  0  0
  5 12  2  0  0  0  0
  5  8  1  0  0  0  0
  7  4  1  0  0  0  0
  7 14  1  0  0  0  0
  8  7  2  0  0  0  0
  9 10  1  0  0  0  0
 11 17  2  0  0  0  0
 12 16  1  0  0  0  0
 13  3  2  0  0  0  0
 14 13  1  0  0  0  0
 15  9  2  0  0  0  0
 16  4  2  0  0  0  0
 17 15  1  0  0  0  0
 18  6  2  0  0  0  0
 18  9  1  0  0  0  0
 19 17  1  0  0  0  0
 20 19  1  0  0  0  0
 22 21  1  6  0  0  0
 22 20  1  0  0  0  0
 23 22  1  0  0  0  0
 24 23  1  0  0  0  0
 25 23  2  0  0  0  0
M  END
>  <MODEL>
5

>  <REMARK>
 VINA RESULT:      -8.2      2.437      5.419
  Name = 
  4 active torsions:
  status: ('A' for Active; 'I' for Inactive)
    1  A    between atoms: C_2  and  C_25
    2  A    between atoms: C_6  and  C_15
    3  A    between atoms: C_6  and  C_23
    4  A    between atoms: C_15  and  C_25
                            x       y       z     vdW  Elec       q    Type
                         _______ _______ _______ _____ _____    ______ ____

>  <TORSDO>
F 4

$$$$
=
 OpenBabel11052412523D

 25 28  0  0  1  0  0  0  0  0999 V2000
  189.7220  177.1540  143.2150 N   0  0  0  0  0  0  0  0  0  0  0  0
  189.0350  178.1280  142.3620 C   0  0  0  0  0  0  0  0  0  0  0  0
  191.1070  176.3810  141.4230 C   0  0  0  0  0  3  0  0  0  0  0  0
  189.7840  177.1900  144.6360 C   0  0  0  0  0  0  0  0  0  0  0  0
  190.1630  177.1240  147.3940 C   0  0  0  0  0  3  0  0  0  0  0  0
  190.2410  177.0630  140.5010 N   0  0  0  0  0  0  0  0  0  0  0  0
  190.8210  176.4470  145.1770 C   0  0  0  0  0  0  0  0  0  0  0  0
  191.0270  176.4050  146.5580 C   0  0  0  0  0  3  0  0  0  0  0  0
  188.3040  178.3980  139.9330 C   0  0  1  0  0  3  0  0  0  0  0  0
  188.6470  178.5210  138.4900 C   0  0  0  0  0  1  0  0  0  0  0  0
  187.5630  178.2240  142.6630 C   0  0  0  0  0  3  0  0  0  0  0  0
  189.1120  177.8780  146.8480 C   0  0  0  0  0  3  0  0  0  0  0  0
  190.8320  176.4060  142.7250 C   0  0  0  0  0  0  0  0  0  0  0  0
  191.8600  175.6190  143.9710 S   0  0  0  0  0  0  0  0  0  0  0  0
  187.1190  178.7450  140.3430 N   0  0  0  0  0  0  0  0  0  0  0  0
  188.9190  177.9180  145.4600 C   0  0  0  0  0  3  0  0  0  0  0  0
  186.6940  178.5890  141.7120 C   0  0  0  0  0  0  0  0  0  0  0  0
  189.2600  177.8250  140.8950 C   0  0  0  0  0  0  0  0  0  0  0  0
  185.2530  178.7320  142.0510 C   0  0  0  0  0  2  0  0  0  0  0  0
  184.9530  178.0160  143.3630 C   0  0  0  0  0  2  0  0  0  0  0  0
  183.0590  179.0040  144.7180 C   0  0  0  0  0  1  0  0  0  0  0  0
  184.5610  178.9770  144.4850 C   0  0  1  0  0  3  0  0  0  0  0  0
  185.3110  178.7100  145.7520 C   0  0  0  0  0  0  0  0  0  0  0  0
  185.6730  179.7530  146.5960 O   0  0  0  0  0  1  0  0  0  0  0  0
  185.6180  177.4640  146.0800 C   0  0  0  0  0  2  0  0  0  0  0  0
  1  4  1  0  0  0  0
  2 11  2  0  0  0  0
  2  1  1  0  0  0  0
  3 13  2  0  0  0  0
  4  7  2  0  0  0  0
  4 16  1  0  0  0  0
  6 18  2  0  0  0  0
  6  3  1  0  0  0  0
  7  8  1  0  0  0  0
  8  5  2  0  0  0  0
  9 10  1  6  0  0  0
  9 15  1  0  0  0  0
  9 18  1  0  0  0  0
 12  5  1  0  0  0  0
 13  1  1  0  0  0  0
 13 14  1  0  0  0  0
 14  7  1  0  0  0  0
 15 17  2  0  0  0  0
 16 12  2  0  0  0  0
 17 19  1  0  0  0  0
 17 11  1  0  0  0  0
 18  2  1  0  0  0  0
 19 20  1  0  0  0  0
 20 22  1  0  0  0  0
 22 21  1  1  0  0  0
 22 23  1  0  0  0  0
 23 25  2  0  0  0  0
 23 24  1  0  0  0  0
M  END
>  <MODEL>
6

>  <REMARK>
 VINA RESULT:      -8.2      2.854      5.377
  Name = 
  4 active torsions:
  status: ('A' for Active; 'I' for Inactive)
    1  A    between atoms: C_2  and  C_25
    2  A    between atoms: C_6  and  C_15
    3  A    between atoms: C_6  and  C_23
    4  A    between atoms: C_15  and  C_25
                            x       y       z     vdW  Elec       q    Type
                         _______ _______ _______ _____ _____    ______ ____

>  <TORSDO>
F 4

$$$$
=
 OpenBabel11052412523D

 25 28  0  0  1  0  0  0  0  0999 V2000
  187.1710  178.0220  145.3890 N   0  0  0  0  0  0  0  0  0  0  0  0
  186.0750  177.7680  144.4480 C   0  0  0  0  0  0  0  0  0  0  0  0
  185.6730  178.6350  147.1530 C   0  0  0  0  0  3  0  0  0  0  0  0
  188.4960  177.5170  145.2790 C   0  0  0  0  0  0  0  0  0  0  0  0
  191.1020  176.5380  145.3560 C   0  0  0  0  0  3  0  0  0  0  0  0
  184.6180  178.7280  146.1830 N   0  0  0  0  0  0  0  0  0  0  0  0
  189.2050  177.5210  146.4700 C   0  0  0  0  0  0  0  0  0  0  0  0
  190.5120  177.0320  146.5270 C   0  0  0  0  0  3  0  0  0  0  0  0
  183.7280  178.6240  143.9340 C   0  0  1  0  0  3  0  0  0  0  0  0
  182.3110  178.8260  144.3430 C   0  0  0  0  0  1  0  0  0  0  0  0
  186.3930  178.2330  143.0530 C   0  0  0  0  0  3  0  0  0  0  0  0
  190.3850  176.5320  144.1480 C   0  0  0  0  0  3  0  0  0  0  0  0
  186.9060  178.3240  146.7570 C   0  0  0  0  0  0  0  0  0  0  0  0
  188.2940  178.1480  147.8830 S   0  0  0  0  0  0  0  0  0  0  0  0
  184.0530  178.7180  142.6770 N   0  0  0  0  0  0  0  0  0  0  0  0
  189.0710  177.0190  144.1050 C   0  0  0  0  0  3  0  0  0  0  0  0
  185.4140  178.6030  142.2170 C   0  0  0  0  0  0  0  0  0  0  0  0
  184.7820  178.3880  144.9350 C   0  0  0  0  0  0  0  0  0  0  0  0
  185.7520  179.0030  140.8250 C   0  0  0  0  0  2  0  0  0  0  0  0
  184.4750  179.2060  140.0160 C   0  0  0  0  0  2  0  0  0  0  0  0
  185.9160  178.1610  138.2190 C   0  0  0  0  0  1  0  0  0  0  0  0
  184.4990  178.4650  138.6790 C   0  0  1  0  0  3  0  0  0  0  0  0
  183.6480  177.2350  138.6950 C   0  0  0  0  0  0  0  0  0  0  0  0
  183.7280  176.3030  137.6670 O   0  0  0  0  0  1  0  0  0  0  0  0
  182.8220  177.0240  139.7090 C   0  0  0  0  0  2  0  0  0  0  0  0
  1 13  1  0  0  0  0
  2 18  1  0  0  0  0
  2  1  1  0  0  0  0
  4  1  1  0  0  0  0
  4  7  1  0  0  0  0
  5  8  1  0  0  0  0
  6  3  1  0  0  0  0
  7  8  2  0  0  0  0
  7 14  1  0  0  0  0
  9 10  1  1  0  0  0
  9 18  1  0  0  0  0
 11  2  2  0  0  0  0
 12  5  2  0  0  0  0
 13  3  2  0  0  0  0
 13 14  1  0  0  0  0
 15  9  1  0  0  0  0
 16 12  1  0  0  0  0
 16  4  2  0  0  0  0
 17 15  2  0  0  0  0
 17 11  1  0  0  0  0
 18  6  2  0  0  0  0
 19 17  1  0  0  0  0
 20 19  1  0  0  0  0
 22 21  1  1  0  0  0
 22 23  1  0  0  0  0
 22 20  1  0  0  0  0
 23 25  2  0  0  0  0
 24 23  1  0  0  0  0
M  END
>  <MODEL>
7

>  <REMARK>
 VINA RESULT:      -8.2      2.257      2.981
  Name = 
  4 active torsions:
  status: ('A' for Active; 'I' for Inactive)
    1  A    between atoms: C_2  and  C_25
    2  A    between atoms: C_6  and  C_15
    3  A    between atoms: C_6  and  C_23
    4  A    between atoms: C_15  and  C_25
                            x       y       z     vdW  Elec       q    Type
                         _______ _______ _______ _____ _____    ______ ____

>  <TORSDO>
F 4

$$$$
=
 OpenBabel11052412523D

 25 28  0  0  1  0  0  0  0  0999 V2000
  187.0620  177.8330  145.4050 N   0  0  0  0  0  0  0  0  0  0  0  0
  188.4980  177.8780  145.1130 C   0  0  2  0  0  3  0  0  0  0  0  0
  187.4260  177.6280  147.7620 C   0  0  0  0  0  3  0  0  0  0  0  0
  186.0250  178.2970  144.5490 C   0  0  0  0  0  0  0  0  0  0  0  0
  183.8380  179.2580  143.1170 C   0  0  0  0  0  3  0  0  0  0  0  0
  188.8040  177.3290  147.4920 N   0  0  0  0  0  0  0  0  0  0  0  0
  184.8260  178.5510  145.1980 C   0  0  0  0  0  0  0  0  0  0  0  0
  183.7210  179.0360  144.4950 C   0  0  0  0  0  3  0  0  0  0  0  0
  190.6880  176.9390  146.0230 C   0  0  0  0  0  0  0  0  0  0  0  0
  191.6920  176.8380  147.1190 C   0  0  0  0  0  1  0  0  0  0  0  0
  188.8590  177.1160  143.8660 C   0  0  0  0  0  3  0  0  0  0  0  0
  185.0520  179.0010  142.4570 C   0  0  0  0  0  3  0  0  0  0  0  0
  186.5880  177.8400  146.7490 C   0  0  0  0  0  0  0  0  0  0  0  0
  184.8540  178.2540  146.9670 S   0  0  0  0  0  0  0  0  0  0  0  0
  191.0150  176.5700  144.8180 N   0  0  0  0  0  0  0  0  0  0  0  0
  186.1570  178.5220  143.1750 C   0  0  0  0  0  3  0  0  0  0  0  0
  190.0760  176.5750  143.7240 C   0  0  0  0  0  0  0  0  0  0  0  0
  189.3120  177.3860  146.2920 C   0  0  0  0  0  0  0  0  0  0  0  0
  190.4250  175.8780  142.4580 C   0  0  0  0  0  2  0  0  0  0  0  0
  190.6960  176.8980  141.3570 C   0  0  0  0  0  2  0  0  0  0  0  0
  188.8110  178.2250  140.3170 C   0  0  0  0  0  1  0  0  0  0  0  0
  189.5980  176.9240  140.2940 C   0  0  1  0  0  3  0  0  0  0  0  0
  190.1230  176.6220  138.9270 C   0  0  0  0  0  0  0  0  0  0  0  0
  190.9290  175.5110  138.7050 O   0  0  0  0  0  1  0  0  0  0  0  0
  189.8020  177.4120  137.9130 C   0  0  0  0  0  2  0  0  0  0  0  0
  1 13  1  0  0  0  0
  2 11  1  6  0  0  0
  2  1  1  0  0  0  0
  2 18  1  0  0  0  0
  4  7  1  0  0  0  0
  4  1  1  0  0  0  0
  5  8  1  0  0  0  0
  6  3  1  0  0  0  0
  7 14  1  0  0  0  0
  8  7  2  0  0  0  0
  9 18  1  0  0  0  0
  9 10  1  0  0  0  0
 12  5  2  0  0  0  0
 12 16  1  0  0  0  0
 13 14  1  0  0  0  0
 13  3  2  0  0  0  0
 15  9  2  0  0  0  0
 16  4  2  0  0  0  0
 17 11  2  0  0  0  0
 17 15  1  0  0  0  0
 18  6  2  0  0  0  0
 19 17  1  0  0  0  0
 20 19  1  0  0  0  0
 22 21  1  6  0  0  0
 22 20  1  0  0  0  0
 23 22  1  0  0  0  0
 24 23  1  0  0  0  0
 25 23  2  0  0  0  0
M  END
>  <MODEL>
8

>  <REMARK>
 VINA RESULT:      -8.1      1.519      4.722
  Name = 
  4 active torsions:
  status: ('A' for Active; 'I' for Inactive)
    1  A    between atoms: C_2  and  C_25
    2  A    between atoms: C_6  and  C_15
    3  A    between atoms: C_6  and  C_23
    4  A    between atoms: C_15  and  C_25
                            x       y       z     vdW  Elec       q    Type
                         _______ _______ _______ _____ _____    ______ ____

>  <TORSDO>
F 4

$$$$
=
 OpenBabel11052412523D

 25 28  0  0  1  0  0  0  0  0999 V2000
  186.4870  178.2700  145.0880 N   0  0  0  0  0  0  0  0  0  0  0  0
  186.1320  177.7950  143.7480 C   0  0  0  0  0  0  0  0  0  0  0  0
  184.2560  179.0020  145.5520 C   0  0  0  0  0  3  0  0  0  0  0  0
  187.6260  177.8650  145.8390 C   0  0  0  0  0  0  0  0  0  0  0  0
  189.6970  177.1270  147.5490 C   0  0  0  0  0  3  0  0  0  0  0  0
  183.9550  178.8680  144.1540 N   0  0  0  0  0  0  0  0  0  0  0  0
  187.5190  178.0980  147.2020 C   0  0  0  0  0  0  0  0  0  0  0  0
  188.5460  177.7320  148.0730 C   0  0  0  0  0  3  0  0  0  0  0  0
  184.5230  178.3720  141.8540 C   0  0  1  0  0  3  0  0  0  0  0  0
  183.1320  178.5120  141.3410 C   0  0  0  0  0  1  0  0  0  0  0  0
  187.2030  178.0820  142.7300 C   0  0  0  0  0  3  0  0  0  0  0  0
  189.8070  176.8900  146.1690 C   0  0  0  0  0  3  0  0  0  0  0  0
  185.4860  178.7410  145.9880 C   0  0  0  0  0  0  0  0  0  0  0  0
  185.9690  178.8420  147.7150 S   0  0  0  0  0  0  0  0  0  0  0  0
  185.5140  178.3130  141.0130 N   0  0  0  0  0  0  0  0  0  0  0  0
  188.7660  177.2560  145.3050 C   0  0  0  0  0  3  0  0  0  0  0  0
  186.8900  178.2470  141.4380 C   0  0  0  0  0  0  0  0  0  0  0  0
  184.8030  178.3680  143.3000 C   0  0  0  0  0  0  0  0  0  0  0  0
  187.9740  178.4710  140.4450 C   0  0  0  0  0  2  0  0  0  0  0  0
  189.3350  178.3110  141.1130 C   0  0  0  0  0  2  0  0  0  0  0  0
  190.8010  176.7540  139.7630 C   0  0  0  0  0  1  0  0  0  0  0  0
  189.8970  176.8960  140.9770 C   0  0  1  0  0  3  0  0  0  0  0  0
  190.5740  176.4300  142.2270 C   0  0  0  0  0  0  0  0  0  0  0  0
  190.1790  175.2510  142.8510 O   0  0  0  0  0  1  0  0  0  0  0  0
  191.5700  177.1380  142.7350 C   0  0  0  0  0  2  0  0  0  0  0  0
  1  4  1  0  0  0  0
  1 13  1  0  0  0  0
  2  1  1  0  0  0  0
  3 13  2  0  0  0  0
  4  7  1  0  0  0  0
  5  8  1  0  0  0  0
  6  3  1  0  0  0  0
  7 14  1  0  0  0  0
  7  8  2  0  0  0  0
  9 10  1  6  0  0  0
  9 18  1  0  0  0  0
 11  2  2  0  0  0  0
 12  5  2  0  0  0  0
 13 14  1  0  0  0  0
 15 17  2  0  0  0  0
 15  9  1  0  0  0  0
 16  4  2  0  0  0  0
 16 12  1  0  0  0  0
 17 11  1  0  0  0  0
 18  2  1  0  0  0  0
 18  6  2  0  0  0  0
 19 20  1  0  0  0  0
 19 17  1  0  0  0  0
 22 21  1  6  0  0  0
 22 20  1  0  0  0  0
 22 23  1  0  0  0  0
 23 25  2  0  0  0  0
 23 24  1  0  0  0  0
M  END
>  <MODEL>
9

>  <REMARK>
 VINA RESULT:      -8.0      1.550      2.066
  Name = 
  4 active torsions:
  status: ('A' for Active; 'I' for Inactive)
    1  A    between atoms: C_2  and  C_25
    2  A    between atoms: C_6  and  C_15
    3  A    between atoms: C_6  and  C_23
    4  A    between atoms: C_15  and  C_25
                            x       y       z     vdW  Elec       q    Type
                         _______ _______ _______ _____ _____    ______ ____

>  <TORSDO>
F 4

$$$$
