=
 OpenBabel11052412333D

 30 36  0  0  1  0  0  0  0  0999 V2000
  187.8710  178.5360  141.8630 C   0  0  2  0  0  3  0  0  0  0  0  0
  189.2970  177.0240  140.3050 C   0  0  2  0  0  3  0  0  0  0  0  0
  190.8810  177.1200  144.3190 N   0  0  0  0  0  2  0  0  0  0  0  0
  187.1640  177.3650  142.5890 C   0  0  2  0  0  3  0  0  0  0  0  0
  186.9670  179.0430  140.8360 N   0  0  0  0  0  0  0  0  0  0  0  0
  183.4100  178.2850  142.0250 S   0  0  0  0  0  0  0  0  0  0  0  0
  184.9700  178.8570  145.4710 C   0  0  0  0  0  0  0  0  0  0  0  0
  185.0920  178.8600  142.4130 C   0  0  2  0  0  3  0  0  0  0  0  0
  184.7640  179.4260  140.0570 N   0  0  0  0  0  2  0  0  0  0  0  0
  187.3030  177.8700  145.4480 C   0  0  0  0  0  0  0  0  0  0  0  0
  189.7630  177.2910  145.2090 C   0  0  0  0  0  0  0  0  0  0  0  0
  185.7030  179.1870  141.0880 C   0  0  0  0  0  0  0  0  0  0  0  0
  185.8910  177.8810  143.3060 C   0  0  2  0  0  3  0  0  0  0  0  0
  190.6810  176.3860  140.1360 C   0  0  0  0  0  2  0  0  0  0  0  0
  187.2260  177.7500  146.7830 C   0  0  0  0  0  3  0  0  0  0  0  0
  184.7970  178.2130  146.8100 C   0  0  0  0  0  2  0  0  0  0  0  0
  182.4080  179.2770  139.5180 C   0  0  0  0  0  1  0  0  0  0  0  0
  188.7610  177.4070  138.9390 C   0  0  0  0  0  1  0  0  0  0  0  0
  190.7060  176.9800  142.8850 C   0  0  2  0  0  3  0  0  0  0  0  0
  191.8270  177.2920  140.5980 C   0  0  0  0  0  2  0  0  0  0  0  0
  183.5760  179.0720  140.4140 C   0  0  1  0  0  3  0  0  0  0  0  0
  189.2550  178.2440  141.2560 C   0  0  2  0  0  3  0  0  0  0  0  0
  188.0300  176.5230  143.5270 C   0  0  0  0  0  2  0  0  0  0  0  0
  190.0010  177.5060  146.4270 O   0  0  0  0  0  0  0  0  0  0  0  0
  188.3920  177.2670  144.7300 N   0  0  0  0  0  0  0  0  0  0  0  0
  186.1040  178.3460  147.5760 C   0  0  0  0  0  2  0  0  0  0  0  0
  184.1190  179.6310  145.0660 O   0  0  0  0  0  0  0  0  0  0  0  0
  191.7110  177.7720  142.0570 C   0  0  1  0  0  3  0  0  0  0  0  0
  190.3310  178.3510  142.3500 C   0  0  2  0  0  3  0  0  0  0  0  0
  186.2170  178.5830  144.6490 C   0  0  1  0  0  3  0  0  0  0  0  0
  1  5  1  6  0  0  0
  1  4  1  0  0  0  0
  2 18  1  6  0  0  0
  2 22  1  0  0  0  0
  3 11  1  0  0  0  0
  4 13  1  0  0  0  0
  4 23  1  1  0  0  0
  5 12  2  0  0  0  0
  6  8  1  0  0  0  0
  7 16  1  0  0  0  0
  8 12  1  6  0  0  0
  8 13  1  0  0  0  0
  9 21  1  0  0  0  0
  9 12  1  0  0  0  0
 10 15  2  0  0  0  0
 11 24  2  0  0  0  0
 13 30  1  0  0  0  0
 14  2  1  0  0  0  0
 14 20  1  0  0  0  0
 15 26  1  0  0  0  0
 16 26  1  0  0  0  0
 17 21  1  0  0  0  0
 19  3  1  0  0  0  0
 20 28  1  0  0  0  0
 21  6  1  0  0  0  0
 22  1  1  0  0  0  0
 22 29  1  0  0  0  0
 23 25  1  0  0  0  0
 25 11  1  0  0  0  0
 25 10  1  0  0  0  0
 27  7  2  0  0  0  0
 28 29  1  0  0  0  0
 28 19  1  0  0  0  0
 29 19  1  0  0  0  0
 30 10  1  0  0  0  0
 30  7  1  0  0  0  0
M  END
>  <MODEL>
1

>  <REMARK>
 VINA RESULT:     -10.9      0.000      0.000
  Name = 
  0 active torsions:
  status: ('A' for Active; 'I' for Inactive)
                            x       y       z     vdW  Elec       q    Type
                         _______ _______ _______ _____ _____    ______ ____

>  <TORSDO>
F 0

$$$$
=
 OpenBabel11052412333D

 30 36  0  0  1  0  0  0  0  0999 V2000
  189.0580  178.1560  144.0370 C   0  0  2  0  0  3  0  0  0  0  0  0
  190.3320  176.5920  145.6730 C   0  0  2  0  0  3  0  0  0  0  0  0
  186.6790  178.0910  147.4180 N   0  0  0  0  0  2  0  0  0  0  0  0
  187.9830  177.1110  143.6490 C   0  0  2  0  0  3  0  0  0  0  0  0
  190.0710  178.1740  142.9870 N   0  0  0  0  0  0  0  0  0  0  0  0
  188.3350  177.0760  139.7590 S   0  0  0  0  0  0  0  0  0  0  0  0
  185.3470  178.8630  141.3430 C   0  0  0  0  0  0  0  0  0  0  0  0
  188.2980  178.0580  141.2900 C   0  0  2  0  0  3  0  0  0  0  0  0
  190.6680  177.8840  140.7140 N   0  0  0  0  0  2  0  0  0  0  0  0
  185.3810  178.3920  143.8320 C   0  0  0  0  0  0  0  0  0  0  0  0
  185.7410  178.2720  146.3420 C   0  0  0  0  0  0  0  0  0  0  0  0
  189.7240  178.1260  141.7380 C   0  0  0  0  0  0  0  0  0  0  0  0
  187.2820  177.5390  142.3360 C   0  0  2  0  0  3  0  0  0  0  0  0
  190.4880  176.2210  147.1540 C   0  0  0  0  0  2  0  0  0  0  0  0
  184.0590  178.6280  143.8580 C   0  0  0  0  0  3  0  0  0  0  0  0
  183.8770  178.5880  141.3920 C   0  0  0  0  0  2  0  0  0  0  0  0
  190.8820  177.1280  138.4240 C   0  0  0  0  0  1  0  0  0  0  0  0
  191.6800  176.4740  144.9910 C   0  0  0  0  0  1  0  0  0  0  0  0
  188.0010  177.5340  147.1990 C   0  0  2  0  0  3  0  0  0  0  0  0
  190.4040  177.4280  148.0940 C   0  0  0  0  0  2  0  0  0  0  0  0
  190.1010  177.4120  139.6560 C   0  0  1  0  0  3  0  0  0  0  0  0
  189.7240  177.9910  145.4150 C   0  0  2  0  0  3  0  0  0  0  0  0
  186.9660  176.7460  144.7310 C   0  0  0  0  0  2  0  0  0  0  0  0
  184.6530  178.8540  146.5940 O   0  0  0  0  0  0  0  0  0  0  0  0
  186.0410  177.8460  144.9860 N   0  0  0  0  0  0  0  0  0  0  0  0
  183.3230  179.1820  142.6770 C   0  0  0  0  0  2  0  0  0  0  0  0
  185.8360  179.3130  140.3200 O   0  0  0  0  0  0  0  0  0  0  0  0
  189.1120  178.2540  147.9550 C   0  0  1  0  0  3  0  0  0  0  0  0
  188.8210  178.6040  146.5000 C   0  0  2  0  0  3  0  0  0  0  0  0
  186.2070  178.6300  142.5710 C   0  0  1  0  0  3  0  0  0  0  0  0
  1  5  1  6  0  0  0
  1 22  1  0  0  0  0
  2 18  1  1  0  0  0
  2 14  1  0  0  0  0
  4  1  1  0  0  0  0
  4 23  1  1  0  0  0
  7 16  1  0  0  0  0
  7 30  1  0  0  0  0
  8  6  1  6  0  0  0
  8 12  1  0  0  0  0
  8 13  1  0  0  0  0
  9 12  1  0  0  0  0
 10 15  2  0  0  0  0
 10 25  1  0  0  0  0
 11 24  2  0  0  0  0
 11  3  1  0  0  0  0
 12  5  2  0  0  0  0
 13 30  1  0  0  0  0
 13  4  1  0  0  0  0
 14 20  1  0  0  0  0
 16 26  1  0  0  0  0
 17 21  1  0  0  0  0
 19  3  1  0  0  0  0
 19 28  1  0  0  0  0
 21  6  1  0  0  0  0
 21  9  1  0  0  0  0
 22  2  1  0  0  0  0
 22 29  1  0  0  0  0
 23 25  1  0  0  0  0
 25 11  1  0  0  0  0
 26 15  1  0  0  0  0
 27  7  2  0  0  0  0
 28 20  1  0  0  0  0
 29 19  1  0  0  0  0
 29 28  1  0  0  0  0
 30 10  1  0  0  0  0
M  END
>  <MODEL>
2

>  <REMARK>
 VINA RESULT:     -10.2      2.277      5.028
  Name = 
  0 active torsions:
  status: ('A' for Active; 'I' for Inactive)
                            x       y       z     vdW  Elec       q    Type
                         _______ _______ _______ _____ _____    ______ ____

>  <TORSDO>
F 0

$$$$
=
 OpenBabel11052412333D

 30 36  0  0  1  0  0  0  0  0999 V2000
  185.3170  177.8780  142.4340 C   0  0  2  0  0  3  0  0  0  0  0  0
  185.2940  178.9600  144.7950 C   0  0  2  0  0  3  0  0  0  0  0  0
  189.2640  177.7100  143.6530 N   0  0  0  0  0  2  0  0  0  0  0  0
  185.9230  179.1100  141.7190 C   0  0  2  0  0  3  0  0  0  0  0  0
  183.8740  177.8940  142.2190 N   0  0  0  0  0  0  0  0  0  0  0  0
  183.2700  179.7380  138.9210 S   0  0  0  0  0  0  0  0  0  0  0  0
  186.6190  178.1420  137.9880 C   0  0  0  0  0  0  0  0  0  0  0  0
  184.2420  178.5320  139.8750 C   0  0  2  0  0  3  0  0  0  0  0  0
  182.0110  178.4710  140.8750 N   0  0  0  0  0  2  0  0  0  0  0  0
  188.1070  178.1860  140.0380 C   0  0  0  0  0  0  0  0  0  0  0  0
  189.3520  177.8400  142.2230 C   0  0  0  0  0  0  0  0  0  0  0  0
  183.3870  178.1950  141.0550 C   0  0  0  0  0  0  0  0  0  0  0  0
  185.6800  179.0060  140.1920 C   0  0  2  0  0  3  0  0  0  0  0  0
  186.0700  179.0570  146.1150 C   0  0  0  0  0  2  0  0  0  0  0  0
  189.1720  178.1330  139.2220 C   0  0  0  0  0  3  0  0  0  0  0  0
  187.8110  178.6040  137.2120 C   0  0  0  0  0  2  0  0  0  0  0  0
  180.4380  179.5580  139.3900 C   0  0  0  0  0  1  0  0  0  0  0  0
  183.8070  179.0030  145.0930 C   0  0  0  0  0  1  0  0  0  0  0  0
  188.0790  178.1080  144.3890 C   0  0  2  0  0  3  0  0  0  0  0  0
  186.7200  177.7340  146.5340 C   0  0  0  0  0  2  0  0  0  0  0  0
  181.8110  179.1850  139.8200 C   0  0  1  0  0  3  0  0  0  0  0  0
  185.6290  177.7200  143.9330 C   0  0  2  0  0  3  0  0  0  0  0  0
  187.3860  179.4270  142.0310 C   0  0  0  0  0  2  0  0  0  0  0  0
  190.3720  177.3790  141.6460 O   0  0  0  0  0  0  0  0  0  0  0  0
  188.2830  178.4380  141.4420 N   0  0  0  0  0  0  0  0  0  0  0  0
  189.0390  177.8880  137.7510 C   0  0  0  0  0  2  0  0  0  0  0  0
  185.6110  177.8040  137.3900 O   0  0  0  0  0  0  0  0  0  0  0  0
  187.6660  177.1280  145.4810 C   0  0  1  0  0  3  0  0  0  0  0  0
  187.0120  177.0660  144.1060 C   0  0  2  0  0  3  0  0  0  0  0  0
  186.6850  178.0480  139.5020 C   0  0  1  0  0  3  0  0  0  0  0  0
  1  5  1  1  0  0  0
  1 22  1  0  0  0  0
  2 18  1  1  0  0  0
  2 14  1  0  0  0  0
  3 19  1  0  0  0  0
  4 23  1  6  0  0  0
  4  1  1  0  0  0  0
  6 21  1  0  0  0  0
  7 30  1  0  0  0  0
  8  6  1  1  0  0  0
  8 13  1  0  0  0  0
  8 12  1  0  0  0  0
  9 12  1  0  0  0  0
 10 25  1  0  0  0  0
 11  3  1  0  0  0  0
 12  5  2  0  0  0  0
 13  4  1  0  0  0  0
 14 20  1  0  0  0  0
 15 10  2  0  0  0  0
 16 26  1  0  0  0  0
 16  7  1  0  0  0  0
 17 21  1  0  0  0  0
 19 28  1  0  0  0  0
 21  9  1  0  0  0  0
 22 29  1  0  0  0  0
 22  2  1  0  0  0  0
 24 11  2  0  0  0  0
 25 23  1  0  0  0  0
 25 11  1  0  0  0  0
 26 15  1  0  0  0  0
 27  7  2  0  0  0  0
 28 20  1  0  0  0  0
 29 19  1  0  0  0  0
 29 28  1  0  0  0  0
 30 10  1  0  0  0  0
 30 13  1  0  0  0  0
M  END
>  <MODEL>
3

>  <REMARK>
 VINA RESULT:      -9.1      2.320      5.452
  Name = 
  0 active torsions:
  status: ('A' for Active; 'I' for Inactive)
                            x       y       z     vdW  Elec       q    Type
                         _______ _______ _______ _____ _____    ______ ____

>  <TORSDO>
F 0

$$$$
=
 OpenBabel11052412333D

 30 36  0  0  1  0  0  0  0  0999 V2000
  188.7290  176.8930  141.4160 C   0  0  2  0  0  3  0  0  0  0  0  0
  190.2030  177.7620  139.4610 C   0  0  2  0  0  3  0  0  0  0  0  0
  186.0070  178.4510  138.7220 N   0  0  0  0  0  2  0  0  0  0  0  0
  188.4520  178.2930  142.0180 C   0  0  2  0  0  3  0  0  0  0  0  0
  189.8040  176.2750  142.1850 N   0  0  0  0  0  0  0  0  0  0  0  0
  189.6560  177.7820  145.6990 S   0  0  0  0  0  0  0  0  0  0  0  0
  185.9030  177.8780  144.9620 C   0  0  0  0  0  0  0  0  0  0  0  0
  188.7780  177.0980  144.2600 C   0  0  2  0  0  3  0  0  0  0  0  0
  190.9700  176.0140  144.2300 N   0  0  0  0  0  2  0  0  0  0  0  0
  185.5990  178.5010  142.5250 C   0  0  0  0  0  0  0  0  0  0  0  0
  185.3830  178.6620  140.0020 C   0  0  0  0  0  0  0  0  0  0  0  0
  189.8260  176.3720  143.4780 C   0  0  0  0  0  0  0  0  0  0  0  0
  187.9550  178.1500  143.4780 C   0  0  2  0  0  3  0  0  0  0  0  0
  190.1810  178.1430  137.9760 C   0  0  0  0  0  2  0  0  0  0  0  0
  184.3740  178.9580  142.8330 C   0  0  0  0  0  3  0  0  0  0  0  0
  184.8090  178.8510  145.2650 C   0  0  0  0  0  2  0  0  0  0  0  0
  192.0560  176.3440  146.3680 C   0  0  0  0  0  1  0  0  0  0  0  0
  191.5420  177.1280  139.7870 C   0  0  0  0  0  1  0  0  0  0  0  0
  187.4380  178.2530  138.5900 C   0  0  2  0  0  3  0  0  0  0  0  0
  189.2860  177.2330  137.1290 C   0  0  0  0  0  2  0  0  0  0  0  0
  190.9790  176.6040  145.3770 C   0  0  1  0  0  3  0  0  0  0  0  0
  189.0500  176.8340  139.9120 C   0  0  2  0  0  3  0  0  0  0  0  0
  187.5430  179.2150  141.2060 C   0  0  0  0  0  2  0  0  0  0  0  0
  184.1260  178.7250  140.0460 O   0  0  0  0  0  0  0  0  0  0  0  0
  186.1590  178.7520  141.2260 N   0  0  0  0  0  0  0  0  0  0  0  0
  183.7530  178.7360  144.1780 C   0  0  0  0  0  2  0  0  0  0  0  0
  186.3180  177.1500  145.8490 O   0  0  0  0  0  0  0  0  0  0  0  0
  187.8250  177.1510  137.6110 C   0  0  1  0  0  3  0  0  0  0  0  0
  187.7400  176.8570  139.1040 C   0  0  2  0  0  3  0  0  0  0  0  0
  186.4550  177.7660  143.5530 C   0  0  1  0  0  3  0  0  0  0  0  0
  1  4  1  0  0  0  0
  1  5  1  1  0  0  0
  2 18  1  6  0  0  0
  2 22  1  0  0  0  0
  3 11  1  0  0  0  0
  4 23  1  6  0  0  0
  4 13  1  0  0  0  0
  5 12  2  0  0  0  0
  7 16  1  0  0  0  0
  7 27  2  0  0  0  0
  8 12  1  6  0  0  0
  8  6  1  0  0  0  0
  9 21  1  0  0  0  0
 10 15  2  0  0  0  0
 10 30  1  0  0  0  0
 11 24  2  0  0  0  0
 11 25  1  0  0  0  0
 12  9  1  0  0  0  0
 13 30  1  0  0  0  0
 13  8  1  0  0  0  0
 14  2  1  0  0  0  0
 15 26  1  0  0  0  0
 19  3  1  0  0  0  0
 19 29  1  0  0  0  0
 20 28  1  0  0  0  0
 20 14  1  0  0  0  0
 21  6  1  0  0  0  0
 21 17  1  0  0  0  0
 22  1  1  0  0  0  0
 23 25  1  0  0  0  0
 25 10  1  0  0  0  0
 26 16  1  0  0  0  0
 28 19  1  0  0  0  0
 28 29  1  0  0  0  0
 29 22  1  0  0  0  0
 30  7  1  0  0  0  0
M  END
>  <MODEL>
4

>  <REMARK>
 VINA RESULT:      -8.8      2.215      5.313
  Name = 
  0 active torsions:
  status: ('A' for Active; 'I' for Inactive)
                            x       y       z     vdW  Elec       q    Type
                         _______ _______ _______ _____ _____    ______ ____

>  <TORSDO>
F 0

$$$$
=
 OpenBabel11052412333D

 30 36  0  0  1  0  0  0  0  0999 V2000
  187.5680  177.3210  143.5670 C   0  0  2  0  0  3  0  0  0  0  0  0
  185.9180  179.3040  143.2640 C   0  0  2  0  0  3  0  0  0  0  0  0
  186.3130  178.1770  147.4110 N   0  0  0  0  0  2  0  0  0  0  0  0
  188.7370  178.1870  144.0960 C   0  0  2  0  0  3  0  0  0  0  0  0
  187.8000  177.0670  142.1480 N   0  0  0  0  0  0  0  0  0  0  0  0
  191.5840  177.2190  141.6040 S   0  0  0  0  0  0  0  0  0  0  0  0
  191.6530  175.7980  145.1550 C   0  0  0  0  0  0  0  0  0  0  0  0
  190.1780  176.6710  142.6200 C   0  0  2  0  0  3  0  0  0  0  0  0
  189.3000  176.7760  140.3400 N   0  0  0  0  0  2  0  0  0  0  0  0
  189.7970  176.9030  146.4780 C   0  0  0  0  0  0  0  0  0  0  0  0
  187.6540  177.6870  147.5900 C   0  0  0  0  0  0  0  0  0  0  0  0
  188.9880  176.7750  141.7200 C   0  0  0  0  0  0  0  0  0  0  0  0
  190.0690  177.4060  143.9770 C   0  0  2  0  0  3  0  0  0  0  0  0
  184.7570  180.0540  143.9290 C   0  0  0  0  0  2  0  0  0  0  0  0
  190.4850  176.6330  147.5990 C   0  0  0  0  0  3  0  0  0  0  0  0
  192.5280  176.0210  146.3480 C   0  0  0  0  0  2  0  0  0  0  0  0
  191.1440  176.9160  138.7780 C   0  0  0  0  0  1  0  0  0  0  0  0
  185.7010  179.2900  141.7630 C   0  0  0  0  0  1  0  0  0  0  0  0
  185.8510  178.7060  146.1420 C   0  0  2  0  0  3  0  0  0  0  0  0
  183.7880  179.1320  144.6760 C   0  0  0  0  0  2  0  0  0  0  0  0
  190.5660  176.9340  140.1470 C   0  0  1  0  0  3  0  0  0  0  0  0
  186.1450  177.8640  143.7830 C   0  0  2  0  0  3  0  0  0  0  0  0
  188.5630  178.7840  145.4940 C   0  0  0  0  0  2  0  0  0  0  0  0
  187.9490  177.1510  148.6900 O   0  0  0  0  0  0  0  0  0  0  0  0
  188.6410  177.7550  146.5260 N   0  0  0  0  0  0  0  0  0  0  0  0
  191.7040  175.7630  147.5990 C   0  0  0  0  0  2  0  0  0  0  0  0
  192.0660  175.1150  144.2320 O   0  0  0  0  0  0  0  0  0  0  0  0
  184.4500  178.2510  145.7520 C   0  0  1  0  0  3  0  0  0  0  0  0
  185.6740  177.5230  145.2090 C   0  0  2  0  0  3  0  0  0  0  0  0
  190.2500  176.3750  145.1200 C   0  0  1  0  0  3  0  0  0  0  0  0
  1  5  1  6  0  0  0
  1 22  1  0  0  0  0
  1  4  1  0  0  0  0
  2 18  1  6  0  0  0
  2 22  1  0  0  0  0
  2 14  1  0  0  0  0
  3 11  1  0  0  0  0
  4 23  1  1  0  0  0
  7 16  1  0  0  0  0
  8  6  1  6  0  0  0
  8 13  1  0  0  0  0
  9 12  1  0  0  0  0
 10 25  1  0  0  0  0
 10 15  2  0  0  0  0
 11 24  2  0  0  0  0
 12  5  2  0  0  0  0
 12  8  1  0  0  0  0
 13  4  1  0  0  0  0
 13 30  1  0  0  0  0
 14 20  1  0  0  0  0
 15 26  1  0  0  0  0
 16 26  1  0  0  0  0
 17 21  1  0  0  0  0
 19  3  1  0  0  0  0
 20 28  1  0  0  0  0
 21  9  1  0  0  0  0
 21  6  1  0  0  0  0
 22 29  1  0  0  0  0
 23 25  1  0  0  0  0
 25 11  1  0  0  0  0
 27  7  2  0  0  0  0
 28 19  1  0  0  0  0
 29 28  1  0  0  0  0
 29 19  1  0  0  0  0
 30  7  1  0  0  0  0
 30 10  1  0  0  0  0
M  END
>  <MODEL>
5

>  <REMARK>
 VINA RESULT:      -8.7      2.643      5.789
  Name = 
  0 active torsions:
  status: ('A' for Active; 'I' for Inactive)
                            x       y       z     vdW  Elec       q    Type
                         _______ _______ _______ _____ _____    ______ ____

>  <TORSDO>
F 0

$$$$
=
 OpenBabel11052412333D

 30 36  0  0  1  0  0  0  0  0999 V2000
  188.1170  178.1930  145.0070 C   0  0  2  0  0  3  0  0  0  0  0  0
  185.9220  177.5030  146.2130 C   0  0  2  0  0  3  0  0  0  0  0  0
  185.1660  178.9000  142.2000 N   0  0  0  0  0  2  0  0  0  0  0  0
  188.2040  176.9210  144.1290 C   0  0  2  0  0  3  0  0  0  0  0  0
  189.0080  178.0160  146.1500 N   0  0  0  0  0  0  0  0  0  0  0  0
  191.7770  175.6250  145.0280 S   0  0  0  0  0  0  0  0  0  0  0  0
  191.2120  177.3410  141.6570 C   0  0  0  0  0  0  0  0  0  0  0  0
  190.7050  177.0480  144.6600 C   0  0  2  0  0  3  0  0  0  0  0  0
  190.9640  177.0710  147.0920 N   0  0  0  0  0  2  0  0  0  0  0  0
  188.7260  177.7540  141.3950 C   0  0  0  0  0  0  0  0  0  0  0  0
  186.3160  178.5520  141.4080 C   0  0  0  0  0  0  0  0  0  0  0  0
  190.1830  177.4920  145.9900 C   0  0  0  0  0  0  0  0  0  0  0  0
  189.6410  176.7590  143.5750 C   0  0  2  0  0  3  0  0  0  0  0  0
  184.3990  177.6860  146.2010 C   0  0  0  0  0  2  0  0  0  0  0  0
  188.9060  177.7700  140.0640 C   0  0  0  0  0  3  0  0  0  0  0  0
  191.2010  176.8670  140.2380 C   0  0  0  0  0  2  0  0  0  0  0  0
  192.8050  175.6280  147.7150 C   0  0  0  0  0  1  0  0  0  0  0  0
  186.3930  177.3780  147.6490 C   0  0  0  0  0  1  0  0  0  0  0  0
  185.0510  178.5210  143.5950 C   0  0  2  0  0  3  0  0  0  0  0  0
  183.9630  179.1110  145.8430 C   0  0  0  0  0  2  0  0  0  0  0  0
  191.8310  176.1840  146.7390 C   0  0  1  0  0  3  0  0  0  0  0  0
  186.7170  178.6150  145.4860 C   0  0  2  0  0  3  0  0  0  0  0  0
  187.1600  176.7870  143.0200 C   0  0  0  0  0  2  0  0  0  0  0  0
  186.3880  179.0030  140.2350 O   0  0  0  0  0  0  0  0  0  0  0  0
  187.3980  177.7450  141.9440 N   0  0  0  0  0  0  0  0  0  0  0  0
  190.2680  177.7650  139.4410 C   0  0  0  0  0  2  0  0  0  0  0  0
  192.2790  177.4890  142.2290 O   0  0  0  0  0  0  0  0  0  0  0  0
  184.5030  179.6220  144.4950 C   0  0  1  0  0  3  0  0  0  0  0  0
  186.0070  179.4070  144.3730 C   0  0  2  0  0  3  0  0  0  0  0  0
  189.9080  177.6790  142.3560 C   0  0  1  0  0  3  0  0  0  0  0  0
  1 22  1  0  0  0  0
  1  5  1  1  0  0  0
  2 18  1  1  0  0  0
  3 19  1  0  0  0  0
  4 23  1  6  0  0  0
  4  1  1  0  0  0  0
  6 21  1  0  0  0  0
  7 27  2  0  0  0  0
  7 30  1  0  0  0  0
  8  6  1  1  0  0  0
  8 12  1  0  0  0  0
 10 25  1  0  0  0  0
 10 30  1  0  0  0  0
 11 25  1  0  0  0  0
 11  3  1  0  0  0  0
 12  5  2  0  0  0  0
 12  9  1  0  0  0  0
 13  4  1  0  0  0  0
 13  8  1  0  0  0  0
 14  2  1  0  0  0  0
 15 10  2  0  0  0  0
 16  7  1  0  0  0  0
 19 29  1  0  0  0  0
 19 28  1  0  0  0  0
 20 14  1  0  0  0  0
 21  9  1  0  0  0  0
 21 17  1  0  0  0  0
 22  2  1  0  0  0  0
 24 11  2  0  0  0  0
 25 23  1  0  0  0  0
 26 15  1  0  0  0  0
 26 16  1  0  0  0  0
 28 20  1  0  0  0  0
 29 28  1  0  0  0  0
 29 22  1  0  0  0  0
 30 13  1  0  0  0  0
M  END
>  <MODEL>
6

>  <REMARK>
 VINA RESULT:      -8.2      2.612      7.303
  Name = 
  0 active torsions:
  status: ('A' for Active; 'I' for Inactive)
                            x       y       z     vdW  Elec       q    Type
                         _______ _______ _______ _____ _____    ______ ____

>  <TORSDO>
F 0

$$$$
=
 OpenBabel11052412333D

 30 36  0  0  1  0  0  0  0  0999 V2000
  188.1050  177.1150  142.8570 C   0  0  2  0  0  3  0  0  0  0  0  0
  189.5290  177.8010  144.9180 C   0  0  2  0  0  3  0  0  0  0  0  0
  192.0070  176.7990  141.5300 N   0  0  0  0  0  2  0  0  0  0  0  0
  188.2920  178.4540  142.1020 C   0  0  2  0  0  3  0  0  0  0  0  0
  186.8060  177.1490  143.5220 N   0  0  0  0  0  0  0  0  0  0  0  0
  184.5800  179.4940  141.4760 S   0  0  0  0  0  0  0  0  0  0  0  0
  186.6420  178.1090  138.5670 C   0  0  0  0  0  0  0  0  0  0  0  0
  185.8180  178.1610  141.5130 C   0  0  2  0  0  3  0  0  0  0  0  0
  184.5660  177.9130  143.5990 N   0  0  0  0  0  2  0  0  0  0  0  0
  189.0340  177.8390  139.3600 C   0  0  0  0  0  0  0  0  0  0  0  0
  191.2710  177.1600  140.3470 C   0  0  0  0  0  0  0  0  0  0  0  0
  185.7680  177.6280  142.9100 C   0  0  0  0  0  0  0  0  0  0  0  0
  187.2120  178.5950  141.0010 C   0  0  2  0  0  3  0  0  0  0  0  0
  190.9250  177.6930  145.5430 C   0  0  0  0  0  2  0  0  0  0  0  0
  189.4300  177.9320  138.0810 C   0  0  0  0  0  3  0  0  0  0  0  0
  187.2090  178.7050  137.3170 C   0  0  0  0  0  2  0  0  0  0  0  0
  182.5240  179.2070  143.4670 C   0  0  0  0  0  1  0  0  0  0  0  0
  188.4910  177.7780  146.0240 C   0  0  0  0  0  1  0  0  0  0  0  0
  191.4960  177.0590  142.8620 C   0  0  2  0  0  3  0  0  0  0  0  0
  191.5850  176.3280  145.3200 C   0  0  0  0  0  2  0  0  0  0  0  0
  183.8580  178.7850  142.9660 C   0  0  1  0  0  3  0  0  0  0  0  0
  189.2040  176.7210  143.8590 C   0  0  2  0  0  3  0  0  0  0  0  0
  189.6910  178.7340  141.5500 C   0  0  0  0  0  2  0  0  0  0  0  0
  191.7340  176.8110  139.2300 O   0  0  0  0  0  0  0  0  0  0  0  0
  190.0030  177.8640  140.4210 N   0  0  0  0  0  0  0  0  0  0  0  0
  188.4590  177.9260  136.9400 C   0  0  0  0  0  2  0  0  0  0  0  0
  185.4490  177.8610  138.6230 O   0  0  0  0  0  0  0  0  0  0  0  0
  191.7020  175.9110  143.8430 C   0  0  1  0  0  3  0  0  0  0  0  0
  190.3760  176.0640  143.1070 C   0  0  2  0  0  3  0  0  0  0  0  0
  187.5550  177.7730  139.7320 C   0  0  1  0  0  3  0  0  0  0  0  0
  1  5  1  1  0  0  0
  1 22  1  0  0  0  0
  2 14  1  0  0  0  0
  2 18  1  1  0  0  0
  3 19  1  0  0  0  0
  4 23  1  6  0  0  0
  4  1  1  0  0  0  0
  6 21  1  0  0  0  0
  7 27  2  0  0  0  0
  7 30  1  0  0  0  0
  8  6  1  1  0  0  0
  8 12  1  0  0  0  0
 10 30  1  0  0  0  0
 10 25  1  0  0  0  0
 11 25  1  0  0  0  0
 11  3  1  0  0  0  0
 12  5  2  0  0  0  0
 12  9  1  0  0  0  0
 13  8  1  0  0  0  0
 13  4  1  0  0  0  0
 15 10  2  0  0  0  0
 16  7  1  0  0  0  0
 19 29  1  0  0  0  0
 19 28  1  0  0  0  0
 20 14  1  0  0  0  0
 21 17  1  0  0  0  0
 21  9  1  0  0  0  0
 22  2  1  0  0  0  0
 24 11  2  0  0  0  0
 25 23  1  0  0  0  0
 26 16  1  0  0  0  0
 26 15  1  0  0  0  0
 28 20  1  0  0  0  0
 29 28  1  0  0  0  0
 29 22  1  0  0  0  0
 30 13  1  0  0  0  0
M  END
>  <MODEL>
7

>  <REMARK>
 VINA RESULT:      -7.9      2.682      5.177
  Name = 
  0 active torsions:
  status: ('A' for Active; 'I' for Inactive)
                            x       y       z     vdW  Elec       q    Type
                         _______ _______ _______ _____ _____    ______ ____

>  <TORSDO>
F 0

$$$$
