=
 OpenBabel11052415293D

 37 42  0  0  1  0  0  0  0  0999 V2000
  191.0230  176.2350  144.7530 C   0  0  0  0  0  2  0  0  0  0  0  0
  186.9480  177.3180  144.3070 C   0  0  1  0  0  3  0  0  0  0  0  0
  185.7240  179.4270  141.8920 C   0  0  1  0  0  3  0  0  0  0  0  0
  189.2870  178.0920  145.1010 C   0  0  1  0  0  3  0  0  0  0  0  0
  186.3810  177.3130  142.8640 C   0  0  1  0  0  3  0  0  0  0  0  0
  188.4430  177.3680  144.0620 C   0  0  2  0  0  3  0  0  0  0  0  0
  185.1800  178.1720  142.5220 C   0  0  1  0  0  3  0  0  0  0  0  0
  188.7360  177.8220  146.4860 C   0  0  0  0  0  2  0  0  0  0  0  0
  188.6060  178.0380  142.7320 C   0  0  1  0  0  3  0  0  0  0  0  0
  190.3920  176.2650  142.2210 C   0  0  0  0  0  3  0  0  0  0  0  0
  185.0470  178.2800  145.6740 C   0  0  0  0  0  2  0  0  0  0  0  0
  187.3150  178.3940  146.6040 C   0  0  0  0  0  2  0  0  0  0  0  0
  189.9440  177.6960  142.0620 C   0  0  0  0  0  2  0  0  0  0  0  0
  186.0310  180.3800  142.8640 O   0  0  0  0  0  1  0  0  0  0  0  0
  186.5050  178.4270  145.2890 C   0  0  1  0  0  3  0  0  0  0  0  0
  187.4480  177.6970  141.9220 N   0  0  2  0  0  0  0  0  0  0  0  0
  190.7710  177.7340  144.9520 C   0  0  0  0  0  2  0  0  0  0  0  0
  183.9590  178.2130  143.4480 C   0  0  1  0  0  3  0  0  0  0  0  0
  190.8530  175.6800  143.3470 C   0  0  0  0  0  3  0  0  0  0  0  0
  187.0170  178.9350  141.2530 C   0  0  1  0  0  3  0  0  0  0  0  0
  184.1640  179.0330  144.7070 C   0  0  0  0  0  2  0  0  0  0  0  0
  182.6520  178.5690  141.3100 C   0  0  0  0  0  3  0  0  0  0  0  0
  182.7250  178.6340  142.7100 C   0  0  0  0  0  0  0  0  0  0  0  0
  181.6170  179.0770  143.4390 C   0  0  0  0  0  3  0  0  0  0  0  0
  179.2740  179.9330  143.5570 C   0  0  0  0  0  1  0  0  0  0  0  0
  180.3790  179.3990  141.3820 C   0  0  0  0  0  3  0  0  0  0  0  0
  180.4460  179.4610  142.7770 C   0  0  0  0  0  0  0  0  0  0  0  0
  181.4830  178.9520  140.6480 C   0  0  0  0  0  3  0  0  0  0  0  0
  186.7950  178.6730  139.8970 O   0  0  0  0  0  0  0  0  0  0  0  0
  187.8720  177.8770  139.4890 C   0  0  2  0  0  3  0  0  0  0  0  0
  189.0340  178.7490  139.0170 C   0  0  0  0  0  2  0  0  0  0  0  0
  190.0710  177.9520  138.2400 C   0  0  0  0  0  1  0  0  0  0  0  0
  187.4340  176.9220  138.3860 C   0  0  0  0  0  2  0  0  0  0  0  0
  186.8320  177.9040  136.1340 C   0  0  0  0  0  1  0  0  0  0  0  0
  186.3340  177.5500  137.5300 C   0  0  1  0  0  3  0  0  0  0  0  0
  184.0630  177.6370  137.8760 C   0  0  0  0  0  1  0  0  0  0  0  0
  185.1340  176.8020  137.5160 O   0  0  0  0  0  0  0  0  0  0  0  0
  1 17  1  0  0  0  0
  2 15  1  0  0  0  0
  3  7  1  0  0  0  0
  3 14  1  0  0  0  0
  4  8  1  0  0  0  0
  5  2  1  0  0  0  0
  6  2  1  0  0  0  0
  6  4  1  0  0  0  0
  7  5  1  0  0  0  0
  7 18  1  0  0  0  0
  8 12  1  0  0  0  0
  9  6  1  0  0  0  0
 10 19  2  0  0  0  0
 13 10  1  0  0  0  0
 13  9  1  0  0  0  0
 15 11  1  0  0  0  0
 15 12  1  0  0  0  0
 16  9  1  0  0  0  0
 16  5  1  0  0  0  0
 17  4  1  0  0  0  0
 18 21  1  0  0  0  0
 19  1  1  0  0  0  0
 20  3  1  0  0  0  0
 20 16  1  0  0  0  0
 21 11  1  0  0  0  0
 22 23  1  0  0  0  0
 23 24  2  0  0  0  0
 23 18  1  0  0  0  0
 26 27  2  0  0  0  0
 27 24  1  0  0  0  0
 27 25  1  0  0  0  0
 28 22  2  0  0  0  0
 28 26  1  0  0  0  0
 29 20  1  0  0  0  0
 30 29  1  0  0  0  0
 31 30  1  0  0  0  0
 32 31  1  0  0  0  0
 33 30  1  0  0  0  0
 34 35  1  0  0  0  0
 35 33  1  0  0  0  0
 37 35  1  0  0  0  0
 37 36  1  0  0  0  0
M  END
>  <MODEL>
1

>  <REMARK>
 VINA RESULT:      -8.8      0.000      0.000
  Name = 
  7 active torsions:
  status: ('A' for Active; 'I' for Inactive)
    1  A    between atoms: C_5  and  C_17
    2  A    between atoms: C_5  and  O_23
    3  A    between atoms: C_6  and  C_31
    4  A    between atoms: C_11  and  C_26
    5  A    between atoms: C_17  and  C_26
    6  A    between atoms: C_26  and  O_33
    7  A    between atoms: O_33  and  C_36
                            x       y       z     vdW  Elec       q    Type
                         _______ _______ _______ _____ _____    ______ ____

>  <TORSDO>
F 7

$$$$
=
 OpenBabel11052415293D

 37 42  0  0  1  0  0  0  0  0999 V2000
  191.3300  176.3630  145.1830 C   0  0  0  0  0  2  0  0  0  0  0  0
  187.2850  177.3020  144.3270 C   0  0  1  0  0  3  0  0  0  0  0  0
  186.2250  179.2180  141.6840 C   0  0  1  0  0  3  0  0  0  0  0  0
  189.5290  178.1900  145.2610 C   0  0  1  0  0  3  0  0  0  0  0  0
  186.8430  177.1890  142.8450 C   0  0  1  0  0  3  0  0  0  0  0  0
  188.7930  177.3780  144.2060 C   0  0  2  0  0  3  0  0  0  0  0  0
  185.6570  177.9910  142.3480 C   0  0  1  0  0  3  0  0  0  0  0  0
  188.8680  177.9930  146.6100 C   0  0  0  0  0  2  0  0  0  0  0  0
  189.0550  177.9660  142.8530 C   0  0  1  0  0  3  0  0  0  0  0  0
  190.9170  176.2140  142.6100 C   0  0  0  0  0  3  0  0  0  0  0  0
  185.2530  178.2950  145.4630 C   0  0  0  0  0  2  0  0  0  0  0  0
  187.4300  178.5320  146.5710 C   0  0  0  0  0  2  0  0  0  0  0  0
  190.4520  177.6190  142.3210 C   0  0  0  0  0  2  0  0  0  0  0  0
  186.4260  180.2390  142.6150 O   0  0  0  0  0  1  0  0  0  0  0  0
  186.7350  178.4580  145.1930 C   0  0  1  0  0  3  0  0  0  0  0  0
  187.9780  177.5420  141.9730 N   0  0  2  0  0  0  0  0  0  0  0  0
  191.0280  177.8640  145.2610 C   0  0  0  0  0  2  0  0  0  0  0  0
  184.3610  178.0560  143.1630 C   0  0  1  0  0  3  0  0  0  0  0  0
  191.2930  175.7150  143.8070 C   0  0  0  0  0  3  0  0  0  0  0  0
  187.5780  178.7220  141.1900 C   0  0  1  0  0  3  0  0  0  0  0  0
  184.4390  178.9610  144.3790 C   0  0  0  0  0  2  0  0  0  0  0  0
  183.1610  178.0630  140.9350 C   0  0  0  0  0  3  0  0  0  0  0  0
  183.1850  178.3950  142.2990 C   0  0  0  0  0  0  0  0  0  0  0  0
  182.0820  179.0340  142.8740 C   0  0  0  0  0  3  0  0  0  0  0  0
  179.7970  180.0280  142.7100 C   0  0  0  0  0  1  0  0  0  0  0  0
  180.9460  179.0190  140.7350 C   0  0  0  0  0  3  0  0  0  0  0  0
  180.9640  179.3480  142.0940 C   0  0  0  0  0  0  0  0  0  0  0  0
  182.0440  178.3760  140.1560 C   0  0  0  0  0  3  0  0  0  0  0  0
  187.4780  178.3690  139.8410 O   0  0  0  0  0  0  0  0  0  0  0  0
  188.7960  178.3290  139.3660 C   0  0  2  0  0  3  0  0  0  0  0  0
  188.9300  179.1540  138.0880 C   0  0  0  0  0  2  0  0  0  0  0  0
  187.8370  178.8350  137.0810 C   0  0  0  0  0  1  0  0  0  0  0  0
  189.2270  176.8890  139.1250 C   0  0  0  0  0  2  0  0  0  0  0  0
  191.7540  176.8050  139.0200 C   0  0  0  0  0  1  0  0  0  0  0  0
  190.4570  176.8350  138.2190 C   0  0  1  0  0  3  0  0  0  0  0  0
  189.0750  175.3310  137.1650 C   0  0  0  0  0  1  0  0  0  0  0  0
  190.3910  175.8200  137.2370 O   0  0  0  0  0  0  0  0  0  0  0  0
  1 17  1  0  0  0  0
  2 15  1  0  0  0  0
  3  7  1  0  0  0  0
  3 14  1  0  0  0  0
  4  8  1  0  0  0  0
  5  2  1  0  0  0  0
  6  2  1  0  0  0  0
  6  4  1  0  0  0  0
  7  5  1  0  0  0  0
  7 18  1  0  0  0  0
  9  6  1  0  0  0  0
 10 19  2  0  0  0  0
 12  8  1  0  0  0  0
 13 10  1  0  0  0  0
 13  9  1  0  0  0  0
 15 11  1  0  0  0  0
 15 12  1  0  0  0  0
 16  5  1  0  0  0  0
 16  9  1  0  0  0  0
 17  4  1  0  0  0  0
 18 21  1  0  0  0  0
 19  1  1  0  0  0  0
 20  3  1  0  0  0  0
 20 16  1  0  0  0  0
 21 11  1  0  0  0  0
 22 23  1  0  0  0  0
 23 24  2  0  0  0  0
 23 18  1  0  0  0  0
 26 27  2  0  0  0  0
 27 25  1  0  0  0  0
 27 24  1  0  0  0  0
 28 26  1  0  0  0  0
 28 22  2  0  0  0  0
 29 20  1  0  0  0  0
 30 29  1  0  0  0  0
 31 30  1  0  0  0  0
 32 31  1  0  0  0  0
 33 30  1  0  0  0  0
 35 34  1  0  0  0  0
 35 33  1  0  0  0  0
 36 37  1  0  0  0  0
 37 35  1  0  0  0  0
M  END
>  <MODEL>
2

>  <REMARK>
 VINA RESULT:      -8.7      1.245      1.908
  Name = 
  7 active torsions:
  status: ('A' for Active; 'I' for Inactive)
    1  A    between atoms: C_5  and  C_17
    2  A    between atoms: C_5  and  O_23
    3  A    between atoms: C_6  and  C_31
    4  A    between atoms: C_11  and  C_26
    5  A    between atoms: C_17  and  C_26
    6  A    between atoms: C_26  and  O_33
    7  A    between atoms: O_33  and  C_36
                            x       y       z     vdW  Elec       q    Type
                         _______ _______ _______ _____ _____    ______ ____

>  <TORSDO>
F 7

$$$$
=
 OpenBabel11052415293D

 37 42  0  0  1  0  0  0  0  0999 V2000
  190.2190  175.9220  136.9050 C   0  0  0  0  0  2  0  0  0  0  0  0
  190.4000  176.4580  141.1070 C   0  0  1  0  0  3  0  0  0  0  0  0
  188.2990  178.4700  142.9280 C   0  0  1  0  0  3  0  0  0  0  0  0
  190.9070  177.5130  138.7980 C   0  0  1  0  0  3  0  0  0  0  0  0
  189.0520  176.4310  141.8710 C   0  0  1  0  0  3  0  0  0  0  0  0
  189.9550  176.7200  139.6820 C   0  0  2  0  0  3  0  0  0  0  0  0
  188.9270  177.1310  143.2080 C   0  0  1  0  0  3  0  0  0  0  0  0
  192.3370  177.1180  139.1040 C   0  0  0  0  0  2  0  0  0  0  0  0
  188.6550  177.4550  139.8000 C   0  0  1  0  0  3  0  0  0  0  0  0
  187.8030  175.9610  137.8930 C   0  0  0  0  0  3  0  0  0  0  0  0
  192.0680  177.1020  142.8990 C   0  0  0  0  0  2  0  0  0  0  0  0
  192.6820  177.4880  140.5550 C   0  0  0  0  0  2  0  0  0  0  0  0
  187.7880  177.3230  138.5400 C   0  0  0  0  0  2  0  0  0  0  0  0
  189.2730  179.4190  142.6100 O   0  0  0  0  0  1  0  0  0  0  0  0
  191.4940  177.4590  141.5430 C   0  0  1  0  0  3  0  0  0  0  0  0
  187.9940  176.9910  141.0090 N   0  0  2  0  0  0  0  0  0  0  0  0
  190.5340  177.3650  137.3170 C   0  0  0  0  0  2  0  0  0  0  0  0
  190.0130  176.9710  144.2790 C   0  0  1  0  0  3  0  0  0  0  0  0
  188.8200  175.4020  137.2020 C   0  0  0  0  0  3  0  0  0  0  0  0
  187.4620  178.1820  141.6880 C   0  0  1  0  0  3  0  0  0  0  0  0
  191.2760  177.7640  144.0030 C   0  0  0  0  0  2  0  0  0  0  0  0
  190.2930  177.1440  146.7880 C   0  0  0  0  0  3  0  0  0  0  0  0
  189.4780  177.2480  145.6500 C   0  0  0  0  0  0  0  0  0  0  0  0
  188.1440  177.6430  145.7910 C   0  0  0  0  0  3  0  0  0  0  0  0
  186.2040  178.3400  147.2020 C   0  0  0  0  0  1  0  0  0  0  0  0
  188.4370  177.8150  148.1900 C   0  0  0  0  0  3  0  0  0  0  0  0
  187.6220  177.9240  147.0580 C   0  0  0  0  0  0  0  0  0  0  0  0
  189.7730  177.4250  148.0540 C   0  0  0  0  0  3  0  0  0  0  0  0
  186.1370  177.9440  142.0680 O   0  0  0  0  0  0  0  0  0  0  0  0
  185.4380  179.1120  141.7350 C   0  0  2  0  0  3  0  0  0  0  0  0
  184.9510  179.8220  142.9970 C   0  0  0  0  0  2  0  0  0  0  0  0
  184.6340  178.8470  144.1190 C   0  0  0  0  0  1  0  0  0  0  0  0
  184.2680  178.7820  140.8180 C   0  0  0  0  0  2  0  0  0  0  0  0
  184.1370  178.1050  138.3830 C   0  0  0  0  0  1  0  0  0  0  0  0
  184.5840  179.1740  139.3740 C   0  0  1  0  0  3  0  0  0  0  0  0
  182.7660  180.4170  138.7150 C   0  0  0  0  0  1  0  0  0  0  0  0
  184.1350  180.4700  139.0300 O   0  0  0  0  0  0  0  0  0  0  0  0
  1 19  1  0  0  0  0
  1 17  1  0  0  0  0
  2 15  1  0  0  0  0
  2  5  1  0  0  0  0
  3  7  1  0  0  0  0
  4  8  1  0  0  0  0
  4  6  1  0  0  0  0
  5  7  1  0  0  0  0
  6  9  1  0  0  0  0
  6  2  1  0  0  0  0
  7 18  1  0  0  0  0
  8 12  1  0  0  0  0
  9 16  1  0  0  0  0
 10 13  1  0  0  0  0
 11 21  1  0  0  0  0
 12 15  1  0  0  0  0
 13  9  1  0  0  0  0
 14  3  1  0  0  0  0
 15 11  1  0  0  0  0
 16 20  1  0  0  0  0
 16  5  1  0  0  0  0
 17  4  1  0  0  0  0
 18 23  1  0  0  0  0
 19 10  2  0  0  0  0
 20 29  1  0  0  0  0
 20  3  1  0  0  0  0
 21 18  1  0  0  0  0
 22 28  1  0  0  0  0
 23 24  1  0  0  0  0
 23 22  2  0  0  0  0
 24 27  2  0  0  0  0
 27 25  1  0  0  0  0
 27 26  1  0  0  0  0
 28 26  2  0  0  0  0
 30 29  1  0  0  0  0
 30 31  1  0  0  0  0
 31 32  1  0  0  0  0
 33 30  1  0  0  0  0
 34 35  1  0  0  0  0
 35 33  1  0  0  0  0
 36 37  1  0  0  0  0
 37 35  1  0  0  0  0
M  END
>  <MODEL>
3

>  <REMARK>
 VINA RESULT:      -7.7      2.123      6.217
  Name = 
  7 active torsions:
  status: ('A' for Active; 'I' for Inactive)
    1  A    between atoms: C_5  and  C_17
    2  A    between atoms: C_5  and  O_23
    3  A    between atoms: C_6  and  C_31
    4  A    between atoms: C_11  and  C_26
    5  A    between atoms: C_17  and  C_26
    6  A    between atoms: C_26  and  O_33
    7  A    between atoms: O_33  and  C_36
                            x       y       z     vdW  Elec       q    Type
                         _______ _______ _______ _____ _____    ______ ____

>  <TORSDO>
F 7

$$$$
=
 OpenBabel11052415293D

 37 42  0  0  1  0  0  0  0  0999 V2000
  188.6130  177.7010  136.3470 C   0  0  0  0  0  2  0  0  0  0  0  0
  184.7070  178.6200  137.7140 C   0  0  1  0  0  3  0  0  0  0  0  0
  183.6230  178.2780  140.9530 C   0  0  1  0  0  3  0  0  0  0  0  0
  186.3600  176.7270  137.0960 C   0  0  1  0  0  3  0  0  0  0  0  0
  184.6030  179.4010  139.0500 C   0  0  1  0  0  3  0  0  0  0  0  0
  186.1150  178.0650  137.7780 C   0  0  2  0  0  3  0  0  0  0  0  0
  183.3430  179.3030  139.8850 C   0  0  1  0  0  3  0  0  0  0  0  0
  185.5520  176.6500  135.8160 C   0  0  0  0  0  2  0  0  0  0  0  0
  186.4320  177.9460  139.2370 C   0  0  1  0  0  3  0  0  0  0  0  0
  188.7500  178.8920  138.6650 C   0  0  0  0  0  3  0  0  0  0  0  0
  182.2950  178.0720  137.1750 C   0  0  0  0  0  2  0  0  0  0  0  0
  184.0520  176.7050  136.1420 C   0  0  0  0  0  2  0  0  0  0  0  0
  187.9420  177.9430  139.5140 C   0  0  0  0  0  2  0  0  0  0  0  0
  183.3270  176.9920  140.4970 O   0  0  0  0  0  1  0  0  0  0  0  0
  183.6810  177.5050  137.4100 C   0  0  1  0  0  3  0  0  0  0  0  0
  185.7180  179.0070  139.9300 N   0  0  2  0  0  0  0  0  0  0  0  0
  187.8600  176.4800  136.8890 C   0  0  0  0  0  2  0  0  0  0  0  0
  181.9610  179.4130  139.2330 C   0  0  1  0  0  3  0  0  0  0  0  0
  189.0320  178.7650  137.3500 C   0  0  0  0  0  3  0  0  0  0  0  0
  185.1300  178.4060  141.1380 C   0  0  1  0  0  3  0  0  0  0  0  0
  181.5330  178.1700  138.4760 C   0  0  0  0  0  2  0  0  0  0  0  0
  180.0760  180.9360  139.9650 C   0  0  0  0  0  3  0  0  0  0  0  0
  180.9200  179.8420  140.2200 C   0  0  0  0  0  0  0  0  0  0  0  0
  180.7720  179.1200  141.4080 C   0  0  0  0  0  3  0  0  0  0  0  0
  179.6470  178.7190  143.6010 C   0  0  0  0  0  1  0  0  0  0  0  0
  178.9620  180.5810  142.0840 C   0  0  0  0  0  3  0  0  0  0  0  0
  179.7970  179.4880  142.3410 C   0  0  0  0  0  0  0  0  0  0  0  0
  179.1010  181.3040  140.8960 C   0  0  0  0  0  3  0  0  0  0  0  0
  185.3940  179.2270  142.2380 O   0  0  0  0  0  0  0  0  0  0  0  0
  185.7350  178.3560  143.2810 C   0  0  2  0  0  3  0  0  0  0  0  0
  185.1790  178.8670  144.6090 C   0  0  0  0  0  2  0  0  0  0  0  0
  183.6580  178.8920  144.6230 C   0  0  0  0  0  1  0  0  0  0  0  0
  187.2470  178.1920  143.3590 C   0  0  0  0  0  2  0  0  0  0  0  0
  188.6360  176.0880  143.1390 C   0  0  0  0  0  1  0  0  0  0  0  0
  187.6140  176.8440  143.9810 C   0  0  1  0  0  3  0  0  0  0  0  0
  189.2940  177.4170  145.4420 C   0  0  0  0  0  1  0  0  0  0  0  0
  187.9780  176.9320  145.3440 O   0  0  0  0  0  0  0  0  0  0  0  0
  1 17  1  0  0  0  0
  1 19  1  0  0  0  0
  2  6  1  0  0  0  0
  2  5  1  0  0  0  0
  3 20  1  0  0  0  0
  4  6  1  0  0  0  0
  5  7  1  0  0  0  0
  5 16  1  0  0  0  0
  6  9  1  0  0  0  0
  7  3  1  0  0  0  0
  8 12  1  0  0  0  0
  8  4  1  0  0  0  0
  9 13  1  0  0  0  0
  9 16  1  0  0  0  0
 10 13  1  0  0  0  0
 11 15  1  0  0  0  0
 11 21  1  0  0  0  0
 12 15  1  0  0  0  0
 14  3  1  0  0  0  0
 15  2  1  0  0  0  0
 16 20  1  0  0  0  0
 17  4  1  0  0  0  0
 18  7  1  0  0  0  0
 18 23  1  0  0  0  0
 19 10  2  0  0  0  0
 20 29  1  0  0  0  0
 21 18  1  0  0  0  0
 22 23  2  0  0  0  0
 22 28  1  0  0  0  0
 23 24  1  0  0  0  0
 24 27  2  0  0  0  0
 26 27  1  0  0  0  0
 27 25  1  0  0  0  0
 28 26  2  0  0  0  0
 29 30  1  0  0  0  0
 30 33  1  0  0  0  0
 30 31  1  0  0  0  0
 31 32  1  0  0  0  0
 33 35  1  0  0  0  0
 34 35  1  0  0  0  0
 35 37  1  0  0  0  0
 37 36  1  0  0  0  0
M  END
>  <MODEL>
4

>  <REMARK>
 VINA RESULT:      -7.6      1.745      6.263
  Name = 
  7 active torsions:
  status: ('A' for Active; 'I' for Inactive)
    1  A    between atoms: C_5  and  C_17
    2  A    between atoms: C_5  and  O_23
    3  A    between atoms: C_6  and  C_31
    4  A    between atoms: C_11  and  C_26
    5  A    between atoms: C_17  and  C_26
    6  A    between atoms: C_26  and  O_33
    7  A    between atoms: O_33  and  C_36
                            x       y       z     vdW  Elec       q    Type
                         _______ _______ _______ _____ _____    ______ ____

>  <TORSDO>
F 7

$$$$
=
 OpenBabel11052415293D

 37 42  0  0  1  0  0  0  0  0999 V2000
  188.5390  177.2140  136.1560 C   0  0  0  0  0  2  0  0  0  0  0  0
  184.6540  178.2360  137.5100 C   0  0  1  0  0  3  0  0  0  0  0  0
  183.7010  178.4200  140.8020 C   0  0  1  0  0  3  0  0  0  0  0  0
  186.3520  176.3160  137.1530 C   0  0  1  0  0  3  0  0  0  0  0  0
  184.5690  179.2300  138.6970 C   0  0  1  0  0  3  0  0  0  0  0  0
  186.0830  177.7430  137.6080 C   0  0  2  0  0  3  0  0  0  0  0  0
  183.3450  179.2390  139.5890 C   0  0  1  0  0  3  0  0  0  0  0  0
  185.5020  175.9970  135.9400 C   0  0  0  0  0  2  0  0  0  0  0  0
  186.4560  177.8840  139.0520 C   0  0  1  0  0  3  0  0  0  0  0  0
  188.7160  178.7870  138.2310 C   0  0  0  0  0  3  0  0  0  0  0  0
  182.2460  177.5320  137.1730 C   0  0  0  0  0  2  0  0  0  0  0  0
  184.0130  176.0620  136.3140 C   0  0  0  0  0  2  0  0  0  0  0  0
  187.9740  177.9740  139.2610 C   0  0  0  0  0  2  0  0  0  0  0  0
  183.4360  177.0660  140.5840 O   0  0  0  0  0  1  0  0  0  0  0  0
  183.6590  177.0550  137.4430 C   0  0  1  0  0  3  0  0  0  0  0  0
  185.7290  179.0260  139.5850 N   0  0  2  0  0  0  0  0  0  0  0  0
  187.8510  176.0820  136.9280 C   0  0  0  0  0  2  0  0  0  0  0  0
  181.9370  179.1940  138.9860 C   0  0  1  0  0  3  0  0  0  0  0  0
  188.9540  178.4460  136.9470 C   0  0  0  0  0  3  0  0  0  0  0  0
  185.2070  178.6220  140.9000 C   0  0  1  0  0  3  0  0  0  0  0  0
  181.5280  177.8270  138.4690 C   0  0  0  0  0  2  0  0  0  0  0  0
  180.2770  180.9770  139.6710 C   0  0  0  0  0  3  0  0  0  0  0  0
  180.9170  179.7540  139.9290 C   0  0  0  0  0  0  0  0  0  0  0  0
  180.5810  179.0270  141.0750 C   0  0  0  0  0  3  0  0  0  0  0  0
  179.2700  178.7430  143.1820 C   0  0  0  0  0  1  0  0  0  0  0  0
  178.9880  180.7390  141.7070 C   0  0  0  0  0  3  0  0  0  0  0  0
  179.6200  179.5190  141.9650 C   0  0  0  0  0  0  0  0  0  0  0  0
  179.3160  181.4680  140.5590 C   0  0  0  0  0  3  0  0  0  0  0  0
  185.4810  179.6270  141.8330 O   0  0  0  0  0  0  0  0  0  0  0  0
  186.0000  178.9650  142.9530 C   0  0  2  0  0  3  0  0  0  0  0  0
  187.1000  177.9900  142.5380 C   0  0  0  0  0  2  0  0  0  0  0  0
  187.6210  177.1790  143.7140 C   0  0  0  0  0  1  0  0  0  0  0  0
  184.8890  178.2380  143.6990 C   0  0  0  0  0  2  0  0  0  0  0  0
  182.6730  179.3790  144.1350 C   0  0  0  0  0  1  0  0  0  0  0  0
  184.1150  179.2050  144.5960 C   0  0  1  0  0  3  0  0  0  0  0  0
  185.5790  178.9070  146.3440 C   0  0  0  0  0  1  0  0  0  0  0  0
  184.2230  178.9040  145.9740 O   0  0  0  0  0  0  0  0  0  0  0  0
  1 17  1  0  0  0  0
  1 19  1  0  0  0  0
  2  6  1  0  0  0  0
  2  5  1  0  0  0  0
  3 20  1  0  0  0  0
  4  6  1  0  0  0  0
  5 16  1  0  0  0  0
  5  7  1  0  0  0  0
  6  9  1  0  0  0  0
  7  3  1  0  0  0  0
  8 12  1  0  0  0  0
  8  4  1  0  0  0  0
  9 13  1  0  0  0  0
  9 16  1  0  0  0  0
 10 13  1  0  0  0  0
 11 15  1  0  0  0  0
 11 21  1  0  0  0  0
 12 15  1  0  0  0  0
 14  3  1  0  0  0  0
 15  2  1  0  0  0  0
 16 20  1  0  0  0  0
 17  4  1  0  0  0  0
 18  7  1  0  0  0  0
 18 23  1  0  0  0  0
 19 10  2  0  0  0  0
 20 29  1  0  0  0  0
 21 18  1  0  0  0  0
 22 23  2  0  0  0  0
 22 28  1  0  0  0  0
 23 24  1  0  0  0  0
 24 27  2  0  0  0  0
 26 27  1  0  0  0  0
 27 25  1  0  0  0  0
 28 26  2  0  0  0  0
 29 30  1  0  0  0  0
 30 33  1  0  0  0  0
 31 30  1  0  0  0  0
 31 32  1  0  0  0  0
 33 35  1  0  0  0  0
 34 35  1  0  0  0  0
 35 37  1  0  0  0  0
 37 36  1  0  0  0  0
M  END
>  <MODEL>
5

>  <REMARK>
 VINA RESULT:      -7.3      1.945      6.255
  Name = 
  7 active torsions:
  status: ('A' for Active; 'I' for Inactive)
    1  A    between atoms: C_5  and  C_17
    2  A    between atoms: C_5  and  O_23
    3  A    between atoms: C_6  and  C_31
    4  A    between atoms: C_11  and  C_26
    5  A    between atoms: C_17  and  C_26
    6  A    between atoms: C_26  and  O_33
    7  A    between atoms: O_33  and  C_36
                            x       y       z     vdW  Elec       q    Type
                         _______ _______ _______ _____ _____    ______ ____

>  <TORSDO>
F 7

$$$$
=
 OpenBabel11052415293D

 37 42  0  0  1  0  0  0  0  0999 V2000
  179.0640  179.0010  143.3750 C   0  0  0  0  0  2  0  0  0  0  0  0
  181.7150  178.0840  140.1960 C   0  0  1  0  0  3  0  0  0  0  0  0
  185.0250  178.9840  140.0700 C   0  0  1  0  0  3  0  0  0  0  0  0
  180.3050  179.9340  141.3310 C   0  0  1  0  0  3  0  0  0  0  0  0
  183.1270  177.5800  140.5900 C   0  0  1  0  0  3  0  0  0  0  0  0
  181.2420  178.7440  141.4750 C   0  0  2  0  0  3  0  0  0  0  0  0
  184.2850  177.7490  139.6290 C   0  0  1  0  0  3  0  0  0  0  0  0
  179.3470  179.6930  140.1820 C   0  0  0  0  0  2  0  0  0  0  0  0
  182.4890  179.1760  142.1860 C   0  0  1  0  0  3  0  0  0  0  0  0
  181.3890  178.3110  144.3390 C   0  0  0  0  0  3  0  0  0  0  0  0
  181.8710  178.3320  137.6810 C   0  0  0  0  0  2  0  0  0  0  0  0
  180.1280  179.5930  138.8630 C   0  0  0  0  0  2  0  0  0  0  0  0
  182.2760  179.3460  143.6960 C   0  0  0  0  0  2  0  0  0  0  0  0
  184.4760  180.1280  139.4870 O   0  0  0  0  0  1  0  0  0  0  0  0
  181.5640  179.0360  138.9880 C   0  0  1  0  0  3  0  0  0  0  0  0
  183.5370  178.2240  141.8520 N   0  0  2  0  0  0  0  0  0  0  0  0
  179.6020  180.2450  142.6580 C   0  0  0  0  0  2  0  0  0  0  0  0
  184.1240  177.4080  138.1430 C   0  0  1  0  0  3  0  0  0  0  0  0
  180.0500  178.1930  144.2050 C   0  0  0  0  0  3  0  0  0  0  0  0
  184.7490  179.0090  141.5680 C   0  0  1  0  0  3  0  0  0  0  0  0
  183.3420  178.4390  137.3520 C   0  0  0  0  0  2  0  0  0  0  0  0
  185.6780  175.8890  136.8450 C   0  0  0  0  0  3  0  0  0  0  0  0
  185.4440  177.1080  137.5020 C   0  0  0  0  0  0  0  0  0  0  0  0
  186.4530  178.0750  137.5400 C   0  0  0  0  0  3  0  0  0  0  0  0
  188.7570  178.8590  136.9820 C   0  0  0  0  0  1  0  0  0  0  0  0
  187.9190  176.6110  136.2860 C   0  0  0  0  0  3  0  0  0  0  0  0
  187.6890  177.8290  136.9360 C   0  0  0  0  0  0  0  0  0  0  0  0
  186.9130  175.6420  136.2400 C   0  0  0  0  0  3  0  0  0  0  0  0
  185.8330  178.4460  142.2490 O   0  0  0  0  0  0  0  0  0  0  0  0
  185.3820  178.2310  143.5580 C   0  0  2  0  0  3  0  0  0  0  0  0
  185.4380  179.5270  144.3640 C   0  0  0  0  0  2  0  0  0  0  0  0
  185.3060  179.2800  145.8580 C   0  0  0  0  0  1  0  0  0  0  0  0
  186.2100  177.1430  144.2290 C   0  0  0  0  0  2  0  0  0  0  0  0
  188.5890  177.5940  144.9660 C   0  0  0  0  0  1  0  0  0  0  0  0
  187.6750  177.2340  143.8010 C   0  0  1  0  0  3  0  0  0  0  0  0
  189.5230  176.0300  143.1520 C   0  0  0  0  0  1  0  0  0  0  0  0
  188.1210  176.1050  143.0760 O   0  0  0  0  0  0  0  0  0  0  0  0
  1 19  1  0  0  0  0
  2  5  1  0  0  0  0
  2  6  1  0  0  0  0
  3 20  1  0  0  0  0
  4  6  1  0  0  0  0
  4 17  1  0  0  0  0
  5 16  1  0  0  0  0
  6  9  1  0  0  0  0
  7  3  1  0  0  0  0
  7  5  1  0  0  0  0
  8  4  1  0  0  0  0
  9 13  1  0  0  0  0
 11 15  1  0  0  0  0
 12 15  1  0  0  0  0
 12  8  1  0  0  0  0
 13 10  1  0  0  0  0
 14  3  1  0  0  0  0
 15  2  1  0  0  0  0
 16  9  1  0  0  0  0
 17  1  1  0  0  0  0
 18  7  1  0  0  0  0
 19 10  2  0  0  0  0
 20 16  1  0  0  0  0
 20 29  1  0  0  0  0
 21 11  1  0  0  0  0
 21 18  1  0  0  0  0
 22 23  1  0  0  0  0
 23 24  2  0  0  0  0
 23 18  1  0  0  0  0
 26 27  2  0  0  0  0
 27 25  1  0  0  0  0
 27 24  1  0  0  0  0
 28 26  1  0  0  0  0
 28 22  2  0  0  0  0
 29 30  1  0  0  0  0
 30 33  1  0  0  0  0
 30 31  1  0  0  0  0
 31 32  1  0  0  0  0
 35 33  1  0  0  0  0
 35 34  1  0  0  0  0
 37 36  1  0  0  0  0
 37 35  1  0  0  0  0
M  END
>  <MODEL>
6

>  <REMARK>
 VINA RESULT:      -7.3      1.747      7.813
  Name = 
  7 active torsions:
  status: ('A' for Active; 'I' for Inactive)
    1  A    between atoms: C_5  and  C_17
    2  A    between atoms: C_5  and  O_23
    3  A    between atoms: C_6  and  C_31
    4  A    between atoms: C_11  and  C_26
    5  A    between atoms: C_17  and  C_26
    6  A    between atoms: C_26  and  O_33
    7  A    between atoms: O_33  and  C_36
                            x       y       z     vdW  Elec       q    Type
                         _______ _______ _______ _____ _____    ______ ____

>  <TORSDO>
F 7

$$$$
=
 OpenBabel11052415293D

 37 42  0  0  1  0  0  0  0  0999 V2000
  185.9020  177.8760  145.4120 C   0  0  0  0  0  2  0  0  0  0  0  0
  183.5730  177.8790  141.8690 C   0  0  1  0  0  3  0  0  0  0  0  0
  184.5970  179.1250  138.8400 C   0  0  1  0  0  3  0  0  0  0  0  0
  184.5010  179.3140  143.8130 C   0  0  1  0  0  3  0  0  0  0  0  0
  184.2930  177.4570  140.5620 C   0  0  1  0  0  3  0  0  0  0  0  0
  184.7350  178.2230  142.7780 C   0  0  2  0  0  3  0  0  0  0  0  0
  183.7650  177.9300  139.2240 C   0  0  1  0  0  3  0  0  0  0  0  0
  183.0940  179.2040  144.3620 C   0  0  0  0  0  2  0  0  0  0  0  0
  185.8480  178.6350  141.8630 C   0  0  1  0  0  3  0  0  0  0  0  0
  187.4050  177.2560  143.3700 C   0  0  0  0  0  3  0  0  0  0  0  0
  181.2940  178.6280  141.0590 C   0  0  0  0  0  2  0  0  0  0  0  0
  182.0740  179.4450  143.2380 C   0  0  0  0  0  2  0  0  0  0  0  0
  187.2300  178.4840  142.5130 C   0  0  0  0  0  2  0  0  0  0  0  0
  184.0610  180.2970  139.3770 O   0  0  0  0  0  1  0  0  0  0  0  0
  182.5400  179.0280  141.8250 C   0  0  1  0  0  3  0  0  0  0  0  0
  185.7030  177.8820  140.6270 N   0  0  2  0  0  0  0  0  0  0  0  0
  185.5850  179.2850  144.8980 C   0  0  0  0  0  2  0  0  0  0  0  0
  182.2670  177.8700  138.9080 C   0  0  1  0  0  3  0  0  0  0  0  0
  186.8550  177.0290  144.5820 C   0  0  0  0  0  3  0  0  0  0  0  0
  185.9260  178.8280  139.5230 C   0  0  1  0  0  3  0  0  0  0  0  0
  181.4470  178.9500  139.5910 C   0  0  0  0  0  2  0  0  0  0  0  0
  182.3240  176.7080  136.6610 C   0  0  0  0  0  3  0  0  0  0  0  0
  182.0160  177.8410  137.4320 C   0  0  0  0  0  0  0  0  0  0  0  0
  181.4420  178.9580  136.8180 C   0  0  0  0  0  3  0  0  0  0  0  0
  180.5740  180.1420  134.7970 C   0  0  0  0  0  1  0  0  0  0  0  0
  181.4940  177.8230  134.6790 C   0  0  0  0  0  3  0  0  0  0  0  0
  181.1820  178.9520  135.4440 C   0  0  0  0  0  0  0  0  0  0  0  0
  182.0640  176.7010  135.2880 C   0  0  0  0  0  3  0  0  0  0  0  0
  186.8060  178.2590  138.5970 O   0  0  0  0  0  0  0  0  0  0  0  0
  188.0780  178.3740  139.1720 C   0  0  2  0  0  3  0  0  0  0  0  0
  189.0560  179.0130  138.1880 C   0  0  0  0  0  2  0  0  0  0  0  0
  188.7550  178.6270  136.7480 C   0  0  0  0  0  1  0  0  0  0  0  0
  188.5810  177.0070  139.6180 C   0  0  0  0  0  2  0  0  0  0  0  0
  190.5820  177.1280  141.1630 C   0  0  0  0  0  1  0  0  0  0  0  0
  190.1070  176.9980  139.7210 C   0  0  1  0  0  3  0  0  0  0  0  0
  191.8620  176.3780  138.3710 C   0  0  0  0  0  1  0  0  0  0  0  0
  190.7110  175.9190  139.0350 O   0  0  0  0  0  0  0  0  0  0  0  0
  2  6  1  0  0  0  0
  3  7  1  0  0  0  0
  3 14  1  0  0  0  0
  3 20  1  0  0  0  0
  4  8  1  0  0  0  0
  4 17  1  0  0  0  0
  5 16  1  0  0  0  0
  5  2  1  0  0  0  0
  6  4  1  0  0  0  0
  7  5  1  0  0  0  0
  9 13  1  0  0  0  0
  9  6  1  0  0  0  0
 10 19  2  0  0  0  0
 11 15  1  0  0  0  0
 12  8  1  0  0  0  0
 13 10  1  0  0  0  0
 15  2  1  0  0  0  0
 15 12  1  0  0  0  0
 16  9  1  0  0  0  0
 17  1  1  0  0  0  0
 18  7  1  0  0  0  0
 18 21  1  0  0  0  0
 19  1  1  0  0  0  0
 20 16  1  0  0  0  0
 21 11  1  0  0  0  0
 22 23  1  0  0  0  0
 23 18  1  0  0  0  0
 24 23  2  0  0  0  0
 25 27  1  0  0  0  0
 26 28  1  0  0  0  0
 26 27  2  0  0  0  0
 27 24  1  0  0  0  0
 28 22  2  0  0  0  0
 29 30  1  0  0  0  0
 29 20  1  0  0  0  0
 30 33  1  0  0  0  0
 31 30  1  0  0  0  0
 32 31  1  0  0  0  0
 33 35  1  0  0  0  0
 35 34  1  0  0  0  0
 36 37  1  0  0  0  0
 37 35  1  0  0  0  0
M  END
>  <MODEL>
7

>  <REMARK>
 VINA RESULT:      -7.0      2.210      4.941
  Name = 
  7 active torsions:
  status: ('A' for Active; 'I' for Inactive)
    1  A    between atoms: C_5  and  C_17
    2  A    between atoms: C_5  and  O_23
    3  A    between atoms: C_6  and  C_31
    4  A    between atoms: C_11  and  C_26
    5  A    between atoms: C_17  and  C_26
    6  A    between atoms: C_26  and  O_33
    7  A    between atoms: O_33  and  C_36
                            x       y       z     vdW  Elec       q    Type
                         _______ _______ _______ _____ _____    ______ ____

>  <TORSDO>
F 7

$$$$
=
 OpenBabel11052415293D

 37 42  0  0  1  0  0  0  0  0999 V2000
  186.0180  177.8550  144.8530 C   0  0  0  0  0  2  0  0  0  0  0  0
  183.3570  177.8770  141.5520 C   0  0  1  0  0  3  0  0  0  0  0  0
  183.9010  179.5340  138.5960 C   0  0  1  0  0  3  0  0  0  0  0  0
  184.2910  179.2340  143.5490 C   0  0  1  0  0  3  0  0  0  0  0  0
  183.9870  177.6830  140.1490 C   0  0  1  0  0  3  0  0  0  0  0  0
  184.5540  178.2890  142.3860 C   0  0  2  0  0  3  0  0  0  0  0  0
  183.2710  178.2050  138.9210 C   0  0  1  0  0  3  0  0  0  0  0  0
  182.9720  178.8820  144.2050 C   0  0  0  0  0  2  0  0  0  0  0  0
  185.5060  178.9330  141.4250 C   0  0  1  0  0  3  0  0  0  0  0  0
  187.3700  177.6420  142.6310 C   0  0  0  0  0  3  0  0  0  0  0  0
  180.9320  178.3840  141.0330 C   0  0  0  0  0  2  0  0  0  0  0  0
  181.8210  179.0880  143.2090 C   0  0  0  0  0  2  0  0  0  0  0  0
  186.9560  178.9100  141.9300 C   0  0  0  0  0  2  0  0  0  0  0  0
  183.2790  180.5660  139.3020 O   0  0  0  0  0  1  0  0  0  0  0  0
  182.1880  178.8740  141.7240 C   0  0  1  0  0  3  0  0  0  0  0  0
  185.3320  178.2880  140.1330 N   0  0  2  0  0  0  0  0  0  0  0  0
  185.4750  179.2500  144.5240 C   0  0  0  0  0  2  0  0  0  0  0  0
  181.7670  177.9730  138.7350 C   0  0  1  0  0  3  0  0  0  0  0  0
  186.9800  177.2270  143.8560 C   0  0  0  0  0  3  0  0  0  0  0  0
  185.3200  179.3560  139.1220 C   0  0  1  0  0  3  0  0  0  0  0  0
  180.8920  178.8610  139.6000 C   0  0  0  0  0  2  0  0  0  0  0  0
  181.3270  176.9020  136.4850 C   0  0  0  0  0  3  0  0  0  0  0  0
  181.3730  178.0500  137.2920 C   0  0  0  0  0  0  0  0  0  0  0  0
  181.0210  179.2900  136.7490 C   0  0  0  0  0  3  0  0  0  0  0  0
  180.2640  180.7090  134.8380 C   0  0  0  0  0  1  0  0  0  0  0  0
  180.5930  178.2430  134.6070 C   0  0  0  0  0  3  0  0  0  0  0  0
  180.6340  179.3890  135.4090 C   0  0  0  0  0  0  0  0  0  0  0  0
  180.9390  177.0000  135.1450 C   0  0  0  0  0  3  0  0  0  0  0  0
  186.1660  179.0030  138.0670 O   0  0  0  0  0  0  0  0  0  0  0  0
  186.8830  177.8880  138.5200 C   0  0  2  0  0  3  0  0  0  0  0  0
  188.2900  178.2960  138.9520 C   0  0  0  0  0  2  0  0  0  0  0  0
  189.1250  177.1020  139.3870 C   0  0  0  0  0  1  0  0  0  0  0  0
  186.9420  176.8210  137.4340 C   0  0  0  0  0  2  0  0  0  0  0  0
  185.1070  176.8930  135.6930 C   0  0  0  0  0  1  0  0  0  0  0  0
  185.5350  176.3570  137.0540 C   0  0  1  0  0  3  0  0  0  0  0  0
  184.0300  174.7070  137.5990 C   0  0  0  0  0  1  0  0  0  0  0  0
  185.3480  174.9610  137.1820 O   0  0  0  0  0  0  0  0  0  0  0  0
  2 15  1  0  0  0  0
  2  6  1  0  0  0  0
  3  7  1  0  0  0  0
  3 20  1  0  0  0  0
  3 14  1  0  0  0  0
  4  8  1  0  0  0  0
  4 17  1  0  0  0  0
  5  2  1  0  0  0  0
  6  4  1  0  0  0  0
  7  5  1  0  0  0  0
  9 13  1  0  0  0  0
  9  6  1  0  0  0  0
 10 19  2  0  0  0  0
 11 15  1  0  0  0  0
 12  8  1  0  0  0  0
 13 10  1  0  0  0  0
 15 12  1  0  0  0  0
 16  5  1  0  0  0  0
 16  9  1  0  0  0  0
 17  1  1  0  0  0  0
 18  7  1  0  0  0  0
 18 21  1  0  0  0  0
 19  1  1  0  0  0  0
 20 16  1  0  0  0  0
 21 11  1  0  0  0  0
 22 23  1  0  0  0  0
 23 18  1  0  0  0  0
 24 23  2  0  0  0  0
 25 27  1  0  0  0  0
 26 28  1  0  0  0  0
 26 27  2  0  0  0  0
 27 24  1  0  0  0  0
 28 22  2  0  0  0  0
 29 30  1  0  0  0  0
 29 20  1  0  0  0  0
 30 31  1  0  0  0  0
 31 32  1  0  0  0  0
 33 30  1  0  0  0  0
 34 35  1  0  0  0  0
 35 37  1  0  0  0  0
 35 33  1  0  0  0  0
 37 36  1  0  0  0  0
M  END
>  <MODEL>
8

>  <REMARK>
 VINA RESULT:      -6.9      2.385      4.710
  Name = 
  7 active torsions:
  status: ('A' for Active; 'I' for Inactive)
    1  A    between atoms: C_5  and  C_17
    2  A    between atoms: C_5  and  O_23
    3  A    between atoms: C_6  and  C_31
    4  A    between atoms: C_11  and  C_26
    5  A    between atoms: C_17  and  C_26
    6  A    between atoms: C_26  and  O_33
    7  A    between atoms: O_33  and  C_36
                            x       y       z     vdW  Elec       q    Type
                         _______ _______ _______ _____ _____    ______ ____

>  <TORSDO>
F 7

$$$$
=
 OpenBabel11052415293D

 37 42  0  0  1  0  0  0  0  0999 V2000
  178.9310  179.3600  143.3720 C   0  0  0  0  0  2  0  0  0  0  0  0
  181.2290  178.1380  140.0260 C   0  0  1  0  0  3  0  0  0  0  0  0
  184.6370  178.4490  139.7580 C   0  0  1  0  0  3  0  0  0  0  0  0
  180.2220  180.1530  141.3010 C   0  0  1  0  0  3  0  0  0  0  0  0
  182.5460  177.3770  140.3270 C   0  0  1  0  0  3  0  0  0  0  0  0
  180.9400  178.8120  141.3510 C   0  0  2  0  0  3  0  0  0  0  0  0
  183.6710  177.3830  139.3120 C   0  0  1  0  0  3  0  0  0  0  0  0
  179.1860  180.1360  140.1960 C   0  0  0  0  0  2  0  0  0  0  0  0
  182.2740  178.9860  142.0100 C   0  0  1  0  0  3  0  0  0  0  0  0
  181.1380  178.2300  144.1860 C   0  0  0  0  0  3  0  0  0  0  0  0
  181.3120  178.4680  137.5170 C   0  0  0  0  0  2  0  0  0  0  0  0
  179.8760  179.9600  138.8350 C   0  0  0  0  0  2  0  0  0  0  0  0
  182.1640  179.1220  143.5350 C   0  0  0  0  0  2  0  0  0  0  0  0
  184.2730  179.6960  139.2470 O   0  0  0  0  0  1  0  0  0  0  0  0
  181.1950  179.1560  138.8630 C   0  0  1  0  0  3  0  0  0  0  0  0
  183.1210  177.8810  141.5870 N   0  0  2  0  0  0  0  0  0  0  0  0
  179.6470  180.5220  142.6740 C   0  0  0  0  0  2  0  0  0  0  0  0
  183.3840  177.1430  137.8250 C   0  0  1  0  0  3  0  0  0  0  0  0
  179.7950  178.3560  144.1190 C   0  0  0  0  0  3  0  0  0  0  0  0
  184.4390  178.4530  141.2690 C   0  0  1  0  0  3  0  0  0  0  0  0
  182.7620  178.3310  137.1150 C   0  0  0  0  0  2  0  0  0  0  0  0
  185.3850  177.5040  136.3190 C   0  0  0  0  0  3  0  0  0  0  0  0
  184.5990  176.6460  137.1050 C   0  0  0  0  0  0  0  0  0  0  0  0
  184.9680  175.3040  137.2410 C   0  0  0  0  0  3  0  0  0  0  0  0
  186.4920  173.3900  136.7390 C   0  0  0  0  0  1  0  0  0  0  0  0
  186.8850  175.6740  135.8070 C   0  0  0  0  0  3  0  0  0  0  0  0
  186.1070  174.8170  136.5920 C   0  0  0  0  0  0  0  0  0  0  0  0
  186.5240  177.0180  135.6710 C   0  0  0  0  0  3  0  0  0  0  0  0
  185.4360  177.6790  141.8700 O   0  0  0  0  0  0  0  0  0  0  0  0
  185.9680  178.4800  142.8890 C   0  0  2  0  0  3  0  0  0  0  0  0
  187.4890  178.3440  142.9380 C   0  0  0  0  0  2  0  0  0  0  0  0
  188.1180  178.4380  141.5570 C   0  0  0  0  0  1  0  0  0  0  0  0
  185.3510  178.1070  144.2300 C   0  0  0  0  0  2  0  0  0  0  0  0
  185.6810  179.0700  146.5470 C   0  0  0  0  0  1  0  0  0  0  0  0
  186.3380  178.3590  145.3700 C   0  0  1  0  0  3  0  0  0  0  0  0
  187.8180  177.4950  146.9020 C   0  0  0  0  0  1  0  0  0  0  0  0
  187.0610  177.2060  145.7540 O   0  0  0  0  0  0  0  0  0  0  0  0
  1 19  1  0  0  0  0
  2  5  1  0  0  0  0
  2  6  1  0  0  0  0
  3 20  1  0  0  0  0
  4  6  1  0  0  0  0
  4 17  1  0  0  0  0
  5 16  1  0  0  0  0
  6  9  1  0  0  0  0
  7  3  1  0  0  0  0
  7  5  1  0  0  0  0
  8  4  1  0  0  0  0
  9 13  1  0  0  0  0
 11 15  1  0  0  0  0
 12 15  1  0  0  0  0
 12  8  1  0  0  0  0
 13 10  1  0  0  0  0
 14  3  1  0  0  0  0
 15  2  1  0  0  0  0
 16  9  1  0  0  0  0
 17  1  1  0  0  0  0
 18  7  1  0  0  0  0
 19 10  2  0  0  0  0
 20 16  1  0  0  0  0
 20 29  1  0  0  0  0
 21 11  1  0  0  0  0
 21 18  1  0  0  0  0
 22 23  1  0  0  0  0
 23 24  2  0  0  0  0
 23 18  1  0  0  0  0
 26 27  2  0  0  0  0
 27 25  1  0  0  0  0
 27 24  1  0  0  0  0
 28 26  1  0  0  0  0
 28 22  2  0  0  0  0
 29 30  1  0  0  0  0
 30 31  1  0  0  0  0
 30 33  1  0  0  0  0
 32 31  1  0  0  0  0
 33 35  1  0  0  0  0
 35 37  1  0  0  0  0
 35 34  1  0  0  0  0
 37 36  1  0  0  0  0
M  END
>  <MODEL>
9

>  <REMARK>
 VINA RESULT:      -6.8      2.212      8.004
  Name = 
  7 active torsions:
  status: ('A' for Active; 'I' for Inactive)
    1  A    between atoms: C_5  and  C_17
    2  A    between atoms: C_5  and  O_23
    3  A    between atoms: C_6  and  C_31
    4  A    between atoms: C_11  and  C_26
    5  A    between atoms: C_17  and  C_26
    6  A    between atoms: C_26  and  O_33
    7  A    between atoms: O_33  and  C_36
                            x       y       z     vdW  Elec       q    Type
                         _______ _______ _______ _____ _____    ______ ____

>  <TORSDO>
F 7

$$$$
