=
 OpenBabel11052415183D

 37 41  0  0  1  0  0  0  0  0999 V2000
  181.3680  174.1140  137.2390 C   0  0  1  0  0  0  0  0  0  0  0  0
  184.7520  174.1800  136.1630 C   0  0  0  0  0  0  0  0  0  0  0  0
  184.6690  176.9620  138.2620 C   0  0  0  0  0  2  0  0  0  0  0  0
  180.5750  173.1730  138.1120 N   0  0  0  0  0  0  0  0  0  0  0  0
  180.3450  178.4590  138.2320 C   0  0  0  0  0  2  0  0  0  0  0  0
  186.7260  175.6530  136.8960 C   0  0  0  0  0  2  0  0  0  0  0  0
  181.3550  177.8940  136.0030 C   0  0  0  0  0  1  0  0  0  0  0  0
  179.6320  175.0440  139.2120 C   0  0  1  0  0  3  0  0  0  0  0  0
  184.3250  176.6000  136.8240 C   0  0  0  0  0  2  0  0  0  0  0  0
  182.4570  179.5350  138.8610 C   0  0  0  0  0  0  0  0  0  0  0  0
  187.4470  177.0080  136.8850 C   0  0  0  0  0  2  0  0  0  0  0  0
  179.2890  173.7620  138.4780 C   0  0  2  0  0  3  0  0  0  0  0  0
  182.2830  173.3380  136.2610 C   0  0  0  0  0  2  0  0  0  0  0  0
  184.7970  173.5380  137.5530 C   0  0  0  0  0  1  0  0  0  0  0  0
  184.8080  179.4730  138.3450 C   0  0  0  0  0  2  0  0  0  0  0  0
  186.5740  178.2480  137.1270 C   0  0  0  0  0  2  0  0  0  0  0  0
  183.3270  174.2200  135.5620 C   0  0  0  0  0  2  0  0  0  0  0  0
  178.9820  175.9940  138.2400 C   0  0  0  0  0  2  0  0  0  0  0  0
  180.8960  177.3240  137.3430 C   0  0  2  0  0  3  0  0  0  0  0  0
  185.6120  178.1730  138.3260 C   0  0  2  0  0  3  0  0  0  0  0  0
  180.4560  175.0850  136.3940 C   0  0  0  0  0  2  0  0  0  0  0  0
  185.3360  175.6130  136.2110 C   0  0  2  0  0  3  0  0  0  0  0  0
  181.2510  179.6500  138.3590 C   0  0  0  0  0  0  0  0  0  0  0  0
  185.6050  173.3320  135.2370 C   0  0  0  0  0  1  0  0  0  0  0  0
  179.8850  176.2770  137.0940 N   0  0  1  0  0  0  0  0  0  0  0  0
  178.9300  173.9040  139.9320 C   0  0  0  0  0  2  0  0  0  0  0  0
  182.1940  174.8700  138.0740 O   0  0  0  0  0  1  0  0  0  0  0  0
  183.6750  179.4460  139.3190 C   0  0  0  0  0  3  0  0  0  0  0  0
  180.2580  180.8920  136.4300 C   0  0  0  0  0  2  0  0  0  0  0  0
  180.7420  180.9750  137.8800 C   0  0  2  0  0  3  0  0  0  0  0  0
  181.8030  182.0680  138.0390 C   0  0  0  0  0  2  0  0  0  0  0  0
  182.2810  184.4250  137.6900 N   0  0  0  0  0  1  0  0  0  0  0  0
  180.7890  183.3190  136.1210 C   0  0  0  0  0  2  0  0  0  0  0  0
  181.2500  183.4110  137.5720 C   0  0  1  0  0  3  0  0  0  0  0  0
  179.7150  182.2450  135.9780 C   0  0  0  0  0  2  0  0  0  0  0  0
  178.9620  171.8090  136.9210 N   0  0  0  0  0  1  0  0  0  0  0  0
  180.2980  171.8600  137.5030 C   0  0  0  0  0  2  0  0  0  0  0  0
  1 27  1  1  0  0  0
  1  4  1  0  0  0  0
  2 22  1  0  0  0  0
  2 14  1  0  0  0  0
  3 20  1  0  0  0  0
  4 12  1  0  0  0  0
  5 23  1  0  0  0  0
  8 18  1  6  0  0  0
  8 26  1  0  0  0  0
  9  3  1  0  0  0  0
 10 28  2  0  0  0  0
 11  6  1  0  0  0  0
 11 16  1  0  0  0  0
 12  8  1  0  0  0  0
 12 26  1  1  0  0  0
 13  1  1  0  0  0  0
 15 28  1  0  0  0  0
 17  2  1  0  0  0  0
 17 13  1  0  0  0  0
 19  7  1  6  0  0  0
 19  5  1  0  0  0  0
 20 16  1  6  0  0  0
 20 15  1  0  0  0  0
 21  1  1  0  0  0  0
 22  9  1  1  0  0  0
 22  6  1  0  0  0  0
 23 10  2  0  0  0  0
 24  2  1  0  0  0  0
 25 21  1  1  0  0  0
 25 19  1  0  0  0  0
 25 18  1  0  0  0  0
 29 30  1  0  0  0  0
 30 31  1  0  0  0  0
 30 23  1  6  0  0  0
 33 34  1  0  0  0  0
 34 32  1  6  0  0  0
 34 31  1  0  0  0  0
 35 33  1  0  0  0  0
 35 29  1  0  0  0  0
 36 37  1  0  0  0  0
 37  4  1  0  0  0  0
M  END
>  <MODEL>
1

>  <REMARK>
 VINA RESULT:      -6.2      0.000      0.000
  Name = 
  2 active torsions:
  status: ('A' for Active; 'I' for Inactive)
    1  A    between atoms: N_5  and  C_23
    2  A    between atoms: C_6  and  C_31
                            x       y       z     vdW  Elec       q    Type
                         _______ _______ _______ _____ _____    ______ ____

>  <TORSDO>
F 2

$$$$
=
 OpenBabel11052415183D

 37 41  0  0  1  0  0  0  0  0999 V2000
  183.2530  178.4080  140.7190 C   0  0  1  0  0  0  0  0  0  0  0  0
  180.9140  177.0140  138.4380 C   0  0  0  0  0  0  0  0  0  0  0  0
  183.6700  174.9480  137.9050 C   0  0  0  0  0  2  0  0  0  0  0  0
  183.3260  178.4650  142.2240 N   0  0  0  0  0  0  0  0  0  0  0  0
  187.3600  177.4420  138.9560 C   0  0  0  0  0  2  0  0  0  0  0  0
  181.0340  174.9040  136.9780 C   0  0  0  0  0  2  0  0  0  0  0  0
  185.6210  178.5550  137.5270 C   0  0  0  0  0  1  0  0  0  0  0  0
  185.6150  177.8760  142.1020 C   0  0  1  0  0  3  0  0  0  0  0  0
  183.1500  176.3050  137.4530 C   0  0  0  0  0  2  0  0  0  0  0  0
  187.0750  175.4010  137.6280 C   0  0  0  0  0  0  0  0  0  0  0  0
  181.5850  174.1710  135.7460 C   0  0  0  0  0  2  0  0  0  0  0  0
  184.6490  178.9000  142.6650 C   0  0  2  0  0  3  0  0  0  0  0  0
  181.8190  178.7010  140.2130 C   0  0  0  0  0  2  0  0  0  0  0  0
  180.8660  176.0900  139.6590 C   0  0  0  0  0  1  0  0  0  0  0  0
  185.4460  174.2830  136.2510 C   0  0  0  0  0  2  0  0  0  0  0  0
  183.0940  174.2990  135.4940 C   0  0  0  0  0  2  0  0  0  0  0  0
  181.6090  178.3660  138.7310 C   0  0  0  0  0  2  0  0  0  0  0  0
  186.3870  178.8160  141.2130 C   0  0  0  0  0  2  0  0  0  0  0  0
  185.9140  177.9780  138.9090 C   0  0  2  0  0  3  0  0  0  0  0  0
  184.0070  174.0470  136.7070 C   0  0  2  0  0  3  0  0  0  0  0  0
  184.2390  179.4190  140.0160 C   0  0  0  0  0  2  0  0  0  0  0  0
  181.6230  176.3110  137.2550 C   0  0  2  0  0  3  0  0  0  0  0  0
  187.7240  176.5220  137.8260 C   0  0  0  0  0  0  0  0  0  0  0  0
  179.4820  177.3240  138.0390 C   0  0  0  0  0  1  0  0  0  0  0  0
  185.6790  179.0250  139.9230 N   0  0  1  0  0  0  0  0  0  0  0  0
  185.4370  178.0280  143.6030 C   0  0  0  0  0  2  0  0  0  0  0  0
  183.5760  177.1060  140.3290 O   0  0  0  0  0  1  0  0  0  0  0  0
  186.4230  174.2980  137.3810 C   0  0  0  0  0  3  0  0  0  0  0  0
  188.3440  177.1600  135.4890 C   0  0  0  0  0  2  0  0  0  0  0  0
  188.8440  176.9320  136.9180 C   0  0  2  0  0  3  0  0  0  0  0  0
  189.9800  175.9060  136.9410 C   0  0  0  0  0  2  0  0  0  0  0  0
  192.1670  175.3570  136.0340 N   0  0  0  0  0  1  0  0  0  0  0  0
  190.6110  176.5650  134.6090 C   0  0  0  0  0  2  0  0  0  0  0  0
  191.1190  176.3600  136.0330 C   0  0  1  0  0  3  0  0  0  0  0  0
  189.4960  177.6070  134.5940 C   0  0  0  0  0  2  0  0  0  0  0  0
  181.6530  178.7130  143.9620 N   0  0  0  0  0  1  0  0  0  0  0  0
  182.3390  179.3620  142.8520 C   0  0  0  0  0  2  0  0  0  0  0  0
  1 27  1  6  0  0  0
  1  4  1  0  0  0  0
  2 17  1  0  0  0  0
  2 14  1  0  0  0  0
  4 12  1  0  0  0  0
  4 37  1  0  0  0  0
  8 18  1  1  0  0  0
  8 12  1  0  0  0  0
  8 26  1  0  0  0  0
  9  3  1  0  0  0  0
 10 23  2  0  0  0  0
 11  6  1  0  0  0  0
 12 26  1  1  0  0  0
 13  1  1  0  0  0  0
 15 20  1  0  0  0  0
 15 28  1  0  0  0  0
 16 11  1  0  0  0  0
 17 13  1  0  0  0  0
 19  7  1  6  0  0  0
 19  5  1  0  0  0  0
 19 25  1  0  0  0  0
 20 16  1  6  0  0  0
 20  3  1  0  0  0  0
 21  1  1  0  0  0  0
 22  6  1  1  0  0  0
 22  9  1  0  0  0  0
 22  2  1  0  0  0  0
 23  5  1  0  0  0  0
 24  2  1  0  0  0  0
 25 21  1  1  0  0  0
 25 18  1  0  0  0  0
 28 10  2  0  0  0  0
 29 30  1  0  0  0  0
 30 31  1  0  0  0  0
 30 23  1  1  0  0  0
 33 34  1  0  0  0  0
 34 32  1  6  0  0  0
 34 31  1  0  0  0  0
 35 33  1  0  0  0  0
 35 29  1  0  0  0  0
 37 36  1  0  0  0  0
M  END
>  <MODEL>
2

>  <REMARK>
 VINA RESULT:      -5.8      3.529      7.578
  Name = 
  2 active torsions:
  status: ('A' for Active; 'I' for Inactive)
    1  A    between atoms: N_5  and  C_23
    2  A    between atoms: C_6  and  C_31
                            x       y       z     vdW  Elec       q    Type
                         _______ _______ _______ _____ _____    ______ ____

>  <TORSDO>
F 2

$$$$
=
 OpenBabel11052415183D

 37 41  0  0  1  0  0  0  0  0999 V2000
  181.6760  176.8960  138.0140 C   0  0  1  0  0  0  0  0  0  0  0  0
  180.4630  174.1750  136.0800 C   0  0  0  0  0  0  0  0  0  0  0  0
  183.5760  172.9530  137.0610 C   0  0  0  0  0  2  0  0  0  0  0  0
  181.2640  177.4940  139.3360 N   0  0  0  0  0  0  0  0  0  0  0  0
  186.2330  176.6170  137.7390 C   0  0  0  0  0  2  0  0  0  0  0  0
  181.4160  171.8210  135.6970 C   0  0  0  0  0  2  0  0  0  0  0  0
  184.8540  176.6010  135.6400 C   0  0  0  0  0  1  0  0  0  0  0  0
  183.5440  177.5940  139.9640 C   0  0  1  0  0  3  0  0  0  0  0  0
  182.9840  173.8520  135.9850 C   0  0  0  0  0  2  0  0  0  0  0  0
  186.7540  174.2520  137.3570 C   0  0  0  0  0  0  0  0  0  0  0  0
  182.4480  170.8980  135.0320 C   0  0  0  0  0  2  0  0  0  0  0  0
  182.2810  178.4220  139.8270 C   0  0  2  0  0  3  0  0  0  0  0  0
  180.4440  176.5620  137.1390 C   0  0  0  0  0  2  0  0  0  0  0  0
  180.2060  173.7660  137.5340 C   0  0  0  0  0  1  0  0  0  0  0  0
  185.8690  172.3010  136.2570 C   0  0  0  0  0  2  0  0  0  0  0  0
  183.9100  171.3640  135.0790 C   0  0  0  0  0  2  0  0  0  0  0  0
  180.7720  175.6840  135.9240 C   0  0  0  0  0  2  0  0  0  0  0  0
  184.3690  178.3460  138.9520 C   0  0  0  0  0  2  0  0  0  0  0  0
  184.8010  176.6560  137.1650 C   0  0  2  0  0  3  0  0  0  0  0  0
  184.4280  171.8300  136.4510 C   0  0  2  0  0  3  0  0  0  0  0  0
  182.6310  177.8380  137.1830 C   0  0  0  0  0  2  0  0  0  0  0  0
  181.6210  173.3420  135.4800 C   0  0  2  0  0  3  0  0  0  0  0  0
  187.0930  175.5090  137.2030 C   0  0  0  0  0  0  0  0  0  0  0  0
  179.1960  173.8940  135.2920 C   0  0  0  0  0  1  0  0  0  0  0  0
  184.0740  177.8740  137.5730 N   0  0  1  0  0  0  0  0  0  0  0  0
  182.8820  178.2040  141.1880 C   0  0  0  0  0  2  0  0  0  0  0  0
  182.3370  175.6950  138.2820 O   0  0  0  0  0  1  0  0  0  0  0  0
  186.4250  172.9940  137.4580 C   0  0  0  0  0  3  0  0  0  0  0  0
  188.6470  174.8890  135.3450 C   0  0  0  0  0  2  0  0  0  0  0  0
  188.3450  175.8830  136.4700 C   0  0  2  0  0  3  0  0  0  0  0  0
  189.5350  175.9990  137.4270 C   0  0  0  0  0  2  0  0  0  0  0  0
  191.9140  176.4720  137.5760 N   0  0  0  0  0  1  0  0  0  0  0  0
  191.0880  175.4000  135.5560 C   0  0  0  0  0  2  0  0  0  0  0  0
  190.7890  176.4080  136.6610 C   0  0  1  0  0  3  0  0  0  0  0  0
  189.9070  175.3100  134.5940 C   0  0  0  0  0  2  0  0  0  0  0  0
  180.1890  179.6670  139.2530 N   0  0  0  0  0  1  0  0  0  0  0  0
  179.9850  178.2240  139.3050 C   0  0  0  0  0  2  0  0  0  0  0  0
  1 27  1  1  0  0  0
  1  4  1  0  0  0  0
  2 14  1  0  0  0  0
  4 12  1  0  0  0  0
  8 18  1  6  0  0  0
  8 26  1  0  0  0  0
  9  3  1  0  0  0  0
 10 28  2  0  0  0  0
 11 16  1  0  0  0  0
 11  6  1  0  0  0  0
 12  8  1  0  0  0  0
 12 26  1  1  0  0  0
 13  1  1  0  0  0  0
 15 20  1  0  0  0  0
 15 28  1  0  0  0  0
 17  2  1  0  0  0  0
 17 13  1  0  0  0  0
 19  7  1  6  0  0  0
 19 25  1  0  0  0  0
 19  5  1  0  0  0  0
 20 16  1  6  0  0  0
 20  3  1  0  0  0  0
 21  1  1  0  0  0  0
 22  6  1  1  0  0  0
 22  9  1  0  0  0  0
 22  2  1  0  0  0  0
 23 10  2  0  0  0  0
 23  5  1  0  0  0  0
 24  2  1  0  0  0  0
 25 21  1  1  0  0  0
 25 18  1  0  0  0  0
 29 30  1  0  0  0  0
 30 23  1  1  0  0  0
 30 31  1  0  0  0  0
 33 34  1  0  0  0  0
 34 31  1  0  0  0  0
 34 32  1  1  0  0  0
 35 29  1  0  0  0  0
 35 33  1  0  0  0  0
 36 37  1  0  0  0  0
 37  4  1  0  0  0  0
M  END
>  <MODEL>
3

>  <REMARK>
 VINA RESULT:      -5.7      2.883      7.084
  Name = 
  2 active torsions:
  status: ('A' for Active; 'I' for Inactive)
    1  A    between atoms: N_5  and  C_23
    2  A    between atoms: C_6  and  C_31
                            x       y       z     vdW  Elec       q    Type
                         _______ _______ _______ _____ _____    ______ ____

>  <TORSDO>
F 2

$$$$
=
 OpenBabel11052415183D

 37 41  0  0  1  0  0  0  0  0999 V2000
  181.6590  179.3910  140.8810 C   0  0  1  0  0  0  0  0  0  0  0  0
  183.6330  178.6980  143.7520 C   0  0  0  0  0  0  0  0  0  0  0  0
  186.0960  178.9350  141.2960 C   0  0  0  0  0  2  0  0  0  0  0  0
  180.8290  180.5750  140.4540 N   0  0  0  0  0  0  0  0  0  0  0  0
  184.0830  177.7850  137.3510 C   0  0  0  0  0  2  0  0  0  0  0  0
  186.1810  178.6530  144.0750 C   0  0  0  0  0  2  0  0  0  0  0  0
  183.6210  176.3010  139.3230 C   0  0  0  0  0  1  0  0  0  0  0  0
  181.7670  180.4110  138.2880 C   0  0  1  0  0  3  0  0  0  0  0  0
  185.1180  177.9050  141.8440 C   0  0  0  0  0  2  0  0  0  0  0  0
  186.4360  177.8790  138.0340 C   0  0  0  0  0  0  0  0  0  0  0  0
  187.5350  177.9590  143.8630 C   0  0  0  0  0  2  0  0  0  0  0  0
  180.4550  180.4690  139.0450 C   0  0  2  0  0  3  0  0  0  0  0  0
  181.4430  179.0610  142.3770 C   0  0  0  0  0  2  0  0  0  0  0  0
  183.7490  180.2130  143.5540 C   0  0  0  0  0  1  0  0  0  0  0  0
  187.8210  177.6500  139.9910 C   0  0  0  0  0  2  0  0  0  0  0  0
  187.8140  177.4240  142.4510 C   0  0  0  0  0  2  0  0  0  0  0  0
  182.4700  178.0720  142.9450 C   0  0  0  0  0  2  0  0  0  0  0  0
  181.5830  179.0340  137.7030 C   0  0  0  0  0  2  0  0  0  0  0  0
  183.4200  177.6980  138.7410 C   0  0  2  0  0  3  0  0  0  0  0  0
  187.5350  178.3990  141.2920 C   0  0  2  0  0  3  0  0  0  0  0  0
  181.3550  178.0910  140.0410 C   0  0  0  0  0  2  0  0  0  0  0  0
  184.9620  178.0010  143.3730 C   0  0  2  0  0  3  0  0  0  0  0  0
  185.5070  177.3100  137.3050 C   0  0  0  0  0  0  0  0  0  0  0  0
  183.3460  178.4460  145.2210 C   0  0  0  0  0  1  0  0  0  0  0  0
  181.9730  177.9870  138.6830 N   0  0  1  0  0  0  0  0  0  0  0  0
  180.8170  181.5820  138.1010 C   0  0  0  0  0  2  0  0  0  0  0  0
  183.0030  179.7370  140.7190 O   0  0  0  0  0  1  0  0  0  0  0  0
  187.3750  178.3970  138.7770 C   0  0  0  0  0  3  0  0  0  0  0  0
  184.5630  175.5280  135.8260 C   0  0  0  0  0  2  0  0  0  0  0  0
  185.8330  176.1520  136.4110 C   0  0  2  0  0  3  0  0  0  0  0  0
  186.6680  175.1010  137.1470 C   0  0  0  0  0  2  0  0  0  0  0  0
  187.7650  172.9430  136.9330 N   0  0  0  0  0  1  0  0  0  0  0  0
  185.7370  173.3240  135.6470 C   0  0  0  0  0  2  0  0  0  0  0  0
  187.0110  173.9480  136.2080 C   0  0  1  0  0  3  0  0  0  0  0  0
  184.9250  174.3740  134.8940 C   0  0  0  0  0  2  0  0  0  0  0  0
  178.9320  182.0210  140.8950 N   0  0  0  0  0  1  0  0  0  0  0  0
  179.5860  180.7600  141.2230 C   0  0  0  0  0  2  0  0  0  0  0  0
  1 27  1  6  0  0  0
  1 13  1  0  0  0  0
  2 24  1  0  0  0  0
  3  9  1  0  0  0  0
  4  1  1  0  0  0  0
  4 37  1  0  0  0  0
  5 19  1  0  0  0  0
  8 18  1  6  0  0  0
  8 12  1  0  0  0  0
 10 28  2  0  0  0  0
 11  6  1  0  0  0  0
 12 26  1  6  0  0  0
 12  4  1  0  0  0  0
 13 17  1  0  0  0  0
 14  2  1  0  0  0  0
 16 11  1  0  0  0  0
 17  2  1  0  0  0  0
 19  7  1  6  0  0  0
 20 15  1  6  0  0  0
 20  3  1  0  0  0  0
 20 16  1  0  0  0  0
 21  1  1  0  0  0  0
 22  9  1  6  0  0  0
 22  2  1  0  0  0  0
 22  6  1  0  0  0  0
 23  5  1  0  0  0  0
 23 10  2  0  0  0  0
 25 18  1  1  0  0  0
 25 19  1  0  0  0  0
 25 21  1  0  0  0  0
 26  8  1  0  0  0  0
 28 15  1  0  0  0  0
 29 30  1  0  0  0  0
 30 31  1  0  0  0  0
 30 23  1  1  0  0  0
 33 34  1  0  0  0  0
 34 32  1  1  0  0  0
 34 31  1  0  0  0  0
 35 33  1  0  0  0  0
 35 29  1  0  0  0  0
 36 37  1  0  0  0  0
M  END
>  <MODEL>
4

>  <REMARK>
 VINA RESULT:      -5.4      3.461      7.387
  Name = 
  2 active torsions:
  status: ('A' for Active; 'I' for Inactive)
    1  A    between atoms: N_5  and  C_23
    2  A    between atoms: C_6  and  C_31
                            x       y       z     vdW  Elec       q    Type
                         _______ _______ _______ _____ _____    ______ ____

>  <TORSDO>
F 2

$$$$
=
 OpenBabel11052415183D

 37 41  0  0  1  0  0  0  0  0999 V2000
  186.1190  178.4670  141.4610 C   0  0  1  0  0  0  0  0  0  0  0  0
  183.5590  178.7390  139.0140 C   0  0  0  0  0  0  0  0  0  0  0  0
  185.4460  176.1140  137.7100 C   0  0  0  0  0  2  0  0  0  0  0  0
  186.1320  178.0320  142.9050 N   0  0  0  0  0  0  0  0  0  0  0  0
  189.7160  176.7260  139.2370 C   0  0  0  0  0  2  0  0  0  0  0  0
  183.0100  177.2710  136.9780 C   0  0  0  0  0  2  0  0  0  0  0  0
  188.5480  178.7520  138.3240 C   0  0  0  0  0  1  0  0  0  0  0  0
  188.0750  176.7540  142.4680 C   0  0  1  0  0  3  0  0  0  0  0  0
  185.4550  177.6360  137.7240 C   0  0  0  0  0  2  0  0  0  0  0  0
  188.8040  175.4200  137.3730 C   0  0  0  0  0  0  0  0  0  0  0  0
  183.3320  176.8070  135.5500 C   0  0  0  0  0  2  0  0  0  0  0  0
  187.5000  177.8250  143.3740 C   0  0  2  0  0  3  0  0  0  0  0  0
  184.9050  179.3780  141.1580 C   0  0  0  0  0  2  0  0  0  0  0  0
  183.1310  177.5630  139.8970 C   0  0  0  0  0  1  0  0  0  0  0  0
  186.9600  175.4150  135.8250 C   0  0  0  0  0  2  0  0  0  0  0  0
  184.8020  176.4750  135.2560 C   0  0  0  0  0  2  0  0  0  0  0  0
  184.6660  179.6070  139.6600 C   0  0  0  0  0  2  0  0  0  0  0  0
  189.1700  177.5920  141.8610 C   0  0  0  0  0  2  0  0  0  0  0  0
  188.5510  177.7160  139.4450 C   0  0  2  0  0  3  0  0  0  0  0  0
  185.5070  175.5640  136.2770 C   0  0  2  0  0  3  0  0  0  0  0  0
  187.4300  179.2360  141.0390 C   0  0  0  0  0  2  0  0  0  0  0  0
  184.0370  178.2310  137.6320 C   0  0  2  0  0  3  0  0  0  0  0  0
  189.7930  176.1290  137.8610 C   0  0  0  0  0  0  0  0  0  0  0  0
  182.3470  179.6320  138.8170 C   0  0  0  0  0  1  0  0  0  0  0  0
  188.6450  178.4170  140.7410 N   0  0  1  0  0  0  0  0  0  0  0  0
  187.8870  176.4920  143.9530 C   0  0  0  0  0  2  0  0  0  0  0  0
  185.9880  177.3200  140.6750 O   0  0  0  0  0  1  0  0  0  0  0  0
  187.8220  174.7440  136.8430 C   0  0  0  0  0  3  0  0  0  0  0  0
  190.9130  175.7690  135.6550 C   0  0  0  0  0  2  0  0  0  0  0  0
  191.0300  176.3820  137.0530 C   0  0  2  0  0  3  0  0  0  0  0  0
  192.2780  175.8640  137.7720 C   0  0  0  0  0  2  0  0  0  0  0  0
  194.6920  175.6250  137.6190 N   0  0  0  0  0  1  0  0  0  0  0  0
  193.4020  175.5270  135.5600 C   0  0  0  0  0  2  0  0  0  0  0  0
  193.5250  176.1590  136.9430 C   0  0  1  0  0  3  0  0  0  0  0  0
  192.1690  176.0680  134.8420 C   0  0  0  0  0  2  0  0  0  0  0  0
  185.0950  178.3250  145.0780 N   0  0  0  0  0  1  0  0  0  0  0  0
  185.4890  178.9770  143.8350 C   0  0  0  0  0  2  0  0  0  0  0  0
  1 27  1  6  0  0  0
  1  4  1  0  0  0  0
  2 17  1  0  0  0  0
  2 14  1  0  0  0  0
  3  9  1  0  0  0  0
  4 12  1  0  0  0  0
  4 37  1  0  0  0  0
  5 19  1  0  0  0  0
  8 18  1  1  0  0  0
  8 12  1  0  0  0  0
  8 26  1  0  0  0  0
 10 23  2  0  0  0  0
 11  6  1  0  0  0  0
 12 26  1  1  0  0  0
 13  1  1  0  0  0  0
 15 20  1  0  0  0  0
 15 28  1  0  0  0  0
 16 11  1  0  0  0  0
 17 13  1  0  0  0  0
 19  7  1  6  0  0  0
 19 25  1  0  0  0  0
 20 16  1  6  0  0  0
 20  3  1  0  0  0  0
 21  1  1  0  0  0  0
 22  6  1  1  0  0  0
 22  9  1  0  0  0  0
 22  2  1  0  0  0  0
 23  5  1  0  0  0  0
 24  2  1  0  0  0  0
 25 21  1  1  0  0  0
 25 18  1  0  0  0  0
 28 10  2  0  0  0  0
 29 30  1  0  0  0  0
 30 31  1  0  0  0  0
 30 23  1  1  0  0  0
 33 34  1  0  0  0  0
 34 32  1  1  0  0  0
 34 31  1  0  0  0  0
 35 33  1  0  0  0  0
 35 29  1  0  0  0  0
 37 36  1  0  0  0  0
M  END
>  <MODEL>
5

>  <REMARK>
 VINA RESULT:      -5.4      4.864      9.044
  Name = 
  2 active torsions:
  status: ('A' for Active; 'I' for Inactive)
    1  A    between atoms: N_5  and  C_23
    2  A    between atoms: C_6  and  C_31
                            x       y       z     vdW  Elec       q    Type
                         _______ _______ _______ _____ _____    ______ ____

>  <TORSDO>
F 2

$$$$
=
 OpenBabel11052415183D

 37 41  0  0  1  0  0  0  0  0999 V2000
  185.4480  174.4590  136.1970 C   0  0  1  0  0  0  0  0  0  0  0  0
  183.5140  171.4830  136.0580 C   0  0  0  0  0  0  0  0  0  0  0  0
  181.0700  173.8910  135.4430 C   0  0  0  0  0  2  0  0  0  0  0  0
  186.5300  175.0350  135.3180 N   0  0  0  0  0  0  0  0  0  0  0  0
  182.5170  177.7300  137.4700 C   0  0  0  0  0  2  0  0  0  0  0  0
  181.0590  171.0970  135.4090 C   0  0  0  0  0  2  0  0  0  0  0  0
  182.6860  175.6160  138.8140 C   0  0  0  0  0  1  0  0  0  0  0  0
  185.4710  177.1460  135.4530 C   0  0  1  0  0  3  0  0  0  0  0  0
  181.7800  173.2550  136.6290 C   0  0  0  0  0  2  0  0  0  0  0  0
  180.3040  177.0060  136.7010 C   0  0  0  0  0  0  0  0  0  0  0  0
  179.5640  171.1980  135.7460 C   0  0  0  0  0  2  0  0  0  0  0  0
  186.7910  176.4310  135.6600 C   0  0  2  0  0  3  0  0  0  0  0  0
  185.6500  172.9400  136.4180 C   0  0  0  0  0  2  0  0  0  0  0  0
  183.7780  171.8450  134.5940 C   0  0  0  0  0  1  0  0  0  0  0  0
  179.0090  175.0040  136.3630 C   0  0  0  0  0  2  0  0  0  0  0  0
  179.0850  172.5340  136.3310 C   0  0  0  0  0  2  0  0  0  0  0  0
  184.4360  172.2420  137.0430 C   0  0  0  0  0  2  0  0  0  0  0  0
  185.2670  177.5780  136.8820 C   0  0  0  0  0  2  0  0  0  0  0  0
  183.2070  176.3540  137.5840 C   0  0  2  0  0  3  0  0  0  0  0  0
  179.5430  173.8010  135.5850 C   0  0  2  0  0  3  0  0  0  0  0  0
  185.3670  175.1560  137.6100 C   0  0  0  0  0  2  0  0  0  0  0  0
  182.0330  171.7500  136.4220 C   0  0  2  0  0  3  0  0  0  0  0  0
  181.0180  177.6890  137.5620 C   0  0  0  0  0  0  0  0  0  0  0  0
  183.8020  170.0020  136.2260 C   0  0  0  0  0  1  0  0  0  0  0  0
  184.6740  176.4780  137.6880 N   0  0  1  0  0  0  0  0  0  0  0  0
  186.6770  177.4850  134.5940 C   0  0  0  0  0  2  0  0  0  0  0  0
  184.2310  174.6270  135.5330 O   0  0  0  0  0  1  0  0  0  0  0  0
  179.5680  176.3040  135.8840 C   0  0  0  0  0  3  0  0  0  0  0  0
  181.1460  179.7070  139.0330 C   0  0  0  0  0  2  0  0  0  0  0  0
  180.3620  178.4400  138.6810 C   0  0  2  0  0  3  0  0  0  0  0  0
  180.1790  177.5520  139.9140 C   0  0  0  0  0  2  0  0  0  0  0  0
  179.3570  177.4870  142.2000 N   0  0  0  0  0  1  0  0  0  0  0  0
  180.2840  179.5800  141.3800 C   0  0  0  0  0  2  0  0  0  0  0  0
  179.4830  178.3300  141.0260 C   0  0  1  0  0  3  0  0  0  0  0  0
  180.4390  180.4700  140.1500 C   0  0  0  0  0  2  0  0  0  0  0  0
  188.7630  174.9960  136.2650 N   0  0  0  0  0  1  0  0  0  0  0  0
  187.8170  174.3200  135.3840 C   0  0  0  0  0  2  0  0  0  0  0  0
  1 27  1  6  0  0  0
  1 13  1  0  0  0  0
  1 21  1  0  0  0  0
  2 24  1  0  0  0  0
  2 22  1  0  0  0  0
  2 17  1  0  0  0  0
  3  9  1  0  0  0  0
  4 37  1  0  0  0  0
  4 12  1  0  0  0  0
  4  1  1  0  0  0  0
  5 23  1  0  0  0  0
  5 19  1  0  0  0  0
  6 11  1  0  0  0  0
  8 26  1  6  0  0  0
  8 12  1  0  0  0  0
  8 18  1  0  0  0  0
 10 23  2  0  0  0  0
 11 16  1  0  0  0  0
 12 26  1  6  0  0  0
 13 17  1  0  0  0  0
 14  2  1  0  0  0  0
 19 25  1  0  0  0  0
 19  7  1  1  0  0  0
 20  3  1  1  0  0  0
 20 16  1  0  0  0  0
 20 15  1  0  0  0  0
 21 25  1  0  0  0  0
 22  6  1  6  0  0  0
 22  9  1  0  0  0  0
 25 18  1  6  0  0  0
 28 15  1  0  0  0  0
 28 10  2  0  0  0  0
 29 35  1  0  0  0  0
 30 23  1  6  0  0  0
 30 29  1  0  0  0  0
 30 31  1  0  0  0  0
 31 34  1  0  0  0  0
 34 33  1  0  0  0  0
 34 32  1  1  0  0  0
 35 33  1  0  0  0  0
 37 36  1  0  0  0  0
M  END
>  <MODEL>
6

>  <REMARK>
 VINA RESULT:      -5.3      3.032      6.082
  Name = 
  2 active torsions:
  status: ('A' for Active; 'I' for Inactive)
    1  A    between atoms: N_5  and  C_23
    2  A    between atoms: C_6  and  C_31
                            x       y       z     vdW  Elec       q    Type
                         _______ _______ _______ _____ _____    ______ ____

>  <TORSDO>
F 2

$$$$
=
 OpenBabel11052415183D

 37 41  0  0  1  0  0  0  0  0999 V2000
  186.8060  177.8580  138.7750 C   0  0  1  0  0  0  0  0  0  0  0  0
  184.4980  176.2690  136.5920 C   0  0  0  0  0  0  0  0  0  0  0  0
  186.9580  173.8140  136.8560 C   0  0  0  0  0  2  0  0  0  0  0  0
  186.7540  178.2540  140.2300 N   0  0  0  0  0  0  0  0  0  0  0  0
  190.8670  176.0120  137.7670 C   0  0  0  0  0  2  0  0  0  0  0  0
  184.4360  173.8790  135.6540 C   0  0  0  0  0  2  0  0  0  0  0  0
  189.4420  176.9660  135.9330 C   0  0  0  0  0  1  0  0  0  0  0  0
  188.9330  177.3770  140.5120 C   0  0  1  0  0  3  0  0  0  0  0  0
  186.6840  175.0820  136.0600 C   0  0  0  0  0  2  0  0  0  0  0  0
  190.4030  173.7680  136.8940 C   0  0  0  0  0  0  0  0  0  0  0  0
  184.9800  172.8170  134.6870 C   0  0  0  0  0  2  0  0  0  0  0  0
  188.0830  178.6150  140.7190 C   0  0  2  0  0  3  0  0  0  0  0  0
  185.4810  178.1980  138.0510 C   0  0  0  0  0  2  0  0  0  0  0  0
  184.2080  175.6680  137.9710 C   0  0  0  0  0  1  0  0  0  0  0  0
  188.7560  172.5700  135.6100 C   0  0  0  0  0  2  0  0  0  0  0  0
  186.5070  172.6970  134.5940 C   0  0  0  0  0  2  0  0  0  0  0  0
  185.3550  177.5560  136.6630 C   0  0  0  0  0  2  0  0  0  0  0  0
  189.9100  177.9820  139.5380 C   0  0  0  0  0  2  0  0  0  0  0  0
  189.5240  176.6950  137.4330 C   0  0  2  0  0  3  0  0  0  0  0  0
  187.2630  172.6240  135.9330 C   0  0  2  0  0  3  0  0  0  0  0  0
  187.9880  178.5480  137.9910 C   0  0  0  0  0  2  0  0  0  0  0  0
  185.1970  175.2280  135.6850 C   0  0  2  0  0  3  0  0  0  0  0  0
  191.1900  174.8170  136.9180 C   0  0  0  0  0  0  0  0  0  0  0  0
  183.1680  176.6510  135.9680 C   0  0  0  0  0  1  0  0  0  0  0  0
  189.3560  177.9700  138.1580 N   0  0  1  0  0  0  0  0  0  0  0  0
  188.6490  177.8950  141.9120 C   0  0  0  0  0  2  0  0  0  0  0  0
  186.9680  176.4720  138.7210 O   0  0  0  0  0  1  0  0  0  0  0  0
  189.6210  172.7270  136.8180 C   0  0  0  0  0  3  0  0  0  0  0  0
  193.3140  173.6350  136.3300 C   0  0  0  0  0  2  0  0  0  0  0  0
  192.4330  174.8630  136.0820 C   0  0  2  0  0  3  0  0  0  0  0  0
  193.2190  176.1540  136.3270 C   0  0  0  0  0  2  0  0  0  0  0  0
  195.2160  177.3990  135.7190 N   0  0  0  0  0  1  0  0  0  0  0  0
  195.3390  174.9710  135.7140 C   0  0  0  0  0  2  0  0  0  0  0  0
  194.4620  176.1900  135.4440 C   0  0  1  0  0  3  0  0  0  0  0  0
  194.5550  173.6900  135.4440 C   0  0  0  0  0  2  0  0  0  0  0  0
  185.3880  179.3560  141.9040 N   0  0  0  0  0  1  0  0  0  0  0  0
  185.8580  179.3860  140.5240 C   0  0  0  0  0  2  0  0  0  0  0  0
  1 27  1  6  0  0  0
  1  4  1  0  0  0  0
  2 17  1  0  0  0  0
  2 14  1  0  0  0  0
  4 37  1  0  0  0  0
  4 12  1  0  0  0  0
  8 18  1  6  0  0  0
  8 12  1  0  0  0  0
  8 26  1  0  0  0  0
  9  3  1  0  0  0  0
 10 23  2  0  0  0  0
 11  6  1  0  0  0  0
 12 26  1  1  0  0  0
 13  1  1  0  0  0  0
 15 20  1  0  0  0  0
 15 28  1  0  0  0  0
 16 11  1  0  0  0  0
 17 13  1  0  0  0  0
 19  7  1  6  0  0  0
 19  5  1  0  0  0  0
 19 25  1  0  0  0  0
 20 16  1  6  0  0  0
 20  3  1  0  0  0  0
 21  1  1  0  0  0  0
 22  6  1  1  0  0  0
 22  9  1  0  0  0  0
 22  2  1  0  0  0  0
 23  5  1  0  0  0  0
 24  2  1  0  0  0  0
 25 21  1  1  0  0  0
 25 18  1  0  0  0  0
 28 10  2  0  0  0  0
 30 31  1  0  0  0  0
 30 29  1  0  0  0  0
 30 23  1  1  0  0  0
 34 33  1  0  0  0  0
 34 32  1  1  0  0  0
 34 31  1  0  0  0  0
 35 33  1  0  0  0  0
 35 29  1  0  0  0  0
 37 36  1  0  0  0  0
M  END
>  <MODEL>
7

>  <REMARK>
 VINA RESULT:      -5.2      5.000      9.616
  Name = 
  2 active torsions:
  status: ('A' for Active; 'I' for Inactive)
    1  A    between atoms: N_5  and  C_23
    2  A    between atoms: C_6  and  C_31
                            x       y       z     vdW  Elec       q    Type
                         _______ _______ _______ _____ _____    ______ ____

>  <TORSDO>
F 2

$$$$
=
 OpenBabel11052415183D

 37 41  0  0  1  0  0  0  0  0999 V2000
  185.4750  173.1010  135.5280 C   0  0  1  0  0  0  0  0  0  0  0  0
  188.5490  174.8790  135.6060 C   0  0  0  0  0  0  0  0  0  0  0  0
  186.6960  176.6590  137.9610 C   0  0  0  0  0  2  0  0  0  0  0  0
  185.0680  171.7130  135.9540 N   0  0  0  0  0  0  0  0  0  0  0  0
  182.3040  176.1480  136.7840 C   0  0  0  0  0  2  0  0  0  0  0  0
  189.3650  176.7720  137.1390 C   0  0  0  0  0  2  0  0  0  0  0  0
  183.9060  176.7080  134.9330 C   0  0  0  0  0  1  0  0  0  0  0  0
  183.1330  172.6250  136.9650 C   0  0  1  0  0  3  0  0  0  0  0  0
  186.8820  176.6040  136.4510 C   0  0  0  0  0  2  0  0  0  0  0  0
  183.4490  177.7860  138.2040 C   0  0  0  0  0  0  0  0  0  0  0  0
  189.3280  178.2480  137.5610 C   0  0  0  0  0  2  0  0  0  0  0  0
  183.6130  171.5800  135.9760 C   0  0  2  0  0  3  0  0  0  0  0  0
  186.8340  173.0890  134.7870 C   0  0  0  0  0  2  0  0  0  0  0  0
  188.6020  173.9530  136.8260 C   0  0  0  0  0  1  0  0  0  0  0  0
  185.5880  178.8620  138.4590 C   0  0  0  0  0  2  0  0  0  0  0  0
  187.9380  178.8850  137.6950 C   0  0  0  0  0  2  0  0  0  0  0  0
  187.4440  174.4830  134.5960 C   0  0  0  0  0  2  0  0  0  0  0  0
  182.3280  173.4460  135.9900 C   0  0  0  0  0  2  0  0  0  0  0  0
  183.5060  175.6480  135.9560 C   0  0  2  0  0  3  0  0  0  0  0  0
  186.9010  178.0820  138.5020 C   0  0  2  0  0  3  0  0  0  0  0  0
  184.4100  173.7950  134.5940 C   0  0  0  0  0  2  0  0  0  0  0  0
  188.3460  176.3470  136.0500 C   0  0  2  0  0  3  0  0  0  0  0  0
  182.4740  177.5200  137.3690 C   0  0  0  0  0  0  0  0  0  0  0  0
  189.8790  174.7630  134.8820 C   0  0  0  0  0  1  0  0  0  0  0  0
  183.2030  174.3890  135.2460 N   0  0  1  0  0  0  0  0  0  0  0  0
  182.9330  171.1450  137.2450 C   0  0  0  0  0  2  0  0  0  0  0  0
  185.6370  173.8670  136.6850 O   0  0  0  0  0  1  0  0  0  0  0  0
  184.4310  178.0920  139.0060 C   0  0  0  0  0  3  0  0  0  0  0  0
  181.5570  178.8310  135.4470 C   0  0  0  0  0  2  0  0  0  0  0  0
  181.5040  178.5860  136.9570 C   0  0  2  0  0  3  0  0  0  0  0  0
  181.7480  179.8860  137.7280 C   0  0  0  0  0  2  0  0  0  0  0  0
  181.0010  182.1810  138.0210 N   0  0  0  0  0  1  0  0  0  0  0  0
  180.8070  181.1910  135.8090 C   0  0  0  0  0  2  0  0  0  0  0  0
  180.7300  180.9440  137.3130 C   0  0  1  0  0  3  0  0  0  0  0  0
  180.5390  179.8950  135.0490 C   0  0  0  0  0  2  0  0  0  0  0  0
  184.5620  169.6520  134.7790 N   0  0  0  0  0  1  0  0  0  0  0  0
  185.5930  170.6330  135.0990 C   0  0  0  0  0  2  0  0  0  0  0  0
  1  4  1  0  0  0  0
  1 27  1  1  0  0  0
  2 22  1  0  0  0  0
  2 14  1  0  0  0  0
  3 20  1  0  0  0  0
  4 12  1  0  0  0  0
  5 23  1  0  0  0  0
  6 11  1  0  0  0  0
  8 18  1  6  0  0  0
  8 26  1  0  0  0  0
  9  3  1  0  0  0  0
 10 28  2  0  0  0  0
 11 16  1  0  0  0  0
 12  8  1  0  0  0  0
 12 26  1  1  0  0  0
 13  1  1  0  0  0  0
 15 20  1  0  0  0  0
 15 28  1  0  0  0  0
 17 13  1  0  0  0  0
 17  2  1  0  0  0  0
 19  7  1  6  0  0  0
 19  5  1  0  0  0  0
 20 16  1  6  0  0  0
 21  1  1  0  0  0  0
 22  9  1  1  0  0  0
 22  6  1  0  0  0  0
 23 10  2  0  0  0  0
 24  2  1  0  0  0  0
 25 21  1  1  0  0  0
 25 19  1  0  0  0  0
 25 18  1  0  0  0  0
 29 30  1  0  0  0  0
 30 23  1  1  0  0  0
 30 31  1  0  0  0  0
 33 34  1  0  0  0  0
 34 31  1  0  0  0  0
 34 32  1  1  0  0  0
 35 29  1  0  0  0  0
 35 33  1  0  0  0  0
 36 37  1  0  0  0  0
 37  4  1  0  0  0  0
M  END
>  <MODEL>
8

>  <REMARK>
 VINA RESULT:      -4.9      2.427      3.693
  Name = 
  2 active torsions:
  status: ('A' for Active; 'I' for Inactive)
    1  A    between atoms: N_5  and  C_23
    2  A    between atoms: C_6  and  C_31
                            x       y       z     vdW  Elec       q    Type
                         _______ _______ _______ _____ _____    ______ ____

>  <TORSDO>
F 2

$$$$
=
 OpenBabel11052415183D

 37 41  0  0  1  0  0  0  0  0999 V2000
  187.9270  177.2530  138.7190 C   0  0  1  0  0  0  0  0  0  0  0  0
  188.3260  178.3140  142.0860 C   0  0  0  0  0  0  0  0  0  0  0  0
  184.9110  177.6190  142.0100 C   0  0  0  0  0  2  0  0  0  0  0  0
  188.4000  176.0450  137.9500 N   0  0  0  0  0  0  0  0  0  0  0  0
  183.5800  178.2120  137.6730 C   0  0  0  0  0  2  0  0  0  0  0  0
  186.6780  178.3240  144.0570 C   0  0  0  0  0  2  0  0  0  0  0  0
  185.0490  179.9970  138.6520 C   0  0  0  0  0  1  0  0  0  0  0  0
  186.2390  175.8420  137.0060 C   0  0  1  0  0  3  0  0  0  0  0  0
  185.8580  178.7530  141.6470 C   0  0  0  0  0  2  0  0  0  0  0  0
  182.3350  178.1460  139.7840 C   0  0  0  0  0  0  0  0  0  0  0  0
  185.4580  178.9310  144.7660 C   0  0  0  0  0  2  0  0  0  0  0  0
  187.7130  175.9460  136.6640 C   0  0  2  0  0  3  0  0  0  0  0  0
  189.0470  177.8180  139.6270 C   0  0  0  0  0  2  0  0  0  0  0  0
  188.3050  176.7840  142.1590 C   0  0  0  0  0  1  0  0  0  0  0  0
  182.6090  178.6280  142.1270 C   0  0  0  0  0  2  0  0  0  0  0  0
  184.2370  179.2310  143.8850 C   0  0  0  0  0  2  0  0  0  0  0  0
  188.5510  178.8470  140.6500 C   0  0  0  0  0  2  0  0  0  0  0  0
  185.8020  177.1170  136.3330 C   0  0  0  0  0  2  0  0  0  0  0  0
  184.9860  178.5350  138.2190 C   0  0  2  0  0  3  0  0  0  0  0  0
  183.7890  178.1000  142.9430 C   0  0  2  0  0  3  0  0  0  0  0  0
  187.4160  178.4170  137.7860 C   0  0  0  0  0  2  0  0  0  0  0  0
  187.0110  178.9000  142.6570 C   0  0  2  0  0  3  0  0  0  0  0  0
  182.4490  178.6260  138.5690 C   0  0  0  0  0  0  0  0  0  0  0  0
  189.4890  178.8000  142.9320 C   0  0  0  0  0  1  0  0  0  0  0  0
  186.0400  178.2890  137.2150 N   0  0  1  0  0  0  0  0  0  0  0  0
  186.9590  174.6890  136.3270 C   0  0  0  0  0  2  0  0  0  0  0  0
  186.8830  176.8410  139.5520 O   0  0  0  0  0  1  0  0  0  0  0  0
  182.2160  177.7180  141.0100 C   0  0  0  0  0  3  0  0  0  0  0  0
  181.1800  179.3860  136.5530 C   0  0  0  0  0  2  0  0  0  0  0  0
  181.4600  179.6210  138.0410 C   0  0  2  0  0  3  0  0  0  0  0  0
  181.9300  181.0560  138.2860 C   0  0  0  0  0  2  0  0  0  0  0  0
  181.3750  183.4010  137.9690 N   0  0  0  0  0  1  0  0  0  0  0  0
  180.6380  181.8150  136.2800 C   0  0  0  0  0  2  0  0  0  0  0  0
  180.8940  182.0480  137.7660 C   0  0  1  0  0  3  0  0  0  0  0  0
  180.1460  180.3890  136.0480 C   0  0  0  0  0  2  0  0  0  0  0  0
  190.4310  174.7200  137.9670 N   0  0  0  0  0  1  0  0  0  0  0  0
  189.8480  176.0240  137.6750 C   0  0  0  0  0  2  0  0  0  0  0  0
  1 27  1  1  0  0  0
  1 13  1  0  0  0  0
  2 14  1  0  0  0  0
  2 22  1  0  0  0  0
  2 24  1  0  0  0  0
  4  1  1  0  0  0  0
  5 19  1  0  0  0  0
  5 23  1  0  0  0  0
  6 11  1  0  0  0  0
  8 26  1  6  0  0  0
  9  3  1  0  0  0  0
 10 28  2  0  0  0  0
 12 26  1  1  0  0  0
 12  8  1  0  0  0  0
 12  4  1  0  0  0  0
 13 17  1  0  0  0  0
 15 20  1  0  0  0  0
 16 11  1  0  0  0  0
 17  2  1  0  0  0  0
 18  8  1  0  0  0  0
 19  7  1  6  0  0  0
 20  3  1  6  0  0  0
 20 16  1  0  0  0  0
 21  1  1  0  0  0  0
 22  9  1  6  0  0  0
 22  6  1  0  0  0  0
 23 10  2  0  0  0  0
 25 18  1  1  0  0  0
 25 21  1  0  0  0  0
 25 19  1  0  0  0  0
 28 15  1  0  0  0  0
 29 30  1  0  0  0  0
 30 31  1  0  0  0  0
 30 23  1  6  0  0  0
 33 34  1  0  0  0  0
 34 32  1  6  0  0  0
 34 31  1  0  0  0  0
 35 33  1  0  0  0  0
 35 29  1  0  0  0  0
 37  4  1  0  0  0  0
 37 36  1  0  0  0  0
M  END
>  <MODEL>
9

>  <REMARK>
 VINA RESULT:      -4.0      3.832      6.447
  Name = 
  2 active torsions:
  status: ('A' for Active; 'I' for Inactive)
    1  A    between atoms: N_5  and  C_23
    2  A    between atoms: C_6  and  C_31
                            x       y       z     vdW  Elec       q    Type
                         _______ _______ _______ _____ _____    ______ ____

>  <TORSDO>
F 2

$$$$
