=
 OpenBabel11052414303D

 32 34  0  0  1  0  0  0  0  0999 V2000
  182.1130  178.5360  140.2110 C   0  0  2  0  0  3  0  0  0  0  0  0
  181.6640  176.0810  139.4960 C   0  0  2  0  0  3  0  0  0  0  0  0
  181.0710  177.4620  139.8290 C   0  0  2  0  0  3  0  0  0  0  0  0
  182.0010  175.9310  137.9960 C   0  0  1  0  0  3  0  0  0  0  0  0
  179.8370  174.3230  139.0880 C   0  0  1  0  0  3  0  0  0  0  0  0
  180.5550  173.5660  137.9460 C   0  0  2  0  0  3  0  0  0  0  0  0
  180.1340  177.9000  138.8640 O   0  0  0  0  0  0  0  0  0  0  0  0
  182.2540  174.1730  137.5470 S   0  0  0  0  0  0  0  0  0  0  0  0
  180.7670  177.9380  137.6090 C   0  0  0  0  0  2  0  0  0  0  0  0
  180.8060  174.9540  140.0870 C   0  0  0  0  0  2  0  0  0  0  0  0
  181.0030  176.5770  137.1290 N   0  0  0  0  0  0  0  0  0  0  0  0
  178.9310  175.2740  138.6110 O   0  0  0  0  0  1  0  0  0  0  0  0
  179.6910  173.3630  136.6900 C   0  0  0  0  0  3  0  0  0  0  0  0
  180.5450  173.3460  135.4340 C   0  0  0  0  0  1  0  0  0  0  0  0
  178.9380  172.0460  136.7580 C   0  0  0  0  0  1  0  0  0  0  0  0
  181.4790  176.6440  135.7410 C   0  0  0  0  0  2  0  0  0  0  0  0
  182.3080  177.8920  135.4400 C   0  0  0  0  0  1  0  0  0  0  0  0
  183.0330  177.9680  141.3030 C   0  0  1  0  0  3  0  0  0  0  0  0
  184.5290  177.9060  140.9550 C   0  0  2  0  0  3  0  0  0  0  0  0
  183.9990  178.9990  141.8580 C   0  0  2  0  0  3  0  0  0  0  0  0
  184.5930  180.0350  139.2980 O   0  0  0  0  0  0  0  0  0  0  0  0
  184.4130  177.8320  138.2750 O   0  0  0  0  0  0  0  0  0  0  0  0
  185.0590  178.6120  139.3860 S   0  0  0  0  0  0  0  0  0  0  0  0
  187.3900  178.5240  140.5140 C   0  0  0  0  0  1  0  0  0  0  0  0
  186.7840  178.5750  139.1930 N   0  0  0  0  0  2  0  0  0  0  0  0
  184.3250  178.6570  143.2990 C   0  0  0  0  0  2  0  0  0  0  0  0
  183.2370  179.1730  144.2210 C   0  0  0  0  0  2  0  0  0  0  0  0
  184.9810  179.0230  145.5620 C   0  0  0  0  0  1  0  0  0  0  0  0
  183.5890  178.9490  145.5530 O   0  0  0  0  0  0  0  0  0  0  0  0
  181.3950  179.7720  140.7620 C   0  0  0  0  0  2  0  0  0  0  0  0
  180.1080  180.5820  142.6090 O   0  0  0  0  0  1  0  0  0  0  0  0
  180.4460  179.4290  141.8990 C   0  0  0  0  0  2  0  0  0  0  0  0
  1 30  1  1  0  0  0
  2  3  1  0  0  0  0
  2 10  1  6  0  0  0
  3  1  1  6  0  0  0
  4  8  1  6  0  0  0
  4  2  1  0  0  0  0
  5 12  1  6  0  0  0
  5 10  1  0  0  0  0
  6 13  1  6  0  0  0
  6  5  1  0  0  0  0
  7  3  1  0  0  0  0
  8  6  1  0  0  0  0
  9  7  1  0  0  0  0
 11  9  1  0  0  0  0
 11  4  1  0  0  0  0
 13 15  1  0  0  0  0
 14 13  1  0  0  0  0
 16 11  1  0  0  0  0
 17 16  1  0  0  0  0
 18  1  1  6  0  0  0
 18 20  1  0  0  0  0
 19 23  1  6  0  0  0
 19 18  1  0  0  0  0
 19 20  1  0  0  0  0
 20 26  1  1  0  0  0
 21 23  2  0  0  0  0
 22 23  2  0  0  0  0
 25 23  1  0  0  0  0
 25 24  1  0  0  0  0
 26 27  1  0  0  0  0
 27 29  1  0  0  0  0
 29 28  1  0  0  0  0
 30 32  1  0  0  0  0
 32 31  1  0  0  0  0
M  END
>  <MODEL>
1

>  <REMARK>
 VINA RESULT:      -4.7      0.000      0.000
  Name = 
  11 active torsions:
  status: ('A' for Active; 'I' for Inactive)
    1  A    between atoms: C_1  and  C_4
    2  A    between atoms: C_1  and  C_5
    3  A    between atoms: C_1  and  C_16
    4  A    between atoms: C_4  and  C_30
    5  A    between atoms: C_9  and  C_12
    6  A    between atoms: C_13  and  N_29
    7  A    between atoms: S_15  and  C_20
    8  A    between atoms: S_15  and  N_26
    9  A    between atoms: O_22  and  C_23
   10  A    between atoms: C_23  and  C_24
   11  A    between atoms: C_24  and  C_27
                            x       y       z     vdW  Elec       q    Type
                         _______ _______ _______ _____ _____    ______ ____

>  <TORSDO>
F 11

$$$$
=
 OpenBabel11052414303D

 32 34  0  0  1  0  0  0  0  0999 V2000
  182.5610  177.9260  137.7330 C   0  0  2  0  0  3  0  0  0  0  0  0
  182.9720  175.3720  137.5120 C   0  0  2  0  0  3  0  0  0  0  0  0
  182.4620  176.6640  136.8480 C   0  0  2  0  0  3  0  0  0  0  0  0
  184.4750  175.1310  137.2530 C   0  0  1  0  0  3  0  0  0  0  0  0
  182.5610  173.3090  136.0390 C   0  0  1  0  0  3  0  0  0  0  0  0
  183.8760  172.5700  136.3790 C   0  0  2  0  0  3  0  0  0  0  0  0
  182.9760  176.8460  135.5420 O   0  0  0  0  0  0  0  0  0  0  0  0
  184.9440  173.4020  137.6360 S   0  0  0  0  0  0  0  0  0  0  0  0
  184.3800  176.8630  135.6110 C   0  0  0  0  0  2  0  0  0  0  0  0
  182.0560  174.1840  137.1850 C   0  0  0  0  0  2  0  0  0  0  0  0
  184.8800  175.5170  135.8920 N   0  0  0  0  0  0  0  0  0  0  0  0
  182.6540  174.0480  134.8560 O   0  0  0  0  0  1  0  0  0  0  0  0
  184.6690  172.1050  135.1460 C   0  0  0  0  0  3  0  0  0  0  0  0
  186.1290  171.8650  135.4910 C   0  0  0  0  0  1  0  0  0  0  0  0
  184.1030  170.8090  134.5940 C   0  0  0  0  0  1  0  0  0  0  0  0
  186.3430  175.5230  135.7620 C   0  0  0  0  0  2  0  0  0  0  0  0
  186.9570  176.9200  135.8420 C   0  0  0  0  0  1  0  0  0  0  0  0
  182.2180  177.5440  139.1810 C   0  0  1  0  0  3  0  0  0  0  0  0
  183.2330  177.9810  140.2500 C   0  0  2  0  0  3  0  0  0  0  0  0
  181.9420  178.7500  140.0620 C   0  0  2  0  0  3  0  0  0  0  0  0
  184.1200  180.2690  139.1270 O   0  0  0  0  0  0  0  0  0  0  0  0
  185.3810  178.2380  138.6620 O   0  0  0  0  0  0  0  0  0  0  0  0
  184.6290  178.9900  139.7240 S   0  0  0  0  0  0  0  0  0  0  0  0
  185.0490  178.9990  142.2800 C   0  0  0  0  0  1  0  0  0  0  0  0
  185.7000  179.3720  141.0350 N   0  0  0  0  0  2  0  0  0  0  0  0
  180.9680  178.3600  141.1560 C   0  0  0  0  0  2  0  0  0  0  0  0
  181.0770  179.3230  142.3240 C   0  0  0  0  0  2  0  0  0  0  0  0
  179.7390  178.6530  143.9450 C   0  0  0  0  0  1  0  0  0  0  0  0
  181.0700  178.6190  143.5290 O   0  0  0  0  0  0  0  0  0  0  0  0
  181.5560  178.9740  137.2460 C   0  0  0  0  0  2  0  0  0  0  0  0
  179.8020  178.5360  135.6780 O   0  0  0  0  0  1  0  0  0  0  0  0
  180.1740  178.3830  137.0140 C   0  0  0  0  0  2  0  0  0  0  0  0
  1 30  1  6  0  0  0
  2 10  1  6  0  0  0
  3  2  1  0  0  0  0
  3  1  1  1  0  0  0
  4  2  1  0  0  0  0
  4  8  1  6  0  0  0
  5 12  1  6  0  0  0
  5  6  1  0  0  0  0
  5 10  1  0  0  0  0
  6 13  1  6  0  0  0
  6  8  1  0  0  0  0
  7  9  1  0  0  0  0
  7  3  1  0  0  0  0
  9 11  1  0  0  0  0
 11  4  1  0  0  0  0
 13 14  1  0  0  0  0
 15 13  1  0  0  0  0
 16 17  1  0  0  0  0
 16 11  1  0  0  0  0
 18  1  1  6  0  0  0
 18 20  1  0  0  0  0
 18 19  1  0  0  0  0
 19 23  1  6  0  0  0
 20 19  1  0  0  0  0
 20 26  1  1  0  0  0
 21 23  2  0  0  0  0
 22 23  2  0  0  0  0
 23 25  1  0  0  0  0
 25 24  1  0  0  0  0
 26 27  1  0  0  0  0
 27 29  1  0  0  0  0
 29 28  1  0  0  0  0
 31 32  1  0  0  0  0
 32 30  1  0  0  0  0
M  END
>  <MODEL>
2

>  <REMARK>
 VINA RESULT:      -4.5      2.849      3.941
  Name = 
  11 active torsions:
  status: ('A' for Active; 'I' for Inactive)
    1  A    between atoms: C_1  and  C_4
    2  A    between atoms: C_1  and  C_5
    3  A    between atoms: C_1  and  C_16
    4  A    between atoms: C_4  and  C_30
    5  A    between atoms: C_9  and  C_12
    6  A    between atoms: C_13  and  N_29
    7  A    between atoms: S_15  and  C_20
    8  A    between atoms: S_15  and  N_26
    9  A    between atoms: O_22  and  C_23
   10  A    between atoms: C_23  and  C_24
   11  A    between atoms: C_24  and  C_27
                            x       y       z     vdW  Elec       q    Type
                         _______ _______ _______ _____ _____    ______ ____

>  <TORSDO>
F 11

$$$$
=
 OpenBabel11052414303D

 32 34  0  0  1  0  0  0  0  0999 V2000
  188.9380  177.4370  138.4310 C   0  0  2  0  0  3  0  0  0  0  0  0
  190.0340  176.9000  140.7230 C   0  0  2  0  0  3  0  0  0  0  0  0
  189.5960  177.9820  139.7180 C   0  0  2  0  0  3  0  0  0  0  0  0
  188.9220  176.5530  141.7350 C   0  0  1  0  0  3  0  0  0  0  0  0
  191.3040  177.9010  142.7170 C   0  0  1  0  0  3  0  0  0  0  0  0
  190.7260  176.9610  143.8000 C   0  0  2  0  0  3  0  0  0  0  0  0
  188.8650  179.0290  140.3270 O   0  0  0  0  0  0  0  0  0  0  0  0
  189.5970  175.6400  143.1720 S   0  0  0  0  0  0  0  0  0  0  0  0
  187.7390  178.4780  140.9640 C   0  0  0  0  0  2  0  0  0  0  0  0
  191.3960  177.2420  141.3420 C   0  0  0  0  0  2  0  0  0  0  0  0
  188.1530  177.7360  142.1530 N   0  0  0  0  0  0  0  0  0  0  0  0
  190.6140  179.1140  142.6380 O   0  0  0  0  0  1  0  0  0  0  0  0
  190.1530  177.6940  145.0250 C   0  0  0  0  0  3  0  0  0  0  0  0
  188.8330  177.0830  145.4620 C   0  0  0  0  0  1  0  0  0  0  0  0
  191.1120  177.6180  146.2000 C   0  0  0  0  0  1  0  0  0  0  0  0
  186.9530  177.3430  142.9040 C   0  0  0  0  0  2  0  0  0  0  0  0
  185.7380  178.2260  142.6170 C   0  0  0  0  0  1  0  0  0  0  0  0
  189.3030  175.9520  138.2780 C   0  0  1  0  0  3  0  0  0  0  0  0
  188.2610  175.0750  137.5640 C   0  0  2  0  0  3  0  0  0  0  0  0
  189.5030  175.5370  136.8320 C   0  0  2  0  0  3  0  0  0  0  0  0
  187.1960  176.6280  135.6320 O   0  0  0  0  0  0  0  0  0  0  0  0
  186.2990  176.8780  137.8830 O   0  0  0  0  0  0  0  0  0  0  0  0
  186.8080  175.8840  136.8760 S   0  0  0  0  0  0  0  0  0  0  0  0
  185.6290  173.6390  137.4080 C   0  0  0  0  0  1  0  0  0  0  0  0
  185.5460  174.7580  136.4830 N   0  0  0  0  0  2  0  0  0  0  0  0
  190.4980  174.3940  136.7710 C   0  0  0  0  0  2  0  0  0  0  0  0
  191.7640  174.7600  137.5240 C   0  0  0  0  0  2  0  0  0  0  0  0
  193.0690  176.4830  137.9620 C   0  0  0  0  0  1  0  0  0  0  0  0
  192.3800  175.8580  136.9230 O   0  0  0  0  0  0  0  0  0  0  0  0
  189.4740  178.2040  137.2180 C   0  0  0  0  0  2  0  0  0  0  0  0
  187.5920  179.6380  136.8600 O   0  0  0  0  0  1  0  0  0  0  0  0
  188.9540  179.6320  137.1630 C   0  0  0  0  0  2  0  0  0  0  0  0
  1 30  1  6  0  0  0
  2 10  1  1  0  0  0
  2  4  1  0  0  0  0
  3  1  1  6  0  0  0
  3  7  1  0  0  0  0
  3  2  1  0  0  0  0
  4 11  1  0  0  0  0
  4  8  1  1  0  0  0
  5 12  1  6  0  0  0
  5  6  1  0  0  0  0
  6 13  1  1  0  0  0
  7  9  1  0  0  0  0
  8  6  1  0  0  0  0
  9 11  1  0  0  0  0
 10  5  1  0  0  0  0
 11 16  1  0  0  0  0
 13 14  1  0  0  0  0
 13 15  1  0  0  0  0
 17 16  1  0  0  0  0
 18  1  1  6  0  0  0
 19 23  1  6  0  0  0
 19 18  1  0  0  0  0
 20 26  1  1  0  0  0
 20 19  1  0  0  0  0
 20 18  1  0  0  0  0
 21 23  2  0  0  0  0
 23 22  2  0  0  0  0
 25 23  1  0  0  0  0
 25 24  1  0  0  0  0
 26 27  1  0  0  0  0
 29 27  1  0  0  0  0
 29 28  1  0  0  0  0
 31 32  1  0  0  0  0
 32 30  1  0  0  0  0
M  END
>  <MODEL>
3

>  <REMARK>
 VINA RESULT:      -4.5      5.076      9.699
  Name = 
  11 active torsions:
  status: ('A' for Active; 'I' for Inactive)
    1  A    between atoms: C_1  and  C_4
    2  A    between atoms: C_1  and  C_5
    3  A    between atoms: C_1  and  C_16
    4  A    between atoms: C_4  and  C_30
    5  A    between atoms: C_9  and  C_12
    6  A    between atoms: C_13  and  N_29
    7  A    between atoms: S_15  and  C_20
    8  A    between atoms: S_15  and  N_26
    9  A    between atoms: O_22  and  C_23
   10  A    between atoms: C_23  and  C_24
   11  A    between atoms: C_24  and  C_27
                            x       y       z     vdW  Elec       q    Type
                         _______ _______ _______ _____ _____    ______ ____

>  <TORSDO>
F 11

$$$$
=
 OpenBabel11052414303D

 32 34  0  0  1  0  0  0  0  0999 V2000
  188.8730  176.3660  136.2050 C   0  0  2  0  0  3  0  0  0  0  0  0
  186.5990  175.4010  137.0030 C   0  0  2  0  0  3  0  0  0  0  0  0
  187.3740  176.1480  135.9020 C   0  0  2  0  0  3  0  0  0  0  0  0
  186.6080  173.8720  136.7960 C   0  0  1  0  0  3  0  0  0  0  0  0
  184.0850  175.2850  136.4960 C   0  0  1  0  0  3  0  0  0  0  0  0
  183.8470  173.8590  137.0430 C   0  0  2  0  0  3  0  0  0  0  0  0
  187.1290  175.6250  134.6110 O   0  0  0  0  0  0  0  0  0  0  0  0
  185.3220  173.0580  137.8150 S   0  0  0  0  0  0  0  0  0  0  0  0
  187.4760  174.2620  134.6060 C   0  0  0  0  0  2  0  0  0  0  0  0
  185.2120  176.0220  137.2180 C   0  0  0  0  0  2  0  0  0  0  0  0
  186.4980  173.4960  135.3770 N   0  0  0  0  0  0  0  0  0  0  0  0
  184.2920  175.3000  135.1140 O   0  0  0  0  0  1  0  0  0  0  0  0
  183.1140  172.9270  136.0640 C   0  0  0  0  0  3  0  0  0  0  0  0
  183.3210  171.4680  136.4360 C   0  0  0  0  0  1  0  0  0  0  0  0
  181.6200  173.2000  136.0700 C   0  0  0  0  0  1  0  0  0  0  0  0
  186.7680  172.0640  135.1900 C   0  0  0  0  0  2  0  0  0  0  0  0
  188.1740  171.6480  135.6230 C   0  0  0  0  0  1  0  0  0  0  0  0
  189.1470  175.9710  137.6650 C   0  0  1  0  0  3  0  0  0  0  0  0
  190.3830  175.0870  137.9010 C   0  0  2  0  0  3  0  0  0  0  0  0
  190.4320  176.5690  138.2090 C   0  0  2  0  0  3  0  0  0  0  0  0
  190.6040  174.1500  135.3810 O   0  0  0  0  0  0  0  0  0  0  0  0
  192.4430  173.6830  136.9090 O   0  0  0  0  0  0  0  0  0  0  0  0
  191.4390  174.7200  136.4900 S   0  0  0  0  0  0  0  0  0  0  0  0
  193.6070  175.7300  135.4960 C   0  0  0  0  0  1  0  0  0  0  0  0
  192.2680  176.1260  135.9000 N   0  0  0  0  0  2  0  0  0  0  0  0
  190.2970  176.7700  139.7060 C   0  0  0  0  0  2  0  0  0  0  0  0
  188.9500  177.3880  140.0330 C   0  0  0  0  0  2  0  0  0  0  0  0
  190.1080  177.3420  141.9110 C   0  0  0  0  0  1  0  0  0  0  0  0
  188.9490  177.8700  141.3430 O   0  0  0  0  0  0  0  0  0  0  0  0
  189.2230  177.8460  136.0190 C   0  0  0  0  0  2  0  0  0  0  0  0
  188.8480  179.7540  137.4120 O   0  0  0  0  0  1  0  0  0  0  0  0
  188.2020  178.7660  136.6690 C   0  0  0  0  0  2  0  0  0  0  0  0
  1 30  1  1  0  0  0
  2 10  1  6  0  0  0
  3  1  1  1  0  0  0
  3  2  1  0  0  0  0
  4  2  1  0  0  0  0
  4  8  1  1  0  0  0
  5 12  1  6  0  0  0
  5  6  1  0  0  0  0
  5 10  1  0  0  0  0
  6 13  1  6  0  0  0
  6  8  1  0  0  0  0
  7  3  1  0  0  0  0
  9  7  1  0  0  0  0
  9 11  1  0  0  0  0
 11  4  1  0  0  0  0
 13 15  1  0  0  0  0
 13 14  1  0  0  0  0
 16 11  1  0  0  0  0
 16 17  1  0  0  0  0
 18  1  1  6  0  0  0
 18 19  1  0  0  0  0
 18 20  1  0  0  0  0
 19 23  1  6  0  0  0
 19 20  1  0  0  0  0
 20 26  1  1  0  0  0
 21 23  2  0  0  0  0
 23 22  2  0  0  0  0
 24 25  1  0  0  0  0
 25 23  1  0  0  0  0
 26 27  1  0  0  0  0
 27 29  1  0  0  0  0
 29 28  1  0  0  0  0
 30 32  1  0  0  0  0
 32 31  1  0  0  0  0
M  END
>  <MODEL>
4

>  <REMARK>
 VINA RESULT:      -4.4      5.276      7.142
  Name = 
  11 active torsions:
  status: ('A' for Active; 'I' for Inactive)
    1  A    between atoms: C_1  and  C_4
    2  A    between atoms: C_1  and  C_5
    3  A    between atoms: C_1  and  C_16
    4  A    between atoms: C_4  and  C_30
    5  A    between atoms: C_9  and  C_12
    6  A    between atoms: C_13  and  N_29
    7  A    between atoms: S_15  and  C_20
    8  A    between atoms: S_15  and  N_26
    9  A    between atoms: O_22  and  C_23
   10  A    between atoms: C_23  and  C_24
   11  A    between atoms: C_24  and  C_27
                            x       y       z     vdW  Elec       q    Type
                         _______ _______ _______ _____ _____    ______ ____

>  <TORSDO>
F 11

$$$$
=
 OpenBabel11052414303D

 32 34  0  0  1  0  0  0  0  0999 V2000
  191.2790  176.0850  137.2480 C   0  0  2  0  0  3  0  0  0  0  0  0
  193.2770  175.1500  135.8800 C   0  0  2  0  0  3  0  0  0  0  0  0
  192.6820  176.3400  136.6540 C   0  0  2  0  0  3  0  0  0  0  0  0
  194.1040  174.2120  136.7850 C   0  0  1  0  0  3  0  0  0  0  0  0
  195.5070  175.7530  134.7570 C   0  0  1  0  0  3  0  0  0  0  0  0
  196.2090  174.3960  134.9920 C   0  0  2  0  0  3  0  0  0  0  0  0
  193.5950  176.9000  137.5790 O   0  0  0  0  0  0  0  0  0  0  0  0
  195.1650  173.0980  135.7910 S   0  0  0  0  0  0  0  0  0  0  0  0
  193.9990  175.8950  138.4750 C   0  0  0  0  0  2  0  0  0  0  0  0
  193.9920  175.6220  134.6060 C   0  0  0  0  0  2  0  0  0  0  0  0
  194.8800  174.9470  137.7960 N   0  0  0  0  0  0  0  0  0  0  0  0
  195.8250  176.6970  135.7380 O   0  0  0  0  0  1  0  0  0  0  0  0
  197.6000  174.5150  135.6370 C   0  0  0  0  0  3  0  0  0  0  0  0
  198.0280  173.2000  136.2660 C   0  0  0  0  0  1  0  0  0  0  0  0
  198.6460  174.8980  134.6050 C   0  0  0  0  0  1  0  0  0  0  0  0
  195.4440  174.0290  138.7950 C   0  0  0  0  0  2  0  0  0  0  0  0
  196.5880  174.6390  139.6060 C   0  0  0  0  0  1  0  0  0  0  0  0
  191.1380  176.8900  138.5500 C   0  0  1  0  0  3  0  0  0  0  0  0
  189.9000  177.7960  138.6480 C   0  0  2  0  0  3  0  0  0  0  0  0
  189.9370  176.4710  139.3780 C   0  0  2  0  0  3  0  0  0  0  0  0
  187.8290  178.9490  137.3590 O   0  0  0  0  0  0  0  0  0  0  0  0
  187.8240  176.5190  137.5250 O   0  0  0  0  0  0  0  0  0  0  0  0
  188.6960  177.7250  137.3120 S   0  0  0  0  0  0  0  0  0  0  0  0
  188.4780  177.0880  134.8100 C   0  0  0  0  0  1  0  0  0  0  0  0
  189.4460  177.6310  135.7490 N   0  0  0  0  0  2  0  0  0  0  0  0
  190.2280  176.7190  140.8460 C   0  0  0  0  0  2  0  0  0  0  0  0
  189.0800  177.4750  141.4880 C   0  0  0  0  0  2  0  0  0  0  0  0
  189.5380  176.0410  143.1000 C   0  0  0  0  0  1  0  0  0  0  0  0
  188.4760  176.6870  142.4690 O   0  0  0  0  0  0  0  0  0  0  0  0
  191.1210  174.5950  137.5690 C   0  0  0  0  0  2  0  0  0  0  0  0
  190.2150  173.7580  135.5190 O   0  0  0  0  0  1  0  0  0  0  0  0
  189.9230  173.9780  136.8660 C   0  0  0  0  0  2  0  0  0  0  0  0
  1 30  1  1  0  0  0
  2 10  1  6  0  0  0
  2  3  1  0  0  0  0
  2  4  1  0  0  0  0
  3  1  1  1  0  0  0
  3  7  1  0  0  0  0
  4  8  1  6  0  0  0
  4 11  1  0  0  0  0
  5  6  1  0  0  0  0
  5 12  1  1  0  0  0
  6 13  1  1  0  0  0
  6  8  1  0  0  0  0
  7  9  1  0  0  0  0
 10  5  1  0  0  0  0
 11  9  1  0  0  0  0
 11 16  1  0  0  0  0
 13 14  1  0  0  0  0
 15 13  1  0  0  0  0
 16 17  1  0  0  0  0
 18  1  1  6  0  0  0
 18 19  1  0  0  0  0
 18 20  1  0  0  0  0
 19 23  1  6  0  0  0
 19 20  1  0  0  0  0
 20 26  1  1  0  0  0
 23 21  2  0  0  0  0
 23 22  2  0  0  0  0
 24 25  1  0  0  0  0
 25 23  1  0  0  0  0
 26 27  1  0  0  0  0
 27 29  1  0  0  0  0
 29 28  1  0  0  0  0
 31 32  1  0  0  0  0
 32 30  1  0  0  0  0
M  END
>  <MODEL>
5

>  <REMARK>
 VINA RESULT:      -4.3      8.033     12.078
  Name = 
  11 active torsions:
  status: ('A' for Active; 'I' for Inactive)
    1  A    between atoms: C_1  and  C_4
    2  A    between atoms: C_1  and  C_5
    3  A    between atoms: C_1  and  C_16
    4  A    between atoms: C_4  and  C_30
    5  A    between atoms: C_9  and  C_12
    6  A    between atoms: C_13  and  N_29
    7  A    between atoms: S_15  and  C_20
    8  A    between atoms: S_15  and  N_26
    9  A    between atoms: O_22  and  C_23
   10  A    between atoms: C_23  and  C_24
   11  A    between atoms: C_24  and  C_27
                            x       y       z     vdW  Elec       q    Type
                         _______ _______ _______ _____ _____    ______ ____

>  <TORSDO>
F 11

$$$$
=
 OpenBabel11052414303D

 32 34  0  0  1  0  0  0  0  0999 V2000
  190.2630  177.4370  140.1430 C   0  0  2  0  0  3  0  0  0  0  0  0
  189.3970  178.2020  142.4680 C   0  0  2  0  0  3  0  0  0  0  0  0
  189.3270  177.1580  141.3390 C   0  0  2  0  0  3  0  0  0  0  0  0
  190.4560  177.8480  143.5330 C   0  0  1  0  0  3  0  0  0  0  0  0
  187.6520  177.7580  144.2980 C   0  0  1  0  0  3  0  0  0  0  0  0
  188.5310  178.1710  145.5010 C   0  0  2  0  0  3  0  0  0  0  0  0
  189.4040  175.8290  141.8200 O   0  0  0  0  0  0  0  0  0  0  0  0
  190.2050  178.8200  145.0650 S   0  0  0  0  0  0  0  0  0  0  0  0
  190.6040  175.6820  142.5390 C   0  0  0  0  0  2  0  0  0  0  0  0
  187.9990  178.5160  143.0180 C   0  0  0  0  0  2  0  0  0  0  0  0
  190.5150  176.4040  143.8070 N   0  0  0  0  0  0  0  0  0  0  0  0
  187.6660  176.3780  144.0740 O   0  0  0  0  0  1  0  0  0  0  0  0
  188.5770  177.1270  146.6300 C   0  0  0  0  0  3  0  0  0  0  0  0
  189.9420  177.1030  147.2970 C   0  0  0  0  0  1  0  0  0  0  0  0
  187.5430  177.4370  147.6980 C   0  0  0  0  0  1  0  0  0  0  0  0
  191.6930  176.0710  144.6210 C   0  0  0  0  0  2  0  0  0  0  0  0
  192.0550  174.5860  144.5910 C   0  0  0  0  0  1  0  0  0  0  0  0
  189.9880  176.3980  139.0440 C   0  0  1  0  0  3  0  0  0  0  0  0
  188.8340  176.7270  138.0820 C   0  0  2  0  0  3  0  0  0  0  0  0
  190.2710  176.9220  137.6480 C   0  0  2  0  0  3  0  0  0  0  0  0
  189.0550  179.3780  138.5360 O   0  0  0  0  0  0  0  0  0  0  0  0
  187.0850  178.2560  139.4260 O   0  0  0  0  0  0  0  0  0  0  0  0
  188.0240  178.3260  138.2540 S   0  0  0  0  0  0  0  0  0  0  0  0
  186.4310  177.6040  136.3420 C   0  0  0  0  0  1  0  0  0  0  0  0
  187.1410  178.7760  136.8290 N   0  0  0  0  0  2  0  0  0  0  0  0
  190.6820  175.7700  136.7530 C   0  0  0  0  0  2  0  0  0  0  0  0
  191.0960  174.5740  137.5920 C   0  0  0  0  0  2  0  0  0  0  0  0
  192.8760  175.1170  136.4090 C   0  0  0  0  0  1  0  0  0  0  0  0
  192.4810  174.4100  137.5430 O   0  0  0  0  0  0  0  0  0  0  0  0
  191.7220  177.3070  140.5920 C   0  0  0  0  0  2  0  0  0  0  0  0
  193.9870  177.1250  139.8460 O   0  0  0  0  0  1  0  0  0  0  0  0
  192.6980  177.4630  139.4360 C   0  0  0  0  0  2  0  0  0  0  0  0
  1 30  1  1  0  0  0
  2 10  1  1  0  0  0
  2  4  1  0  0  0  0
  3  1  1  6  0  0  0
  3  7  1  0  0  0  0
  3  2  1  0  0  0  0
  4 11  1  0  0  0  0
  4  8  1  1  0  0  0
  5 12  1  6  0  0  0
  5  6  1  0  0  0  0
  6 13  1  1  0  0  0
  7  9  1  0  0  0  0
  8  6  1  0  0  0  0
  9 11  1  0  0  0  0
 10  5  1  0  0  0  0
 11 16  1  0  0  0  0
 13 14  1  0  0  0  0
 13 15  1  0  0  0  0
 17 16  1  0  0  0  0
 18  1  1  1  0  0  0
 19 23  1  1  0  0  0
 19 18  1  0  0  0  0
 20 26  1  6  0  0  0
 20 19  1  0  0  0  0
 20 18  1  0  0  0  0
 23 21  2  0  0  0  0
 23 22  2  0  0  0  0
 24 25  1  0  0  0  0
 25 23  1  0  0  0  0
 26 27  1  0  0  0  0
 28 29  1  0  0  0  0
 29 27  1  0  0  0  0
 32 31  1  0  0  0  0
 32 30  1  0  0  0  0
M  END
>  <MODEL>
6

>  <REMARK>
 VINA RESULT:      -4.2      5.992     10.474
  Name = 
  11 active torsions:
  status: ('A' for Active; 'I' for Inactive)
    1  A    between atoms: C_1  and  C_4
    2  A    between atoms: C_1  and  C_5
    3  A    between atoms: C_1  and  C_16
    4  A    between atoms: C_4  and  C_30
    5  A    between atoms: C_9  and  C_12
    6  A    between atoms: C_13  and  N_29
    7  A    between atoms: S_15  and  C_20
    8  A    between atoms: S_15  and  N_26
    9  A    between atoms: O_22  and  C_23
   10  A    between atoms: C_23  and  C_24
   11  A    between atoms: C_24  and  C_27
                            x       y       z     vdW  Elec       q    Type
                         _______ _______ _______ _____ _____    ______ ____

>  <TORSDO>
F 11

$$$$
=
 OpenBabel11052414303D

 32 34  0  0  1  0  0  0  0  0999 V2000
  190.1670  177.1750  138.6560 C   0  0  2  0  0  3  0  0  0  0  0  0
  190.0500  176.6100  141.1870 C   0  0  2  0  0  3  0  0  0  0  0  0
  190.4380  177.6340  140.1060 C   0  0  2  0  0  3  0  0  0  0  0  0
  188.5930  176.7840  141.6680 C   0  0  1  0  0  3  0  0  0  0  0  0
  190.7390  177.3860  143.5360 C   0  0  1  0  0  3  0  0  0  0  0  0
  189.5030  176.8380  144.2860 C   0  0  2  0  0  3  0  0  0  0  0  0
  189.9540  178.9340  140.3870 O   0  0  0  0  0  0  0  0  0  0  0  0
  188.3060  175.8940  143.2430 S   0  0  0  0  0  0  0  0  0  0  0  0
  188.5550  178.8740  140.5140 C   0  0  0  0  0  2  0  0  0  0  0  0
  191.1030  176.5600  142.3030 C   0  0  0  0  0  2  0  0  0  0  0  0
  188.1970  178.1980  141.7610 N   0  0  0  0  0  0  0  0  0  0  0  0
  190.6090  178.7370  143.2040 O   0  0  0  0  0  1  0  0  0  0  0  0
  188.8110  177.8720  145.1900 C   0  0  0  0  0  3  0  0  0  0  0  0
  187.3300  177.5680  145.3380 C   0  0  0  0  0  1  0  0  0  0  0  0
  189.4250  177.8760  146.5790 C   0  0  0  0  0  1  0  0  0  0  0  0
  186.7480  178.3250  141.9650 C   0  0  0  0  0  2  0  0  0  0  0  0
  185.9750  178.6270  140.6810 C   0  0  0  0  0  1  0  0  0  0  0  0
  188.8520  176.3810  138.6250 C   0  0  1  0  0  3  0  0  0  0  0  0
  187.8050  176.8540  137.6030 C   0  0  2  0  0  3  0  0  0  0  0  0
  188.6460  175.6270  137.3230 C   0  0  2  0  0  3  0  0  0  0  0  0
  189.4470  177.7500  135.6580 O   0  0  0  0  0  0  0  0  0  0  0  0
  188.6710  179.3760  137.2970 O   0  0  0  0  0  0  0  0  0  0  0  0
  188.2670  178.1820  136.4780 S   0  0  0  0  0  0  0  0  0  0  0  0
  186.0830  177.4820  135.2740 C   0  0  0  0  0  1  0  0  0  0  0  0
  186.9730  178.6230  135.4080 N   0  0  0  0  0  2  0  0  0  0  0  0
  187.8160  174.3850  137.5880 C   0  0  0  0  0  2  0  0  0  0  0  0
  186.9480  174.0680  136.3850 C   0  0  0  0  0  2  0  0  0  0  0  0
  185.4420  173.0020  137.5940 C   0  0  0  0  0  1  0  0  0  0  0  0
  186.3420  172.8210  136.5450 O   0  0  0  0  0  0  0  0  0  0  0  0
  191.3060  176.2640  138.1870 C   0  0  0  0  0  2  0  0  0  0  0  0
  193.5710  176.7530  137.5940 O   0  0  0  0  0  1  0  0  0  0  0  0
  192.6670  176.7530  138.6560 C   0  0  0  0  0  2  0  0  0  0  0  0
  1 30  1  1  0  0  0
  2  4  1  0  0  0  0
  2 10  1  1  0  0  0
  3  1  1  6  0  0  0
  3  7  1  0  0  0  0
  3  2  1  0  0  0  0
  4 11  1  0  0  0  0
  4  8  1  1  0  0  0
  5 12  1  6  0  0  0
  5  6  1  0  0  0  0
  6 13  1  6  0  0  0
  7  9  1  0  0  0  0
  8  6  1  0  0  0  0
  9 11  1  0  0  0  0
 10  5  1  0  0  0  0
 11 16  1  0  0  0  0
 13 14  1  0  0  0  0
 13 15  1  0  0  0  0
 17 16  1  0  0  0  0
 18  1  1  6  0  0  0
 19 23  1  6  0  0  0
 19 18  1  0  0  0  0
 20 26  1  1  0  0  0
 20 19  1  0  0  0  0
 20 18  1  0  0  0  0
 21 23  2  0  0  0  0
 23 22  2  0  0  0  0
 24 25  1  0  0  0  0
 25 23  1  0  0  0  0
 27 29  1  0  0  0  0
 27 26  1  0  0  0  0
 29 28  1  0  0  0  0
 30 32  1  0  0  0  0
 31 32  1  0  0  0  0
M  END
>  <MODEL>
7

>  <REMARK>
 VINA RESULT:      -4.2      5.372      9.682
  Name = 
  11 active torsions:
  status: ('A' for Active; 'I' for Inactive)
    1  A    between atoms: C_1  and  C_4
    2  A    between atoms: C_1  and  C_5
    3  A    between atoms: C_1  and  C_16
    4  A    between atoms: C_4  and  C_30
    5  A    between atoms: C_9  and  C_12
    6  A    between atoms: C_13  and  N_29
    7  A    between atoms: S_15  and  C_20
    8  A    between atoms: S_15  and  N_26
    9  A    between atoms: O_22  and  C_23
   10  A    between atoms: C_23  and  C_24
   11  A    between atoms: C_24  and  C_27
                            x       y       z     vdW  Elec       q    Type
                         _______ _______ _______ _____ _____    ______ ____

>  <TORSDO>
F 11

$$$$
=
 OpenBabel11052414303D

 32 34  0  0  1  0  0  0  0  0999 V2000
  193.2890  174.8380  136.6320 C   0  0  2  0  0  3  0  0  0  0  0  0
  190.9320  175.4000  135.7010 C   0  0  2  0  0  3  0  0  0  0  0  0
  191.7730  174.5430  136.6640 C   0  0  2  0  0  3  0  0  0  0  0  0
  190.4390  176.7090  136.3550 C   0  0  1  0  0  3  0  0  0  0  0  0
  188.4670  174.6810  135.6790 C   0  0  1  0  0  3  0  0  0  0  0  0
  187.8580  176.0960  135.5470 C   0  0  2  0  0  3  0  0  0  0  0  0
  191.2320  174.5010  137.9710 O   0  0  0  0  0  0  0  0  0  0  0  0
  189.0860  177.4670  135.3800 S   0  0  0  0  0  0  0  0  0  0  0  0
  191.1330  175.8160  138.4580 C   0  0  0  0  0  2  0  0  0  0  0  0
  189.8410  174.5590  135.0230 C   0  0  0  0  0  2  0  0  0  0  0  0
  190.0580  176.5240  137.7640 N   0  0  0  0  0  0  0  0  0  0  0  0
  188.5110  174.2390  137.0040 O   0  0  0  0  0  1  0  0  0  0  0  0
  186.7650  176.4060  136.5840 C   0  0  0  0  0  3  0  0  0  0  0  0
  186.5570  177.9040  136.7300 C   0  0  0  0  0  1  0  0  0  0  0  0
  185.4390  175.7910  136.1750 C   0  0  0  0  0  1  0  0  0  0  0  0
  189.8440  177.8190  138.4240 C   0  0  0  0  0  2  0  0  0  0  0  0
  188.9280  177.7370  139.6460 C   0  0  0  0  0  1  0  0  0  0  0  0
  193.9250  174.3010  137.9240 C   0  0  1  0  0  3  0  0  0  0  0  0
  194.9570  173.1760  137.7470 C   0  0  2  0  0  3  0  0  0  0  0  0
  195.4120  174.5940  138.0180 C   0  0  2  0  0  3  0  0  0  0  0  0
  196.3370  171.5240  136.1190 O   0  0  0  0  0  0  0  0  0  0  0  0
  196.1280  173.8500  135.4280 O   0  0  0  0  0  0  0  0  0  0  0  0
  195.4050  172.6990  136.0700 S   0  0  0  0  0  0  0  0  0  0  0  0
  193.3740  171.1270  135.7250 C   0  0  0  0  0  1  0  0  0  0  0  0
  194.0210  172.2750  135.1110 N   0  0  0  0  0  2  0  0  0  0  0  0
  195.8080  174.7200  139.4760 C   0  0  0  0  0  2  0  0  0  0  0  0
  197.3130  174.8720  139.6000 C   0  0  0  0  0  2  0  0  0  0  0  0
  199.0340  174.5110  138.2680 C   0  0  0  0  0  1  0  0  0  0  0  0
  197.8590  175.2540  138.3730 O   0  0  0  0  0  0  0  0  0  0  0  0
  193.5150  176.3510  136.5610 C   0  0  0  0  0  2  0  0  0  0  0  0
  195.3320  177.6580  135.7150 O   0  0  0  0  0  1  0  0  0  0  0  0
  194.3350  176.7550  135.3450 C   0  0  0  0  0  2  0  0  0  0  0  0
  1 30  1  1  0  0  0
  2 10  1  1  0  0  0
  2  4  1  0  0  0  0
  2  3  1  0  0  0  0
  3  1  1  1  0  0  0
  3  7  1  0  0  0  0
  4  8  1  6  0  0  0
  4 11  1  0  0  0  0
  5 12  1  1  0  0  0
  6  5  1  0  0  0  0
  6 13  1  1  0  0  0
  7  9  1  0  0  0  0
  8  6  1  0  0  0  0
 10  5  1  0  0  0  0
 11 16  1  0  0  0  0
 11  9  1  0  0  0  0
 13 14  1  0  0  0  0
 15 13  1  0  0  0  0
 16 17  1  0  0  0  0
 18  1  1  6  0  0  0
 18 20  1  0  0  0  0
 19 23  1  6  0  0  0
 19 18  1  0  0  0  0
 19 20  1  0  0  0  0
 20 26  1  1  0  0  0
 22 23  2  0  0  0  0
 23 21  2  0  0  0  0
 25 24  1  0  0  0  0
 25 23  1  0  0  0  0
 26 27  1  0  0  0  0
 28 29  1  0  0  0  0
 29 27  1  0  0  0  0
 32 31  1  0  0  0  0
 32 30  1  0  0  0  0
M  END
>  <MODEL>
8

>  <REMARK>
 VINA RESULT:      -4.1      8.507     11.692
  Name = 
  11 active torsions:
  status: ('A' for Active; 'I' for Inactive)
    1  A    between atoms: C_1  and  C_4
    2  A    between atoms: C_1  and  C_5
    3  A    between atoms: C_1  and  C_16
    4  A    between atoms: C_4  and  C_30
    5  A    between atoms: C_9  and  C_12
    6  A    between atoms: C_13  and  N_29
    7  A    between atoms: S_15  and  C_20
    8  A    between atoms: S_15  and  N_26
    9  A    between atoms: O_22  and  C_23
   10  A    between atoms: C_23  and  C_24
   11  A    between atoms: C_24  and  C_27
                            x       y       z     vdW  Elec       q    Type
                         _______ _______ _______ _____ _____    ______ ____

>  <TORSDO>
F 11

$$$$
=
 OpenBabel11052414303D

 32 34  0  0  1  0  0  0  0  0999 V2000
  184.1850  178.6440  142.4060 C   0  0  2  0  0  3  0  0  0  0  0  0
  183.3600  177.4970  140.2280 C   0  0  2  0  0  3  0  0  0  0  0  0
  183.0220  177.9540  141.6580 C   0  0  2  0  0  3  0  0  0  0  0  0
  183.0610  178.5870  139.1760 C   0  0  1  0  0  3  0  0  0  0  0  0
  181.4340  176.1760  139.1610 C   0  0  1  0  0  3  0  0  0  0  0  0
  181.5940  176.7320  137.7280 C   0  0  2  0  0  3  0  0  0  0  0  0
  181.8020  178.6660  141.7300 O   0  0  0  0  0  0  0  0  0  0  0  0
  183.0210  177.8810  137.4860 S   0  0  0  0  0  0  0  0  0  0  0  0
  181.8810  179.7790  140.8750 C   0  0  0  0  0  2  0  0  0  0  0  0
  182.7520  176.1190  139.9300 C   0  0  0  0  0  2  0  0  0  0  0  0
  181.8350  179.3400  139.4810 N   0  0  0  0  0  0  0  0  0  0  0  0
  180.4630  176.8630  139.8960 O   0  0  0  0  0  1  0  0  0  0  0  0
  180.2900  177.2740  137.1170 C   0  0  0  0  0  3  0  0  0  0  0  0
  180.5770  178.2410  135.9820 C   0  0  0  0  0  1  0  0  0  0  0  0
  179.4420  176.1440  136.5610 C   0  0  0  0  0  1  0  0  0  0  0  0
  181.7180  180.5240  138.6190 C   0  0  0  0  0  2  0  0  0  0  0  0
  180.4780  181.3710  138.9110 C   0  0  0  0  0  1  0  0  0  0  0  0
  185.1110  177.5640  142.9870 C   0  0  1  0  0  3  0  0  0  0  0  0
  186.5440  177.5380  142.4300 C   0  0  2  0  0  3  0  0  0  0  0  0
  186.2620  178.1410  143.7900 C   0  0  2  0  0  3  0  0  0  0  0  0
  188.5120  179.0030  141.3080 O   0  0  0  0  0  0  0  0  0  0  0  0
  186.3880  180.1210  141.7180 O   0  0  0  0  0  0  0  0  0  0  0  0
  187.0220  178.8330  141.2740 S   0  0  0  0  0  0  0  0  0  0  0  0
  187.7080  178.0410  138.9040 C   0  0  0  0  0  1  0  0  0  0  0  0
  186.5360  178.4780  139.6460 N   0  0  0  0  0  2  0  0  0  0  0  0
  186.6690  177.1530  144.8660 C   0  0  0  0  0  2  0  0  0  0  0  0
  187.3530  177.8760  146.0120 C   0  0  0  0  0  2  0  0  0  0  0  0
  189.4100  177.2960  145.4650 C   0  0  0  0  0  1  0  0  0  0  0  0
  188.4480  177.1360  146.4610 O   0  0  0  0  0  0  0  0  0  0  0  0
  183.6250  179.4860  143.5570 C   0  0  0  0  0  2  0  0  0  0  0  0
  183.8050  179.0030  145.8930 O   0  0  0  0  0  1  0  0  0  0  0  0
  183.1480  178.6310  144.7200 C   0  0  0  0  0  2  0  0  0  0  0  0
  1 30  1  1  0  0  0
  2 10  1  6  0  0  0
  2  3  1  0  0  0  0
  3  7  1  0  0  0  0
  3  1  1  6  0  0  0
  4  8  1  6  0  0  0
  4 11  1  0  0  0  0
  4  2  1  0  0  0  0
  5 12  1  1  0  0  0
  5 10  1  0  0  0  0
  6 13  1  1  0  0  0
  6  5  1  0  0  0  0
  8  6  1  0  0  0  0
  9  7  1  0  0  0  0
 11  9  1  0  0  0  0
 14 13  1  0  0  0  0
 15 13  1  0  0  0  0
 16 17  1  0  0  0  0
 16 11  1  0  0  0  0
 18  1  1  6  0  0  0
 18 20  1  0  0  0  0
 19 23  1  6  0  0  0
 19 18  1  0  0  0  0
 19 20  1  0  0  0  0
 20 26  1  1  0  0  0
 23 21  2  0  0  0  0
 23 22  2  0  0  0  0
 24 25  1  0  0  0  0
 25 23  1  0  0  0  0
 26 27  1  0  0  0  0
 27 29  1  0  0  0  0
 28 29  1  0  0  0  0
 30 32  1  0  0  0  0
 32 31  1  0  0  0  0
M  END
>  <MODEL>
9

>  <REMARK>
 VINA RESULT:      -4.0      2.350      3.695
  Name = 
  11 active torsions:
  status: ('A' for Active; 'I' for Inactive)
    1  A    between atoms: C_1  and  C_4
    2  A    between atoms: C_1  and  C_5
    3  A    between atoms: C_1  and  C_16
    4  A    between atoms: C_4  and  C_30
    5  A    between atoms: C_9  and  C_12
    6  A    between atoms: C_13  and  N_29
    7  A    between atoms: S_15  and  C_20
    8  A    between atoms: S_15  and  N_26
    9  A    between atoms: O_22  and  C_23
   10  A    between atoms: C_23  and  C_24
   11  A    between atoms: C_24  and  C_27
                            x       y       z     vdW  Elec       q    Type
                         _______ _______ _______ _____ _____    ______ ____

>  <TORSDO>
F 11

$$$$
