=
 OpenBabel11052417003D

 32 38  0  0  1  0  0  0  0  0999 V2000
  187.3560  177.3990  136.9430 C   0  0  1  0  0  3  0  0  0  0  0  0
  188.2010  178.2160  141.9360 C   0  0  1  0  0  3  0  0  0  0  0  0
  183.5700  178.5890  143.6010 C   0  0  0  0  0  2  0  0  0  0  0  0
  184.1220  178.9530  144.9660 C   0  0  0  0  0  2  0  0  0  0  0  0
  189.9200  177.4590  143.4650 C   0  0  0  0  0  0  0  0  0  0  0  0
  190.2960  177.1400  144.7730 C   0  0  0  0  0  0  0  0  0  0  0  0
  188.5780  178.0420  139.5820 C   0  0  0  0  0  0  0  0  0  0  0  0
  186.3420  178.4980  140.3690 N   0  0  0  0  0  0  0  0  0  0  0  0
  191.0280  176.5150  147.3770 C   0  0  0  0  0  3  0  0  0  0  0  0
  186.4520  177.9690  138.0290 C   0  0  0  0  0  2  0  0  0  0  0  0
  184.5340  179.0910  142.5380 C   0  0  0  0  0  2  0  0  0  0  0  0
  186.8650  178.8650  141.6880 C   0  0  1  0  0  3  0  0  0  0  0  0
  185.8940  178.5820  142.7440 N   0  0  1  0  0  0  0  0  0  0  0  0
  187.6730  177.9590  144.2730 C   0  0  0  0  0  0  0  0  0  0  0  0
  191.9320  176.4220  146.3630 N   0  0  0  0  0  0  0  0  0  0  0  0
  188.9270  178.3240  136.8500 S   0  0  0  0  0  0  0  0  0  0  0  0
  187.1050  178.1710  139.3680 C   0  0  0  0  0  0  0  0  0  0  0  0
  191.5960  176.7230  145.0790 C   0  0  0  0  0  3  0  0  0  0  0  0
  189.5240  177.7310  138.4650 C   0  0  0  0  0  2  0  0  0  0  0  0
  185.3980  178.1660  145.2190 C   0  0  0  0  0  2  0  0  0  0  0  0
  186.3770  178.2820  144.0750 C   0  0  2  0  0  3  0  0  0  0  0  0
  188.0860  177.6350  145.5320 N   0  0  0  0  0  0  0  0  0  0  0  0
  189.0470  178.0180  140.7940 N   0  0  0  0  0  0  0  0  0  0  0  0
  190.8570  177.3650  142.4830 F   0  0  0  0  0  0  0  0  0  0  0  0
  189.7200  176.9270  147.1160 C   0  0  0  0  0  3  0  0  0  0  0  0
  188.5990  177.8960  143.1910 C   0  0  0  0  0  0  0  0  0  0  0  0
  189.3530  177.2420  145.8080 C   0  0  0  0  0  0  0  0  0  0  0  0
  187.5600  175.9000  137.1170 C   0  0  0  0  0  2  0  0  0  0  0  0
  186.3130  175.1960  136.8710 N   0  0  0  0  0  2  0  0  0  0  0  0
  186.5260  173.8150  137.2630 C   0  0  0  0  0  3  0  0  0  0  0  0
  185.7430  172.9080  136.3340 C   0  0  0  0  0  2  0  0  0  0  0  0
  185.2100  173.2190  137.7150 C   0  0  0  0  0  2  0  0  0  0  0  0
  1 28  1  1  0  0  0
  1 10  1  0  0  0  0
  2 23  1  1  0  0  0
  2 26  1  0  0  0  0
  3  4  1  0  0  0  0
  4 20  1  0  0  0  0
  5  6  1  0  0  0  0
  6 18  2  0  0  0  0
  6 27  1  0  0  0  0
  7 23  2  0  0  0  0
 10 17  1  0  0  0  0
 11  3  1  0  0  0  0
 12  8  1  6  0  0  0
 12  2  1  0  0  0  0
 12 13  1  0  0  0  0
 13 11  1  1  0  0  0
 13 21  1  0  0  0  0
 14 22  2  0  0  0  0
 15  9  2  0  0  0  0
 16  1  1  0  0  0  0
 16 19  1  0  0  0  0
 17  7  1  0  0  0  0
 17  8  2  0  0  0  0
 18 15  1  0  0  0  0
 19  7  1  0  0  0  0
 21 14  1  0  0  0  0
 21 20  1  6  0  0  0
 22 27  1  0  0  0  0
 24  5  1  0  0  0  0
 25  9  1  0  0  0  0
 26  5  2  0  0  0  0
 26 14  1  0  0  0  0
 27 25  2  0  0  0  0
 29 28  1  0  0  0  0
 29 30  1  0  0  0  0
 30 32  1  0  0  0  0
 31 30  1  0  0  0  0
 31 32  1  0  0  0  0
M  END
>  <MODEL>
1

>  <REMARK>
 VINA RESULT:     -10.4      0.000      0.000
  Name = 
  3 active torsions:
  status: ('A' for Active; 'I' for Inactive)
    1  A    between atoms: C_1  and  N_10
    2  A    between atoms: C_2  and  C_24
    3  A    between atoms: N_10  and  C_24
                            x       y       z     vdW  Elec       q    Type
                         _______ _______ _______ _____ _____    ______ ____

>  <TORSDO>
F 3

$$$$
=
 OpenBabel11052417003D

 32 38  0  0  1  0  0  0  0  0999 V2000
  189.6860  175.8230  136.7190 C   0  0  1  0  0  3  0  0  0  0  0  0
  189.3190  177.6250  141.5080 C   0  0  1  0  0  3  0  0  0  0  0  0
  184.4590  178.4270  141.8160 C   0  0  0  0  0  2  0  0  0  0  0  0
  184.6790  179.0510  143.1800 C   0  0  0  0  0  2  0  0  0  0  0  0
  190.5450  177.1620  143.5450 C   0  0  0  0  0  0  0  0  0  0  0  0
  190.5590  177.1090  144.9410 C   0  0  0  0  0  0  0  0  0  0  0  0
  190.2570  176.9660  139.4090 C   0  0  0  0  0  0  0  0  0  0  0  0
  187.9340  177.6200  139.4900 N   0  0  0  0  0  0  0  0  0  0  0  0
  190.5740  177.0150  147.7160 C   0  0  0  0  0  3  0  0  0  0  0  0
  188.5840  176.6210  137.4040 C   0  0  0  0  0  2  0  0  0  0  0  0
  185.6910  178.6810  140.9630 C   0  0  0  0  0  2  0  0  0  0  0  0
  188.1380  178.2380  140.8030 C   0  0  1  0  0  3  0  0  0  0  0  0
  186.9170  178.1970  141.6070 N   0  0  1  0  0  0  0  0  0  0  0  0
  188.2100  177.8630  143.6330 C   0  0  0  0  0  0  0  0  0  0  0  0
  191.6920  176.6980  147.0070 N   0  0  0  0  0  0  0  0  0  0  0  0
  191.2940  176.6760  136.8590 S   0  0  0  0  0  0  0  0  0  0  0  0
  188.8970  177.0790  138.8020 C   0  0  0  0  0  0  0  0  0  0  0  0
  191.7090  176.7370  145.6480 C   0  0  0  0  0  3  0  0  0  0  0  0
  191.4250  176.4140  138.6560 C   0  0  0  0  0  2  0  0  0  0  0  0
  185.7920  178.3060  143.9010 C   0  0  0  0  0  2  0  0  0  0  0  0
  187.0300  178.1650  143.0480 C   0  0  2  0  0  3  0  0  0  0  0  0
  188.2720  177.7940  144.9940 N   0  0  0  0  0  0  0  0  0  0  0  0
  190.4060  177.1810  140.6830 N   0  0  0  0  0  0  0  0  0  0  0  0
  191.6870  176.8490  142.8750 F   0  0  0  0  0  0  0  0  0  0  0  0
  189.4050  177.3920  147.0520 C   0  0  0  0  0  3  0  0  0  0  0  0
  189.3680  177.5610  142.8600 C   0  0  0  0  0  0  0  0  0  0  0  0
  189.3990  177.4400  145.6580 C   0  0  0  0  0  0  0  0  0  0  0  0
  189.7310  174.3860  137.2250 C   0  0  0  0  0  2  0  0  0  0  0  0
  189.1730  173.4900  136.2280 N   0  0  0  0  0  2  0  0  0  0  0  0
  190.0880  173.4950  135.1010 C   0  0  0  0  0  3  0  0  0  0  0  0
  190.2580  172.0770  134.5940 C   0  0  0  0  0  2  0  0  0  0  0  0
  191.3270  172.7020  135.4640 C   0  0  0  0  0  2  0  0  0  0  0  0
  1 16  1  0  0  0  0
  1 28  1  1  0  0  0
  1 10  1  0  0  0  0
  2 23  1  1  0  0  0
  2 26  1  0  0  0  0
  3  4  1  0  0  0  0
  4 20  1  0  0  0  0
  5  6  1  0  0  0  0
  6 18  2  0  0  0  0
  6 27  1  0  0  0  0
  7 23  2  0  0  0  0
 10 17  1  0  0  0  0
 11  3  1  0  0  0  0
 12  8  1  6  0  0  0
 12  2  1  0  0  0  0
 12 13  1  0  0  0  0
 13 11  1  1  0  0  0
 13 21  1  0  0  0  0
 14 22  2  0  0  0  0
 15  9  2  0  0  0  0
 16 19  1  0  0  0  0
 17  7  1  0  0  0  0
 17  8  2  0  0  0  0
 18 15  1  0  0  0  0
 19  7  1  0  0  0  0
 21 14  1  0  0  0  0
 21 20  1  6  0  0  0
 22 27  1  0  0  0  0
 24  5  1  0  0  0  0
 25  9  1  0  0  0  0
 26  5  2  0  0  0  0
 26 14  1  0  0  0  0
 27 25  2  0  0  0  0
 29 28  1  0  0  0  0
 30 32  1  0  0  0  0
 30 29  1  0  0  0  0
 31 30  1  0  0  0  0
 31 32  1  0  0  0  0
M  END
>  <MODEL>
2

>  <REMARK>
 VINA RESULT:      -9.1      2.014      2.332
  Name = 
  3 active torsions:
  status: ('A' for Active; 'I' for Inactive)
    1  A    between atoms: C_1  and  N_10
    2  A    between atoms: C_2  and  C_24
    3  A    between atoms: N_10  and  C_24
                            x       y       z     vdW  Elec       q    Type
                         _______ _______ _______ _____ _____    ______ ____

>  <TORSDO>
F 3

$$$$
=
 OpenBabel11052417003D

 32 38  0  0  1  0  0  0  0  0999 V2000
  181.0590  178.3270  139.6950 C   0  0  1  0  0  3  0  0  0  0  0  0
  185.7700  178.7800  141.6730 C   0  0  1  0  0  3  0  0  0  0  0  0
  184.8210  178.1000  146.4680 C   0  0  0  0  0  2  0  0  0  0  0  0
  186.2710  178.4220  146.7700 C   0  0  0  0  0  2  0  0  0  0  0  0
  187.9720  178.2120  140.8390 C   0  0  0  0  0  0  0  0  0  0  0  0
  189.2910  177.8400  141.1140 C   0  0  0  0  0  0  0  0  0  0  0  0
  183.9440  178.9190  140.1360 C   0  0  0  0  0  0  0  0  0  0  0  0
  183.4680  178.8620  142.5020 N   0  0  0  0  0  0  0  0  0  0  0  0
  191.9090  177.1050  141.6760 C   0  0  0  0  0  3  0  0  0  0  0  0
  181.5210  178.6020  141.1200 C   0  0  0  0  0  2  0  0  0  0  0  0
  184.3970  178.8800  145.2330 C   0  0  0  0  0  2  0  0  0  0  0  0
  184.8650  179.1870  142.8050 C   0  0  1  0  0  3  0  0  0  0  0  0
  185.2770  178.6200  144.0890 N   0  0  1  0  0  0  0  0  0  0  0  0
  187.5090  178.1940  143.2340 C   0  0  0  0  0  0  0  0  0  0  0  0
  191.5020  177.2880  140.3900 N   0  0  0  0  0  0  0  0  0  0  0  0
  181.7750  179.5370  138.5300 S   0  0  0  0  0  0  0  0  0  0  0  0
  183.0040  178.7880  141.2890 C   0  0  0  0  0  0  0  0  0  0  0  0
  190.2250  177.6470  140.0900 C   0  0  0  0  0  3  0  0  0  0  0  0
  183.4730  178.9080  138.7160 C   0  0  0  0  0  2  0  0  0  0  0  0
  187.1510  177.8690  145.6600 C   0  0  0  0  0  2  0  0  0  0  0  0
  186.6700  178.2840  144.2890 C   0  0  2  0  0  3  0  0  0  0  0  0
  188.8040  177.8280  143.4520 N   0  0  0  0  0  0  0  0  0  0  0  0
  185.2250  178.8630  140.3470 N   0  0  0  0  0  0  0  0  0  0  0  0
  187.6100  178.3970  139.5410 F   0  0  0  0  0  0  0  0  0  0  0  0
  191.0100  177.2860  142.7290 C   0  0  0  0  0  3  0  0  0  0  0  0
  187.0550  178.4170  141.9020 C   0  0  0  0  0  0  0  0  0  0  0  0
  189.6950  177.6560  142.4460 C   0  0  0  0  0  0  0  0  0  0  0  0
  181.3290  176.8830  139.2900 C   0  0  0  0  0  2  0  0  0  0  0  0
  180.0760  176.1600  139.1630 N   0  0  0  0  0  2  0  0  0  0  0  0
  180.2690  174.8710  139.8010 C   0  0  0  0  0  3  0  0  0  0  0  0
  179.0020  174.0510  139.6600 C   0  0  0  0  0  2  0  0  0  0  0  0
  179.3110  174.7460  140.9680 C   0  0  0  0  0  2  0  0  0  0  0  0
  1 28  1  6  0  0  0
  1 10  1  0  0  0  0
  2 23  1  6  0  0  0
  2 26  1  0  0  0  0
  2 12  1  0  0  0  0
  3  4  1  0  0  0  0
  5  6  2  0  0  0  0
  5 26  1  0  0  0  0
  6 27  1  0  0  0  0
  7 23  2  0  0  0  0
  7 17  1  0  0  0  0
  9 25  2  0  0  0  0
 10 17  1  0  0  0  0
 11  3  1  0  0  0  0
 12  8  1  6  0  0  0
 12 13  1  0  0  0  0
 13 21  1  0  0  0  0
 13 11  1  1  0  0  0
 14 22  1  0  0  0  0
 14 21  1  0  0  0  0
 15  9  1  0  0  0  0
 16 19  1  0  0  0  0
 16  1  1  0  0  0  0
 17  8  2  0  0  0  0
 18 15  2  0  0  0  0
 18  6  1  0  0  0  0
 19  7  1  0  0  0  0
 20  4  1  0  0  0  0
 21 20  1  6  0  0  0
 24  5  1  0  0  0  0
 26 14  2  0  0  0  0
 27 25  1  0  0  0  0
 27 22  2  0  0  0  0
 29 28  1  0  0  0  0
 29 30  1  0  0  0  0
 30 32  1  0  0  0  0
 31 30  1  0  0  0  0
 31 32  1  0  0  0  0
M  END
>  <MODEL>
3

>  <REMARK>
 VINA RESULT:      -8.8      3.357      4.742
  Name = 
  3 active torsions:
  status: ('A' for Active; 'I' for Inactive)
    1  A    between atoms: C_1  and  N_10
    2  A    between atoms: C_2  and  C_24
    3  A    between atoms: N_10  and  C_24
                            x       y       z     vdW  Elec       q    Type
                         _______ _______ _______ _____ _____    ______ ____

>  <TORSDO>
F 3

$$$$
=
 OpenBabel11052417003D

 32 38  0  0  1  0  0  0  0  0999 V2000
  180.8540  178.5160  140.4960 C   0  0  1  0  0  3  0  0  0  0  0  0
  185.9590  178.6530  140.9880 C   0  0  1  0  0  3  0  0  0  0  0  0
  186.4510  177.5030  145.7620 C   0  0  0  0  0  2  0  0  0  0  0  0
  187.9400  177.7590  145.6390 C   0  0  0  0  0  2  0  0  0  0  0  0
  187.7770  178.1240  139.4780 C   0  0  0  0  0  0  0  0  0  0  0  0
  189.0960  177.6950  139.3050 C   0  0  0  0  0  0  0  0  0  0  0  0
  183.7660  178.9930  140.0950 C   0  0  0  0  0  0  0  0  0  0  0  0
  184.0180  178.7020  142.4790 N   0  0  0  0  0  0  0  0  0  0  0  0
  191.7190  176.8460  138.9790 C   0  0  0  0  0  3  0  0  0  0  0  0
  181.7360  178.6320  141.7330 C   0  0  0  0  0  2  0  0  0  0  0  0
  185.7200  178.4160  144.7900 C   0  0  0  0  0  2  0  0  0  0  0  0
  185.4560  178.9620  142.3730 C   0  0  1  0  0  3  0  0  0  0  0  0
  186.2020  178.2560  143.4140 N   0  0  1  0  0  0  0  0  0  0  0  0
  188.0510  177.8690  141.8890 C   0  0  0  0  0  0  0  0  0  0  0  0
  190.9570  177.1700  137.8990 N   0  0  0  0  0  0  0  0  0  0  0  0
  181.2530  179.8230  139.2850 S   0  0  0  0  0  0  0  0  0  0  0  0
  183.2090  178.7650  141.4620 C   0  0  0  0  0  0  0  0  0  0  0  0
  189.6700  177.5880  138.0330 C   0  0  0  0  0  3  0  0  0  0  0  0
  182.8930  179.1390  138.8890 C   0  0  0  0  0  2  0  0  0  0  0  0
  188.4180  177.3040  144.2680 C   0  0  0  0  0  2  0  0  0  0  0  0
  187.5710  177.8680  143.1520 C   0  0  2  0  0  3  0  0  0  0  0  0
  189.3310  177.4530  141.6700 N   0  0  0  0  0  0  0  0  0  0  0  0
  185.0470  178.8850  139.9030 N   0  0  0  0  0  0  0  0  0  0  0  0
  187.0540  178.4500  138.3730 F   0  0  0  0  0  0  0  0  0  0  0  0
  191.1870  176.9370  140.2660 C   0  0  0  0  0  3  0  0  0  0  0  0
  187.2320  178.2390  140.7830 C   0  0  0  0  0  0  0  0  0  0  0  0
  189.8690  177.3650  140.4300 C   0  0  0  0  0  0  0  0  0  0  0  0
  180.9140  177.1160  139.8980 C   0  0  0  0  0  2  0  0  0  0  0  0
  179.7640  176.3410  140.3300 N   0  0  0  0  0  2  0  0  0  0  0  0
  180.1330  174.9430  140.2140 C   0  0  0  0  0  3  0  0  0  0  0  0
  178.9320  174.1490  139.7390 C   0  0  0  0  0  2  0  0  0  0  0  0
  179.3190  174.1310  141.2020 C   0  0  0  0  0  2  0  0  0  0  0  0
  1 28  1  6  0  0  0
  1 10  1  0  0  0  0
  2 23  1  6  0  0  0
  2 12  1  0  0  0  0
  4  3  1  0  0  0  0
  5 26  1  0  0  0  0
  6  5  2  0  0  0  0
  6 27  1  0  0  0  0
  7 17  1  0  0  0  0
  9 25  2  0  0  0  0
 11  3  1  0  0  0  0
 12  8  1  6  0  0  0
 12 13  1  0  0  0  0
 13 11  1  1  0  0  0
 14 21  1  0  0  0  0
 15 18  2  0  0  0  0
 15  9  1  0  0  0  0
 16  1  1  0  0  0  0
 17 10  1  0  0  0  0
 17  8  2  0  0  0  0
 18  6  1  0  0  0  0
 19 16  1  0  0  0  0
 19  7  1  0  0  0  0
 20  4  1  0  0  0  0
 21 13  1  0  0  0  0
 21 20  1  6  0  0  0
 22 14  1  0  0  0  0
 23  7  2  0  0  0  0
 24  5  1  0  0  0  0
 25 27  1  0  0  0  0
 26  2  1  0  0  0  0
 26 14  2  0  0  0  0
 27 22  2  0  0  0  0
 28 29  1  0  0  0  0
 30 29  1  0  0  0  0
 30 32  1  0  0  0  0
 31 30  1  0  0  0  0
 31 32  1  0  0  0  0
M  END
>  <MODEL>
4

>  <REMARK>
 VINA RESULT:      -8.8      3.484      5.582
  Name = 
  3 active torsions:
  status: ('A' for Active; 'I' for Inactive)
    1  A    between atoms: C_1  and  N_10
    2  A    between atoms: C_2  and  C_24
    3  A    between atoms: N_10  and  C_24
                            x       y       z     vdW  Elec       q    Type
                         _______ _______ _______ _____ _____    ______ ____

>  <TORSDO>
F 3

$$$$
=
 OpenBabel11052417003D

 32 38  0  0  1  0  0  0  0  0999 V2000
  180.1770  180.8380  137.8590 C   0  0  1  0  0  3  0  0  0  0  0  0
  183.5180  178.6300  141.0650 C   0  0  1  0  0  3  0  0  0  0  0  0
  187.5860  178.5980  138.2700 C   0  0  0  0  0  2  0  0  0  0  0  0
  188.2890  177.8080  139.3570 C   0  0  0  0  0  2  0  0  0  0  0  0
  183.7710  178.6740  143.4730 C   0  0  0  0  0  0  0  0  0  0  0  0
  184.6120  178.5780  144.5850 C   0  0  0  0  0  0  0  0  0  0  0  0
  181.4510  179.3440  140.0980 C   0  0  0  0  0  0  0  0  0  0  0  0
  183.3710  179.0700  138.6610 N   0  0  0  0  0  0  0  0  0  0  0  0
  186.2950  178.3790  146.7840 C   0  0  0  0  0  3  0  0  0  0  0  0
  181.5170  180.1620  137.5950 C   0  0  0  0  0  2  0  0  0  0  0  0
  186.1090  178.2380  138.2890 C   0  0  0  0  0  2  0  0  0  0  0  0
  184.0550  178.2930  139.6990 C   0  0  1  0  0  3  0  0  0  0  0  0
  185.5070  178.4470  139.6100 N   0  0  1  0  0  0  0  0  0  0  0  0
  185.7100  178.3540  142.0270 C   0  0  0  0  0  0  0  0  0  0  0  0
  184.9600  178.5830  146.9510 N   0  0  0  0  0  0  0  0  0  0  0  0
  179.0520  179.7260  138.7700 S   0  0  0  0  0  0  0  0  0  0  0  0
  182.1570  179.5160  138.7930 C   0  0  0  0  0  0  0  0  0  0  0  0
  184.1160  178.6840  145.8890 C   0  0  0  0  0  3  0  0  0  0  0  0
  180.0330  179.7750  140.3030 C   0  0  0  0  0  2  0  0  0  0  0  0
  187.8060  178.2840  140.7180 C   0  0  0  0  0  2  0  0  0  0  0  0
  186.2990  178.3100  140.8120 C   0  0  2  0  0  3  0  0  0  0  0  0
  186.4900  178.2700  143.1420 N   0  0  0  0  0  0  0  0  0  0  0  0
  182.1270  178.9760  141.1450 N   0  0  0  0  0  0  0  0  0  0  0  0
  182.4410  178.8650  143.6850 F   0  0  0  0  0  0  0  0  0  0  0  0
  186.8340  178.2670  145.5010 C   0  0  0  0  0  3  0  0  0  0  0  0
  184.3030  178.5440  142.1650 C   0  0  0  0  0  0  0  0  0  0  0  0
  185.9870  178.3660  144.3960 C   0  0  0  0  0  0  0  0  0  0  0  0
  180.3580  182.1880  138.5430 C   0  0  0  0  0  2  0  0  0  0  0  0
  179.9480  183.2570  137.6490 N   0  0  0  0  0  2  0  0  0  0  0  0
  181.1540  183.7630  137.0200 C   0  0  0  0  0  3  0  0  0  0  0  0
  180.8580  185.1090  136.3880 C   0  0  0  0  0  2  0  0  0  0  0  0
  180.9280  183.8680  135.5250 C   0  0  0  0  0  2  0  0  0  0  0  0
  1 28  1  1  0  0  0
  1 16  1  0  0  0  0
  2 23  1  1  0  0  0
  2 26  1  0  0  0  0
  3 11  1  0  0  0  0
  3  4  1  0  0  0  0
  4 20  1  0  0  0  0
  5 24  1  0  0  0  0
  5  6  1  0  0  0  0
  6 18  1  0  0  0  0
  7 19  1  0  0  0  0
  7 23  2  0  0  0  0
  8 17  2  0  0  0  0
  9 15  1  0  0  0  0
 10  1  1  0  0  0  0
 10 17  1  0  0  0  0
 12  8  1  6  0  0  0
 12  2  1  0  0  0  0
 13 11  1  6  0  0  0
 13 12  1  0  0  0  0
 13 21  1  0  0  0  0
 14 26  1  0  0  0  0
 14 22  2  0  0  0  0
 16 19  1  0  0  0  0
 17  7  1  0  0  0  0
 18 15  2  0  0  0  0
 21 20  1  1  0  0  0
 21 14  1  0  0  0  0
 22 27  1  0  0  0  0
 25  9  2  0  0  0  0
 26  5  2  0  0  0  0
 27  6  2  0  0  0  0
 27 25  1  0  0  0  0
 29 28  1  0  0  0  0
 30 29  1  0  0  0  0
 31 30  1  0  0  0  0
 32 31  1  0  0  0  0
 32 30  1  0  0  0  0
M  END
>  <MODEL>
5

>  <REMARK>
 VINA RESULT:      -8.6      4.725      7.121
  Name = 
  3 active torsions:
  status: ('A' for Active; 'I' for Inactive)
    1  A    between atoms: C_1  and  N_10
    2  A    between atoms: C_2  and  C_24
    3  A    between atoms: N_10  and  C_24
                            x       y       z     vdW  Elec       q    Type
                         _______ _______ _______ _____ _____    ______ ____

>  <TORSDO>
F 3

$$$$
=
 OpenBabel11052417003D

 32 38  0  0  1  0  0  0  0  0999 V2000
  182.1250  178.5450  140.7760 C   0  0  1  0  0  3  0  0  0  0  0  0
  187.2220  178.2770  140.2610 C   0  0  1  0  0  3  0  0  0  0  0  0
  188.5490  177.1180  144.8710 C   0  0  0  0  0  2  0  0  0  0  0  0
  190.0010  177.2530  144.4550 C   0  0  0  0  0  2  0  0  0  0  0  0
  188.6630  177.5950  138.4380 C   0  0  0  0  0  0  0  0  0  0  0  0
  189.8850  177.0610  138.0210 C   0  0  0  0  0  0  0  0  0  0  0  0
  184.9300  178.7860  139.8060 C   0  0  0  0  0  0  0  0  0  0  0  0
  185.6200  178.4890  142.1000 N   0  0  0  0  0  0  0  0  0  0  0  0
  192.3200  176.0030  137.2070 C   0  0  0  0  0  3  0  0  0  0  0  0
  183.2370  178.5970  141.8150 C   0  0  0  0  0  2  0  0  0  0  0  0
  187.7150  178.0810  144.0410 C   0  0  0  0  0  2  0  0  0  0  0  0
  187.0260  178.6320  141.7110 C   0  0  1  0  0  3  0  0  0  0  0  0
  187.9050  177.8750  142.6020 N   0  0  1  0  0  0  0  0  0  0  0  0
  189.3830  177.3330  140.7540 C   0  0  0  0  0  0  0  0  0  0  0  0
  191.3890  176.3820  136.2900 N   0  0  0  0  0  0  0  0  0  0  0  0
  182.3780  179.8090  139.4830 S   0  0  0  0  0  0  0  0  0  0  0  0
  184.6350  178.6110  141.2590 C   0  0  0  0  0  0  0  0  0  0  0  0
  190.1890  176.9020  136.6640 C   0  0  0  0  0  3  0  0  0  0  0  0
  183.8510  178.9940  138.7900 C   0  0  0  0  0  2  0  0  0  0  0  0
  190.1640  176.7530  143.0280 C   0  0  0  0  0  2  0  0  0  0  0  0
  189.1620  177.3780  142.0860 C   0  0  2  0  0  3  0  0  0  0  0  0
  190.5590  176.8140  140.2980 N   0  0  0  0  0  0  0  0  0  0  0  0
  186.1360  178.5740  139.3700 N   0  0  0  0  0  0  0  0  0  0  0  0
  187.7650  177.9720  137.4880 F   0  0  0  0  0  0  0  0  0  0  0  0
  192.0590  176.1450  138.5720 C   0  0  0  0  0  3  0  0  0  0  0  0
  188.3940  177.7610  139.8210 C   0  0  0  0  0  0  0  0  0  0  0  0
  190.8360  176.6770  138.9790 C   0  0  0  0  0  0  0  0  0  0  0  0
  181.9580  177.1410  140.2070 C   0  0  0  0  0  2  0  0  0  0  0  0
  180.5490  176.8530  140.0020 N   0  0  0  0  0  2  0  0  0  0  0  0
  180.4810  175.6260  139.2310 C   0  0  0  0  0  3  0  0  0  0  0  0
  179.0400  175.1590  139.1650 C   0  0  0  0  0  2  0  0  0  0  0  0
  180.0050  174.5010  140.1270 C   0  0  0  0  0  2  0  0  0  0  0  0
  1 28  1  6  0  0  0
  1 10  1  0  0  0  0
  2 23  1  6  0  0  0
  2 12  1  0  0  0  0
  4  3  1  0  0  0  0
  5 26  1  0  0  0  0
  6  5  2  0  0  0  0
  6 27  1  0  0  0  0
  7 17  1  0  0  0  0
  9 25  2  0  0  0  0
 11  3  1  0  0  0  0
 12  8  1  1  0  0  0
 12 13  1  0  0  0  0
 13 11  1  1  0  0  0
 14 21  1  0  0  0  0
 15 18  2  0  0  0  0
 15  9  1  0  0  0  0
 16  1  1  0  0  0  0
 17 10  1  0  0  0  0
 17  8  2  0  0  0  0
 18  6  1  0  0  0  0
 19 16  1  0  0  0  0
 19  7  1  0  0  0  0
 20  4  1  0  0  0  0
 21 13  1  0  0  0  0
 21 20  1  6  0  0  0
 22 14  1  0  0  0  0
 23  7  2  0  0  0  0
 24  5  1  0  0  0  0
 25 27  1  0  0  0  0
 26  2  1  0  0  0  0
 26 14  2  0  0  0  0
 27 22  2  0  0  0  0
 29 28  1  0  0  0  0
 30 29  1  0  0  0  0
 30 32  1  0  0  0  0
 31 30  1  0  0  0  0
 31 32  1  0  0  0  0
M  END
>  <MODEL>
6

>  <REMARK>
 VINA RESULT:      -7.9      3.312      5.927
  Name = 
  3 active torsions:
  status: ('A' for Active; 'I' for Inactive)
    1  A    between atoms: C_1  and  N_10
    2  A    between atoms: C_2  and  C_24
    3  A    between atoms: N_10  and  C_24
                            x       y       z     vdW  Elec       q    Type
                         _______ _______ _______ _____ _____    ______ ____

>  <TORSDO>
F 3

$$$$
=
 OpenBabel11052417003D

 32 38  0  0  1  0  0  0  0  0999 V2000
  184.1820  176.7160  136.1700 C   0  0  1  0  0  3  0  0  0  0  0  0
  184.0720  178.6080  140.9370 C   0  0  1  0  0  3  0  0  0  0  0  0
  179.2060  178.7870  141.7410 C   0  0  0  0  0  2  0  0  0  0  0  0
  179.4800  179.4770  143.0630 C   0  0  0  0  0  2  0  0  0  0  0  0
  185.5500  178.3710  142.8410 C   0  0  0  0  0  0  0  0  0  0  0  0
  185.7140  178.3650  144.2290 C   0  0  0  0  0  0  0  0  0  0  0  0
  184.8690  178.0080  138.7640 C   0  0  0  0  0  0  0  0  0  0  0  0
  182.5010  178.3590  139.0760 N   0  0  0  0  0  0  0  0  0  0  0  0
  186.0230  178.3610  146.9880 C   0  0  0  0  0  3  0  0  0  0  0  0
  183.0600  177.3870  136.9530 C   0  0  0  0  0  2  0  0  0  0  0  0
  180.3010  179.1700  140.7580 C   0  0  0  0  0  2  0  0  0  0  0  0
  182.7550  179.0410  140.3490 C   0  0  1  0  0  3  0  0  0  0  0  0
  181.6390  178.8680  141.2780 N   0  0  1  0  0  0  0  0  0  0  0  0
  183.1640  178.7690  143.1630 C   0  0  0  0  0  0  0  0  0  0  0  0
  187.0950  178.1690  146.1720 N   0  0  0  0  0  0  0  0  0  0  0  0
  185.6690  177.7730  136.1240 S   0  0  0  0  0  0  0  0  0  0  0  0
  183.4510  177.9260  138.3010 C   0  0  0  0  0  0  0  0  0  0  0  0
  186.9680  178.1660  144.8170 C   0  0  0  0  0  3  0  0  0  0  0  0
  186.0170  177.5870  137.9020 C   0  0  0  0  0  2  0  0  0  0  0  0
  180.7490  178.9040  143.6760 C   0  0  0  0  0  2  0  0  0  0  0  0
  181.9020  178.8970  142.7000 C   0  0  2  0  0  3  0  0  0  0  0  0
  183.3740  178.7510  144.5100 N   0  0  0  0  0  0  0  0  0  0  0  0
  185.1180  178.2810  140.0100 N   0  0  0  0  0  0  0  0  0  0  0  0
  186.6490  178.1870  142.0610 F   0  0  0  0  0  0  0  0  0  0  0  0
  184.7530  178.5640  146.4450 C   0  0  0  0  0  3  0  0  0  0  0  0
  184.2670  178.5940  142.2770 C   0  0  0  0  0  0  0  0  0  0  0  0
  184.5990  178.5660  145.0580 C   0  0  0  0  0  0  0  0  0  0  0  0
  184.4670  175.3140  136.6940 C   0  0  0  0  0  2  0  0  0  0  0  0
  183.7890  174.3280  135.8710 N   0  0  0  0  0  2  0  0  0  0  0  0
  184.5010  173.0760  136.0450 C   0  0  0  0  0  3  0  0  0  0  0  0
  183.8130  172.2560  137.1180 C   0  0  0  0  0  2  0  0  0  0  0  0
  185.0760  173.0220  137.4450 C   0  0  0  0  0  2  0  0  0  0  0  0
  1 28  1  1  0  0  0
  1 10  1  0  0  0  0
  2 23  1  6  0  0  0
  2 26  1  0  0  0  0
  3  4  1  0  0  0  0
  4 20  1  0  0  0  0
  5  6  1  0  0  0  0
  6 18  2  0  0  0  0
  6 27  1  0  0  0  0
  7 23  2  0  0  0  0
 10 17  1  0  0  0  0
 11  3  1  0  0  0  0
 12  8  1  6  0  0  0
 12  2  1  0  0  0  0
 12 13  1  0  0  0  0
 13 11  1  1  0  0  0
 13 21  1  0  0  0  0
 14 22  2  0  0  0  0
 15  9  2  0  0  0  0
 16  1  1  0  0  0  0
 16 19  1  0  0  0  0
 17  7  1  0  0  0  0
 17  8  2  0  0  0  0
 18 15  1  0  0  0  0
 19  7  1  0  0  0  0
 21 14  1  0  0  0  0
 21 20  1  1  0  0  0
 22 27  1  0  0  0  0
 24  5  1  0  0  0  0
 25  9  1  0  0  0  0
 26  5  2  0  0  0  0
 26 14  1  0  0  0  0
 27 25  2  0  0  0  0
 29 30  1  0  0  0  0
 29 28  1  0  0  0  0
 30 31  1  0  0  0  0
 30 32  1  0  0  0  0
 31 32  1  0  0  0  0
M  END
>  <MODEL>
7

>  <REMARK>
 VINA RESULT:      -7.4      2.772      4.228
  Name = 
  3 active torsions:
  status: ('A' for Active; 'I' for Inactive)
    1  A    between atoms: C_1  and  N_10
    2  A    between atoms: C_2  and  C_24
    3  A    between atoms: N_10  and  C_24
                            x       y       z     vdW  Elec       q    Type
                         _______ _______ _______ _____ _____    ______ ____

>  <TORSDO>
F 3

$$$$
