=
 OpenBabel11052413403D

 27 31  0  0  1  0  0  0  0  0999 V2000
  183.8770  178.1650  141.1170 C   0  0  0  0  0  2  0  0  0  0  0  0
  186.3400  178.3750  140.5310 C   0  0  0  0  0  0  0  0  0  0  0  0
  185.8880  178.1340  143.0630 C   0  0  0  0  0  2  0  0  0  0  0  0
  190.3630  177.9030  141.4670 N   0  0  0  0  0  2  0  0  0  0  0  0
  191.0510  176.4400  143.1050 C   0  0  0  0  0  1  0  0  0  0  0  0
  187.2660  178.4300  139.5170 N   0  0  0  0  0  0  0  0  0  0  0  0
  188.9660  177.7700  143.3030 C   0  0  2  0  0  3  0  0  0  0  0  0
  183.7790  178.7870  145.1840 C   0  0  0  0  0  2  0  0  0  0  0  0
  188.4810  176.5440  144.0830 C   0  0  0  0  0  1  0  0  0  0  0  0
  182.4010  178.8320  144.5380 C   0  0  0  0  0  2  0  0  0  0  0  0
  188.1690  177.9680  142.0550 C   0  0  0  0  0  0  0  0  0  0  0  0
  184.9450  178.5730  140.2050 N   0  0  0  0  0  0  0  0  0  0  0  0
  190.3990  177.7260  142.8650 N   0  0  0  0  0  0  0  0  0  0  0  0
  189.0360  178.0430  141.0230 C   0  0  0  0  0  0  0  0  0  0  0  0
  183.7010  179.1820  142.2460 C   0  0  1  0  0  3  0  0  0  0  0  0
  186.7940  178.1590  141.8680 C   0  0  0  0  0  0  0  0  0  0  0  0
  184.7050  179.7940  144.5240 C   0  0  0  0  0  2  0  0  0  0  0  0
  188.6030  178.2760  139.7280 C   0  0  0  0  0  3  0  0  0  0  0  0
  181.3900  178.7390  142.4280 O   0  0  0  0  0  0  0  0  0  0  0  0
  182.4410  178.8820  143.0340 C   0  0  0  0  0  0  0  0  0  0  0  0
  184.9860  179.3650  143.0890 C   0  0  1  0  0  3  0  0  0  0  0  0
  181.8810  178.3760  137.9260 C   0  0  0  0  0  2  0  0  0  0  0  0
  184.5990  179.0250  138.8530 C   0  0  0  0  0  3  0  0  0  0  0  0
  183.4790  180.0750  138.8440 C   0  0  0  0  0  2  0  0  0  0  0  0
  182.0980  179.4410  138.9940 C   0  0  0  0  0  2  0  0  0  0  0  0
  182.9310  177.2810  138.0680 C   0  0  0  0  0  2  0  0  0  0  0  0
  184.3330  177.8620  137.8880 C   0  0  0  0  0  2  0  0  0  0  0  0
  2 16  1  0  0  0  0
  4 13  1  0  0  0  0
  6 18  1  0  0  0  0
  6  2  2  0  0  0  0
  7  9  1  6  0  0  0
 10  8  1  0  0  0  0
 11  7  1  0  0  0  0
 12  2  1  0  0  0  0
 12  1  1  0  0  0  0
 13  5  1  0  0  0  0
 13  7  1  0  0  0  0
 14  4  1  0  0  0  0
 14 11  1  0  0  0  0
 15  1  1  6  0  0  0
 15 20  1  0  0  0  0
 15 21  1  0  0  0  0
 16 11  2  0  0  0  0
 16  3  1  0  0  0  0
 17  8  1  0  0  0  0
 18 14  2  0  0  0  0
 19 20  2  0  0  0  0
 20 10  1  0  0  0  0
 21  3  1  1  0  0  0
 21 17  1  0  0  0  0
 22 26  1  0  0  0  0
 22 25  1  0  0  0  0
 23 12  1  0  0  0  0
 24 23  1  0  0  0  0
 24 25  1  0  0  0  0
 27 26  1  0  0  0  0
 27 23  1  0  0  0  0
M  END
>  <MODEL>
1

>  <REMARK>
 VINA RESULT:      -8.6      0.000      0.000
  Name = 
  1 active torsions:
  status: ('A' for Active; 'I' for Inactive)
    1  A    between atoms: C_9  and  N_15
                            x       y       z     vdW  Elec       q    Type
                         _______ _______ _______ _____ _____    ______ ____

>  <TORSDO>
F 1

$$$$
=
 OpenBabel11052413403D

 27 31  0  0  1  0  0  0  0  0999 V2000
  189.3220  178.4940  140.2580 C   0  0  0  0  0  2  0  0  0  0  0  0
  186.7820  178.4650  140.3030 C   0  0  0  0  0  0  0  0  0  0  0  0
  187.8700  177.9700  142.5930 C   0  0  0  0  0  2  0  0  0  0  0  0
  183.1700  178.6560  142.3520 N   0  0  0  0  0  2  0  0  0  0  0  0
  183.0280  179.5900  144.4510 C   0  0  0  0  0  1  0  0  0  0  0  0
  185.6310  178.7050  139.5930 N   0  0  0  0  0  0  0  0  0  0  0  0
  184.9870  178.2560  143.7210 C   0  0  2  0  0  3  0  0  0  0  0  0
  190.3860  176.7310  143.8220 C   0  0  0  0  0  2  0  0  0  0  0  0
  185.7450  179.2050  144.6540 C   0  0  0  0  0  1  0  0  0  0  0  0
  191.5520  176.8710  142.8520 C   0  0  0  0  0  2  0  0  0  0  0  0
  185.4300  178.4220  142.3040 C   0  0  0  0  0  0  0  0  0  0  0  0
  188.0320  178.3670  139.5820 N   0  0  0  0  0  0  0  0  0  0  0  0
  183.4980  178.4260  143.7030 N   0  0  0  0  0  0  0  0  0  0  0  0
  184.3290  178.6480  141.5550 C   0  0  0  0  0  0  0  0  0  0  0  0
  189.6960  177.1950  140.9750 C   0  0  1  0  0  3  0  0  0  0  0  0
  186.6950  178.2890  141.7180 C   0  0  0  0  0  0  0  0  0  0  0  0
  189.2500  175.9580  143.1760 C   0  0  0  0  0  2  0  0  0  0  0  0
  184.4040  178.7950  140.1800 C   0  0  0  0  0  3  0  0  0  0  0  0
  192.0060  177.5630  140.6620 O   0  0  0  0  0  0  0  0  0  0  0  0
  191.1320  177.2550  141.4570 C   0  0  0  0  0  0  0  0  0  0  0  0
  188.6530  176.7810  142.0410 C   0  0  1  0  0  3  0  0  0  0  0  0
  189.4920  176.1250  136.8510 C   0  0  0  0  0  2  0  0  0  0  0  0
  187.9920  178.3200  138.1160 C   0  0  0  0  0  3  0  0  0  0  0  0
  187.2870  177.0670  137.5790 C   0  0  0  0  0  2  0  0  0  0  0  0
  188.1980  175.8410  137.6020 C   0  0  0  0  0  2  0  0  0  0  0  0
  190.2290  177.2850  137.5100 C   0  0  0  0  0  2  0  0  0  0  0  0
  189.3700  178.5470  137.4780 C   0  0  0  0  0  2  0  0  0  0  0  0
  2 16  1  0  0  0  0
  4 13  1  0  0  0  0
  6 18  1  0  0  0  0
  6  2  2  0  0  0  0
  7  9  1  1  0  0  0
 10  8  1  0  0  0  0
 11  7  1  0  0  0  0
 12  1  1  0  0  0  0
 12  2  1  0  0  0  0
 13  7  1  0  0  0  0
 13  5  1  0  0  0  0
 14 11  1  0  0  0  0
 14  4  1  0  0  0  0
 15  1  1  1  0  0  0
 15 20  1  0  0  0  0
 15 21  1  0  0  0  0
 16 11  2  0  0  0  0
 16  3  1  0  0  0  0
 17  8  1  0  0  0  0
 18 14  2  0  0  0  0
 19 20  2  0  0  0  0
 20 10  1  0  0  0  0
 21  3  1  1  0  0  0
 21 17  1  0  0  0  0
 22 26  1  0  0  0  0
 22 25  1  0  0  0  0
 23 12  1  0  0  0  0
 24 25  1  0  0  0  0
 24 23  1  0  0  0  0
 27 26  1  0  0  0  0
 27 23  1  0  0  0  0
M  END
>  <MODEL>
2

>  <REMARK>
 VINA RESULT:      -8.6      2.775      6.015
  Name = 
  1 active torsions:
  status: ('A' for Active; 'I' for Inactive)
    1  A    between atoms: C_9  and  N_15
                            x       y       z     vdW  Elec       q    Type
                         _______ _______ _______ _____ _____    ______ ____

>  <TORSDO>
F 1

$$$$
=
 OpenBabel11052413403D

 27 31  0  0  1  0  0  0  0  0999 V2000
  188.8340  176.4760  142.3650 C   0  0  0  0  0  2  0  0  0  0  0  0
  187.2940  177.6480  144.0110 C   0  0  0  0  0  0  0  0  0  0  0  0
  186.5150  177.8170  141.5540 C   0  0  0  0  0  2  0  0  0  0  0  0
  183.6130  179.2970  145.0200 N   0  0  0  0  0  2  0  0  0  0  0  0
  181.6930  178.7310  143.8840 C   0  0  0  0  0  1  0  0  0  0  0  0
  187.0150  177.8840  145.3360 N   0  0  0  0  0  0  0  0  0  0  0  0
  183.8850  178.9660  142.7490 C   0  0  2  0  0  3  0  0  0  0  0  0
  187.6220  177.9040  138.7000 C   0  0  0  0  0  2  0  0  0  0  0  0
  183.3200  177.8720  141.8390 C   0  0  0  0  0  1  0  0  0  0  0  0
  188.9510  177.1640  138.6440 C   0  0  0  0  0  2  0  0  0  0  0  0
  185.0880  178.4850  143.4930 C   0  0  0  0  0  0  0  0  0  0  0  0
  188.5880  177.1040  143.6620 N   0  0  0  0  0  0  0  0  0  0  0  0
  182.9430  179.4830  143.7940 N   0  0  0  0  0  0  0  0  0  0  0  0
  184.8730  178.7070  144.8070 C   0  0  0  0  0  0  0  0  0  0  0  0
  189.0430  177.5300  141.2760 C   0  0  1  0  0  3  0  0  0  0  0  0
  186.3090  177.9780  143.0300 C   0  0  0  0  0  0  0  0  0  0  0  0
  187.6910  179.0400  139.7060 C   0  0  0  0  0  2  0  0  0  0  0  0
  185.8330  178.4110  145.7600 C   0  0  0  0  0  3  0  0  0  0  0  0
  190.5080  176.1360  140.0590 O   0  0  0  0  0  0  0  0  0  0  0  0
  189.5400  176.8770  140.0010 C   0  0  0  0  0  0  0  0  0  0  0  0
  187.8230  178.4690  141.1120 C   0  0  1  0  0  3  0  0  0  0  0  0
  192.1410  178.4320  144.1430 C   0  0  0  0  0  2  0  0  0  0  0  0
  189.6170  177.0240  144.7050 C   0  0  0  0  0  3  0  0  0  0  0  0
  189.9360  178.3870  145.3340 C   0  0  0  0  0  2  0  0  0  0  0  0
  190.8740  179.2170  144.4600 C   0  0  0  0  0  2  0  0  0  0  0  0
  191.7840  177.1570  143.3890 C   0  0  0  0  0  2  0  0  0  0  0  0
  190.8730  176.2730  144.2410 C   0  0  0  0  0  2  0  0  0  0  0  0
  1 12  1  0  0  0  0
  2  6  1  0  0  0  0
  3 16  1  0  0  0  0
  6 18  2  0  0  0  0
  7  9  1  1  0  0  0
  7 11  1  0  0  0  0
  7 13  1  0  0  0  0
  8 17  1  0  0  0  0
 10  8  1  0  0  0  0
 10 20  1  0  0  0  0
 11 14  2  0  0  0  0
 12  2  1  0  0  0  0
 12 23  1  0  0  0  0
 13  5  1  0  0  0  0
 13  4  1  0  0  0  0
 14  4  1  0  0  0  0
 14 18  1  0  0  0  0
 15  1  1  1  0  0  0
 16 11  1  0  0  0  0
 16  2  2  0  0  0  0
 20 19  2  0  0  0  0
 20 15  1  0  0  0  0
 21 17  1  6  0  0  0
 21 15  1  0  0  0  0
 21  3  1  0  0  0  0
 22 25  1  0  0  0  0
 23 24  1  0  0  0  0
 25 24  1  0  0  0  0
 26 22  1  0  0  0  0
 26 27  1  0  0  0  0
 27 23  1  0  0  0  0
M  END
>  <MODEL>
3

>  <REMARK>
 VINA RESULT:      -7.9      3.009      7.300
  Name = 
  1 active torsions:
  status: ('A' for Active; 'I' for Inactive)
    1  A    between atoms: C_9  and  N_15
                            x       y       z     vdW  Elec       q    Type
                         _______ _______ _______ _____ _____    ______ ____

>  <TORSDO>
F 1

$$$$
=
 OpenBabel11052413403D

 27 31  0  0  1  0  0  0  0  0999 V2000
  188.5890  178.7030  140.8780 C   0  0  0  0  0  2  0  0  0  0  0  0
  186.1290  178.5520  140.2620 C   0  0  0  0  0  0  0  0  0  0  0  0
  186.5940  178.2350  142.7840 C   0  0  0  0  0  2  0  0  0  0  0  0
  182.1010  178.6770  141.2860 N   0  0  0  0  0  2  0  0  0  0  0  0
  181.3840  179.7140  143.2110 C   0  0  0  0  0  1  0  0  0  0  0  0
  185.1970  178.6980  139.2640 N   0  0  0  0  0  0  0  0  0  0  0  0
  183.5080  178.4400  143.1030 C   0  0  2  0  0  3  0  0  0  0  0  0
  188.7400  177.1890  144.7010 C   0  0  0  0  0  2  0  0  0  0  0  0
  183.9630  179.4740  144.1380 C   0  0  0  0  0  1  0  0  0  0  0  0
  190.1130  177.3320  144.0600 C   0  0  0  0  0  2  0  0  0  0  0  0
  184.3010  178.5510  141.8420 C   0  0  0  0  0  0  0  0  0  0  0  0
  187.5270  178.4770  139.8990 N   0  0  0  0  0  0  0  0  0  0  0  0
  182.0710  178.5360  142.6880 N   0  0  0  0  0  0  0  0  0  0  0  0
  183.4290  178.6820  140.8200 C   0  0  0  0  0  0  0  0  0  0  0  0
  188.8050  177.4650  141.7490 C   0  0  1  0  0  3  0  0  0  0  0  0
  185.6800  178.4490  141.6150 C   0  0  0  0  0  0  0  0  0  0  0  0
  187.8390  176.3270  143.8340 C   0  0  0  0  0  2  0  0  0  0  0  0
  183.8570  178.7580  139.5060 C   0  0  0  0  0  3  0  0  0  0  0  0
  191.1030  177.9270  142.0240 O   0  0  0  0  0  0  0  0  0  0  0  0
  190.0620  177.6200  142.5830 C   0  0  0  0  0  0  0  0  0  0  0  0
  187.5330  177.0580  142.5320 C   0  0  1  0  0  3  0  0  0  0  0  0
  189.9200  176.3360  137.8240 C   0  0  0  0  0  2  0  0  0  0  0  0
  187.8740  178.3490  138.4790 C   0  0  0  0  0  3  0  0  0  0  0  0
  187.4990  176.9800  137.8940 C   0  0  0  0  0  2  0  0  0  0  0  0
  188.5220  175.9040  138.2510 C   0  0  0  0  0  2  0  0  0  0  0  0
  190.3060  177.6230  138.5430 C   0  0  0  0  0  2  0  0  0  0  0  0
  189.3290  178.7430  138.1880 C   0  0  0  0  0  2  0  0  0  0  0  0
  2 16  1  0  0  0  0
  4 13  1  0  0  0  0
  6 18  1  0  0  0  0
  6  2  2  0  0  0  0
  7  9  1  1  0  0  0
 10  8  1  0  0  0  0
 11  7  1  0  0  0  0
 12  2  1  0  0  0  0
 12  1  1  0  0  0  0
 13  7  1  0  0  0  0
 13  5  1  0  0  0  0
 14  4  1  0  0  0  0
 14 11  1  0  0  0  0
 15  1  1  1  0  0  0
 15 21  1  0  0  0  0
 15 20  1  0  0  0  0
 16 11  2  0  0  0  0
 16  3  1  0  0  0  0
 17  8  1  0  0  0  0
 18 14  2  0  0  0  0
 19 20  2  0  0  0  0
 20 10  1  0  0  0  0
 21  3  1  1  0  0  0
 21 17  1  0  0  0  0
 22 25  1  0  0  0  0
 22 26  1  0  0  0  0
 23 12  1  0  0  0  0
 24 25  1  0  0  0  0
 24 23  1  0  0  0  0
 27 23  1  0  0  0  0
 27 26  1  0  0  0  0
M  END
>  <MODEL>
4

>  <REMARK>
 VINA RESULT:      -7.9      2.508      5.957
  Name = 
  1 active torsions:
  status: ('A' for Active; 'I' for Inactive)
    1  A    between atoms: C_9  and  N_15
                            x       y       z     vdW  Elec       q    Type
                         _______ _______ _______ _____ _____    ______ ____

>  <TORSDO>
F 1

$$$$
=
 OpenBabel11052413403D

 27 31  0  0  1  0  0  0  0  0999 V2000
  187.8120  176.9470  144.6040 C   0  0  0  0  0  2  0  0  0  0  0  0
  186.7710  177.9070  142.4940 C   0  0  0  0  0  0  0  0  0  0  0  0
  189.3400  177.6590  142.3700 C   0  0  0  0  0  2  0  0  0  0  0  0
  186.9210  178.7970  138.4360 N   0  0  0  0  0  2  0  0  0  0  0  0
  188.3790  177.7150  137.0230 C   0  0  0  0  0  1  0  0  0  0  0  0
  185.6010  178.2050  141.8390 N   0  0  0  0  0  0  0  0  0  0  0  0
  188.9870  178.3140  139.3520 C   0  0  2  0  0  3  0  0  0  0  0  0
  191.8310  177.7060  144.1500 C   0  0  0  0  0  2  0  0  0  0  0  0
  189.8290  177.0380  139.2620 C   0  0  0  0  0  1  0  0  0  0  0  0
  191.4590  177.2750  145.5620 C   0  0  0  0  0  2  0  0  0  0  0  0
  187.9160  178.1840  140.3860 C   0  0  0  0  0  0  0  0  0  0  0  0
  186.7190  177.6300  143.9130 N   0  0  0  0  0  0  0  0  0  0  0  0
  188.2840  178.7100  138.0880 N   0  0  0  0  0  0  0  0  0  0  0  0
  186.7380  178.4810  139.7950 C   0  0  0  0  0  0  0  0  0  0  0  0
  188.9660  177.9090  144.8900 C   0  0  1  0  0  3  0  0  0  0  0  0
  187.9950  177.9150  141.7580 C   0  0  0  0  0  0  0  0  0  0  0  0
  191.0200  178.9230  143.7390 C   0  0  0  0  0  2  0  0  0  0  0  0
  185.5520  178.4990  140.5090 C   0  0  0  0  0  3  0  0  0  0  0  0
  189.5790  176.7580  146.8570 O   0  0  0  0  0  0  0  0  0  0  0  0
  189.9750  177.2600  145.8170 C   0  0  0  0  0  0  0  0  0  0  0  0
  189.5530  178.5360  143.6020 C   0  0  1  0  0  3  0  0  0  0  0  0
  185.7000  179.2860  147.2050 C   0  0  0  0  0  2  0  0  0  0  0  0
  185.4630  177.8800  144.6290 C   0  0  0  0  0  3  0  0  0  0  0  0
  185.1410  179.3760  144.7630 C   0  0  0  0  0  2  0  0  0  0  0  0
  185.9280  180.0320  145.8960 C   0  0  0  0  0  2  0  0  0  0  0  0
  186.1700  177.8430  147.0670 C   0  0  0  0  0  2  0  0  0  0  0  0
  185.3830  177.1310  145.9670 C   0  0  0  0  0  2  0  0  0  0  0  0
  2 12  1  0  0  0  0
  4 14  1  0  0  0  0
  5 13  1  0  0  0  0
  6  2  1  0  0  0  0
  7  9  1  6  0  0  0
  7 11  1  0  0  0  0
  8 10  1  0  0  0  0
 10 20  1  0  0  0  0
 11 16  1  0  0  0  0
 12  1  1  0  0  0  0
 12 23  1  0  0  0  0
 13  4  1  0  0  0  0
 13  7  1  0  0  0  0
 14 11  2  0  0  0  0
 14 18  1  0  0  0  0
 15  1  1  6  0  0  0
 15 20  1  0  0  0  0
 16  3  1  0  0  0  0
 16  2  2  0  0  0  0
 17  8  1  0  0  0  0
 18  6  2  0  0  0  0
 20 19  2  0  0  0  0
 21  3  1  6  0  0  0
 21 17  1  0  0  0  0
 21 15  1  0  0  0  0
 23 24  1  0  0  0  0
 23 27  1  0  0  0  0
 24 25  1  0  0  0  0
 25 22  1  0  0  0  0
 26 22  1  0  0  0  0
 27 26  1  0  0  0  0
M  END
>  <MODEL>
5

>  <REMARK>
 VINA RESULT:      -7.8      2.993      6.197
  Name = 
  1 active torsions:
  status: ('A' for Active; 'I' for Inactive)
    1  A    between atoms: C_9  and  N_15
                            x       y       z     vdW  Elec       q    Type
                         _______ _______ _______ _____ _____    ______ ____

>  <TORSDO>
F 1

$$$$
=
 OpenBabel11052413403D

 27 31  0  0  1  0  0  0  0  0999 V2000
  187.5890  177.6190  142.4750 C   0  0  0  0  0  2  0  0  0  0  0  0
  187.7370  178.2080  140.0080 C   0  0  0  0  0  0  0  0  0  0  0  0
  189.8010  176.9370  140.9020 C   0  0  0  0  0  2  0  0  0  0  0  0
  189.3640  177.6610  136.2210 N   0  0  0  0  0  2  0  0  0  0  0  0
  190.4410  175.7100  135.6480 C   0  0  0  0  0  1  0  0  0  0  0  0
  187.0740  178.7270  138.9220 N   0  0  0  0  0  0  0  0  0  0  0  0
  190.6190  176.7080  137.9110 C   0  0  2  0  0  3  0  0  0  0  0  0
  191.4360  176.5410  143.4600 C   0  0  0  0  0  2  0  0  0  0  0  0
  190.7360  175.2430  138.3430 C   0  0  0  0  0  1  0  0  0  0  0  0
  190.5450  176.7530  144.6760 C   0  0  0  0  0  2  0  0  0  0  0  0
  189.3860  177.3400  138.4710 C   0  0  0  0  0  0  0  0  0  0  0  0
  187.1840  178.4290  141.3260 N   0  0  0  0  0  0  0  0  0  0  0  0
  190.5550  176.9380  136.4310 N   0  0  0  0  0  0  0  0  0  0  0  0
  188.7000  177.8810  137.4420 C   0  0  0  0  0  0  0  0  0  0  0  0
  188.9400  178.0810  143.0230 C   0  0  1  0  0  3  0  0  0  0  0  0
  188.9600  177.5010  139.7960 C   0  0  0  0  0  0  0  0  0  0  0  0
  191.4500  177.7860  142.5910 C   0  0  0  0  0  2  0  0  0  0  0  0
  187.5270  178.5880  137.6440 C   0  0  0  0  0  3  0  0  0  0  0  0
  188.3800  177.4530  145.2280 O   0  0  0  0  0  0  0  0  0  0  0  0
  189.2280  177.4070  144.3510 C   0  0  0  0  0  0  0  0  0  0  0  0
  190.0730  177.9910  141.9720 C   0  0  1  0  0  3  0  0  0  0  0  0
  183.5820  178.2530  142.5950 C   0  0  0  0  0  2  0  0  0  0  0  0
  186.0640  179.3650  141.4670 C   0  0  0  0  0  3  0  0  0  0  0  0
  185.6670  179.6030  142.9310 C   0  0  0  0  0  2  0  0  0  0  0  0
  184.8020  178.4710  143.4820 C   0  0  0  0  0  2  0  0  0  0  0  0
  184.0280  177.8760  141.1870 C   0  0  0  0  0  2  0  0  0  0  0  0
  184.8680  178.9970  140.5780 C   0  0  0  0  0  2  0  0  0  0  0  0
  2 12  1  0  0  0  0
  4 13  1  0  0  0  0
  4 14  1  0  0  0  0
  5 13  1  0  0  0  0
  6  2  2  0  0  0  0
  7  9  1  6  0  0  0
  7 11  1  0  0  0  0
  8 10  1  0  0  0  0
 11 16  2  0  0  0  0
 12 23  1  0  0  0  0
 12  1  1  0  0  0  0
 13  7  1  0  0  0  0
 14 18  2  0  0  0  0
 14 11  1  0  0  0  0
 15  1  1  6  0  0  0
 15 20  1  0  0  0  0
 16  2  1  0  0  0  0
 16  3  1  0  0  0  0
 17  8  1  0  0  0  0
 18  6  1  0  0  0  0
 20 10  1  0  0  0  0
 20 19  2  0  0  0  0
 21  3  1  6  0  0  0
 21 17  1  0  0  0  0
 21 15  1  0  0  0  0
 22 25  1  0  0  0  0
 23 24  1  0  0  0  0
 24 25  1  0  0  0  0
 26 22  1  0  0  0  0
 27 26  1  0  0  0  0
 27 23  1  0  0  0  0
M  END
>  <MODEL>
6

>  <REMARK>
 VINA RESULT:      -7.6      2.625      5.271
  Name = 
  1 active torsions:
  status: ('A' for Active; 'I' for Inactive)
    1  A    between atoms: C_9  and  N_15
                            x       y       z     vdW  Elec       q    Type
                         _______ _______ _______ _____ _____    ______ ____

>  <TORSDO>
F 1

$$$$
=
 OpenBabel11052413403D

 27 31  0  0  1  0  0  0  0  0999 V2000
  183.3130  178.0670  141.0380 C   0  0  0  0  0  2  0  0  0  0  0  0
  185.5580  178.3650  139.8870 C   0  0  0  0  0  0  0  0  0  0  0  0
  185.7170  178.2210  142.4620 C   0  0  0  0  0  2  0  0  0  0  0  0
  189.7080  178.1250  139.8760 N   0  0  0  0  0  2  0  0  0  0  0  0
  190.8370  176.7740  141.3580 C   0  0  0  0  0  1  0  0  0  0  0  0
  186.2200  178.4140  138.6840 N   0  0  0  0  0  0  0  0  0  0  0  0
  188.7830  178.0130  141.9900 C   0  0  2  0  0  3  0  0  0  0  0  0
  184.1210  178.8740  144.9920 C   0  0  0  0  0  2  0  0  0  0  0  0
  188.5610  176.8040  142.9040 C   0  0  0  0  0  1  0  0  0  0  0  0
  182.6310  178.8250  144.6840 C   0  0  0  0  0  2  0  0  0  0  0  0
  187.7090  178.1150  140.9570 C   0  0  0  0  0  0  0  0  0  0  0  0
  184.1160  178.4810  139.8890 N   0  0  0  0  0  0  0  0  0  0  0  0
  190.0760  178.0160  141.2320 N   0  0  0  0  0  0  0  0  0  0  0  0
  188.3080  178.1810  139.7490 C   0  0  0  0  0  0  0  0  0  0  0  0
  183.3450  179.1270  142.1410 C   0  0  1  0  0  3  0  0  0  0  0  0
  186.3200  178.2330  141.0880 C   0  0  0  0  0  0  0  0  0  0  0  0
  184.8120  179.8920  144.1000 C   0  0  0  0  0  2  0  0  0  0  0  0
  187.5760  178.3330  138.5830 C   0  0  0  0  0  3  0  0  0  0  0  0
  181.1680  178.5860  142.8730 O   0  0  0  0  0  0  0  0  0  0  0  0
  182.3200  178.8050  143.2110 C   0  0  0  0  0  0  0  0  0  0  0  0
  184.7780  179.4090  142.6550 C   0  0  1  0  0  3  0  0  0  0  0  0
  180.5160  179.1340  138.7820 C   0  0  0  0  0  2  0  0  0  0  0  0
  183.4430  178.8530  138.6390 C   0  0  0  0  0  3  0  0  0  0  0  0
  182.7680  180.2300  138.7140 C   0  0  0  0  0  2  0  0  0  0  0  0
  181.4220  180.1720  139.4320 C   0  0  0  0  0  2  0  0  0  0  0  0
  181.1640  177.7580  138.8630 C   0  0  0  0  0  2  0  0  0  0  0  0
  182.5010  177.7560  138.1240 C   0  0  0  0  0  2  0  0  0  0  0  0
  2 12  1  0  0  0  0
  2 16  1  0  0  0  0
  4 13  1  0  0  0  0
  6  2  2  0  0  0  0
  7  9  1  6  0  0  0
 10  8  1  0  0  0  0
 11 16  2  0  0  0  0
 11  7  1  0  0  0  0
 12  1  1  0  0  0  0
 13  5  1  0  0  0  0
 13  7  1  0  0  0  0
 14  4  1  0  0  0  0
 14 11  1  0  0  0  0
 15  1  1  6  0  0  0
 15 21  1  0  0  0  0
 15 20  1  0  0  0  0
 16  3  1  0  0  0  0
 17  8  1  0  0  0  0
 18  6  1  0  0  0  0
 18 14  2  0  0  0  0
 19 20  2  0  0  0  0
 20 10  1  0  0  0  0
 21  3  1  1  0  0  0
 21 17  1  0  0  0  0
 22 26  1  0  0  0  0
 22 25  1  0  0  0  0
 23 24  1  0  0  0  0
 23 12  1  0  0  0  0
 24 25  1  0  0  0  0
 27 23  1  0  0  0  0
 27 26  1  0  0  0  0
M  END
>  <MODEL>
7

>  <REMARK>
 VINA RESULT:      -7.4      0.976      1.192
  Name = 
  1 active torsions:
  status: ('A' for Active; 'I' for Inactive)
    1  A    between atoms: C_9  and  N_15
                            x       y       z     vdW  Elec       q    Type
                         _______ _______ _______ _____ _____    ______ ____

>  <TORSDO>
F 1

$$$$
=
 OpenBabel11052413403D

 27 31  0  0  1  0  0  0  0  0999 V2000
  189.3330  176.9710  140.5210 C   0  0  0  0  0  2  0  0  0  0  0  0
  187.2280  178.1610  141.2990 C   0  0  0  0  0  0  0  0  0  0  0  0
  187.3780  177.8760  138.7360 C   0  0  0  0  0  2  0  0  0  0  0  0
  183.3280  179.4550  140.6670 N   0  0  0  0  0  2  0  0  0  0  0  0
  181.9900  178.4940  139.0610 C   0  0  0  0  0  1  0  0  0  0  0  0
  186.4750  178.5460  142.3820 N   0  0  0  0  0  0  0  0  0  0  0  0
  184.4220  178.8410  138.7270 C   0  0  2  0  0  3  0  0  0  0  0  0
  189.4300  177.6940  136.4710 C   0  0  0  0  0  2  0  0  0  0  0  0
  184.3000  177.5640  137.8890 C   0  0  0  0  0  1  0  0  0  0  0  0
  190.7380  177.1280  137.0090 C   0  0  0  0  0  2  0  0  0  0  0  0
  185.3060  178.6280  139.9130 C   0  0  0  0  0  0  0  0  0  0  0  0
  188.5950  177.7420  141.5200 N   0  0  0  0  0  0  0  0  0  0  0  0
  183.1340  179.3780  139.2730 N   0  0  0  0  0  0  0  0  0  0  0  0
  184.6160  179.0070  141.0100 C   0  0  0  0  0  0  0  0  0  0  0  0
  189.8490  177.8760  139.4010 C   0  0  1  0  0  3  0  0  0  0  0  0
  186.6430  178.2190  139.9970 C   0  0  0  0  0  0  0  0  0  0  0  0
  189.0550  178.9610  137.2190 C   0  0  0  0  0  2  0  0  0  0  0  0
  185.1860  178.9750  142.2720 C   0  0  0  0  0  3  0  0  0  0  0  0
  191.7450  176.5200  139.0330 O   0  0  0  0  0  0  0  0  0  0  0  0
  190.8150  177.1160  138.5130 C   0  0  0  0  0  0  0  0  0  0  0  0
  188.7100  178.6190  138.6620 C   0  0  1  0  0  3  0  0  0  0  0  0
  191.5790  176.3470  143.4610 C   0  0  0  0  0  2  0  0  0  0  0  0
  189.1820  177.9430  142.8500 C   0  0  0  0  0  3  0  0  0  0  0  0
  190.5900  178.5510  142.7930 C   0  0  0  0  0  2  0  0  0  0  0  0
  191.6550  177.5040  142.4720 C   0  0  0  0  0  2  0  0  0  0  0  0
  190.2100  175.6830  143.3750 C   0  0  0  0  0  2  0  0  0  0  0  0
  189.1110  176.6840  143.7260 C   0  0  0  0  0  2  0  0  0  0  0  0
  1 12  1  0  0  0  0
  2 12  1  0  0  0  0
  2  6  1  0  0  0  0
  3 16  1  0  0  0  0
  4 14  1  0  0  0  0
  5 13  1  0  0  0  0
  7  9  1  1  0  0  0
  7 13  1  0  0  0  0
  7 11  1  0  0  0  0
  8 10  1  0  0  0  0
  8 17  1  0  0  0  0
 10 20  1  0  0  0  0
 11 16  1  0  0  0  0
 11 14  2  0  0  0  0
 12 23  1  0  0  0  0
 13  4  1  0  0  0  0
 14 18  1  0  0  0  0
 15  1  1  1  0  0  0
 16  2  2  0  0  0  0
 18  6  2  0  0  0  0
 20 19  2  0  0  0  0
 20 15  1  0  0  0  0
 21 17  1  6  0  0  0
 21  3  1  0  0  0  0
 21 15  1  0  0  0  0
 23 27  1  0  0  0  0
 24 23  1  0  0  0  0
 25 24  1  0  0  0  0
 25 22  1  0  0  0  0
 26 22  1  0  0  0  0
 26 27  1  0  0  0  0
M  END
>  <MODEL>
8

>  <REMARK>
 VINA RESULT:      -7.3      2.740      7.583
  Name = 
  1 active torsions:
  status: ('A' for Active; 'I' for Inactive)
    1  A    between atoms: C_9  and  N_15
                            x       y       z     vdW  Elec       q    Type
                         _______ _______ _______ _____ _____    ______ ____

>  <TORSDO>
F 1

$$$$
=
 OpenBabel11052413403D

 27 31  0  0  1  0  0  0  0  0999 V2000
  187.3820  177.3540  139.4560 C   0  0  0  0  0  2  0  0  0  0  0  0
  189.5450  177.6720  140.7500 C   0  0  0  0  0  0  0  0  0  0  0  0
  187.4200  177.8760  142.2050 C   0  0  0  0  0  2  0  0  0  0  0  0
  191.6810  177.7550  144.3160 N   0  0  0  0  0  2  0  0  0  0  0  0
  190.9020  176.6990  146.2060 C   0  0  0  0  0  1  0  0  0  0  0  0
  190.9160  177.6170  140.7000 N   0  0  0  0  0  0  0  0  0  0  0  0
  189.3910  177.8470  144.6090 C   0  0  2  0  0  3  0  0  0  0  0  0
  184.4830  178.7270  142.0350 C   0  0  0  0  0  2  0  0  0  0  0  0
  188.4090  176.7530  145.0420 C   0  0  0  0  0  1  0  0  0  0  0  0
  183.9730  178.5230  140.6150 C   0  0  0  0  0  2  0  0  0  0  0  0
  189.7250  177.7310  143.1580 C   0  0  0  0  0  0  0  0  0  0  0  0
  188.8070  177.6760  139.5060 N   0  0  0  0  0  0  0  0  0  0  0  0
  190.7060  177.8510  145.3290 N   0  0  0  0  0  0  0  0  0  0  0  0
  191.0700  177.6860  143.0500 C   0  0  0  0  0  0  0  0  0  0  0  0
  186.5330  178.5470  139.9000 C   0  0  1  0  0  3  0  0  0  0  0  0
  188.9040  177.7570  142.0240 C   0  0  0  0  0  0  0  0  0  0  0  0
  185.6740  179.6700  142.0380 C   0  0  0  0  0  2  0  0  0  0  0  0
  191.6980  177.6280  141.8170 C   0  0  0  0  0  3  0  0  0  0  0  0
  184.7460  177.9380  138.4840 O   0  0  0  0  0  0  0  0  0  0  0  0
  185.0680  178.2880  139.6080 C   0  0  0  0  0  0  0  0  0  0  0  0
  186.8550  179.0030  141.3440 C   0  0  1  0  0  3  0  0  0  0  0  0
  188.0200  177.3930  135.7750 C   0  0  0  0  0  2  0  0  0  0  0  0
  189.5520  177.8300  138.2510 C   0  0  0  0  0  3  0  0  0  0  0  0
  189.0470  179.0030  137.3990 C   0  0  0  0  0  2  0  0  0  0  0  0
  187.7860  178.6420  136.6160 C   0  0  0  0  0  2  0  0  0  0  0  0
  188.3770  176.2200  136.6800 C   0  0  0  0  0  2  0  0  0  0  0  0
  189.6560  176.5190  137.4590 C   0  0  0  0  0  2  0  0  0  0  0  0
  1 12  1  0  0  0  0
  2 16  1  0  0  0  0
  4 13  1  0  0  0  0
  6  2  2  0  0  0  0
  6 18  1  0  0  0  0
  7  9  1  1  0  0  0
  7 13  1  0  0  0  0
  8 17  1  0  0  0  0
 10  8  1  0  0  0  0
 11  7  1  0  0  0  0
 12  2  1  0  0  0  0
 13  5  1  0  0  0  0
 14 11  1  0  0  0  0
 14  4  1  0  0  0  0
 15  1  1  1  0  0  0
 15 21  1  0  0  0  0
 16  3  1  0  0  0  0
 16 11  2  0  0  0  0
 18 14  2  0  0  0  0
 19 20  2  0  0  0  0
 20 15  1  0  0  0  0
 20 10  1  0  0  0  0
 21 17  1  1  0  0  0
 21  3  1  0  0  0  0
 22 25  1  0  0  0  0
 22 26  1  0  0  0  0
 23 12  1  0  0  0  0
 24 23  1  0  0  0  0
 25 24  1  0  0  0  0
 26 27  1  0  0  0  0
 27 23  1  0  0  0  0
M  END
>  <MODEL>
9

>  <REMARK>
 VINA RESULT:      -7.2      2.242      3.986
  Name = 
  1 active torsions:
  status: ('A' for Active; 'I' for Inactive)
    1  A    between atoms: C_9  and  N_15
                            x       y       z     vdW  Elec       q    Type
                         _______ _______ _______ _____ _____    ______ ____

>  <TORSDO>
F 1

$$$$
