=
 OpenBabel11052414183D

 34 40  0  0  1  0  0  0  0  0999 V2000
  188.9890  177.1120  146.3250 C   0  0  0  0  0  0  0  0  0  0  0  0
  190.7840  176.7600  144.7110 C   0  0  0  0  0  0  0  0  0  0  0  0
  188.4740  176.9170  143.8790 C   0  0  1  0  0  3  0  0  0  0  0  0
  188.3220  178.4120  141.8050 C   0  0  1  0  0  3  0  0  0  0  0  0
  191.2750  176.8010  147.0810 C   0  0  0  0  0  3  0  0  0  0  0  0
  191.7140  176.6890  145.7510 C   0  0  0  0  0  3  0  0  0  0  0  0
  190.3460  177.5510  142.5200 C   0  0  0  0  0  0  0  0  0  0  0  0
  189.4110  176.8410  145.0270 C   0  0  0  0  0  0  0  0  0  0  0  0
  189.1950  178.0710  140.5730 C   0  0  0  0  0  2  0  0  0  0  0  0
  189.9220  177.0570  147.3660 C   0  0  0  0  0  3  0  0  0  0  0  0
  186.9990  177.1710  144.2080 C   0  0  2  0  0  3  0  0  0  0  0  0
  187.6470  177.6920  146.5180 C   0  0  0  0  0  3  0  0  0  0  0  0
  191.1970  176.9810  143.3380 N   0  0  0  0  0  0  0  0  0  0  0  0
  186.8950  177.8690  141.7630 C   0  0  0  0  0  2  0  0  0  0  0  0
  186.3030  177.8920  143.1170 N   0  0  0  0  0  0  0  0  0  0  0  0
  190.5040  177.6930  141.1180 N   0  0  0  0  0  0  0  0  0  0  0  0
  189.0380  177.8600  142.9360 N   0  0  0  0  0  0  0  0  0  0  0  0
  186.7940  177.7810  145.5330 N   0  0  0  0  0  0  0  0  0  0  0  0
  182.7330  178.7170  142.2780 C   0  0  0  0  0  0  0  0  0  0  0  0
  182.2520  179.1250  143.5230 C   0  0  0  0  0  3  0  0  0  0  0  0
  184.9280  178.3030  143.2500 C   0  0  0  0  0  0  0  0  0  0  0  0
  183.1010  179.1290  144.6330 C   0  0  0  0  0  3  0  0  0  0  0  0
  184.0630  178.3100  142.1420 C   0  0  0  0  0  3  0  0  0  0  0  0
  184.4300  178.7220  144.4960 C   0  0  0  0  0  3  0  0  0  0  0  0
  181.8310  178.7130  141.0970 C   0  0  0  0  0  1  0  0  0  0  0  0
  191.4780  176.7750  139.1100 C   0  0  0  0  0  3  0  0  0  0  0  0
  191.6250  177.3260  140.3080 C   0  0  0  0  0  3  0  0  0  0  0  0
  192.6740  176.4180  138.3010 C   0  0  0  0  0  2  0  0  0  0  0  0
  192.4710  175.0590  137.6330 C   0  0  2  0  0  3  0  0  0  0  0  0
  193.7540  174.2220  137.6340 C   0  0  0  0  0  2  0  0  0  0  0  0
  193.9730  174.7970  135.2710 N   0  0  0  0  0  2  0  0  0  0  0  0
  192.8580  175.7220  135.4580 C   0  0  0  0  0  2  0  0  0  0  0  0
  191.9050  175.1650  136.3370 O   0  0  0  0  0  0  0  0  0  0  0  0
  194.6910  174.7180  136.5370 C   0  0  0  0  0  2  0  0  0  0  0  0
  1 12  1  0  0  0  0
  1 10  1  0  0  0  0
  2  8  1  0  0  0  0
  2  6  2  0  0  0  0
  3 11  1  0  0  0  0
  3  8  1  1  0  0  0
  4  9  1  6  0  0  0
  4 17  1  0  0  0  0
  5 10  2  0  0  0  0
  6  5  1  0  0  0  0
  7 17  1  0  0  0  0
  7 13  2  0  0  0  0
  8  1  2  0  0  0  0
  9 16  1  0  0  0  0
 11 18  1  1  0  0  0
 13  2  1  0  0  0  0
 14  4  1  0  0  0  0
 14 15  1  0  0  0  0
 15 21  1  0  0  0  0
 15 11  1  0  0  0  0
 16  7  1  0  0  0  0
 17  3  1  0  0  0  0
 18 12  2  0  0  0  0
 19 20  1  0  0  0  0
 20 22  2  0  0  0  0
 21 24  2  0  0  0  0
 23 19  2  0  0  0  0
 23 21  1  0  0  0  0
 24 22  1  0  0  0  0
 25 19  1  0  0  0  0
 26 27  2  0  0  0  0
 27 16  1  0  0  0  0
 28 26  1  0  0  0  0
 29 30  1  0  0  0  0
 29 28  1  6  0  0  0
 31 32  1  0  0  0  0
 31 34  1  0  0  0  0
 32 33  1  0  0  0  0
 33 29  1  0  0  0  0
 34 30  1  0  0  0  0
M  END
>  <MODEL>
1

>  <REMARK>
 VINA RESULT:     -10.7      0.000      0.000
  Name = 
  4 active torsions:
  status: ('A' for Active; 'I' for Inactive)
    1  A    between atoms: C_3  and  C_13
    2  A    between atoms: C_11  and  C_13
    3  A    between atoms: C_12  and  N_28
    4  A    between atoms: C_17  and  N_29
                            x       y       z     vdW  Elec       q    Type
                         _______ _______ _______ _____ _____    ______ ____

>  <TORSDO>
F 4

$$$$
=
 OpenBabel11052414183D

 34 40  0  0  1  0  0  0  0  0999 V2000
  190.6230  176.9990  145.5840 C   0  0  0  0  0  0  0  0  0  0  0  0
  188.3810  177.8680  145.9920 C   0  0  0  0  0  0  0  0  0  0  0  0
  189.3410  178.1120  143.7400 C   0  0  1  0  0  3  0  0  0  0  0  0
  187.6410  177.5080  141.9220 C   0  0  1  0  0  3  0  0  0  0  0  0
  189.6660  176.9260  147.8150 C   0  0  0  0  0  3  0  0  0  0  0  0
  188.4810  177.5120  147.3390 C   0  0  0  0  0  3  0  0  0  0  0  0
  186.9720  177.9700  144.0880 C   0  0  0  0  0  0  0  0  0  0  0  0
  189.5120  177.7200  145.1620 C   0  0  0  0  0  0  0  0  0  0  0  0
  186.2850  178.2550  141.8900 C   0  0  0  0  0  2  0  0  0  0  0  0
  190.7180  176.6270  146.9300 C   0  0  0  0  0  3  0  0  0  0  0  0
  190.5080  177.8040  142.7950 C   0  0  2  0  0  3  0  0  0  0  0  0
  191.5230  176.4350  144.5610 C   0  0  0  0  0  3  0  0  0  0  0  0
  187.0990  178.1620  145.3780 N   0  0  0  0  0  0  0  0  0  0  0  0
  188.7210  178.0750  141.0040 C   0  0  0  0  0  2  0  0  0  0  0  0
  190.0490  177.5690  141.4060 N   0  0  0  0  0  0  0  0  0  0  0  0
  185.8650  178.3560  143.2910 N   0  0  0  0  0  0  0  0  0  0  0  0
  188.0710  177.5710  143.3040 N   0  0  0  0  0  0  0  0  0  0  0  0
  191.4040  176.7500  143.2990 N   0  0  0  0  0  0  0  0  0  0  0  0
  191.4510  176.0510  138.2660 C   0  0  0  0  0  0  0  0  0  0  0  0
  192.7910  176.4300  138.3600 C   0  0  0  0  0  3  0  0  0  0  0  0
  190.9720  177.1850  140.3680 C   0  0  0  0  0  0  0  0  0  0  0  0
  193.2300  177.1820  139.4530 C   0  0  0  0  0  3  0  0  0  0  0  0
  190.5470  176.4250  139.2650 C   0  0  0  0  0  3  0  0  0  0  0  0
  192.3260  177.5540  140.4510 C   0  0  0  0  0  3  0  0  0  0  0  0
  190.9840  175.2510  137.1030 C   0  0  0  0  0  1  0  0  0  0  0  0
  183.4700  178.6330  143.1720 C   0  0  0  0  0  3  0  0  0  0  0  0
  184.6380  178.9620  143.7100 C   0  0  0  0  0  3  0  0  0  0  0  0
  182.2200  179.2850  143.6470 C   0  0  0  0  0  2  0  0  0  0  0  0
  181.0010  178.5770  143.0590 C   0  0  2  0  0  3  0  0  0  0  0  0
  181.1180  178.3980  141.5420 C   0  0  0  0  0  2  0  0  0  0  0  0
  179.5290  180.2410  141.3350 N   0  0  0  0  0  2  0  0  0  0  0  0
  179.6680  180.4370  142.7760 C   0  0  0  0  0  2  0  0  0  0  0  0
  179.7780  179.1920  143.4300 O   0  0  0  0  0  0  0  0  0  0  0  0
  180.7970  179.7150  140.8430 C   0  0  0  0  0  2  0  0  0  0  0  0
  1 10  1  0  0  0  0
  2  6  2  0  0  0  0
  3  8  1  1  0  0  0
  4 14  1  6  0  0  0
  4 17  1  0  0  0  0
  6  5  1  0  0  0  0
  7 13  2  0  0  0  0
  8  1  2  0  0  0  0
  8  2  1  0  0  0  0
  9  4  1  0  0  0  0
  9 16  1  0  0  0  0
 10  5  2  0  0  0  0
 11 18  1  1  0  0  0
 11  3  1  0  0  0  0
 12  1  1  0  0  0  0
 13  2  1  0  0  0  0
 14 15  1  0  0  0  0
 15 11  1  0  0  0  0
 16 27  1  0  0  0  0
 16  7  1  0  0  0  0
 17  3  1  0  0  0  0
 17  7  1  0  0  0  0
 18 12  2  0  0  0  0
 19 20  2  0  0  0  0
 19 23  1  0  0  0  0
 20 22  1  0  0  0  0
 21 24  1  0  0  0  0
 21 15  1  0  0  0  0
 22 24  2  0  0  0  0
 23 21  2  0  0  0  0
 25 19  1  0  0  0  0
 26 28  1  0  0  0  0
 26 27  2  0  0  0  0
 29 33  1  0  0  0  0
 29 28  1  6  0  0  0
 30 29  1  0  0  0  0
 31 32  1  0  0  0  0
 32 33  1  0  0  0  0
 34 31  1  0  0  0  0
 34 30  1  0  0  0  0
M  END
>  <MODEL>
2

>  <REMARK>
 VINA RESULT:     -10.3      3.069      8.566
  Name = 
  4 active torsions:
  status: ('A' for Active; 'I' for Inactive)
    1  A    between atoms: C_3  and  C_13
    2  A    between atoms: C_11  and  C_13
    3  A    between atoms: C_12  and  N_28
    4  A    between atoms: C_17  and  N_29
                            x       y       z     vdW  Elec       q    Type
                         _______ _______ _______ _____ _____    ______ ____

>  <TORSDO>
F 4

$$$$
=
 OpenBabel11052414183D

 34 40  0  0  1  0  0  0  0  0999 V2000
  185.9320  178.1970  145.4540 C   0  0  0  0  0  0  0  0  0  0  0  0
  187.8340  177.7120  144.0070 C   0  0  0  0  0  0  0  0  0  0  0  0
  185.5850  177.7570  143.0110 C   0  0  1  0  0  3  0  0  0  0  0  0
  185.5640  179.0400  140.7940 C   0  0  1  0  0  3  0  0  0  0  0  0
  188.1640  177.9910  146.3890 C   0  0  0  0  0  3  0  0  0  0  0  0
  188.6920  177.7550  145.1090 C   0  0  0  0  0  3  0  0  0  0  0  0
  187.5410  178.2790  141.7240 C   0  0  0  0  0  0  0  0  0  0  0  0
  186.4430  177.8060  144.2210 C   0  0  0  0  0  0  0  0  0  0  0  0
  186.5220  178.5910  139.6630 C   0  0  0  0  0  2  0  0  0  0  0  0
  186.7930  178.2570  146.5560 C   0  0  0  0  0  3  0  0  0  0  0  0
  184.0890  178.0230  143.2140 C   0  0  2  0  0  3  0  0  0  0  0  0
  184.5760  178.7760  145.4990 C   0  0  0  0  0  3  0  0  0  0  0  0
  188.3380  177.8030  142.6490 N   0  0  0  0  0  0  0  0  0  0  0  0
  184.1470  178.4780  140.7110 C   0  0  0  0  0  2  0  0  0  0  0  0
  183.4650  178.6250  142.0130 N   0  0  0  0  0  0  0  0  0  0  0  0
  187.7920  178.2860  140.3280 N   0  0  0  0  0  0  0  0  0  0  0  0
  186.2060  178.6110  142.0200 N   0  0  0  0  0  0  0  0  0  0  0  0
  183.7910  178.7570  144.4560 N   0  0  0  0  0  0  0  0  0  0  0  0
  179.9470  179.2950  143.1550 C   0  0  0  0  0  0  0  0  0  0  0  0
  179.3790  179.8090  141.9880 C   0  0  0  0  0  3  0  0  0  0  0  0
  182.0810  179.0300  142.0120 C   0  0  0  0  0  0  0  0  0  0  0  0
  180.1520  179.9330  140.8310 C   0  0  0  0  0  3  0  0  0  0  0  0
  181.2890  178.9060  143.1670 C   0  0  0  0  0  3  0  0  0  0  0  0
  181.4940  179.5440  140.8430 C   0  0  0  0  0  3  0  0  0  0  0  0
  179.1250  179.1610  144.3860 C   0  0  0  0  0  1  0  0  0  0  0  0
  188.9630  177.5940  138.3350 C   0  0  0  0  0  3  0  0  0  0  0  0
  188.9680  177.8550  139.6360 C   0  0  0  0  0  3  0  0  0  0  0  0
  190.2130  177.1560  137.6570 C   0  0  0  0  0  2  0  0  0  0  0  0
  191.0380  176.2730  138.5910 C   0  0  2  0  0  3  0  0  0  0  0  0
  192.5320  176.6080  138.5270 C   0  0  0  0  0  2  0  0  0  0  0  0
  192.7920  174.5820  137.1890 N   0  0  0  0  0  2  0  0  0  0  0  0
  191.3340  174.4930  137.1560 C   0  0  0  0  0  2  0  0  0  0  0  0
  190.7930  174.8900  138.3970 O   0  0  0  0  0  0  0  0  0  0  0  0
  193.1400  175.9950  137.2700 C   0  0  0  0  0  2  0  0  0  0  0  0
  1 12  1  0  0  0  0
  1 10  1  0  0  0  0
  2  8  1  0  0  0  0
  2  6  2  0  0  0  0
  3 11  1  0  0  0  0
  3  8  1  1  0  0  0
  4  9  1  6  0  0  0
  4 17  1  0  0  0  0
  5 10  2  0  0  0  0
  6  5  1  0  0  0  0
  7 17  1  0  0  0  0
  7 13  2  0  0  0  0
  8  1  2  0  0  0  0
  9 16  1  0  0  0  0
 11 18  1  1  0  0  0
 13  2  1  0  0  0  0
 14  4  1  0  0  0  0
 14 15  1  0  0  0  0
 15 11  1  0  0  0  0
 16  7  1  0  0  0  0
 17  3  1  0  0  0  0
 18 12  2  0  0  0  0
 19 23  1  0  0  0  0
 19 25  1  0  0  0  0
 20 19  2  0  0  0  0
 21 15  1  0  0  0  0
 21 23  2  0  0  0  0
 22 24  2  0  0  0  0
 22 20  1  0  0  0  0
 24 21  1  0  0  0  0
 26 27  2  0  0  0  0
 27 16  1  0  0  0  0
 28 26  1  0  0  0  0
 29 28  1  6  0  0  0
 30 29  1  0  0  0  0
 31 34  1  0  0  0  0
 32 31  1  0  0  0  0
 32 33  1  0  0  0  0
 33 29  1  0  0  0  0
 34 30  1  0  0  0  0
M  END
>  <MODEL>
3

>  <REMARK>
 VINA RESULT:      -9.6      1.842      3.170
  Name = 
  4 active torsions:
  status: ('A' for Active; 'I' for Inactive)
    1  A    between atoms: C_3  and  C_13
    2  A    between atoms: C_11  and  C_13
    3  A    between atoms: C_12  and  N_28
    4  A    between atoms: C_17  and  N_29
                            x       y       z     vdW  Elec       q    Type
                         _______ _______ _______ _____ _____    ______ ____

>  <TORSDO>
F 4

$$$$
=
 OpenBabel11052414183D

 34 40  0  0  1  0  0  0  0  0999 V2000
  190.3980  177.1990  140.6400 C   0  0  0  0  0  0  0  0  0  0  0  0
  188.5500  177.6530  139.1160 C   0  0  0  0  0  0  0  0  0  0  0  0
  188.0380  177.2380  141.4860 C   0  0  1  0  0  3  0  0  0  0  0  0
  186.3300  178.9200  142.3880 C   0  0  1  0  0  3  0  0  0  0  0  0
  190.8090  177.4740  138.2630 C   0  0  0  0  0  3  0  0  0  0  0  0
  189.4410  177.7050  138.0400 C   0  0  0  0  0  3  0  0  0  0  0  0
  186.6220  178.6050  140.1150 C   0  0  0  0  0  0  0  0  0  0  0  0
  189.0330  177.2700  140.3840 C   0  0  0  0  0  0  0  0  0  0  0  0
  184.9620  179.0500  141.6740 C   0  0  0  0  0  2  0  0  0  0  0  0
  191.2930  177.2670  139.5660 C   0  0  0  0  0  3  0  0  0  0  0  0
  188.5800  176.9840  142.8970 C   0  0  2  0  0  3  0  0  0  0  0  0
  190.8560  177.3130  142.0370 C   0  0  0  0  0  3  0  0  0  0  0  0
  187.2080  178.1980  139.0150 N   0  0  0  0  0  0  0  0  0  0  0  0
  186.3490  177.9880  143.5970 C   0  0  0  0  0  2  0  0  0  0  0  0
  187.7400  177.6230  143.9360 N   0  0  0  0  0  0  0  0  0  0  0  0
  185.2670  179.0030  140.2400 N   0  0  0  0  0  0  0  0  0  0  0  0
  187.2400  178.4400  141.3680 N   0  0  0  0  0  0  0  0  0  0  0  0
  190.0140  177.2930  143.0350 N   0  0  0  0  0  0  0  0  0  0  0  0
  189.7440  177.1270  147.0780 C   0  0  0  0  0  0  0  0  0  0  0  0
  188.8080  177.4790  148.0520 C   0  0  0  0  0  3  0  0  0  0  0  0
  188.1100  177.5780  145.3290 C   0  0  0  0  0  0  0  0  0  0  0  0
  187.5240  177.8780  147.6740 C   0  0  0  0  0  3  0  0  0  0  0  0
  189.3960  177.1740  145.7250 C   0  0  0  0  0  3  0  0  0  0  0  0
  187.1760  177.9240  146.3220 C   0  0  0  0  0  3  0  0  0  0  0  0
  191.1110  176.7030  147.4780 C   0  0  0  0  0  1  0  0  0  0  0  0
  183.0050  179.3790  139.4890 C   0  0  0  0  0  3  0  0  0  0  0  0
  184.2760  179.1170  139.2140 C   0  0  0  0  0  3  0  0  0  0  0  0
  182.0130  179.4960  138.3870 C   0  0  0  0  0  2  0  0  0  0  0  0
  180.7670  180.2330  138.8760 C   0  0  2  0  0  3  0  0  0  0  0  0
  179.5600  179.9880  137.9640 C   0  0  0  0  0  2  0  0  0  0  0  0
  179.9380  182.2340  137.0820 N   0  0  0  0  0  2  0  0  0  0  0  0
  181.1800  182.2570  137.8500 C   0  0  0  0  0  2  0  0  0  0  0  0
  180.9980  181.6160  139.0940 O   0  0  0  0  0  0  0  0  0  0  0  0
  179.6820  180.8470  136.7100 C   0  0  0  0  0  2  0  0  0  0  0  0
  1 12  1  0  0  0  0
  2  8  2  0  0  0  0
  3  8  1  6  0  0  0
  3 11  1  0  0  0  0
  4  9  1  6  0  0  0
  4 14  1  0  0  0  0
  5 10  1  0  0  0  0
  6  5  2  0  0  0  0
  6  2  1  0  0  0  0
  7 16  1  0  0  0  0
  7 17  1  0  0  0  0
  8  1  1  0  0  0  0
 10  1  2  0  0  0  0
 11 18  1  6  0  0  0
 11 15  1  0  0  0  0
 12 18  2  0  0  0  0
 13  2  1  0  0  0  0
 13  7  2  0  0  0  0
 14 15  1  0  0  0  0
 15 21  1  0  0  0  0
 16  9  1  0  0  0  0
 17  3  1  0  0  0  0
 17  4  1  0  0  0  0
 19 25  1  0  0  0  0
 19 20  1  0  0  0  0
 21 23  1  0  0  0  0
 21 24  2  0  0  0  0
 22 20  2  0  0  0  0
 23 19  2  0  0  0  0
 24 22  1  0  0  0  0
 27 26  2  0  0  0  0
 27 16  1  0  0  0  0
 28 26  1  0  0  0  0
 29 28  1  6  0  0  0
 29 33  1  0  0  0  0
 30 29  1  0  0  0  0
 31 32  1  0  0  0  0
 32 33  1  0  0  0  0
 34 31  1  0  0  0  0
 34 30  1  0  0  0  0
M  END
>  <MODEL>
4

>  <REMARK>
 VINA RESULT:      -9.5      3.546      8.375
  Name = 
  4 active torsions:
  status: ('A' for Active; 'I' for Inactive)
    1  A    between atoms: C_3  and  C_13
    2  A    between atoms: C_11  and  C_13
    3  A    between atoms: C_12  and  N_28
    4  A    between atoms: C_17  and  N_29
                            x       y       z     vdW  Elec       q    Type
                         _______ _______ _______ _____ _____    ______ ____

>  <TORSDO>
F 4

$$$$
=
 OpenBabel11052414183D

 34 40  0  0  1  0  0  0  0  0999 V2000
  188.9720  177.1300  145.9580 C   0  0  0  0  0  0  0  0  0  0  0  0
  190.9320  176.7260  144.5650 C   0  0  0  0  0  0  0  0  0  0  0  0
  188.7290  176.8580  143.4780 C   0  0  1  0  0  3  0  0  0  0  0  0
  188.8130  178.2870  141.3540 C   0  0  1  0  0  3  0  0  0  0  0  0
  191.1600  176.8420  146.9720 C   0  0  0  0  0  3  0  0  0  0  0  0
  191.7420  176.6880  145.7030 C   0  0  0  0  0  3  0  0  0  0  0  0
  190.7430  177.4470  142.3140 C   0  0  0  0  0  0  0  0  0  0  0  0
  189.5340  176.8180  144.7250 C   0  0  0  0  0  0  0  0  0  0  0  0
  189.8160  177.9060  140.2370 C   0  0  0  0  0  2  0  0  0  0  0  0
  189.7850  177.1090  147.0980 C   0  0  0  0  0  3  0  0  0  0  0  0
  187.2280  177.1230  143.6350 C   0  0  2  0  0  3  0  0  0  0  0  0
  187.6190  177.7170  145.9840 C   0  0  0  0  0  3  0  0  0  0  0  0
  191.4960  176.9030  143.2390 N   0  0  0  0  0  0  0  0  0  0  0  0
  187.3970  177.7430  141.1720 C   0  0  0  0  0  2  0  0  0  0  0  0
  186.6600  177.8090  142.4510 N   0  0  0  0  0  0  0  0  0  0  0  0
  191.0540  177.5450  140.9350 N   0  0  0  0  0  0  0  0  0  0  0  0
  189.3970  177.7710  142.5740 N   0  0  0  0  0  0  0  0  0  0  0  0
  186.8810  177.7750  144.9090 N   0  0  0  0  0  0  0  0  0  0  0  0
  183.2130  178.8150  143.5640 C   0  0  0  0  0  0  0  0  0  0  0  0
  182.5840  179.0220  142.3350 C   0  0  0  0  0  3  0  0  0  0  0  0
  185.2800  178.2260  142.4180 C   0  0  0  0  0  0  0  0  0  0  0  0
  183.2920  178.8300  141.1470 C   0  0  0  0  0  3  0  0  0  0  0  0
  184.5520  178.4180  143.6050 C   0  0  0  0  0  3  0  0  0  0  0  0
  184.6310  178.4330  141.1880 C   0  0  0  0  0  3  0  0  0  0  0  0
  182.4600  179.0180  144.8290 C   0  0  0  0  0  1  0  0  0  0  0  0
  192.2590  176.7510  139.0010 C   0  0  0  0  0  3  0  0  0  0  0  0
  192.2560  177.1510  140.2650 C   0  0  0  0  0  3  0  0  0  0  0  0
  193.5360  176.3590  138.3450 C   0  0  0  0  0  2  0  0  0  0  0  0
  193.3750  175.0120  137.6410 C   0  0  2  0  0  3  0  0  0  0  0  0
  194.5110  174.0450  137.9860 C   0  0  0  0  0  2  0  0  0  0  0  0
  195.4210  174.5340  135.7740 N   0  0  0  0  0  2  0  0  0  0  0  0
  194.4040  175.5760  135.6550 C   0  0  0  0  0  2  0  0  0  0  0  0
  193.1940  175.1450  136.2400 O   0  0  0  0  0  0  0  0  0  0  0  0
  195.7570  174.4110  137.1870 C   0  0  0  0  0  2  0  0  0  0  0  0
  1 12  1  0  0  0  0
  1 10  1  0  0  0  0
  2  8  1  0  0  0  0
  2  6  2  0  0  0  0
  3 11  1  0  0  0  0
  3  8  1  1  0  0  0
  4  9  1  6  0  0  0
  4 17  1  0  0  0  0
  5 10  2  0  0  0  0
  6  5  1  0  0  0  0
  7 17  1  0  0  0  0
  7 13  2  0  0  0  0
  8  1  2  0  0  0  0
  9 16  1  0  0  0  0
 11 18  1  1  0  0  0
 13  2  1  0  0  0  0
 14  4  1  0  0  0  0
 14 15  1  0  0  0  0
 15 11  1  0  0  0  0
 16  7  1  0  0  0  0
 17  3  1  0  0  0  0
 18 12  2  0  0  0  0
 19 23  1  0  0  0  0
 19 25  1  0  0  0  0
 20 19  2  0  0  0  0
 21 15  1  0  0  0  0
 21 23  2  0  0  0  0
 22 24  2  0  0  0  0
 22 20  1  0  0  0  0
 24 21  1  0  0  0  0
 26 27  2  0  0  0  0
 27 16  1  0  0  0  0
 28 26  1  0  0  0  0
 29 30  1  0  0  0  0
 29 28  1  6  0  0  0
 31 34  1  0  0  0  0
 32 31  1  0  0  0  0
 32 33  1  0  0  0  0
 33 29  1  0  0  0  0
 34 30  1  0  0  0  0
M  END
>  <MODEL>
5

>  <REMARK>
 VINA RESULT:      -9.4      0.813      1.337
  Name = 
  4 active torsions:
  status: ('A' for Active; 'I' for Inactive)
    1  A    between atoms: C_3  and  C_13
    2  A    between atoms: C_11  and  C_13
    3  A    between atoms: C_12  and  N_28
    4  A    between atoms: C_17  and  N_29
                            x       y       z     vdW  Elec       q    Type
                         _______ _______ _______ _____ _____    ______ ____

>  <TORSDO>
F 4

$$$$
=
 OpenBabel11052414183D

 34 40  0  0  1  0  0  0  0  0999 V2000
  188.3070  177.8820  139.2420 C   0  0  0  0  0  0  0  0  0  0  0  0
  189.2510  177.7900  141.4890 C   0  0  0  0  0  0  0  0  0  0  0  0
  187.0020  178.7460  141.2010 C   0  0  1  0  0  3  0  0  0  0  0  0
  185.3780  177.8800  142.9810 C   0  0  1  0  0  3  0  0  0  0  0  0
  190.5760  177.0880  139.5880 C   0  0  0  0  0  3  0  0  0  0  0  0
  190.4430  177.2730  140.9740 C   0  0  0  0  0  3  0  0  0  0  0  0
  187.6680  177.6920  143.2500 C   0  0  0  0  0  0  0  0  0  0  0  0
  188.2460  178.2090  140.5920 C   0  0  0  0  0  0  0  0  0  0  0  0
  185.7340  178.0750  144.4760 C   0  0  0  0  0  2  0  0  0  0  0  0
  189.4940  177.3490  138.7270 C   0  0  0  0  0  3  0  0  0  0  0  0
  185.8430  179.0490  140.2460 C   0  0  2  0  0  3  0  0  0  0  0  0
  187.0530  177.8680  138.4670 C   0  0  0  0  0  3  0  0  0  0  0  0
  188.9310  177.6960  142.9010 N   0  0  0  0  0  0  0  0  0  0  0  0
  184.4660  178.9490  142.3840 C   0  0  0  0  0  2  0  0  0  0  0  0
  184.5260  178.9010  140.9080 N   0  0  0  0  0  0  0  0  0  0  0  0
  187.1670  177.7770  144.5740 N   0  0  0  0  0  0  0  0  0  0  0  0
  186.6510  177.8610  142.2920 N   0  0  0  0  0  0  0  0  0  0  0  0
  185.9370  178.3270  138.9660 N   0  0  0  0  0  0  0  0  0  0  0  0
  180.9580  178.4920  139.7960 C   0  0  0  0  0  0  0  0  0  0  0  0
  180.9100  179.3770  138.7170 C   0  0  0  0  0  3  0  0  0  0  0  0
  183.2960  179.0620  140.1730 C   0  0  0  0  0  0  0  0  0  0  0  0
  182.0480  180.1040  138.3590 C   0  0  0  0  0  3  0  0  0  0  0  0
  182.1450  178.3340  140.5180 C   0  0  0  0  0  3  0  0  0  0  0  0
  183.2340  179.9460  139.0810 C   0  0  0  0  0  3  0  0  0  0  0  0
  179.7490  177.7180  140.1770 C   0  0  0  0  0  1  0  0  0  0  0  0
  188.8530  176.9300  146.0790 C   0  0  0  0  0  3  0  0  0  0  0  0
  187.9020  177.8120  145.8010 C   0  0  0  0  0  3  0  0  0  0  0  0
  189.5960  177.0130  147.3650 C   0  0  0  0  0  2  0  0  0  0  0  0
  191.0430  177.4350  147.1120 C   0  0  2  0  0  3  0  0  0  0  0  0
  191.4950  177.1070  145.6860 C   0  0  0  0  0  2  0  0  0  0  0  0
  192.7300  175.2340  146.6500 N   0  0  0  0  0  2  0  0  0  0  0  0
  192.0660  175.5310  147.9170 C   0  0  0  0  0  2  0  0  0  0  0  0
  191.9400  176.9260  148.0860 O   0  0  0  0  0  0  0  0  0  0  0  0
  191.8190  175.6200  145.5790 C   0  0  0  0  0  2  0  0  0  0  0  0
  1  8  1  0  0  0  0
  2 13  1  0  0  0  0
  3  8  1  6  0  0  0
  3 17  1  0  0  0  0
  4 14  1  6  0  0  0
  4  9  1  0  0  0  0
  5  6  2  0  0  0  0
  6  2  1  0  0  0  0
  7 16  1  0  0  0  0
  8  2  2  0  0  0  0
  9 16  1  0  0  0  0
 10  1  2  0  0  0  0
 10  5  1  0  0  0  0
 11 18  1  6  0  0  0
 11 15  1  0  0  0  0
 11  3  1  0  0  0  0
 12 18  2  0  0  0  0
 12  1  1  0  0  0  0
 13  7  2  0  0  0  0
 15 14  1  0  0  0  0
 16 27  1  0  0  0  0
 17  4  1  0  0  0  0
 17  7  1  0  0  0  0
 19 25  1  0  0  0  0
 19 23  1  0  0  0  0
 20 19  2  0  0  0  0
 21 23  2  0  0  0  0
 21 15  1  0  0  0  0
 22 20  1  0  0  0  0
 22 24  2  0  0  0  0
 24 21  1  0  0  0  0
 26 28  1  0  0  0  0
 27 26  2  0  0  0  0
 29 28  1  1  0  0  0
 29 33  1  0  0  0  0
 30 29  1  0  0  0  0
 31 32  1  0  0  0  0
 32 33  1  0  0  0  0
 34 30  1  0  0  0  0
 34 31  1  0  0  0  0
M  END
>  <MODEL>
6

>  <REMARK>
 VINA RESULT:      -9.3      3.333      6.650
  Name = 
  4 active torsions:
  status: ('A' for Active; 'I' for Inactive)
    1  A    between atoms: C_3  and  C_13
    2  A    between atoms: C_11  and  C_13
    3  A    between atoms: C_12  and  N_28
    4  A    between atoms: C_17  and  N_29
                            x       y       z     vdW  Elec       q    Type
                         _______ _______ _______ _____ _____    ______ ____

>  <TORSDO>
F 4

$$$$
=
 OpenBabel11052414183D

 34 40  0  0  1  0  0  0  0  0999 V2000
  190.6470  177.0790  140.7110 C   0  0  0  0  0  0  0  0  0  0  0  0
  188.8070  177.5110  139.1700 C   0  0  0  0  0  0  0  0  0  0  0  0
  188.2830  177.1350  141.5440 C   0  0  1  0  0  3  0  0  0  0  0  0
  186.5730  178.8340  142.4100 C   0  0  1  0  0  3  0  0  0  0  0  0
  191.0690  177.3150  138.3310 C   0  0  0  0  0  3  0  0  0  0  0  0
  189.7030  177.5450  138.0980 C   0  0  0  0  0  3  0  0  0  0  0  0
  186.8750  178.4820  140.1440 C   0  0  0  0  0  0  0  0  0  0  0  0
  189.2830  177.1480  140.4470 C   0  0  0  0  0  0  0  0  0  0  0  0
  185.2090  178.9540  141.6870 C   0  0  0  0  0  2  0  0  0  0  0  0
  191.5470  177.1280  139.6410 C   0  0  0  0  0  3  0  0  0  0  0  0
  188.8170  176.9030  142.9620 C   0  0  2  0  0  3  0  0  0  0  0  0
  191.0970  177.2140  142.1080 C   0  0  0  0  0  3  0  0  0  0  0  0
  187.4660  178.0560  139.0540 N   0  0  0  0  0  0  0  0  0  0  0  0
  186.5840  177.9210  143.6340 C   0  0  0  0  0  2  0  0  0  0  0  0
  187.9730  177.5600  143.9860 N   0  0  0  0  0  0  0  0  0  0  0  0
  185.5200  178.8830  140.2560 N   0  0  0  0  0  0  0  0  0  0  0  0
  187.4870  178.3360  141.4030 N   0  0  0  0  0  0  0  0  0  0  0  0
  190.2500  177.2120  143.1020 N   0  0  0  0  0  0  0  0  0  0  0  0
  189.9660  177.1280  147.1440 C   0  0  0  0  0  0  0  0  0  0  0  0
  189.0200  177.4810  148.1090 C   0  0  0  0  0  3  0  0  0  0  0  0
  188.3350  177.5360  145.3820 C   0  0  0  0  0  0  0  0  0  0  0  0
  187.7330  177.8590  147.7200 C   0  0  0  0  0  3  0  0  0  0  0  0
  189.6250  177.1530  145.7890 C   0  0  0  0  0  3  0  0  0  0  0  0
  187.3930  177.8850  146.3650 C   0  0  0  0  0  3  0  0  0  0  0  0
  191.3350  176.7240  147.5570 C   0  0  0  0  0  1  0  0  0  0  0  0
  183.2940  179.3820  139.4700 C   0  0  0  0  0  3  0  0  0  0  0  0
  184.5350  178.9820  139.2230 C   0  0  0  0  0  3  0  0  0  0  0  0
  182.3070  179.4770  138.3610 C   0  0  0  0  0  2  0  0  0  0  0  0
  180.9720  180.0010  138.8880 C   0  0  2  0  0  3  0  0  0  0  0  0
  180.6640  179.4770  140.2940 C   0  0  0  0  0  2  0  0  0  0  0  0
  179.0810  177.9500  139.2330 N   0  0  0  0  0  2  0  0  0  0  0  0
  179.6130  178.3930  137.9470 C   0  0  0  0  0  2  0  0  0  0  0  0
  179.9000  179.7740  137.9870 O   0  0  0  0  0  0  0  0  0  0  0  0
  180.1630  178.0390  140.2070 C   0  0  0  0  0  2  0  0  0  0  0  0
  1 12  1  0  0  0  0
  2  8  2  0  0  0  0
  3  8  1  6  0  0  0
  3 11  1  0  0  0  0
  4  9  1  6  0  0  0
  4 14  1  0  0  0  0
  5 10  1  0  0  0  0
  6  5  2  0  0  0  0
  6  2  1  0  0  0  0
  7 16  1  0  0  0  0
  7 17  1  0  0  0  0
  8  1  1  0  0  0  0
 10  1  2  0  0  0  0
 11 18  1  6  0  0  0
 11 15  1  0  0  0  0
 12 18  2  0  0  0  0
 13  2  1  0  0  0  0
 13  7  2  0  0  0  0
 14 15  1  0  0  0  0
 15 21  1  0  0  0  0
 16  9  1  0  0  0  0
 17  3  1  0  0  0  0
 17  4  1  0  0  0  0
 19 25  1  0  0  0  0
 19 20  1  0  0  0  0
 21 23  1  0  0  0  0
 21 24  2  0  0  0  0
 22 20  2  0  0  0  0
 23 19  2  0  0  0  0
 24 22  1  0  0  0  0
 27 26  2  0  0  0  0
 27 16  1  0  0  0  0
 28 26  1  0  0  0  0
 29 28  1  6  0  0  0
 29 30  1  0  0  0  0
 31 34  1  0  0  0  0
 32 33  1  0  0  0  0
 32 31  1  0  0  0  0
 33 29  1  0  0  0  0
 34 30  1  0  0  0  0
M  END
>  <MODEL>
7

>  <REMARK>
 VINA RESULT:      -9.2      3.327      8.237
  Name = 
  4 active torsions:
  status: ('A' for Active; 'I' for Inactive)
    1  A    between atoms: C_3  and  C_13
    2  A    between atoms: C_11  and  C_13
    3  A    between atoms: C_12  and  N_28
    4  A    between atoms: C_17  and  N_29
                            x       y       z     vdW  Elec       q    Type
                         _______ _______ _______ _____ _____    ______ ____

>  <TORSDO>
F 4

$$$$
=
 OpenBabel11052414183D

 34 40  0  0  1  0  0  0  0  0999 V2000
  190.4260  177.1980  140.7430 C   0  0  0  0  0  0  0  0  0  0  0  0
  188.5500  177.6550  139.2530 C   0  0  0  0  0  0  0  0  0  0  0  0
  188.0820  177.2360  141.6320 C   0  0  1  0  0  3  0  0  0  0  0  0
  186.3910  178.9170  142.5680 C   0  0  1  0  0  3  0  0  0  0  0  0
  190.7920  177.4770  138.3590 C   0  0  0  0  0  3  0  0  0  0  0  0
  189.4200  177.7090  138.1620 C   0  0  0  0  0  3  0  0  0  0  0  0
  186.6410  178.6050  140.2890 C   0  0  0  0  0  0  0  0  0  0  0  0
  189.0560  177.2710  140.5120 C   0  0  0  0  0  0  0  0  0  0  0  0
  185.0100  179.0480  141.8800 C   0  0  0  0  0  2  0  0  0  0  0  0
  191.3010  177.2680  139.6530 C   0  0  0  0  0  3  0  0  0  0  0  0
  188.6500  176.9810  143.0330 C   0  0  2  0  0  3  0  0  0  0  0  0
  190.9090  177.3100  142.1320 C   0  0  0  0  0  3  0  0  0  0  0  0
  187.2060  178.2000  139.1790 N   0  0  0  0  0  0  0  0  0  0  0  0
  186.4320  177.9830  143.7750 C   0  0  0  0  0  2  0  0  0  0  0  0
  187.8290  177.6180  144.0880 N   0  0  0  0  0  0  0  0  0  0  0  0
  185.2880  179.0030  140.4400 N   0  0  0  0  0  0  0  0  0  0  0  0
  187.2820  178.4390  141.5310 N   0  0  0  0  0  0  0  0  0  0  0  0
  190.0850  177.2890  143.1450 N   0  0  0  0  0  0  0  0  0  0  0  0
  189.8940  177.1280  147.1910 C   0  0  0  0  0  0  0  0  0  0  0  0
  188.9730  177.4680  148.1830 C   0  0  0  0  0  3  0  0  0  0  0  0
  188.2240  177.5700  145.4740 C   0  0  0  0  0  0  0  0  0  0  0  0
  187.6780  177.8570  147.8300 C   0  0  0  0  0  3  0  0  0  0  0  0
  189.5210  177.1770  145.8440 C   0  0  0  0  0  3  0  0  0  0  0  0
  187.3060  177.9060  146.4850 C   0  0  0  0  0  3  0  0  0  0  0  0
  191.2710  176.7130  147.5650 C   0  0  0  0  0  1  0  0  0  0  0  0
  183.4320  178.1320  139.1670 C   0  0  0  0  0  3  0  0  0  0  0  0
  184.2780  179.1190  139.4330 C   0  0  0  0  0  3  0  0  0  0  0  0
  182.3940  178.3030  138.1160 C   0  0  0  0  0  2  0  0  0  0  0  0
  182.1870  176.9910  137.3610 C   0  0  2  0  0  3  0  0  0  0  0  0
  183.5160  176.3230  136.9980 C   0  0  0  0  0  2  0  0  0  0  0  0
  183.1400  177.1170  134.7190 N   0  0  0  0  0  2  0  0  0  0  0  0
  182.0060  177.8780  135.2400 C   0  0  0  0  0  2  0  0  0  0  0  0
  181.3360  177.1350  136.2350 O   0  0  0  0  0  0  0  0  0  0  0  0
  184.1280  177.0210  135.7880 C   0  0  0  0  0  2  0  0  0  0  0  0
  1 12  1  0  0  0  0
  2  8  2  0  0  0  0
  3  8  1  6  0  0  0
  3 11  1  0  0  0  0
  4  9  1  6  0  0  0
  4 14  1  0  0  0  0
  5 10  1  0  0  0  0
  6  5  2  0  0  0  0
  6  2  1  0  0  0  0
  7 16  1  0  0  0  0
  7 17  1  0  0  0  0
  8  1  1  0  0  0  0
 10  1  2  0  0  0  0
 11 18  1  6  0  0  0
 11 15  1  0  0  0  0
 12 18  2  0  0  0  0
 13  2  1  0  0  0  0
 13  7  2  0  0  0  0
 14 15  1  0  0  0  0
 15 21  1  0  0  0  0
 16  9  1  0  0  0  0
 17  3  1  0  0  0  0
 17  4  1  0  0  0  0
 19 25  1  0  0  0  0
 19 20  1  0  0  0  0
 21 23  1  0  0  0  0
 21 24  2  0  0  0  0
 22 20  2  0  0  0  0
 23 19  2  0  0  0  0
 24 22  1  0  0  0  0
 26 27  2  0  0  0  0
 27 16  1  0  0  0  0
 28 26  1  0  0  0  0
 29 28  1  6  0  0  0
 30 29  1  0  0  0  0
 31 32  1  0  0  0  0
 31 34  1  0  0  0  0
 32 33  1  0  0  0  0
 33 29  1  0  0  0  0
 34 30  1  0  0  0  0
M  END
>  <MODEL>
8

>  <REMARK>
 VINA RESULT:      -9.2      3.411      7.257
  Name = 
  4 active torsions:
  status: ('A' for Active; 'I' for Inactive)
    1  A    between atoms: C_3  and  C_13
    2  A    between atoms: C_11  and  C_13
    3  A    between atoms: C_12  and  N_28
    4  A    between atoms: C_17  and  N_29
                            x       y       z     vdW  Elec       q    Type
                         _______ _______ _______ _____ _____    ______ ____

>  <TORSDO>
F 4

$$$$
=
 OpenBabel11052414183D

 34 40  0  0  1  0  0  0  0  0999 V2000
  185.2570  178.6250  141.3500 C   0  0  0  0  0  0  0  0  0  0  0  0
  186.5070  178.4680  139.2620 C   0  0  0  0  0  0  0  0  0  0  0  0
  187.7620  178.5200  141.3780 C   0  0  1  0  0  3  0  0  0  0  0  0
  189.6280  176.7660  141.4070 C   0  0  1  0  0  3  0  0  0  0  0  0
  184.0990  178.7150  139.2170 C   0  0  0  0  0  3  0  0  0  0  0  0
  185.3170  178.5600  138.5350 C   0  0  0  0  0  3  0  0  0  0  0  0
  188.6300  177.4260  139.4270 C   0  0  0  0  0  0  0  0  0  0  0  0
  186.4660  178.6330  140.6620 C   0  0  0  0  0  0  0  0  0  0  0  0
  190.6910  176.7880  140.2810 C   0  0  0  0  0  2  0  0  0  0  0  0
  184.0630  178.7010  140.6230 C   0  0  0  0  0  3  0  0  0  0  0  0
  187.7070  178.5330  142.9090 C   0  0  2  0  0  3  0  0  0  0  0  0
  185.2690  178.2800  142.7840 C   0  0  0  0  0  3  0  0  0  0  0  0
  187.7320  177.9840  138.6520 N   0  0  0  0  0  0  0  0  0  0  0  0
  190.0210  177.4950  142.6900 C   0  0  0  0  0  2  0  0  0  0  0  0
  188.8210  177.7630  143.5100 N   0  0  0  0  0  0  0  0  0  0  0  0
  189.9440  177.0520  139.0470 N   0  0  0  0  0  0  0  0  0  0  0  0
  188.4510  177.3740  140.8220 N   0  0  0  0  0  0  0  0  0  0  0  0
  186.3870  178.1660  143.4490 N   0  0  0  0  0  0  0  0  0  0  0  0
  190.1950  176.9440  146.9120 C   0  0  0  0  0  0  0  0  0  0  0  0
  189.0870  177.2070  147.7190 C   0  0  0  0  0  3  0  0  0  0  0  0
  188.9190  177.5780  144.9370 C   0  0  0  0  0  0  0  0  0  0  0  0
  187.8940  177.6520  147.1450 C   0  0  0  0  0  3  0  0  0  0  0  0
  190.1110  177.1270  145.5290 C   0  0  0  0  0  3  0  0  0  0  0  0
  187.8110  177.8340  145.7620 C   0  0  0  0  0  3  0  0  0  0  0  0
  191.4650  176.4700  147.5220 C   0  0  0  0  0  1  0  0  0  0  0  0
  190.8610  176.0430  137.0560 C   0  0  0  0  0  3  0  0  0  0  0  0
  190.5500  177.1280  137.7540 C   0  0  0  0  0  3  0  0  0  0  0  0
  191.4830  176.1740  135.7110 C   0  0  0  0  0  2  0  0  0  0  0  0
  192.5060  175.0600  135.4930 C   0  0  2  0  0  3  0  0  0  0  0  0
  192.8880  174.3670  136.8050 C   0  0  0  0  0  2  0  0  0  0  0  0
  194.9770  175.6280  136.7070 N   0  0  0  0  0  2  0  0  0  0  0  0
  194.4070  176.3620  135.5810 C   0  0  0  0  0  2  0  0  0  0  0  0
  193.6450  175.4960  134.7690 O   0  0  0  0  0  0  0  0  0  0  0  0
  193.8730  175.2380  137.5770 C   0  0  0  0  0  2  0  0  0  0  0  0
  1 12  1  0  0  0  0
  2  8  2  0  0  0  0
  3  8  1  6  0  0  0
  3 11  1  0  0  0  0
  4  9  1  6  0  0  0
  4 14  1  0  0  0  0
  5 10  1  0  0  0  0
  6  5  2  0  0  0  0
  6  2  1  0  0  0  0
  7 17  1  0  0  0  0
  8  1  1  0  0  0  0
 10  1  2  0  0  0  0
 11 18  1  6  0  0  0
 11 15  1  0  0  0  0
 12 18  2  0  0  0  0
 13  2  1  0  0  0  0
 13  7  2  0  0  0  0
 14 15  1  0  0  0  0
 15 21  1  0  0  0  0
 16  7  1  0  0  0  0
 16  9  1  0  0  0  0
 17  3  1  0  0  0  0
 17  4  1  0  0  0  0
 19 25  1  0  0  0  0
 19 20  1  0  0  0  0
 21 23  1  0  0  0  0
 21 24  2  0  0  0  0
 22 20  2  0  0  0  0
 23 19  2  0  0  0  0
 24 22  1  0  0  0  0
 26 27  2  0  0  0  0
 27 16  1  0  0  0  0
 28 26  1  0  0  0  0
 29 28  1  1  0  0  0
 29 30  1  0  0  0  0
 30 34  1  0  0  0  0
 31 34  1  0  0  0  0
 32 31  1  0  0  0  0
 33 29  1  0  0  0  0
 33 32  1  0  0  0  0
M  END
>  <MODEL>
9

>  <REMARK>
 VINA RESULT:      -9.1      1.677      5.377
  Name = 
  4 active torsions:
  status: ('A' for Active; 'I' for Inactive)
    1  A    between atoms: C_3  and  C_13
    2  A    between atoms: C_11  and  C_13
    3  A    between atoms: C_12  and  N_28
    4  A    between atoms: C_17  and  N_29
                            x       y       z     vdW  Elec       q    Type
                         _______ _______ _______ _____ _____    ______ ____

>  <TORSDO>
F 4

$$$$
