=
 OpenBabel11052413083D

 31 35  0  0  0  0  0  0  0  0999 V2000
  184.8840  178.6790  144.1410 C   0  0  0  0  0  0  0  0  0  0  0  0
  188.4660  177.7970  143.4880 C   0  0  0  0  0  0  0  0  0  0  0  0
  189.0690  177.5890  144.8440 C   0  0  0  0  0  0  0  0  0  0  0  0
  188.9110  176.7470  147.1250 C   0  0  0  0  0  0  0  0  0  0  0  0
  187.1020  178.1310  143.2940 C   0  0  0  0  0  0  0  0  0  0  0  0
  184.4080  178.8150  142.8360 C   0  0  0  0  0  3  0  0  0  0  0  0
  188.3150  177.0520  145.9000 C   0  0  0  0  0  3  0  0  0  0  0  0
  188.7530  177.8230  141.0620 C   0  0  0  0  0  0  0  0  0  0  0  0
  183.8060  178.9310  145.4970 Cl  0  0  0  0  0  0  0  0  0  0  0  0
  191.4760  178.4670  143.7290 S   0  0  0  0  0  0  0  0  0  0  0  0
  188.1630  176.2390  148.1340 F   0  0  0  0  0  0  0  0  0  0  0  0
  187.4390  178.1280  140.9140 N   0  0  0  0  0  0  0  0  0  0  0  0
  189.2970  177.6610  142.3480 C   0  0  0  0  0  0  0  0  0  0  0  0
  186.2200  178.3440  144.3670 C   0  0  0  0  0  3  0  0  0  0  0  0
  190.2800  176.9440  147.3030 C   0  0  0  0  0  3  0  0  0  0  0  0
  186.6110  178.2860  141.9760 C   0  0  0  0  0  0  0  0  0  0  0  0
  185.2710  178.6200  141.7560 C   0  0  0  0  0  3  0  0  0  0  0  0
  190.7520  177.3270  142.5170 C   0  0  0  0  0  2  0  0  0  0  0  0
  190.4530  177.7960  145.0410 C   0  0  0  0  0  0  0  0  0  0  0  0
  191.0510  177.4630  146.2600 C   0  0  0  0  0  3  0  0  0  0  0  0
  189.6040  177.7140  139.8340 C   0  0  0  0  0  2  0  0  0  0  0  0
  188.9250  179.3390  138.2420 O   0  0  0  0  0  0  0  0  0  0  0  0
  188.8330  178.1410  138.6240 C   0  0  0  0  0  0  0  0  0  0  0  0
  186.4360  175.3090  136.4600 C   0  0  0  0  0  0  0  0  0  0  0  0
  188.5400  175.9550  137.4590 C   0  0  0  0  0  3  0  0  0  0  0  0
  186.0530  178.6160  137.9530 F   0  0  0  0  0  0  0  0  0  0  0  0
  185.6710  174.3880  135.7580 O   0  0  0  0  0  1  0  0  0  0  0  0
  187.7710  175.0270  136.7540 C   0  0  0  0  0  3  0  0  0  0  0  0
  186.6360  177.4500  137.5800 C   0  0  0  0  0  0  0  0  0  0  0  0
  187.9890  177.1770  137.8790 C   0  0  0  0  0  0  0  0  0  0  0  0
  185.8720  176.5170  136.8730 C   0  0  0  0  0  3  0  0  0  0  0  0
  1 14  1  0  0  0  0
  1  9  1  0  0  0  0
  2  3  1  0  0  0  0
  3 19  2  0  0  0  0
  3  7  1  0  0  0  0
  4 15  1  0  0  0  0
  4 11  1  0  0  0  0
  5  2  1  0  0  0  0
  5 14  2  0  0  0  0
  6  1  2  0  0  0  0
  7  4  2  0  0  0  0
  8 13  1  0  0  0  0
 10 19  1  0  0  0  0
 12  8  2  0  0  0  0
 12 16  1  0  0  0  0
 13 18  1  0  0  0  0
 13  2  2  0  0  0  0
 16  5  1  0  0  0  0
 17 16  2  0  0  0  0
 17  6  1  0  0  0  0
 18 10  1  0  0  0  0
 19 20  1  0  0  0  0
 20 15  2  0  0  0  0
 21  8  1  0  0  0  0
 22 23  2  0  0  0  0
 23 21  1  0  0  0  0
 24 28  2  0  0  0  0
 24 31  1  0  0  0  0
 25 30  2  0  0  0  0
 27 24  1  0  0  0  0
 28 25  1  0  0  0  0
 29 30  1  0  0  0  0
 29 26  1  0  0  0  0
 30 23  1  0  0  0  0
 31 29  2  0  0  0  0
M  END
>  <MODEL>
1

>  <REMARK>
 VINA RESULT:     -10.2      0.000      0.000
  Name = 
  3 active torsions:
  status: ('A' for Active; 'I' for Inactive)
    1  A    between atoms: C_9  and  C_22
    2  A    between atoms: C_9  and  C_23
    3  A    between atoms: C_15  and  C_23
                            x       y       z     vdW  Elec       q    Type
                         _______ _______ _______ _____ _____    ______ ____

>  <TORSDO>
F 3

$$$$
=
 OpenBabel11052413083D

 31 35  0  0  0  0  0  0  0  0999 V2000
  184.0510  178.6390  139.5950 C   0  0  0  0  0  0  0  0  0  0  0  0
  187.7430  178.0570  139.3500 C   0  0  0  0  0  0  0  0  0  0  0  0
  187.9980  177.7750  137.9010 C   0  0  0  0  0  0  0  0  0  0  0  0
  187.5570  178.2260  135.5470 C   0  0  0  0  0  0  0  0  0  0  0  0
  186.4550  178.3520  139.8640 C   0  0  0  0  0  0  0  0  0  0  0  0
  183.9230  178.9240  140.9560 C   0  0  0  0  0  3  0  0  0  0  0  0
  187.2390  178.3970  136.8960 C   0  0  0  0  0  3  0  0  0  0  0  0
  188.6340  178.3070  141.6110 C   0  0  0  0  0  0  0  0  0  0  0  0
  182.6370  178.6390  138.5640 Cl  0  0  0  0  0  0  0  0  0  0  0  0
  190.1240  176.1750  138.7520 S   0  0  0  0  0  0  0  0  0  0  0  0
  186.8060  178.8270  134.5940 F   0  0  0  0  0  0  0  0  0  0  0  0
  187.3890  178.6000  142.0650 N   0  0  0  0  0  0  0  0  0  0  0  0
  188.8370  178.0200  140.2500 C   0  0  0  0  0  0  0  0  0  0  0  0
  185.3060  178.3510  139.0550 C   0  0  0  0  0  3  0  0  0  0  0  0
  188.6610  177.4560  135.1830 C   0  0  0  0  0  3  0  0  0  0  0  0
  186.3100  178.6280  141.2440 C   0  0  0  0  0  0  0  0  0  0  0  0
  185.0500  178.9170  141.7780 C   0  0  0  0  0  3  0  0  0  0  0  0
  190.2140  177.6910  139.7440 C   0  0  0  0  0  2  0  0  0  0  0  0
  189.1060  176.9860  137.5180 C   0  0  0  0  0  0  0  0  0  0  0  0
  189.4380  176.8420  136.1680 C   0  0  0  0  0  3  0  0  0  0  0  0
  189.7590  178.2520  142.5980 C   0  0  0  0  0  2  0  0  0  0  0  0
  189.8560  175.9180  143.0190 O   0  0  0  0  0  0  0  0  0  0  0  0
  189.6130  177.0600  143.4930 C   0  0  0  0  0  0  0  0  0  0  0  0
  188.3710  177.5290  147.5770 C   0  0  0  0  0  0  0  0  0  0  0  0
  187.8670  177.5150  145.2130 C   0  0  0  0  0  3  0  0  0  0  0  0
  191.4320  176.7910  145.7330 F   0  0  0  0  0  0  0  0  0  0  0  0
  187.9600  177.6840  148.8940 O   0  0  0  0  0  1  0  0  0  0  0  0
  187.4520  177.6710  146.5380 C   0  0  0  0  0  3  0  0  0  0  0  0
  190.1260  177.0710  145.9680 C   0  0  0  0  0  0  0  0  0  0  0  0
  189.2050  177.2170  144.9090 C   0  0  0  0  0  0  0  0  0  0  0  0
  189.7050  177.2290  147.2920 C   0  0  0  0  0  3  0  0  0  0  0  0
  1  6  1  0  0  0  0
  2  5  2  0  0  0  0
  2 13  1  0  0  0  0
  3  2  1  0  0  0  0
  4  7  1  0  0  0  0
  5 16  1  0  0  0  0
  6 17  2  0  0  0  0
  7  3  2  0  0  0  0
  8 12  1  0  0  0  0
  8 21  1  0  0  0  0
  9  1  1  0  0  0  0
 10 18  1  0  0  0  0
 11  4  1  0  0  0  0
 13  8  2  0  0  0  0
 14  1  2  0  0  0  0
 14  5  1  0  0  0  0
 15  4  2  0  0  0  0
 15 20  1  0  0  0  0
 16 17  1  0  0  0  0
 16 12  2  0  0  0  0
 18 13  1  0  0  0  0
 19  3  1  0  0  0  0
 19 10  1  0  0  0  0
 20 19  2  0  0  0  0
 21 23  1  0  0  0  0
 22 23  2  0  0  0  0
 23 30  1  0  0  0  0
 24 27  1  0  0  0  0
 25 28  1  0  0  0  0
 26 29  1  0  0  0  0
 28 24  2  0  0  0  0
 29 31  2  0  0  0  0
 30 25  2  0  0  0  0
 30 29  1  0  0  0  0
 31 24  1  0  0  0  0
M  END
>  <MODEL>
2

>  <REMARK>
 VINA RESULT:      -9.6      3.181      7.754
  Name = 
  3 active torsions:
  status: ('A' for Active; 'I' for Inactive)
    1  A    between atoms: C_9  and  C_22
    2  A    between atoms: C_9  and  C_23
    3  A    between atoms: C_15  and  C_23
                            x       y       z     vdW  Elec       q    Type
                         _______ _______ _______ _____ _____    ______ ____

>  <TORSDO>
F 3

$$$$
=
 OpenBabel11052413083D

 31 35  0  0  0  0  0  0  0  0999 V2000
  184.7340  178.6990  144.0080 C   0  0  0  0  0  0  0  0  0  0  0  0
  188.3260  178.0280  143.1820 C   0  0  0  0  0  0  0  0  0  0  0  0
  188.9850  177.7550  144.5000 C   0  0  0  0  0  0  0  0  0  0  0  0
  188.9420  176.7530  146.7200 C   0  0  0  0  0  0  0  0  0  0  0  0
  186.9430  178.3120  143.0550 C   0  0  0  0  0  0  0  0  0  0  0  0
  184.2080  178.9020  142.7310 C   0  0  0  0  0  3  0  0  0  0  0  0
  188.2910  177.1130  145.5390 C   0  0  0  0  0  3  0  0  0  0  0  0
  188.5280  178.2340  140.7560 C   0  0  0  0  0  0  0  0  0  0  0  0
  183.6940  178.8070  145.4110 Cl  0  0  0  0  0  0  0  0  0  0  0  0
  191.3110  178.8170  143.3740 S   0  0  0  0  0  0  0  0  0  0  0  0
  188.2520  176.1430  147.7140 F   0  0  0  0  0  0  0  0  0  0  0  0
  187.1980  178.4880  140.6710 N   0  0  0  0  0  0  0  0  0  0  0  0
  189.1220  178.0090  142.0100 C   0  0  0  0  0  0  0  0  0  0  0  0
  186.0910  178.4100  144.1680 C   0  0  0  0  0  3  0  0  0  0  0  0
  190.3070  176.9990  146.8680 C   0  0  0  0  0  3  0  0  0  0  0  0
  186.4010  178.5350  141.7670 C   0  0  0  0  0  0  0  0  0  0  0  0
  185.0400  178.8220  141.6130 C   0  0  0  0  0  3  0  0  0  0  0  0
  190.5960  177.7310  142.1090 C   0  0  0  0  0  2  0  0  0  0  0  0
  190.3640  178.0110  144.6680 C   0  0  0  0  0  0  0  0  0  0  0  0
  191.0170  177.6230  145.8410 C   0  0  0  0  0  3  0  0  0  0  0  0
  189.3400  178.2490  139.4970 C   0  0  0  0  0  2  0  0  0  0  0  0
  187.8750  176.7480  138.3830 O   0  0  0  0  0  0  0  0  0  0  0  0
  189.0680  177.0200  138.6860 C   0  0  0  0  0  0  0  0  0  0  0  0
  192.3210  174.5270  137.4010 C   0  0  0  0  0  0  0  0  0  0  0  0
  191.5030  176.5050  138.5230 C   0  0  0  0  0  3  0  0  0  0  0  0
  188.6770  174.5580  137.2060 F   0  0  0  0  0  0  0  0  0  0  0  0
  193.3790  173.7290  136.9880 O   0  0  0  0  0  1  0  0  0  0  0  0
  192.5690  175.7030  138.1090 C   0  0  0  0  0  3  0  0  0  0  0  0
  189.9370  174.9510  137.5200 C   0  0  0  0  0  0  0  0  0  0  0  0
  190.1760  176.1450  138.2340 C   0  0  0  0  0  0  0  0  0  0  0  0
  191.0080  174.1530  137.1080 C   0  0  0  0  0  3  0  0  0  0  0  0
  1 14  1  0  0  0  0
  1  9  1  0  0  0  0
  2  3  1  0  0  0  0
  3 19  2  0  0  0  0
  3  7  1  0  0  0  0
  4 15  1  0  0  0  0
  4 11  1  0  0  0  0
  5  2  1  0  0  0  0
  5 14  2  0  0  0  0
  6  1  2  0  0  0  0
  7  4  2  0  0  0  0
  8 13  1  0  0  0  0
 10 19  1  0  0  0  0
 12  8  2  0  0  0  0
 12 16  1  0  0  0  0
 13 18  1  0  0  0  0
 13  2  2  0  0  0  0
 16  5  1  0  0  0  0
 17 16  2  0  0  0  0
 17  6  1  0  0  0  0
 18 10  1  0  0  0  0
 19 20  1  0  0  0  0
 20 15  2  0  0  0  0
 21  8  1  0  0  0  0
 22 23  2  0  0  0  0
 23 21  1  0  0  0  0
 24 28  1  0  0  0  0
 26 29  1  0  0  0  0
 27 24  1  0  0  0  0
 28 25  2  0  0  0  0
 29 30  2  0  0  0  0
 30 25  1  0  0  0  0
 30 23  1  0  0  0  0
 31 24  2  0  0  0  0
 31 29  1  0  0  0  0
M  END
>  <MODEL>
3

>  <REMARK>
 VINA RESULT:      -9.3      2.159      2.695
  Name = 
  3 active torsions:
  status: ('A' for Active; 'I' for Inactive)
    1  A    between atoms: C_9  and  C_22
    2  A    between atoms: C_9  and  C_23
    3  A    between atoms: C_15  and  C_23
                            x       y       z     vdW  Elec       q    Type
                         _______ _______ _______ _____ _____    ______ ____

>  <TORSDO>
F 3

$$$$
=
 OpenBabel11052413083D

 31 35  0  0  0  0  0  0  0  0999 V2000
  188.6310  177.1180  145.7530 C   0  0  0  0  0  0  0  0  0  0  0  0
  186.7040  178.2750  142.7560 C   0  0  0  0  0  0  0  0  0  0  0  0
  185.2860  178.3930  143.2260 C   0  0  0  0  0  0  0  0  0  0  0  0
  183.6690  179.0080  144.9420 C   0  0  0  0  0  0  0  0  0  0  0  0
  187.7680  177.8770  143.6050 C   0  0  0  0  0  0  0  0  0  0  0  0
  189.9240  177.0750  145.2290 C   0  0  0  0  0  3  0  0  0  0  0  0
  184.9880  178.7820  144.5420 C   0  0  0  0  0  3  0  0  0  0  0  0
  188.3200  178.4910  140.9370 C   0  0  0  0  0  0  0  0  0  0  0  0
  188.3470  176.6770  147.4230 Cl  0  0  0  0  0  0  0  0  0  0  0  0
  184.5370  177.7720  140.6080 S   0  0  0  0  0  0  0  0  0  0  0  0
  183.4020  179.3740  146.2180 F   0  0  0  0  0  0  0  0  0  0  0  0
  189.3150  178.1210  141.7820 N   0  0  0  0  0  0  0  0  0  0  0  0
  186.9950  178.5670  141.4000 C   0  0  0  0  0  0  0  0  0  0  0  0
  187.5620  177.5120  144.9460 C   0  0  0  0  0  3  0  0  0  0  0  0
  182.6290  178.8810  144.0210 C   0  0  0  0  0  3  0  0  0  0  0  0
  189.0810  177.8150  143.0820 C   0  0  0  0  0  0  0  0  0  0  0  0
  190.1480  177.4210  143.8960 C   0  0  0  0  0  3  0  0  0  0  0  0
  185.8900  178.9720  140.4660 C   0  0  0  0  0  2  0  0  0  0  0  0
  184.2220  178.2540  142.3060 C   0  0  0  0  0  0  0  0  0  0  0  0
  182.9070  178.5090  142.7040 C   0  0  0  0  0  3  0  0  0  0  0  0
  188.6640  178.7660  139.5050 C   0  0  0  0  0  2  0  0  0  0  0  0
  187.9470  176.7500  138.4760 O   0  0  0  0  0  0  0  0  0  0  0  0
  188.9260  177.4840  138.7750 C   0  0  0  0  0  0  0  0  0  0  0  0
  192.9400  176.3580  137.7420 C   0  0  0  0  0  0  0  0  0  0  0  0
  191.3200  177.1180  139.3680 C   0  0  0  0  0  3  0  0  0  0  0  0
  189.6900  176.6460  136.1080 F   0  0  0  0  0  0  0  0  0  0  0  0
  194.2410  175.9990  137.4180 O   0  0  0  0  0  1  0  0  0  0  0  0
  192.6290  176.7560  139.0430 C   0  0  0  0  0  3  0  0  0  0  0  0
  190.6280  176.6840  137.0860 C   0  0  0  0  0  0  0  0  0  0  0  0
  190.3040  177.0910  138.3980 C   0  0  0  0  0  0  0  0  0  0  0  0
  191.9410  176.3230  136.7670 C   0  0  0  0  0  3  0  0  0  0  0  0
  1  9  1  0  0  0  0
  2  3  1  0  0  0  0
  2  5  1  0  0  0  0
  3  7  1  0  0  0  0
  4 11  1  0  0  0  0
  5 14  1  0  0  0  0
  6  1  1  0  0  0  0
  7  4  2  0  0  0  0
  8 13  1  0  0  0  0
  8 12  2  0  0  0  0
 10 19  1  0  0  0  0
 12 16  1  0  0  0  0
 13  2  2  0  0  0  0
 14  1  2  0  0  0  0
 15  4  1  0  0  0  0
 16  5  2  0  0  0  0
 16 17  1  0  0  0  0
 17  6  2  0  0  0  0
 18 10  1  0  0  0  0
 18 13  1  0  0  0  0
 19 20  1  0  0  0  0
 19  3  2  0  0  0  0
 20 15  2  0  0  0  0
 21  8  1  0  0  0  0
 22 23  2  0  0  0  0
 23 21  1  0  0  0  0
 24 28  1  0  0  0  0
 26 29  1  0  0  0  0
 27 24  1  0  0  0  0
 28 25  2  0  0  0  0
 29 30  2  0  0  0  0
 30 23  1  0  0  0  0
 30 25  1  0  0  0  0
 31 29  1  0  0  0  0
 31 24  2  0  0  0  0
M  END
>  <MODEL>
4

>  <REMARK>
 VINA RESULT:      -9.1      2.951      5.075
  Name = 
  3 active torsions:
  status: ('A' for Active; 'I' for Inactive)
    1  A    between atoms: C_9  and  C_22
    2  A    between atoms: C_9  and  C_23
    3  A    between atoms: C_15  and  C_23
                            x       y       z     vdW  Elec       q    Type
                         _______ _______ _______ _____ _____    ______ ____

>  <TORSDO>
F 3

$$$$
=
 OpenBabel11052413083D

 31 35  0  0  0  0  0  0  0  0999 V2000
  190.6720  177.3000  139.3470 C   0  0  0  0  0  0  0  0  0  0  0  0
  188.2300  178.0300  142.0930 C   0  0  0  0  0  0  0  0  0  0  0  0
  188.9810  177.7670  143.3620 C   0  0  0  0  0  0  0  0  0  0  0  0
  191.0310  177.8900  144.6730 C   0  0  0  0  0  0  0  0  0  0  0  0
  188.8120  177.8880  140.8080 C   0  0  0  0  0  0  0  0  0  0  0  0
  189.8990  177.6060  138.2250 C   0  0  0  0  0  3  0  0  0  0  0  0
  190.3590  178.0220  143.4570 C   0  0  0  0  0  3  0  0  0  0  0  0
  186.1520  178.7140  141.0060 C   0  0  0  0  0  0  0  0  0  0  0  0
  192.3200  176.7440  139.1500 Cl  0  0  0  0  0  0  0  0  0  0  0  0
  186.5200  177.0650  144.4830 S   0  0  0  0  0  0  0  0  0  0  0  0
  192.3620  178.1320  144.7410 F   0  0  0  0  0  0  0  0  0  0  0  0
  186.7470  178.5810  139.7940 N   0  0  0  0  0  0  0  0  0  0  0  0
  186.8740  178.4330  142.1790 C   0  0  0  0  0  0  0  0  0  0  0  0
  190.1310  177.4370  140.6270 C   0  0  0  0  0  3  0  0  0  0  0  0
  190.3280  177.5340  145.8240 C   0  0  0  0  0  3  0  0  0  0  0  0
  188.0350  178.1810  139.6630 C   0  0  0  0  0  0  0  0  0  0  0  0
  188.5830  178.0440  138.3830 C   0  0  0  0  0  3  0  0  0  0  0  0
  186.2180  178.5750  143.5230 C   0  0  0  0  0  2  0  0  0  0  0  0
  188.2830  177.3930  144.5330 C   0  0  0  0  0  0  0  0  0  0  0  0
  188.9550  177.2900  145.7540 C   0  0  0  0  0  3  0  0  0  0  0  0
  184.7100  179.1160  141.0540 C   0  0  0  0  0  2  0  0  0  0  0  0
  184.0730  180.1380  139.0080 O   0  0  0  0  0  0  0  0  0  0  0  0
  184.1090  179.0750  139.6830 C   0  0  0  0  0  0  0  0  0  0  0  0
  182.5390  175.4000  138.1090 C   0  0  0  0  0  0  0  0  0  0  0  0
  182.6010  177.0940  139.8320 C   0  0  0  0  0  3  0  0  0  0  0  0
  184.9780  177.9420  137.1600 F   0  0  0  0  0  0  0  0  0  0  0  0
  182.0260  174.2100  137.6110 O   0  0  0  0  0  1  0  0  0  0  0  0
  182.0840  175.8970  139.3310 C   0  0  0  0  0  3  0  0  0  0  0  0
  184.0290  177.2990  137.8850 C   0  0  0  0  0  0  0  0  0  0  0  0
  183.5790  177.8090  139.1220 C   0  0  0  0  0  0  0  0  0  0  0  0
  183.5090  176.0990  137.3890 C   0  0  0  0  0  3  0  0  0  0  0  0
  1 14  1  0  0  0  0
  2 13  2  0  0  0  0
  2  3  1  0  0  0  0
  3  7  2  0  0  0  0
  3 19  1  0  0  0  0
  4 11  1  0  0  0  0
  4 15  2  0  0  0  0
  5  2  1  0  0  0  0
  6 17  1  0  0  0  0
  6  1  2  0  0  0  0
  7  4  1  0  0  0  0
  8 21  1  0  0  0  0
  8 13  1  0  0  0  0
  9  1  1  0  0  0  0
 10 19  1  0  0  0  0
 12  8  2  0  0  0  0
 13 18  1  0  0  0  0
 14  5  2  0  0  0  0
 16 12  1  0  0  0  0
 16  5  1  0  0  0  0
 17 16  2  0  0  0  0
 18 10  1  0  0  0  0
 19 20  2  0  0  0  0
 20 15  1  0  0  0  0
 22 23  2  0  0  0  0
 23 21  1  0  0  0  0
 24 28  1  0  0  0  0
 26 29  1  0  0  0  0
 27 24  1  0  0  0  0
 28 25  2  0  0  0  0
 29 30  2  0  0  0  0
 30 23  1  0  0  0  0
 30 25  1  0  0  0  0
 31 29  1  0  0  0  0
 31 24  2  0  0  0  0
M  END
>  <MODEL>
5

>  <REMARK>
 VINA RESULT:      -9.1      3.178      4.636
  Name = 
  3 active torsions:
  status: ('A' for Active; 'I' for Inactive)
    1  A    between atoms: C_9  and  C_22
    2  A    between atoms: C_9  and  C_23
    3  A    between atoms: C_15  and  C_23
                            x       y       z     vdW  Elec       q    Type
                         _______ _______ _______ _____ _____    ______ ____

>  <TORSDO>
F 3

$$$$
=
 OpenBabel11052413083D

 31 35  0  0  0  0  0  0  0  0999 V2000
  189.9520  176.7600  144.4680 C   0  0  0  0  0  0  0  0  0  0  0  0
  186.9870  178.1530  142.6490 C   0  0  0  0  0  0  0  0  0  0  0  0
  185.9430  178.3550  143.7040 C   0  0  0  0  0  0  0  0  0  0  0  0
  185.3160  179.0240  145.9610 C   0  0  0  0  0  0  0  0  0  0  0  0
  188.2830  177.6520  142.9330 C   0  0  0  0  0  0  0  0  0  0  0  0
  190.8670  176.6430  143.4210 C   0  0  0  0  0  3  0  0  0  0  0  0
  186.2950  178.7190  145.0140 C   0  0  0  0  0  3  0  0  0  0  0  0
  187.6330  178.3160  140.2990 C   0  0  0  0  0  0  0  0  0  0  0  0
  190.4090  176.2830  146.0890 Cl  0  0  0  0  0  0  0  0  0  0  0  0
  184.0570  177.8780  141.6990 S   0  0  0  0  0  0  0  0  0  0  0  0
  185.6760  179.3640  147.2220 F   0  0  0  0  0  0  0  0  0  0  0  0
  188.8680  177.8470  140.6100 N   0  0  0  0  0  0  0  0  0  0  0  0
  186.6650  178.4690  141.3060 C   0  0  0  0  0  0  0  0  0  0  0  0
  188.6700  177.2570  144.2250 C   0  0  0  0  0  3  0  0  0  0  0  0
  183.9680  179.0020  145.6040 C   0  0  0  0  0  3  0  0  0  0  0  0
  189.2150  177.5140  141.8770 C   0  0  0  0  0  0  0  0  0  0  0  0
  190.4980  177.0180  142.1280 C   0  0  0  0  0  3  0  0  0  0  0  0
  185.2940  178.9840  140.9660 C   0  0  0  0  0  2  0  0  0  0  0  0
  184.5730  178.3230  143.3580 C   0  0  0  0  0  0  0  0  0  0  0  0
  183.5980  178.6570  144.3020 C   0  0  0  0  0  3  0  0  0  0  0  0
  187.3220  178.6140  138.8640 C   0  0  0  0  0  2  0  0  0  0  0  0
  189.0560  179.6220  137.5930 O   0  0  0  0  0  0  0  0  0  0  0  0
  188.5670  178.5470  138.0340 C   0  0  0  0  0  0  0  0  0  0  0  0
  190.5170  174.8090  137.2180 C   0  0  0  0  0  0  0  0  0  0  0  0
  190.5850  177.0820  138.0370 C   0  0  0  0  0  3  0  0  0  0  0  0
  187.1920  176.2730  136.8780 F   0  0  0  0  0  0  0  0  0  0  0  0
  191.1570  173.6060  136.9550 O   0  0  0  0  0  1  0  0  0  0  0  0
  191.2300  175.8710  137.7740 C   0  0  0  0  0  3  0  0  0  0  0  0
  188.5080  176.1660  137.1870 C   0  0  0  0  0  0  0  0  0  0  0  0
  189.2210  177.2490  137.7460 C   0  0  0  0  0  0  0  0  0  0  0  0
  189.1600  174.9570  136.9250 C   0  0  0  0  0  3  0  0  0  0  0  0
  1  9  1  0  0  0  0
  2  5  1  0  0  0  0
  2  3  1  0  0  0  0
  3  7  1  0  0  0  0
  4 11  1  0  0  0  0
  5 14  2  0  0  0  0
  6  1  2  0  0  0  0
  7  4  2  0  0  0  0
  8 12  2  0  0  0  0
  8 13  1  0  0  0  0
 10 19  1  0  0  0  0
 12 16  1  0  0  0  0
 13  2  2  0  0  0  0
 14  1  1  0  0  0  0
 15  4  1  0  0  0  0
 16 17  2  0  0  0  0
 16  5  1  0  0  0  0
 17  6  1  0  0  0  0
 18 13  1  0  0  0  0
 18 10  1  0  0  0  0
 19  3  2  0  0  0  0
 19 20  1  0  0  0  0
 20 15  2  0  0  0  0
 21  8  1  0  0  0  0
 22 23  2  0  0  0  0
 23 21  1  0  0  0  0
 24 28  1  0  0  0  0
 26 29  1  0  0  0  0
 27 24  1  0  0  0  0
 28 25  2  0  0  0  0
 29 30  2  0  0  0  0
 30 23  1  0  0  0  0
 30 25  1  0  0  0  0
 31 29  1  0  0  0  0
 31 24  2  0  0  0  0
M  END
>  <MODEL>
6

>  <REMARK>
 VINA RESULT:      -9.0      2.705      4.363
  Name = 
  3 active torsions:
  status: ('A' for Active; 'I' for Inactive)
    1  A    between atoms: C_9  and  C_22
    2  A    between atoms: C_9  and  C_23
    3  A    between atoms: C_15  and  C_23
                            x       y       z     vdW  Elec       q    Type
                         _______ _______ _______ _____ _____    ______ ____

>  <TORSDO>
F 3

$$$$
=
 OpenBabel11052413083D

 31 35  0  0  0  0  0  0  0  0999 V2000
  190.6070  177.3080  139.3480 C   0  0  0  0  0  0  0  0  0  0  0  0
  188.1750  178.0470  142.1000 C   0  0  0  0  0  0  0  0  0  0  0  0
  188.9270  177.7780  143.3680 C   0  0  0  0  0  0  0  0  0  0  0  0
  190.9800  177.8880  144.6750 C   0  0  0  0  0  0  0  0  0  0  0  0
  188.7540  177.9030  140.8140 C   0  0  0  0  0  0  0  0  0  0  0  0
  189.8340  177.6200  138.2280 C   0  0  0  0  0  3  0  0  0  0  0  0
  190.3070  178.0250  143.4590 C   0  0  0  0  0  3  0  0  0  0  0  0
  186.0980  178.7430  141.0190 C   0  0  0  0  0  0  0  0  0  0  0  0
  192.2510  176.7430  139.1470 Cl  0  0  0  0  0  0  0  0  0  0  0  0
  186.4650  177.0870  144.4920 S   0  0  0  0  0  0  0  0  0  0  0  0
  192.3130  178.1230  144.7390 F   0  0  0  0  0  0  0  0  0  0  0  0
  186.6900  178.6090  139.8050 N   0  0  0  0  0  0  0  0  0  0  0  0
  186.8210  178.4570  142.1890 C   0  0  0  0  0  0  0  0  0  0  0  0
  190.0700  177.4450  140.6290 C   0  0  0  0  0  3  0  0  0  0  0  0
  190.2780  177.5330  145.8260 C   0  0  0  0  0  3  0  0  0  0  0  0
  187.9760  178.2020  139.6700 C   0  0  0  0  0  0  0  0  0  0  0  0
  188.5210  178.0640  138.3900 C   0  0  0  0  0  3  0  0  0  0  0  0
  186.1680  178.6000  143.5350 C   0  0  0  0  0  2  0  0  0  0  0  0
  188.2290  177.4050  144.5390 C   0  0  0  0  0  0  0  0  0  0  0  0
  188.9030  177.2980  145.7580 C   0  0  0  0  0  3  0  0  0  0  0  0
  184.6580  179.1530  141.0700 C   0  0  0  0  0  2  0  0  0  0  0  0
  184.0510  180.1800  139.0180 O   0  0  0  0  0  0  0  0  0  0  0  0
  184.0550  179.1200  139.6990 C   0  0  0  0  0  0  0  0  0  0  0  0
  182.4480  175.4950  138.0500 C   0  0  0  0  0  0  0  0  0  0  0  0
  184.0380  177.3140  137.9800 C   0  0  0  0  0  3  0  0  0  0  0  0
  181.8250  177.7020  140.8890 F   0  0  0  0  0  0  0  0  0  0  0  0
  181.9340  174.3250  137.5080 O   0  0  0  0  0  1  0  0  0  0  0  0
  183.5230  176.1360  137.4340 C   0  0  0  0  0  3  0  0  0  0  0  0
  182.4020  177.2090  139.7650 C   0  0  0  0  0  0  0  0  0  0  0  0
  183.4870  177.8680  139.1470 C   0  0  0  0  0  0  0  0  0  0  0  0
  181.8900  176.0310  139.2130 C   0  0  0  0  0  3  0  0  0  0  0  0
  1 14  1  0  0  0  0
  2 13  2  0  0  0  0
  2  3  1  0  0  0  0
  3  7  2  0  0  0  0
  3 19  1  0  0  0  0
  4 11  1  0  0  0  0
  4 15  2  0  0  0  0
  5  2  1  0  0  0  0
  6 17  1  0  0  0  0
  6  1  2  0  0  0  0
  7  4  1  0  0  0  0
  8 21  1  0  0  0  0
  8 13  1  0  0  0  0
  9  1  1  0  0  0  0
 10 19  1  0  0  0  0
 12  8  2  0  0  0  0
 13 18  1  0  0  0  0
 14  5  2  0  0  0  0
 16 12  1  0  0  0  0
 16  5  1  0  0  0  0
 17 16  2  0  0  0  0
 18 10  1  0  0  0  0
 19 20  2  0  0  0  0
 20 15  1  0  0  0  0
 22 23  2  0  0  0  0
 23 21  1  0  0  0  0
 24 31  1  0  0  0  0
 25 30  2  0  0  0  0
 27 24  1  0  0  0  0
 28 25  1  0  0  0  0
 28 24  2  0  0  0  0
 29 26  1  0  0  0  0
 30 23  1  0  0  0  0
 30 29  1  0  0  0  0
 31 29  2  0  0  0  0
M  END
>  <MODEL>
7

>  <REMARK>
 VINA RESULT:      -8.9      3.312      4.696
  Name = 
  3 active torsions:
  status: ('A' for Active; 'I' for Inactive)
    1  A    between atoms: C_9  and  C_22
    2  A    between atoms: C_9  and  C_23
    3  A    between atoms: C_15  and  C_23
                            x       y       z     vdW  Elec       q    Type
                         _______ _______ _______ _____ _____    ______ ____

>  <TORSDO>
F 3

$$$$
=
 OpenBabel11052413083D

 31 35  0  0  0  0  0  0  0  0999 V2000
  190.2270  177.0980  138.8990 C   0  0  0  0  0  0  0  0  0  0  0  0
  187.7760  178.2220  141.5000 C   0  0  0  0  0  0  0  0  0  0  0  0
  188.4940  178.0660  142.8060 C   0  0  0  0  0  0  0  0  0  0  0  0
  190.5270  178.2440  144.1380 C   0  0  0  0  0  0  0  0  0  0  0  0
  188.3720  177.9170  140.2500 C   0  0  0  0  0  0  0  0  0  0  0  0
  189.4860  177.3130  137.7350 C   0  0  0  0  0  3  0  0  0  0  0  0
  189.8810  178.2710  142.9000 C   0  0  0  0  0  3  0  0  0  0  0  0
  185.7470  178.8700  140.3040 C   0  0  0  0  0  0  0  0  0  0  0  0
  191.8510  176.4550  138.7970 Cl  0  0  0  0  0  0  0  0  0  0  0  0
  185.9870  177.5930  143.9440 S   0  0  0  0  0  0  0  0  0  0  0  0
  191.8660  178.4360  144.2060 F   0  0  0  0  0  0  0  0  0  0  0  0
  186.3550  178.5820  139.1250 N   0  0  0  0  0  0  0  0  0  0  0  0
  186.4380  178.6880  141.5140 C   0  0  0  0  0  0  0  0  0  0  0  0
  189.6720  177.3940  140.1450 C   0  0  0  0  0  3  0  0  0  0  0  0
  189.7900  178.0430  145.3050 C   0  0  0  0  0  3  0  0  0  0  0  0
  187.6260  178.1170  139.0640 C   0  0  0  0  0  0  0  0  0  0  0  0
  188.1880  177.8190  137.8180 C   0  0  0  0  0  3  0  0  0  0  0  0
  185.7670  179.0010  142.8220 C   0  0  0  0  0  2  0  0  0  0  0  0
  187.7620  177.8500  143.9950 C   0  0  0  0  0  0  0  0  0  0  0  0
  188.4090  177.8520  145.2330 C   0  0  0  0  0  3  0  0  0  0  0  0
  184.3230  179.3350  140.2790 C   0  0  0  0  0  2  0  0  0  0  0  0
  183.6390  177.0850  139.9540 O   0  0  0  0  0  0  0  0  0  0  0  0
  183.3930  178.1850  140.5170 C   0  0  0  0  0  0  0  0  0  0  0  0
  180.0170  178.6210  143.1340 C   0  0  0  0  0  0  0  0  0  0  0  0
  182.3950  178.7650  142.7270 C   0  0  0  0  0  3  0  0  0  0  0  0
  180.6740  177.6150  139.6890 F   0  0  0  0  0  0  0  0  0  0  0  0
  178.9320  178.7630  143.9890 O   0  0  0  0  0  1  0  0  0  0  0  0
  181.3040  178.9090  143.5880 C   0  0  0  0  0  3  0  0  0  0  0  0
  180.9070  178.0460  140.9540 C   0  0  0  0  0  0  0  0  0  0  0  0
  182.2150  178.3300  141.4040 C   0  0  0  0  0  0  0  0  0  0  0  0
  179.8200  178.1910  141.8210 C   0  0  0  0  0  3  0  0  0  0  0  0
  1 14  1  0  0  0  0
  2 13  2  0  0  0  0
  2  3  1  0  0  0  0
  3  7  2  0  0  0  0
  3 19  1  0  0  0  0
  4 11  1  0  0  0  0
  4 15  2  0  0  0  0
  5  2  1  0  0  0  0
  6 17  1  0  0  0  0
  6  1  2  0  0  0  0
  7  4  1  0  0  0  0
  8 13  1  0  0  0  0
  9  1  1  0  0  0  0
 10 19  1  0  0  0  0
 12  8  2  0  0  0  0
 13 18  1  0  0  0  0
 14  5  2  0  0  0  0
 16 12  1  0  0  0  0
 16  5  1  0  0  0  0
 17 16  2  0  0  0  0
 18 10  1  0  0  0  0
 19 20  2  0  0  0  0
 20 15  1  0  0  0  0
 21  8  1  0  0  0  0
 21 23  1  0  0  0  0
 22 23  2  0  0  0  0
 23 30  1  0  0  0  0
 24 28  1  0  0  0  0
 24 27  1  0  0  0  0
 25 28  2  0  0  0  0
 26 29  1  0  0  0  0
 29 30  2  0  0  0  0
 29 31  1  0  0  0  0
 30 25  1  0  0  0  0
 31 24  2  0  0  0  0
M  END
>  <MODEL>
8

>  <REMARK>
 VINA RESULT:      -8.9      3.955      6.155
  Name = 
  3 active torsions:
  status: ('A' for Active; 'I' for Inactive)
    1  A    between atoms: C_9  and  C_22
    2  A    between atoms: C_9  and  C_23
    3  A    between atoms: C_15  and  C_23
                            x       y       z     vdW  Elec       q    Type
                         _______ _______ _______ _____ _____    ______ ____

>  <TORSDO>
F 3

$$$$
=
 OpenBabel11052413083D

 31 35  0  0  0  0  0  0  0  0999 V2000
  189.6500  177.1050  143.2110 C   0  0  0  0  0  0  0  0  0  0  0  0
  186.4600  178.2960  141.6480 C   0  0  0  0  0  0  0  0  0  0  0  0
  185.5090  178.4760  142.7920 C   0  0  0  0  0  0  0  0  0  0  0  0
  185.0610  179.1780  145.0820 C   0  0  0  0  0  0  0  0  0  0  0  0
  187.8010  177.8680  141.8200 C   0  0  0  0  0  0  0  0  0  0  0  0
  190.4680  177.0040  142.0850 C   0  0  0  0  0  3  0  0  0  0  0  0
  185.9630  178.8950  144.0540 C   0  0  0  0  0  3  0  0  0  0  0  0
  186.8740  178.4230  139.2440 C   0  0  0  0  0  0  0  0  0  0  0  0
  190.2810  176.6980  144.7920 Cl  0  0  0  0  0  0  0  0  0  0  0  0
  183.4720  177.8490  140.9860 S   0  0  0  0  0  0  0  0  0  0  0  0
  185.5200  179.5720  146.2940 F   0  0  0  0  0  0  0  0  0  0  0  0
  188.1560  178.0260  139.4480 N   0  0  0  0  0  0  0  0  0  0  0  0
  185.9980  178.5570  140.3350 C   0  0  0  0  0  0  0  0  0  0  0  0
  188.3270  177.5300  143.0790 C   0  0  0  0  0  3  0  0  0  0  0  0
  183.6890  179.0790  144.8540 C   0  0  0  0  0  3  0  0  0  0  0  0
  188.6370  177.7470  140.6840 C   0  0  0  0  0  0  0  0  0  0  0  0
  189.9620  177.3230  140.8250 C   0  0  0  0  0  3  0  0  0  0  0  0
  184.5760  178.9930  140.1130 C   0  0  0  0  0  2  0  0  0  0  0  0
  184.1170  178.3660  142.5780 C   0  0  0  0  0  0  0  0  0  0  0  0
  183.2180  178.6780  143.6020 C   0  0  0  0  0  3  0  0  0  0  0  0
  186.4160  178.6640  137.8390 C   0  0  0  0  0  2  0  0  0  0  0  0
  187.7010  177.7270  136.0760 O   0  0  0  0  0  0  0  0  0  0  0  0
  186.8200  177.5260  136.9540 C   0  0  0  0  0  0  0  0  0  0  0  0
  184.9910  173.6680  137.4180 C   0  0  0  0  0  0  0  0  0  0  0  0
  184.8140  176.0710  137.2340 C   0  0  0  0  0  3  0  0  0  0  0  0
  188.3420  175.0600  137.0340 F   0  0  0  0  0  0  0  0  0  0  0  0
  184.3900  172.4250  137.5710 O   0  0  0  0  0  1  0  0  0  0  0  0
  184.2080  174.8220  137.3870 C   0  0  0  0  0  3  0  0  0  0  0  0
  186.9910  175.0100  137.1400 C   0  0  0  0  0  0  0  0  0  0  0  0
  186.2080  176.1850  137.1120 C   0  0  0  0  0  0  0  0  0  0  0  0
  186.3790  173.7620  137.2950 C   0  0  0  0  0  3  0  0  0  0  0  0
  1  9  1  0  0  0  0
  2  5  1  0  0  0  0
  2  3  1  0  0  0  0
  3  7  1  0  0  0  0
  4 11  1  0  0  0  0
  5 14  2  0  0  0  0
  6  1  2  0  0  0  0
  7  4  2  0  0  0  0
  8 12  2  0  0  0  0
  8 13  1  0  0  0  0
 10 19  1  0  0  0  0
 12 16  1  0  0  0  0
 13  2  2  0  0  0  0
 14  1  1  0  0  0  0
 15  4  1  0  0  0  0
 16 17  2  0  0  0  0
 16  5  1  0  0  0  0
 17  6  1  0  0  0  0
 18 13  1  0  0  0  0
 18 10  1  0  0  0  0
 19  3  2  0  0  0  0
 19 20  1  0  0  0  0
 20 15  2  0  0  0  0
 21  8  1  0  0  0  0
 22 23  2  0  0  0  0
 23 30  1  0  0  0  0
 23 21  1  0  0  0  0
 24 27  1  0  0  0  0
 25 28  2  0  0  0  0
 26 29  1  0  0  0  0
 28 24  1  0  0  0  0
 29 31  1  0  0  0  0
 30 29  2  0  0  0  0
 30 25  1  0  0  0  0
 31 24  2  0  0  0  0
M  END
>  <MODEL>
9

>  <REMARK>
 VINA RESULT:      -8.7      2.902      4.625
  Name = 
  3 active torsions:
  status: ('A' for Active; 'I' for Inactive)
    1  A    between atoms: C_9  and  C_22
    2  A    between atoms: C_9  and  C_23
    3  A    between atoms: C_15  and  C_23
                            x       y       z     vdW  Elec       q    Type
                         _______ _______ _______ _____ _____    ______ ____

>  <TORSDO>
F 3

$$$$
