=
 OpenBabel11052416293D

 43 48  0  0  1  0  0  0  0  0999 V2000
  186.6970  178.1140  146.7690 C   0  0  0  0  0  0  0  0  0  0  0  0
  183.7760  178.7070  142.7300 C   0  0  0  0  0  0  0  0  0  0  0  0
  184.8460  178.6150  145.2920 C   0  0  0  0  0  0  0  0  0  0  0  0
  187.4680  177.7020  145.6770 C   0  0  0  0  0  3  0  0  0  0  0  0
  187.2210  178.0710  148.0180 F   0  0  0  0  0  0  0  0  0  0  0  0
  185.6280  178.2010  144.1830 C   0  0  0  0  0  0  0  0  0  0  0  0
  185.3880  178.5680  146.5790 C   0  0  0  0  0  3  0  0  0  0  0  0
  186.9370  177.7460  144.3840 C   0  0  0  0  0  3  0  0  0  0  0  0
  185.6500  177.8570  141.6030 C   0  0  0  0  0  2  0  0  0  0  0  0
  185.0570  178.2610  142.9080 C   0  0  0  0  0  0  0  0  0  0  0  0
  182.9800  179.1110  143.8050 C   0  0  0  0  0  3  0  0  0  0  0  0
  183.3940  178.6700  141.3690 N   0  0  0  0  0  0  0  0  0  0  0  0
  184.5140  178.1310  140.5940 C   0  0  1  0  0  3  0  0  0  0  0  0
  183.5280  179.0650  145.0960 C   0  0  0  0  0  3  0  0  0  0  0  0
  184.1770  180.2260  139.4010 O   0  0  0  0  0  1  0  0  0  0  0  0
  185.0070  179.1070  139.5220 C   0  0  2  0  0  3  0  0  0  0  0  0
  185.1320  178.3930  138.1800 C   0  0  0  0  0  2  0  0  0  0  0  0
  186.5190  177.7900  137.9950 C   0  0  0  0  0  2  0  0  0  0  0  0
  187.3010  178.5790  136.9590 C   0  0  2  0  0  3  0  0  0  0  0  0
  186.9060  178.1620  135.5540 C   0  0  0  0  0  1  0  0  0  0  0  0
  188.8250  178.5280  137.1700 C   0  0  0  0  0  2  0  0  0  0  0  0
  189.4300  177.1830  137.6100 C   0  0  2  0  0  3  0  0  0  0  0  0
  191.0270  177.4280  141.0920 N   0  0  0  0  0  0  0  0  0  0  0  0
  190.0200  177.3000  140.0790 C   0  0  0  0  0  0  0  0  0  0  0  0
  190.3840  177.3570  138.6970 N   0  0  0  0  0  2  0  0  0  0  0  0
  192.4300  177.5450  140.7260 C   0  0  0  0  0  1  0  0  0  0  0  0
  188.8110  177.1480  140.4070 O   0  0  0  0  0  0  0  0  0  0  0  0
  190.6680  177.4670  142.5040 C   0  0  0  0  0  2  0  0  0  0  0  0
  191.3170  176.3120  143.2510 C   0  0  0  0  0  2  0  0  0  0  0  0
  189.3130  175.5730  143.0220 F   0  0  0  0  0  0  0  0  0  0  0  0
  190.5640  175.1500  143.0850 O   0  0  0  0  0  0  0  0  0  0  0  0
  190.5690  175.0840  136.9070 C   0  0  0  0  0  2  0  0  0  0  0  0
  190.0720  176.4400  136.4450 C   0  0  0  0  0  3  0  0  0  0  0  0
  189.2720  175.1890  136.1340 C   0  0  0  0  0  2  0  0  0  0  0  0
  182.0120  178.5370  140.9270 C   0  0  0  0  0  2  0  0  0  0  0  0
  181.8970  177.4030  139.9210 C   0  0  0  0  0  2  0  0  0  0  0  0
  180.5840  178.2480  136.5630 C   0  0  1  0  0  3  0  0  0  0  0  0
  179.7640  178.7210  137.5450 N   0  0  0  0  0  0  0  0  0  0  0  0
  180.4170  179.6080  136.4890 C   0  0  0  0  0  0  0  0  0  0  0  0
  181.5950  177.7790  137.5100 N   0  0  0  0  0  0  0  0  0  0  0  0
  181.1070  177.8500  138.7440 C   0  0  0  0  0  0  0  0  0  0  0  0
  180.8290  180.7650  136.0950 N   0  0  0  0  0  2  0  0  0  0  0  0
  179.7860  178.4390  138.8870 N   0  0  0  0  0  2  0  0  0  0  0  0
  1  5  1  0  0  0  0
  2 10  2  0  0  0  0
  2 11  1  0  0  0  0
  3  7  2  0  0  0  0
  4  1  2  0  0  0  0
  6  8  2  0  0  0  0
  6  3  1  0  0  0  0
  7  1  1  0  0  0  0
  8  4  1  0  0  0  0
  9 10  1  0  0  0  0
 10  6  1  0  0  0  0
 11 14  2  0  0  0  0
 12  2  1  0  0  0  0
 13 16  1  6  0  0  0
 13 12  1  0  0  0  0
 13  9  1  0  0  0  0
 14  3  1  0  0  0  0
 16 15  1  6  0  0  0
 17 16  1  0  0  0  0
 18 17  1  0  0  0  0
 19 20  1  6  0  0  0
 19 21  1  0  0  0  0
 19 18  1  0  0  0  0
 22 21  1  6  0  0  0
 22 25  1  0  0  0  0
 23 28  1  0  0  0  0
 24 27  2  0  0  0  0
 24 23  1  0  0  0  0
 25 24  1  0  0  0  0
 26 23  1  0  0  0  0
 28 29  1  0  0  0  0
 30 31  1  0  0  0  0
 31 29  1  0  0  0  0
 33 32  1  0  0  0  0
 33 22  1  0  0  0  0
 34 33  1  0  0  0  0
 34 32  1  0  0  0  0
 35 12  1  0  0  0  0
 36 35  1  0  0  0  0
 37 39  1  6  0  0  0
 37 40  1  0  0  0  0
 37 38  1  0  0  0  0
 38 43  1  0  0  0  0
 39 38  1  0  0  0  0
 40 41  2  0  0  0  0
 41 43  1  0  0  0  0
 41 36  1  0  0  0  0
 42 39  2  0  0  0  0
M  END
>  <MODEL>
1

>  <REMARK>
 VINA RESULT:      -8.1      0.000      0.000
  Name = 
  14 active torsions:
  status: ('A' for Active; 'I' for Inactive)
    1  A    between atoms: C_1  and  C_28
    2  A    between atoms: C_1  and  N_34
    3  A    between atoms: C_2  and  C_6
    4  A    between atoms: C_2  and  C_13
    5  A    between atoms: C_3  and  C_4
    6  A    between atoms: C_3  and  C_12
    7  A    between atoms: C_4  and  C_15
    8  A    between atoms: C_4  and  N_22
    9  A    between atoms: C_6  and  C_12
   10  A    between atoms: N_11  and  C_40
   11  A    between atoms: C_13  and  C_38
   12  A    between atoms: C_26  and  O_31
   13  A    between atoms: C_26  and  C_40
   14  A    between atoms: C_28  and  C_35
                            x       y       z     vdW  Elec       q    Type
                         _______ _______ _______ _____ _____    ______ ____

>  <TORSDO>
F 14

$$$$
=
 OpenBabel11052416293D

 43 48  0  0  1  0  0  0  0  0999 V2000
  191.3380  176.7290  147.3910 C   0  0  0  0  0  0  0  0  0  0  0  0
  187.4700  177.6750  144.3350 C   0  0  0  0  0  0  0  0  0  0  0  0
  189.1630  177.3200  146.5090 C   0  0  0  0  0  0  0  0  0  0  0  0
  191.8090  176.4920  146.0950 C   0  0  0  0  0  3  0  0  0  0  0  0
  192.1650  176.5570  148.4510 F   0  0  0  0  0  0  0  0  0  0  0  0
  189.6400  177.0840  145.1940 C   0  0  0  0  0  0  0  0  0  0  0  0
  190.0180  177.1410  147.5990 C   0  0  0  0  0  3  0  0  0  0  0  0
  190.9630  176.6690  144.9960 C   0  0  0  0  0  3  0  0  0  0  0  0
  189.0040  177.0610  142.6690 C   0  0  0  0  0  2  0  0  0  0  0  0
  188.7600  177.2730  144.1230 C   0  0  0  0  0  0  0  0  0  0  0  0
  186.9710  177.9060  145.6190 C   0  0  0  0  0  3  0  0  0  0  0  0
  186.7520  177.7890  143.1210 N   0  0  0  0  0  0  0  0  0  0  0  0
  187.6440  177.4020  142.0250 C   0  0  1  0  0  3  0  0  0  0  0  0
  187.8320  177.7270  146.7130 C   0  0  0  0  0  3  0  0  0  0  0  0
  186.6520  178.8100  140.3030 O   0  0  0  0  0  1  0  0  0  0  0  0
  187.8310  178.5260  141.0000 C   0  0  2  0  0  3  0  0  0  0  0  0
  188.9470  178.1660  140.0270 C   0  0  0  0  0  2  0  0  0  0  0  0
  188.8180  178.9370  138.7180 C   0  0  0  0  0  2  0  0  0  0  0  0
  188.6370  177.9750  137.5570 C   0  0  2  0  0  3  0  0  0  0  0  0
  187.8970  178.6460  136.4140 C   0  0  0  0  0  1  0  0  0  0  0  0
  187.9880  176.6400  137.9610 C   0  0  0  0  0  2  0  0  0  0  0  0
  188.5810  175.3560  137.3540 C   0  0  2  0  0  3  0  0  0  0  0  0
  192.3840  175.8070  137.0870 N   0  0  0  0  0  0  0  0  0  0  0  0
  191.0870  175.6350  137.6740 C   0  0  0  0  0  0  0  0  0  0  0  0
  189.9260  175.5810  136.8400 N   0  0  0  0  0  2  0  0  0  0  0  0
  192.5390  175.8550  135.6420 C   0  0  0  0  0  1  0  0  0  0  0  0
  190.9680  175.5440  138.9270 O   0  0  0  0  0  0  0  0  0  0  0  0
  193.5690  175.9590  137.9210 C   0  0  0  0  0  2  0  0  0  0  0  0
  194.4220  174.7000  137.8720 C   0  0  0  0  0  2  0  0  0  0  0  0
  195.5370  173.6400  139.3710 F   0  0  0  0  0  0  0  0  0  0  0  0
  195.4920  174.8110  138.7600 O   0  0  0  0  0  0  0  0  0  0  0  0
  188.4110  173.6630  135.5380 C   0  0  0  0  0  2  0  0  0  0  0  0
  187.6830  174.7720  136.2710 C   0  0  0  0  0  3  0  0  0  0  0  0
  187.3780  173.3200  136.5890 C   0  0  0  0  0  2  0  0  0  0  0  0
  185.3050  177.6460  143.0290 C   0  0  0  0  0  2  0  0  0  0  0  0
  184.6480  179.0160  143.0290 C   0  0  0  0  0  2  0  0  0  0  0  0
  181.0370  178.5860  142.3280 C   0  0  1  0  0  3  0  0  0  0  0  0
  181.2520  178.8750  143.6440 N   0  0  0  0  0  0  0  0  0  0  0  0
  180.3780  179.7220  142.7240 C   0  0  0  0  0  0  0  0  0  0  0  0
  182.4450  178.7580  141.9690 N   0  0  0  0  0  0  0  0  0  0  0  0
  183.1700  178.8680  143.0760 C   0  0  0  0  0  0  0  0  0  0  0  0
  179.8120  180.8450  142.4360 N   0  0  0  0  0  2  0  0  0  0  0  0
  182.4380  178.8950  144.3320 N   0  0  0  0  0  2  0  0  0  0  0  0
  1  7  1  0  0  0  0
  1  5  1  0  0  0  0
  2 11  1  0  0  0  0
  3 14  1  0  0  0  0
  3  7  2  0  0  0  0
  4  1  2  0  0  0  0
  6  3  1  0  0  0  0
  8  6  2  0  0  0  0
  8  4  1  0  0  0  0
  9 10  1  0  0  0  0
 10  2  2  0  0  0  0
 10  6  1  0  0  0  0
 11 14  2  0  0  0  0
 12  2  1  0  0  0  0
 13 16  1  6  0  0  0
 13  9  1  0  0  0  0
 13 12  1  0  0  0  0
 16 15  1  6  0  0  0
 17 16  1  0  0  0  0
 18 17  1  0  0  0  0
 19 20  1  6  0  0  0
 19 21  1  0  0  0  0
 19 18  1  0  0  0  0
 22 21  1  6  0  0  0
 23 24  1  0  0  0  0
 23 28  1  0  0  0  0
 24 27  2  0  0  0  0
 25 22  1  0  0  0  0
 25 24  1  0  0  0  0
 26 23  1  0  0  0  0
 29 28  1  0  0  0  0
 29 31  1  0  0  0  0
 31 30  1  0  0  0  0
 32 33  1  0  0  0  0
 32 34  1  0  0  0  0
 33 34  1  0  0  0  0
 33 22  1  0  0  0  0
 35 36  1  0  0  0  0
 35 12  1  0  0  0  0
 36 41  1  0  0  0  0
 37 40  1  6  0  0  0
 37 39  1  0  0  0  0
 37 38  1  0  0  0  0
 38 43  1  0  0  0  0
 39 38  1  0  0  0  0
 40 41  2  0  0  0  0
 41 43  1  0  0  0  0
 42 39  2  0  0  0  0
M  END
>  <MODEL>
2

>  <REMARK>
 VINA RESULT:      -8.1      3.089      4.504
  Name = 
  14 active torsions:
  status: ('A' for Active; 'I' for Inactive)
    1  A    between atoms: C_1  and  C_28
    2  A    between atoms: C_1  and  N_34
    3  A    between atoms: C_2  and  C_6
    4  A    between atoms: C_2  and  C_13
    5  A    between atoms: C_3  and  C_4
    6  A    between atoms: C_3  and  C_12
    7  A    between atoms: C_4  and  C_15
    8  A    between atoms: C_4  and  N_22
    9  A    between atoms: C_6  and  C_12
   10  A    between atoms: N_11  and  C_40
   11  A    between atoms: C_13  and  C_38
   12  A    between atoms: C_26  and  O_31
   13  A    between atoms: C_26  and  C_40
   14  A    between atoms: C_28  and  C_35
                            x       y       z     vdW  Elec       q    Type
                         _______ _______ _______ _____ _____    ______ ____

>  <TORSDO>
F 14

$$$$
=
 OpenBabel11052416293D

 43 48  0  0  1  0  0  0  0  0999 V2000
  186.6500  178.0090  146.6480 C   0  0  0  0  0  0  0  0  0  0  0  0
  183.7140  178.7660  142.6470 C   0  0  0  0  0  0  0  0  0  0  0  0
  184.7990  178.5850  145.1980 C   0  0  0  0  0  0  0  0  0  0  0  0
  187.4060  177.6130  145.5400 C   0  0  0  0  0  3  0  0  0  0  0  0
  187.1810  177.9220  147.8920 F   0  0  0  0  0  0  0  0  0  0  0  0
  185.5670  178.1870  144.0730 C   0  0  0  0  0  0  0  0  0  0  0  0
  185.3490  178.4920  146.4790 C   0  0  0  0  0  3  0  0  0  0  0  0
  186.8670  177.7010  144.2530 C   0  0  0  0  0  3  0  0  0  0  0  0
  185.5650  177.9120  141.4840 C   0  0  0  0  0  2  0  0  0  0  0  0
  184.9890  178.2920  142.8040 C   0  0  0  0  0  0  0  0  0  0  0  0
  182.9340  179.1560  143.7380 C   0  0  0  0  0  3  0  0  0  0  0  0
  183.3240  178.7740  141.2880 N   0  0  0  0  0  0  0  0  0  0  0  0
  184.4280  178.2340  140.4910 C   0  0  1  0  0  3  0  0  0  0  0  0
  183.4890  179.0640  145.0240 C   0  0  0  0  0  3  0  0  0  0  0  0
  184.0420  180.2910  139.2460 O   0  0  0  0  0  1  0  0  0  0  0  0
  184.9330  179.2300  139.4420 C   0  0  2  0  0  3  0  0  0  0  0  0
  185.1990  178.5120  138.1240 C   0  0  0  0  0  2  0  0  0  0  0  0
  186.6080  177.9330  138.0780 C   0  0  0  0  0  2  0  0  0  0  0  0
  187.4150  178.5970  136.9750 C   0  0  2  0  0  3  0  0  0  0  0  0
  186.9090  178.1730  135.6090 C   0  0  0  0  0  1  0  0  0  0  0  0
  188.9330  178.3930  137.1170 C   0  0  0  0  0  2  0  0  0  0  0  0
  189.4120  177.0530  137.7050 C   0  0  2  0  0  3  0  0  0  0  0  0
  191.0780  177.4440  141.1410 N   0  0  0  0  0  0  0  0  0  0  0  0
  190.0490  177.2950  140.1530 C   0  0  0  0  0  0  0  0  0  0  0  0
  190.3920  177.2540  138.7650 N   0  0  0  0  0  2  0  0  0  0  0  0
  192.4770  177.4820  140.7480 C   0  0  0  0  0  1  0  0  0  0  0  0
  188.8410  177.2120  140.5070 O   0  0  0  0  0  0  0  0  0  0  0  0
  190.7450  177.5820  142.5530 C   0  0  0  0  0  2  0  0  0  0  0  0
  190.6010  176.2150  143.2040 C   0  0  0  0  0  2  0  0  0  0  0  0
  191.6260  177.0560  144.8940 F   0  0  0  0  0  0  0  0  0  0  0  0
  191.6470  175.9980  144.1020 O   0  0  0  0  0  0  0  0  0  0  0  0
  190.6220  174.9210  137.2730 C   0  0  0  0  0  2  0  0  0  0  0  0
  189.9670  176.1270  136.6290 C   0  0  0  0  0  3  0  0  0  0  0  0
  189.2380  174.7980  136.6740 C   0  0  0  0  0  2  0  0  0  0  0  0
  181.9370  178.6790  140.8520 C   0  0  0  0  0  2  0  0  0  0  0  0
  181.8400  177.7940  139.6200 C   0  0  0  0  0  2  0  0  0  0  0  0
  180.1720  174.5350  140.1790 C   0  0  1  0  0  3  0  0  0  0  0  0
  179.2600  175.5470  140.0970 N   0  0  0  0  0  0  0  0  0  0  0  0
  179.2610  174.3330  139.1720 C   0  0  0  0  0  0  0  0  0  0  0  0
  181.3010  175.4060  139.8530 N   0  0  0  0  0  0  0  0  0  0  0  0
  180.8990  176.6720  139.8760 C   0  0  0  0  0  0  0  0  0  0  0  0
  178.9310  173.7710  138.0590 N   0  0  0  0  0  2  0  0  0  0  0  0
  179.4820  176.9000  140.1090 N   0  0  0  0  0  2  0  0  0  0  0  0
  1  5  1  0  0  0  0
  2 10  2  0  0  0  0
  2 11  1  0  0  0  0
  3  7  2  0  0  0  0
  4  1  2  0  0  0  0
  6  8  2  0  0  0  0
  6  3  1  0  0  0  0
  7  1  1  0  0  0  0
  8  4  1  0  0  0  0
  9 10  1  0  0  0  0
 10  6  1  0  0  0  0
 11 14  2  0  0  0  0
 12  2  1  0  0  0  0
 13 16  1  6  0  0  0
 13 12  1  0  0  0  0
 13  9  1  0  0  0  0
 14  3  1  0  0  0  0
 16 15  1  6  0  0  0
 17 16  1  0  0  0  0
 18 17  1  0  0  0  0
 19 20  1  6  0  0  0
 19 21  1  0  0  0  0
 19 18  1  0  0  0  0
 22 21  1  6  0  0  0
 22 25  1  0  0  0  0
 23 28  1  0  0  0  0
 24 27  2  0  0  0  0
 24 23  1  0  0  0  0
 25 24  1  0  0  0  0
 26 23  1  0  0  0  0
 28 29  1  0  0  0  0
 29 31  1  0  0  0  0
 31 30  1  0  0  0  0
 33 34  1  0  0  0  0
 33 32  1  0  0  0  0
 33 22  1  0  0  0  0
 34 32  1  0  0  0  0
 35 12  1  0  0  0  0
 36 41  1  0  0  0  0
 36 35  1  0  0  0  0
 37 39  1  6  0  0  0
 38 43  1  0  0  0  0
 38 37  1  0  0  0  0
 39 38  1  0  0  0  0
 40 41  2  0  0  0  0
 40 37  1  0  0  0  0
 41 43  1  0  0  0  0
 42 39  2  0  0  0  0
M  END
>  <MODEL>
3

>  <REMARK>
 VINA RESULT:      -7.9      1.538      1.992
  Name = 
  14 active torsions:
  status: ('A' for Active; 'I' for Inactive)
    1  A    between atoms: C_1  and  C_28
    2  A    between atoms: C_1  and  N_34
    3  A    between atoms: C_2  and  C_6
    4  A    between atoms: C_2  and  C_13
    5  A    between atoms: C_3  and  C_4
    6  A    between atoms: C_3  and  C_12
    7  A    between atoms: C_4  and  C_15
    8  A    between atoms: C_4  and  N_22
    9  A    between atoms: C_6  and  C_12
   10  A    between atoms: N_11  and  C_40
   11  A    between atoms: C_13  and  C_38
   12  A    between atoms: C_26  and  O_31
   13  A    between atoms: C_26  and  C_40
   14  A    between atoms: C_28  and  C_35
                            x       y       z     vdW  Elec       q    Type
                         _______ _______ _______ _____ _____    ______ ____

>  <TORSDO>
F 14

$$$$
=
 OpenBabel11052416293D

 43 48  0  0  1  0  0  0  0  0999 V2000
  194.1500  173.8010  136.6400 C   0  0  0  0  0  0  0  0  0  0  0  0
  189.4820  175.4340  137.5040 C   0  0  0  0  0  0  0  0  0  0  0  0
  191.7400  174.0270  136.7070 C   0  0  0  0  0  0  0  0  0  0  0  0
  194.2890  174.9880  137.3680 C   0  0  0  0  0  3  0  0  0  0  0  0
  195.2520  173.1150  136.2540 F   0  0  0  0  0  0  0  0  0  0  0  0
  191.8800  175.2280  137.4480 C   0  0  0  0  0  0  0  0  0  0  0  0
  192.8790  173.3210  136.3080 C   0  0  0  0  0  3  0  0  0  0  0  0
  193.1570  175.7020  137.7730 C   0  0  0  0  0  3  0  0  0  0  0  0
  190.6020  177.1950  138.5770 C   0  0  0  0  0  2  0  0  0  0  0  0
  190.7220  175.9100  137.8330 C   0  0  0  0  0  0  0  0  0  0  0  0
  189.3150  174.2590  136.7660 C   0  0  0  0  0  3  0  0  0  0  0  0
  188.4540  176.2830  137.9760 N   0  0  0  0  0  0  0  0  0  0  0  0
  189.0770  177.4260  138.6490 C   0  0  1  0  0  3  0  0  0  0  0  0
  190.4600  173.5520  136.3690 C   0  0  0  0  0  3  0  0  0  0  0  0
  188.2230  178.8400  140.4370 O   0  0  0  0  0  1  0  0  0  0  0  0
  188.6470  177.5460  140.1140 C   0  0  2  0  0  3  0  0  0  0  0  0
  189.7870  177.1190  141.0320 C   0  0  0  0  0  2  0  0  0  0  0  0
  189.8990  178.0330  142.2460 C   0  0  0  0  0  2  0  0  0  0  0  0
  191.1200  177.6640  143.0710 C   0  0  2  0  0  3  0  0  0  0  0  0
  191.3760  176.1700  143.0150 C   0  0  0  0  0  1  0  0  0  0  0  0
  191.0640  178.1870  144.5180 C   0  0  0  0  0  2  0  0  0  0  0  0
  190.6600  177.1840  145.6140 C   0  0  2  0  0  3  0  0  0  0  0  0
  187.0960  177.9710  146.8060 N   0  0  0  0  0  0  0  0  0  0  0  0
  188.1640  177.5150  145.9640 C   0  0  0  0  0  0  0  0  0  0  0  0
  189.5220  177.6670  146.3860 N   0  0  0  0  0  2  0  0  0  0  0  0
  187.3790  178.5220  148.1210 C   0  0  0  0  0  1  0  0  0  0  0  0
  187.9070  176.9920  144.8440 O   0  0  0  0  0  0  0  0  0  0  0  0
  185.7110  177.9120  146.3560 C   0  0  0  0  0  2  0  0  0  0  0  0
  185.3880  179.1040  145.4680 C   0  0  0  0  0  2  0  0  0  0  0  0
  183.9410  180.0540  144.1960 F   0  0  0  0  0  0  0  0  0  0  0  0
  184.1220  178.9510  144.9020 O   0  0  0  0  0  0  0  0  0  0  0  0
  191.3730  175.8830  147.6130 C   0  0  0  0  0  2  0  0  0  0  0  0
  191.8270  176.8440  146.5320 C   0  0  0  0  0  3  0  0  0  0  0  0
  192.1500  175.3660  146.4220 C   0  0  0  0  0  2  0  0  0  0  0  0
  187.1400  176.3750  137.3530 C   0  0  0  0  0  2  0  0  0  0  0  0
  186.7620  177.8330  137.1530 C   0  0  0  0  0  2  0  0  0  0  0  0
  184.0100  179.2300  139.2010 C   0  0  1  0  0  3  0  0  0  0  0  0
  183.6850  177.9980  138.7140 N   0  0  0  0  0  0  0  0  0  0  0  0
  183.7150  178.3380  140.2010 C   0  0  0  0  0  0  0  0  0  0  0  0
  185.3750  179.1740  138.6780 N   0  0  0  0  0  0  0  0  0  0  0  0
  185.4920  178.1290  137.8670 C   0  0  0  0  0  0  0  0  0  0  0  0
  183.8070  177.9710  141.4350 N   0  0  0  0  0  2  0  0  0  0  0  0
  184.3330  177.2570  137.7590 N   0  0  0  0  0  2  0  0  0  0  0  0
  1  4  1  0  0  0  0
  2 10  1  0  0  0  0
  2 12  1  0  0  0  0
  3  6  1  0  0  0  0
  4  8  2  0  0  0  0
  5  1  1  0  0  0  0
  6  8  1  0  0  0  0
  6 10  2  0  0  0  0
  7  1  2  0  0  0  0
  7  3  1  0  0  0  0
  9 13  1  0  0  0  0
 10  9  1  0  0  0  0
 11  2  2  0  0  0  0
 12 13  1  0  0  0  0
 13 16  1  1  0  0  0
 14  3  2  0  0  0  0
 14 11  1  0  0  0  0
 16 15  1  1  0  0  0
 16 17  1  0  0  0  0
 17 18  1  0  0  0  0
 18 19  1  0  0  0  0
 19 20  1  1  0  0  0
 19 21  1  0  0  0  0
 22 21  1  6  0  0  0
 22 25  1  0  0  0  0
 22 33  1  0  0  0  0
 23 26  1  0  0  0  0
 24 25  1  0  0  0  0
 24 23  1  0  0  0  0
 27 24  2  0  0  0  0
 28 23  1  0  0  0  0
 29 28  1  0  0  0  0
 30 31  1  0  0  0  0
 31 29  1  0  0  0  0
 33 32  1  0  0  0  0
 34 33  1  0  0  0  0
 34 32  1  0  0  0  0
 35 12  1  0  0  0  0
 36 35  1  0  0  0  0
 36 41  1  0  0  0  0
 37 40  1  1  0  0  0
 37 39  1  0  0  0  0
 38 37  1  0  0  0  0
 38 39  1  0  0  0  0
 39 42  2  0  0  0  0
 41 40  2  0  0  0  0
 43 41  1  0  0  0  0
 43 38  1  0  0  0  0
M  END
>  <MODEL>
4

>  <REMARK>
 VINA RESULT:      -7.5      3.047      8.241
  Name = 
  14 active torsions:
  status: ('A' for Active; 'I' for Inactive)
    1  A    between atoms: C_1  and  C_28
    2  A    between atoms: C_1  and  N_34
    3  A    between atoms: C_2  and  C_6
    4  A    between atoms: C_2  and  C_13
    5  A    between atoms: C_3  and  C_4
    6  A    between atoms: C_3  and  C_12
    7  A    between atoms: C_4  and  C_15
    8  A    between atoms: C_4  and  N_22
    9  A    between atoms: C_6  and  C_12
   10  A    between atoms: N_11  and  C_40
   11  A    between atoms: C_13  and  C_38
   12  A    between atoms: C_26  and  O_31
   13  A    between atoms: C_26  and  C_40
   14  A    between atoms: C_28  and  C_35
                            x       y       z     vdW  Elec       q    Type
                         _______ _______ _______ _____ _____    ______ ____

>  <TORSDO>
F 14

$$$$
=
 OpenBabel11052416293D

 43 48  0  0  1  0  0  0  0  0999 V2000
  191.1490  177.0010  147.4870 C   0  0  0  0  0  0  0  0  0  0  0  0
  187.3660  177.8320  144.2930 C   0  0  0  0  0  0  0  0  0  0  0  0
  188.9970  177.5530  146.5240 C   0  0  0  0  0  0  0  0  0  0  0  0
  191.6580  176.7280  146.2130 C   0  0  0  0  0  3  0  0  0  0  0  0
  191.9450  176.8660  148.5750 F   0  0  0  0  0  0  0  0  0  0  0  0
  189.5140  177.2790  145.2320 C   0  0  0  0  0  0  0  0  0  0  0  0
  189.8210  177.4110  147.6440 C   0  0  0  0  0  3  0  0  0  0  0  0
  190.8430  176.8660  145.0850 C   0  0  0  0  0  3  0  0  0  0  0  0
  188.9510  177.1760  142.6920 C   0  0  0  0  0  2  0  0  0  0  0  0
  188.6640  177.4310  144.1310 C   0  0  0  0  0  0  0  0  0  0  0  0
  186.8290  178.0990  145.5550 C   0  0  0  0  0  3  0  0  0  0  0  0
  186.6840  177.9050  143.0560 N   0  0  0  0  0  0  0  0  0  0  0  0
  187.6090  177.4900  141.9980 C   0  0  1  0  0  3  0  0  0  0  0  0
  187.6590  177.9590  146.6770 C   0  0  0  0  0  3  0  0  0  0  0  0
  186.6810  178.7920  140.1620 O   0  0  0  0  0  1  0  0  0  0  0  0
  187.8200  178.5830  140.9460 C   0  0  2  0  0  3  0  0  0  0  0  0
  189.0130  178.2350  140.0620 C   0  0  0  0  0  2  0  0  0  0  0  0
  188.9800  179.0080  138.7490 C   0  0  0  0  0  2  0  0  0  0  0  0
  188.8800  178.0490  137.5760 C   0  0  2  0  0  3  0  0  0  0  0  0
  187.7980  178.4930  136.6090 C   0  0  0  0  0  1  0  0  0  0  0  0
  188.7110  176.5790  137.9980 C   0  0  0  0  0  2  0  0  0  0  0  0
  188.3970  175.5590  136.8890 C   0  0  2  0  0  3  0  0  0  0  0  0
  184.8560  174.0750  136.8930 N   0  0  0  0  0  0  0  0  0  0  0  0
  185.9570  174.9310  136.5570 C   0  0  0  0  0  0  0  0  0  0  0  0
  187.2170  174.7660  137.2110 N   0  0  0  0  0  2  0  0  0  0  0  0
  185.0310  172.9900  137.8450 C   0  0  0  0  0  1  0  0  0  0  0  0
  185.8090  175.8390  135.6920 O   0  0  0  0  0  0  0  0  0  0  0  0
  183.5380  174.2850  136.3080 C   0  0  0  0  0  2  0  0  0  0  0  0
  182.7150  175.2280  137.1730 C   0  0  0  0  0  2  0  0  0  0  0  0
  181.9500  175.7020  135.2220 F   0  0  0  0  0  0  0  0  0  0  0  0
  181.5700  175.6330  136.4860 O   0  0  0  0  0  0  0  0  0  0  0  0
  189.1310  173.4340  135.8210 C   0  0  0  0  0  2  0  0  0  0  0  0
  189.5880  174.6560  136.5940 C   0  0  0  0  0  3  0  0  0  0  0  0
  189.8090  174.5760  135.0950 C   0  0  0  0  0  2  0  0  0  0  0  0
  185.2410  177.7510  142.9270 C   0  0  0  0  0  2  0  0  0  0  0  0
  184.5630  179.1060  143.0460 C   0  0  0  0  0  2  0  0  0  0  0  0
  180.9790  178.6410  142.2340 C   0  0  1  0  0  3  0  0  0  0  0  0
  181.1540  178.8950  143.5630 N   0  0  0  0  0  0  0  0  0  0  0  0
  180.2910  179.7550  142.6440 C   0  0  0  0  0  0  0  0  0  0  0  0
  182.3930  178.8450  141.9190 N   0  0  0  0  0  0  0  0  0  0  0  0
  183.0860  178.9340  143.0480 C   0  0  0  0  0  0  0  0  0  0  0  0
  179.7160  180.8780  142.3730 N   0  0  0  0  0  2  0  0  0  0  0  0
  182.3200  178.9130  144.2840 N   0  0  0  0  0  2  0  0  0  0  0  0
  1  7  1  0  0  0  0
  1  5  1  0  0  0  0
  2 11  1  0  0  0  0
  3 14  1  0  0  0  0
  3  7  2  0  0  0  0
  4  1  2  0  0  0  0
  6  3  1  0  0  0  0
  8  6  2  0  0  0  0
  8  4  1  0  0  0  0
  9 10  1  0  0  0  0
 10  2  2  0  0  0  0
 10  6  1  0  0  0  0
 11 14  2  0  0  0  0
 12  2  1  0  0  0  0
 13 16  1  6  0  0  0
 13  9  1  0  0  0  0
 13 12  1  0  0  0  0
 16 15  1  6  0  0  0
 17 16  1  0  0  0  0
 18 17  1  0  0  0  0
 19 20  1  6  0  0  0
 19 21  1  0  0  0  0
 19 18  1  0  0  0  0
 22 25  1  0  0  0  0
 22 21  1  1  0  0  0
 23 26  1  0  0  0  0
 24 23  1  0  0  0  0
 24 25  1  0  0  0  0
 27 24  2  0  0  0  0
 28 23  1  0  0  0  0
 28 29  1  0  0  0  0
 30 31  1  0  0  0  0
 31 29  1  0  0  0  0
 32 33  1  0  0  0  0
 33 22  1  0  0  0  0
 34 32  1  0  0  0  0
 34 33  1  0  0  0  0
 35 36  1  0  0  0  0
 35 12  1  0  0  0  0
 36 41  1  0  0  0  0
 37 40  1  6  0  0  0
 37 39  1  0  0  0  0
 37 38  1  0  0  0  0
 38 43  1  0  0  0  0
 39 38  1  0  0  0  0
 40 41  2  0  0  0  0
 41 43  1  0  0  0  0
 42 39  2  0  0  0  0
M  END
>  <MODEL>
5

>  <REMARK>
 VINA RESULT:      -7.5      3.320      5.443
  Name = 
  14 active torsions:
  status: ('A' for Active; 'I' for Inactive)
    1  A    between atoms: C_1  and  C_28
    2  A    between atoms: C_1  and  N_34
    3  A    between atoms: C_2  and  C_6
    4  A    between atoms: C_2  and  C_13
    5  A    between atoms: C_3  and  C_4
    6  A    between atoms: C_3  and  C_12
    7  A    between atoms: C_4  and  C_15
    8  A    between atoms: C_4  and  N_22
    9  A    between atoms: C_6  and  C_12
   10  A    between atoms: N_11  and  C_40
   11  A    between atoms: C_13  and  C_38
   12  A    between atoms: C_26  and  O_31
   13  A    between atoms: C_26  and  C_40
   14  A    between atoms: C_28  and  C_35
                            x       y       z     vdW  Elec       q    Type
                         _______ _______ _______ _____ _____    ______ ____

>  <TORSDO>
F 14

$$$$
=
 OpenBabel11052416293D

 43 48  0  0  1  0  0  0  0  0999 V2000
  183.4250  178.7860  144.3060 C   0  0  0  0  0  0  0  0  0  0  0  0
  187.9480  177.8880  142.3230 C   0  0  0  0  0  0  0  0  0  0  0  0
  185.7500  178.1870  143.9950 C   0  0  0  0  0  0  0  0  0  0  0  0
  183.3110  179.0870  142.9440 C   0  0  0  0  0  3  0  0  0  0  0  0
  182.3510  178.9310  145.1200 F   0  0  0  0  0  0  0  0  0  0  0  0
  185.6340  178.4890  142.6130 C   0  0  0  0  0  0  0  0  0  0  0  0
  184.6410  178.3390  144.8320 C   0  0  0  0  0  3  0  0  0  0  0  0
  184.4130  178.9390  142.0970 C   0  0  0  0  0  3  0  0  0  0  0  0
  186.9080  178.6050  140.3450 C   0  0  0  0  0  2  0  0  0  0  0  0
  186.7620  178.3260  141.8010 C   0  0  0  0  0  0  0  0  0  0  0  0
  188.0920  177.5930  143.6810 C   0  0  0  0  0  3  0  0  0  0  0  0
  188.9570  177.8110  141.3350 N   0  0  0  0  0  0  0  0  0  0  0  0
  188.3870  178.2620  140.0630 C   0  0  1  0  0  3  0  0  0  0  0  0
  186.9770  177.7440  144.5190 C   0  0  0  0  0  3  0  0  0  0  0  0
  189.7570  177.0400  138.4630 O   0  0  0  0  0  1  0  0  0  0  0  0
  188.4630  177.1870  138.9740 C   0  0  2  0  0  3  0  0  0  0  0  0
  187.4840  177.5080  137.8510 C   0  0  0  0  0  2  0  0  0  0  0  0
  186.6610  176.2860  137.4600 C   0  0  0  0  0  2  0  0  0  0  0  0
  185.2900  176.7130  136.9620 C   0  0  2  0  0  3  0  0  0  0  0  0
  185.3210  176.9840  135.4700 C   0  0  0  0  0  1  0  0  0  0  0  0
  184.6900  177.8900  137.7510 C   0  0  0  0  0  2  0  0  0  0  0  0
  183.2220  177.7630  138.1970 C   0  0  2  0  0  3  0  0  0  0  0  0
  181.0490  180.7980  137.3000 N   0  0  0  0  0  0  0  0  0  0  0  0
  181.7090  179.5300  137.1750 C   0  0  0  0  0  0  0  0  0  0  0  0
  182.5580  179.0600  138.2250 N   0  0  0  0  0  2  0  0  0  0  0  0
  181.1790  181.5790  138.5190 C   0  0  0  0  0  1  0  0  0  0  0  0
  181.5490  178.8360  136.1330 O   0  0  0  0  0  0  0  0  0  0  0  0
  180.2540  181.3390  136.2050 C   0  0  0  0  0  2  0  0  0  0  0  0
  180.2230  182.8580  136.2680 C   0  0  0  0  0  2  0  0  0  0  0  0
  180.3190  184.3750  134.7500 F   0  0  0  0  0  0  0  0  0  0  0  0
  181.0380  183.3970  135.2730 O   0  0  0  0  0  0  0  0  0  0  0  0
  181.6380  176.9890  139.9540 C   0  0  0  0  0  2  0  0  0  0  0  0
  183.0960  177.0660  139.5460 C   0  0  0  0  0  3  0  0  0  0  0  0
  182.3260  175.7700  139.3810 C   0  0  0  0  0  2  0  0  0  0  0  0
  190.3790  177.9270  141.6290 C   0  0  0  0  0  2  0  0  0  0  0  0
  190.9060  176.6070  142.1670 C   0  0  0  0  0  2  0  0  0  0  0  0
  191.8690  176.1830  145.7180 C   0  0  1  0  0  3  0  0  0  0  0  0
  191.7230  177.5020  145.4020 N   0  0  0  0  0  0  0  0  0  0  0  0
  190.9290  176.8040  146.5020 C   0  0  0  0  0  0  0  0  0  0  0  0
  191.4060  175.7260  144.4080 N   0  0  0  0  0  0  0  0  0  0  0  0
  191.3170  176.7670  143.5870 C   0  0  0  0  0  0  0  0  0  0  0  0
  189.8950  176.7400  147.2700 N   0  0  0  0  0  2  0  0  0  0  0  0
  191.5860  178.0740  144.1630 N   0  0  0  0  0  2  0  0  0  0  0  0
  1  7  1  0  0  0  0
  1  5  1  0  0  0  0
  2 11  1  0  0  0  0
  3 14  1  0  0  0  0
  3  7  2  0  0  0  0
  4  1  2  0  0  0  0
  6  3  1  0  0  0  0
  8  6  2  0  0  0  0
  8  4  1  0  0  0  0
  9 10  1  0  0  0  0
 10  2  2  0  0  0  0
 10  6  1  0  0  0  0
 11 14  2  0  0  0  0
 12 35  1  0  0  0  0
 12  2  1  0  0  0  0
 13 16  1  6  0  0  0
 13  9  1  0  0  0  0
 13 12  1  0  0  0  0
 16 15  1  6  0  0  0
 17 16  1  0  0  0  0
 18 17  1  0  0  0  0
 19 20  1  6  0  0  0
 19 18  1  0  0  0  0
 19 21  1  0  0  0  0
 22 21  1  1  0  0  0
 22 25  1  0  0  0  0
 22 33  1  0  0  0  0
 23 26  1  0  0  0  0
 24 23  1  0  0  0  0
 24 25  1  0  0  0  0
 27 24  2  0  0  0  0
 28 29  1  0  0  0  0
 28 23  1  0  0  0  0
 30 31  1  0  0  0  0
 31 29  1  0  0  0  0
 33 32  1  0  0  0  0
 34 33  1  0  0  0  0
 34 32  1  0  0  0  0
 35 36  1  0  0  0  0
 36 41  1  0  0  0  0
 37 40  1  6  0  0  0
 37 39  1  0  0  0  0
 38 37  1  0  0  0  0
 38 39  1  0  0  0  0
 39 42  2  0  0  0  0
 41 43  1  0  0  0  0
 41 40  2  0  0  0  0
 43 38  1  0  0  0  0
M  END
>  <MODEL>
6

>  <REMARK>
 VINA RESULT:      -7.4      3.409      8.818
  Name = 
  14 active torsions:
  status: ('A' for Active; 'I' for Inactive)
    1  A    between atoms: C_1  and  C_28
    2  A    between atoms: C_1  and  N_34
    3  A    between atoms: C_2  and  C_6
    4  A    between atoms: C_2  and  C_13
    5  A    between atoms: C_3  and  C_4
    6  A    between atoms: C_3  and  C_12
    7  A    between atoms: C_4  and  C_15
    8  A    between atoms: C_4  and  N_22
    9  A    between atoms: C_6  and  C_12
   10  A    between atoms: N_11  and  C_40
   11  A    between atoms: C_13  and  C_38
   12  A    between atoms: C_26  and  O_31
   13  A    between atoms: C_26  and  C_40
   14  A    between atoms: C_28  and  C_35
                            x       y       z     vdW  Elec       q    Type
                         _______ _______ _______ _____ _____    ______ ____

>  <TORSDO>
F 14

$$$$
=
 OpenBabel11052416293D

 43 48  0  0  1  0  0  0  0  0999 V2000
  184.2500  178.9920  144.5810 C   0  0  0  0  0  0  0  0  0  0  0  0
  188.2540  177.1140  142.2050 C   0  0  0  0  0  0  0  0  0  0  0  0
  186.2290  177.7210  144.0080 C   0  0  0  0  0  0  0  0  0  0  0  0
  184.3090  179.6540  143.3500 C   0  0  0  0  0  3  0  0  0  0  0  0
  183.2610  179.2880  145.4590 F   0  0  0  0  0  0  0  0  0  0  0  0
  186.2870  178.3890  142.7570 C   0  0  0  0  0  0  0  0  0  0  0  0
  185.2090  178.0290  144.9110 C   0  0  0  0  0  3  0  0  0  0  0  0
  185.3250  179.3540  142.4380 C   0  0  0  0  0  3  0  0  0  0  0  0
  187.6180  178.6330  140.5330 C   0  0  0  0  0  2  0  0  0  0  0  0
  187.3200  178.0580  141.8740 C   0  0  0  0  0  0  0  0  0  0  0  0
  188.2260  176.4480  143.4330 C   0  0  0  0  0  3  0  0  0  0  0  0
  189.2130  176.9470  141.1790 N   0  0  0  0  0  0  0  0  0  0  0  0
  188.8930  177.8810  140.0970 C   0  0  1  0  0  3  0  0  0  0  0  0
  187.1990  176.7570  144.3370 C   0  0  0  0  0  3  0  0  0  0  0  0
  189.6360  177.4240  137.8230 O   0  0  0  0  0  1  0  0  0  0  0  0
  188.6350  177.1660  138.7660 C   0  0  2  0  0  3  0  0  0  0  0  0
  187.2710  177.5650  138.2130 C   0  0  0  0  0  2  0  0  0  0  0  0
  186.5790  176.3900  137.5330 C   0  0  0  0  0  2  0  0  0  0  0  0
  185.7430  176.8780  136.3620 C   0  0  2  0  0  3  0  0  0  0  0  0
  186.5790  177.7260  135.4210 C   0  0  0  0  0  1  0  0  0  0  0  0
  184.4490  177.5940  136.7890 C   0  0  0  0  0  2  0  0  0  0  0  0
  183.6260  176.9470  137.9180 C   0  0  2  0  0  3  0  0  0  0  0  0
  181.1820  174.2420  136.7150 N   0  0  0  0  0  0  0  0  0  0  0  0
  182.3940  174.8490  137.1830 C   0  0  0  0  0  0  0  0  0  0  0  0
  182.4500  176.2620  137.3950 N   0  0  0  0  0  2  0  0  0  0  0  0
  179.9830  175.0420  136.5220 C   0  0  0  0  0  1  0  0  0  0  0  0
  183.4150  174.1380  137.3960 O   0  0  0  0  0  0  0  0  0  0  0  0
  181.1290  172.8190  136.4030 C   0  0  0  0  0  2  0  0  0  0  0  0
  179.8130  172.4700  135.7250 C   0  0  0  0  0  2  0  0  0  0  0  0
  179.7100  170.8740  137.1600 F   0  0  0  0  0  0  0  0  0  0  0  0
  178.9650  171.8270  136.6270 O   0  0  0  0  0  0  0  0  0  0  0  0
  182.0390  177.4440  139.7700 C   0  0  0  0  0  2  0  0  0  0  0  0
  183.2280  177.9610  138.9840 C   0  0  0  0  0  3  0  0  0  0  0  0
  183.4290  177.3580  140.3610 C   0  0  0  0  0  2  0  0  0  0  0  0
  190.5720  176.4790  141.4210 C   0  0  0  0  0  2  0  0  0  0  0  0
  191.4260  177.6190  141.9510 C   0  0  0  0  0  2  0  0  0  0  0  0
  191.7920  176.4750  145.4540 C   0  0  1  0  0  3  0  0  0  0  0  0
  191.6870  177.8340  145.3880 N   0  0  0  0  0  0  0  0  0  0  0  0
  190.7290  176.9490  146.1810 C   0  0  0  0  0  0  0  0  0  0  0  0
  191.5580  176.2990  144.0210 N   0  0  0  0  0  0  0  0  0  0  0  0
  191.5950  177.4830  143.4220 C   0  0  0  0  0  0  0  0  0  0  0  0
  189.5830  176.7570  146.7400 N   0  0  0  0  0  2  0  0  0  0  0  0
  191.7510  178.6440  144.2830 N   0  0  0  0  0  2  0  0  0  0  0  0
  1  7  1  0  0  0  0
  1  5  1  0  0  0  0
  2 11  1  0  0  0  0
  3 14  1  0  0  0  0
  3  7  2  0  0  0  0
  4  1  2  0  0  0  0
  6  3  1  0  0  0  0
  8  6  2  0  0  0  0
  8  4  1  0  0  0  0
  9 10  1  0  0  0  0
 10  2  2  0  0  0  0
 10  6  1  0  0  0  0
 11 14  2  0  0  0  0
 12 35  1  0  0  0  0
 12  2  1  0  0  0  0
 13 16  1  6  0  0  0
 13  9  1  0  0  0  0
 13 12  1  0  0  0  0
 16 15  1  6  0  0  0
 17 16  1  0  0  0  0
 18 17  1  0  0  0  0
 19 20  1  1  0  0  0
 19 21  1  0  0  0  0
 19 18  1  0  0  0  0
 22 21  1  6  0  0  0
 22 33  1  0  0  0  0
 23 24  1  0  0  0  0
 24 25  1  0  0  0  0
 24 27  2  0  0  0  0
 25 22  1  0  0  0  0
 26 23  1  0  0  0  0
 28 23  1  0  0  0  0
 29 28  1  0  0  0  0
 29 31  1  0  0  0  0
 31 30  1  0  0  0  0
 32 34  1  0  0  0  0
 33 32  1  0  0  0  0
 33 34  1  0  0  0  0
 35 36  1  0  0  0  0
 36 41  1  0  0  0  0
 37 40  1  6  0  0  0
 37 39  1  0  0  0  0
 38 37  1  0  0  0  0
 38 39  1  0  0  0  0
 39 42  2  0  0  0  0
 41 40  2  0  0  0  0
 41 43  1  0  0  0  0
 43 38  1  0  0  0  0
M  END
>  <MODEL>
7

>  <REMARK>
 VINA RESULT:      -7.2      3.669      8.585
  Name = 
  14 active torsions:
  status: ('A' for Active; 'I' for Inactive)
    1  A    between atoms: C_1  and  C_28
    2  A    between atoms: C_1  and  N_34
    3  A    between atoms: C_2  and  C_6
    4  A    between atoms: C_2  and  C_13
    5  A    between atoms: C_3  and  C_4
    6  A    between atoms: C_3  and  C_12
    7  A    between atoms: C_4  and  C_15
    8  A    between atoms: C_4  and  N_22
    9  A    between atoms: C_6  and  C_12
   10  A    between atoms: N_11  and  C_40
   11  A    between atoms: C_13  and  C_38
   12  A    between atoms: C_26  and  O_31
   13  A    between atoms: C_26  and  C_40
   14  A    between atoms: C_28  and  C_35
                            x       y       z     vdW  Elec       q    Type
                         _______ _______ _______ _____ _____    ______ ____

>  <TORSDO>
F 14

$$$$
=
 OpenBabel11052416293D

 43 48  0  0  1  0  0  0  0  0999 V2000
  183.4230  178.6270  144.2710 C   0  0  0  0  0  0  0  0  0  0  0  0
  188.3660  177.8980  143.7820 C   0  0  0  0  0  0  0  0  0  0  0  0
  185.7540  178.1300  144.6980 C   0  0  0  0  0  0  0  0  0  0  0  0
  183.7170  178.8940  142.9290 C   0  0  0  0  0  3  0  0  0  0  0  0
  182.1480  178.7380  144.7160 F   0  0  0  0  0  0  0  0  0  0  0  0
  186.0520  178.3970  143.3370 C   0  0  0  0  0  0  0  0  0  0  0  0
  184.4380  178.2470  145.1540 C   0  0  0  0  0  3  0  0  0  0  0  0
  185.0300  178.7800  142.4610 C   0  0  0  0  0  3  0  0  0  0  0  0
  187.9500  178.5240  141.5580 C   0  0  0  0  0  2  0  0  0  0  0  0
  187.3780  178.2700  142.9100 C   0  0  0  0  0  0  0  0  0  0  0  0
  188.1010  177.6380  145.1280 C   0  0  0  0  0  3  0  0  0  0  0  0
  189.6290  177.8470  143.1480 N   0  0  0  0  0  0  0  0  0  0  0  0
  189.4560  178.2450  141.7480 C   0  0  1  0  0  3  0  0  0  0  0  0
  186.7790  177.7550  145.5840 C   0  0  0  0  0  3  0  0  0  0  0  0
  191.2120  176.7300  141.0080 O   0  0  0  0  0  1  0  0  0  0  0  0
  189.9000  177.1520  140.7710 C   0  0  2  0  0  3  0  0  0  0  0  0
  189.7530  177.6420  139.3350 C   0  0  0  0  0  2  0  0  0  0  0  0
  188.7560  176.7940  138.5540 C   0  0  0  0  0  2  0  0  0  0  0  0
  187.9090  177.6750  137.6530 C   0  0  2  0  0  3  0  0  0  0  0  0
  188.6690  178.9260  137.2540 C   0  0  0  0  0  1  0  0  0  0  0  0
  186.5250  178.0040  138.2400 C   0  0  0  0  0  2  0  0  0  0  0  0
  185.2980  177.7170  137.3560 C   0  0  2  0  0  3  0  0  0  0  0  0
  182.0280  177.5000  139.3570 N   0  0  0  0  0  0  0  0  0  0  0  0
  183.1280  178.0680  138.6320 C   0  0  0  0  0  0  0  0  0  0  0  0
  184.1750  177.2250  138.1450 N   0  0  0  0  0  2  0  0  0  0  0  0
  181.9310  176.0610  139.5400 C   0  0  0  0  0  1  0  0  0  0  0  0
  183.1780  179.3140  138.4350 O   0  0  0  0  0  0  0  0  0  0  0  0
  180.9990  178.3500  139.9430 C   0  0  0  0  0  2  0  0  0  0  0  0
  179.8030  177.5170  140.3780 C   0  0  0  0  0  2  0  0  0  0  0  0
  180.4800  178.3250  142.2500 F   0  0  0  0  0  0  0  0  0  0  0  0
  179.8670  177.2670  141.7490 O   0  0  0  0  0  0  0  0  0  0  0  0
  184.4420  176.6340  135.2850 C   0  0  0  0  0  2  0  0  0  0  0  0
  185.6250  176.7490  136.2260 C   0  0  0  0  0  3  0  0  0  0  0  0
  185.6290  177.4920  134.9040 C   0  0  0  0  0  2  0  0  0  0  0  0
  190.8890  178.0350  143.8550 C   0  0  0  0  0  2  0  0  0  0  0  0
  191.6650  176.7280  143.8870 C   0  0  0  0  0  2  0  0  0  0  0  0
  191.2000  176.0060  147.4900 C   0  0  1  0  0  3  0  0  0  0  0  0
  192.0640  175.1190  146.9170 N   0  0  0  0  0  0  0  0  0  0  0  0
  192.4300  176.0130  148.0980 C   0  0  0  0  0  0  0  0  0  0  0  0
  191.0850  176.8130  146.2750 N   0  0  0  0  0  0  0  0  0  0  0  0
  191.6580  176.1700  145.2650 C   0  0  0  0  0  0  0  0  0  0  0  0
  193.3170  176.6090  148.8200 N   0  0  0  0  0  2  0  0  0  0  0  0
  192.3270  174.9200  145.5860 N   0  0  0  0  0  2  0  0  0  0  0  0
  1  5  1  0  0  0  0
  1  7  1  0  0  0  0
  2 11  1  0  0  0  0
  3  7  2  0  0  0  0
  3 14  1  0  0  0  0
  4  1  2  0  0  0  0
  6  3  1  0  0  0  0
  8  4  1  0  0  0  0
  8  6  2  0  0  0  0
  9 13  1  0  0  0  0
  9 10  1  0  0  0  0
 10  6  1  0  0  0  0
 10  2  2  0  0  0  0
 11 14  2  0  0  0  0
 12  2  1  0  0  0  0
 12 35  1  0  0  0  0
 13 16  1  6  0  0  0
 13 12  1  0  0  0  0
 16 15  1  1  0  0  0
 17 16  1  0  0  0  0
 18 17  1  0  0  0  0
 19 20  1  1  0  0  0
 19 21  1  0  0  0  0
 19 18  1  0  0  0  0
 22 25  1  0  0  0  0
 22 21  1  1  0  0  0
 23 26  1  0  0  0  0
 23 28  1  0  0  0  0
 24 23  1  0  0  0  0
 25 24  1  0  0  0  0
 27 24  2  0  0  0  0
 28 29  1  0  0  0  0
 29 31  1  0  0  0  0
 31 30  1  0  0  0  0
 32 33  1  0  0  0  0
 33 22  1  0  0  0  0
 34 32  1  0  0  0  0
 34 33  1  0  0  0  0
 35 36  1  0  0  0  0
 36 41  1  0  0  0  0
 37 40  1  6  0  0  0
 37 39  1  0  0  0  0
 38 37  1  0  0  0  0
 38 39  1  0  0  0  0
 39 42  2  0  0  0  0
 41 43  1  0  0  0  0
 41 40  2  0  0  0  0
 43 38  1  0  0  0  0
M  END
>  <MODEL>
8

>  <REMARK>
 VINA RESULT:      -7.2      3.187      8.499
  Name = 
  14 active torsions:
  status: ('A' for Active; 'I' for Inactive)
    1  A    between atoms: C_1  and  C_28
    2  A    between atoms: C_1  and  N_34
    3  A    between atoms: C_2  and  C_6
    4  A    between atoms: C_2  and  C_13
    5  A    between atoms: C_3  and  C_4
    6  A    between atoms: C_3  and  C_12
    7  A    between atoms: C_4  and  C_15
    8  A    between atoms: C_4  and  N_22
    9  A    between atoms: C_6  and  C_12
   10  A    between atoms: N_11  and  C_40
   11  A    between atoms: C_13  and  C_38
   12  A    between atoms: C_26  and  O_31
   13  A    between atoms: C_26  and  C_40
   14  A    between atoms: C_28  and  C_35
                            x       y       z     vdW  Elec       q    Type
                         _______ _______ _______ _____ _____    ______ ____

>  <TORSDO>
F 14

$$$$
=
 OpenBabel11052416293D

 43 48  0  0  1  0  0  0  0  0999 V2000
  187.6060  177.5400  147.5590 C   0  0  0  0  0  0  0  0  0  0  0  0
  187.9510  177.7550  142.5560 C   0  0  0  0  0  0  0  0  0  0  0  0
  188.3100  177.2420  145.2620 C   0  0  0  0  0  0  0  0  0  0  0  0
  186.5480  178.3530  147.1380 C   0  0  0  0  0  3  0  0  0  0  0  0
  187.7790  177.2890  148.8790 F   0  0  0  0  0  0  0  0  0  0  0  0
  187.2350  178.0640  144.8340 C   0  0  0  0  0  0  0  0  0  0  0  0
  188.4870  176.9870  146.6240 C   0  0  0  0  0  3  0  0  0  0  0  0
  186.3610  178.6160  145.7780 C   0  0  0  0  0  3  0  0  0  0  0  0
  186.0720  179.1450  142.7710 C   0  0  0  0  0  2  0  0  0  0  0  0
  187.0850  178.3010  143.4640 C   0  0  0  0  0  0  0  0  0  0  0  0
  189.0230  176.9510  142.9500 C   0  0  0  0  0  3  0  0  0  0  0  0
  187.6270  178.1340  141.2320 N   0  0  0  0  0  0  0  0  0  0  0  0
  186.4640  179.0240  141.2820 C   0  0  1  0  0  3  0  0  0  0  0  0
  189.1970  176.6940  144.3190 C   0  0  0  0  0  3  0  0  0  0  0  0
  185.2510  178.9650  139.1720 O   0  0  0  0  0  1  0  0  0  0  0  0
  185.2760  178.4790  140.4840 C   0  0  2  0  0  3  0  0  0  0  0  0
  183.9690  178.8110  141.1960 C   0  0  0  0  0  2  0  0  0  0  0  0
  182.8400  177.8910  140.7480 C   0  0  0  0  0  2  0  0  0  0  0  0
  181.6390  178.7080  140.3050 C   0  0  2  0  0  3  0  0  0  0  0  0
  180.3800  177.8610  140.3090 C   0  0  0  0  0  1  0  0  0  0  0  0
  181.8480  179.4260  138.9600 C   0  0  0  0  0  2  0  0  0  0  0  0
  181.5410  178.6280  137.6800 C   0  0  2  0  0  3  0  0  0  0  0  0
  184.0390  175.8290  136.8670 N   0  0  0  0  0  0  0  0  0  0  0  0
  182.8830  176.4880  137.4020 C   0  0  0  0  0  0  0  0  0  0  0  0
  182.7110  177.8950  137.2140 N   0  0  0  0  0  2  0  0  0  0  0  0
  185.0050  176.5670  136.0700 C   0  0  0  0  0  1  0  0  0  0  0  0
  182.0230  175.8290  138.0500 O   0  0  0  0  0  0  0  0  0  0  0  0
  184.2820  174.4150  137.1270 C   0  0  0  0  0  2  0  0  0  0  0  0
  185.7580  174.0890  136.9610 C   0  0  0  0  0  2  0  0  0  0  0  0
  184.9930  172.6020  138.3090 F   0  0  0  0  0  0  0  0  0  0  0  0
  186.1350  173.0990  137.8690 O   0  0  0  0  0  0  0  0  0  0  0  0
  181.1280  178.8250  135.2340 C   0  0  0  0  0  2  0  0  0  0  0  0
  180.9880  179.5190  136.5740 C   0  0  0  0  0  3  0  0  0  0  0  0
  179.7870  178.8510  135.9330 C   0  0  0  0  0  2  0  0  0  0  0  0
  188.6050  178.2000  140.1540 C   0  0  0  0  0  2  0  0  0  0  0  0
  188.3540  177.0800  139.1580 C   0  0  0  0  0  2  0  0  0  0  0  0
  191.5030  175.5230  137.9850 C   0  0  1  0  0  3  0  0  0  0  0  0
  191.3100  176.7410  137.4030 N   0  0  0  0  0  0  0  0  0  0  0  0
  192.5380  176.3880  138.2370 C   0  0  0  0  0  0  0  0  0  0  0  0
  190.3350  175.6540  138.8550 N   0  0  0  0  0  0  0  0  0  0  0  0
  189.6250  176.7130  138.4790 C   0  0  0  0  0  0  0  0  0  0  0  0
  193.5440  176.7480  138.9600 N   0  0  0  0  0  2  0  0  0  0  0  0
  190.1840  177.5240  137.4100 N   0  0  0  0  0  2  0  0  0  0  0  0
  1  5  1  0  0  0  0
  2 11  2  0  0  0  0
  2 10  1  0  0  0  0
  3  7  1  0  0  0  0
  4  1  1  0  0  0  0
  6  3  1  0  0  0  0
  6  8  1  0  0  0  0
  7  1  2  0  0  0  0
  8  4  2  0  0  0  0
  9 10  1  0  0  0  0
 10  6  2  0  0  0  0
 11 14  1  0  0  0  0
 12 13  1  0  0  0  0
 12  2  1  0  0  0  0
 13 16  1  6  0  0  0
 13  9  1  0  0  0  0
 14  3  2  0  0  0  0
 16 15  1  6  0  0  0
 16 17  1  0  0  0  0
 18 17  1  0  0  0  0
 19 20  1  6  0  0  0
 19 18  1  0  0  0  0
 21 19  1  0  0  0  0
 22 21  1  1  0  0  0
 23 28  1  0  0  0  0
 23 24  1  0  0  0  0
 24 27  2  0  0  0  0
 25 24  1  0  0  0  0
 25 22  1  0  0  0  0
 26 23  1  0  0  0  0
 29 28  1  0  0  0  0
 29 31  1  0  0  0  0
 31 30  1  0  0  0  0
 32 34  1  0  0  0  0
 32 33  1  0  0  0  0
 33 22  1  0  0  0  0
 34 33  1  0  0  0  0
 35 12  1  0  0  0  0
 36 35  1  0  0  0  0
 37 39  1  1  0  0  0
 37 40  1  0  0  0  0
 38 43  1  0  0  0  0
 38 37  1  0  0  0  0
 38 39  1  0  0  0  0
 39 42  2  0  0  0  0
 41 40  2  0  0  0  0
 41 36  1  0  0  0  0
 43 41  1  0  0  0  0
M  END
>  <MODEL>
9

>  <REMARK>
 VINA RESULT:      -7.1      2.558      7.271
  Name = 
  14 active torsions:
  status: ('A' for Active; 'I' for Inactive)
    1  A    between atoms: C_1  and  C_28
    2  A    between atoms: C_1  and  N_34
    3  A    between atoms: C_2  and  C_6
    4  A    between atoms: C_2  and  C_13
    5  A    between atoms: C_3  and  C_4
    6  A    between atoms: C_3  and  C_12
    7  A    between atoms: C_4  and  C_15
    8  A    between atoms: C_4  and  N_22
    9  A    between atoms: C_6  and  C_12
   10  A    between atoms: N_11  and  C_40
   11  A    between atoms: C_13  and  C_38
   12  A    between atoms: C_26  and  O_31
   13  A    between atoms: C_26  and  C_40
   14  A    between atoms: C_28  and  C_35
                            x       y       z     vdW  Elec       q    Type
                         _______ _______ _______ _____ _____    ______ ____

>  <TORSDO>
F 14

$$$$
