=
 OpenBabel11052416253D

 43 47  0  0  1  0  0  0  0  0999 V2000
  181.6530  179.0040  143.1100 C   0  0  0  0  0  0  0  0  0  0  0  0
  186.3460  178.3000  144.8370 C   0  0  0  0  0  0  0  0  0  0  0  0
  187.9500  177.6100  142.6410 C   0  0  0  0  0  0  0  0  0  0  0  0
  183.6230  178.8080  144.5090 C   0  0  0  0  0  0  0  0  0  0  0  0
  182.4110  178.6690  141.9850 C   0  0  0  0  0  3  0  0  0  0  0  0
  180.3300  179.2680  142.9790 F   0  0  0  0  0  0  0  0  0  0  0  0
  184.3980  178.4660  143.3740 C   0  0  0  0  0  0  0  0  0  0  0  0
  182.2570  179.0730  144.3690 C   0  0  0  0  0  3  0  0  0  0  0  0
  183.7770  178.4000  142.1140 C   0  0  0  0  0  3  0  0  0  0  0  0
  186.5880  177.8560  142.4560 C   0  0  0  0  0  3  0  0  0  0  0  0
  185.7730  178.2080  143.5430 C   0  0  0  0  0  0  0  0  0  0  0  0
  185.5260  178.6410  145.9210 C   0  0  0  0  0  3  0  0  0  0  0  0
  187.7190  178.0460  145.0250 C   0  0  0  0  0  0  0  0  0  0  0  0
  188.5090  177.7040  143.9170 C   0  0  0  0  0  3  0  0  0  0  0  0
  184.2010  178.8830  145.7370 N   0  0  0  0  0  0  0  0  0  0  0  0
  188.7930  177.2120  141.4810 C   0  0  0  0  0  2  0  0  0  0  0  0
  189.1060  178.4250  140.6230 C   0  0  0  0  0  2  0  0  0  0  0  0
  186.9590  178.3290  139.0160 O   0  0  0  0  0  0  0  0  0  0  0  0
  188.4560  178.1930  138.9830 S   0  0  0  0  0  0  0  0  0  0  0  0
  189.0330  179.2250  138.0570 O   0  0  0  0  0  0  0  0  0  0  0  0
  188.8970  176.5670  138.4060 C   0  0  0  0  0  2  0  0  0  0  0  0
  190.0660  176.6540  137.5450 N   0  0  0  0  0  0  0  0  0  0  0  0
  192.2000  175.9050  135.9000 C   0  0  0  0  0  2  0  0  0  0  0  0
  192.0340  175.1040  137.1910 C   0  0  2  0  0  3  0  0  0  0  0  0
  189.6850  176.0680  136.2590 C   0  0  0  0  0  2  0  0  0  0  0  0
  191.1520  175.8950  138.1970 C   0  0  1  0  0  3  0  0  0  0  0  0
  191.9820  176.8610  139.0370 C   0  0  0  0  0  1  0  0  0  0  0  0
  190.8360  176.1860  135.2570 C   0  0  0  0  0  2  0  0  0  0  0  0
  193.3750  174.6230  137.7590 C   0  0  2  0  0  3  0  0  0  0  0  0
  195.2070  173.7390  136.6480 C   0  0  0  0  0  0  0  0  0  0  0  0
  195.5050  175.0580  137.0140 N   0  0  0  0  0  0  0  0  0  0  0  0
  196.0210  172.9870  136.0520 O   0  0  0  0  0  0  0  0  0  0  0  0
  194.4050  175.6720  137.6240 N   0  0  0  0  0  0  0  0  0  0  0  0
  193.8490  173.3590  137.0280 C   0  0  0  0  0  2  0  0  0  0  0  0
  188.2890  178.1090  146.3430 N   0  0  0  0  0  2  0  0  0  0  0  0
  188.1760  177.0750  147.3770 C   0  0  2  0  0  3  0  0  0  0  0  0
  187.9540  177.7110  148.7370 C   0  0  0  0  0  1  0  0  0  0  0  0
  189.3610  176.2280  147.4040 N   0  0  0  0  0  2  0  0  0  0  0  0
  190.5290  177.0960  147.3380 C   0  0  0  0  0  2  0  0  0  0  0  0
  191.6660  176.3930  146.6100 C   0  0  0  0  0  2  0  0  0  0  0  0
  191.7120  178.0940  144.7740 O   0  0  0  0  0  1  0  0  0  0  0  0
  191.6770  176.7590  145.1600 C   0  0  0  0  0  0  0  0  0  0  0  0
  191.6820  175.8570  144.2850 O   0  0  0  0  0  0  0  0  0  0  0  0
  1  8  1  0  0  0  0
  2 13  1  0  0  0  0
  2 12  1  0  0  0  0
  3 14  1  0  0  0  0
  4 15  1  0  0  0  0
  5  9  1  0  0  0  0
  5  1  2  0  0  0  0
  6  1  1  0  0  0  0
  7 11  1  0  0  0  0
  7  4  1  0  0  0  0
  8  4  2  0  0  0  0
  9  7  2  0  0  0  0
 10  3  2  0  0  0  0
 10 11  1  0  0  0  0
 11  2  2  0  0  0  0
 13 35  1  0  0  0  0
 14 13  2  0  0  0  0
 15 12  2  0  0  0  0
 16  3  1  0  0  0  0
 17 16  1  0  0  0  0
 19 18  2  0  0  0  0
 19 17  1  0  0  0  0
 20 19  2  0  0  0  0
 21 19  1  0  0  0  0
 22 26  1  0  0  0  0
 22 21  1  0  0  0  0
 24 23  1  6  0  0  0
 24 29  1  0  0  0  0
 24 26  1  0  0  0  0
 25 22  1  0  0  0  0
 26 27  1  6  0  0  0
 28 23  1  0  0  0  0
 28 25  1  0  0  0  0
 29 34  1  6  0  0  0
 30 31  1  0  0  0  0
 30 34  1  0  0  0  0
 31 33  2  0  0  0  0
 32 30  2  0  0  0  0
 33 29  1  0  0  0  0
 35 36  1  0  0  0  0
 36 38  1  0  0  0  0
 36 37  1  1  0  0  0
 39 38  1  0  0  0  0
 40 39  1  0  0  0  0
 41 42  1  0  0  0  0
 42 40  1  0  0  0  0
 43 42  2  0  0  0  0
M  END
>  <MODEL>
1

>  <REMARK>
 VINA RESULT:      -9.5      0.000      0.000
  Name = 
  12 active torsions:
  status: ('A' for Active; 'I' for Inactive)
    1  A    between atoms: C_1  and  N_9
    2  A    between atoms: C_1  and  N_35
    3  A    between atoms: C_2  and  C_6
    4  A    between atoms: C_2  and  C_13
    5  A    between atoms: C_3  and  N_4
    6  A    between atoms: C_3  and  S_12
    7  A    between atoms: C_6  and  S_12
    8  A    between atoms: N_9  and  C_32
    9  A    between atoms: C_11  and  C_14
   10  A    between atoms: C_25  and  C_32
   11  A    between atoms: C_25  and  C_37
   12  A    between atoms: C_34  and  N_35
                            x       y       z     vdW  Elec       q    Type
                         _______ _______ _______ _____ _____    ______ ____

>  <TORSDO>
F 12

$$$$
=
 OpenBabel11052416253D

 43 47  0  0  1  0  0  0  0  0999 V2000
  191.1840  176.6540  147.1350 C   0  0  0  0  0  0  0  0  0  0  0  0
  187.1450  177.7680  144.3170 C   0  0  0  0  0  0  0  0  0  0  0  0
  188.0430  178.1600  141.6880 C   0  0  0  0  0  0  0  0  0  0  0  0
  188.9390  177.1270  146.3540 C   0  0  0  0  0  0  0  0  0  0  0  0
  191.6790  176.8340  145.8410 C   0  0  0  0  0  3  0  0  0  0  0  0
  192.0310  176.3300  148.1430 F   0  0  0  0  0  0  0  0  0  0  0  0
  189.4320  177.3140  145.0400 C   0  0  0  0  0  0  0  0  0  0  0  0
  189.8180  176.8000  147.3920 C   0  0  0  0  0  3  0  0  0  0  0  0
  190.8090  177.1640  144.7970 C   0  0  0  0  0  3  0  0  0  0  0  0
  188.9580  177.8440  142.6930 C   0  0  0  0  0  3  0  0  0  0  0  0
  188.5240  177.6390  144.0120 C   0  0  0  0  0  0  0  0  0  0  0  0
  186.7190  177.5730  145.6370 C   0  0  0  0  0  3  0  0  0  0  0  0
  186.2220  178.0910  143.3030 C   0  0  0  0  0  0  0  0  0  0  0  0
  186.6850  178.2830  141.9920 C   0  0  0  0  0  3  0  0  0  0  0  0
  187.6110  177.2620  146.6140 N   0  0  0  0  0  0  0  0  0  0  0  0
  188.5240  178.4000  140.3000 C   0  0  0  0  0  2  0  0  0  0  0  0
  187.4060  178.1360  139.3070 C   0  0  0  0  0  2  0  0  0  0  0  0
  186.9750  177.4670  136.7450 O   0  0  0  0  0  0  0  0  0  0  0  0
  188.0910  177.7340  137.7150 S   0  0  0  0  0  0  0  0  0  0  0  0
  188.9250  178.8800  137.2180 O   0  0  0  0  0  0  0  0  0  0  0  0
  189.1120  176.2830  137.8700 C   0  0  0  0  0  2  0  0  0  0  0  0
  190.3580  176.4810  137.1480 N   0  0  0  0  0  0  0  0  0  0  0  0
  192.7280  175.9420  135.7650 C   0  0  0  0  0  2  0  0  0  0  0  0
  192.4900  175.1260  137.0350 C   0  0  2  0  0  3  0  0  0  0  0  0
  190.1840  175.8650  135.8320 C   0  0  0  0  0  2  0  0  0  0  0  0
  191.4280  175.8270  137.9260 C   0  0  1  0  0  3  0  0  0  0  0  0
  192.0610  176.8660  138.8480 C   0  0  0  0  0  1  0  0  0  0  0  0
  191.4270  176.0930  134.9670 C   0  0  0  0  0  2  0  0  0  0  0  0
  193.7970  174.7720  137.7570 C   0  0  2  0  0  3  0  0  0  0  0  0
  195.5770  173.4800  137.0230 C   0  0  0  0  0  0  0  0  0  0  0  0
  195.9530  174.8290  136.9640 N   0  0  0  0  0  0  0  0  0  0  0  0
  196.3450  172.5350  136.7130 O   0  0  0  0  0  0  0  0  0  0  0  0
  194.8900  175.6650  137.3240 N   0  0  0  0  0  0  0  0  0  0  0  0
  194.1960  173.3180  137.4710 C   0  0  0  0  0  2  0  0  0  0  0  0
  184.8290  178.2520  143.6210 N   0  0  0  0  0  2  0  0  0  0  0  0
  183.8200  178.8810  142.7640 C   0  0  2  0  0  3  0  0  0  0  0  0
  182.4890  178.9620  143.4880 C   0  0  0  0  0  1  0  0  0  0  0  0
  183.6680  178.1530  141.5100 N   0  0  0  0  0  2  0  0  0  0  0  0
  182.3110  178.3750  141.0300 C   0  0  0  0  0  2  0  0  0  0  0  0
  182.3260  179.3020  139.8230 C   0  0  0  0  0  2  0  0  0  0  0  0
  183.8500  178.0790  138.2570 O   0  0  0  0  0  0  0  0  0  0  0  0
  183.6150  179.1790  139.0740 C   0  0  0  0  0  0  0  0  0  0  0  0
  184.4810  180.0860  139.1610 O   0  0  0  0  0  1  0  0  0  0  0  0
  1  8  1  0  0  0  0
  1  6  1  0  0  0  0
  2 12  1  0  0  0  0
  3 14  2  0  0  0  0
  3 10  1  0  0  0  0
  4 15  1  0  0  0  0
  4  8  2  0  0  0  0
  5  1  2  0  0  0  0
  7  4  1  0  0  0  0
  9  7  2  0  0  0  0
  9  5  1  0  0  0  0
 10 11  2  0  0  0  0
 11  2  1  0  0  0  0
 11  7  1  0  0  0  0
 12 15  2  0  0  0  0
 13 35  1  0  0  0  0
 13  2  2  0  0  0  0
 14 13  1  0  0  0  0
 16  3  1  0  0  0  0
 17 16  1  0  0  0  0
 18 19  2  0  0  0  0
 19 21  1  0  0  0  0
 19 17  1  0  0  0  0
 20 19  2  0  0  0  0
 22 21  1  0  0  0  0
 22 26  1  0  0  0  0
 24 23  1  6  0  0  0
 24 29  1  0  0  0  0
 24 26  1  0  0  0  0
 25 22  1  0  0  0  0
 26 27  1  6  0  0  0
 28 23  1  0  0  0  0
 28 25  1  0  0  0  0
 29 34  1  6  0  0  0
 30 34  1  0  0  0  0
 31 30  1  0  0  0  0
 31 33  2  0  0  0  0
 32 30  2  0  0  0  0
 33 29  1  0  0  0  0
 36 37  1  1  0  0  0
 36 35  1  0  0  0  0
 38 36  1  0  0  0  0
 39 38  1  0  0  0  0
 40 39  1  0  0  0  0
 41 42  2  0  0  0  0
 42 43  1  0  0  0  0
 42 40  1  0  0  0  0
M  END
>  <MODEL>
2

>  <REMARK>
 VINA RESULT:      -9.0      2.866      5.709
  Name = 
  12 active torsions:
  status: ('A' for Active; 'I' for Inactive)
    1  A    between atoms: C_1  and  N_9
    2  A    between atoms: C_1  and  N_35
    3  A    between atoms: C_2  and  C_6
    4  A    between atoms: C_2  and  C_13
    5  A    between atoms: C_3  and  N_4
    6  A    between atoms: C_3  and  S_12
    7  A    between atoms: C_6  and  S_12
    8  A    between atoms: N_9  and  C_32
    9  A    between atoms: C_11  and  C_14
   10  A    between atoms: C_25  and  C_32
   11  A    between atoms: C_25  and  C_37
   12  A    between atoms: C_34  and  N_35
                            x       y       z     vdW  Elec       q    Type
                         _______ _______ _______ _____ _____    ______ ____

>  <TORSDO>
F 12

$$$$
=
 OpenBabel11052416253D

 43 47  0  0  1  0  0  0  0  0999 V2000
  185.0930  178.5930  145.3500 C   0  0  0  0  0  0  0  0  0  0  0  0
  182.3090  178.7480  141.1400 C   0  0  0  0  0  0  0  0  0  0  0  0
  183.9820  178.0350  139.0040 C   0  0  0  0  0  0  0  0  0  0  0  0
  183.2930  178.8510  143.7480 C   0  0  0  0  0  0  0  0  0  0  0  0
  185.9640  178.2270  144.3200 C   0  0  0  0  0  3  0  0  0  0  0  0
  185.5400  178.6400  146.6290 F   0  0  0  0  0  0  0  0  0  0  0  0
  184.1690  178.4830  142.6980 C   0  0  0  0  0  0  0  0  0  0  0  0
  183.7610  178.9040  145.0640 C   0  0  0  0  0  3  0  0  0  0  0  0
  185.5080  178.1730  143.0000 C   0  0  0  0  0  3  0  0  0  0  0  0
  184.4960  178.0840  140.3010 C   0  0  0  0  0  3  0  0  0  0  0  0
  183.6710  178.4340  141.3810 C   0  0  0  0  0  0  0  0  0  0  0  0
  181.4920  179.1070  142.2200 C   0  0  0  0  0  3  0  0  0  0  0  0
  181.7920  178.7030  139.8300 C   0  0  0  0  0  0  0  0  0  0  0  0
  182.6400  178.3430  138.7720 C   0  0  0  0  0  3  0  0  0  0  0  0
  181.9930  179.1510  143.4820 N   0  0  0  0  0  0  0  0  0  0  0  0
  184.8780  177.6880  137.8680 C   0  0  0  0  0  2  0  0  0  0  0  0
  186.1230  178.5580  137.9010 C   0  0  0  0  0  2  0  0  0  0  0  0
  186.9200  177.0490  135.8300 O   0  0  0  0  0  0  0  0  0  0  0  0
  187.4560  177.7410  137.0520 S   0  0  0  0  0  0  0  0  0  0  0  0
  188.4910  178.7500  136.6430 O   0  0  0  0  0  0  0  0  0  0  0  0
  188.1950  176.5440  138.1440 C   0  0  0  0  0  2  0  0  0  0  0  0
  189.3470  177.1320  138.8080 N   0  0  0  0  0  0  0  0  0  0  0  0
  191.5530  177.4400  140.5000 C   0  0  0  0  0  2  0  0  0  0  0  0
  190.2970  176.8420  141.1340 C   0  0  2  0  0  3  0  0  0  0  0  0
  190.4940  176.2780  138.4970 C   0  0  0  0  0  2  0  0  0  0  0  0
  189.0560  177.1590  140.2550 C   0  0  1  0  0  3  0  0  0  0  0  0
  188.4490  178.5140  140.6030 C   0  0  0  0  0  1  0  0  0  0  0  0
  191.7750  176.8660  139.0940 C   0  0  0  0  0  2  0  0  0  0  0  0
  190.1490  177.2260  142.6120 C   0  0  2  0  0  3  0  0  0  0  0  0
  191.4120  176.5570  144.4370 C   0  0  0  0  0  0  0  0  0  0  0  0
  191.7650  177.8730  144.1110 N   0  0  0  0  0  0  0  0  0  0  0  0
  191.9100  175.9280  145.4050 O   0  0  0  0  0  0  0  0  0  0  0  0
  191.0890  178.3090  142.9660 N   0  0  0  0  0  0  0  0  0  0  0  0
  190.4180  176.0140  143.5150 C   0  0  0  0  0  2  0  0  0  0  0  0
  180.4190  179.0540  139.5850 N   0  0  0  0  0  2  0  0  0  0  0  0
  179.9530  180.1550  138.7370 C   0  0  2  0  0  3  0  0  0  0  0  0
  180.1250  179.8010  137.2720 C   0  0  0  0  0  1  0  0  0  0  0  0
  180.6620  181.3910  139.0440 N   0  0  0  0  0  2  0  0  0  0  0  0
  181.0420  182.0090  137.7810 C   0  0  0  0  0  2  0  0  0  0  0  0
  180.3650  183.3640  137.6340 C   0  0  0  0  0  2  0  0  0  0  0  0
  182.5740  184.5400  137.7020 O   0  0  0  0  0  1  0  0  0  0  0  0
  181.3250  184.3850  137.1120 C   0  0  0  0  0  0  0  0  0  0  0  0
  181.0140  185.0890  136.1190 O   0  0  0  0  0  0  0  0  0  0  0  0
  1  6  1  0  0  0  0
  2 11  1  0  0  0  0
  2 12  1  0  0  0  0
  3 10  1  0  0  0  0
  4  8  2  0  0  0  0
  5  1  2  0  0  0  0
  7  9  2  0  0  0  0
  7  4  1  0  0  0  0
  8  1  1  0  0  0  0
  9  5  1  0  0  0  0
 10 11  2  0  0  0  0
 11  7  1  0  0  0  0
 12 15  2  0  0  0  0
 13  2  2  0  0  0  0
 14  3  2  0  0  0  0
 14 13  1  0  0  0  0
 15  4  1  0  0  0  0
 16 17  1  0  0  0  0
 16  3  1  0  0  0  0
 18 19  2  0  0  0  0
 19 17  1  0  0  0  0
 19 21  1  0  0  0  0
 20 19  2  0  0  0  0
 21 22  1  0  0  0  0
 22 26  1  0  0  0  0
 24 23  1  6  0  0  0
 24 29  1  0  0  0  0
 25 22  1  0  0  0  0
 25 28  1  0  0  0  0
 26 27  1  1  0  0  0
 26 24  1  0  0  0  0
 28 23  1  0  0  0  0
 29 33  1  0  0  0  0
 29 34  1  1  0  0  0
 30 32  2  0  0  0  0
 31 30  1  0  0  0  0
 33 31  2  0  0  0  0
 34 30  1  0  0  0  0
 35 13  1  0  0  0  0
 36 37  1  6  0  0  0
 36 38  1  0  0  0  0
 36 35  1  0  0  0  0
 39 38  1  0  0  0  0
 40 39  1  0  0  0  0
 42 40  1  0  0  0  0
 42 41  1  0  0  0  0
 43 42  2  0  0  0  0
M  END
>  <MODEL>
3

>  <REMARK>
 VINA RESULT:      -8.9      3.848      7.876
  Name = 
  12 active torsions:
  status: ('A' for Active; 'I' for Inactive)
    1  A    between atoms: C_1  and  N_9
    2  A    between atoms: C_1  and  N_35
    3  A    between atoms: C_2  and  C_6
    4  A    between atoms: C_2  and  C_13
    5  A    between atoms: C_3  and  N_4
    6  A    between atoms: C_3  and  S_12
    7  A    between atoms: C_6  and  S_12
    8  A    between atoms: N_9  and  C_32
    9  A    between atoms: C_11  and  C_14
   10  A    between atoms: C_25  and  C_32
   11  A    between atoms: C_25  and  C_37
   12  A    between atoms: C_34  and  N_35
                            x       y       z     vdW  Elec       q    Type
                         _______ _______ _______ _____ _____    ______ ____

>  <TORSDO>
F 12

$$$$
=
 OpenBabel11052416253D

 43 47  0  0  1  0  0  0  0  0999 V2000
  191.1240  176.7550  147.2210 C   0  0  0  0  0  0  0  0  0  0  0  0
  187.2810  177.6710  144.0760 C   0  0  0  0  0  0  0  0  0  0  0  0
  188.3670  178.0480  141.5160 C   0  0  0  0  0  0  0  0  0  0  0  0
  188.9320  177.1330  146.2590 C   0  0  0  0  0  0  0  0  0  0  0  0
  191.7120  176.9300  145.9650 C   0  0  0  0  0  3  0  0  0  0  0  0
  191.9000  176.4810  148.2980 F   0  0  0  0  0  0  0  0  0  0  0  0
  189.5190  177.3140  144.9830 C   0  0  0  0  0  0  0  0  0  0  0  0
  189.7370  176.8570  147.3680 C   0  0  0  0  0  3  0  0  0  0  0  0
  190.9150  177.2090  144.8500 C   0  0  0  0  0  3  0  0  0  0  0  0
  189.2110  177.7840  142.5960 C   0  0  0  0  0  3  0  0  0  0  0  0
  188.6830  177.5870  143.8820 C   0  0  0  0  0  0  0  0  0  0  0  0
  186.7600  177.4850  145.3630 C   0  0  0  0  0  3  0  0  0  0  0  0
  186.4300  177.9430  142.9870 C   0  0  0  0  0  0  0  0  0  0  0  0
  186.9870  178.1270  141.7120 C   0  0  0  0  0  3  0  0  0  0  0  0
  187.5830  177.2250  146.4120 N   0  0  0  0  0  0  0  0  0  0  0  0
  188.9470  178.2800  140.1660 C   0  0  0  0  0  2  0  0  0  0  0  0
  188.2490  177.4030  139.1400 C   0  0  0  0  0  2  0  0  0  0  0  0
  189.0470  179.4760  137.6360 O   0  0  0  0  0  0  0  0  0  0  0  0
  188.4100  178.1190  137.5200 S   0  0  0  0  0  0  0  0  0  0  0  0
  189.2660  177.2350  136.6580 O   0  0  0  0  0  0  0  0  0  0  0  0
  186.7950  178.2750  136.7880 C   0  0  0  0  0  2  0  0  0  0  0  0
  185.8580  177.4030  137.4770 N   0  0  0  0  0  0  0  0  0  0  0  0
  183.5300  175.9790  138.0900 C   0  0  0  0  0  2  0  0  0  0  0  0
  183.3370  177.4380  137.6770 C   0  0  2  0  0  3  0  0  0  0  0  0
  185.5260  176.3230  136.5470 C   0  0  0  0  0  2  0  0  0  0  0  0
  184.6740  178.2140  137.8260 C   0  0  1  0  0  3  0  0  0  0  0  0
  184.8580  178.7570  139.2400 C   0  0  0  0  0  1  0  0  0  0  0  0
  184.5990  175.3060  137.2190 C   0  0  0  0  0  2  0  0  0  0  0  0
  182.1380  178.0900  138.3770 C   0  0  2  0  0  3  0  0  0  0  0  0
  180.1510  178.8660  137.4690 C   0  0  0  0  0  0  0  0  0  0  0  0
  179.8960  177.6530  138.1220 N   0  0  0  0  0  0  0  0  0  0  0  0
  179.2590  179.5450  136.9000 O   0  0  0  0  0  0  0  0  0  0  0  0
  181.0760  177.0950  138.6270 N   0  0  0  0  0  0  0  0  0  0  0  0
  181.5650  179.2280  137.5210 C   0  0  0  0  0  2  0  0  0  0  0  0
  185.0110  178.0590  143.1930 N   0  0  0  0  0  2  0  0  0  0  0  0
  184.2720  179.3100  143.3850 C   0  0  2  0  0  3  0  0  0  0  0  0
  183.7030  179.3760  144.7900 C   0  0  0  0  0  1  0  0  0  0  0  0
  183.2040  179.4450  142.4020 N   0  0  0  0  0  2  0  0  0  0  0  0
  181.9890  178.8960  142.9890 C   0  0  0  0  0  2  0  0  0  0  0  0
  180.9450  178.6570  141.9070 C   0  0  0  0  0  2  0  0  0  0  0  0
  179.2000  179.9530  140.6660 O   0  0  0  0  0  0  0  0  0  0  0  0
  180.0530  179.8480  141.7580 C   0  0  0  0  0  0  0  0  0  0  0  0
  180.0520  180.7470  142.6370 O   0  0  0  0  0  1  0  0  0  0  0  0
  1  8  1  0  0  0  0
  1  6  1  0  0  0  0
  2 12  1  0  0  0  0
  3 14  2  0  0  0  0
  3 10  1  0  0  0  0
  4 15  1  0  0  0  0
  4  8  2  0  0  0  0
  5  1  2  0  0  0  0
  7  4  1  0  0  0  0
  9  7  2  0  0  0  0
  9  5  1  0  0  0  0
 10 11  2  0  0  0  0
 11  2  1  0  0  0  0
 11  7  1  0  0  0  0
 12 15  2  0  0  0  0
 13 35  1  0  0  0  0
 13  2  2  0  0  0  0
 14 13  1  0  0  0  0
 16  3  1  0  0  0  0
 17 16  1  0  0  0  0
 19 18  2  0  0  0  0
 19 17  1  0  0  0  0
 20 19  2  0  0  0  0
 21 22  1  0  0  0  0
 21 19  1  0  0  0  0
 22 26  1  0  0  0  0
 24 26  1  0  0  0  0
 24 23  1  1  0  0  0
 24 29  1  0  0  0  0
 25 28  1  0  0  0  0
 25 22  1  0  0  0  0
 26 27  1  1  0  0  0
 28 23  1  0  0  0  0
 29 34  1  6  0  0  0
 29 33  1  0  0  0  0
 30 34  1  0  0  0  0
 30 31  1  0  0  0  0
 31 33  2  0  0  0  0
 32 30  2  0  0  0  0
 35 36  1  0  0  0  0
 36 37  1  1  0  0  0
 38 39  1  0  0  0  0
 38 36  1  0  0  0  0
 40 39  1  0  0  0  0
 41 42  2  0  0  0  0
 42 40  1  0  0  0  0
 42 43  1  0  0  0  0
M  END
>  <MODEL>
4

>  <REMARK>
 VINA RESULT:      -8.8      4.499      8.680
  Name = 
  12 active torsions:
  status: ('A' for Active; 'I' for Inactive)
    1  A    between atoms: C_1  and  N_9
    2  A    between atoms: C_1  and  N_35
    3  A    between atoms: C_2  and  C_6
    4  A    between atoms: C_2  and  C_13
    5  A    between atoms: C_3  and  N_4
    6  A    between atoms: C_3  and  S_12
    7  A    between atoms: C_6  and  S_12
    8  A    between atoms: N_9  and  C_32
    9  A    between atoms: C_11  and  C_14
   10  A    between atoms: C_25  and  C_32
   11  A    between atoms: C_25  and  C_37
   12  A    between atoms: C_34  and  N_35
                            x       y       z     vdW  Elec       q    Type
                         _______ _______ _______ _____ _____    ______ ____

>  <TORSDO>
F 12

$$$$
=
 OpenBabel11052416253D

 43 47  0  0  1  0  0  0  0  0999 V2000
  186.9370  178.2330  147.5830 C   0  0  0  0  0  0  0  0  0  0  0  0
  184.1070  178.8070  143.4400 C   0  0  0  0  0  0  0  0  0  0  0  0
  185.7830  178.4220  141.2230 C   0  0  0  0  0  0  0  0  0  0  0  0
  185.1130  178.6230  146.0350 C   0  0  0  0  0  0  0  0  0  0  0  0
  187.8100  178.0270  146.5110 C   0  0  0  0  0  3  0  0  0  0  0  0
  187.3950  178.1380  148.8550 F   0  0  0  0  0  0  0  0  0  0  0  0
  185.9910  178.4180  144.9440 C   0  0  0  0  0  0  0  0  0  0  0  0
  185.5920  178.5300  147.3460 C   0  0  0  0  0  3  0  0  0  0  0  0
  187.3420  178.1210  145.1970 C   0  0  0  0  0  3  0  0  0  0  0  0
  186.3070  178.3290  142.5130 C   0  0  0  0  0  3  0  0  0  0  0  0
  185.4810  178.5140  143.6330 C   0  0  0  0  0  0  0  0  0  0  0  0
  183.2890  179.0010  144.5610 C   0  0  0  0  0  3  0  0  0  0  0  0
  183.5790  178.9060  142.1380 C   0  0  0  0  0  0  0  0  0  0  0  0
  184.4280  178.7090  141.0390 C   0  0  0  0  0  3  0  0  0  0  0  0
  183.8010  178.9070  145.8170 N   0  0  0  0  0  0  0  0  0  0  0  0
  186.6790  178.2500  140.0480 C   0  0  0  0  0  2  0  0  0  0  0  0
  188.1170  178.5390  140.4410 C   0  0  0  0  0  2  0  0  0  0  0  0
  188.4170  176.4230  138.8190 O   0  0  0  0  0  0  0  0  0  0  0  0
  189.2180  177.4690  139.5430 S   0  0  0  0  0  0  0  0  0  0  0  0
  190.0080  178.2720  138.5490 O   0  0  0  0  0  0  0  0  0  0  0  0
  190.3320  176.6840  140.6890 C   0  0  0  0  0  2  0  0  0  0  0  0
  190.2870  177.3750  141.9670 N   0  0  0  0  0  0  0  0  0  0  0  0
  191.0080  178.2680  144.5180 C   0  0  0  0  0  2  0  0  0  0  0  0
  191.1770  176.7720  144.2570 C   0  0  2  0  0  3  0  0  0  0  0  0
  191.4570  178.2540  142.0120 C   0  0  0  0  0  2  0  0  0  0  0  0
  190.3280  176.3480  143.0260 C   0  0  1  0  0  3  0  0  0  0  0  0
  188.8960  176.0010  143.4210 C   0  0  0  0  0  1  0  0  0  0  0  0
  191.4520  179.0850  143.2970 C   0  0  0  0  0  2  0  0  0  0  0  0
  190.9440  175.9280  145.5160 C   0  0  2  0  0  3  0  0  0  0  0  0
  192.3180  175.6300  147.3590 C   0  0  0  0  0  0  0  0  0  0  0  0
  191.2730  176.4900  147.7200 N   0  0  0  0  0  0  0  0  0  0  0  0
  193.2130  175.2570  148.1600 O   0  0  0  0  0  0  0  0  0  0  0  0
  190.4490  176.7700  146.6230 N   0  0  0  0  0  0  0  0  0  0  0  0
  192.2440  175.2390  145.9530 C   0  0  0  0  0  2  0  0  0  0  0  0
  182.1930  179.2350  141.9460 N   0  0  0  0  0  2  0  0  0  0  0  0
  181.3890  178.9100  140.7640 C   0  0  2  0  0  3  0  0  0  0  0  0
  180.1440  179.7770  140.7180 C   0  0  0  0  0  1  0  0  0  0  0  0
  181.0210  177.4990  140.7510 N   0  0  0  0  0  2  0  0  0  0  0  0
  181.2410  176.9970  139.4020 C   0  0  0  0  0  2  0  0  0  0  0  0
  182.4740  176.1040  139.3690 C   0  0  0  0  0  2  0  0  0  0  0  0
  181.3170  174.9570  137.4680 O   0  0  0  0  0  0  0  0  0  0  0  0
  182.5010  175.2810  138.1200 C   0  0  0  0  0  0  0  0  0  0  0  0
  183.6000  174.9030  137.6410 O   0  0  0  0  0  1  0  0  0  0  0  0
  1  6  1  0  0  0  0
  2 11  1  0  0  0  0
  2 12  1  0  0  0  0
  3 10  1  0  0  0  0
  4  8  2  0  0  0  0
  5  1  2  0  0  0  0
  7  9  2  0  0  0  0
  7  4  1  0  0  0  0
  8  1  1  0  0  0  0
  9  5  1  0  0  0  0
 10 11  2  0  0  0  0
 11  7  1  0  0  0  0
 12 15  2  0  0  0  0
 13  2  2  0  0  0  0
 14  3  2  0  0  0  0
 14 13  1  0  0  0  0
 15  4  1  0  0  0  0
 16 17  1  0  0  0  0
 16  3  1  0  0  0  0
 18 19  2  0  0  0  0
 19 17  1  0  0  0  0
 19 21  1  0  0  0  0
 20 19  2  0  0  0  0
 21 22  1  0  0  0  0
 22 25  1  0  0  0  0
 22 26  1  0  0  0  0
 24 23  1  1  0  0  0
 24 29  1  0  0  0  0
 25 28  1  0  0  0  0
 26 27  1  1  0  0  0
 26 24  1  0  0  0  0
 28 23  1  0  0  0  0
 29 34  1  1  0  0  0
 29 33  1  0  0  0  0
 30 31  1  0  0  0  0
 30 32  2  0  0  0  0
 33 31  2  0  0  0  0
 34 30  1  0  0  0  0
 35 13  1  0  0  0  0
 36 37  1  1  0  0  0
 36 35  1  0  0  0  0
 38 36  1  0  0  0  0
 39 38  1  0  0  0  0
 40 39  1  0  0  0  0
 41 42  2  0  0  0  0
 42 40  1  0  0  0  0
 43 42  1  0  0  0  0
M  END
>  <MODEL>
5

>  <REMARK>
 VINA RESULT:      -8.7      3.686      7.519
  Name = 
  12 active torsions:
  status: ('A' for Active; 'I' for Inactive)
    1  A    between atoms: C_1  and  N_9
    2  A    between atoms: C_1  and  N_35
    3  A    between atoms: C_2  and  C_6
    4  A    between atoms: C_2  and  C_13
    5  A    between atoms: C_3  and  N_4
    6  A    between atoms: C_3  and  S_12
    7  A    between atoms: C_6  and  S_12
    8  A    between atoms: N_9  and  C_32
    9  A    between atoms: C_11  and  C_14
   10  A    between atoms: C_25  and  C_32
   11  A    between atoms: C_25  and  C_37
   12  A    between atoms: C_34  and  N_35
                            x       y       z     vdW  Elec       q    Type
                         _______ _______ _______ _____ _____    ______ ____

>  <TORSDO>
F 12

$$$$
=
 OpenBabel11052416253D

 43 47  0  0  1  0  0  0  0  0999 V2000
  191.1630  176.6750  147.1080 C   0  0  0  0  0  0  0  0  0  0  0  0
  187.1420  177.7700  144.2560 C   0  0  0  0  0  0  0  0  0  0  0  0
  188.0720  178.2710  141.6570 C   0  0  0  0  0  0  0  0  0  0  0  0
  188.9190  177.1130  146.3030 C   0  0  0  0  0  0  0  0  0  0  0  0
  191.6740  176.9100  145.8290 C   0  0  0  0  0  3  0  0  0  0  0  0
  192.0020  176.3420  148.1200 F   0  0  0  0  0  0  0  0  0  0  0  0
  189.4290  177.3550  145.0040 C   0  0  0  0  0  0  0  0  0  0  0  0
  189.7890  176.7760  147.3450 C   0  0  0  0  0  3  0  0  0  0  0  0
  190.8130  177.2500  144.7800 C   0  0  0  0  0  3  0  0  0  0  0  0
  188.9790  177.9480  142.6680 C   0  0  0  0  0  3  0  0  0  0  0  0
  188.5290  177.6890  143.9720 C   0  0  0  0  0  0  0  0  0  0  0  0
  186.7000  177.5220  145.5620 C   0  0  0  0  0  3  0  0  0  0  0  0
  186.2280  178.1020  143.2370 C   0  0  0  0  0  0  0  0  0  0  0  0
  186.7070  178.3480  141.9420 C   0  0  0  0  0  3  0  0  0  0  0  0
  187.5840  177.2040  146.5440 N   0  0  0  0  0  0  0  0  0  0  0  0
  188.5700  178.5680  140.2870 C   0  0  0  0  0  2  0  0  0  0  0  0
  189.6790  177.6010  139.9120 C   0  0  0  0  0  2  0  0  0  0  0  0
  189.1240  178.5600  137.4690 O   0  0  0  0  0  0  0  0  0  0  0  0
  189.6960  177.3490  138.1520 S   0  0  0  0  0  0  0  0  0  0  0  0
  191.1070  177.1290  137.6840 O   0  0  0  0  0  0  0  0  0  0  0  0
  188.7120  175.9180  137.7580 C   0  0  0  0  0  2  0  0  0  0  0  0
  187.5080  176.3300  137.0560 N   0  0  0  0  0  0  0  0  0  0  0  0
  184.8090  176.6360  136.3880 C   0  0  0  0  0  2  0  0  0  0  0  0
  185.2560  175.2200  136.7480 C   0  0  2  0  0  3  0  0  0  0  0  0
  186.7170  177.1180  138.0030 C   0  0  0  0  0  2  0  0  0  0  0  0
  186.8020  175.1050  136.6330 C   0  0  1  0  0  3  0  0  0  0  0  0
  187.2380  174.7590  135.2130 C   0  0  0  0  0  1  0  0  0  0  0  0
  185.4580  177.6640  137.3240 C   0  0  0  0  0  2  0  0  0  0  0  0
  184.4770  174.1460  135.9790 C   0  0  2  0  0  3  0  0  0  0  0  0
  182.7460  172.7840  136.7040 C   0  0  0  0  0  0  0  0  0  0  0  0
  182.2090  173.7870  135.8860 N   0  0  0  0  0  0  0  0  0  0  0  0
  182.0530  171.8750  137.2270 O   0  0  0  0  0  0  0  0  0  0  0  0
  183.1980  174.6890  135.4780 N   0  0  0  0  0  0  0  0  0  0  0  0
  184.1880  172.9370  136.8790 C   0  0  0  0  0  2  0  0  0  0  0  0
  184.8260  178.2150  143.5360 N   0  0  0  0  0  2  0  0  0  0  0  0
  183.8210  178.8760  142.6990 C   0  0  2  0  0  3  0  0  0  0  0  0
  182.5390  179.0900  143.4830 C   0  0  0  0  0  1  0  0  0  0  0  0
  183.5500  178.1020  141.4930 N   0  0  0  0  0  2  0  0  0  0  0  0
  182.3330  178.6300  140.8920 C   0  0  0  0  0  2  0  0  0  0  0  0
  182.4960  178.7310  139.3810 C   0  0  0  0  0  2  0  0  0  0  0  0
  184.2280  180.4710  138.8940 O   0  0  0  0  0  1  0  0  0  0  0  0
  182.8870  180.1180  138.9810 C   0  0  0  0  0  0  0  0  0  0  0  0
  182.0010  180.9630  138.6940 O   0  0  0  0  0  0  0  0  0  0  0  0
  1  8  1  0  0  0  0
  1  6  1  0  0  0  0
  2 12  1  0  0  0  0
  3 14  2  0  0  0  0
  3 10  1  0  0  0  0
  4 15  1  0  0  0  0
  4  8  2  0  0  0  0
  5  1  2  0  0  0  0
  7  4  1  0  0  0  0
  9  7  2  0  0  0  0
  9  5  1  0  0  0  0
 10 11  2  0  0  0  0
 11  2  1  0  0  0  0
 11  7  1  0  0  0  0
 12 15  2  0  0  0  0
 13 35  1  0  0  0  0
 13  2  2  0  0  0  0
 14 13  1  0  0  0  0
 16  3  1  0  0  0  0
 17 16  1  0  0  0  0
 18 19  2  0  0  0  0
 19 17  1  0  0  0  0
 20 19  2  0  0  0  0
 21 19  1  0  0  0  0
 22 21  1  0  0  0  0
 22 25  1  0  0  0  0
 23 28  1  0  0  0  0
 24 23  1  6  0  0  0
 26 27  1  6  0  0  0
 26 24  1  0  0  0  0
 26 22  1  0  0  0  0
 28 25  1  0  0  0  0
 29 24  1  0  0  0  0
 29 34  1  1  0  0  0
 30 34  1  0  0  0  0
 30 32  2  0  0  0  0
 31 30  1  0  0  0  0
 33 31  2  0  0  0  0
 33 29  1  0  0  0  0
 36 37  1  1  0  0  0
 36 35  1  0  0  0  0
 38 36  1  0  0  0  0
 39 38  1  0  0  0  0
 40 39  1  0  0  0  0
 41 42  1  0  0  0  0
 42 40  1  0  0  0  0
 43 42  2  0  0  0  0
M  END
>  <MODEL>
6

>  <REMARK>
 VINA RESULT:      -8.5      4.015      7.676
  Name = 
  12 active torsions:
  status: ('A' for Active; 'I' for Inactive)
    1  A    between atoms: C_1  and  N_9
    2  A    between atoms: C_1  and  N_35
    3  A    between atoms: C_2  and  C_6
    4  A    between atoms: C_2  and  C_13
    5  A    between atoms: C_3  and  N_4
    6  A    between atoms: C_3  and  S_12
    7  A    between atoms: C_6  and  S_12
    8  A    between atoms: N_9  and  C_32
    9  A    between atoms: C_11  and  C_14
   10  A    between atoms: C_25  and  C_32
   11  A    between atoms: C_25  and  C_37
   12  A    between atoms: C_34  and  N_35
                            x       y       z     vdW  Elec       q    Type
                         _______ _______ _______ _____ _____    ______ ____

>  <TORSDO>
F 12

$$$$
=
 OpenBabel11052416253D

 43 47  0  0  1  0  0  0  0  0999 V2000
  182.9140  178.8480  143.9050 C   0  0  0  0  0  0  0  0  0  0  0  0
  187.7930  177.6530  143.3910 C   0  0  0  0  0  0  0  0  0  0  0  0
  188.4750  178.0600  140.6990 C   0  0  0  0  0  0  0  0  0  0  0  0
  185.2000  178.1410  144.2930 C   0  0  0  0  0  0  0  0  0  0  0  0
  183.2060  179.0700  142.5560 C   0  0  0  0  0  3  0  0  0  0  0  0
  181.6650  179.0880  144.3740 F   0  0  0  0  0  0  0  0  0  0  0  0
  185.5030  178.3620  142.9280 C   0  0  0  0  0  0  0  0  0  0  0  0
  183.9080  178.3840  144.7710 C   0  0  0  0  0  3  0  0  0  0  0  0
  184.4930  178.8280  142.0670 C   0  0  0  0  0  3  0  0  0  0  0  0
  187.1700  178.3060  141.1300 C   0  0  0  0  0  3  0  0  0  0  0  0
  186.8140  178.1130  142.4740 C   0  0  0  0  0  0  0  0  0  0  0  0
  187.4300  177.4520  144.7290 C   0  0  0  0  0  3  0  0  0  0  0  0
  189.1090  177.4000  142.9550 C   0  0  0  0  0  0  0  0  0  0  0  0
  189.4360  177.6090  141.6070 C   0  0  0  0  0  3  0  0  0  0  0  0
  186.1600  177.6950  145.1460 N   0  0  0  0  0  0  0  0  0  0  0  0
  188.8260  178.2450  139.2660 C   0  0  0  0  0  2  0  0  0  0  0  0
  187.9980  177.3110  138.4000 C   0  0  0  0  0  2  0  0  0  0  0  0
  187.9350  179.4950  136.8430 O   0  0  0  0  0  0  0  0  0  0  0  0
  187.8150  177.9990  136.7700 S   0  0  0  0  0  0  0  0  0  0  0  0
  188.8830  177.4530  135.8660 O   0  0  0  0  0  0  0  0  0  0  0  0
  186.2140  177.5570  136.1270 C   0  0  0  0  0  2  0  0  0  0  0  0
  185.5910  176.5740  136.9990 N   0  0  0  0  0  0  0  0  0  0  0  0
  183.8050  174.6500  137.9640 C   0  0  0  0  0  2  0  0  0  0  0  0
  183.1780  175.8980  137.3440 C   0  0  2  0  0  3  0  0  0  0  0  0
  185.5870  175.3060  136.2670 C   0  0  0  0  0  2  0  0  0  0  0  0
  184.2220  177.0470  137.2900 C   0  0  1  0  0  3  0  0  0  0  0  0
  184.2520  177.8450  138.5900 C   0  0  0  0  0  1  0  0  0  0  0  0
  185.0160  174.1870  137.1420 C   0  0  0  0  0  2  0  0  0  0  0  0
  181.8470  176.2750  138.0080 C   0  0  2  0  0  3  0  0  0  0  0  0
  180.0230  174.9350  138.5070 C   0  0  0  0  0  0  0  0  0  0  0  0
  180.7140  175.2050  139.6960 N   0  0  0  0  0  0  0  0  0  0  0  0
  178.9690  174.2520  138.4610 O   0  0  0  0  0  0  0  0  0  0  0  0
  181.8730  175.9500  139.4480 N   0  0  0  0  0  0  0  0  0  0  0  0
  180.6820  175.5280  137.3460 C   0  0  0  0  0  2  0  0  0  0  0  0
  190.0900  176.9030  143.8810 N   0  0  0  0  0  2  0  0  0  0  0  0
  190.7320  177.6760  144.9490 C   0  0  2  0  0  3  0  0  0  0  0  0
  191.7070  178.6790  144.3610 C   0  0  0  0  0  1  0  0  0  0  0  0
  191.4170  176.8000  145.8920 N   0  0  0  0  0  2  0  0  0  0  0  0
  190.9300  177.1200  147.2270 C   0  0  0  0  0  2  0  0  0  0  0  0
  189.4690  176.7130  147.3650 C   0  0  0  0  0  2  0  0  0  0  0  0
  189.2920  178.9690  148.4360 O   0  0  0  0  0  1  0  0  0  0  0  0
  188.6910  177.7650  148.0900 C   0  0  0  0  0  0  0  0  0  0  0  0
  187.4790  177.5720  148.3630 O   0  0  0  0  0  0  0  0  0  0  0  0
  1  6  1  0  0  0  0
  1  8  1  0  0  0  0
  2 12  1  0  0  0  0
  3 10  2  0  0  0  0
  3 14  1  0  0  0  0
  4  8  2  0  0  0  0
  4 15  1  0  0  0  0
  5  1  2  0  0  0  0
  7  4  1  0  0  0  0
  9  5  1  0  0  0  0
  9  7  2  0  0  0  0
 10 11  1  0  0  0  0
 11  7  1  0  0  0  0
 11  2  2  0  0  0  0
 12 15  2  0  0  0  0
 13  2  1  0  0  0  0
 13 35  1  0  0  0  0
 14 13  2  0  0  0  0
 16  3  1  0  0  0  0
 17 16  1  0  0  0  0
 19 18  2  0  0  0  0
 19 17  1  0  0  0  0
 20 19  2  0  0  0  0
 21 19  1  0  0  0  0
 21 22  1  0  0  0  0
 22 26  1  0  0  0  0
 24 23  1  1  0  0  0
 24 29  1  0  0  0  0
 25 22  1  0  0  0  0
 25 28  1  0  0  0  0
 26 24  1  0  0  0  0
 26 27  1  1  0  0  0
 28 23  1  0  0  0  0
 29 34  1  6  0  0  0
 29 33  1  0  0  0  0
 30 31  1  0  0  0  0
 32 30  2  0  0  0  0
 33 31  2  0  0  0  0
 34 30  1  0  0  0  0
 35 36  1  0  0  0  0
 36 37  1  6  0  0  0
 36 38  1  0  0  0  0
 38 39  1  0  0  0  0
 39 40  1  0  0  0  0
 40 42  1  0  0  0  0
 42 43  2  0  0  0  0
 42 41  1  0  0  0  0
M  END
>  <MODEL>
7

>  <REMARK>
 VINA RESULT:      -8.5      3.731      6.517
  Name = 
  12 active torsions:
  status: ('A' for Active; 'I' for Inactive)
    1  A    between atoms: C_1  and  N_9
    2  A    between atoms: C_1  and  N_35
    3  A    between atoms: C_2  and  C_6
    4  A    between atoms: C_2  and  C_13
    5  A    between atoms: C_3  and  N_4
    6  A    between atoms: C_3  and  S_12
    7  A    between atoms: C_6  and  S_12
    8  A    between atoms: N_9  and  C_32
    9  A    between atoms: C_11  and  C_14
   10  A    between atoms: C_25  and  C_32
   11  A    between atoms: C_25  and  C_37
   12  A    between atoms: C_34  and  N_35
                            x       y       z     vdW  Elec       q    Type
                         _______ _______ _______ _____ _____    ______ ____

>  <TORSDO>
F 12

$$$$
=
 OpenBabel11052416253D

 43 47  0  0  1  0  0  0  0  0999 V2000
  190.5710  176.7490  146.7610 C   0  0  0  0  0  0  0  0  0  0  0  0
  189.6810  177.6840  141.8790 C   0  0  0  0  0  0  0  0  0  0  0  0
  187.0410  178.6120  141.6730 C   0  0  0  0  0  0  0  0  0  0  0  0
  190.7570  176.9870  144.3560 C   0  0  0  0  0  0  0  0  0  0  0  0
  189.2530  177.2110  146.7110 C   0  0  0  0  0  3  0  0  0  0  0  0
  191.1240  176.4140  147.9530 F   0  0  0  0  0  0  0  0  0  0  0  0
  189.4220  177.4540  144.2960 C   0  0  0  0  0  0  0  0  0  0  0  0
  191.3210  176.6370  145.5870 C   0  0  0  0  0  3  0  0  0  0  0  0
  188.6780  177.5620  145.4850 C   0  0  0  0  0  3  0  0  0  0  0  0
  187.5590  178.2640  142.9220 C   0  0  0  0  0  3  0  0  0  0  0  0
  188.8800  177.8040  143.0430 C   0  0  0  0  0  0  0  0  0  0  0  0
  190.9950  177.2130  142.0040 C   0  0  0  0  0  3  0  0  0  0  0  0
  189.1570  178.0300  140.6180 C   0  0  0  0  0  0  0  0  0  0  0  0
  187.8360  178.4940  140.5310 C   0  0  0  0  0  3  0  0  0  0  0  0
  191.4980  176.8790  143.2210 N   0  0  0  0  0  0  0  0  0  0  0  0
  185.6310  179.0730  141.5610 C   0  0  0  0  0  2  0  0  0  0  0  0
  184.6840  177.9650  141.9910 C   0  0  0  0  0  2  0  0  0  0  0  0
  182.7060  176.8150  140.5910 O   0  0  0  0  0  0  0  0  0  0  0  0
  183.1240  178.1440  141.1560 S   0  0  0  0  0  0  0  0  0  0  0  0
  182.0820  178.6270  142.1250 O   0  0  0  0  0  0  0  0  0  0  0  0
  183.3000  179.3280  139.8380 C   0  0  0  0  0  2  0  0  0  0  0  0
  182.1620  179.2310  138.9380 N   0  0  0  0  0  0  0  0  0  0  0  0
  180.5190  179.5930  136.7040 C   0  0  0  0  0  2  0  0  0  0  0  0
  181.1770  180.8530  137.2650 C   0  0  2  0  0  3  0  0  0  0  0  0
  182.6570  178.6310  137.6980 C   0  0  0  0  0  2  0  0  0  0  0  0
  181.6510  180.6000  138.7230 C   0  0  1  0  0  3  0  0  0  0  0  0
  180.5400  180.8660  139.7330 C   0  0  0  0  0  1  0  0  0  0  0  0
  181.5050  178.4170  136.7120 C   0  0  0  0  0  2  0  0  0  0  0  0
  180.3020  182.1000  137.0860 C   0  0  2  0  0  3  0  0  0  0  0  0
  180.7630  184.0660  135.9470 C   0  0  0  0  0  0  0  0  0  0  0  0
  179.8710  183.3060  135.1780 N   0  0  0  0  0  0  0  0  0  0  0  0
  181.1780  185.2010  135.6030 O   0  0  0  0  0  0  0  0  0  0  0  0
  179.6130  182.0690  135.7800 N   0  0  0  0  0  0  0  0  0  0  0  0
  181.1520  183.3750  137.1740 C   0  0  0  0  0  2  0  0  0  0  0  0
  189.9620  177.8760  139.4370 N   0  0  0  0  0  2  0  0  0  0  0  0
  189.8100  176.8260  138.4260 C   0  0  2  0  0  3  0  0  0  0  0  0
  190.8810  175.7650  138.6010 C   0  0  0  0  0  1  0  0  0  0  0  0
  189.8670  177.3810  137.0790 N   0  0  0  0  0  2  0  0  0  0  0  0
  189.0270  178.5710  137.0540 C   0  0  0  0  0  2  0  0  0  0  0  0
  187.7770  178.3140  136.2250 C   0  0  0  0  0  2  0  0  0  0  0  0
  186.0570  179.0030  137.9080 O   0  0  0  0  0  1  0  0  0  0  0  0
  186.6070  178.0100  137.1070 C   0  0  0  0  0  0  0  0  0  0  0  0
  186.1010  176.8590  137.1040 O   0  0  0  0  0  0  0  0  0  0  0  0
  1  6  1  0  0  0  0
  2 12  1  0  0  0  0
  2 11  1  0  0  0  0
  3 10  1  0  0  0  0
  4  8  1  0  0  0  0
  5  1  1  0  0  0  0
  7  4  2  0  0  0  0
  7  9  1  0  0  0  0
  8  1  2  0  0  0  0
  9  5  2  0  0  0  0
 10 11  2  0  0  0  0
 11  7  1  0  0  0  0
 12 15  2  0  0  0  0
 13  2  2  0  0  0  0
 14 13  1  0  0  0  0
 14  3  2  0  0  0  0
 15  4  1  0  0  0  0
 16  3  1  0  0  0  0
 16 17  1  0  0  0  0
 18 19  2  0  0  0  0
 19 17  1  0  0  0  0
 19 20  2  0  0  0  0
 21 19  1  0  0  0  0
 22 21  1  0  0  0  0
 23 28  1  0  0  0  0
 24 23  1  1  0  0  0
 24 26  1  0  0  0  0
 25 22  1  0  0  0  0
 26 22  1  0  0  0  0
 26 27  1  1  0  0  0
 28 25  1  0  0  0  0
 29 34  1  6  0  0  0
 29 24  1  0  0  0  0
 30 34  1  0  0  0  0
 31 33  2  0  0  0  0
 31 30  1  0  0  0  0
 32 30  2  0  0  0  0
 33 29  1  0  0  0  0
 35 13  1  0  0  0  0
 36 37  1  6  0  0  0
 36 35  1  0  0  0  0
 38 36  1  0  0  0  0
 39 38  1  0  0  0  0
 40 39  1  0  0  0  0
 40 42  1  0  0  0  0
 42 41  1  0  0  0  0
 43 42  2  0  0  0  0
M  END
>  <MODEL>
8

>  <REMARK>
 VINA RESULT:      -8.4      4.924      9.988
  Name = 
  12 active torsions:
  status: ('A' for Active; 'I' for Inactive)
    1  A    between atoms: C_1  and  N_9
    2  A    between atoms: C_1  and  N_35
    3  A    between atoms: C_2  and  C_6
    4  A    between atoms: C_2  and  C_13
    5  A    between atoms: C_3  and  N_4
    6  A    between atoms: C_3  and  S_12
    7  A    between atoms: C_6  and  S_12
    8  A    between atoms: N_9  and  C_32
    9  A    between atoms: C_11  and  C_14
   10  A    between atoms: C_25  and  C_32
   11  A    between atoms: C_25  and  C_37
   12  A    between atoms: C_34  and  N_35
                            x       y       z     vdW  Elec       q    Type
                         _______ _______ _______ _____ _____    ______ ____

>  <TORSDO>
F 12

$$$$
=
 OpenBabel11052416253D

 43 47  0  0  1  0  0  0  0  0999 V2000
  187.9390  177.7000  145.6520 C   0  0  0  0  0  0  0  0  0  0  0  0
  183.5580  178.6960  143.3470 C   0  0  0  0  0  0  0  0  0  0  0  0
  183.9190  178.1910  140.6110 C   0  0  0  0  0  0  0  0  0  0  0  0
  185.6530  178.3310  145.1520 C   0  0  0  0  0  0  0  0  0  0  0  0
  188.1670  177.4300  144.3000 C   0  0  0  0  0  3  0  0  0  0  0  0
  188.9350  177.5200  146.5540 F   0  0  0  0  0  0  0  0  0  0  0  0
  185.8750  178.0610  143.7800 C   0  0  0  0  0  0  0  0  0  0  0  0
  186.6860  178.1490  146.0770 C   0  0  0  0  0  3  0  0  0  0  0  0
  187.1420  177.6110  143.3660 C   0  0  0  0  0  3  0  0  0  0  0  0
  184.9820  178.0060  141.4970 C   0  0  0  0  0  3  0  0  0  0  0  0
  184.8160  178.2490  142.8690 C   0  0  0  0  0  0  0  0  0  0  0  0
  183.4010  178.9470  144.7170 C   0  0  0  0  0  3  0  0  0  0  0  0
  182.4870  178.8880  142.4530 C   0  0  0  0  0  0  0  0  0  0  0  0
  182.6810  178.6300  141.0870 C   0  0  0  0  0  3  0  0  0  0  0  0
  184.4360  178.7630  145.5780 N   0  0  0  0  0  0  0  0  0  0  0  0
  184.1210  177.9550  139.1560 C   0  0  0  0  0  2  0  0  0  0  0  0
  185.4990  178.4350  138.7350 C   0  0  0  0  0  2  0  0  0  0  0  0
  185.9600  176.0550  137.5850 O   0  0  0  0  0  0  0  0  0  0  0  0
  186.0460  177.5300  137.3050 S   0  0  0  0  0  0  0  0  0  0  0  0
  185.1760  177.8680  136.1280 O   0  0  0  0  0  0  0  0  0  0  0  0
  187.7310  177.9740  136.9430 C   0  0  0  0  0  2  0  0  0  0  0  0
  188.6300  177.2390  137.8170 N   0  0  0  0  0  0  0  0  0  0  0  0
  190.9700  176.3780  139.0850 C   0  0  0  0  0  2  0  0  0  0  0  0
  191.0480  176.5390  137.5670 C   0  0  2  0  0  3  0  0  0  0  0  0
  189.2610  178.2250  138.6970 C   0  0  0  0  0  2  0  0  0  0  0  0
  189.6180  176.5530  136.9600 C   0  0  1  0  0  3  0  0  0  0  0  0
  189.1130  175.1430  136.6710 C   0  0  0  0  0  1  0  0  0  0  0  0
  190.1720  177.5290  139.7120 C   0  0  0  0  0  2  0  0  0  0  0  0
  192.0070  175.5310  136.9200 C   0  0  2  0  0  3  0  0  0  0  0  0
  194.2940  175.6910  136.5780 C   0  0  0  0  0  0  0  0  0  0  0  0
  194.0660  174.8160  137.6480 N   0  0  0  0  0  0  0  0  0  0  0  0
  195.4400  175.9590  136.1370 O   0  0  0  0  0  0  0  0  0  0  0  0
  192.7020  174.7370  137.9530 N   0  0  0  0  0  0  0  0  0  0  0  0
  193.0500  176.2540  136.0580 C   0  0  0  0  0  2  0  0  0  0  0  0
  181.2220  179.3730  142.9360 N   0  0  0  0  0  2  0  0  0  0  0  0
  179.9360  179.2510  142.2450 C   0  0  2  0  0  3  0  0  0  0  0  0
  178.9320  180.2320  142.8230 C   0  0  0  0  0  1  0  0  0  0  0  0
  179.4190  177.8910  142.3320 N   0  0  0  0  0  2  0  0  0  0  0  0
  179.3010  177.3740  140.9750 C   0  0  0  0  0  2  0  0  0  0  0  0
  179.3000  175.8520  140.9920 C   0  0  0  0  0  2  0  0  0  0  0  0
  181.2010  176.0480  139.3750 O   0  0  0  0  0  0  0  0  0  0  0  0
  180.1380  175.3070  139.8790 C   0  0  0  0  0  0  0  0  0  0  0  0
  179.9010  174.1630  139.4160 O   0  0  0  0  0  1  0  0  0  0  0  0
  1  8  1  0  0  0  0
  1  6  1  0  0  0  0
  2 12  1  0  0  0  0
  3 14  2  0  0  0  0
  3 10  1  0  0  0  0
  4 15  1  0  0  0  0
  4  8  2  0  0  0  0
  5  1  2  0  0  0  0
  7  4  1  0  0  0  0
  9  7  2  0  0  0  0
  9  5  1  0  0  0  0
 10 11  2  0  0  0  0
 11  2  1  0  0  0  0
 11  7  1  0  0  0  0
 12 15  2  0  0  0  0
 13 35  1  0  0  0  0
 13  2  2  0  0  0  0
 14 13  1  0  0  0  0
 16  3  1  0  0  0  0
 17 16  1  0  0  0  0
 19 18  2  0  0  0  0
 19 17  1  0  0  0  0
 20 19  2  0  0  0  0
 21 19  1  0  0  0  0
 21 22  1  0  0  0  0
 22 25  1  0  0  0  0
 23 28  1  0  0  0  0
 24 23  1  1  0  0  0
 25 28  1  0  0  0  0
 26 27  1  1  0  0  0
 26 24  1  0  0  0  0
 26 22  1  0  0  0  0
 29 34  1  1  0  0  0
 29 24  1  0  0  0  0
 29 33  1  0  0  0  0
 30 31  1  0  0  0  0
 31 33  2  0  0  0  0
 32 30  2  0  0  0  0
 34 30  1  0  0  0  0
 36 38  1  0  0  0  0
 36 37  1  1  0  0  0
 36 35  1  0  0  0  0
 39 40  1  0  0  0  0
 39 38  1  0  0  0  0
 41 42  2  0  0  0  0
 42 40  1  0  0  0  0
 43 42  1  0  0  0  0
M  END
>  <MODEL>
9

>  <REMARK>
 VINA RESULT:      -8.1      3.247      6.415
  Name = 
  12 active torsions:
  status: ('A' for Active; 'I' for Inactive)
    1  A    between atoms: C_1  and  N_9
    2  A    between atoms: C_1  and  N_35
    3  A    between atoms: C_2  and  C_6
    4  A    between atoms: C_2  and  C_13
    5  A    between atoms: C_3  and  N_4
    6  A    between atoms: C_3  and  S_12
    7  A    between atoms: C_6  and  S_12
    8  A    between atoms: N_9  and  C_32
    9  A    between atoms: C_11  and  C_14
   10  A    between atoms: C_25  and  C_32
   11  A    between atoms: C_25  and  C_37
   12  A    between atoms: C_34  and  N_35
                            x       y       z     vdW  Elec       q    Type
                         _______ _______ _______ _____ _____    ______ ____

>  <TORSDO>
F 12

$$$$
