=
 OpenBabel11052414113D

 34 38  0  0  1  0  0  0  0  0999 V2000
  191.6960  176.3290  137.2420 C   0  0  0  0  0  0  0  0  0  0  0  0
  189.5160  175.4190  136.4350 C   0  0  0  0  0  2  0  0  0  0  0  0
  189.5570  177.4060  137.8680 N   0  0  0  0  0  0  0  0  0  0  0  0
  187.2420  177.9830  138.4510 C   0  0  2  0  0  3  0  0  0  0  0  0
  192.2490  175.8160  134.8230 C   0  0  0  0  0  2  0  0  0  0  0  0
  191.2940  174.2760  134.6580 S   0  0  0  0  0  0  0  0  0  0  0  0
  188.0580  178.1600  136.1960 O   0  0  0  0  0  1  0  0  0  0  0  0
  190.2840  176.6810  136.8130 C   0  0  1  0  0  3  0  0  0  0  0  0
  192.7610  175.9640  136.2490 C   0  0  0  0  0  2  0  0  0  0  0  0
  189.8670  177.1790  139.2600 C   0  0  0  0  0  0  0  0  0  0  0  0
  192.0080  176.2620  138.5370 C   0  0  0  0  0  3  0  0  0  0  0  0
  189.7000  175.1030  134.9600 C   0  0  0  0  0  2  0  0  0  0  0  0
  187.6500  177.9510  139.8990 C   0  0  0  0  0  3  0  0  0  0  0  0
  188.8650  177.5540  140.3020 C   0  0  0  0  0  0  0  0  0  0  0  0
  188.4340  178.2930  137.5370 C   0  0  2  0  0  3  0  0  0  0  0  0
  191.0380  176.6230  139.5800 C   0  0  0  0  0  3  0  0  0  0  0  0
  190.3810  178.4270  143.6800 C   0  0  0  0  0  0  0  0  0  0  0  0
  189.6550  177.5920  144.5320 C   0  0  0  0  0  3  0  0  0  0  0  0
  189.1620  177.5520  141.7620 C   0  0  0  0  0  0  0  0  0  0  0  0
  188.6830  176.7380  144.0100 C   0  0  0  0  0  3  0  0  0  0  0  0
  190.1340  178.4090  142.3050 C   0  0  0  0  0  3  0  0  0  0  0  0
  188.4360  176.7200  142.6340 C   0  0  0  0  0  3  0  0  0  0  0  0
  191.5920  179.5070  144.3340 Cl  0  0  0  0  0  0  0  0  0  0  0  0
  186.1030  178.8850  138.2350 N   0  0  0  0  0  2  0  0  0  0  0  0
  184.8530  178.2660  138.6700 C   0  0  0  0  0  2  0  0  0  0  0  0
  184.1640  179.1350  139.7060 C   0  0  0  0  0  2  0  0  0  0  0  0
  183.4270  178.2540  140.7030 C   0  0  0  0  0  2  0  0  0  0  0  0
  181.1970  178.9600  142.7280 S   0  0  0  0  0  0  0  0  0  0  0  0
  183.7870  178.6210  142.0680 N   0  0  0  0  0  0  0  0  0  0  0  0
  182.7960  178.8980  143.0800 C   0  0  0  0  0  0  0  0  0  0  0  0
  184.5830  178.6620  144.7620 C   0  0  0  0  0  3  0  0  0  0  0  0
  185.4920  178.4530  143.7990 C   0  0  0  0  0  3  0  0  0  0  0  0
  185.1970  178.8500  142.3770 C   0  0  0  0  0  2  0  0  0  0  0  0
  183.2550  179.3000  144.4510 C   0  0  0  0  0  2  0  0  0  0  0  0
  1 11  2  0  0  0  0
  3 10  1  0  0  0  0
  4 24  1  1  0  0  0
  4 13  1  0  0  0  0
  5  9  1  0  0  0  0
  6  5  1  0  0  0  0
  6 12  1  0  0  0  0
  8  2  1  1  0  0  0
  8  1  1  0  0  0  0
  8  3  1  0  0  0  0
  9  1  1  0  0  0  0
 10 16  2  0  0  0  0
 10 14  1  0  0  0  0
 11 16  1  0  0  0  0
 12  2  1  0  0  0  0
 13 14  2  0  0  0  0
 14 19  1  0  0  0  0
 15  7  1  6  0  0  0
 15  3  1  0  0  0  0
 15  4  1  0  0  0  0
 17 23  1  0  0  0  0
 17 18  1  0  0  0  0
 19 21  1  0  0  0  0
 19 22  2  0  0  0  0
 20 18  2  0  0  0  0
 21 17  2  0  0  0  0
 22 20  1  0  0  0  0
 24 25  1  0  0  0  0
 25 26  1  0  0  0  0
 26 27  1  0  0  0  0
 27 29  1  0  0  0  0
 28 30  2  0  0  0  0
 29 33  1  0  0  0  0
 29 30  1  0  0  0  0
 30 34  1  0  0  0  0
 32 31  2  0  0  0  0
 33 32  1  0  0  0  0
 34 31  1  0  0  0  0
M  END
>  <MODEL>
1

>  <REMARK>
 VINA RESULT:      -8.5      0.000      0.000
  Name = 
  6 active torsions:
  status: ('A' for Active; 'I' for Inactive)
    1  A    between atoms: C_3  and  N_13
    2  A    between atoms: C_3  and  C_17
    3  A    between atoms: C_5  and  N_18
    4  A    between atoms: C_12  and  C_28
    5  A    between atoms: C_17  and  C_29
    6  A    between atoms: N_18  and  C_29
                            x       y       z     vdW  Elec       q    Type
                         _______ _______ _______ _____ _____    ______ ____

>  <TORSDO>
F 6

$$$$
=
 OpenBabel11052414113D

 34 38  0  0  1  0  0  0  0  0999 V2000
  191.8260  177.2260  140.5440 C   0  0  0  0  0  0  0  0  0  0  0  0
  190.1490  176.1940  139.0110 C   0  0  0  0  0  2  0  0  0  0  0  0
  189.4760  178.0040  140.5180 N   0  0  0  0  0  0  0  0  0  0  0  0
  187.0400  178.2740  140.3590 C   0  0  2  0  0  3  0  0  0  0  0  0
  193.1720  177.0430  138.4050 C   0  0  0  0  0  2  0  0  0  0  0  0
  192.5280  175.4410  137.8290 S   0  0  0  0  0  0  0  0  0  0  0  0
  188.4910  178.7820  138.5100 O   0  0  0  0  0  1  0  0  0  0  0  0
  190.5860  177.4780  139.7080 C   0  0  1  0  0  3  0  0  0  0  0  0
  193.1870  177.0840  139.9260 C   0  0  0  0  0  2  0  0  0  0  0  0
  189.3610  177.6580  141.9160 C   0  0  0  0  0  0  0  0  0  0  0  0
  191.7230  177.0490  141.8620 C   0  0  0  0  0  3  0  0  0  0  0  0
  190.8260  176.0630  137.6560 C   0  0  0  0  0  2  0  0  0  0  0  0
  186.9740  178.1250  141.8550 C   0  0  0  0  0  3  0  0  0  0  0  0
  188.0430  177.8110  142.6010 C   0  0  0  0  0  0  0  0  0  0  0  0
  188.4070  178.8040  139.9060 C   0  0  2  0  0  3  0  0  0  0  0  0
  190.4360  177.1920  142.5570 C   0  0  0  0  0  3  0  0  0  0  0  0
  188.7930  177.3510  146.3020 C   0  0  0  0  0  0  0  0  0  0  0  0
  187.5240  177.5100  146.8620 C   0  0  0  0  0  3  0  0  0  0  0  0
  187.8660  177.6790  144.0740 C   0  0  0  0  0  0  0  0  0  0  0  0
  186.4230  177.7540  146.0380 C   0  0  0  0  0  3  0  0  0  0  0  0
  188.9620  177.4380  144.9180 C   0  0  0  0  0  3  0  0  0  0  0  0
  186.5940  177.8410  144.6540 C   0  0  0  0  0  3  0  0  0  0  0  0
  190.1750  177.0580  147.3330 Cl  0  0  0  0  0  0  0  0  0  0  0  0
  185.9180  179.0740  139.8520 N   0  0  0  0  0  2  0  0  0  0  0  0
  185.0830  178.2900  138.9440 C   0  0  0  0  0  2  0  0  0  0  0  0
  183.6130  178.5510  139.2190 C   0  0  0  0  0  2  0  0  0  0  0  0
  183.0970  177.5460  140.2360 C   0  0  0  0  0  2  0  0  0  0  0  0
  180.0790  178.1800  140.4870 S   0  0  0  0  0  0  0  0  0  0  0  0
  182.6040  178.2340  141.4240 N   0  0  0  0  0  0  0  0  0  0  0  0
  181.2020  178.5010  141.6360 C   0  0  0  0  0  0  0  0  0  0  0  0
  181.7400  178.9510  144.0000 C   0  0  0  0  0  3  0  0  0  0  0  0
  183.0430  178.7410  143.7650 C   0  0  0  0  0  3  0  0  0  0  0  0
  183.5800  178.7900  142.3600 C   0  0  0  0  0  2  0  0  0  0  0  0
  180.7860  179.2430  142.8720 C   0  0  0  0  0  2  0  0  0  0  0  0
  1 11  2  0  0  0  0
  3 10  1  0  0  0  0
  4 24  1  1  0  0  0
  4 13  1  0  0  0  0
  5  9  1  0  0  0  0
  6  5  1  0  0  0  0
  8  2  1  1  0  0  0
  8  3  1  0  0  0  0
  8  1  1  0  0  0  0
  9  1  1  0  0  0  0
 10 16  2  0  0  0  0
 10 14  1  0  0  0  0
 11 16  1  0  0  0  0
 12  6  1  0  0  0  0
 12  2  1  0  0  0  0
 13 14  2  0  0  0  0
 14 19  1  0  0  0  0
 15  7  1  6  0  0  0
 15  4  1  0  0  0  0
 15  3  1  0  0  0  0
 17 18  1  0  0  0  0
 17 23  1  0  0  0  0
 19 22  2  0  0  0  0
 19 21  1  0  0  0  0
 20 18  2  0  0  0  0
 21 17  2  0  0  0  0
 22 20  1  0  0  0  0
 25 26  1  0  0  0  0
 25 24  1  0  0  0  0
 26 27  1  0  0  0  0
 27 29  1  0  0  0  0
 28 30  2  0  0  0  0
 29 30  1  0  0  0  0
 29 33  1  0  0  0  0
 30 34  1  0  0  0  0
 32 31  2  0  0  0  0
 33 32  1  0  0  0  0
 34 31  1  0  0  0  0
M  END
>  <MODEL>
2

>  <REMARK>
 VINA RESULT:      -8.2      1.888      2.766
  Name = 
  6 active torsions:
  status: ('A' for Active; 'I' for Inactive)
    1  A    between atoms: C_3  and  N_13
    2  A    between atoms: C_3  and  C_17
    3  A    between atoms: C_5  and  N_18
    4  A    between atoms: C_12  and  C_28
    5  A    between atoms: C_17  and  C_29
    6  A    between atoms: N_18  and  C_29
                            x       y       z     vdW  Elec       q    Type
                         _______ _______ _______ _____ _____    ______ ____

>  <TORSDO>
F 6

$$$$
=
 OpenBabel11052414113D

 34 38  0  0  1  0  0  0  0  0999 V2000
  191.7090  177.2380  140.5870 C   0  0  0  0  0  0  0  0  0  0  0  0
  189.9410  176.2030  139.1630 C   0  0  0  0  0  2  0  0  0  0  0  0
  189.3580  178.0020  140.7210 N   0  0  0  0  0  0  0  0  0  0  0  0
  186.9150  178.2570  140.7250 C   0  0  2  0  0  3  0  0  0  0  0  0
  192.9120  177.0740  138.3630 C   0  0  0  0  0  2  0  0  0  0  0  0
  192.2410  175.4710  137.8220 S   0  0  0  0  0  0  0  0  0  0  0  0
  188.2380  178.7830  138.7860 O   0  0  0  0  0  1  0  0  0  0  0  0
  190.4150  177.4860  139.8360 C   0  0  1  0  0  3  0  0  0  0  0  0
  193.0280  177.1070  139.8800 C   0  0  0  0  0  2  0  0  0  0  0  0
  189.3380  177.6480  142.1210 C   0  0  0  0  0  0  0  0  0  0  0  0
  191.6950  177.0540  141.9080 C   0  0  0  0  0  3  0  0  0  0  0  0
  190.5270  176.0830  137.7660 C   0  0  0  0  0  2  0  0  0  0  0  0
  186.9500  178.1000  142.2210 C   0  0  0  0  0  3  0  0  0  0  0  0
  188.0680  177.7900  142.8930 C   0  0  0  0  0  0  0  0  0  0  0  0
  188.2460  178.7970  140.1850 C   0  0  2  0  0  3  0  0  0  0  0  0
  190.4560  177.1850  142.6880 C   0  0  0  0  0  3  0  0  0  0  0  0
  189.0600  177.2910  146.5310 C   0  0  0  0  0  0  0  0  0  0  0  0
  187.8340  177.4650  147.1780 C   0  0  0  0  0  3  0  0  0  0  0  0
  187.9890  177.6490  144.3740 C   0  0  0  0  0  0  0  0  0  0  0  0
  186.6850  177.7310  146.4320 C   0  0  0  0  0  3  0  0  0  0  0  0
  189.1360  177.3860  145.1400 C   0  0  0  0  0  3  0  0  0  0  0  0
  186.7620  177.8250  145.0400 C   0  0  0  0  0  3  0  0  0  0  0  0
  190.5050  176.9690  147.4640 Cl  0  0  0  0  0  0  0  0  0  0  0  0
  185.7580  179.0520  140.2970 N   0  0  0  0  0  2  0  0  0  0  0  0
  184.8850  178.2780  139.4170 C   0  0  0  0  0  2  0  0  0  0  0  0
  183.5020  178.1430  140.0260 C   0  0  0  0  0  2  0  0  0  0  0  0
  183.4500  178.8930  141.3470 C   0  0  0  0  0  2  0  0  0  0  0  0
  183.2220  179.0340  144.4300 S   0  0  0  0  0  0  0  0  0  0  0  0
  182.1470  178.7190  141.9790 N   0  0  0  0  0  0  0  0  0  0  0  0
  181.9580  178.8380  143.4040 C   0  0  0  0  0  0  0  0  0  0  0  0
  179.5360  179.0160  142.9750 C   0  0  0  0  0  3  0  0  0  0  0  0
  179.7370  178.8570  141.6590 C   0  0  0  0  0  3  0  0  0  0  0  0
  181.0280  178.2730  141.1510 C   0  0  0  0  0  2  0  0  0  0  0  0
  180.5880  178.6120  143.9740 C   0  0  0  0  0  2  0  0  0  0  0  0
  1 11  2  0  0  0  0
  3 10  1  0  0  0  0
  4 24  1  1  0  0  0
  4 13  1  0  0  0  0
  5  9  1  0  0  0  0
  6  5  1  0  0  0  0
  8  2  1  1  0  0  0
  8  1  1  0  0  0  0
  8  3  1  0  0  0  0
  9  1  1  0  0  0  0
 10 16  2  0  0  0  0
 10 14  1  0  0  0  0
 11 16  1  0  0  0  0
 12  6  1  0  0  0  0
 12  2  1  0  0  0  0
 13 14  2  0  0  0  0
 14 19  1  0  0  0  0
 15  7  1  6  0  0  0
 15  3  1  0  0  0  0
 15  4  1  0  0  0  0
 17 18  1  0  0  0  0
 17 23  1  0  0  0  0
 19 22  2  0  0  0  0
 19 21  1  0  0  0  0
 20 18  2  0  0  0  0
 21 17  2  0  0  0  0
 22 20  1  0  0  0  0
 25 26  1  0  0  0  0
 25 24  1  0  0  0  0
 26 27  1  0  0  0  0
 27 29  1  0  0  0  0
 29 30  1  0  0  0  0
 30 34  1  0  0  0  0
 30 28  2  0  0  0  0
 31 34  1  0  0  0  0
 32 31  2  0  0  0  0
 33 32  1  0  0  0  0
 33 29  1  0  0  0  0
M  END
>  <MODEL>
3

>  <REMARK>
 VINA RESULT:      -8.1      2.088      3.177
  Name = 
  6 active torsions:
  status: ('A' for Active; 'I' for Inactive)
    1  A    between atoms: C_3  and  N_13
    2  A    between atoms: C_3  and  C_17
    3  A    between atoms: C_5  and  N_18
    4  A    between atoms: C_12  and  C_28
    5  A    between atoms: C_17  and  C_29
    6  A    between atoms: N_18  and  C_29
                            x       y       z     vdW  Elec       q    Type
                         _______ _______ _______ _____ _____    ______ ____

>  <TORSDO>
F 6

$$$$
=
 OpenBabel11052414113D

 34 38  0  0  1  0  0  0  0  0999 V2000
  189.6130  177.1850  145.7290 C   0  0  0  0  0  0  0  0  0  0  0  0
  190.2390  175.7880  143.7580 C   0  0  0  0  0  2  0  0  0  0  0  0
  189.0540  177.9060  143.4280 N   0  0  0  0  0  0  0  0  0  0  0  0
  188.4720  178.1010  141.0490 C   0  0  2  0  0  3  0  0  0  0  0  0
  191.9700  176.4950  146.3520 C   0  0  0  0  0  2  0  0  0  0  0  0
  191.9220  174.7940  145.7080 S   0  0  0  0  0  0  0  0  0  0  0  0
  190.7560  178.1530  141.8000 O   0  0  0  0  0  1  0  0  0  0  0  0
  190.0360  177.2080  144.2730 C   0  0  1  0  0  3  0  0  0  0  0  0
  190.5880  176.9100  146.8370 C   0  0  0  0  0  2  0  0  0  0  0  0
  187.6550  177.9140  143.7860 C   0  0  0  0  0  0  0  0  0  0  0  0
  188.3290  177.3370  146.0580 C   0  0  0  0  0  3  0  0  0  0  0  0
  191.6710  175.3340  143.9880 C   0  0  0  0  0  2  0  0  0  0  0  0
  187.0430  178.3240  141.4670 C   0  0  0  0  0  3  0  0  0  0  0  0
  186.6330  178.2160  142.7390 C   0  0  0  0  0  0  0  0  0  0  0  0
  189.4530  178.5180  142.1530 C   0  0  2  0  0  3  0  0  0  0  0  0
  187.3070  177.6320  145.0440 C   0  0  0  0  0  3  0  0  0  0  0  0
  182.8650  178.5410  142.3370 C   0  0  0  0  0  0  0  0  0  0  0  0
  182.4700  178.8150  143.6480 C   0  0  0  0  0  3  0  0  0  0  0  0
  185.1940  178.4490  143.0420 C   0  0  0  0  0  0  0  0  0  0  0  0
  183.4280  178.9060  144.6600 C   0  0  0  0  0  3  0  0  0  0  0  0
  184.2170  178.3570  142.0370 C   0  0  0  0  0  3  0  0  0  0  0  0
  184.7800  178.7210  144.3590 C   0  0  0  0  0  3  0  0  0  0  0  0
  181.6660  178.4150  141.0690 Cl  0  0  0  0  0  0  0  0  0  0  0  0
  188.7580  178.7380  139.7580 N   0  0  0  0  0  2  0  0  0  0  0  0
  189.3240  177.7780  138.8120 C   0  0  0  0  0  2  0  0  0  0  0  0
  188.6610  177.9170  137.4540 C   0  0  0  0  0  2  0  0  0  0  0  0
  187.8700  176.6580  137.1410 C   0  0  0  0  0  2  0  0  0  0  0  0
  185.8610  174.3700  136.5900 S   0  0  0  0  0  0  0  0  0  0  0  0
  186.4420  176.8970  137.3190 N   0  0  0  0  0  0  0  0  0  0  0  0
  185.4570  175.8580  137.1440 C   0  0  0  0  0  0  0  0  0  0  0  0
  183.8490  177.3110  138.3200 C   0  0  0  0  0  3  0  0  0  0  0  0
  184.7710  178.2790  138.4290 C   0  0  0  0  0  3  0  0  0  0  0  0
  185.9910  178.2690  137.5470 C   0  0  0  0  0  2  0  0  0  0  0  0
  184.0050  176.2000  137.3160 C   0  0  0  0  0  2  0  0  0  0  0  0
  1 11  2  0  0  0  0
  1  9  1  0  0  0  0
  2 12  1  0  0  0  0
  3 10  1  0  0  0  0
  3  8  1  0  0  0  0
  4 24  1  6  0  0  0
  4 13  1  0  0  0  0
  4 15  1  0  0  0  0
  5  9  1  0  0  0  0
  6  5  1  0  0  0  0
  8  2  1  6  0  0  0
  8  1  1  0  0  0  0
 10 16  2  0  0  0  0
 12  6  1  0  0  0  0
 13 14  2  0  0  0  0
 14 19  1  0  0  0  0
 14 10  1  0  0  0  0
 15  7  1  6  0  0  0
 15  3  1  0  0  0  0
 16 11  1  0  0  0  0
 17 18  1  0  0  0  0
 18 20  2  0  0  0  0
 19 22  2  0  0  0  0
 21 17  2  0  0  0  0
 21 19  1  0  0  0  0
 22 20  1  0  0  0  0
 23 17  1  0  0  0  0
 25 24  1  0  0  0  0
 26 25  1  0  0  0  0
 27 29  1  0  0  0  0
 27 26  1  0  0  0  0
 28 30  2  0  0  0  0
 29 33  1  0  0  0  0
 30 34  1  0  0  0  0
 30 29  1  0  0  0  0
 31 32  2  0  0  0  0
 33 32  1  0  0  0  0
 34 31  1  0  0  0  0
M  END
>  <MODEL>
4

>  <REMARK>
 VINA RESULT:      -8.1      3.524      6.961
  Name = 
  6 active torsions:
  status: ('A' for Active; 'I' for Inactive)
    1  A    between atoms: C_3  and  N_13
    2  A    between atoms: C_3  and  C_17
    3  A    between atoms: C_5  and  N_18
    4  A    between atoms: C_12  and  C_28
    5  A    between atoms: C_17  and  C_29
    6  A    between atoms: N_18  and  C_29
                            x       y       z     vdW  Elec       q    Type
                         _______ _______ _______ _____ _____    ______ ____

>  <TORSDO>
F 6

$$$$
=
 OpenBabel11052414113D

 34 38  0  0  1  0  0  0  0  0999 V2000
  189.6990  177.1700  145.7340 C   0  0  0  0  0  0  0  0  0  0  0  0
  190.2530  175.7400  143.7650 C   0  0  0  0  0  2  0  0  0  0  0  0
  189.1030  177.8780  143.4380 N   0  0  0  0  0  0  0  0  0  0  0  0
  188.4720  178.0600  141.0710 C   0  0  2  0  0  3  0  0  0  0  0  0
  192.0550  176.4400  146.3120 C   0  0  0  0  0  2  0  0  0  0  0  0
  191.9590  174.7330  145.6880 S   0  0  0  0  0  0  0  0  0  0  0  0
  190.7730  178.0740  141.7710 O   0  0  0  0  0  1  0  0  0  0  0  0
  190.0900  177.1700  144.2690 C   0  0  1  0  0  3  0  0  0  0  0  0
  190.6930  176.8870  146.8230 C   0  0  0  0  0  2  0  0  0  0  0  0
  187.7120  177.9180  143.8270 C   0  0  0  0  0  0  0  0  0  0  0  0
  188.4260  177.3520  146.0900 C   0  0  0  0  0  3  0  0  0  0  0  0
  191.6800  175.2600  143.9690 C   0  0  0  0  0  2  0  0  0  0  0  0
  187.0580  178.3160  141.5180 C   0  0  0  0  0  3  0  0  0  0  0  0
  186.6740  178.2300  142.8000 C   0  0  0  0  0  0  0  0  0  0  0  0
  189.4850  178.4680  142.1490 C   0  0  2  0  0  3  0  0  0  0  0  0
  187.3870  177.6570  145.0960 C   0  0  0  0  0  3  0  0  0  0  0  0
  182.9050  178.6280  142.4780 C   0  0  0  0  0  0  0  0  0  0  0  0
  182.5450  178.9210  143.7950 C   0  0  0  0  0  3  0  0  0  0  0  0
  185.2470  178.4950  143.1320 C   0  0  0  0  0  0  0  0  0  0  0  0
  183.5260  179.0020  144.7840 C   0  0  0  0  0  3  0  0  0  0  0  0
  184.2460  178.4130  142.1500 C   0  0  0  0  0  3  0  0  0  0  0  0
  184.8680  178.7880  144.4550 C   0  0  0  0  0  3  0  0  0  0  0  0
  181.6760  178.5140  141.2380 Cl  0  0  0  0  0  0  0  0  0  0  0  0
  188.7410  178.6770  139.7670 N   0  0  0  0  0  2  0  0  0  0  0  0
  187.9030  178.0890  138.7240 C   0  0  0  0  0  2  0  0  0  0  0  0
  188.7640  177.5000  137.6220 C   0  0  0  0  0  2  0  0  0  0  0  0
  188.9080  176.0020  137.8320 C   0  0  0  0  0  2  0  0  0  0  0  0
  189.7920  173.4040  136.4010 S   0  0  0  0  0  0  0  0  0  0  0  0
  190.3170  175.6230  137.8360 N   0  0  0  0  0  0  0  0  0  0  0  0
  190.8070  174.4620  137.1340 C   0  0  0  0  0  0  0  0  0  0  0  0
  193.0800  175.3850  137.3810 C   0  0  0  0  0  3  0  0  0  0  0  0
  192.6030  176.4310  138.0700 C   0  0  0  0  0  3  0  0  0  0  0  0
  191.2340  176.3700  138.6950 C   0  0  0  0  0  2  0  0  0  0  0  0
  192.2680  174.1280  137.2180 C   0  0  0  0  0  2  0  0  0  0  0  0
  1 11  2  0  0  0  0
  1  9  1  0  0  0  0
  2 12  1  0  0  0  0
  3 10  1  0  0  0  0
  3  8  1  0  0  0  0
  4 24  1  6  0  0  0
  4 13  1  0  0  0  0
  4 15  1  0  0  0  0
  5  9  1  0  0  0  0
  6  5  1  0  0  0  0
  8  2  1  6  0  0  0
  8  1  1  0  0  0  0
 10 16  2  0  0  0  0
 12  6  1  0  0  0  0
 13 14  2  0  0  0  0
 14 19  1  0  0  0  0
 14 10  1  0  0  0  0
 15  7  1  6  0  0  0
 15  3  1  0  0  0  0
 16 11  1  0  0  0  0
 17 18  1  0  0  0  0
 18 20  2  0  0  0  0
 19 22  2  0  0  0  0
 21 17  2  0  0  0  0
 21 19  1  0  0  0  0
 22 20  1  0  0  0  0
 23 17  1  0  0  0  0
 25 24  1  0  0  0  0
 26 27  1  0  0  0  0
 26 25  1  0  0  0  0
 27 29  1  0  0  0  0
 28 30  2  0  0  0  0
 29 33  1  0  0  0  0
 30 34  1  0  0  0  0
 30 29  1  0  0  0  0
 31 32  2  0  0  0  0
 32 33  1  0  0  0  0
 34 31  1  0  0  0  0
M  END
>  <MODEL>
5

>  <REMARK>
 VINA RESULT:      -8.0      3.431      7.842
  Name = 
  6 active torsions:
  status: ('A' for Active; 'I' for Inactive)
    1  A    between atoms: C_3  and  N_13
    2  A    between atoms: C_3  and  C_17
    3  A    between atoms: C_5  and  N_18
    4  A    between atoms: C_12  and  C_28
    5  A    between atoms: C_17  and  C_29
    6  A    between atoms: N_18  and  C_29
                            x       y       z     vdW  Elec       q    Type
                         _______ _______ _______ _____ _____    ______ ____

>  <TORSDO>
F 6

$$$$
=
 OpenBabel11052414113D

 34 38  0  0  1  0  0  0  0  0999 V2000
  189.6820  177.2870  145.7060 C   0  0  0  0  0  0  0  0  0  0  0  0
  190.1960  175.7840  143.7820 C   0  0  0  0  0  2  0  0  0  0  0  0
  189.0250  177.9010  143.3990 N   0  0  0  0  0  0  0  0  0  0  0  0
  188.3360  177.9870  141.0430 C   0  0  2  0  0  3  0  0  0  0  0  0
  192.0560  176.5920  146.2540 C   0  0  0  0  0  2  0  0  0  0  0  0
  191.9540  174.8610  145.7000 S   0  0  0  0  0  0  0  0  0  0  0  0
  190.6530  178.0400  141.6850 O   0  0  0  0  0  1  0  0  0  0  0  0
  190.0370  177.2310  144.2320 C   0  0  1  0  0  3  0  0  0  0  0  0
  190.7030  177.0520  146.7800 C   0  0  0  0  0  2  0  0  0  0  0  0
  187.6450  177.9500  143.8200 C   0  0  0  0  0  0  0  0  0  0  0  0
  188.4170  177.4770  146.0850 C   0  0  0  0  0  3  0  0  0  0  0  0
  191.6310  175.3190  143.9690 C   0  0  0  0  0  2  0  0  0  0  0  0
  186.9320  178.2530  141.5140 C   0  0  0  0  0  3  0  0  0  0  0  0
  186.5800  178.2160  142.8070 C   0  0  0  0  0  0  0  0  0  0  0  0
  189.3730  178.4420  142.0790 C   0  0  2  0  0  3  0  0  0  0  0  0
  187.3520  177.7370  145.1060 C   0  0  0  0  0  3  0  0  0  0  0  0
  182.8070  178.6280  142.5500 C   0  0  0  0  0  0  0  0  0  0  0  0
  182.4710  178.9240  143.8720 C   0  0  0  0  0  3  0  0  0  0  0  0
  185.1590  178.4870  143.1640 C   0  0  0  0  0  0  0  0  0  0  0  0
  183.4700  179.0020  144.8440 C   0  0  0  0  0  3  0  0  0  0  0  0
  184.1420  178.4080  142.1990 C   0  0  0  0  0  3  0  0  0  0  0  0
  184.8050  178.7820  144.4930 C   0  0  0  0  0  3  0  0  0  0  0  0
  181.5570  178.5170  141.3310 Cl  0  0  0  0  0  0  0  0  0  0  0  0
  188.5700  178.5540  139.7090 N   0  0  0  0  0  2  0  0  0  0  0  0
  187.7040  177.9270  138.7130 C   0  0  0  0  0  2  0  0  0  0  0  0
  188.0250  178.4530  137.3260 C   0  0  0  0  0  2  0  0  0  0  0  0
  189.4300  178.0300  136.9310 C   0  0  0  0  0  2  0  0  0  0  0  0
  191.5140  176.3780  138.5130 S   0  0  0  0  0  0  0  0  0  0  0  0
  189.4920  176.5840  136.7450 N   0  0  0  0  0  0  0  0  0  0  0  0
  190.3930  175.7460  137.4980 C   0  0  0  0  0  0  0  0  0  0  0  0
  189.0540  173.8090  136.7690 C   0  0  0  0  0  3  0  0  0  0  0  0
  188.2590  174.6060  136.0400 C   0  0  0  0  0  3  0  0  0  0  0  0
  188.7130  175.9900  135.6600 C   0  0  0  0  0  2  0  0  0  0  0  0
  190.4140  174.2720  137.2180 C   0  0  0  0  0  2  0  0  0  0  0  0
  1 11  2  0  0  0  0
  1  9  1  0  0  0  0
  2 12  1  0  0  0  0
  3 10  1  0  0  0  0
  3  8  1  0  0  0  0
  4 24  1  6  0  0  0
  4 13  1  0  0  0  0
  4 15  1  0  0  0  0
  5  9  1  0  0  0  0
  6  5  1  0  0  0  0
  8  2  1  6  0  0  0
  8  1  1  0  0  0  0
 10 16  2  0  0  0  0
 12  6  1  0  0  0  0
 13 14  2  0  0  0  0
 14 19  1  0  0  0  0
 14 10  1  0  0  0  0
 15  7  1  6  0  0  0
 15  3  1  0  0  0  0
 16 11  1  0  0  0  0
 17 18  1  0  0  0  0
 18 20  2  0  0  0  0
 19 22  2  0  0  0  0
 21 17  2  0  0  0  0
 21 19  1  0  0  0  0
 22 20  1  0  0  0  0
 23 17  1  0  0  0  0
 25 24  1  0  0  0  0
 26 25  1  0  0  0  0
 27 26  1  0  0  0  0
 29 27  1  0  0  0  0
 29 30  1  0  0  0  0
 30 28  2  0  0  0  0
 31 34  1  0  0  0  0
 32 31  2  0  0  0  0
 33 32  1  0  0  0  0
 33 29  1  0  0  0  0
 34 30  1  0  0  0  0
M  END
>  <MODEL>
6

>  <REMARK>
 VINA RESULT:      -7.9      3.467      7.663
  Name = 
  6 active torsions:
  status: ('A' for Active; 'I' for Inactive)
    1  A    between atoms: C_3  and  N_13
    2  A    between atoms: C_3  and  C_17
    3  A    between atoms: C_5  and  N_18
    4  A    between atoms: C_12  and  C_28
    5  A    between atoms: C_17  and  C_29
    6  A    between atoms: N_18  and  C_29
                            x       y       z     vdW  Elec       q    Type
                         _______ _______ _______ _____ _____    ______ ____

>  <TORSDO>
F 6

$$$$
=
 OpenBabel11052414113D

 34 38  0  0  1  0  0  0  0  0999 V2000
  180.5480  178.6620  140.5200 C   0  0  0  0  0  0  0  0  0  0  0  0
  181.7500  180.3700  139.1540 C   0  0  0  0  0  2  0  0  0  0  0  0
  183.0040  178.5620  140.2300 N   0  0  0  0  0  0  0  0  0  0  0  0
  185.4020  178.9890  139.9100 C   0  0  2  0  0  3  0  0  0  0  0  0
  178.9980  178.8680  138.5250 C   0  0  0  0  0  2  0  0  0  0  0  0
  179.1550  180.6620  138.2580 S   0  0  0  0  0  0  0  0  0  0  0  0
  183.9540  178.4600  138.0630 O   0  0  0  0  0  1  0  0  0  0  0  0
  181.7240  178.9110  139.5950 C   0  0  1  0  0  3  0  0  0  0  0  0
  179.1420  178.5460  140.0060 C   0  0  0  0  0  2  0  0  0  0  0  0
  183.1620  178.6620  141.6620 C   0  0  0  0  0  0  0  0  0  0  0  0
  180.7300  178.6140  141.8400 C   0  0  0  0  0  3  0  0  0  0  0  0
  180.9340  180.5620  137.8870 C   0  0  0  0  0  2  0  0  0  0  0  0
  185.5720  178.8730  141.4010 C   0  0  0  0  0  3  0  0  0  0  0  0
  184.5360  178.7450  142.2420 C   0  0  0  0  0  0  0  0  0  0  0  0
  184.1770  178.2050  139.4210 C   0  0  2  0  0  3  0  0  0  0  0  0
  182.0720  178.6970  142.4330 C   0  0  0  0  0  3  0  0  0  0  0  0
  186.3290  178.1440  145.5430 C   0  0  0  0  0  0  0  0  0  0  0  0
  185.3560  178.5420  146.4620 C   0  0  0  0  0  3  0  0  0  0  0  0
  184.8170  178.6470  143.7020 C   0  0  0  0  0  0  0  0  0  0  0  0
  184.1140  178.9940  146.0110 C   0  0  0  0  0  3  0  0  0  0  0  0
  186.0610  178.1990  144.1730 C   0  0  0  0  0  3  0  0  0  0  0  0
  183.8480  179.0480  144.6400 C   0  0  0  0  0  3  0  0  0  0  0  0
  187.8900  177.5880  146.1050 Cl  0  0  0  0  0  0  0  0  0  0  0  0
  186.6350  178.6270  139.2000 N   0  0  0  0  0  2  0  0  0  0  0  0
  187.7540  178.4880  140.1300 C   0  0  0  0  0  2  0  0  0  0  0  0
  189.0310  178.1630  139.3780 C   0  0  0  0  0  2  0  0  0  0  0  0
  189.6500  176.8960  139.9460 C   0  0  0  0  0  2  0  0  0  0  0  0
  192.6690  177.4960  140.2720 S   0  0  0  0  0  0  0  0  0  0  0  0
  190.1930  177.1490  141.2760 N   0  0  0  0  0  0  0  0  0  0  0  0
  191.5750  177.4990  141.4930 C   0  0  0  0  0  0  0  0  0  0  0  0
  190.9380  178.2380  143.7580 C   0  0  0  0  0  3  0  0  0  0  0  0
  189.6680  177.8620  143.5460 C   0  0  0  0  0  3  0  0  0  0  0  0
  189.3350  176.9020  142.4340 C   0  0  0  0  0  2  0  0  0  0  0  0
  192.0570  177.7110  142.8990 C   0  0  0  0  0  2  0  0  0  0  0  0
  1 11  2  0  0  0  0
  3 10  1  0  0  0  0
  4 24  1  6  0  0  0
  4 13  1  0  0  0  0
  5  9  1  0  0  0  0
  6  5  1  0  0  0  0
  8  2  1  1  0  0  0
  8  3  1  0  0  0  0
  8  1  1  0  0  0  0
  9  1  1  0  0  0  0
 10 14  1  0  0  0  0
 10 16  2  0  0  0  0
 11 16  1  0  0  0  0
 12  6  1  0  0  0  0
 12  2  1  0  0  0  0
 13 14  2  0  0  0  0
 14 19  1  0  0  0  0
 15  7  1  6  0  0  0
 15  4  1  0  0  0  0
 15  3  1  0  0  0  0
 17 23  1  0  0  0  0
 17 18  1  0  0  0  0
 19 21  1  0  0  0  0
 19 22  2  0  0  0  0
 20 18  2  0  0  0  0
 21 17  2  0  0  0  0
 22 20  1  0  0  0  0
 24 25  1  0  0  0  0
 26 27  1  0  0  0  0
 26 25  1  0  0  0  0
 27 29  1  0  0  0  0
 28 30  2  0  0  0  0
 29 30  1  0  0  0  0
 29 33  1  0  0  0  0
 30 34  1  0  0  0  0
 32 31  2  0  0  0  0
 33 32  1  0  0  0  0
 34 31  1  0  0  0  0
M  END
>  <MODEL>
7

>  <REMARK>
 VINA RESULT:      -7.8      2.896      7.920
  Name = 
  6 active torsions:
  status: ('A' for Active; 'I' for Inactive)
    1  A    between atoms: C_3  and  N_13
    2  A    between atoms: C_3  and  C_17
    3  A    between atoms: C_5  and  N_18
    4  A    between atoms: C_12  and  C_28
    5  A    between atoms: C_17  and  C_29
    6  A    between atoms: N_18  and  C_29
                            x       y       z     vdW  Elec       q    Type
                         _______ _______ _______ _____ _____    ______ ____

>  <TORSDO>
F 6

$$$$
=
 OpenBabel11052414113D

 34 38  0  0  1  0  0  0  0  0999 V2000
  188.8650  177.7580  144.5390 C   0  0  0  0  0  0  0  0  0  0  0  0
  189.2630  176.2180  142.6160 C   0  0  0  0  0  2  0  0  0  0  0  0
  187.9140  178.2380  142.3050 N   0  0  0  0  0  0  0  0  0  0  0  0
  186.9600  178.1880  140.0410 C   0  0  2  0  0  3  0  0  0  0  0  0
  191.3280  177.2400  144.8330 C   0  0  0  0  0  2  0  0  0  0  0  0
  191.2850  175.4860  144.3480 S   0  0  0  0  0  0  0  0  0  0  0  0
  189.3260  178.4160  140.4110 O   0  0  0  0  0  1  0  0  0  0  0  0
  189.0560  177.6680  143.0370 C   0  0  1  0  0  3  0  0  0  0  0  0
  190.0150  177.6320  145.4960 C   0  0  0  0  0  2  0  0  0  0  0  0
  186.5890  178.2130  142.8790 C   0  0  0  0  0  0  0  0  0  0  0  0
  187.6410  177.8790  145.0540 C   0  0  0  0  0  3  0  0  0  0  0  0
  190.7380  175.8550  142.6520 C   0  0  0  0  0  2  0  0  0  0  0  0
  185.6020  178.3800  140.6610 C   0  0  0  0  0  3  0  0  0  0  0  0
  185.4010  178.3700  141.9870 C   0  0  0  0  0  0  0  0  0  0  0  0
  188.0720  178.7490  140.9370 C   0  0  2  0  0  3  0  0  0  0  0  0
  186.4580  178.0310  144.1960 C   0  0  0  0  0  3  0  0  0  0  0  0
  181.6170  178.7340  142.1070 C   0  0  0  0  0  0  0  0  0  0  0  0
  181.3940  178.8450  143.4810 C   0  0  0  0  0  3  0  0  0  0  0  0
  184.0140  178.5610  142.4950 C   0  0  0  0  0  0  0  0  0  0  0  0
  182.4720  178.8140  144.3670 C   0  0  0  0  0  3  0  0  0  0  0  0
  182.9180  178.5900  141.6180 C   0  0  0  0  0  3  0  0  0  0  0  0
  183.7730  178.6700  143.8770 C   0  0  0  0  0  3  0  0  0  0  0  0
  180.2670  178.7600  140.9940 Cl  0  0  0  0  0  0  0  0  0  0  0  0
  187.0030  178.7170  138.6730 N   0  0  0  0  0  2  0  0  0  0  0  0
  187.1690  177.6400  137.6980 C   0  0  0  0  0  2  0  0  0  0  0  0
  185.9210  177.4990  136.8460 C   0  0  0  0  0  2  0  0  0  0  0  0
  186.1490  176.4420  135.7780 C   0  0  0  0  0  2  0  0  0  0  0  0
  188.3710  174.3010  136.0070 S   0  0  0  0  0  0  0  0  0  0  0  0
  185.8200  175.1180  136.2960 N   0  0  0  0  0  0  0  0  0  0  0  0
  186.8180  174.0950  136.4910 C   0  0  0  0  0  0  0  0  0  0  0  0
  185.1810  172.8920  137.8880 C   0  0  0  0  0  3  0  0  0  0  0  0
  184.2570  173.8350  137.6540 C   0  0  0  0  0  3  0  0  0  0  0  0
  184.4120  174.7790  136.4910 C   0  0  0  0  0  2  0  0  0  0  0  0
  186.3870  172.7500  136.9980 C   0  0  0  0  0  2  0  0  0  0  0  0
  1 11  2  0  0  0  0
  1  9  1  0  0  0  0
  2 12  1  0  0  0  0
  3 10  1  0  0  0  0
  3  8  1  0  0  0  0
  4 24  1  6  0  0  0
  4 13  1  0  0  0  0
  4 15  1  0  0  0  0
  5  9  1  0  0  0  0
  6  5  1  0  0  0  0
  8  2  1  6  0  0  0
  8  1  1  0  0  0  0
 10 16  2  0  0  0  0
 12  6  1  0  0  0  0
 13 14  2  0  0  0  0
 14 19  1  0  0  0  0
 14 10  1  0  0  0  0
 15  7  1  6  0  0  0
 15  3  1  0  0  0  0
 16 11  1  0  0  0  0
 17 18  1  0  0  0  0
 18 20  2  0  0  0  0
 19 22  2  0  0  0  0
 21 17  2  0  0  0  0
 21 19  1  0  0  0  0
 22 20  1  0  0  0  0
 23 17  1  0  0  0  0
 25 24  1  0  0  0  0
 26 25  1  0  0  0  0
 27 29  1  0  0  0  0
 27 26  1  0  0  0  0
 28 30  2  0  0  0  0
 29 33  1  0  0  0  0
 29 30  1  0  0  0  0
 30 34  1  0  0  0  0
 32 31  2  0  0  0  0
 33 32  1  0  0  0  0
 34 31  1  0  0  0  0
M  END
>  <MODEL>
8

>  <REMARK>
 VINA RESULT:      -7.6      3.861      7.193
  Name = 
  6 active torsions:
  status: ('A' for Active; 'I' for Inactive)
    1  A    between atoms: C_3  and  N_13
    2  A    between atoms: C_3  and  C_17
    3  A    between atoms: C_5  and  N_18
    4  A    between atoms: C_12  and  C_28
    5  A    between atoms: C_17  and  C_29
    6  A    between atoms: N_18  and  C_29
                            x       y       z     vdW  Elec       q    Type
                         _______ _______ _______ _____ _____    ______ ____

>  <TORSDO>
F 6

$$$$
=
 OpenBabel11052414113D

 34 38  0  0  1  0  0  0  0  0999 V2000
  180.8010  178.7080  140.9620 C   0  0  0  0  0  0  0  0  0  0  0  0
  181.9220  180.3140  139.4150 C   0  0  0  0  0  2  0  0  0  0  0  0
  183.1890  178.4450  140.3660 N   0  0  0  0  0  0  0  0  0  0  0  0
  185.5480  178.7120  139.7340 C   0  0  2  0  0  3  0  0  0  0  0  0
  179.0250  178.9820  139.1760 C   0  0  0  0  0  2  0  0  0  0  0  0
  179.2570  180.7570  138.8490 S   0  0  0  0  0  0  0  0  0  0  0  0
  183.8460  178.2490  138.0990 O   0  0  0  0  0  1  0  0  0  0  0  0
  181.8620  178.8660  139.8900 C   0  0  1  0  0  3  0  0  0  0  0  0
  179.3370  178.6740  140.6340 C   0  0  0  0  0  2  0  0  0  0  0  0
  183.5360  178.5580  141.7630 C   0  0  0  0  0  0  0  0  0  0  0  0
  181.1480  178.6690  142.2490 C   0  0  0  0  0  3  0  0  0  0  0  0
  180.9640  180.5380  138.2570 C   0  0  0  0  0  2  0  0  0  0  0  0
  185.9010  178.6090  141.1930 C   0  0  0  0  0  3  0  0  0  0  0  0
  184.9750  178.5610  142.1620 C   0  0  0  0  0  0  0  0  0  0  0  0
  184.2240  178.0010  139.4230 C   0  0  2  0  0  3  0  0  0  0  0  0
  182.5580  178.6750  142.6650 C   0  0  0  0  0  3  0  0  0  0  0  0
  187.1120  177.8430  145.2260 C   0  0  0  0  0  0  0  0  0  0  0  0
  186.3180  178.3710  146.2460 C   0  0  0  0  0  3  0  0  0  0  0  0
  185.4340  178.4680  143.5760 C   0  0  0  0  0  0  0  0  0  0  0  0
  185.0850  178.9490  145.9410 C   0  0  0  0  0  3  0  0  0  0  0  0
  186.6740  177.8940  143.9000 C   0  0  0  0  0  3  0  0  0  0  0  0
  184.6470  178.9990  144.6140 C   0  0  0  0  0  3  0  0  0  0  0  0
  188.6640  177.1300  145.6040 Cl  0  0  0  0  0  0  0  0  0  0  0  0
  186.6560  178.2610  138.8820 N   0  0  0  0  0  2  0  0  0  0  0  0
  187.8520  177.9900  139.6770 C   0  0  0  0  0  2  0  0  0  0  0  0
  189.0700  178.6310  139.0370 C   0  0  0  0  0  2  0  0  0  0  0  0
  189.2600  178.0780  137.6340 C   0  0  0  0  0  2  0  0  0  0  0  0
  187.8100  175.6210  136.4360 S   0  0  0  0  0  0  0  0  0  0  0  0
  189.9020  176.7700  137.6860 N   0  0  0  0  0  0  0  0  0  0  0  0
  189.3130  175.5960  137.0890 C   0  0  0  0  0  0  0  0  0  0  0  0
  191.5150  174.5040  137.2840 C   0  0  0  0  0  3  0  0  0  0  0  0
  192.0260  175.5920  137.8780 C   0  0  0  0  0  3  0  0  0  0  0  0
  191.1140  176.6220  138.4900 C   0  0  0  0  0  2  0  0  0  0  0  0
  190.0280  174.2820  137.2180 C   0  0  0  0  0  2  0  0  0  0  0  0
  1 11  2  0  0  0  0
  3 10  1  0  0  0  0
  4 24  1  6  0  0  0
  4 13  1  0  0  0  0
  5  9  1  0  0  0  0
  6  5  1  0  0  0  0
  8  2  1  1  0  0  0
  8  3  1  0  0  0  0
  8  1  1  0  0  0  0
  9  1  1  0  0  0  0
 10 14  1  0  0  0  0
 10 16  2  0  0  0  0
 11 16  1  0  0  0  0
 12  6  1  0  0  0  0
 12  2  1  0  0  0  0
 13 14  2  0  0  0  0
 14 19  1  0  0  0  0
 15  7  1  6  0  0  0
 15  4  1  0  0  0  0
 15  3  1  0  0  0  0
 17 23  1  0  0  0  0
 17 18  1  0  0  0  0
 19 21  1  0  0  0  0
 19 22  2  0  0  0  0
 20 18  2  0  0  0  0
 21 17  2  0  0  0  0
 22 20  1  0  0  0  0
 24 25  1  0  0  0  0
 26 25  1  0  0  0  0
 27 29  1  0  0  0  0
 27 26  1  0  0  0  0
 28 30  2  0  0  0  0
 29 33  1  0  0  0  0
 30 34  1  0  0  0  0
 30 29  1  0  0  0  0
 31 32  2  0  0  0  0
 32 33  1  0  0  0  0
 34 31  1  0  0  0  0
M  END
>  <MODEL>
9

>  <REMARK>
 VINA RESULT:      -7.5      2.347      8.168
  Name = 
  6 active torsions:
  status: ('A' for Active; 'I' for Inactive)
    1  A    between atoms: C_3  and  N_13
    2  A    between atoms: C_3  and  C_17
    3  A    between atoms: C_5  and  N_18
    4  A    between atoms: C_12  and  C_28
    5  A    between atoms: C_17  and  C_29
    6  A    between atoms: N_18  and  C_29
                            x       y       z     vdW  Elec       q    Type
                         _______ _______ _______ _____ _____    ______ ____

>  <TORSDO>
F 6

$$$$
