=
 OpenBabel11052413393D

 27 31  0  0  1  0  0  0  0  0999 V2000
  188.6710  178.5640  141.1190 C   0  0  0  0  0  2  0  0  0  0  0  0
  186.9090  178.0660  142.7620 C   0  0  0  0  0  0  0  0  0  0  0  0
  185.7690  178.5410  140.5910 N   0  0  0  0  0  0  0  0  0  0  0  0
  183.4190  179.2140  144.7270 N   0  0  0  0  0  0  0  0  0  0  0  0
  181.2010  178.5850  143.9230 C   0  0  0  0  0  1  0  0  0  0  0  0
  186.7740  177.9520  144.2500 C   0  0  0  0  0  3  0  0  0  0  0  0
  183.3940  178.6980  142.5080 C   0  0  2  0  0  3  0  0  0  0  0  0
  186.6330  178.0070  137.1350 C   0  0  0  0  0  3  0  0  0  0  0  0
  182.8760  178.0400  141.2720 C   0  0  0  0  0  1  0  0  0  0  0  0
  187.9470  177.2860  137.1240 C   0  0  0  0  0  2  0  0  0  0  0  0
  184.6620  178.9570  142.7910 C   0  0  1  0  0  3  0  0  0  0  0  0
  188.1590  177.5460  142.1050 C   0  0  2  0  0  3  0  0  0  0  0  0
  182.6510  178.8710  143.7450 C   0  0  0  0  0  0  0  0  0  0  0  0
  184.7720  179.3900  144.2140 C   0  0  2  0  0  3  0  0  0  0  0  0
  188.1190  178.2060  139.7650 C   0  0  2  0  0  3  0  0  0  0  0  0
  185.8550  178.5220  142.0340 C   0  0  0  0  0  0  0  0  0  0  0  0
  186.0440  178.4620  138.2470 C   0  0  0  0  0  3  0  0  0  0  0  0
  185.7650  178.5200  144.9270 C   0  0  0  0  0  3  0  0  0  0  0  0
  189.1230  178.1580  137.5830 C   0  0  0  0  0  2  0  0  0  0  0  0
  188.8190  178.9900  138.7520 N   0  0  0  0  0  2  0  0  0  0  0  0
  186.6200  178.4040  139.6100 C   0  0  0  0  0  0  0  0  0  0  0  0
  191.2930  176.4270  144.8380 C   0  0  0  0  0  3  0  0  0  0  0  0
  189.2490  177.1330  143.0550 C   0  0  0  0  0  0  0  0  0  0  0  0
  189.9860  175.9530  142.8570 C   0  0  0  0  0  3  0  0  0  0  0  0
  191.0030  175.6010  143.7480 C   0  0  0  0  0  3  0  0  0  0  0  0
  190.5650  177.6040  145.0370 C   0  0  0  0  0  3  0  0  0  0  0  0
  189.5480  177.9560  144.1460 C   0  0  0  0  0  3  0  0  0  0  0  0
  1 12  1  0  0  0  0
  2  6  1  0  0  0  0
  3 16  1  0  0  0  0
  6 18  2  0  0  0  0
  7  9  1  1  0  0  0
  7 11  1  0  0  0  0
  7 13  1  0  0  0  0
  8 17  2  0  0  0  0
 10  8  1  0  0  0  0
 10 19  1  0  0  0  0
 11 16  1  1  0  0  0
 11 14  1  0  0  0  0
 12  2  1  0  0  0  0
 12 23  1  1  0  0  0
 13  5  1  0  0  0  0
 13  4  2  0  0  0  0
 14  4  1  0  0  0  0
 14 18  1  1  0  0  0
 15  1  1  1  0  0  0
 16  2  2  0  0  0  0
 17 21  1  0  0  0  0
 19 20  1  0  0  0  0
 20 15  1  0  0  0  0
 21 15  1  0  0  0  0
 21  3  2  0  0  0  0
 22 26  1  0  0  0  0
 23 27  1  0  0  0  0
 24 23  2  0  0  0  0
 24 25  1  0  0  0  0
 25 22  2  0  0  0  0
 27 26  2  0  0  0  0
M  END
>  <MODEL>
1

>  <REMARK>
 VINA RESULT:     -10.3      0.000      0.000
  Name = 
  1 active torsions:
  status: ('A' for Active; 'I' for Inactive)
    1  A    between atoms: C_9  and  C_15
                            x       y       z     vdW  Elec       q    Type
                         _______ _______ _______ _____ _____    ______ ____

>  <TORSDO>
F 1

$$$$
=
 OpenBabel11052413393D

 27 31  0  0  1  0  0  0  0  0999 V2000
  189.4590  178.2390  142.7950 C   0  0  0  0  0  2  0  0  0  0  0  0
  187.3390  177.9770  144.0140 C   0  0  0  0  0  0  0  0  0  0  0  0
  186.7660  178.1950  141.5920 N   0  0  0  0  0  0  0  0  0  0  0  0
  183.5380  179.4150  144.9350 N   0  0  0  0  0  0  0  0  0  0  0  0
  181.5470  178.7250  143.7020 C   0  0  0  0  0  1  0  0  0  0  0  0
  186.8510  178.0530  145.4280 C   0  0  0  0  0  3  0  0  0  0  0  0
  184.0150  178.6260  142.8510 C   0  0  2  0  0  3  0  0  0  0  0  0
  188.3970  177.2190  138.5320 C   0  0  0  0  0  3  0  0  0  0  0  0
  183.7750  177.8270  141.6140 C   0  0  0  0  0  1  0  0  0  0  0  0
  189.6430  176.4820  138.9220 C   0  0  0  0  0  2  0  0  0  0  0  0
  185.1910  178.8990  143.3980 C   0  0  1  0  0  3  0  0  0  0  0  0
  188.6830  177.3610  143.7420 C   0  0  2  0  0  3  0  0  0  0  0  0
  183.0090  178.9640  143.8440 C   0  0  0  0  0  0  0  0  0  0  0  0
  184.9810  179.5050  144.7450 C   0  0  2  0  0  3  0  0  0  0  0  0
  189.2270  177.7230  141.4000 C   0  0  2  0  0  3  0  0  0  0  0  0
  186.5080  178.3550  143.0050 C   0  0  0  0  0  0  0  0  0  0  0  0
  187.5830  177.8190  139.4090 C   0  0  0  0  0  3  0  0  0  0  0  0
  185.7370  178.7160  145.7720 C   0  0  0  0  0  3  0  0  0  0  0  0
  190.7150  177.3870  139.5440 C   0  0  0  0  0  2  0  0  0  0  0  0
  190.1810  178.3630  140.4990 N   0  0  0  0  0  2  0  0  0  0  0  0
  187.8180  177.9230  140.8670 C   0  0  0  0  0  0  0  0  0  0  0  0
  191.0590  176.4390  147.2140 C   0  0  0  0  0  3  0  0  0  0  0  0
  189.4990  177.0530  144.9680 C   0  0  0  0  0  0  0  0  0  0  0  0
  188.9240  177.0490  146.2490 C   0  0  0  0  0  3  0  0  0  0  0  0
  189.7040  176.7440  147.3680 C   0  0  0  0  0  3  0  0  0  0  0  0
  191.6350  176.4380  145.9400 C   0  0  0  0  0  3  0  0  0  0  0  0
  190.8560  176.7420  144.8200 C   0  0  0  0  0  3  0  0  0  0  0  0
  1 12  1  0  0  0  0
  2  6  1  0  0  0  0
  3 16  1  0  0  0  0
  5 13  1  0  0  0  0
  6 18  2  0  0  0  0
  7  9  1  1  0  0  0
  7 11  1  0  0  0  0
  7 13  1  0  0  0  0
  8 10  1  0  0  0  0
  8 17  2  0  0  0  0
 10 19  1  0  0  0  0
 11 16  1  1  0  0  0
 11 14  1  0  0  0  0
 12  2  1  0  0  0  0
 12 23  1  1  0  0  0
 13  4  2  0  0  0  0
 14  4  1  0  0  0  0
 14 18  1  1  0  0  0
 15  1  1  1  0  0  0
 16  2  2  0  0  0  0
 17 21  1  0  0  0  0
 19 20  1  0  0  0  0
 20 15  1  0  0  0  0
 21 15  1  0  0  0  0
 21  3  2  0  0  0  0
 22 25  1  0  0  0  0
 23 24  1  0  0  0  0
 24 25  2  0  0  0  0
 26 22  2  0  0  0  0
 27 23  2  0  0  0  0
 27 26  1  0  0  0  0
M  END
>  <MODEL>
2

>  <REMARK>
 VINA RESULT:      -9.9      1.393      1.919
  Name = 
  1 active torsions:
  status: ('A' for Active; 'I' for Inactive)
    1  A    between atoms: C_9  and  C_15
                            x       y       z     vdW  Elec       q    Type
                         _______ _______ _______ _____ _____    ______ ____

>  <TORSDO>
F 1

$$$$
=
 OpenBabel11052413393D

 27 31  0  0  1  0  0  0  0  0999 V2000
  187.8140  178.7250  140.5270 C   0  0  0  0  0  2  0  0  0  0  0  0
  189.4660  177.5780  141.9440 C   0  0  0  0  0  0  0  0  0  0  0  0
  187.5070  178.1180  143.3970 N   0  0  0  0  0  0  0  0  0  0  0  0
  191.8580  177.5620  145.3550 N   0  0  0  0  0  0  0  0  0  0  0  0
  191.1200  176.5760  147.4630 C   0  0  0  0  0  1  0  0  0  0  0  0
  190.9140  177.2000  141.8840 C   0  0  0  0  0  3  0  0  0  0  0  0
  189.5910  177.4150  145.5200 C   0  0  2  0  0  3  0  0  0  0  0  0
  183.9570  178.3560  142.8340 C   0  0  0  0  0  3  0  0  0  0  0  0
  188.2980  176.8610  146.0200 C   0  0  0  0  0  1  0  0  0  0  0  0
  183.7180  177.9680  141.4060 C   0  0  0  0  0  2  0  0  0  0  0  0
  189.8210  177.9110  144.3120 C   0  0  1  0  0  3  0  0  0  0  0  0
  188.6350  177.4730  140.6950 C   0  0  2  0  0  3  0  0  0  0  0  0
  190.8900  177.2130  146.1380 C   0  0  0  0  0  0  0  0  0  0  0  0
  191.2870  178.1240  144.1380 C   0  0  2  0  0  3  0  0  0  0  0  0
  186.4620  178.4700  141.1390 C   0  0  2  0  0  3  0  0  0  0  0  0
  188.9120  177.8890  143.1470 C   0  0  0  0  0  0  0  0  0  0  0  0
  185.1730  178.4800  143.3770 C   0  0  0  0  0  3  0  0  0  0  0  0
  191.7550  177.4050  142.9080 C   0  0  0  0  0  3  0  0  0  0  0  0
  184.2400  179.0040  140.4000 C   0  0  0  0  0  2  0  0  0  0  0  0
  185.5590  179.5460  140.7420 N   0  0  0  0  0  2  0  0  0  0  0  0
  186.4570  178.3390  142.6520 C   0  0  0  0  0  0  0  0  0  0  0  0
  190.8010  176.6340  137.0690 C   0  0  0  0  0  3  0  0  0  0  0  0
  189.4110  177.1750  139.4410 C   0  0  0  0  0  0  0  0  0  0  0  0
  190.4840  176.2680  139.4400 C   0  0  0  0  0  3  0  0  0  0  0  0
  191.1770  176.0010  138.2570 C   0  0  0  0  0  3  0  0  0  0  0  0
  189.7320  177.5340  137.0640 C   0  0  0  0  0  3  0  0  0  0  0  0
  189.0380  177.8020  138.2470 C   0  0  0  0  0  3  0  0  0  0  0  0
  1 12  1  0  0  0  0
  2 16  2  0  0  0  0
  4 13  2  0  0  0  0
  6  2  1  0  0  0  0
  6 18  2  0  0  0  0
  7  9  1  6  0  0  0
  7 13  1  0  0  0  0
  8 17  2  0  0  0  0
 10  8  1  0  0  0  0
 11 16  1  6  0  0  0
 11  7  1  0  0  0  0
 12 23  1  6  0  0  0
 12  2  1  0  0  0  0
 13  5  1  0  0  0  0
 14 18  1  6  0  0  0
 14 11  1  0  0  0  0
 14  4  1  0  0  0  0
 15  1  1  1  0  0  0
 15 21  1  0  0  0  0
 16  3  1  0  0  0  0
 19 20  1  0  0  0  0
 19 10  1  0  0  0  0
 20 15  1  0  0  0  0
 21 17  1  0  0  0  0
 21  3  2  0  0  0  0
 22 25  1  0  0  0  0
 24 23  1  0  0  0  0
 25 24  2  0  0  0  0
 26 22  2  0  0  0  0
 26 27  1  0  0  0  0
 27 23  2  0  0  0  0
M  END
>  <MODEL>
3

>  <REMARK>
 VINA RESULT:      -9.7      2.213      5.837
  Name = 
  1 active torsions:
  status: ('A' for Active; 'I' for Inactive)
    1  A    between atoms: C_9  and  C_15
                            x       y       z     vdW  Elec       q    Type
                         _______ _______ _______ _____ _____    ______ ____

>  <TORSDO>
F 1

$$$$
=
 OpenBabel11052413393D

 27 31  0  0  1  0  0  0  0  0999 V2000
  187.9050  178.7780  141.7480 C   0  0  0  0  0  2  0  0  0  0  0  0
  185.7810  178.2550  142.8730 C   0  0  0  0  0  0  0  0  0  0  0  0
  185.2900  178.4300  140.4300 N   0  0  0  0  0  0  0  0  0  0  0  0
  181.8020  179.2270  143.6370 N   0  0  0  0  0  0  0  0  0  0  0  0
  179.9600  178.3210  142.3150 C   0  0  0  0  0  1  0  0  0  0  0  0
  185.2280  178.2580  144.2650 C   0  0  0  0  0  3  0  0  0  0  0  0
  182.4550  178.5220  141.5710 C   0  0  2  0  0  3  0  0  0  0  0  0
  187.1510  177.6850  137.4370 C   0  0  0  0  0  3  0  0  0  0  0  0
  182.3640  177.7120  140.3200 C   0  0  0  0  0  1  0  0  0  0  0  0
  188.4580  177.0950  137.8760 C   0  0  0  0  0  2  0  0  0  0  0  0
  183.5670  178.9250  142.1690 C   0  0  1  0  0  3  0  0  0  0  0  0
  187.1990  177.8040  142.6550 C   0  0  2  0  0  3  0  0  0  0  0  0
  181.3760  178.7280  142.5220 C   0  0  0  0  0  0  0  0  0  0  0  0
  183.2310  179.4870  143.5100 C   0  0  2  0  0  3  0  0  0  0  0  0
  187.7940  178.2530  140.3410 C   0  0  2  0  0  3  0  0  0  0  0  0
  184.9540  178.5430  141.8310 C   0  0  0  0  0  0  0  0  0  0  0  0
  186.2370  178.1760  138.2820 C   0  0  0  0  0  3  0  0  0  0  0  0
  184.0300  178.7820  144.5640 C   0  0  0  0  0  3  0  0  0  0  0  0
  189.3880  178.1130  138.5490 C   0  0  0  0  0  2  0  0  0  0  0  0
  188.7030  179.0100  139.4860 N   0  0  0  0  0  2  0  0  0  0  0  0
  186.3960  178.2910  139.7490 C   0  0  0  0  0  0  0  0  0  0  0  0
  189.5140  177.1240  146.2230 C   0  0  0  0  0  3  0  0  0  0  0  0
  187.9930  177.5810  143.9130 C   0  0  0  0  0  0  0  0  0  0  0  0
  187.3880  177.6280  145.1800 C   0  0  0  0  0  3  0  0  0  0  0  0
  188.1480  177.4020  146.3310 C   0  0  0  0  0  3  0  0  0  0  0  0
  190.1190  177.0720  144.9640 C   0  0  0  0  0  3  0  0  0  0  0  0
  189.3600  177.2980  143.8120 C   0  0  0  0  0  3  0  0  0  0  0  0
  1 12  1  0  0  0  0
  2  6  1  0  0  0  0
  3 16  1  0  0  0  0
  5 13  1  0  0  0  0
  6 18  2  0  0  0  0
  7  9  1  1  0  0  0
  7 11  1  0  0  0  0
  7 13  1  0  0  0  0
  8 10  1  0  0  0  0
  8 17  2  0  0  0  0
 10 19  1  0  0  0  0
 11 16  1  1  0  0  0
 11 14  1  0  0  0  0
 12  2  1  0  0  0  0
 12 23  1  1  0  0  0
 13  4  2  0  0  0  0
 14  4  1  0  0  0  0
 14 18  1  1  0  0  0
 15  1  1  1  0  0  0
 16  2  2  0  0  0  0
 17 21  1  0  0  0  0
 19 20  1  0  0  0  0
 20 15  1  0  0  0  0
 21 15  1  0  0  0  0
 21  3  2  0  0  0  0
 22 25  1  0  0  0  0
 23 24  1  0  0  0  0
 24 25  2  0  0  0  0
 26 22  2  0  0  0  0
 27 23  2  0  0  0  0
 27 26  1  0  0  0  0
M  END
>  <MODEL>
4

>  <REMARK>
 VINA RESULT:      -9.3      1.133      1.665
  Name = 
  1 active torsions:
  status: ('A' for Active; 'I' for Inactive)
    1  A    between atoms: C_9  and  C_15
                            x       y       z     vdW  Elec       q    Type
                         _______ _______ _______ _____ _____    ______ ____

>  <TORSDO>
F 1

$$$$
=
 OpenBabel11052413393D

 27 31  0  0  1  0  0  0  0  0999 V2000
  187.0830  178.7940  139.3810 C   0  0  0  0  0  2  0  0  0  0  0  0
  188.8710  177.6350  140.6120 C   0  0  0  0  0  0  0  0  0  0  0  0
  187.1380  178.2910  142.2870 N   0  0  0  0  0  0  0  0  0  0  0  0
  191.6900  177.6440  143.6790 N   0  0  0  0  0  0  0  0  0  0  0  0
  191.2060  176.7530  145.9000 C   0  0  0  0  0  1  0  0  0  0  0  0
  190.2860  177.2050  140.3760 C   0  0  0  0  0  3  0  0  0  0  0  0
  189.4600  177.5830  144.1430 C   0  0  2  0  0  3  0  0  0  0  0  0
  183.5540  178.6360  142.1840 C   0  0  0  0  0  3  0  0  0  0  0  0
  188.2280  177.0920  144.8280 C   0  0  0  0  0  1  0  0  0  0  0  0
  183.1170  178.2110  140.8140 C   0  0  0  0  0  2  0  0  0  0  0  0
  189.5450  178.0310  142.8990 C   0  0  1  0  0  3  0  0  0  0  0  0
  187.8800  177.5190  139.4860 C   0  0  2  0  0  3  0  0  0  0  0  0
  190.8230  177.3550  144.5940 C   0  0  0  0  0  0  0  0  0  0  0  0
  190.9810  178.1870  142.5270 C   0  0  2  0  0  3  0  0  0  0  0  0
  185.8170  178.6070  140.1730 C   0  0  2  0  0  3  0  0  0  0  0  0
  188.4900  178.0050  141.8640 C   0  0  0  0  0  0  0  0  0  0  0  0
  184.8340  178.7340  142.5590 C   0  0  0  0  0  3  0  0  0  0  0  0
  191.2610  177.4120  141.2740 C   0  0  0  0  0  3  0  0  0  0  0  0
  183.5330  179.1940  139.7120 C   0  0  0  0  0  2  0  0  0  0  0  0
  184.9020  179.7000  139.8580 N   0  0  0  0  0  2  0  0  0  0  0  0
  186.0060  178.5250  141.6780 C   0  0  0  0  0  0  0  0  0  0  0  0
  189.5990  176.4140  135.6950 C   0  0  0  0  0  3  0  0  0  0  0  0
  188.4740  177.1540  138.1530 C   0  0  0  0  0  0  0  0  0  0  0  0
  189.0160  178.1300  137.3000 C   0  0  0  0  0  3  0  0  0  0  0  0
  189.5760  177.7600  136.0740 C   0  0  0  0  0  3  0  0  0  0  0  0
  189.0650  175.4390  136.5420 C   0  0  0  0  0  3  0  0  0  0  0  0
  188.5060  175.8090  137.7690 C   0  0  0  0  0  3  0  0  0  0  0  0
  1 12  1  0  0  0  0
  2 16  2  0  0  0  0
  4 13  2  0  0  0  0
  6  2  1  0  0  0  0
  6 18  2  0  0  0  0
  7 13  1  0  0  0  0
  7  9  1  6  0  0  0
  8 17  2  0  0  0  0
 10  8  1  0  0  0  0
 11 16  1  6  0  0  0
 11  7  1  0  0  0  0
 12 23  1  6  0  0  0
 12  2  1  0  0  0  0
 13  5  1  0  0  0  0
 14 18  1  6  0  0  0
 14 11  1  0  0  0  0
 14  4  1  0  0  0  0
 15  1  1  6  0  0  0
 15 21  1  0  0  0  0
 16  3  1  0  0  0  0
 19 20  1  0  0  0  0
 19 10  1  0  0  0  0
 20 15  1  0  0  0  0
 21  3  2  0  0  0  0
 21 17  1  0  0  0  0
 22 25  2  0  0  0  0
 22 26  1  0  0  0  0
 24 23  2  0  0  0  0
 25 24  1  0  0  0  0
 26 27  2  0  0  0  0
 27 23  1  0  0  0  0
M  END
>  <MODEL>
5

>  <REMARK>
 VINA RESULT:      -8.9      1.816      6.091
  Name = 
  1 active torsions:
  status: ('A' for Active; 'I' for Inactive)
    1  A    between atoms: C_9  and  C_15
                            x       y       z     vdW  Elec       q    Type
                         _______ _______ _______ _____ _____    ______ ____

>  <TORSDO>
F 1

$$$$
=
 OpenBabel11052413393D

 27 31  0  0  1  0  0  0  0  0999 V2000
  189.4850  178.0530  138.5340 C   0  0  0  0  0  2  0  0  0  0  0  0
  190.1120  177.2090  140.7580 C   0  0  0  0  0  0  0  0  0  0  0  0
  187.8050  178.1460  140.9560 N   0  0  0  0  0  0  0  0  0  0  0  0
  190.6320  177.9020  144.8330 N   0  0  0  0  0  0  0  0  0  0  0  0
  188.8710  177.4630  146.4670 C   0  0  0  0  0  1  0  0  0  0  0  0
  191.3530  176.7740  141.4740 C   0  0  0  0  0  3  0  0  0  0  0  0
  188.5490  177.8810  143.9090 C   0  0  2  0  0  3  0  0  0  0  0  0
  184.9910  178.3770  138.7200 C   0  0  0  0  0  3  0  0  0  0  0  0
  187.1070  177.5080  143.8180 C   0  0  0  0  0  1  0  0  0  0  0  0
  185.3850  177.6750  137.4550 C   0  0  0  0  0  2  0  0  0  0  0  0
  189.3790  178.0720  142.8940 C   0  0  1  0  0  3  0  0  0  0  0  0
  189.9460  176.8450  139.3080 C   0  0  2  0  0  3  0  0  0  0  0  0
  189.3730  177.7810  145.1020 C   0  0  0  0  0  0  0  0  0  0  0  0
  190.7740  178.1850  143.4110 C   0  0  2  0  0  3  0  0  0  0  0  0
  187.9830  177.9990  138.4540 C   0  0  2  0  0  3  0  0  0  0  0  0
  189.1170  177.8130  141.4620 C   0  0  0  0  0  0  0  0  0  0  0  0
  185.8230  178.5790  139.7480 C   0  0  0  0  0  3  0  0  0  0  0  0
  191.6470  177.1810  142.7180 C   0  0  0  0  0  3  0  0  0  0  0  0
  186.4540  178.4260  136.6510 C   0  0  0  0  0  2  0  0  0  0  0  0
  187.5300  178.9840  137.4770 N   0  0  0  0  0  2  0  0  0  0  0  0
  187.2610  178.2250  139.7720 C   0  0  0  0  0  0  0  0  0  0  0  0
  193.3980  175.0360  137.4770 C   0  0  0  0  0  3  0  0  0  0  0  0
  191.1610  176.2350  138.6640 C   0  0  0  0  0  0  0  0  0  0  0  0
  192.4100  176.8760  138.7000 C   0  0  0  0  0  3  0  0  0  0  0  0
  193.5240  176.2780  138.1060 C   0  0  0  0  0  3  0  0  0  0  0  0
  192.1580  174.3920  137.4420 C   0  0  0  0  0  3  0  0  0  0  0  0
  191.0430  174.9890  138.0370 C   0  0  0  0  0  3  0  0  0  0  0  0
  1 12  1  0  0  0  0
  2 16  2  0  0  0  0
  2  6  1  0  0  0  0
  3 16  1  0  0  0  0
  4 13  2  0  0  0  0
  6 18  2  0  0  0  0
  7  9  1  6  0  0  0
  7 13  1  0  0  0  0
  8 17  2  0  0  0  0
 10  8  1  0  0  0  0
 11 16  1  6  0  0  0
 11 14  1  0  0  0  0
 11  7  1  0  0  0  0
 12 23  1  6  0  0  0
 12  2  1  0  0  0  0
 13  5  1  0  0  0  0
 14 18  1  6  0  0  0
 14  4  1  0  0  0  0
 15  1  1  1  0  0  0
 15 21  1  0  0  0  0
 17 21  1  0  0  0  0
 19 10  1  0  0  0  0
 19 20  1  0  0  0  0
 20 15  1  0  0  0  0
 21  3  2  0  0  0  0
 22 25  1  0  0  0  0
 23 24  1  0  0  0  0
 25 24  2  0  0  0  0
 26 22  2  0  0  0  0
 26 27  1  0  0  0  0
 27 23  2  0  0  0  0
M  END
>  <MODEL>
6

>  <REMARK>
 VINA RESULT:      -8.8      2.702      5.088
  Name = 
  1 active torsions:
  status: ('A' for Active; 'I' for Inactive)
    1  A    between atoms: C_9  and  C_15
                            x       y       z     vdW  Elec       q    Type
                         _______ _______ _______ _____ _____    ______ ____

>  <TORSDO>
F 1

$$$$
=
 OpenBabel11052413393D

 27 31  0  0  1  0  0  0  0  0999 V2000
  186.3570  178.9700  144.9800 C   0  0  0  0  0  2  0  0  0  0  0  0
  186.7720  178.1230  142.7080 C   0  0  0  0  0  0  0  0  0  0  0  0
  188.7970  177.5860  144.0680 N   0  0  0  0  0  0  0  0  0  0  0  0
  189.1670  178.0420  139.3000 N   0  0  0  0  0  0  0  0  0  0  0  0
  190.9090  176.3640  138.9680 C   0  0  0  0  0  1  0  0  0  0  0  0
  186.1890  178.2810  141.3370 C   0  0  0  0  0  3  0  0  0  0  0  0
  189.8810  177.1070  141.2510 C   0  0  2  0  0  3  0  0  0  0  0  0
  189.3450  176.7550  147.5300 C   0  0  0  0  0  3  0  0  0  0  0  0
  190.4870  176.0440  142.1060 C   0  0  0  0  0  1  0  0  0  0  0  0
  187.9950  176.6870  148.1780 C   0  0  0  0  0  2  0  0  0  0  0  0
  188.9120  177.9410  141.5990 C   0  0  1  0  0  3  0  0  0  0  0  0
  185.8430  178.0670  143.8890 C   0  0  2  0  0  3  0  0  0  0  0  0
  190.0090  177.2020  139.8070 C   0  0  0  0  0  0  0  0  0  0  0  0
  188.4310  178.6710  140.3900 C   0  0  2  0  0  3  0  0  0  0  0  0
  187.1840  178.1300  145.9170 C   0  0  2  0  0  3  0  0  0  0  0  0
  188.1090  177.9130  142.8400 C   0  0  0  0  0  0  0  0  0  0  0  0
  189.5430  177.1370  146.2630 C   0  0  0  0  0  3  0  0  0  0  0  0
  186.9490  178.4880  140.2510 C   0  0  0  0  0  3  0  0  0  0  0  0
  187.3170  178.0560  148.3140 C   0  0  0  0  0  2  0  0  0  0  0  0
  187.4530  178.9030  147.1250 N   0  0  0  0  0  2  0  0  0  0  0  0
  188.4940  177.6240  145.3380 C   0  0  0  0  0  0  0  0  0  0  0  0
  181.7050  178.9330  143.0630 C   0  0  0  0  0  3  0  0  0  0  0  0
  184.4030  178.3760  143.5790 C   0  0  0  0  0  0  0  0  0  0  0  0
  183.9020  178.2950  142.2700 C   0  0  0  0  0  3  0  0  0  0  0  0
  182.5560  178.5740  142.0140 C   0  0  0  0  0  3  0  0  0  0  0  0
  182.2000  179.0110  144.3690 C   0  0  0  0  0  3  0  0  0  0  0  0
  183.5450  178.7320  144.6260 C   0  0  0  0  0  3  0  0  0  0  0  0
  2 16  2  0  0  0  0
  2 12  1  0  0  0  0
  3 21  2  0  0  0  0
  4 13  2  0  0  0  0
  4 14  1  0  0  0  0
  5 13  1  0  0  0  0
  6  2  1  0  0  0  0
  7 11  1  0  0  0  0
  7  9  1  6  0  0  0
  8 10  1  0  0  0  0
 10 19  1  0  0  0  0
 11 16  1  6  0  0  0
 12 23  1  6  0  0  0
 12  1  1  0  0  0  0
 13  7  1  0  0  0  0
 14 18  1  6  0  0  0
 14 11  1  0  0  0  0
 15  1  1  6  0  0  0
 15 20  1  0  0  0  0
 16  3  1  0  0  0  0
 17  8  2  0  0  0  0
 18  6  2  0  0  0  0
 20 19  1  0  0  0  0
 21 15  1  0  0  0  0
 21 17  1  0  0  0  0
 22 26  1  0  0  0  0
 23 27  1  0  0  0  0
 24 23  2  0  0  0  0
 25 24  1  0  0  0  0
 25 22  2  0  0  0  0
 26 27  2  0  0  0  0
M  END
>  <MODEL>
7

>  <REMARK>
 VINA RESULT:      -8.6      2.123      7.337
  Name = 
  1 active torsions:
  status: ('A' for Active; 'I' for Inactive)
    1  A    between atoms: C_9  and  C_15
                            x       y       z     vdW  Elec       q    Type
                         _______ _______ _______ _____ _____    ______ ____

>  <TORSDO>
F 1

$$$$
=
 OpenBabel11052413393D

 27 31  0  0  1  0  0  0  0  0999 V2000
  188.9970  176.7230  141.4720 C   0  0  0  0  0  2  0  0  0  0  0  0
  186.9400  178.0430  141.1910 C   0  0  0  0  0  0  0  0  0  0  0  0
  187.2890  177.7490  143.6470 N   0  0  0  0  0  0  0  0  0  0  0  0
  182.8690  178.5280  141.9330 N   0  0  0  0  0  0  0  0  0  0  0  0
  182.0320  179.8230  143.8260 C   0  0  0  0  0  1  0  0  0  0  0  0
  185.9800  178.3880  140.0950 C   0  0  0  0  0  3  0  0  0  0  0  0
  184.3940  178.7280  143.6140 C   0  0  2  0  0  3  0  0  0  0  0  0
  190.1990  177.4780  145.7520 C   0  0  0  0  0  3  0  0  0  0  0  0
  185.0250  179.3670  144.8060 C   0  0  0  0  0  1  0  0  0  0  0  0
  191.3940  177.6550  144.8630 C   0  0  0  0  0  2  0  0  0  0  0  0
  185.0170  178.0570  142.6560 C   0  0  1  0  0  3  0  0  0  0  0  0
  188.4090  177.9750  140.8750 C   0  0  2  0  0  3  0  0  0  0  0  0
  183.0540  179.0020  143.1220 C   0  0  0  0  0  0  0  0  0  0  0  0
  184.0680  177.8010  141.5340 C   0  0  2  0  0  3  0  0  0  0  0  0
  189.5660  177.0830  142.8180 C   0  0  2  0  0  3  0  0  0  0  0  0
  186.4760  177.9200  142.4640 C   0  0  0  0  0  0  0  0  0  0  0  0
  188.9410  177.4190  145.3020 C   0  0  0  0  0  3  0  0  0  0  0  0
  184.6500  178.3260  140.2560 C   0  0  0  0  0  3  0  0  0  0  0  0
  191.6200  176.4770  143.9070 C   0  0  0  0  0  2  0  0  0  0  0  0
  190.3880  175.9730  143.2910 N   0  0  0  0  0  2  0  0  0  0  0  0
  188.5360  177.4350  143.8780 C   0  0  0  0  0  0  0  0  0  0  0  0
  189.4160  178.2040  136.6930 C   0  0  0  0  0  3  0  0  0  0  0  0
  188.7480  178.0750  139.4120 C   0  0  0  0  0  0  0  0  0  0  0  0
  188.8090  179.3160  138.7560 C   0  0  0  0  0  3  0  0  0  0  0  0
  189.1400  179.3780  137.4000 C   0  0  0  0  0  3  0  0  0  0  0  0
  189.3600  176.9680  137.3430 C   0  0  0  0  0  3  0  0  0  0  0  0
  189.0290  176.9040  138.6990 C   0  0  0  0  0  3  0  0  0  0  0  0
  2 16  2  0  0  0  0
  3 21  2  0  0  0  0
  4 13  2  0  0  0  0
  6 18  2  0  0  0  0
  6  2  1  0  0  0  0
  7  9  1  6  0  0  0
 10  8  1  0  0  0  0
 11 16  1  6  0  0  0
 11  7  1  0  0  0  0
 12 23  1  6  0  0  0
 12  2  1  0  0  0  0
 12  1  1  0  0  0  0
 13  7  1  0  0  0  0
 13  5  1  0  0  0  0
 14 18  1  6  0  0  0
 14  4  1  0  0  0  0
 14 11  1  0  0  0  0
 15  1  1  6  0  0  0
 15 20  1  0  0  0  0
 15 21  1  0  0  0  0
 16  3  1  0  0  0  0
 17  8  2  0  0  0  0
 19 10  1  0  0  0  0
 20 19  1  0  0  0  0
 21 17  1  0  0  0  0
 22 26  2  0  0  0  0
 22 25  1  0  0  0  0
 24 23  1  0  0  0  0
 25 24  2  0  0  0  0
 26 27  1  0  0  0  0
 27 23  2  0  0  0  0
M  END
>  <MODEL>
8

>  <REMARK>
 VINA RESULT:      -8.2      1.764      5.121
  Name = 
  1 active torsions:
  status: ('A' for Active; 'I' for Inactive)
    1  A    between atoms: C_9  and  C_15
                            x       y       z     vdW  Elec       q    Type
                         _______ _______ _______ _____ _____    ______ ____

>  <TORSDO>
F 1

$$$$
=
 OpenBabel11052413393D

 27 31  0  0  1  0  0  0  0  0999 V2000
  191.7630  177.3650  139.9360 C   0  0  0  0  0  2  0  0  0  0  0  0
  189.3170  177.3420  140.2060 C   0  0  0  0  0  0  0  0  0  0  0  0
  189.8000  176.6310  137.8610 N   0  0  0  0  0  0  0  0  0  0  0  0
  185.5640  178.6280  138.9330 N   0  0  0  0  0  0  0  0  0  0  0  0
  184.2150  177.3520  137.3480 C   0  0  0  0  0  1  0  0  0  0  0  0
  188.2990  177.8640  141.1720 C   0  0  0  0  0  3  0  0  0  0  0  0
  186.8050  177.2040  137.6580 C   0  0  2  0  0  3  0  0  0  0  0  0
  192.4800  174.8030  136.2950 C   0  0  0  0  0  3  0  0  0  0  0  0
  187.0460  175.9990  136.8110 C   0  0  0  0  0  1  0  0  0  0  0  0
  193.4120  174.3790  137.3900 C   0  0  0  0  0  2  0  0  0  0  0  0
  187.6680  177.7680  138.4910 C   0  0  1  0  0  3  0  0  0  0  0  0
  190.6170  176.8060  140.7400 C   0  0  2  0  0  3  0  0  0  0  0  0
  185.5020  177.7700  137.9670 C   0  0  0  0  0  0  0  0  0  0  0  0
  186.9610  178.7870  139.3200 C   0  0  2  0  0  3  0  0  0  0  0  0
  192.0920  176.3690  138.8570 C   0  0  2  0  0  3  0  0  0  0  0  0
  188.9960  177.2540  138.8870 C   0  0  0  0  0  0  0  0  0  0  0  0
  191.4160  175.5900  136.4880 C   0  0  0  0  0  3  0  0  0  0  0  0
  187.1830  178.4920  140.7730 C   0  0  0  0  0  3  0  0  0  0  0  0
  194.1860  175.5470  138.0150 C   0  0  0  0  0  2  0  0  0  0  0  0
  193.3670  176.7400  138.2500 N   0  0  0  0  0  2  0  0  0  0  0  0
  191.0380  176.2260  137.7710 C   0  0  0  0  0  0  0  0  0  0  0  0
  191.3070  177.5000  144.9340 C   0  0  0  0  0  3  0  0  0  0  0  0
  190.8400  177.0340  142.2100 C   0  0  0  0  0  0  0  0  0  0  0  0
  190.5390  176.0430  143.1600 C   0  0  0  0  0  3  0  0  0  0  0  0
  190.7720  176.2780  144.5180 C   0  0  0  0  0  3  0  0  0  0  0  0
  191.6120  178.4880  143.9920 C   0  0  0  0  0  3  0  0  0  0  0  0
  191.3810  178.2530  142.6340 C   0  0  0  0  0  3  0  0  0  0  0  0
  1 12  1  0  0  0  0
  2 12  1  0  0  0  0
  2  6  1  0  0  0  0
  3 16  1  0  0  0  0
  4 14  1  0  0  0  0
  5 13  1  0  0  0  0
  7  9  1  1  0  0  0
  7 13  1  0  0  0  0
  7 11  1  0  0  0  0
  8 17  2  0  0  0  0
  8 10  1  0  0  0  0
 10 19  1  0  0  0  0
 11 16  1  1  0  0  0
 11 14  1  0  0  0  0
 12 23  1  1  0  0  0
 13  4  2  0  0  0  0
 14 18  1  1  0  0  0
 15  1  1  1  0  0  0
 16  2  2  0  0  0  0
 17 21  1  0  0  0  0
 18  6  2  0  0  0  0
 19 20  1  0  0  0  0
 20 15  1  0  0  0  0
 21  3  2  0  0  0  0
 21 15  1  0  0  0  0
 23 27  2  0  0  0  0
 23 24  1  0  0  0  0
 24 25  2  0  0  0  0
 25 22  1  0  0  0  0
 26 22  2  0  0  0  0
 27 26  1  0  0  0  0
M  END
>  <MODEL>
9

>  <REMARK>
 VINA RESULT:      -8.1      3.015      4.831
  Name = 
  1 active torsions:
  status: ('A' for Active; 'I' for Inactive)
    1  A    between atoms: C_9  and  C_15
                            x       y       z     vdW  Elec       q    Type
                         _______ _______ _______ _____ _____    ______ ____

>  <TORSDO>
F 1

$$$$
