=
 OpenBabel11052413393D

 27 31  0  0  1  0  0  0  0  0999 V2000
  188.5500  176.3330  143.0990 O   0  0  0  0  0  0  0  0  0  0  0  0
  187.2460  177.9260  144.3030 C   0  0  0  0  0  0  0  0  0  0  0  0
  186.6120  178.0330  141.8810 N   0  0  0  0  0  2  0  0  0  0  0  0
  183.2120  179.1050  145.1290 C   0  0  0  0  0  2  0  0  0  0  0  0
  181.6120  178.1920  143.5210 N   0  0  0  0  0  1  0  0  0  0  0  0
  186.8650  178.1090  145.6530 C   0  0  0  0  0  3  0  0  0  0  0  0
  183.8380  178.8120  142.8350 C   0  0  0  0  0  0  0  0  0  0  0  0
  189.2760  178.7910  139.3930 C   0  0  0  0  0  2  0  0  0  0  0  0
  183.8190  178.7770  141.5770 O   0  0  0  0  0  0  0  0  0  0  0  0
  190.3070  177.7240  139.0080 C   0  0  0  0  0  2  0  0  0  0  0  0
  184.9920  178.5230  143.6550 C   0  0  0  0  0  0  0  0  0  0  0  0
  188.6400  177.4530  143.9460 C   0  0  1  0  0  3  0  0  0  0  0  0
  182.6680  179.1760  143.6880 C   0  0  2  0  0  3  0  0  0  0  0  0
  184.6390  178.6910  144.9690 C   0  0  0  0  0  0  0  0  0  0  0  0
  188.7240  176.7400  141.7540 C   0  0  2  0  0  3  0  0  0  0  0  0
  186.2920  178.1600  143.2760 C   0  0  0  0  0  0  0  0  0  0  0  0
  187.9430  178.2130  139.8460 C   0  0  0  0  0  2  0  0  0  0  0  0
  185.5620  178.4960  145.9920 C   0  0  0  0  0  3  0  0  0  0  0  0
  190.3480  176.4760  139.8970 C   0  0  0  0  0  2  0  0  0  0  0  0
  190.2030  176.7830  141.3800 C   0  0  0  0  0  2  0  0  0  0  0  0
  187.9720  178.0290  141.3550 C   0  0  1  0  0  3  0  0  0  0  0  0
  191.2190  176.6270  147.2880 C   0  0  0  0  0  3  0  0  0  0  0  0
  189.5260  177.1540  145.1200 C   0  0  0  0  0  0  0  0  0  0  0  0
  190.8880  176.9150  144.9060 C   0  0  0  0  0  3  0  0  0  0  0  0
  191.7330  176.6510  145.9880 C   0  0  0  0  0  3  0  0  0  0  0  0
  189.8590  176.8680  147.5060 C   0  0  0  0  0  3  0  0  0  0  0  0
  189.0140  177.1330  146.4250 C   0  0  0  0  0  3  0  0  0  0  0  0
  1 12  1  0  0  0  0
  2  6  1  0  0  0  0
  3 16  1  0  0  0  0
  6 18  2  0  0  0  0
  7 11  1  0  0  0  0
  7 13  1  0  0  0  0
  8 17  1  0  0  0  0
  9  7  2  0  0  0  0
 10  8  1  0  0  0  0
 10 19  1  0  0  0  0
 11 14  2  0  0  0  0
 12  2  1  0  0  0  0
 12 23  1  1  0  0  0
 13  5  1  1  0  0  0
 13  4  1  0  0  0  0
 14  4  1  0  0  0  0
 14 18  1  0  0  0  0
 15 20  1  1  0  0  0
 15  1  1  0  0  0  0
 16 11  1  0  0  0  0
 16  2  2  0  0  0  0
 19 20  1  0  0  0  0
 21 17  1  6  0  0  0
 21 15  1  0  0  0  0
 21  3  1  0  0  0  0
 22 26  1  0  0  0  0
 23 27  1  0  0  0  0
 24 23  2  0  0  0  0
 24 25  1  0  0  0  0
 25 22  2  0  0  0  0
 27 26  2  0  0  0  0
M  END
>  <MODEL>
1

>  <REMARK>
 VINA RESULT:     -11.0      0.000      0.000
  Name = 
  1 active torsions:
  status: ('A' for Active; 'I' for Inactive)
    1  A    between atoms: C_9  and  C_15
                            x       y       z     vdW  Elec       q    Type
                         _______ _______ _______ _____ _____    ______ ____

>  <TORSDO>
F 1

$$$$
=
 OpenBabel11052413393D

 27 31  0  0  1  0  0  0  0  0999 V2000
  187.5630  176.6350  143.9620 O   0  0  0  0  0  0  0  0  0  0  0  0
  185.8770  178.2830  144.3240 C   0  0  0  0  0  0  0  0  0  0  0  0
  186.1280  177.9140  141.8580 N   0  0  0  0  0  2  0  0  0  0  0  0
  181.7790  179.2070  143.4930 C   0  0  0  0  0  2  0  0  0  0  0  0
  180.8680  177.8890  141.6460 N   0  0  0  0  0  1  0  0  0  0  0  0
  185.0440  178.6580  145.4040 C   0  0  0  0  0  3  0  0  0  0  0  0
  183.1750  178.5860  141.6480 C   0  0  0  0  0  0  0  0  0  0  0  0
  189.4720  178.4770  140.3210 C   0  0  0  0  0  2  0  0  0  0  0  0
  183.5980  178.3340  140.4900 O   0  0  0  0  0  0  0  0  0  0  0  0
  190.6010  177.4610  140.5210 C   0  0  0  0  0  2  0  0  0  0  0  0
  183.9770  178.5490  142.8500 C   0  0  0  0  0  0  0  0  0  0  0  0
  187.3200  177.8860  144.5580 C   0  0  1  0  0  3  0  0  0  0  0  0
  181.7710  178.9810  141.9680 C   0  0  2  0  0  3  0  0  0  0  0  0
  183.1830  178.9060  143.9080 C   0  0  0  0  0  0  0  0  0  0  0  0
  188.1850  176.8190  142.7050 C   0  0  2  0  0  3  0  0  0  0  0  0
  185.3360  178.2480  143.0100 C   0  0  0  0  0  0  0  0  0  0  0  0
  188.0810  177.8650  140.3990 C   0  0  0  0  0  2  0  0  0  0  0  0
  183.6940  178.9750  145.2010 C   0  0  0  0  0  3  0  0  0  0  0  0
  190.3630  176.3930  141.5940 C   0  0  0  0  0  2  0  0  0  0  0  0
  189.7000  176.9340  142.8530 C   0  0  0  0  0  2  0  0  0  0  0  0
  187.5850  177.9450  141.8350 C   0  0  1  0  0  3  0  0  0  0  0  0
  188.5950  177.8770  148.6660 C   0  0  0  0  0  3  0  0  0  0  0  0
  187.7480  177.8750  145.9960 C   0  0  0  0  0  0  0  0  0  0  0  0
  189.0560  177.4980  146.3190 C   0  0  0  0  0  3  0  0  0  0  0  0
  189.4790  177.4980  147.6510 C   0  0  0  0  0  3  0  0  0  0  0  0
  187.2870  178.2570  148.3480 C   0  0  0  0  0  3  0  0  0  0  0  0
  186.8650  178.2590  147.0160 C   0  0  0  0  0  3  0  0  0  0  0  0
  1 12  1  0  0  0  0
  2 12  1  0  0  0  0
  2  6  1  0  0  0  0
  3 16  1  0  0  0  0
  4 14  1  0  0  0  0
  7 13  1  0  0  0  0
  7 11  1  0  0  0  0
  8 17  1  0  0  0  0
  8 10  1  0  0  0  0
  9  7  2  0  0  0  0
 10 19  1  0  0  0  0
 11 16  1  0  0  0  0
 11 14  2  0  0  0  0
 12 23  1  1  0  0  0
 13  5  1  1  0  0  0
 13  4  1  0  0  0  0
 14 18  1  0  0  0  0
 15 20  1  1  0  0  0
 15  1  1  0  0  0  0
 16  2  2  0  0  0  0
 18  6  2  0  0  0  0
 19 20  1  0  0  0  0
 21 17  1  6  0  0  0
 21  3  1  0  0  0  0
 21 15  1  0  0  0  0
 23 24  2  0  0  0  0
 23 27  1  0  0  0  0
 24 25  1  0  0  0  0
 25 22  2  0  0  0  0
 26 22  1  0  0  0  0
 27 26  2  0  0  0  0
M  END
>  <MODEL>
2

>  <REMARK>
 VINA RESULT:     -10.8      1.237      1.843
  Name = 
  1 active torsions:
  status: ('A' for Active; 'I' for Inactive)
    1  A    between atoms: C_9  and  C_15
                            x       y       z     vdW  Elec       q    Type
                         _______ _______ _______ _____ _____    ______ ____

>  <TORSDO>
F 1

$$$$
=
 OpenBabel11052413393D

 27 31  0  0  1  0  0  0  0  0999 V2000
  187.5300  179.0570  141.9840 O   0  0  0  0  0  0  0  0  0  0  0  0
  187.3460  177.6380  143.8920 C   0  0  0  0  0  0  0  0  0  0  0  0
  189.6770  177.4730  142.9860 N   0  0  0  0  0  2  0  0  0  0  0  0
  189.0750  176.8440  147.7290 C   0  0  0  0  0  2  0  0  0  0  0  0
  191.3050  177.8120  147.9800 N   0  0  0  0  0  1  0  0  0  0  0  0
  186.4830  177.5520  145.0100 C   0  0  0  0  0  3  0  0  0  0  0  0
  190.5530  176.9750  145.8490 C   0  0  0  0  0  0  0  0  0  0  0  0
  190.1230  176.3780  139.4550 C   0  0  0  0  0  2  0  0  0  0  0  0
  191.5800  176.9530  145.1210 O   0  0  0  0  0  0  0  0  0  0  0  0
  189.8120  177.3340  138.2990 C   0  0  0  0  0  2  0  0  0  0  0  0
  189.2070  177.2040  145.3780 C   0  0  0  0  0  0  0  0  0  0  0  0
  186.8060  177.9750  142.5180 C   0  0  1  0  0  3  0  0  0  0  0  0
  190.5600  176.7510  147.3260 C   0  0  2  0  0  3  0  0  0  0  0  0
  188.3560  177.1280  146.4500 C   0  0  0  0  0  0  0  0  0  0  0  0
  188.5170  178.5750  141.0920 C   0  0  2  0  0  3  0  0  0  0  0  0
  188.7420  177.4380  144.0760 C   0  0  0  0  0  0  0  0  0  0  0  0
  190.5360  177.0860  140.7370 C   0  0  0  0  0  2  0  0  0  0  0  0
  186.9840  177.2920  146.2930 C   0  0  0  0  0  3  0  0  0  0  0  0
  189.0550  178.6150  138.6700 C   0  0  0  0  0  2  0  0  0  0  0  0
  187.9470  178.3910  139.6890 C   0  0  0  0  0  2  0  0  0  0  0  0
  189.2990  177.3380  141.5850 C   0  0  1  0  0  3  0  0  0  0  0  0
  182.5740  178.7240  142.3480 C   0  0  0  0  0  3  0  0  0  0  0  0
  185.3330  178.2530  142.4680 C   0  0  0  0  0  0  0  0  0  0  0  0
  184.6220  177.9720  141.2960 C   0  0  0  0  0  3  0  0  0  0  0  0
  183.2450  178.2080  141.2350 C   0  0  0  0  0  3  0  0  0  0  0  0
  183.2790  179.0030  143.5230 C   0  0  0  0  0  3  0  0  0  0  0  0
  184.6560  178.7650  143.5850 C   0  0  0  0  0  3  0  0  0  0  0  0
  1 12  1  0  0  0  0
  2 16  2  0  0  0  0
  2  6  1  0  0  0  0
  3 16  1  0  0  0  0
  6 18  2  0  0  0  0
  7 13  1  0  0  0  0
  8 17  1  0  0  0  0
  9  7  2  0  0  0  0
 10 19  1  0  0  0  0
 10  8  1  0  0  0  0
 11  7  1  0  0  0  0
 11 14  2  0  0  0  0
 12 23  1  1  0  0  0
 12  2  1  0  0  0  0
 13  4  1  0  0  0  0
 13  5  1  1  0  0  0
 14  4  1  0  0  0  0
 15 20  1  6  0  0  0
 15 21  1  0  0  0  0
 15  1  1  0  0  0  0
 16 11  1  0  0  0  0
 18 14  1  0  0  0  0
 19 20  1  0  0  0  0
 21 17  1  6  0  0  0
 21  3  1  0  0  0  0
 22 26  1  0  0  0  0
 23 27  1  0  0  0  0
 24 23  2  0  0  0  0
 25 24  1  0  0  0  0
 25 22  2  0  0  0  0
 26 27  2  0  0  0  0
M  END
>  <MODEL>
3

>  <REMARK>
 VINA RESULT:     -10.7      2.100      5.671
  Name = 
  1 active torsions:
  status: ('A' for Active; 'I' for Inactive)
    1  A    between atoms: C_9  and  C_15
                            x       y       z     vdW  Elec       q    Type
                         _______ _______ _______ _____ _____    ______ ____

>  <TORSDO>
F 1

$$$$
=
 OpenBabel11052413393D

 27 31  0  0  1  0  0  0  0  0999 V2000
  187.3730  176.9530  143.0730 O   0  0  0  0  0  0  0  0  0  0  0  0
  186.8130  178.3080  141.1920 C   0  0  0  0  0  0  0  0  0  0  0  0
  189.2400  177.6980  141.0530 N   0  0  0  0  0  2  0  0  0  0  0  0
  186.8690  178.3860  136.9100 C   0  0  0  0  0  2  0  0  0  0  0  0
  188.3780  176.7170  135.9530 N   0  0  0  0  0  1  0  0  0  0  0  0
  185.6220  178.6550  140.5130 C   0  0  0  0  0  3  0  0  0  0  0  0
  188.9010  177.8060  138.0380 C   0  0  0  0  0  0  0  0  0  0  0  0
  191.4640  178.6580  143.8810 C   0  0  0  0  0  2  0  0  0  0  0  0
  190.0970  177.4980  138.2820 O   0  0  0  0  0  0  0  0  0  0  0  0
  191.4150  177.8890  145.2040 C   0  0  0  0  0  2  0  0  0  0  0  0
  187.8880  178.0560  139.0380 C   0  0  0  0  0  0  0  0  0  0  0  0
  186.8450  178.2040  142.7020 C   0  0  1  0  0  3  0  0  0  0  0  0
  188.3370  177.9820  136.6670 C   0  0  2  0  0  3  0  0  0  0  0  0
  186.7240  178.3900  138.3970 C   0  0  0  0  0  0  0  0  0  0  0  0
  188.7410  177.0940  143.4050 C   0  0  2  0  0  3  0  0  0  0  0  0
  187.9830  178.0210  140.4360 C   0  0  0  0  0  0  0  0  0  0  0  0
  191.0560  177.8230  142.6750 C   0  0  0  0  0  2  0  0  0  0  0  0
  185.5720  178.7010  139.1140 C   0  0  0  0  0  3  0  0  0  0  0  0
  190.2320  176.9310  145.3830 C   0  0  0  0  0  2  0  0  0  0  0  0
  188.9140  177.4920  144.8680 C   0  0  0  0  0  2  0  0  0  0  0  0
  189.5610  177.9840  142.4460 C   0  0  1  0  0  3  0  0  0  0  0  0
  183.0920  178.9190  144.6780 C   0  0  0  0  0  3  0  0  0  0  0  0
  185.5280  178.4400  143.3800 C   0  0  0  0  0  0  0  0  0  0  0  0
  185.4960  178.6340  144.7660 C   0  0  0  0  0  3  0  0  0  0  0  0
  184.2800  178.8720  145.4140 C   0  0  0  0  0  3  0  0  0  0  0  0
  183.1200  178.7300  143.2930 C   0  0  0  0  0  3  0  0  0  0  0  0
  184.3350  178.4930  142.6440 C   0  0  0  0  0  3  0  0  0  0  0  0
  1 15  1  0  0  0  0
  2 12  1  0  0  0  0
  3 21  1  0  0  0  0
  4 14  1  0  0  0  0
  6  2  1  0  0  0  0
  7  9  2  0  0  0  0
  7 11  1  0  0  0  0
  8 10  1  0  0  0  0
 10 19  1  0  0  0  0
 11 16  1  0  0  0  0
 12  1  1  0  0  0  0
 12 23  1  6  0  0  0
 13  5  1  6  0  0  0
 13  4  1  0  0  0  0
 13  7  1  0  0  0  0
 14 11  2  0  0  0  0
 14 18  1  0  0  0  0
 15 20  1  1  0  0  0
 16  3  1  0  0  0  0
 16  2  2  0  0  0  0
 17  8  1  0  0  0  0
 18  6  2  0  0  0  0
 20 19  1  0  0  0  0
 21 17  1  6  0  0  0
 21 15  1  0  0  0  0
 22 25  1  0  0  0  0
 23 24  1  0  0  0  0
 24 25  2  0  0  0  0
 26 22  2  0  0  0  0
 27 26  1  0  0  0  0
 27 23  2  0  0  0  0
M  END
>  <MODEL>
4

>  <REMARK>
 VINA RESULT:     -10.2      2.258      6.055
  Name = 
  1 active torsions:
  status: ('A' for Active; 'I' for Inactive)
    1  A    between atoms: C_9  and  C_15
                            x       y       z     vdW  Elec       q    Type
                         _______ _______ _______ _____ _____    ______ ____

>  <TORSDO>
F 1

$$$$
=
 OpenBabel11052413393D

 27 31  0  0  1  0  0  0  0  0999 V2000
  184.9080  179.5850  143.2920 O   0  0  0  0  0  0  0  0  0  0  0  0
  186.6330  178.2100  142.3840 C   0  0  0  0  0  0  0  0  0  0  0  0
  184.9120  178.6200  140.6100 N   0  0  0  0  0  2  0  0  0  0  0  0
  189.4730  177.9680  139.1890 C   0  0  0  0  0  2  0  0  0  0  0  0
  188.9460  179.4760  137.3380 N   0  0  0  0  0  1  0  0  0  0  0  0
  187.9820  177.9330  142.7080 C   0  0  0  0  0  3  0  0  0  0  0  0
  187.1930  178.4270  138.6170 C   0  0  0  0  0  0  0  0  0  0  0  0
  181.3980  177.5930  141.2900 C   0  0  0  0  0  2  0  0  0  0  0  0
  186.1350  178.6490  137.9730 O   0  0  0  0  0  0  0  0  0  0  0  0
  180.5180  178.4120  142.2400 C   0  0  0  0  0  2  0  0  0  0  0  0
  187.2780  178.2960  140.0540 C   0  0  0  0  0  0  0  0  0  0  0  0
  185.5900  178.3670  143.4710 C   0  0  1  0  0  3  0  0  0  0  0  0
  188.5380  178.2460  137.9950 C   0  0  2  0  0  3  0  0  0  0  0  0
  188.5810  178.0310  140.3860 C   0  0  0  0  0  0  0  0  0  0  0  0
  183.6780  179.3490  142.6340 C   0  0  2  0  0  3  0  0  0  0  0  0
  186.2660  178.3750  141.0210 C   0  0  0  0  0  0  0  0  0  0  0  0
  182.4820  178.4120  140.6050 C   0  0  0  0  0  2  0  0  0  0  0  0
  188.9610  177.8390  141.7100 C   0  0  0  0  0  3  0  0  0  0  0  0
  181.2410  179.4670  143.0860 C   0  0  0  0  0  2  0  0  0  0  0  0
  182.5800  178.9930  143.6320 C   0  0  0  0  0  2  0  0  0  0  0  0
  183.7470  178.3610  141.4480 C   0  0  1  0  0  3  0  0  0  0  0  0
  187.0460  178.0650  147.5080 C   0  0  0  0  0  3  0  0  0  0  0  0
  186.1160  178.2610  144.8720 C   0  0  0  0  0  0  0  0  0  0  0  0
  185.5420  179.0430  145.8810 C   0  0  0  0  0  3  0  0  0  0  0  0
  186.0070  178.9470  147.1960 C   0  0  0  0  0  3  0  0  0  0  0  0
  187.6210  177.2790  146.5040 C   0  0  0  0  0  3  0  0  0  0  0  0
  187.1550  177.3740  145.1890 C   0  0  0  0  0  3  0  0  0  0  0  0
  1 12  1  0  0  0  0
  2  6  1  0  0  0  0
  2 12  1  0  0  0  0
  3 16  1  0  0  0  0
  3 21  1  0  0  0  0
  4 14  1  0  0  0  0
  7 11  1  0  0  0  0
  8 10  1  0  0  0  0
  9  7  2  0  0  0  0
 10 19  1  0  0  0  0
 11 14  2  0  0  0  0
 11 16  1  0  0  0  0
 12 23  1  1  0  0  0
 13  5  1  1  0  0  0
 13  7  1  0  0  0  0
 13  4  1  0  0  0  0
 14 18  1  0  0  0  0
 15  1  1  0  0  0  0
 15 20  1  1  0  0  0
 16  2  2  0  0  0  0
 17  8  1  0  0  0  0
 18  6  2  0  0  0  0
 19 20  1  0  0  0  0
 21 17  1  6  0  0  0
 21 15  1  0  0  0  0
 23 27  2  0  0  0  0
 23 24  1  0  0  0  0
 24 25  2  0  0  0  0
 25 22  1  0  0  0  0
 26 22  2  0  0  0  0
 27 26  1  0  0  0  0
M  END
>  <MODEL>
5

>  <REMARK>
 VINA RESULT:     -10.2      2.217      5.998
  Name = 
  1 active torsions:
  status: ('A' for Active; 'I' for Inactive)
    1  A    between atoms: C_9  and  C_15
                            x       y       z     vdW  Elec       q    Type
                         _______ _______ _______ _____ _____    ______ ____

>  <TORSDO>
F 1

$$$$
=
 OpenBabel11052413393D

 27 31  0  0  1  0  0  0  0  0999 V2000
  186.7110  176.8640  144.5300 O   0  0  0  0  0  0  0  0  0  0  0  0
  187.3320  178.0350  142.5470 C   0  0  0  0  0  0  0  0  0  0  0  0
  189.4130  177.3320  143.7530 N   0  0  0  0  0  2  0  0  0  0  0  0
  189.6220  177.6660  138.9460 C   0  0  0  0  0  2  0  0  0  0  0  0
  191.2620  175.8570  139.0490 N   0  0  0  0  0  1  0  0  0  0  0  0
  186.7040  178.3500  141.3190 C   0  0  0  0  0  3  0  0  0  0  0  0
  190.7090  177.1380  141.0140 C   0  0  0  0  0  0  0  0  0  0  0  0
  189.9050  178.5030  147.2520 C   0  0  0  0  0  2  0  0  0  0  0  0
  191.5700  176.8150  141.8730 O   0  0  0  0  0  0  0  0  0  0  0  0
  189.1080  177.8780  148.4010 C   0  0  0  0  0  2  0  0  0  0  0  0
  189.3480  177.5240  141.3090 C   0  0  0  0  0  0  0  0  0  0  0  0
  186.5620  178.0870  143.8500 C   0  0  1  0  0  3  0  0  0  0  0  0
  190.9600  177.1890  139.5430 C   0  0  2  0  0  3  0  0  0  0  0  0
  188.7220  177.8290  140.1280 C   0  0  0  0  0  0  0  0  0  0  0  0
  187.7110  176.9920  145.5230 C   0  0  2  0  0  3  0  0  0  0  0  0
  188.6950  177.6320  142.5450 C   0  0  0  0  0  0  0  0  0  0  0  0
  190.1180  177.5620  146.0760 C   0  0  0  0  0  2  0  0  0  0  0  0
  187.3970  178.2530  140.1050 C   0  0  0  0  0  3  0  0  0  0  0  0
  187.9300  176.9840  147.9950 C   0  0  0  0  0  2  0  0  0  0  0  0
  187.1270  177.5340  146.8250 C   0  0  0  0  0  2  0  0  0  0  0  0
  188.9830  177.7500  145.0810 C   0  0  1  0  0  3  0  0  0  0  0  0
  182.4060  179.1370  143.4850 C   0  0  0  0  0  3  0  0  0  0  0  0
  185.1100  178.4370  143.7120 C   0  0  0  0  0  0  0  0  0  0  0  0
  184.4210  178.9510  144.8170 C   0  0  0  0  0  3  0  0  0  0  0  0
  183.0720  179.2990  144.7040 C   0  0  0  0  0  3  0  0  0  0  0  0
  183.0910  178.6280  142.3770 C   0  0  0  0  0  3  0  0  0  0  0  0
  184.4410  178.2810  142.4890 C   0  0  0  0  0  3  0  0  0  0  0  0
  1 15  1  0  0  0  0
  2 12  1  0  0  0  0
  3 21  1  0  0  0  0
  4 13  1  0  0  0  0
  4 14  1  0  0  0  0
  6  2  2  0  0  0  0
  7 11  1  0  0  0  0
  7  9  2  0  0  0  0
  8 10  1  0  0  0  0
 11 16  2  0  0  0  0
 12 23  1  6  0  0  0
 12  1  1  0  0  0  0
 13  5  1  6  0  0  0
 13  7  1  0  0  0  0
 14 11  1  0  0  0  0
 15 20  1  1  0  0  0
 16  2  1  0  0  0  0
 16  3  1  0  0  0  0
 17  8  1  0  0  0  0
 18 14  2  0  0  0  0
 18  6  1  0  0  0  0
 19 10  1  0  0  0  0
 20 19  1  0  0  0  0
 21 15  1  0  0  0  0
 21 17  1  1  0  0  0
 22 25  1  0  0  0  0
 23 24  1  0  0  0  0
 25 24  2  0  0  0  0
 26 27  1  0  0  0  0
 26 22  2  0  0  0  0
 27 23  2  0  0  0  0
M  END
>  <MODEL>
6

>  <REMARK>
 VINA RESULT:     -10.0      2.188      6.843
  Name = 
  1 active torsions:
  status: ('A' for Active; 'I' for Inactive)
    1  A    between atoms: C_9  and  C_15
                            x       y       z     vdW  Elec       q    Type
                         _______ _______ _______ _____ _____    ______ ____

>  <TORSDO>
F 1

$$$$
=
 OpenBabel11052413393D

 27 31  0  0  1  0  0  0  0  0999 V2000
  186.4360  179.1100  140.9640 O   0  0  0  0  0  0  0  0  0  0  0  0
  186.8290  177.7400  142.8770 C   0  0  0  0  0  0  0  0  0  0  0  0
  188.7620  177.4970  141.3000 N   0  0  0  0  0  2  0  0  0  0  0  0
  189.6470  176.9930  146.0140 C   0  0  0  0  0  2  0  0  0  0  0  0
  191.8610  177.9120  145.5350 N   0  0  0  0  0  1  0  0  0  0  0  0
  186.3530  177.7010  144.2080 C   0  0  0  0  0  3  0  0  0  0  0  0
  190.4730  177.0450  143.7670 C   0  0  0  0  0  0  0  0  0  0  0  0
  188.0760  176.3100  137.8380 C   0  0  0  0  0  2  0  0  0  0  0  0
  191.2230  176.9800  142.7580 O   0  0  0  0  0  0  0  0  0  0  0  0
  187.4390  177.2470  136.8070 C   0  0  0  0  0  2  0  0  0  0  0  0
  189.0500  177.2950  143.7270 C   0  0  0  0  0  0  0  0  0  0  0  0
  185.8960  178.0590  141.7270 C   0  0  1  0  0  3  0  0  0  0  0  0
  190.9320  176.8550  145.1750 C   0  0  2  0  0  3  0  0  0  0  0  0
  188.5720  177.2650  145.0110 C   0  0  0  0  0  0  0  0  0  0  0  0
  187.0910  178.5840  139.8250 C   0  0  2  0  0  3  0  0  0  0  0  0
  188.2090  177.5110  142.6260 C   0  0  0  0  0  0  0  0  0  0  0  0
  188.8770  177.0370  138.9080 C   0  0  0  0  0  2  0  0  0  0  0  0
  187.2210  177.4590  145.2810 C   0  0  0  0  0  3  0  0  0  0  0  0
  186.8540  178.5530  137.3550 C   0  0  0  0  0  2  0  0  0  0  0  0
  186.1120  178.3810  138.6730 C   0  0  0  0  0  2  0  0  0  0  0  0
  187.9670  177.3390  140.0890 C   0  0  1  0  0  3  0  0  0  0  0  0
  181.8660  179.0020  142.8970 C   0  0  0  0  0  3  0  0  0  0  0  0
  184.4840  178.3710  142.1270 C   0  0  0  0  0  0  0  0  0  0  0  0
  184.2330  178.8960  143.4000 C   0  0  0  0  0  3  0  0  0  0  0  0
  182.9260  179.2090  143.7850 C   0  0  0  0  0  3  0  0  0  0  0  0
  182.1120  178.4820  141.6230 C   0  0  0  0  0  3  0  0  0  0  0  0
  183.4190  178.1690  141.2370 C   0  0  0  0  0  3  0  0  0  0  0  0
  1 12  1  0  0  0  0
  2  6  1  0  0  0  0
  3 16  1  0  0  0  0
  6 18  2  0  0  0  0
  7 13  1  0  0  0  0
  8 17  1  0  0  0  0
  9  7  2  0  0  0  0
 10 19  1  0  0  0  0
 10  8  1  0  0  0  0
 11  7  1  0  0  0  0
 11 14  2  0  0  0  0
 12 23  1  1  0  0  0
 12  2  1  0  0  0  0
 13  5  1  1  0  0  0
 13  4  1  0  0  0  0
 14 18  1  0  0  0  0
 14  4  1  0  0  0  0
 15 20  1  6  0  0  0
 15 21  1  0  0  0  0
 15  1  1  0  0  0  0
 16  2  2  0  0  0  0
 16 11  1  0  0  0  0
 19 20  1  0  0  0  0
 21 17  1  6  0  0  0
 21  3  1  0  0  0  0
 22 25  1  0  0  0  0
 23 24  1  0  0  0  0
 24 25  2  0  0  0  0
 26 22  2  0  0  0  0
 27 26  1  0  0  0  0
 27 23  2  0  0  0  0
M  END
>  <MODEL>
7

>  <REMARK>
 VINA RESULT:      -9.4      2.095      5.948
  Name = 
  1 active torsions:
  status: ('A' for Active; 'I' for Inactive)
    1  A    between atoms: C_9  and  C_15
                            x       y       z     vdW  Elec       q    Type
                         _______ _______ _______ _____ _____    ______ ____

>  <TORSDO>
F 1

$$$$
=
 OpenBabel11052413393D

 27 31  0  0  1  0  0  0  0  0999 V2000
  186.3370  179.3800  140.4940 O   0  0  0  0  0  0  0  0  0  0  0  0
  185.0250  178.4170  142.2380 C   0  0  0  0  0  0  0  0  0  0  0  0
  187.4480  178.2050  142.8400 N   0  0  0  0  0  2  0  0  0  0  0  0
  184.2780  178.6220  146.4500 C   0  0  0  0  0  2  0  0  0  0  0  0
  186.0590  179.7650  147.6730 N   0  0  0  0  0  1  0  0  0  0  0  0
  183.6850  178.5290  142.6750 C   0  0  0  0  0  3  0  0  0  0  0  0
  186.5540  178.4230  145.7330 C   0  0  0  0  0  0  0  0  0  0  0  0
  189.6930  176.3750  140.5000 C   0  0  0  0  0  2  0  0  0  0  0  0
  187.8080  178.3040  145.7230 O   0  0  0  0  0  0  0  0  0  0  0  0
  190.1450  177.0240  139.1880 C   0  0  0  0  0  2  0  0  0  0  0  0
  185.7150  178.4510  144.5570 C   0  0  0  0  0  0  0  0  0  0  0  0
  185.3620  178.4010  140.7620 C   0  0  1  0  0  3  0  0  0  0  0  0
  185.7260  178.5380  146.9700 C   0  0  2  0  0  3  0  0  0  0  0  0
  184.4100  178.5630  144.9620 C   0  0  0  0  0  0  0  0  0  0  0  0
  187.6140  178.7750  140.4330 C   0  0  2  0  0  3  0  0  0  0  0  0
  186.0670  178.3560  143.2040 C   0  0  0  0  0  0  0  0  0  0  0  0
  189.3790  177.3790  141.6000 C   0  0  0  0  0  2  0  0  0  0  0  0
  183.3700  178.5980  144.0390 C   0  0  0  0  0  3  0  0  0  0  0  0
  189.4040  178.3030  138.7800 C   0  0  0  0  0  2  0  0  0  0  0  0
  187.9050  178.2420  139.0330 C   0  0  0  0  0  2  0  0  0  0  0  0
  187.9010  177.7330  141.5370 C   0  0  1  0  0  3  0  0  0  0  0  0
  181.9660  178.8310  138.1580 C   0  0  0  0  0  3  0  0  0  0  0  0
  184.1870  178.5640  139.8430 C   0  0  0  0  0  0  0  0  0  0  0  0
  183.4550  177.4340  139.4600 C   0  0  0  0  0  3  0  0  0  0  0  0
  182.3470  177.5670  138.6180 C   0  0  0  0  0  3  0  0  0  0  0  0
  182.6920  179.9630  138.5400 C   0  0  0  0  0  3  0  0  0  0  0  0
  183.7990  179.8300  139.3830 C   0  0  0  0  0  3  0  0  0  0  0  0
  1 12  1  0  0  0  0
  2  6  2  0  0  0  0
  2 16  1  0  0  0  0
  3 16  1  0  0  0  0
  4 13  1  0  0  0  0
  6 18  1  0  0  0  0
  7 13  1  0  0  0  0
  8 17  1  0  0  0  0
  9  7  2  0  0  0  0
 10  8  1  0  0  0  0
 11 14  1  0  0  0  0
 11  7  1  0  0  0  0
 12 23  1  6  0  0  0
 12  2  1  0  0  0  0
 13  5  1  6  0  0  0
 14  4  1  0  0  0  0
 15 20  1  6  0  0  0
 15  1  1  0  0  0  0
 15 21  1  0  0  0  0
 16 11  2  0  0  0  0
 18 14  2  0  0  0  0
 19 20  1  0  0  0  0
 19 10  1  0  0  0  0
 21 17  1  1  0  0  0
 21  3  1  0  0  0  0
 22 26  2  0  0  0  0
 22 25  1  0  0  0  0
 24 23  1  0  0  0  0
 25 24  2  0  0  0  0
 26 27  1  0  0  0  0
 27 23  2  0  0  0  0
M  END
>  <MODEL>
8

>  <REMARK>
 VINA RESULT:      -9.1      2.582      5.840
  Name = 
  1 active torsions:
  status: ('A' for Active; 'I' for Inactive)
    1  A    between atoms: C_9  and  C_15
                            x       y       z     vdW  Elec       q    Type
                         _______ _______ _______ _____ _____    ______ ____

>  <TORSDO>
F 1

$$$$
=
 OpenBabel11052413393D

 27 31  0  0  1  0  0  0  0  0999 V2000
  187.2570  176.8630  142.4960 O   0  0  0  0  0  0  0  0  0  0  0  0
  189.4070  177.4280  143.3610 C   0  0  0  0  0  0  0  0  0  0  0  0
  187.7320  177.5520  145.2210 N   0  0  0  0  0  2  0  0  0  0  0  0
  192.2610  176.3550  146.3690 C   0  0  0  0  0  2  0  0  0  0  0  0
  191.2840  175.0150  148.1650 N   0  0  0  0  0  1  0  0  0  0  0  0
  190.7470  177.2080  142.9640 C   0  0  0  0  0  3  0  0  0  0  0  0
  190.0000  176.7330  147.0650 C   0  0  0  0  0  0  0  0  0  0  0  0
  184.8340  179.8570  144.8340 C   0  0  0  0  0  2  0  0  0  0  0  0
  188.9630  176.8710  147.7650 O   0  0  0  0  0  0  0  0  0  0  0  0
  183.6720  179.4960  143.9020 C   0  0  0  0  0  2  0  0  0  0  0  0
  190.0680  176.9320  145.6360 C   0  0  0  0  0  0  0  0  0  0  0  0
  188.3370  177.7510  142.3390 C   0  0  1  0  0  3  0  0  0  0  0  0
  191.3400  176.3540  147.6050 C   0  0  2  0  0  3  0  0  0  0  0  0
  191.3610  176.7190  145.2320 C   0  0  0  0  0  0  0  0  0  0  0  0
  186.2330  177.4880  143.2470 C   0  0  2  0  0  3  0  0  0  0  0  0
  189.0620  177.3070  144.7350 C   0  0  0  0  0  0  0  0  0  0  0  0
  185.5590  178.6440  145.4000 C   0  0  0  0  0  2  0  0  0  0  0  0
  191.7300  176.8570  143.8980 C   0  0  0  0  0  3  0  0  0  0  0  0
  183.9120  178.3160  142.9530 C   0  0  0  0  0  2  0  0  0  0  0  0
  185.3070  178.3000  142.3460 C   0  0  0  0  0  2  0  0  0  0  0  0
  186.7160  178.2860  144.4780 C   0  0  1  0  0  3  0  0  0  0  0  0
  189.6830  177.7230  138.2540 C   0  0  0  0  0  3  0  0  0  0  0  0
  188.8060  177.7610  140.9140 C   0  0  0  0  0  0  0  0  0  0  0  0
  189.8010  176.8610  140.5150 C   0  0  0  0  0  3  0  0  0  0  0  0
  190.2400  176.8430  139.1870 C   0  0  0  0  0  3  0  0  0  0  0  0
  188.6860  178.6210  138.6480 C   0  0  0  0  0  3  0  0  0  0  0  0
  188.2460  178.6390  139.9750 C   0  0  0  0  0  3  0  0  0  0  0  0
  1 15  1  0  0  0  0
  2 16  1  0  0  0  0
  4 13  1  0  0  0  0
  6  2  2  0  0  0  0
  6 18  1  0  0  0  0
  7 13  1  0  0  0  0
  7  9  2  0  0  0  0
  8 17  1  0  0  0  0
 10  8  1  0  0  0  0
 11  7  1  0  0  0  0
 12 23  1  6  0  0  0
 12  1  1  0  0  0  0
 12  2  1  0  0  0  0
 13  5  1  6  0  0  0
 14 11  1  0  0  0  0
 14  4  1  0  0  0  0
 15 20  1  6  0  0  0
 15 21  1  0  0  0  0
 16  3  1  0  0  0  0
 16 11  2  0  0  0  0
 18 14  2  0  0  0  0
 19 10  1  0  0  0  0
 20 19  1  0  0  0  0
 21  3  1  0  0  0  0
 21 17  1  1  0  0  0
 22 26  2  0  0  0  0
 22 25  1  0  0  0  0
 24 23  1  0  0  0  0
 25 24  2  0  0  0  0
 26 27  1  0  0  0  0
 27 23  2  0  0  0  0
M  END
>  <MODEL>
9

>  <REMARK>
 VINA RESULT:      -9.1      2.171      6.631
  Name = 
  1 active torsions:
  status: ('A' for Active; 'I' for Inactive)
    1  A    between atoms: C_9  and  C_15
                            x       y       z     vdW  Elec       q    Type
                         _______ _______ _______ _____ _____    ______ ____

>  <TORSDO>
F 1

$$$$
