=
 OpenBabel11052413083D

 31 35  0  0  0  0  0  0  0  0999 V2000
  188.5430  177.5360  144.3080 C   0  0  0  0  0  0  0  0  0  0  0  0
  189.0150  177.4690  145.6370 C   0  0  0  0  0  0  0  0  0  0  0  0
  188.4030  177.3060  139.0330 O   0  0  0  0  0  0  0  0  0  0  0  0
  189.5640  177.0000  139.4140 C   0  0  0  0  0  0  0  0  0  0  0  0
  188.7060  177.6760  148.0410 C   0  0  0  0  0  0  0  0  0  0  0  0
  187.2320  177.8860  143.9520 C   0  0  0  0  0  0  0  0  0  0  0  0
  185.1730  178.4600  143.9190 N   0  0  0  0  0  0  0  0  0  0  0  0
  188.1980  177.7550  146.7420 C   0  0  0  0  0  3  0  0  0  0  0  0
  188.9710  177.2930  141.8890 C   0  0  0  0  0  0  0  0  0  0  0  0
  191.1820  176.8210  144.8120 N   0  0  0  0  0  0  0  0  0  0  0  0
  187.9070  177.9540  149.0980 F   0  0  0  0  0  0  0  0  0  0  0  0
  187.6750  177.6410  141.6220 N   0  0  0  0  0  0  0  0  0  0  0  0
  189.4280  177.2340  143.2340 C   0  0  0  0  0  0  0  0  0  0  0  0
  189.8750  176.9850  140.8160 N   0  0  0  0  0  2  0  0  0  0  0  0
  186.1900  178.2120  144.7380 N   0  0  0  0  0  0  0  0  0  0  0  0
  190.0380  177.3140  148.2510 C   0  0  0  0  0  3  0  0  0  0  0  0
  186.8410  177.9290  142.6480 C   0  0  0  0  0  0  0  0  0  0  0  0
  185.5160  178.2920  142.6180 C   0  0  0  0  0  3  0  0  0  0  0  0
  190.7490  176.8780  143.5260 C   0  0  0  0  0  3  0  0  0  0  0  0
  190.3660  177.1020  145.8600 C   0  0  0  0  0  0  0  0  0  0  0  0
  190.8660  177.0280  147.1630 C   0  0  0  0  0  3  0  0  0  0  0  0
  192.5130  175.9450  136.4660 C   0  0  0  0  0  0  0  0  0  0  0  0
  190.2160  176.1430  137.1870 C   0  0  0  0  0  3  0  0  0  0  0  0
  192.6690  177.4250  140.1910 Cl  0  0  0  0  0  0  0  0  0  0  0  0
  193.5100  175.5730  135.4300 C   0  0  0  0  0  1  0  0  0  0  0  0
  191.1520  175.7930  136.2110 C   0  0  0  0  0  3  0  0  0  0  0  0
  192.0120  176.8040  138.6820 C   0  0  0  0  0  0  0  0  0  0  0  0
  190.6220  176.6520  138.4320 C   0  0  0  0  0  0  0  0  0  0  0  0
  192.9380  176.4490  137.6960 C   0  0  0  0  0  3  0  0  0  0  0  0
  183.8420  178.8110  144.3820 C   0  0  0  0  0  2  0  0  0  0  0  0
  183.8610  178.9960  145.7640 O   0  0  0  0  0  1  0  0  0  0  0  0
  1  2  1  0  0  0  0
  2 20  2  0  0  0  0
  2  8  1  0  0  0  0
  3  4  2  0  0  0  0
  4 14  1  0  0  0  0
  5 16  1  0  0  0  0
  5 11  1  0  0  0  0
  6  1  1  0  0  0  0
  6 15  2  0  0  0  0
  7 30  1  0  0  0  0
  7 15  1  0  0  0  0
  8  5  2  0  0  0  0
  9 13  1  0  0  0  0
 10 20  1  0  0  0  0
 12  9  2  0  0  0  0
 12 17  1  0  0  0  0
 13 19  1  0  0  0  0
 13  1  2  0  0  0  0
 14  9  1  0  0  0  0
 17  6  1  0  0  0  0
 18 17  2  0  0  0  0
 18  7  1  0  0  0  0
 19 10  2  0  0  0  0
 20 21  1  0  0  0  0
 21 16  2  0  0  0  0
 22 29  1  0  0  0  0
 23 28  2  0  0  0  0
 25 22  1  0  0  0  0
 26 22  2  0  0  0  0
 26 23  1  0  0  0  0
 27 24  1  0  0  0  0
 28 27  1  0  0  0  0
 28  4  1  0  0  0  0
 29 27  2  0  0  0  0
 30 31  1  0  0  0  0
M  END
>  <MODEL>
1

>  <REMARK>
 VINA RESULT:     -10.6      0.000      0.000
  Name = 
  2 active torsions:
  status: ('A' for Active; 'I' for Inactive)
    1  A    between atoms: C_2  and  N_13
    2  A    between atoms: C_9  and  C_22
                            x       y       z     vdW  Elec       q    Type
                         _______ _______ _______ _____ _____    ______ ____

>  <TORSDO>
F 2

$$$$
=
 OpenBabel11052413083D

 31 35  0  0  0  0  0  0  0  0999 V2000
  188.6420  177.4960  144.4310 C   0  0  0  0  0  0  0  0  0  0  0  0
  189.0970  177.4770  145.7670 C   0  0  0  0  0  0  0  0  0  0  0  0
  188.5650  177.0490  139.1690 O   0  0  0  0  0  0  0  0  0  0  0  0
  189.7150  176.7400  139.5780 C   0  0  0  0  0  0  0  0  0  0  0  0
  188.7620  177.7890  148.1570 C   0  0  0  0  0  0  0  0  0  0  0  0
  187.3420  177.8520  144.0440 C   0  0  0  0  0  0  0  0  0  0  0  0
  185.2940  178.4580  143.9600 N   0  0  0  0  0  0  0  0  0  0  0  0
  188.2720  177.8210  146.8500 C   0  0  0  0  0  3  0  0  0  0  0  0
  189.0970  177.1450  142.0300 C   0  0  0  0  0  0  0  0  0  0  0  0
  191.2630  176.7590  144.9990 N   0  0  0  0  0  0  0  0  0  0  0  0
  187.9540  178.1230  149.1910 F   0  0  0  0  0  0  0  0  0  0  0  0
  187.8100  177.5030  141.7320 N   0  0  0  0  0  0  0  0  0  0  0  0
  189.5360  177.1350  143.3830 C   0  0  0  0  0  0  0  0  0  0  0  0
  190.0080  176.7780  140.9830 N   0  0  0  0  0  2  0  0  0  0  0  0
  186.2970  178.2270  144.8020 N   0  0  0  0  0  0  0  0  0  0  0  0
  190.0850  177.4140  148.3990 C   0  0  0  0  0  3  0  0  0  0  0  0
  186.9690  177.8470  142.7350 C   0  0  0  0  0  0  0  0  0  0  0  0
  185.6500  178.2300  142.6720 C   0  0  0  0  0  3  0  0  0  0  0  0
  190.8470  176.7690  143.7060 C   0  0  0  0  0  3  0  0  0  0  0  0
  190.4380  177.0970  146.0230 C   0  0  0  0  0  0  0  0  0  0  0  0
  190.9210  177.0690  147.3350 C   0  0  0  0  0  3  0  0  0  0  0  0
  192.9030  175.6560  136.9020 C   0  0  0  0  0  0  0  0  0  0  0  0
  192.0720  176.8430  138.8340 C   0  0  0  0  0  3  0  0  0  0  0  0
  189.0010  174.7550  137.1330 Cl  0  0  0  0  0  0  0  0  0  0  0  0
  194.0220  175.2980  135.9920 C   0  0  0  0  0  1  0  0  0  0  0  0
  193.1260  176.5070  137.9810 C   0  0  0  0  0  3  0  0  0  0  0  0
  190.5620  175.4670  137.5210 C   0  0  0  0  0  0  0  0  0  0  0  0
  190.7800  176.3340  138.6250 C   0  0  0  0  0  0  0  0  0  0  0  0
  191.6270  175.1400  136.6750 C   0  0  0  0  0  3  0  0  0  0  0  0
  183.9630  178.8490  144.3910 C   0  0  0  0  0  2  0  0  0  0  0  0
  183.9370  178.9690  145.7800 O   0  0  0  0  0  1  0  0  0  0  0  0
  1  2  1  0  0  0  0
  2 20  2  0  0  0  0
  2  8  1  0  0  0  0
  3  4  2  0  0  0  0
  4 14  1  0  0  0  0
  5 16  1  0  0  0  0
  5 11  1  0  0  0  0
  6  1  1  0  0  0  0
  6 15  2  0  0  0  0
  7 30  1  0  0  0  0
  7 15  1  0  0  0  0
  8  5  2  0  0  0  0
  9 13  1  0  0  0  0
 10 20  1  0  0  0  0
 12  9  2  0  0  0  0
 12 17  1  0  0  0  0
 13 19  1  0  0  0  0
 13  1  2  0  0  0  0
 14  9  1  0  0  0  0
 17  6  1  0  0  0  0
 18 17  2  0  0  0  0
 18  7  1  0  0  0  0
 19 10  2  0  0  0  0
 20 21  1  0  0  0  0
 21 16  2  0  0  0  0
 22 26  1  0  0  0  0
 24 27  1  0  0  0  0
 25 22  1  0  0  0  0
 26 23  2  0  0  0  0
 27 28  2  0  0  0  0
 28 23  1  0  0  0  0
 28  4  1  0  0  0  0
 29 22  2  0  0  0  0
 29 27  1  0  0  0  0
 30 31  1  0  0  0  0
M  END
>  <MODEL>
2

>  <REMARK>
 VINA RESULT:     -10.5      1.044      1.344
  Name = 
  2 active torsions:
  status: ('A' for Active; 'I' for Inactive)
    1  A    between atoms: C_2  and  N_13
    2  A    between atoms: C_9  and  C_22
                            x       y       z     vdW  Elec       q    Type
                         _______ _______ _______ _____ _____    ______ ____

>  <TORSDO>
F 2

$$$$
=
 OpenBabel11052413083D

 31 35  0  0  0  0  0  0  0  0999 V2000
  187.4330  178.0700  143.1840 C   0  0  0  0  0  0  0  0  0  0  0  0
  187.6240  177.8560  144.5670 C   0  0  0  0  0  0  0  0  0  0  0  0
  185.1300  179.2340  138.5760 O   0  0  0  0  0  0  0  0  0  0  0  0
  184.2730  179.3550  139.4910 C   0  0  0  0  0  0  0  0  0  0  0  0
  189.0050  177.2620  146.4800 C   0  0  0  0  0  0  0  0  0  0  0  0
  188.4350  177.9160  142.2150 C   0  0  0  0  0  0  0  0  0  0  0  0
  190.2520  177.5580  141.1460 N   0  0  0  0  0  0  0  0  0  0  0  0
  188.8590  177.4610  145.1050 C   0  0  0  0  0  3  0  0  0  0  0  0
  185.9390  178.6910  141.3200 C   0  0  0  0  0  0  0  0  0  0  0  0
  185.3170  178.4270  144.9530 N   0  0  0  0  0  0  0  0  0  0  0  0
  190.2030  176.8810  146.9850 F   0  0  0  0  0  0  0  0  0  0  0  0
  186.9690  178.5220  140.4350 N   0  0  0  0  0  0  0  0  0  0  0  0
  186.1520  178.4690  142.7090 C   0  0  0  0  0  0  0  0  0  0  0  0
  184.6420  179.0940  140.8540 N   0  0  0  0  0  2  0  0  0  0  0  0
  189.7230  177.5600  142.3660 N   0  0  0  0  0  0  0  0  0  0  0  0
  187.9170  177.4510  147.3340 C   0  0  0  0  0  3  0  0  0  0  0  0
  188.1830  178.1400  140.8960 C   0  0  0  0  0  0  0  0  0  0  0  0
  189.3470  177.9180  140.2020 C   0  0  0  0  0  3  0  0  0  0  0  0
  185.1110  178.6390  143.6280 C   0  0  0  0  0  3  0  0  0  0  0  0
  186.5260  178.0470  145.4420 C   0  0  0  0  0  0  0  0  0  0  0  0
  186.6800  177.8430  146.8160 C   0  0  0  0  0  3  0  0  0  0  0  0
  180.2940  180.6930  138.5540 C   0  0  0  0  0  0  0  0  0  0  0  0
  182.6730  181.0760  138.7200 C   0  0  0  0  0  3  0  0  0  0  0  0
  181.8570  177.2510  139.8950 Cl  0  0  0  0  0  0  0  0  0  0  0  0
  178.9310  181.1810  138.2230 C   0  0  0  0  0  1  0  0  0  0  0  0
  181.3920  181.5370  138.4070 C   0  0  0  0  0  3  0  0  0  0  0  0
  181.7540  178.9130  139.3280 C   0  0  0  0  0  0  0  0  0  0  0  0
  182.8800  179.7660  139.1820 C   0  0  0  0  0  0  0  0  0  0  0  0
  180.4770  179.3870  139.0120 C   0  0  0  0  0  3  0  0  0  0  0  0
  191.6480  177.2620  140.8800 C   0  0  0  0  0  2  0  0  0  0  0  0
  191.8550  177.1790  139.5040 O   0  0  0  0  0  1  0  0  0  0  0  0
  1  2  1  0  0  0  0
  2  8  2  0  0  0  0
  2 20  1  0  0  0  0
  3  4  2  0  0  0  0
  4 14  1  0  0  0  0
  5 11  1  0  0  0  0
  5 16  2  0  0  0  0
  6 15  2  0  0  0  0
  6  1  1  0  0  0  0
  7 15  1  0  0  0  0
  8  5  1  0  0  0  0
  9 13  1  0  0  0  0
 10 20  1  0  0  0  0
 12 17  1  0  0  0  0
 12  9  2  0  0  0  0
 13  1  2  0  0  0  0
 13 19  1  0  0  0  0
 14  9  1  0  0  0  0
 17  6  1  0  0  0  0
 18 17  2  0  0  0  0
 18  7  1  0  0  0  0
 19 10  2  0  0  0  0
 20 21  2  0  0  0  0
 21 16  1  0  0  0  0
 22 29  1  0  0  0  0
 23 28  2  0  0  0  0
 25 22  1  0  0  0  0
 26 22  2  0  0  0  0
 26 23  1  0  0  0  0
 27 24  1  0  0  0  0
 28 27  1  0  0  0  0
 28  4  1  0  0  0  0
 29 27  2  0  0  0  0
 30  7  1  0  0  0  0
 31 30  1  0  0  0  0
M  END
>  <MODEL>
3

>  <REMARK>
 VINA RESULT:     -10.5      3.955      7.214
  Name = 
  2 active torsions:
  status: ('A' for Active; 'I' for Inactive)
    1  A    between atoms: C_2  and  N_13
    2  A    between atoms: C_9  and  C_22
                            x       y       z     vdW  Elec       q    Type
                         _______ _______ _______ _____ _____    ______ ____

>  <TORSDO>
F 2

$$$$
=
 OpenBabel11052413083D

 31 35  0  0  0  0  0  0  0  0999 V2000
  187.4830  178.1430  139.4630 C   0  0  0  0  0  0  0  0  0  0  0  0
  187.9740  178.0440  138.1430 C   0  0  0  0  0  0  0  0  0  0  0  0
  187.2470  177.9610  144.7370 O   0  0  0  0  0  0  0  0  0  0  0  0
  188.3960  177.5910  144.3760 C   0  0  0  0  0  0  0  0  0  0  0  0
  187.7160  178.2530  135.7330 C   0  0  0  0  0  0  0  0  0  0  0  0
  186.1870  178.5640  139.7950 C   0  0  0  0  0  0  0  0  0  0  0  0
  184.1620  179.2510  139.7900 N   0  0  0  0  0  0  0  0  0  0  0  0
  187.1910  178.3640  137.0220 C   0  0  0  0  0  3  0  0  0  0  0  0
  187.8590  177.8950  141.8900 C   0  0  0  0  0  0  0  0  0  0  0  0
  190.0880  177.2850  139.0080 N   0  0  0  0  0  0  0  0  0  0  0  0
  186.9500  178.5660  134.6610 F   0  0  0  0  0  0  0  0  0  0  0  0
  186.5800  178.3170  142.1340 N   0  0  0  0  0  0  0  0  0  0  0  0
  188.3330  177.8000  140.5530 C   0  0  0  0  0  0  0  0  0  0  0  0
  188.7270  177.5480  142.9800 N   0  0  0  0  0  2  0  0  0  0  0  0
  185.1810  178.9510  138.9910 N   0  0  0  0  0  0  0  0  0  0  0  0
  189.0300  177.8170  135.5470 C   0  0  0  0  0  3  0  0  0  0  0  0
  185.7780  178.6380  141.0920 C   0  0  0  0  0  0  0  0  0  0  0  0
  184.4790  179.0840  141.0980 C   0  0  0  0  0  3  0  0  0  0  0  0
  189.6380  177.3730  140.2850 C   0  0  0  0  0  3  0  0  0  0  0  0
  189.3060  177.6030  137.9440 C   0  0  0  0  0  0  0  0  0  0  0  0
  189.8230  177.4930  136.6510 C   0  0  0  0  0  3  0  0  0  0  0  0
  191.4600  176.4150  147.1560 C   0  0  0  0  0  0  0  0  0  0  0  0
  190.6670  176.7640  144.9010 C   0  0  0  0  0  3  0  0  0  0  0  0
  187.6950  177.7470  147.5240 Cl  0  0  0  0  0  0  0  0  0  0  0  0
  192.5360  176.0030  148.0930 C   0  0  0  0  0  1  0  0  0  0  0  0
  191.6810  176.3770  145.7810 C   0  0  0  0  0  3  0  0  0  0  0  0
  189.2040  177.2320  146.7820 C   0  0  0  0  0  0  0  0  0  0  0  0
  189.4190  177.1960  145.3780 C   0  0  0  0  0  0  0  0  0  0  0  0
  190.2270  176.8410  147.6510 C   0  0  0  0  0  3  0  0  0  0  0  0
  182.8880  179.7530  139.3080 C   0  0  0  0  0  2  0  0  0  0  0  0
  183.0710  181.0040  138.7180 O   0  0  0  0  0  1  0  0  0  0  0  0
  1  6  1  0  0  0  0
  1 13  1  0  0  0  0
  2  1  2  0  0  0  0
  4  3  2  0  0  0  0
  4 28  1  0  0  0  0
  5  8  2  0  0  0  0
  6 17  1  0  0  0  0
  7 18  1  0  0  0  0
  8  2  1  0  0  0  0
  9 12  2  0  0  0  0
  9 14  1  0  0  0  0
 10 19  1  0  0  0  0
 11  5  1  0  0  0  0
 13  9  1  0  0  0  0
 14  4  1  0  0  0  0
 15  7  1  0  0  0  0
 15  6  2  0  0  0  0
 16  5  1  0  0  0  0
 16 21  2  0  0  0  0
 17 18  2  0  0  0  0
 17 12  1  0  0  0  0
 19 13  2  0  0  0  0
 20  2  1  0  0  0  0
 20 10  2  0  0  0  0
 21 20  1  0  0  0  0
 22 29  1  0  0  0  0
 22 25  1  0  0  0  0
 23 28  2  0  0  0  0
 23 26  1  0  0  0  0
 26 22  2  0  0  0  0
 27 24  1  0  0  0  0
 27 29  2  0  0  0  0
 28 27  1  0  0  0  0
 30  7  1  0  0  0  0
 31 30  1  0  0  0  0
M  END
>  <MODEL>
4

>  <REMARK>
 VINA RESULT:     -10.3      3.957      7.841
  Name = 
  2 active torsions:
  status: ('A' for Active; 'I' for Inactive)
    1  A    between atoms: C_2  and  N_13
    2  A    between atoms: C_9  and  C_22
                            x       y       z     vdW  Elec       q    Type
                         _______ _______ _______ _____ _____    ______ ____

>  <TORSDO>
F 2

$$$$
=
 OpenBabel11052413083D

 31 35  0  0  0  0  0  0  0  0999 V2000
  188.8710  177.3700  144.0500 C   0  0  0  0  0  0  0  0  0  0  0  0
  189.5140  177.1020  145.2780 C   0  0  0  0  0  0  0  0  0  0  0  0
  185.1190  178.5390  140.5220 O   0  0  0  0  0  0  0  0  0  0  0  0
  184.5960  178.5210  141.6680 C   0  0  0  0  0  0  0  0  0  0  0  0
  191.4820  176.5500  146.5990 C   0  0  0  0  0  0  0  0  0  0  0  0
  189.5160  177.3730  142.8050 C   0  0  0  0  0  0  0  0  0  0  0  0
  190.9130  177.2640  141.1900 N   0  0  0  0  0  0  0  0  0  0  0  0
  190.8850  176.8080  145.3630 C   0  0  0  0  0  3  0  0  0  0  0  0
  186.8110  177.9340  142.8140 C   0  0  0  0  0  0  0  0  0  0  0  0
  187.4180  177.4090  146.4200 N   0  0  0  0  0  0  0  0  0  0  0  0
  192.8050  176.2680  146.6660 F   0  0  0  0  0  0  0  0  0  0  0  0
  187.5100  177.9200  141.6370 N   0  0  0  0  0  0  0  0  0  0  0  0
  187.4770  177.6590  144.0400 C   0  0  0  0  0  0  0  0  0  0  0  0
  185.4050  178.2260  142.8170 N   0  0  0  0  0  2  0  0  0  0  0  0
  190.8080  177.1440  142.5100 N   0  0  0  0  0  0  0  0  0  0  0  0
  190.7160  176.5790  147.7660 C   0  0  0  0  0  3  0  0  0  0  0  0
  188.8340  177.6420  141.6570 C   0  0  0  0  0  0  0  0  0  0  0  0
  189.7270  177.5790  140.6140 C   0  0  0  0  0  3  0  0  0  0  0  0
  186.7780  177.6710  145.2520 C   0  0  0  0  0  3  0  0  0  0  0  0
  188.7460  177.1300  146.4690 C   0  0  0  0  0  0  0  0  0  0  0  0
  189.3510  176.8680  147.7010 C   0  0  0  0  0  3  0  0  0  0  0  0
  180.3870  179.3250  142.0360 C   0  0  0  0  0  0  0  0  0  0  0  0
  182.3420  178.8440  140.7020 C   0  0  0  0  0  3  0  0  0  0  0  0
  183.4250  179.0110  144.6370 Cl  0  0  0  0  0  0  0  0  0  0  0  0
  178.9310  179.6010  142.1340 C   0  0  0  0  0  1  0  0  0  0  0  0
  180.9730  179.1020  140.7920 C   0  0  0  0  0  3  0  0  0  0  0  0
  182.5430  179.0310  143.1140 C   0  0  0  0  0  0  0  0  0  0  0  0
  183.1490  178.8020  141.8510 C   0  0  0  0  0  0  0  0  0  0  0  0
  181.1710  179.2890  143.1900 C   0  0  0  0  0  3  0  0  0  0  0  0
  192.1680  177.1280  140.4730 C   0  0  0  0  0  2  0  0  0  0  0  0
  191.9120  176.8850  139.1230 O   0  0  0  0  0  1  0  0  0  0  0  0
  1  2  1  0  0  0  0
  2  8  2  0  0  0  0
  2 20  1  0  0  0  0
  3  4  2  0  0  0  0
  4 28  1  0  0  0  0
  4 14  1  0  0  0  0
  5 11  1  0  0  0  0
  5 16  2  0  0  0  0
  6  1  1  0  0  0  0
  7 15  1  0  0  0  0
  8  5  1  0  0  0  0
  9 14  1  0  0  0  0
  9 13  1  0  0  0  0
 10 20  1  0  0  0  0
 12 17  1  0  0  0  0
 12  9  2  0  0  0  0
 13  1  2  0  0  0  0
 13 19  1  0  0  0  0
 15  6  2  0  0  0  0
 17  6  1  0  0  0  0
 18  7  1  0  0  0  0
 18 17  2  0  0  0  0
 19 10  2  0  0  0  0
 20 21  2  0  0  0  0
 21 16  1  0  0  0  0
 22 25  1  0  0  0  0
 22 29  1  0  0  0  0
 23 26  1  0  0  0  0
 23 28  2  0  0  0  0
 26 22  2  0  0  0  0
 27 29  2  0  0  0  0
 27 24  1  0  0  0  0
 28 27  1  0  0  0  0
 30  7  1  0  0  0  0
 31 30  1  0  0  0  0
M  END
>  <MODEL>
5

>  <REMARK>
 VINA RESULT:     -10.2      3.163      7.265
  Name = 
  2 active torsions:
  status: ('A' for Active; 'I' for Inactive)
    1  A    between atoms: C_2  and  N_13
    2  A    between atoms: C_9  and  C_22
                            x       y       z     vdW  Elec       q    Type
                         _______ _______ _______ _____ _____    ______ ____

>  <TORSDO>
F 2

$$$$
=
 OpenBabel11052413083D

 31 35  0  0  0  0  0  0  0  0999 V2000
  188.5600  177.3470  144.7270 C   0  0  0  0  0  0  0  0  0  0  0  0
  187.6680  177.7670  145.7380 C   0  0  0  0  0  0  0  0  0  0  0  0
  190.6000  176.3430  139.9600 O   0  0  0  0  0  0  0  0  0  0  0  0
  189.4570  176.8510  139.8050 C   0  0  0  0  0  0  0  0  0  0  0  0
  187.0610  178.0860  148.0720 C   0  0  0  0  0  0  0  0  0  0  0  0
  189.8220  176.7860  144.9700 C   0  0  0  0  0  0  0  0  0  0  0  0
  191.6140  176.0030  145.8330 N   0  0  0  0  0  0  0  0  0  0  0  0
  187.9720  177.6570  147.1050 C   0  0  0  0  0  3  0  0  0  0  0  0
  189.0690  177.0730  142.3280 C   0  0  0  0  0  0  0  0  0  0  0  0
  186.0950  178.4370  144.0430 N   0  0  0  0  0  0  0  0  0  0  0  0
  187.3670  177.9750  149.3870 F   0  0  0  0  0  0  0  0  0  0  0  0
  190.2880  176.5360  142.6450 N   0  0  0  0  0  0  0  0  0  0  0  0
  188.1850  177.4880  143.3610 C   0  0  0  0  0  0  0  0  0  0  0  0
  188.6790  177.2210  140.9530 N   0  0  0  0  0  2  0  0  0  0  0  0
  190.4380  176.5400  146.1400 N   0  0  0  0  0  0  0  0  0  0  0  0
  185.8330  178.6270  147.6870 C   0  0  0  0  0  3  0  0  0  0  0  0
  190.6340  176.4040  143.9470 C   0  0  0  0  0  0  0  0  0  0  0  0
  191.7920  175.9040  144.4930 C   0  0  0  0  0  3  0  0  0  0  0  0
  186.9370  178.0410  143.0550 C   0  0  0  0  0  3  0  0  0  0  0  0
  186.4190  178.3190  145.3570 C   0  0  0  0  0  0  0  0  0  0  0  0
  185.5130  178.7430  146.3320 C   0  0  0  0  0  3  0  0  0  0  0  0
  187.7760  177.6390  135.9260 C   0  0  0  0  0  0  0  0  0  0  0  0
  188.1340  178.2350  138.2390 C   0  0  0  0  0  3  0  0  0  0  0  0
  190.0300  174.7000  137.4660 Cl  0  0  0  0  0  0  0  0  0  0  0  0
  187.1830  177.9350  134.5960 C   0  0  0  0  0  1  0  0  0  0  0  0
  187.5770  178.5160  136.9900 C   0  0  0  0  0  3  0  0  0  0  0  0
  189.0980  176.1880  137.3560 C   0  0  0  0  0  0  0  0  0  0  0  0
  188.9000  177.0760  138.4470 C   0  0  0  0  0  0  0  0  0  0  0  0
  188.5330  176.4820  136.1110 C   0  0  0  0  0  3  0  0  0  0  0  0
  192.6050  175.6280  146.8260 C   0  0  0  0  0  2  0  0  0  0  0  0
  192.4300  176.3980  147.9760 O   0  0  0  0  0  1  0  0  0  0  0  0
  1  6  1  0  0  0  0
  1  2  1  0  0  0  0
  2  8  1  0  0  0  0
  4  3  2  0  0  0  0
  4 14  1  0  0  0  0
  5 11  1  0  0  0  0
  6 15  2  0  0  0  0
  7 15  1  0  0  0  0
  7 30  1  0  0  0  0
  8  5  2  0  0  0  0
  9 12  2  0  0  0  0
  9 13  1  0  0  0  0
 10 20  1  0  0  0  0
 12 17  1  0  0  0  0
 13  1  2  0  0  0  0
 14  9  1  0  0  0  0
 16  5  1  0  0  0  0
 17 18  2  0  0  0  0
 17  6  1  0  0  0  0
 18  7  1  0  0  0  0
 19 13  1  0  0  0  0
 19 10  2  0  0  0  0
 20  2  2  0  0  0  0
 20 21  1  0  0  0  0
 21 16  2  0  0  0  0
 22 29  2  0  0  0  0
 22 26  1  0  0  0  0
 23 28  1  0  0  0  0
 25 22  1  0  0  0  0
 26 23  2  0  0  0  0
 27 24  1  0  0  0  0
 27 28  2  0  0  0  0
 28  4  1  0  0  0  0
 29 27  1  0  0  0  0
 30 31  1  0  0  0  0
M  END
>  <MODEL>
6

>  <REMARK>
 VINA RESULT:     -10.1      2.639      4.498
  Name = 
  2 active torsions:
  status: ('A' for Active; 'I' for Inactive)
    1  A    between atoms: C_2  and  N_13
    2  A    between atoms: C_9  and  C_22
                            x       y       z     vdW  Elec       q    Type
                         _______ _______ _______ _____ _____    ______ ____

>  <TORSDO>
F 2

$$$$
=
 OpenBabel11052413083D

 31 35  0  0  0  0  0  0  0  0999 V2000
  188.5910  177.6670  142.7680 C   0  0  0  0  0  0  0  0  0  0  0  0
  189.0630  177.4100  144.0740 C   0  0  0  0  0  0  0  0  0  0  0  0
  185.3810  178.9380  138.7710 O   0  0  0  0  0  0  0  0  0  0  0  0
  184.7270  179.0090  139.8450 C   0  0  0  0  0  0  0  0  0  0  0  0
  190.8130  176.7810  145.6420 C   0  0  0  0  0  0  0  0  0  0  0  0
  189.3770  177.5690  141.6100 C   0  0  0  0  0  0  0  0  0  0  0  0
  190.9430  177.2880  140.1820 N   0  0  0  0  0  0  0  0  0  0  0  0
  190.3870  177.0240  144.3340 C   0  0  0  0  0  3  0  0  0  0  0  0
  186.7400  178.3190  141.2710 C   0  0  0  0  0  0  0  0  0  0  0  0
  186.8750  177.9160  144.9410 N   0  0  0  0  0  0  0  0  0  0  0  0
  192.0940  176.4100  145.8790 F   0  0  0  0  0  0  0  0  0  0  0  0
  187.5710  178.2030  140.1890 N   0  0  0  0  0  0  0  0  0  0  0  0
  187.2340  178.0540  142.5780 C   0  0  0  0  0  0  0  0  0  0  0  0
  185.3690  178.7090  141.0930 N   0  0  0  0  0  2  0  0  0  0  0  0
  190.6740  177.2360  141.4830 N   0  0  0  0  0  0  0  0  0  0  0  0
  189.9190  176.9160  146.7060 C   0  0  0  0  0  3  0  0  0  0  0  0
  188.8580  177.8330  140.3790 C   0  0  0  0  0  0  0  0  0  0  0  0
  189.8600  177.6600  139.4550 C   0  0  0  0  0  3  0  0  0  0  0  0
  186.4000  178.1690  143.6950 C   0  0  0  0  0  3  0  0  0  0  0  0
  188.1630  177.5460  145.1600 C   0  0  0  0  0  0  0  0  0  0  0  0
  188.5970  177.2980  146.4650 C   0  0  0  0  0  3  0  0  0  0  0  0
  180.5990  180.2080  139.6860 C   0  0  0  0  0  0  0  0  0  0  0  0
  182.8080  180.0890  138.7170 C   0  0  0  0  0  3  0  0  0  0  0  0
  182.8580  178.2630  142.3700 Cl  0  0  0  0  0  0  0  0  0  0  0  0
  179.1780  180.6340  139.6050 C   0  0  0  0  0  1  0  0  0  0  0  0
  181.4730  180.4900  138.6390 C   0  0  0  0  0  3  0  0  0  0  0  0
  182.3950  179.1160  140.9030 C   0  0  0  0  0  0  0  0  0  0  0  0
  183.2940  179.3990  139.8400 C   0  0  0  0  0  0  0  0  0  0  0  0
  181.0610  179.5240  140.8110 C   0  0  0  0  0  3  0  0  0  0  0  0
  192.2600  177.0320  139.6270 C   0  0  0  0  0  2  0  0  0  0  0  0
  193.1910  177.8830  140.2220 O   0  0  0  0  0  1  0  0  0  0  0  0
  1  2  1  0  0  0  0
  2  8  2  0  0  0  0
  2 20  1  0  0  0  0
  3  4  2  0  0  0  0
  4 14  1  0  0  0  0
  5 11  1  0  0  0  0
  5 16  2  0  0  0  0
  6  1  1  0  0  0  0
  7 15  1  0  0  0  0
  8  5  1  0  0  0  0
  9 13  1  0  0  0  0
 10 20  1  0  0  0  0
 12 17  1  0  0  0  0
 12  9  2  0  0  0  0
 13  1  2  0  0  0  0
 13 19  1  0  0  0  0
 14  9  1  0  0  0  0
 15  6  2  0  0  0  0
 17  6  1  0  0  0  0
 18  7  1  0  0  0  0
 18 17  2  0  0  0  0
 19 10  2  0  0  0  0
 20 21  2  0  0  0  0
 21 16  1  0  0  0  0
 22 29  1  0  0  0  0
 23 28  2  0  0  0  0
 25 22  1  0  0  0  0
 26 23  1  0  0  0  0
 26 22  2  0  0  0  0
 27 24  1  0  0  0  0
 28  4  1  0  0  0  0
 28 27  1  0  0  0  0
 29 27  2  0  0  0  0
 30  7  1  0  0  0  0
 30 31  1  0  0  0  0
M  END
>  <MODEL>
7

>  <REMARK>
 VINA RESULT:      -9.5      3.570      7.127
  Name = 
  2 active torsions:
  status: ('A' for Active; 'I' for Inactive)
    1  A    between atoms: C_2  and  N_13
    2  A    between atoms: C_9  and  C_22
                            x       y       z     vdW  Elec       q    Type
                         _______ _______ _______ _____ _____    ______ ____

>  <TORSDO>
F 2

$$$$
=
 OpenBabel11052413083D

 31 35  0  0  0  0  0  0  0  0999 V2000
  188.0660  177.6650  144.4310 C   0  0  0  0  0  0  0  0  0  0  0  0
  186.7920  178.0080  144.9340 C   0  0  0  0  0  0  0  0  0  0  0  0
  191.9700  176.5230  141.0620 O   0  0  0  0  0  0  0  0  0  0  0  0
  190.9230  176.7440  140.3980 C   0  0  0  0  0  0  0  0  0  0  0  0
  185.2600  178.4860  146.7630 C   0  0  0  0  0  0  0  0  0  0  0  0
  189.1950  177.4310  145.2310 C   0  0  0  0  0  0  0  0  0  0  0  0
  190.5870  177.1770  146.8330 N   0  0  0  0  0  0  0  0  0  0  0  0
  186.5360  178.1450  146.3080 C   0  0  0  0  0  3  0  0  0  0  0  0
  189.5290  177.2010  142.4980 C   0  0  0  0  0  0  0  0  0  0  0  0
  185.9470  178.0920  142.6810 N   0  0  0  0  0  0  0  0  0  0  0  0
  185.0280  178.6160  148.0910 F   0  0  0  0  0  0  0  0  0  0  0  0
  190.5840  176.9890  143.3440 N   0  0  0  0  0  0  0  0  0  0  0  0
  188.2530  177.5420  143.0250 C   0  0  0  0  0  0  0  0  0  0  0  0
  189.7040  177.0810  141.0780 N   0  0  0  0  0  2  0  0  0  0  0  0
  189.3190  177.4790  146.5690 N   0  0  0  0  0  0  0  0  0  0  0  0
  184.2230  178.6910  145.8510 C   0  0  0  0  0  3  0  0  0  0  0  0
  190.3960  177.1060  144.6790 C   0  0  0  0  0  0  0  0  0  0  0  0
  191.2990  176.9460  145.7030 C   0  0  0  0  0  3  0  0  0  0  0  0
  187.1640  177.7650  142.1750 C   0  0  0  0  0  3  0  0  0  0  0  0
  185.7330  178.2180  144.0160 C   0  0  0  0  0  0  0  0  0  0  0  0
  184.4590  178.5570  144.4810 C   0  0  0  0  0  3  0  0  0  0  0  0
  191.0580  176.3970  136.1130 C   0  0  0  0  0  0  0  0  0  0  0  0
  191.8210  175.7590  138.3140 C   0  0  0  0  0  3  0  0  0  0  0  0
  188.9270  178.6180  138.6860 Cl  0  0  0  0  0  0  0  0  0  0  0  0
  191.1250  176.2570  134.6360 C   0  0  0  0  0  1  0  0  0  0  0  0
  191.8850  175.6250  136.9260 C   0  0  0  0  0  3  0  0  0  0  0  0
  190.0890  177.4450  138.0780 C   0  0  0  0  0  0  0  0  0  0  0  0
  190.9290  176.6630  138.9150 C   0  0  0  0  0  0  0  0  0  0  0  0
  190.1650  177.3010  136.6890 C   0  0  0  0  0  3  0  0  0  0  0  0
  191.1410  177.1600  148.1750 C   0  0  0  0  0  2  0  0  0  0  0  0
  192.4250  176.6160  148.1440 O   0  0  0  0  0  1  0  0  0  0  0  0
  1  2  1  0  0  0  0
  1  6  1  0  0  0  0
  2  8  1  0  0  0  0
  4  3  2  0  0  0  0
  4 14  1  0  0  0  0
  5 11  1  0  0  0  0
  6 15  2  0  0  0  0
  7 30  1  0  0  0  0
  8  5  2  0  0  0  0
  9 13  1  0  0  0  0
  9 12  2  0  0  0  0
 10 20  1  0  0  0  0
 12 17  1  0  0  0  0
 13  1  2  0  0  0  0
 14  9  1  0  0  0  0
 15  7  1  0  0  0  0
 16  5  1  0  0  0  0
 17  6  1  0  0  0  0
 17 18  2  0  0  0  0
 18  7  1  0  0  0  0
 19 10  2  0  0  0  0
 19 13  1  0  0  0  0
 20 21  1  0  0  0  0
 20  2  2  0  0  0  0
 21 16  2  0  0  0  0
 22 29  2  0  0  0  0
 22 26  1  0  0  0  0
 23 28  1  0  0  0  0
 25 22  1  0  0  0  0
 26 23  2  0  0  0  0
 27 24  1  0  0  0  0
 27 28  2  0  0  0  0
 28  4  1  0  0  0  0
 29 27  1  0  0  0  0
 31 30  1  0  0  0  0
M  END
>  <MODEL>
8

>  <REMARK>
 VINA RESULT:      -9.4      2.410      4.239
  Name = 
  2 active torsions:
  status: ('A' for Active; 'I' for Inactive)
    1  A    between atoms: C_2  and  N_13
    2  A    between atoms: C_9  and  C_22
                            x       y       z     vdW  Elec       q    Type
                         _______ _______ _______ _____ _____    ______ ____

>  <TORSDO>
F 2

$$$$
=
 OpenBabel11052413083D

 31 35  0  0  0  0  0  0  0  0999 V2000
  187.6290  177.8810  143.9820 C   0  0  0  0  0  0  0  0  0  0  0  0
  188.9130  177.6420  143.4460 C   0  0  0  0  0  0  0  0  0  0  0  0
  182.4360  178.7840  144.3080 O   0  0  0  0  0  0  0  0  0  0  0  0
  182.7490  178.6940  143.0920 C   0  0  0  0  0  0  0  0  0  0  0  0
  191.3000  177.2370  143.6830 C   0  0  0  0  0  0  0  0  0  0  0  0
  187.3500  177.9700  145.3540 C   0  0  0  0  0  0  0  0  0  0  0  0
  187.4290  178.0190  147.4900 N   0  0  0  0  0  0  0  0  0  0  0  0
  190.0480  177.4710  144.2550 C   0  0  0  0  0  3  0  0  0  0  0  0
  185.2210  178.2850  143.6210 C   0  0  0  0  0  0  0  0  0  0  0  0
  187.9830  177.7380  141.2280 N   0  0  0  0  0  0  0  0  0  0  0  0
  192.3870  177.0730  144.4760 F   0  0  0  0  0  0  0  0  0  0  0  0
  185.0280  178.3570  144.9740 N   0  0  0  0  0  0  0  0  0  0  0  0
  186.5230  178.0460  143.1010 C   0  0  0  0  0  0  0  0  0  0  0  0
  184.1140  178.4480  142.7210 N   0  0  0  0  0  2  0  0  0  0  0  0
  188.1800  177.8530  146.4050 N   0  0  0  0  0  0  0  0  0  0  0  0
  191.4360  177.1730  142.2950 C   0  0  0  0  0  3  0  0  0  0  0  0
  186.0860  178.2010  145.8040 C   0  0  0  0  0  0  0  0  0  0  0  0
  186.1270  178.2280  147.1770 C   0  0  0  0  0  3  0  0  0  0  0  0
  186.7390  177.9670  141.7210 C   0  0  0  0  0  3  0  0  0  0  0  0
  189.0600  177.5750  142.0380 C   0  0  0  0  0  0  0  0  0  0  0  0
  190.3170  177.3420  141.4740 C   0  0  0  0  0  3  0  0  0  0  0  0
  179.8960  179.1230  139.9010 C   0  0  0  0  0  0  0  0  0  0  0  0
  182.1700  178.9950  140.7050 C   0  0  0  0  0  3  0  0  0  0  0  0
  179.6160  178.6390  143.8730 Cl  0  0  0  0  0  0  0  0  0  0  0  0
  178.9330  179.2740  138.7800 C   0  0  0  0  0  1  0  0  0  0  0  0
  181.2660  179.1360  139.6500 C   0  0  0  0  0  3  0  0  0  0  0  0
  180.3240  178.8260  142.2730 C   0  0  0  0  0  0  0  0  0  0  0  0
  181.7220  178.8380  142.0280 C   0  0  0  0  0  0  0  0  0  0  0  0
  179.4300  178.9690  141.2070 C   0  0  0  0  0  3  0  0  0  0  0  0
  187.9470  177.9240  148.8430 C   0  0  0  0  0  2  0  0  0  0  0  0
  189.3070  178.2360  148.8460 O   0  0  0  0  0  1  0  0  0  0  0  0
  1  6  1  0  0  0  0
  2  1  1  0  0  0  0
  2  8  1  0  0  0  0
  4  3  2  0  0  0  0
  5  8  2  0  0  0  0
  5 11  1  0  0  0  0
  6 17  1  0  0  0  0
  6 15  2  0  0  0  0
  7 30  1  0  0  0  0
  9 12  2  0  0  0  0
 10 19  2  0  0  0  0
 10 20  1  0  0  0  0
 12 17  1  0  0  0  0
 13  9  1  0  0  0  0
 13  1  2  0  0  0  0
 14  4  1  0  0  0  0
 14  9  1  0  0  0  0
 15  7  1  0  0  0  0
 16  5  1  0  0  0  0
 17 18  2  0  0  0  0
 18  7  1  0  0  0  0
 19 13  1  0  0  0  0
 20  2  2  0  0  0  0
 21 20  1  0  0  0  0
 21 16  2  0  0  0  0
 22 29  1  0  0  0  0
 23 28  2  0  0  0  0
 25 22  1  0  0  0  0
 26 22  2  0  0  0  0
 26 23  1  0  0  0  0
 27 24  1  0  0  0  0
 28 27  1  0  0  0  0
 28  4  1  0  0  0  0
 29 27  2  0  0  0  0
 30 31  1  0  0  0  0
M  END
>  <MODEL>
9

>  <REMARK>
 VINA RESULT:      -9.3      4.126      7.674
  Name = 
  2 active torsions:
  status: ('A' for Active; 'I' for Inactive)
    1  A    between atoms: C_2  and  N_13
    2  A    between atoms: C_9  and  C_22
                            x       y       z     vdW  Elec       q    Type
                         _______ _______ _______ _____ _____    ______ ____

>  <TORSDO>
F 2

$$$$
