=
 OpenBabel11052413273D

 28 31  0  0  1  0  0  0  0  0999 V2000
  184.2800  178.6950  139.3270 C   0  0  0  0  0  2  0  0  0  0  0  0
  182.6210  179.0080  143.1380 C   0  0  0  0  0  3  0  0  0  0  0  0
  185.6360  178.5480  142.7930 C   0  0  0  0  0  3  0  0  0  0  0  0
  182.4240  178.3160  140.8120 C   0  0  2  0  0  3  0  0  0  0  0  0
  184.2960  178.6080  144.9020 C   0  0  0  0  0  0  0  0  0  0  0  0
  183.2580  178.6950  142.0060 C   0  0  0  0  0  0  0  0  0  0  0  0
  185.3060  178.9490  140.4370 C   0  0  0  0  0  2  0  0  0  0  0  0
  185.3690  178.2310  144.2110 C   0  0  0  0  0  3  0  0  0  0  0  0
  181.0930  177.5930  138.5180 C   0  0  2  0  0  3  0  0  0  0  0  0
  183.2870  177.7200  139.7750 N   0  0  1  0  0  0  0  0  0  0  0  0
  184.7400  178.7970  141.8270 C   0  0  0  0  0  0  0  0  0  0  0  0
  180.9710  179.4040  138.6210 S   0  0  0  0  0  0  0  0  0  0  0  0
  184.1810  178.2220  146.1960 F   0  0  0  0  0  0  0  0  0  0  0  0
  183.2940  179.5610  144.3480 C   0  0  0  0  0  2  0  0  0  0  0  0
  181.6430  179.5470  140.3160 C   0  0  0  0  0  2  0  0  0  0  0  0
  182.5650  177.1630  138.6170 C   0  0  1  0  0  3  0  0  0  0  0  0
  178.9310  177.5430  137.0170 O   0  0  0  0  0  1  0  0  0  0  0  0
  181.0950  177.9840  135.7700 O   0  0  0  0  0  1  0  0  0  0  0  0
  180.3590  177.0190  136.9650 S   0  0  0  0  0  3  0  0  0  0  0  0
  182.7230  175.6350  138.5630 C   0  0  2  0  0  3  0  0  0  0  0  0
  184.0430  176.1300  136.3100 C   0  0  0  0  0  1  0  0  0  0  0  0
  183.0420  173.8510  136.7750 C   0  0  0  0  0  2  0  0  0  0  0  0
  183.5530  175.1450  137.3670 C   0  0  2  0  0  0  0  0  0  0  0  0
  184.3330  173.8530  137.5800 C   0  0  2  0  0  3  0  0  0  0  0  0
  185.4240  173.7720  136.7120 O   0  0  0  0  0  1  0  0  0  0  0  0
  181.3570  174.9620  138.6290 C   0  0  0  0  0  2  0  0  0  0  0  0
  179.6820  174.4730  139.8750 O   0  0  0  0  0  1  0  0  0  0  0  0
  180.9410  174.8470  139.9550 O   0  0  0  0  0  0  0  0  0  0  0  0
  1  7  1  0  0  0  0
  2 14  1  0  0  0  0
  3  8  1  0  0  0  0
  4 15  1  6  0  0  0
  4  6  1  0  0  0  0
  5 13  1  0  0  0  0
  6  2  2  0  0  0  0
  7 11  1  0  0  0  0
  8  5  2  0  0  0  0
  9 19  1  6  0  0  0
  9 16  1  0  0  0  0
  9 12  1  0  0  0  0
 10  1  1  6  0  0  0
 10  4  1  0  0  0  0
 11  6  1  0  0  0  0
 11  3  2  0  0  0  0
 12 15  1  0  0  0  0
 14  5  1  0  0  0  0
 16 20  1  1  0  0  0
 16 10  1  0  0  0  0
 18 19  1  0  0  0  0
 19 17  1  0  0  0  0
 20 26  1  6  0  0  0
 22 23  1  0  0  0  0
 22 24  1  0  0  0  0
 23 21  1  6  0  0  0
 23 24  1  0  0  0  0
 23 20  1  0  0  0  0
 24 25  1  6  0  0  0
 26 28  1  0  0  0  0
 27 28  1  0  0  0  0
M  END
>  <MODEL>
1

>  <REMARK>
 VINA RESULT:      -5.5      0.000      0.000
  Name = 
  5 active torsions:
  status: ('A' for Active; 'I' for Inactive)
    1  A    between atoms: C_1  and  C_7
    2  A    between atoms: C_1  and  C_26
    3  A    between atoms: C_1  and  C_27
    4  A    between atoms: O_11  and  C_26
    5  A    between atoms: C_16  and  S_21
                            x       y       z     vdW  Elec       q    Type
                         _______ _______ _______ _____ _____    ______ ____

>  <TORSDO>
F 5

$$$$
=
 OpenBabel11052413273D

 28 31  0  0  1  0  0  0  0  0999 V2000
  191.7570  177.4450  139.1280 C   0  0  0  0  0  2  0  0  0  0  0  0
  188.6550  177.5930  141.9090 C   0  0  0  0  0  3  0  0  0  0  0  0
  191.5090  176.9070  142.8050 C   0  0  0  0  0  3  0  0  0  0  0  0
  189.4320  177.1080  139.6530 C   0  0  2  0  0  3  0  0  0  0  0  0
  189.4060  176.9110  144.1550 C   0  0  0  0  0  0  0  0  0  0  0  0
  189.6980  177.3170  141.1190 C   0  0  0  0  0  0  0  0  0  0  0  0
  192.2260  177.5210  140.5850 C   0  0  0  0  0  2  0  0  0  0  0  0
  190.6540  176.5020  143.9390 C   0  0  0  0  0  3  0  0  0  0  0  0
  189.1680  176.6860  136.9480 C   0  0  2  0  0  3  0  0  0  0  0  0
  190.6260  176.5250  139.0120 N   0  0  1  0  0  0  0  0  0  0  0  0
  191.1190  177.3080  141.5860 C   0  0  0  0  0  0  0  0  0  0  0  0
  189.0920  178.4870  137.1870 S   0  0  0  0  0  0  0  0  0  0  0  0
  188.7370  176.4350  145.2330 F   0  0  0  0  0  0  0  0  0  0  0  0
  188.7760  177.9870  143.3410 C   0  0  0  0  0  2  0  0  0  0  0  0
  188.9890  178.4360  139.0120 C   0  0  0  0  0  2  0  0  0  0  0  0
  190.4400  176.1260  137.6060 C   0  0  1  0  0  3  0  0  0  0  0  0
  188.1200  177.2810  134.6080 O   0  0  0  0  0  1  0  0  0  0  0  0
  190.6260  176.8870  134.5950 O   0  0  0  0  0  1  0  0  0  0  0  0
  189.1370  176.3020  135.1790 S   0  0  0  0  0  3  0  0  0  0  0  0
  190.5390  174.5990  137.4570 C   0  0  2  0  0  3  0  0  0  0  0  0
  191.7220  172.9550  135.7370 C   0  0  0  0  0  1  0  0  0  0  0  0
  193.0370  174.1230  137.5590 C   0  0  0  0  0  2  0  0  0  0  0  0
  191.7930  174.1360  136.7010 C   0  0  2  0  0  0  0  0  0  0  0  0
  192.8720  175.1910  136.4870 C   0  0  2  0  0  3  0  0  0  0  0  0
  193.6760  174.8770  135.3890 O   0  0  0  0  0  1  0  0  0  0  0  0
  189.2590  174.0450  136.8420 C   0  0  0  0  0  2  0  0  0  0  0  0
  188.0860  172.2540  136.7230 O   0  0  0  0  0  1  0  0  0  0  0  0
  188.8090  172.9490  137.5760 O   0  0  0  0  0  0  0  0  0  0  0  0
  1  7  1  0  0  0  0
  2 14  1  0  0  0  0
  3  8  1  0  0  0  0
  4 15  1  6  0  0  0
  4  6  1  0  0  0  0
  5 13  1  0  0  0  0
  6 11  1  0  0  0  0
  6  2  2  0  0  0  0
  7 11  1  0  0  0  0
  8  5  2  0  0  0  0
  9 19  1  6  0  0  0
  9 12  1  0  0  0  0
  9 16  1  0  0  0  0
 10  1  1  6  0  0  0
 10  4  1  0  0  0  0
 11  3  2  0  0  0  0
 12 15  1  0  0  0  0
 14  5  1  0  0  0  0
 16 20  1  1  0  0  0
 16 10  1  0  0  0  0
 17 19  1  0  0  0  0
 18 19  1  0  0  0  0
 20 26  1  6  0  0  0
 23 21  1  6  0  0  0
 23 20  1  0  0  0  0
 23 22  1  0  0  0  0
 24 25  1  6  0  0  0
 24 23  1  0  0  0  0
 24 22  1  0  0  0  0
 26 28  1  0  0  0  0
 27 28  1  0  0  0  0
M  END
>  <MODEL>
2

>  <REMARK>
 VINA RESULT:      -5.5      6.476      7.778
  Name = 
  5 active torsions:
  status: ('A' for Active; 'I' for Inactive)
    1  A    between atoms: C_1  and  C_7
    2  A    between atoms: C_1  and  C_26
    3  A    between atoms: C_1  and  C_27
    4  A    between atoms: O_11  and  C_26
    5  A    between atoms: C_16  and  S_21
                            x       y       z     vdW  Elec       q    Type
                         _______ _______ _______ _____ _____    ______ ____

>  <TORSDO>
F 5

$$$$
=
 OpenBabel11052413273D

 28 31  0  0  1  0  0  0  0  0999 V2000
  187.4270  176.6360  135.3170 C   0  0  0  0  0  2  0  0  0  0  0  0
  184.7530  174.3090  137.5110 C   0  0  0  0  0  3  0  0  0  0  0  0
  184.2170  177.3010  137.0850 C   0  0  0  0  0  3  0  0  0  0  0  0
  187.0360  174.7970  136.8190 C   0  0  2  0  0  3  0  0  0  0  0  0
  182.9360  175.6670  138.4750 C   0  0  0  0  0  0  0  0  0  0  0  0
  185.6020  175.2110  137.0080 C   0  0  0  0  0  0  0  0  0  0  0  0
  186.0540  177.2850  135.5210 C   0  0  0  0  0  2  0  0  0  0  0  0
  183.3070  176.9110  138.1800 C   0  0  0  0  0  3  0  0  0  0  0  0
  189.6980  174.2480  136.3990 C   0  0  2  0  0  3  0  0  0  0  0  0
  187.8640  175.9880  136.5520 N   0  0  1  0  0  0  0  0  0  0  0  0
  185.1910  176.5670  136.5280 C   0  0  0  0  0  0  0  0  0  0  0  0
  188.8010  173.4770  135.0180 S   0  0  0  0  0  0  0  0  0  0  0  0
  182.1070  175.4630  139.5280 F   0  0  0  0  0  0  0  0  0  0  0  0
  183.2790  174.5120  137.6000 C   0  0  0  0  0  2  0  0  0  0  0  0
  187.1260  173.7350  135.7070 C   0  0  0  0  0  2  0  0  0  0  0  0
  189.3150  175.7330  136.5050 C   0  0  1  0  0  3  0  0  0  0  0  0
  191.6710  172.5620  135.9580 O   0  0  0  0  0  1  0  0  0  0  0  0
  191.7580  174.6990  134.5940 O   0  0  0  0  0  1  0  0  0  0  0  0
  191.4820  174.0600  136.1490 S   0  0  0  0  0  3  0  0  0  0  0  0
  190.0270  176.4270  137.6770 C   0  0  2  0  0  3  0  0  0  0  0  0
  189.1960  178.9280  137.3340 C   0  0  0  0  0  1  0  0  0  0  0  0
  189.5710  177.9720  139.6490 C   0  0  0  0  0  2  0  0  0  0  0  0
  189.2890  177.6720  138.1940 C   0  0  2  0  0  0  0  0  0  0  0  0
  188.2120  177.4210  139.2420 C   0  0  2  0  0  3  0  0  0  0  0  0
  187.2690  178.4520  139.2550 O   0  0  0  0  0  1  0  0  0  0  0  0
  191.4750  176.7290  137.3100 C   0  0  0  0  0  2  0  0  0  0  0  0
  193.5090  176.8150  137.9830 O   0  0  0  0  0  1  0  0  0  0  0  0
  192.2900  176.6110  138.4360 O   0  0  0  0  0  0  0  0  0  0  0  0
  1  7  1  0  0  0  0
  2 14  1  0  0  0  0
  3  8  1  0  0  0  0
  4 15  1  6  0  0  0
  4  6  1  0  0  0  0
  5 13  1  0  0  0  0
  6  2  2  0  0  0  0
  7 11  1  0  0  0  0
  8  5  2  0  0  0  0
  9 19  1  6  0  0  0
  9 16  1  0  0  0  0
 10  1  1  6  0  0  0
 10  4  1  0  0  0  0
 11  6  1  0  0  0  0
 11  3  2  0  0  0  0
 12 15  1  0  0  0  0
 12  9  1  0  0  0  0
 14  5  1  0  0  0  0
 16 10  1  0  0  0  0
 16 20  1  1  0  0  0
 17 19  1  0  0  0  0
 18 19  1  0  0  0  0
 20 26  1  6  0  0  0
 20 23  1  0  0  0  0
 23 21  1  6  0  0  0
 23 24  1  0  0  0  0
 23 22  1  0  0  0  0
 24 25  1  6  0  0  0
 24 22  1  0  0  0  0
 26 28  1  0  0  0  0
 27 28  1  0  0  0  0
M  END
>  <MODEL>
3

>  <REMARK>
 VINA RESULT:      -5.0      5.481      8.492
  Name = 
  5 active torsions:
  status: ('A' for Active; 'I' for Inactive)
    1  A    between atoms: C_1  and  C_7
    2  A    between atoms: C_1  and  C_26
    3  A    between atoms: C_1  and  C_27
    4  A    between atoms: O_11  and  C_26
    5  A    between atoms: C_16  and  S_21
                            x       y       z     vdW  Elec       q    Type
                         _______ _______ _______ _____ _____    ______ ____

>  <TORSDO>
F 5

$$$$
=
 OpenBabel11052413273D

 28 31  0  0  1  0  0  0  0  0999 V2000
  189.2900  179.0450  139.0880 C   0  0  0  0  0  2  0  0  0  0  0  0
  189.0920  175.0610  137.8800 C   0  0  0  0  0  3  0  0  0  0  0  0
  187.4900  177.2130  136.3910 C   0  0  0  0  0  3  0  0  0  0  0  0
  189.3210  176.7080  139.6590 C   0  0  2  0  0  3  0  0  0  0  0  0
  187.4700  174.7370  136.0530 C   0  0  0  0  0  0  0  0  0  0  0  0
  188.9020  176.3260  138.2650 C   0  0  0  0  0  0  0  0  0  0  0  0
  188.7080  178.8450  137.6840 C   0  0  0  0  0  2  0  0  0  0  0  0
  186.8980  175.9350  135.9500 C   0  0  0  0  0  3  0  0  0  0  0  0
  190.0120  177.6110  142.1620 C   0  0  2  0  0  3  0  0  0  0  0  0
  188.7640  178.0300  139.9990 N   0  0  1  0  0  0  0  0  0  0  0  0
  188.3950  177.4060  137.3620 C   0  0  0  0  0  0  0  0  0  0  0  0
  191.5600  177.5310  141.2120 S   0  0  0  0  0  0  0  0  0  0  0  0
  186.7910  173.6470  135.6200 F   0  0  0  0  0  0  0  0  0  0  0  0
  188.8850  174.5730  136.4860 C   0  0  0  0  0  2  0  0  0  0  0  0
  190.8560  176.6500  139.7710 C   0  0  0  0  0  2  0  0  0  0  0  0
  188.9730  178.4470  141.3970 C   0  0  1  0  0  3  0  0  0  0  0  0
  190.8780  177.1570  144.6070 O   0  0  0  0  0  1  0  0  0  0  0  0
  191.6990  179.3160  143.5590 O   0  0  0  0  0  1  0  0  0  0  0  0
  190.3340  178.3250  143.7950 S   0  0  0  0  0  3  0  0  0  0  0  0
  187.6330  178.5240  142.1460 C   0  0  2  0  0  3  0  0  0  0  0  0
  188.0800  176.0700  143.0630 C   0  0  0  0  0  1  0  0  0  0  0  0
  186.1020  177.4340  143.8630 C   0  0  0  0  0  2  0  0  0  0  0  0
  187.4810  177.4610  143.2450 C   0  0  2  0  0  0  0  0  0  0  0  0
  187.2740  177.9890  144.6600 C   0  0  2  0  0  3  0  0  0  0  0  0
  187.6740  177.0510  145.6140 O   0  0  0  0  0  1  0  0  0  0  0  0
  186.4740  178.4980  141.1580 C   0  0  0  0  0  2  0  0  0  0  0  0
  184.9290  179.6510  140.2180 O   0  0  0  0  0  1  0  0  0  0  0  0
  185.7220  179.6680  141.2670 O   0  0  0  0  0  0  0  0  0  0  0  0
  2  6  2  0  0  0  0
  3 11  2  0  0  0  0
  4 15  1  6  0  0  0
  4 10  1  0  0  0  0
  5 14  1  0  0  0  0
  6  4  1  0  0  0  0
  7  1  1  0  0  0  0
  8  5  2  0  0  0  0
  8  3  1  0  0  0  0
  9 19  1  1  0  0  0
 10  1  1  6  0  0  0
 10 16  1  0  0  0  0
 11  7  1  0  0  0  0
 11  6  1  0  0  0  0
 12  9  1  0  0  0  0
 13  5  1  0  0  0  0
 14  2  1  0  0  0  0
 15 12  1  0  0  0  0
 16 20  1  1  0  0  0
 16  9  1  0  0  0  0
 18 19  1  0  0  0  0
 19 17  1  0  0  0  0
 20 26  1  6  0  0  0
 20 23  1  0  0  0  0
 22 24  1  0  0  0  0
 23 21  1  6  0  0  0
 23 22  1  0  0  0  0
 23 24  1  0  0  0  0
 24 25  1  1  0  0  0
 26 28  1  0  0  0  0
 27 28  1  0  0  0  0
M  END
>  <MODEL>
4

>  <REMARK>
 VINA RESULT:      -4.9      6.210      8.897
  Name = 
  5 active torsions:
  status: ('A' for Active; 'I' for Inactive)
    1  A    between atoms: C_1  and  C_7
    2  A    between atoms: C_1  and  C_26
    3  A    between atoms: C_1  and  C_27
    4  A    between atoms: O_11  and  C_26
    5  A    between atoms: C_16  and  S_21
                            x       y       z     vdW  Elec       q    Type
                         _______ _______ _______ _____ _____    ______ ____

>  <TORSDO>
F 5

$$$$
=
 OpenBabel11052413273D

 28 31  0  0  1  0  0  0  0  0999 V2000
  183.7820  177.1220  135.3500 C   0  0  0  0  0  2  0  0  0  0  0  0
  187.1500  177.5020  137.7760 C   0  0  0  0  0  3  0  0  0  0  0  0
  187.4520  177.2550  134.7310 C   0  0  0  0  0  3  0  0  0  0  0  0
  184.8830  176.6790  137.4440 C   0  0  2  0  0  3  0  0  0  0  0  0
  189.2380  177.3200  136.4780 C   0  0  0  0  0  0  0  0  0  0  0  0
  186.1930  177.1800  136.9000 C   0  0  0  0  0  0  0  0  0  0  0  0
  185.0570  177.5090  134.5940 C   0  0  0  0  0  2  0  0  0  0  0  0
  188.8040  176.9920  135.2630 C   0  0  0  0  0  3  0  0  0  0  0  0
  182.4190  175.7410  138.2250 C   0  0  2  0  0  3  0  0  0  0  0  0
  184.0820  176.0980  136.3500 N   0  0  1  0  0  0  0  0  0  0  0  0
  186.3100  177.3860  135.4230 C   0  0  0  0  0  0  0  0  0  0  0  0
  182.3760  177.5410  138.4810 S   0  0  0  0  0  0  0  0  0  0  0  0
  190.5040  176.9930  136.8320 F   0  0  0  0  0  0  0  0  0  0  0  0
  188.4330  178.1650  137.4030 C   0  0  0  0  0  2  0  0  0  0  0  0
  184.1590  177.8200  138.1830 C   0  0  0  0  0  2  0  0  0  0  0  0
  182.8420  175.4300  136.7800 C   0  0  1  0  0  3  0  0  0  0  0  0
  180.3870  175.6900  139.8980 O   0  0  0  0  0  1  0  0  0  0  0  0
  179.7560  175.7600  137.4430 O   0  0  0  0  0  1  0  0  0  0  0  0
  180.7900  175.0350  138.5840 S   0  0  0  0  0  3  0  0  0  0  0  0
  182.9200  173.9180  136.5170 C   0  0  2  0  0  3  0  0  0  0  0  0
  185.2900  173.7300  135.3300 C   0  0  0  0  0  1  0  0  0  0  0  0
  184.4550  171.9220  136.8950 C   0  0  0  0  0  2  0  0  0  0  0  0
  184.3560  173.3740  136.4820 C   0  0  2  0  0  0  0  0  0  0  0  0
  184.9640  173.0090  137.8310 C   0  0  2  0  0  3  0  0  0  0  0  0
  186.3600  173.0480  137.7830 O   0  0  0  0  0  1  0  0  0  0  0  0
  182.1390  173.5600  135.2590 C   0  0  0  0  0  2  0  0  0  0  0  0
  180.0500  173.0830  135.3500 O   0  0  0  0  0  1  0  0  0  0  0  0
  181.2330  172.5350  135.5300 O   0  0  0  0  0  0  0  0  0  0  0  0
  3  8  1  0  0  0  0
  3 11  2  0  0  0  0
  4 15  1  6  0  0  0
  5 13  1  0  0  0  0
  5 14  1  0  0  0  0
  6  4  1  0  0  0  0
  6  2  2  0  0  0  0
  7  1  1  0  0  0  0
  7 11  1  0  0  0  0
  8  5  2  0  0  0  0
  9 12  1  0  0  0  0
  9 19  1  6  0  0  0
 10  1  1  6  0  0  0
 10 16  1  0  0  0  0
 10  4  1  0  0  0  0
 11  6  1  0  0  0  0
 14  2  1  0  0  0  0
 15 12  1  0  0  0  0
 16 20  1  1  0  0  0
 16  9  1  0  0  0  0
 18 19  1  0  0  0  0
 19 17  1  0  0  0  0
 20 26  1  6  0  0  0
 22 24  1  0  0  0  0
 23 21  1  6  0  0  0
 23 20  1  0  0  0  0
 23 22  1  0  0  0  0
 23 24  1  0  0  0  0
 24 25  1  6  0  0  0
 26 28  1  0  0  0  0
 27 28  1  0  0  0  0
M  END
>  <MODEL>
5

>  <REMARK>
 VINA RESULT:      -4.8      3.926      5.484
  Name = 
  5 active torsions:
  status: ('A' for Active; 'I' for Inactive)
    1  A    between atoms: C_1  and  C_7
    2  A    between atoms: C_1  and  C_26
    3  A    between atoms: C_1  and  C_27
    4  A    between atoms: O_11  and  C_26
    5  A    between atoms: C_16  and  S_21
                            x       y       z     vdW  Elec       q    Type
                         _______ _______ _______ _____ _____    ______ ____

>  <TORSDO>
F 5

$$$$
=
 OpenBabel11052413273D

 28 31  0  0  1  0  0  0  0  0999 V2000
  184.4580  176.0260  135.2510 C   0  0  0  0  0  2  0  0  0  0  0  0
  183.0430  176.4930  139.1440 C   0  0  0  0  0  3  0  0  0  0  0  0
  182.3200  178.5410  136.9760 C   0  0  0  0  0  3  0  0  0  0  0  0
  184.7920  175.7540  137.6190 C   0  0  2  0  0  3  0  0  0  0  0  0
  181.7990  178.6020  139.4200 C   0  0  0  0  0  0  0  0  0  0  0  0
  183.5740  176.5840  137.9210 C   0  0  0  0  0  0  0  0  0  0  0  0
  183.2970  177.0190  135.3800 C   0  0  0  0  0  2  0  0  0  0  0  0
  181.9820  179.2090  138.2490 C   0  0  0  0  0  3  0  0  0  0  0  0
  187.0180  174.3280  136.8620 C   0  0  2  0  0  3  0  0  0  0  0  0
  185.4000  176.2090  136.3540 N   0  0  1  0  0  0  0  0  0  0  0  0
  182.9700  177.3800  136.8070 C   0  0  0  0  0  0  0  0  0  0  0  0
  185.6250  173.1610  136.7940 S   0  0  0  0  0  0  0  0  0  0  0  0
  181.5110  179.3540  140.5100 F   0  0  0  0  0  0  0  0  0  0  0  0
  181.7500  177.1190  139.5410 C   0  0  0  0  0  2  0  0  0  0  0  0
  184.4100  174.2620  137.6050 C   0  0  0  0  0  2  0  0  0  0  0  0
  186.6910  175.5780  136.0290 C   0  0  1  0  0  3  0  0  0  0  0  0
  189.5250  173.7150  137.3780 O   0  0  0  0  0  1  0  0  0  0  0  0
  188.1620  171.8590  136.3150 O   0  0  0  0  0  1  0  0  0  0  0  0
  188.5200  173.5230  136.2500 S   0  0  0  0  0  3  0  0  0  0  0  0
  187.8280  176.6120  136.0740 C   0  0  2  0  0  3  0  0  0  0  0  0
  186.5150  178.8380  136.6940 C   0  0  0  0  0  1  0  0  0  0  0  0
  188.8180  178.3640  137.6340 C   0  0  0  0  0  2  0  0  0  0  0  0
  187.5580  177.7790  137.0360 C   0  0  2  0  0  0  0  0  0  0  0  0
  187.8900  177.5270  138.5020 C   0  0  2  0  0  3  0  0  0  0  0  0
  187.1530  178.3660  139.3400 O   0  0  0  0  0  1  0  0  0  0  0  0
  188.1610  177.0920  134.6670 C   0  0  0  0  0  2  0  0  0  0  0  0
  190.1710  176.3900  134.9190 O   0  0  0  0  0  1  0  0  0  0  0  0
  189.5000  177.4740  134.5940 O   0  0  0  0  0  0  0  0  0  0  0  0
  1  7  1  0  0  0  0
  2 14  1  0  0  0  0
  3  8  1  0  0  0  0
  4 15  1  6  0  0  0
  4  6  1  0  0  0  0
  5 14  1  0  0  0  0
  5 13  1  0  0  0  0
  6  2  2  0  0  0  0
  7 11  1  0  0  0  0
  8  5  2  0  0  0  0
  9 19  1  6  0  0  0
 10  1  1  6  0  0  0
 10  4  1  0  0  0  0
 11  3  2  0  0  0  0
 11  6  1  0  0  0  0
 12  9  1  0  0  0  0
 12 15  1  0  0  0  0
 16 20  1  1  0  0  0
 16 10  1  0  0  0  0
 16  9  1  0  0  0  0
 19 18  1  0  0  0  0
 19 17  1  0  0  0  0
 20 26  1  6  0  0  0
 20 23  1  0  0  0  0
 22 24  1  0  0  0  0
 23 21  1  6  0  0  0
 23 22  1  0  0  0  0
 23 24  1  0  0  0  0
 24 25  1  1  0  0  0
 28 26  1  0  0  0  0
 28 27  1  0  0  0  0
M  END
>  <MODEL>
6

>  <REMARK>
 VINA RESULT:      -4.8      4.709      6.931
  Name = 
  5 active torsions:
  status: ('A' for Active; 'I' for Inactive)
    1  A    between atoms: C_1  and  C_7
    2  A    between atoms: C_1  and  C_26
    3  A    between atoms: C_1  and  C_27
    4  A    between atoms: O_11  and  C_26
    5  A    between atoms: C_16  and  S_21
                            x       y       z     vdW  Elec       q    Type
                         _______ _______ _______ _____ _____    ______ ____

>  <TORSDO>
F 5

$$$$
=
 OpenBabel11052413273D

 28 31  0  0  1  0  0  0  0  0999 V2000
  186.9020  177.6310  135.4440 C   0  0  0  0  0  2  0  0  0  0  0  0
  189.5620  176.3700  138.3950 C   0  0  0  0  0  3  0  0  0  0  0  0
  190.3310  176.1790  135.4310 C   0  0  0  0  0  3  0  0  0  0  0  0
  187.2740  176.6410  137.6060 C   0  0  2  0  0  3  0  0  0  0  0  0
  191.5930  175.3630  137.4280 C   0  0  0  0  0  0  0  0  0  0  0  0
  188.7530  176.5470  137.3450 C   0  0  0  0  0  0  0  0  0  0  0  0
  188.3440  177.4620  134.9550 C   0  0  0  0  0  2  0  0  0  0  0  0
  191.3120  175.3230  136.1270 C   0  0  0  0  0  3  0  0  0  0  0  0
  184.5430  176.8350  137.8590 C   0  0  2  0  0  3  0  0  0  0  0  0
  186.5390  176.5280  136.3320 N   0  0  1  0  0  0  0  0  0  0  0  0
  189.2370  176.7590  135.9460 C   0  0  0  0  0  0  0  0  0  0  0  0
  185.2100  178.4550  138.3440 S   0  0  0  0  0  0  0  0  0  0  0  0
  192.5060  174.4970  137.9290 F   0  0  0  0  0  0  0  0  0  0  0  0
  191.0500  176.4250  138.3200 C   0  0  0  0  0  2  0  0  0  0  0  0
  186.9650  177.9430  138.3690 C   0  0  0  0  0  2  0  0  0  0  0  0
  185.0750  176.4470  136.4690 C   0  0  1  0  0  3  0  0  0  0  0  0
  182.3260  175.6590  138.6540 O   0  0  0  0  0  1  0  0  0  0  0  0
  182.3550  178.1820  138.9080 O   0  0  0  0  0  1  0  0  0  0  0  0
  182.7330  176.8930  137.8610 S   0  0  0  0  0  3  0  0  0  0  0  0
  184.5620  175.0690  136.0220 C   0  0  2  0  0  3  0  0  0  0  0  0
  186.8160  173.8640  135.2950 C   0  0  0  0  0  1  0  0  0  0  0  0
  184.9600  172.5930  136.4580 C   0  0  0  0  0  2  0  0  0  0  0  0
  185.5910  173.9430  136.2000 C   0  0  2  0  0  0  0  0  0  0  0  0
  185.6680  173.3230  137.5900 C   0  0  2  0  0  3  0  0  0  0  0  0
  186.9160  172.7370  137.8140 O   0  0  0  0  0  1  0  0  0  0  0  0
  184.0310  175.1420  134.5950 C   0  0  0  0  0  2  0  0  0  0  0  0
  182.1690  174.3410  135.2960 O   0  0  0  0  0  1  0  0  0  0  0  0
  182.6520  175.3510  134.6050 O   0  0  0  0  0  0  0  0  0  0  0  0
  3 11  2  0  0  0  0
  3  8  1  0  0  0  0
  4 15  1  6  0  0  0
  5 13  1  0  0  0  0
  5 14  1  0  0  0  0
  6  4  1  0  0  0  0
  6  2  2  0  0  0  0
  7  1  1  0  0  0  0
  7 11  1  0  0  0  0
  8  5  2  0  0  0  0
  9 19  1  6  0  0  0
  9 12  1  0  0  0  0
 10  1  1  6  0  0  0
 10 16  1  0  0  0  0
 10  4  1  0  0  0  0
 11  6  1  0  0  0  0
 12 15  1  0  0  0  0
 14  2  1  0  0  0  0
 16 20  1  1  0  0  0
 16  9  1  0  0  0  0
 19 17  1  0  0  0  0
 19 18  1  0  0  0  0
 20 26  1  6  0  0  0
 20 23  1  0  0  0  0
 22 24  1  0  0  0  0
 23 21  1  6  0  0  0
 23 22  1  0  0  0  0
 23 24  1  0  0  0  0
 24 25  1  6  0  0  0
 26 28  1  0  0  0  0
 28 27  1  0  0  0  0
M  END
>  <MODEL>
7

>  <REMARK>
 VINA RESULT:      -4.8      4.630      6.340
  Name = 
  5 active torsions:
  status: ('A' for Active; 'I' for Inactive)
    1  A    between atoms: C_1  and  C_7
    2  A    between atoms: C_1  and  C_26
    3  A    between atoms: C_1  and  C_27
    4  A    between atoms: O_11  and  C_26
    5  A    between atoms: C_16  and  S_21
                            x       y       z     vdW  Elec       q    Type
                         _______ _______ _______ _____ _____    ______ ____

>  <TORSDO>
F 5

$$$$
=
 OpenBabel11052413273D

 28 31  0  0  1  0  0  0  0  0999 V2000
  185.5180  179.7280  141.7060 C   0  0  0  0  0  2  0  0  0  0  0  0
  187.3340  176.7970  144.0480 C   0  0  0  0  0  3  0  0  0  0  0  0
  188.7500  177.8830  141.5510 C   0  0  0  0  0  3  0  0  0  0  0  0
  185.3140  177.7950  143.1250 C   0  0  2  0  0  3  0  0  0  0  0  0
  189.4590  176.0250  143.0650 C   0  0  0  0  0  0  0  0  0  0  0  0
  186.8030  177.5800  143.1040 C   0  0  0  0  0  0  0  0  0  0  0  0
  187.0190  179.5600  141.4460 C   0  0  0  0  0  2  0  0  0  0  0  0
  189.4830  176.6460  141.8880 C   0  0  0  0  0  3  0  0  0  0  0  0
  182.6180  178.3150  142.9800 C   0  0  2  0  0  3  0  0  0  0  0  0
  184.8860  178.4180  141.8590 N   0  0  1  0  0  0  0  0  0  0  0  0
  187.6100  178.3340  142.0950 C   0  0  0  0  0  0  0  0  0  0  0  0
  183.2650  179.3790  144.3050 S   0  0  0  0  0  0  0  0  0  0  0  0
  190.1710  174.8830  143.2180 F   0  0  0  0  0  0  0  0  0  0  0  0
  188.8000  176.6220  144.2590 C   0  0  0  0  0  2  0  0  0  0  0  0
  184.9280  178.6200  144.3670 C   0  0  0  0  0  2  0  0  0  0  0  0
  183.4270  178.5370  141.6910 C   0  0  1  0  0  3  0  0  0  0  0  0
  180.1830  178.1610  143.9680 O   0  0  0  0  0  1  0  0  0  0  0  0
  180.7550  180.3700  142.8610 O   0  0  0  0  0  1  0  0  0  0  0  0
  180.8640  178.6770  142.7080 S   0  0  0  0  0  3  0  0  0  0  0  0
  182.9370  177.6400  140.5440 C   0  0  2  0  0  3  0  0  0  0  0  0
  183.3310  179.5740  138.7640 C   0  0  0  0  0  1  0  0  0  0  0  0
  182.9920  177.1700  138.0420 C   0  0  0  0  0  2  0  0  0  0  0  0
  183.4100  178.1020  139.1570 C   0  0  2  0  0  0  0  0  0  0  0  0
  184.4490  177.2180  138.4780 C   0  0  2  0  0  3  0  0  0  0  0  0
  185.1920  177.9390  137.5410 O   0  0  0  0  0  1  0  0  0  0  0  0
  181.4230  177.4790  140.6100 C   0  0  0  0  0  2  0  0  0  0  0  0
  179.7680  176.1230  140.4630 O   0  0  0  0  0  1  0  0  0  0  0  0
  181.0590  176.1910  140.2180 O   0  0  0  0  0  0  0  0  0  0  0  0
  2 14  1  0  0  0  0
  3  8  1  0  0  0  0
  3 11  2  0  0  0  0
  4 15  1  1  0  0  0
  5 13  1  0  0  0  0
  5 14  1  0  0  0  0
  6  4  1  0  0  0  0
  6  2  2  0  0  0  0
  7  1  1  0  0  0  0
  7 11  1  0  0  0  0
  8  5  2  0  0  0  0
  9 19  1  6  0  0  0
  9 12  1  0  0  0  0
 10  1  1  1  0  0  0
 10  4  1  0  0  0  0
 11  6  1  0  0  0  0
 12 15  1  0  0  0  0
 16 20  1  6  0  0  0
 16 10  1  0  0  0  0
 16  9  1  0  0  0  0
 19 18  1  0  0  0  0
 19 17  1  0  0  0  0
 20 26  1  6  0  0  0
 22 24  1  0  0  0  0
 22 23  1  0  0  0  0
 23 21  1  6  0  0  0
 23 20  1  0  0  0  0
 24 25  1  6  0  0  0
 24 23  1  0  0  0  0
 28 27  1  0  0  0  0
 28 26  1  0  0  0  0
M  END
>  <MODEL>
8

>  <REMARK>
 VINA RESULT:      -4.8      3.293      4.601
  Name = 
  5 active torsions:
  status: ('A' for Active; 'I' for Inactive)
    1  A    between atoms: C_1  and  C_7
    2  A    between atoms: C_1  and  C_26
    3  A    between atoms: C_1  and  C_27
    4  A    between atoms: O_11  and  C_26
    5  A    between atoms: C_16  and  S_21
                            x       y       z     vdW  Elec       q    Type
                         _______ _______ _______ _____ _____    ______ ____

>  <TORSDO>
F 5

$$$$
=
 OpenBabel11052413273D

 28 31  0  0  1  0  0  0  0  0999 V2000
  188.3440  175.9490  135.3490 C   0  0  0  0  0  2  0  0  0  0  0  0
  186.7960  172.2450  136.4720 C   0  0  0  0  0  3  0  0  0  0  0  0
  184.9120  174.5630  135.7690 C   0  0  0  0  0  3  0  0  0  0  0  0
  188.5320  173.9420  136.6640 C   0  0  2  0  0  3  0  0  0  0  0  0
  184.3370  172.2930  136.6400 C   0  0  0  0  0  0  0  0  0  0  0  0
  187.1350  173.5250  136.2900 C   0  0  0  0  0  0  0  0  0  0  0  0
  186.8630  175.7590  135.0040 C   0  0  0  0  0  2  0  0  0  0  0  0
  184.0530  173.5810  136.4590 C   0  0  0  0  0  3  0  0  0  0  0  0
  191.0280  174.9130  137.2860 C   0  0  2  0  0  3  0  0  0  0  0  0
  188.6210  175.4140  136.6820 N   0  0  1  0  0  0  0  0  0  0  0  0
  186.2470  174.5390  135.6420 C   0  0  0  0  0  0  0  0  0  0  0  0
  191.2070  174.0430  135.6990 S   0  0  0  0  0  0  0  0  0  0  0  0
  183.4550  171.5150  137.3140 F   0  0  0  0  0  0  0  0  0  0  0  0
  185.5150  171.6460  135.9980 C   0  0  0  0  0  2  0  0  0  0  0  0
  189.5420  173.2850  135.7050 C   0  0  0  0  0  2  0  0  0  0  0  0
  189.8970  175.9490  137.1880 C   0  0  1  0  0  3  0  0  0  0  0  0
  193.5440  174.5450  137.9680 O   0  0  0  0  0  1  0  0  0  0  0  0
  193.1500  176.3800  136.2620 O   0  0  0  0  0  1  0  0  0  0  0  0
  192.5940  175.7100  137.7250 S   0  0  0  0  0  3  0  0  0  0  0  0
  189.6850  176.6960  138.5140 C   0  0  2  0  0  3  0  0  0  0  0  0
  189.0550  179.0040  137.3580 C   0  0  0  0  0  1  0  0  0  0  0  0
  188.3310  178.4780  139.7270 C   0  0  0  0  0  2  0  0  0  0  0  0
  188.7650  177.9190  138.3910 C   0  0  2  0  0  0  0  0  0  0  0  0
  187.3290  177.7250  138.8640 C   0  0  2  0  0  3  0  0  0  0  0  0
  186.4670  178.6370  138.2500 O   0  0  0  0  0  1  0  0  0  0  0  0
  191.0280  177.0480  139.1410 C   0  0  0  0  0  2  0  0  0  0  0  0
  192.0620  177.5030  140.9640 O   0  0  0  0  0  1  0  0  0  0  0  0
  190.9520  176.9450  140.5300 O   0  0  0  0  0  0  0  0  0  0  0  0
  3  8  1  0  0  0  0
  4 15  1  6  0  0  0
  4 10  1  0  0  0  0
  5 13  1  0  0  0  0
  6  2  2  0  0  0  0
  6  4  1  0  0  0  0
  7  1  1  0  0  0  0
  7 11  1  0  0  0  0
  8  5  2  0  0  0  0
  9 19  1  6  0  0  0
 10  1  1  6  0  0  0
 10 16  1  0  0  0  0
 11  3  2  0  0  0  0
 11  6  1  0  0  0  0
 12 15  1  0  0  0  0
 12  9  1  0  0  0  0
 14  2  1  0  0  0  0
 14  5  1  0  0  0  0
 16  9  1  0  0  0  0
 16 20  1  1  0  0  0
 18 19  1  0  0  0  0
 19 17  1  0  0  0  0
 20 26  1  6  0  0  0
 23 21  1  6  0  0  0
 23 20  1  0  0  0  0
 23 24  1  0  0  0  0
 23 22  1  0  0  0  0
 24 25  1  6  0  0  0
 24 22  1  0  0  0  0
 26 28  1  0  0  0  0
 28 27  1  0  0  0  0
M  END
>  <MODEL>
9

>  <REMARK>
 VINA RESULT:      -4.7      6.174      9.467
  Name = 
  5 active torsions:
  status: ('A' for Active; 'I' for Inactive)
    1  A    between atoms: C_1  and  C_7
    2  A    between atoms: C_1  and  C_26
    3  A    between atoms: C_1  and  C_27
    4  A    between atoms: O_11  and  C_26
    5  A    between atoms: C_16  and  S_21
                            x       y       z     vdW  Elec       q    Type
                         _______ _______ _______ _____ _____    ______ ____

>  <TORSDO>
F 5

$$$$
