=
 OpenBabel11052412293D

 30 34  0  0  1  0  0  0  0  0999 V2000
  187.0690  177.9130  143.2790 N   0  0  0  0  0  0  0  0  0  0  0  0
  184.6980  178.2010  142.5560 C   0  0  1  0  0  3  0  0  0  0  0  0
  186.0890  178.4280  147.3250 N   0  0  0  0  0  0  0  0  0  0  0  0
  188.0610  177.8180  144.2040 C   0  0  0  0  0  0  0  0  0  0  0  0
  187.0690  178.2660  148.3520 C   0  0  0  0  0  3  0  0  0  0  0  0
  183.5430  179.1300  142.9480 C   0  0  0  0  0  2  0  0  0  0  0  0
  185.2320  178.6280  141.1990 C   0  0  0  0  0  1  0  0  0  0  0  0
  186.4260  178.2750  145.9420 C   0  0  0  0  0  0  0  0  0  0  0  0
  183.1270  178.9320  144.3780 C   0  0  0  0  0  3  0  0  0  0  0  0
  185.7820  178.2030  143.6090 C   0  0  0  0  0  0  0  0  0  0  0  0
  187.7580  178.0050  145.5730 C   0  0  0  0  0  0  0  0  0  0  0  0
  188.3420  178.0240  148.0480 C   0  0  0  0  0  3  0  0  0  0  0  0
  188.8380  177.9370  146.6290 C   0  0  0  0  0  3  0  0  0  0  0  0
  184.0240  178.6270  145.3190 C   0  0  0  0  0  3  0  0  0  0  0  0
  185.4340  178.3760  144.9600 C   0  0  0  0  0  0  0  0  0  0  0  0
  189.4530  177.5230  143.6950 C   0  0  1  0  0  3  0  0  0  0  0  0
  190.5610  177.3650  141.5040 O   0  0  0  0  0  0  0  0  0  0  0  0
  189.1310  175.6360  142.0260 O   0  0  0  0  0  1  0  0  0  0  0  0
  189.5180  176.9620  142.2660 C   0  0  1  0  0  0  0  0  0  0  0  0
  189.3170  177.9050  141.1830 N   0  0  2  0  0  0  0  0  0  0  0  0
  188.8880  177.2480  139.9540 C   0  0  0  0  0  3  0  0  0  0  0  0
  189.6530  177.8300  138.7850 C   0  0  0  0  0  2  0  0  0  0  0  0
  188.2300  178.2680  139.0490 C   0  0  0  0  0  2  0  0  0  0  0  0
  190.4450  178.6670  143.9040 C   0  0  0  0  0  2  0  0  0  0  0  0
  191.7880  178.1570  144.4170 C   0  0  0  0  0  2  0  0  0  0  0  0
  191.6820  176.7490  144.9850 C   0  0  0  0  0  2  0  0  0  0  0  0
  191.6690  176.7840  146.5030 C   0  0  0  0  0  2  0  0  0  0  0  0
  192.7920  175.6470  148.3540 O   0  0  0  0  0  0  0  0  0  0  0  0
  192.4360  175.6690  147.0270 N   0  0  0  0  0  0  0  0  0  0  0  0
  192.6280  174.6600  146.3180 O   0  0  0  0  0  0  0  0  0  0  0  0
  1 10  2  0  0  0  0
  1  4  1  0  0  0  0
  2  7  1  6  0  0  0
  2  6  1  0  0  0  0
  2 10  1  0  0  0  0
  3  5  2  0  0  0  0
  4 11  2  0  0  0  0
  6  9  1  0  0  0  0
  8  3  1  0  0  0  0
  9 14  2  0  0  0  0
 10 15  1  0  0  0  0
 11  8  1  0  0  0  0
 11 13  1  0  0  0  0
 12  5  1  0  0  0  0
 13 12  2  0  0  0  0
 15 14  1  0  0  0  0
 15  8  2  0  0  0  0
 16 24  1  6  0  0  0
 16  4  1  0  0  0  0
 17 19  1  0  0  0  0
 19 18  1  6  0  0  0
 19 16  1  0  0  0  0
 20 21  1  6  0  0  0
 20 17  1  0  0  0  0
 20 19  1  0  0  0  0
 22 23  1  0  0  0  0
 22 21  1  0  0  0  0
 23 21  1  0  0  0  0
 24 25  1  0  0  0  0
 25 26  1  0  0  0  0
 26 27  1  0  0  0  0
 27 29  1  0  0  0  0
 29 28  2  0  0  0  0
 30 29  2  0  0  0  0
M  END
>  <MODEL>
1

>  <REMARK>
 VINA RESULT:      -8.7      0.000      0.000
  Name = 
  8 active torsions:
  status: ('A' for Active; 'I' for Inactive)
    1  A    between atoms: C_4  and  C_13
    2  A    between atoms: C_7  and  N_15
    3  A    between atoms: C_7  and  C_16
    4  A    between atoms: C_8  and  C_13
    5  A    between atoms: C_9  and  N_12
    6  A    between atoms: C_13  and  C_27
    7  A    between atoms: C_16  and  C_30
    8  A    between atoms: C_27  and  C_30
                            x       y       z     vdW  Elec       q    Type
                         _______ _______ _______ _____ _____    ______ ____

>  <TORSDO>
F 8

$$$$
=
 OpenBabel11052412293D

 30 34  0  0  1  0  0  0  0  0999 V2000
  187.0130  178.0180  144.5450 N   0  0  0  0  0  0  0  0  0  0  0  0
  186.5550  178.1270  146.9950 C   0  0  1  0  0  3  0  0  0  0  0  0
  190.8750  176.4940  145.1490 N   0  0  0  0  0  0  0  0  0  0  0  0
  187.7710  177.7210  143.4560 C   0  0  0  0  0  0  0  0  0  0  0  0
  191.6930  176.0890  144.0500 C   0  0  0  0  0  3  0  0  0  0  0  0
  187.3530  178.5420  148.2370 C   0  0  0  0  0  2  0  0  0  0  0  0
  185.5270  179.2040  146.6890 C   0  0  0  0  0  1  0  0  0  0  0  0
  189.5650  177.0360  144.9440 C   0  0  0  0  0  0  0  0  0  0  0  0
  188.5470  177.6580  148.4570 C   0  0  0  0  0  3  0  0  0  0  0  0
  187.4690  177.8760  145.8180 C   0  0  0  0  0  0  0  0  0  0  0  0
  189.0830  177.2210  143.6350 C   0  0  0  0  0  0  0  0  0  0  0  0
  191.2820  176.2600  142.7950 C   0  0  0  0  0  3  0  0  0  0  0  0
  189.9680  176.9070  142.4500 C   0  0  0  0  0  3  0  0  0  0  0  0
  189.2260  177.1500  147.4250 C   0  0  0  0  0  3  0  0  0  0  0  0
  188.7590  177.3640  146.0410 C   0  0  0  0  0  0  0  0  0  0  0  0
  187.1520  177.9580  142.0980 C   0  0  1  0  0  3  0  0  0  0  0  0
  184.7900  177.8400  142.7760 O   0  0  0  0  0  0  0  0  0  0  0  0
  185.5740  179.9420  142.2500 O   0  0  0  0  0  1  0  0  0  0  0  0
  185.7370  178.5560  142.1250 C   0  0  1  0  0  0  0  0  0  0  0  0
  184.7120  177.8440  141.3840 N   0  0  2  0  0  0  0  0  0  0  0  0
  183.5870  178.7040  141.0370 C   0  0  0  0  0  3  0  0  0  0  0  0
  182.4800  177.8590  140.4440 C   0  0  0  0  0  2  0  0  0  0  0  0
  183.3800  178.6690  139.5380 C   0  0  0  0  0  2  0  0  0  0  0  0
  188.0650  178.6960  141.1200 C   0  0  0  0  0  2  0  0  0  0  0  0
  187.9770  178.1060  139.7160 C   0  0  0  0  0  2  0  0  0  0  0  0
  189.1900  178.4660  138.8720 C   0  0  0  0  0  2  0  0  0  0  0  0
  189.6210  177.2830  138.0230 C   0  0  0  0  0  2  0  0  0  0  0  0
  190.7670  175.1780  138.5090 O   0  0  0  0  0  0  0  0  0  0  0  0
  190.6530  176.5310  138.7150 N   0  0  0  0  0  0  0  0  0  0  0  0
  191.5330  177.1350  139.3610 O   0  0  0  0  0  0  0  0  0  0  0  0
  1 10  1  0  0  0  0
  2  7  1  6  0  0  0
  2  6  1  0  0  0  0
  4 11  1  0  0  0  0
  4  1  2  0  0  0  0
  5  3  2  0  0  0  0
  6  9  1  0  0  0  0
  8  3  1  0  0  0  0
  8 15  1  0  0  0  0
 10 15  2  0  0  0  0
 10  2  1  0  0  0  0
 11  8  2  0  0  0  0
 12  5  1  0  0  0  0
 13 12  2  0  0  0  0
 13 11  1  0  0  0  0
 14  9  2  0  0  0  0
 15 14  1  0  0  0  0
 16 24  1  6  0  0  0
 16 19  1  0  0  0  0
 16  4  1  0  0  0  0
 19 18  1  1  0  0  0
 19 17  1  0  0  0  0
 20 21  1  1  0  0  0
 20 19  1  0  0  0  0
 20 17  1  0  0  0  0
 22 21  1  0  0  0  0
 23 22  1  0  0  0  0
 23 21  1  0  0  0  0
 25 24  1  0  0  0  0
 26 25  1  0  0  0  0
 27 29  1  0  0  0  0
 27 26  1  0  0  0  0
 28 29  2  0  0  0  0
 29 30  2  0  0  0  0
M  END
>  <MODEL>
2

>  <REMARK>
 VINA RESULT:      -8.6      2.820      5.715
  Name = 
  8 active torsions:
  status: ('A' for Active; 'I' for Inactive)
    1  A    between atoms: C_4  and  C_13
    2  A    between atoms: C_7  and  N_15
    3  A    between atoms: C_7  and  C_16
    4  A    between atoms: C_8  and  C_13
    5  A    between atoms: C_9  and  N_12
    6  A    between atoms: C_13  and  C_27
    7  A    between atoms: C_16  and  C_30
    8  A    between atoms: C_27  and  C_30
                            x       y       z     vdW  Elec       q    Type
                         _______ _______ _______ _____ _____    ______ ____

>  <TORSDO>
F 8

$$$$
=
 OpenBabel11052412293D

 30 34  0  0  1  0  0  0  0  0999 V2000
  188.2740  177.4040  144.8230 N   0  0  0  0  0  0  0  0  0  0  0  0
  189.0190  177.7990  147.1710 C   0  0  1  0  0  3  0  0  0  0  0  0
  184.4780  179.0310  145.5590 N   0  0  0  0  0  0  0  0  0  0  0  0
  187.3870  177.4740  143.7940 C   0  0  0  0  0  0  0  0  0  0  0  0
  183.5280  179.2030  144.5060 C   0  0  0  0  0  3  0  0  0  0  0  0
  188.3820  177.6500  148.5570 C   0  0  0  0  0  2  0  0  0  0  0  0
  190.0270  176.6800  146.9710 C   0  0  0  0  0  1  0  0  0  0  0  0
  185.7660  178.4550  145.3150 C   0  0  0  0  0  0  0  0  0  0  0  0
  187.2020  178.5640  148.7330 C   0  0  0  0  0  3  0  0  0  0  0  0
  187.9680  177.8060  146.0850 C   0  0  0  0  0  0  0  0  0  0  0  0
  186.0950  178.0030  144.0220 C   0  0  0  0  0  0  0  0  0  0  0  0
  183.7920  178.7780  143.2730 C   0  0  0  0  0  3  0  0  0  0  0  0
  185.0700  178.0700  142.9120 C   0  0  0  0  0  3  0  0  0  0  0  0
  186.3970  178.8510  147.7070 C   0  0  0  0  0  3  0  0  0  0  0  0
  186.7020  178.3570  146.3510 C   0  0  0  0  0  0  0  0  0  0  0  0
  187.8480  176.9610  142.4490 C   0  0  1  0  0  3  0  0  0  0  0  0
  187.1800  178.3580  140.5380 O   0  0  0  0  0  0  0  0  0  0  0  0
  188.9500  179.1500  141.7830 O   0  0  0  0  0  1  0  0  0  0  0  0
  188.1670  178.0480  141.4120 C   0  0  1  0  0  0  0  0  0  0  0  0
  188.2510  177.6260  140.0270 N   0  0  2  0  0  0  0  0  0  0  0  0
  189.0330  178.5530  139.2170 C   0  0  0  0  0  3  0  0  0  0  0  0
  188.5280  178.5140  137.7900 C   0  0  0  0  0  2  0  0  0  0  0  0
  189.7920  177.7730  138.1640 C   0  0  0  0  0  2  0  0  0  0  0  0
  188.9540  175.9100  142.5330 C   0  0  0  0  0  2  0  0  0  0  0  0
  190.2470  176.4030  141.8920 C   0  0  0  0  0  2  0  0  0  0  0  0
  191.3550  176.5890  142.9180 C   0  0  0  0  0  2  0  0  0  0  0  0
  191.9160  177.9980  142.8490 C   0  0  0  0  0  2  0  0  0  0  0  0
  191.0790  179.8850  144.1610 O   0  0  0  0  0  0  0  0  0  0  0  0
  191.7180  178.6700  144.1210 N   0  0  0  0  0  0  0  0  0  0  0  0
  191.9770  178.0710  145.1850 O   0  0  0  0  0  0  0  0  0  0  0  0
  1 10  1  0  0  0  0
  2  7  1  6  0  0  0
  2  6  1  0  0  0  0
  4 11  1  0  0  0  0
  4  1  2  0  0  0  0
  5  3  2  0  0  0  0
  6  9  1  0  0  0  0
  8  3  1  0  0  0  0
  8 15  1  0  0  0  0
 10 15  2  0  0  0  0
 10  2  1  0  0  0  0
 11  8  2  0  0  0  0
 12  5  1  0  0  0  0
 13 12  2  0  0  0  0
 13 11  1  0  0  0  0
 14  9  2  0  0  0  0
 15 14  1  0  0  0  0
 16 24  1  1  0  0  0
 16  4  1  0  0  0  0
 17 19  1  0  0  0  0
 19 18  1  1  0  0  0
 19 16  1  0  0  0  0
 20 21  1  6  0  0  0
 20 17  1  0  0  0  0
 20 19  1  0  0  0  0
 22 23  1  0  0  0  0
 22 21  1  0  0  0  0
 23 21  1  0  0  0  0
 25 24  1  0  0  0  0
 25 26  1  0  0  0  0
 27 26  1  0  0  0  0
 27 29  1  0  0  0  0
 29 28  2  0  0  0  0
 29 30  2  0  0  0  0
M  END
>  <MODEL>
3

>  <REMARK>
 VINA RESULT:      -8.5      1.909      4.057
  Name = 
  8 active torsions:
  status: ('A' for Active; 'I' for Inactive)
    1  A    between atoms: C_4  and  C_13
    2  A    between atoms: C_7  and  N_15
    3  A    between atoms: C_7  and  C_16
    4  A    between atoms: C_8  and  C_13
    5  A    between atoms: C_9  and  N_12
    6  A    between atoms: C_13  and  C_27
    7  A    between atoms: C_16  and  C_30
    8  A    between atoms: C_27  and  C_30
                            x       y       z     vdW  Elec       q    Type
                         _______ _______ _______ _____ _____    ______ ____

>  <TORSDO>
F 8

$$$$
=
 OpenBabel11052412293D

 30 34  0  0  1  0  0  0  0  0999 V2000
  185.5280  177.6920  142.2900 N   0  0  0  0  0  0  0  0  0  0  0  0
  183.1720  178.1530  141.6120 C   0  0  1  0  0  3  0  0  0  0  0  0
  184.7930  178.7950  146.2700 N   0  0  0  0  0  0  0  0  0  0  0  0
  186.5460  177.5980  143.1880 C   0  0  0  0  0  0  0  0  0  0  0  0
  185.7950  178.6480  147.2770 C   0  0  0  0  0  3  0  0  0  0  0  0
  182.1420  179.2450  141.9230 C   0  0  0  0  0  2  0  0  0  0  0  0
  183.6860  178.3520  140.1960 C   0  0  0  0  0  1  0  0  0  0  0  0
  185.0490  178.4410  144.9060 C   0  0  0  0  0  0  0  0  0  0  0  0
  181.7720  179.2690  143.3790 C   0  0  0  0  0  3  0  0  0  0  0  0
  184.2960  178.1610  142.6220 C   0  0  0  0  0  0  0  0  0  0  0  0
  186.3260  177.9810  144.5320 C   0  0  0  0  0  0  0  0  0  0  0  0
  187.0200  178.2310  146.9650 C   0  0  0  0  0  3  0  0  0  0  0  0
  187.4390  177.9210  145.5540 C   0  0  0  0  0  3  0  0  0  0  0  0
  182.6730  178.9800  144.3210 C   0  0  0  0  0  3  0  0  0  0  0  0
  184.0300  178.5330  143.9510 C   0  0  0  0  0  0  0  0  0  0  0  0
  187.8740  177.0910  142.6750 C   0  0  1  0  0  3  0  0  0  0  0  0
  187.7840  178.5570  140.7010 O   0  0  0  0  0  0  0  0  0  0  0  0
  189.6090  178.8470  142.0790 O   0  0  0  0  0  1  0  0  0  0  0  0
  188.5700  178.0060  141.6560 C   0  0  1  0  0  0  0  0  0  0  0  0
  188.6320  177.5320  140.2870 N   0  0  2  0  0  0  0  0  0  0  0  0
  189.7070  178.1670  139.5340 C   0  0  0  0  0  3  0  0  0  0  0  0
  189.1980  178.5370  138.1570 C   0  0  0  0  0  2  0  0  0  0  0  0
  190.0530  177.3030  138.3390 C   0  0  0  0  0  2  0  0  0  0  0  0
  188.8280  176.6310  143.7760 C   0  0  0  0  0  2  0  0  0  0  0  0
  189.9870  175.8170  143.2090 C   0  0  0  0  0  2  0  0  0  0  0  0
  191.3020  176.1430  143.9020 C   0  0  0  0  0  2  0  0  0  0  0  0
  191.0930  177.1890  144.9830 C   0  0  0  0  0  2  0  0  0  0  0  0
  190.7670  177.0470  147.4030 O   0  0  0  0  0  0  0  0  0  0  0  0
  191.4390  176.6330  146.2790 N   0  0  0  0  0  0  0  0  0  0  0  0
  192.2270  175.6670  146.3490 O   0  0  0  0  0  0  0  0  0  0  0  0
  1 10  2  0  0  0  0
  1  4  1  0  0  0  0
  2  7  1  6  0  0  0
  2  6  1  0  0  0  0
  2 10  1  0  0  0  0
  3  5  2  0  0  0  0
  4 11  2  0  0  0  0
  6  9  1  0  0  0  0
  8  3  1  0  0  0  0
  9 14  2  0  0  0  0
 10 15  1  0  0  0  0
 11  8  1  0  0  0  0
 11 13  1  0  0  0  0
 12  5  1  0  0  0  0
 13 12  2  0  0  0  0
 15 14  1  0  0  0  0
 15  8  2  0  0  0  0
 16  4  1  0  0  0  0
 16 24  1  1  0  0  0
 17 19  1  0  0  0  0
 19 18  1  1  0  0  0
 19 16  1  0  0  0  0
 20 21  1  6  0  0  0
 20 17  1  0  0  0  0
 20 19  1  0  0  0  0
 22 23  1  0  0  0  0
 22 21  1  0  0  0  0
 23 21  1  0  0  0  0
 25 24  1  0  0  0  0
 25 26  1  0  0  0  0
 26 27  1  0  0  0  0
 27 29  1  0  0  0  0
 29 30  2  0  0  0  0
 29 28  2  0  0  0  0
M  END
>  <MODEL>
4

>  <REMARK>
 VINA RESULT:      -8.5      1.477      1.950
  Name = 
  8 active torsions:
  status: ('A' for Active; 'I' for Inactive)
    1  A    between atoms: C_4  and  C_13
    2  A    between atoms: C_7  and  N_15
    3  A    between atoms: C_7  and  C_16
    4  A    between atoms: C_8  and  C_13
    5  A    between atoms: C_9  and  N_12
    6  A    between atoms: C_13  and  C_27
    7  A    between atoms: C_16  and  C_30
    8  A    between atoms: C_27  and  C_30
                            x       y       z     vdW  Elec       q    Type
                         _______ _______ _______ _____ _____    ______ ____

>  <TORSDO>
F 8

$$$$
=
 OpenBabel11052412293D

 30 34  0  0  1  0  0  0  0  0999 V2000
  187.8510  178.1710  144.1430 N   0  0  0  0  0  0  0  0  0  0  0  0
  186.4140  178.4680  146.1620 C   0  0  1  0  0  3  0  0  0  0  0  0
  184.6350  178.8350  141.5320 N   0  0  0  0  0  0  0  0  0  0  0  0
  188.0880  178.1540  142.8040 C   0  0  0  0  0  0  0  0  0  0  0  0
  184.8300  178.9060  140.1190 C   0  0  0  0  0  3  0  0  0  0  0  0
  185.0010  178.0350  146.5680 C   0  0  0  0  0  2  0  0  0  0  0  0
  187.4240  177.6260  146.9240 C   0  0  0  0  0  1  0  0  0  0  0  0
  185.7270  178.5860  142.4240 C   0  0  0  0  0  0  0  0  0  0  0  0
  183.9520  178.6440  145.6810 C   0  0  0  0  0  3  0  0  0  0  0  0
  186.6100  178.3590  144.6670 C   0  0  0  0  0  0  0  0  0  0  0  0
  187.0150  178.3580  141.9040 C   0  0  0  0  0  0  0  0  0  0  0  0
  186.0280  178.6830  139.5840 C   0  0  0  0  0  3  0  0  0  0  0  0
  187.2320  178.3160  140.4080 C   0  0  0  0  0  3  0  0  0  0  0  0
  184.1880  178.8540  144.3830 C   0  0  0  0  0  3  0  0  0  0  0  0
  185.5200  178.5860  143.8090 C   0  0  0  0  0  0  0  0  0  0  0  0
  189.5090  177.9010  142.3580 C   0  0  1  0  0  3  0  0  0  0  0  0
  191.6200  177.1830  143.3990 O   0  0  0  0  0  0  0  0  0  0  0  0
  190.9120  179.3080  143.9390 O   0  0  0  0  0  1  0  0  0  0  0  0
  190.5700  178.0360  143.4610 C   0  0  1  0  0  0  0  0  0  0  0  0
  190.6820  176.9360  144.3990 N   0  0  2  0  0  0  0  0  0  0  0  0
  191.3020  177.3450  145.6540 C   0  0  0  0  0  3  0  0  0  0  0  0
  191.9580  176.1420  146.3000 C   0  0  0  0  0  2  0  0  0  0  0  0
  190.6180  176.6310  146.8020 C   0  0  0  0  0  2  0  0  0  0  0  0
  189.6860  176.6170  141.5500 C   0  0  0  0  0  2  0  0  0  0  0  0
  190.5620  176.8430  140.3220 C   0  0  0  0  0  2  0  0  0  0  0  0
  189.8450  176.4620  139.0350 C   0  0  0  0  0  2  0  0  0  0  0  0
  190.2250  177.4090  137.9100 C   0  0  0  0  0  2  0  0  0  0  0  0
  189.0630  179.5180  137.4880 O   0  0  0  0  0  0  0  0  0  0  0  0
  189.0540  178.1450  137.4690 N   0  0  0  0  0  0  0  0  0  0  0  0
  188.1100  177.5390  136.9220 O   0  0  0  0  0  0  0  0  0  0  0  0
  1 10  1  0  0  0  0
  2  6  1  0  0  0  0
  2  7  1  1  0  0  0
  3  8  1  0  0  0  0
  4  1  2  0  0  0  0
  5  3  2  0  0  0  0
  8 15  1  0  0  0  0
  9  6  1  0  0  0  0
 10  2  1  0  0  0  0
 11  8  2  0  0  0  0
 11  4  1  0  0  0  0
 12  5  1  0  0  0  0
 12 13  2  0  0  0  0
 13 11  1  0  0  0  0
 14  9  2  0  0  0  0
 15 14  1  0  0  0  0
 15 10  2  0  0  0  0
 16 24  1  1  0  0  0
 16  4  1  0  0  0  0
 16 19  1  0  0  0  0
 17 19  1  0  0  0  0
 17 20  1  0  0  0  0
 19 18  1  1  0  0  0
 19 20  1  0  0  0  0
 20 21  1  1  0  0  0
 21 22  1  0  0  0  0
 21 23  1  0  0  0  0
 22 23  1  0  0  0  0
 25 24  1  0  0  0  0
 26 25  1  0  0  0  0
 27 26  1  0  0  0  0
 29 28  2  0  0  0  0
 29 27  1  0  0  0  0
 30 29  2  0  0  0  0
M  END
>  <MODEL>
5

>  <REMARK>
 VINA RESULT:      -8.3      2.118      5.972
  Name = 
  8 active torsions:
  status: ('A' for Active; 'I' for Inactive)
    1  A    between atoms: C_4  and  C_13
    2  A    between atoms: C_7  and  N_15
    3  A    between atoms: C_7  and  C_16
    4  A    between atoms: C_8  and  C_13
    5  A    between atoms: C_9  and  N_12
    6  A    between atoms: C_13  and  C_27
    7  A    between atoms: C_16  and  C_30
    8  A    between atoms: C_27  and  C_30
                            x       y       z     vdW  Elec       q    Type
                         _______ _______ _______ _____ _____    ______ ____

>  <TORSDO>
F 8

$$$$
=
 OpenBabel11052412293D

 30 34  0  0  1  0  0  0  0  0999 V2000
  188.6480  177.4230  144.5180 N   0  0  0  0  0  0  0  0  0  0  0  0
  189.3030  177.7930  146.8970 C   0  0  1  0  0  3  0  0  0  0  0  0
  184.7220  178.7330  145.2030 N   0  0  0  0  0  0  0  0  0  0  0  0
  187.7840  177.4610  143.4680 C   0  0  0  0  0  0  0  0  0  0  0  0
  183.7880  178.8700  144.1310 C   0  0  0  0  0  3  0  0  0  0  0  0
  188.6450  177.5480  148.2600 C   0  0  0  0  0  2  0  0  0  0  0  0
  190.3970  176.7610  146.6880 C   0  0  0  0  0  1  0  0  0  0  0  0
  186.0550  178.2650  144.9750 C   0  0  0  0  0  0  0  0  0  0  0  0
  187.3950  178.3650  148.4330 C   0  0  0  0  0  3  0  0  0  0  0  0
  188.2810  177.7580  145.7830 C   0  0  0  0  0  0  0  0  0  0  0  0
  186.4490  177.8840  143.6780 C   0  0  0  0  0  0  0  0  0  0  0  0
  184.1130  178.5080  142.8930 C   0  0  0  0  0  3  0  0  0  0  0  0
  185.4500  177.9110  142.5440 C   0  0  0  0  0  3  0  0  0  0  0  0
  186.5950  178.6250  147.3960 C   0  0  0  0  0  3  0  0  0  0  0  0
  186.9710  178.2020  146.0330 C   0  0  0  0  0  0  0  0  0  0  0  0
  188.3150  177.0310  142.1200 C   0  0  1  0  0  3  0  0  0  0  0  0
  187.1920  178.0850  140.2020 O   0  0  0  0  0  0  0  0  0  0  0  0
  188.7250  179.4020  141.3100 O   0  0  0  0  0  1  0  0  0  0  0  0
  188.2660  178.1090  141.0270 C   0  0  1  0  0  0  0  0  0  0  0  0
  188.4000  177.6550  139.6560 N   0  0  2  0  0  0  0  0  0  0  0  0
  188.8510  178.7200  138.7670 C   0  0  0  0  0  3  0  0  0  0  0  0
  188.1330  178.5960  137.4390 C   0  0  0  0  0  2  0  0  0  0  0  0
  189.5570  178.1060  137.5760 C   0  0  0  0  0  2  0  0  0  0  0  0
  189.6780  176.3420  142.1830 C   0  0  0  0  0  2  0  0  0  0  0  0
  190.7780  177.3120  142.6000 C   0  0  0  0  0  2  0  0  0  0  0  0
  192.0570  177.0980  141.8040 C   0  0  0  0  0  2  0  0  0  0  0  0
  191.8500  177.4770  140.3480 C   0  0  0  0  0  2  0  0  0  0  0  0
  194.2500  177.0500  140.1490 O   0  0  0  0  0  0  0  0  0  0  0  0
  193.0060  177.0770  139.5660 N   0  0  0  0  0  0  0  0  0  0  0  0
  192.8480  176.6010  138.4240 O   0  0  0  0  0  0  0  0  0  0  0  0
  1 10  1  0  0  0  0
  2  7  1  6  0  0  0
  2  6  1  0  0  0  0
  4 11  1  0  0  0  0
  4  1  2  0  0  0  0
  5  3  2  0  0  0  0
  6  9  1  0  0  0  0
  8  3  1  0  0  0  0
  8 15  1  0  0  0  0
 10 15  2  0  0  0  0
 10  2  1  0  0  0  0
 11  8  2  0  0  0  0
 12  5  1  0  0  0  0
 13 12  2  0  0  0  0
 13 11  1  0  0  0  0
 14  9  2  0  0  0  0
 15 14  1  0  0  0  0
 16 24  1  1  0  0  0
 16  4  1  0  0  0  0
 17 19  1  0  0  0  0
 19 18  1  1  0  0  0
 19 16  1  0  0  0  0
 20 21  1  6  0  0  0
 20 17  1  0  0  0  0
 20 19  1  0  0  0  0
 22 23  1  0  0  0  0
 22 21  1  0  0  0  0
 23 21  1  0  0  0  0
 24 25  1  0  0  0  0
 26 25  1  0  0  0  0
 27 26  1  0  0  0  0
 29 28  2  0  0  0  0
 29 27  1  0  0  0  0
 30 29  2  0  0  0  0
M  END
>  <MODEL>
6

>  <REMARK>
 VINA RESULT:      -8.2      2.630      4.648
  Name = 
  8 active torsions:
  status: ('A' for Active; 'I' for Inactive)
    1  A    between atoms: C_4  and  C_13
    2  A    between atoms: C_7  and  N_15
    3  A    between atoms: C_7  and  C_16
    4  A    between atoms: C_8  and  C_13
    5  A    between atoms: C_9  and  N_12
    6  A    between atoms: C_13  and  C_27
    7  A    between atoms: C_16  and  C_30
    8  A    between atoms: C_27  and  C_30
                            x       y       z     vdW  Elec       q    Type
                         _______ _______ _______ _____ _____    ______ ____

>  <TORSDO>
F 8

$$$$
=
 OpenBabel11052412293D

 30 34  0  0  1  0  0  0  0  0999 V2000
  189.1280  177.6960  143.7250 N   0  0  0  0  0  0  0  0  0  0  0  0
  191.2630  177.0600  144.8490 C   0  0  1  0  0  3  0  0  0  0  0  0
  187.0540  177.8920  147.3660 N   0  0  0  0  0  0  0  0  0  0  0  0
  187.8170  178.0580  143.7070 C   0  0  0  0  0  0  0  0  0  0  0  0
  185.6990  178.3390  147.4250 C   0  0  0  0  0  3  0  0  0  0  0  0
  191.6520  176.1250  146.0000 C   0  0  0  0  0  2  0  0  0  0  0  0
  191.6900  176.4270  143.5360 C   0  0  0  0  0  1  0  0  0  0  0  0
  187.7570  177.8020  146.1220 C   0  0  0  0  0  0  0  0  0  0  0  0
  191.0450  176.5580  147.3040 C   0  0  0  0  0  3  0  0  0  0  0  0
  189.7810  177.3610  144.8690 C   0  0  0  0  0  0  0  0  0  0  0  0
  187.0930  178.1150  144.9210 C   0  0  0  0  0  0  0  0  0  0  0  0
  185.0290  178.6310  146.3120 C   0  0  0  0  0  3  0  0  0  0  0  0
  185.6270  178.4840  144.9390 C   0  0  0  0  0  3  0  0  0  0  0  0
  189.8350  177.1200  147.3450 C   0  0  0  0  0  3  0  0  0  0  0  0
  189.1040  177.4230  146.0990 C   0  0  0  0  0  0  0  0  0  0  0  0
  187.2070  178.3730  142.3600 C   0  0  1  0  0  3  0  0  0  0  0  0
  188.8330  179.0100  140.6270 O   0  0  0  0  0  0  0  0  0  0  0  0
  188.7030  176.7580  141.0950 O   0  0  0  0  0  1  0  0  0  0  0  0
  188.0810  178.0120  141.1500 C   0  0  1  0  0  0  0  0  0  0  0  0
  187.7230  178.6180  139.8810 N   0  0  2  0  0  0  0  0  0  0  0  0
  188.2380  177.8610  138.7460 C   0  0  0  0  0  3  0  0  0  0  0  0
  188.8530  178.8180  137.7470 C   0  0  0  0  0  2  0  0  0  0  0  0
  187.4720  178.2530  137.5000 C   0  0  0  0  0  2  0  0  0  0  0  0
  185.7720  177.8740  142.1980 C   0  0  0  0  0  2  0  0  0  0  0  0
  184.8210  179.0090  141.8320 C   0  0  0  0  0  2  0  0  0  0  0  0
  183.3880  178.5230  141.6810 C   0  0  0  0  0  2  0  0  0  0  0  0
  182.8010  178.9870  140.3600 C   0  0  0  0  0  2  0  0  0  0  0  0
  184.5560  180.1280  139.0950 O   0  0  0  0  0  0  0  0  0  0  0  0
  183.8310  178.9860  139.3370 N   0  0  0  0  0  0  0  0  0  0  0  0
  184.1700  177.9130  138.7980 O   0  0  0  0  0  0  0  0  0  0  0  0
  1 10  1  0  0  0  0
  2  7  1  6  0  0  0
  2 10  1  0  0  0  0
  2  6  1  0  0  0  0
  3  5  1  0  0  0  0
  4  1  2  0  0  0  0
  4 11  1  0  0  0  0
  6  9  1  0  0  0  0
  8  3  2  0  0  0  0
  9 14  2  0  0  0  0
 10 15  2  0  0  0  0
 11 13  2  0  0  0  0
 11  8  1  0  0  0  0
 12  5  2  0  0  0  0
 13 12  1  0  0  0  0
 15  8  1  0  0  0  0
 15 14  1  0  0  0  0
 16 24  1  6  0  0  0
 16  4  1  0  0  0  0
 17 19  1  0  0  0  0
 19 18  1  6  0  0  0
 19 16  1  0  0  0  0
 20 21  1  6  0  0  0
 20 17  1  0  0  0  0
 20 19  1  0  0  0  0
 22 21  1  0  0  0  0
 23 22  1  0  0  0  0
 23 21  1  0  0  0  0
 25 24  1  0  0  0  0
 26 25  1  0  0  0  0
 27 26  1  0  0  0  0
 28 29  2  0  0  0  0
 29 27  1  0  0  0  0
 30 29  2  0  0  0  0
M  END
>  <MODEL>
7

>  <REMARK>
 VINA RESULT:      -8.1      2.584      6.196
  Name = 
  8 active torsions:
  status: ('A' for Active; 'I' for Inactive)
    1  A    between atoms: C_4  and  C_13
    2  A    between atoms: C_7  and  N_15
    3  A    between atoms: C_7  and  C_16
    4  A    between atoms: C_8  and  C_13
    5  A    between atoms: C_9  and  N_12
    6  A    between atoms: C_13  and  C_27
    7  A    between atoms: C_16  and  C_30
    8  A    between atoms: C_27  and  C_30
                            x       y       z     vdW  Elec       q    Type
                         _______ _______ _______ _____ _____    ______ ____

>  <TORSDO>
F 8

$$$$
=
 OpenBabel11052412293D

 30 34  0  0  1  0  0  0  0  0999 V2000
  187.1220  178.5870  140.2570 N   0  0  0  0  0  0  0  0  0  0  0  0
  189.1660  178.3480  138.8470 C   0  0  1  0  0  3  0  0  0  0  0  0
  189.0990  177.1990  143.6860 N   0  0  0  0  0  0  0  0  0  0  0  0
  186.4310  178.5340  141.4270 C   0  0  0  0  0  0  0  0  0  0  0  0
  188.4550  177.1900  144.9610 C   0  0  0  0  0  3  0  0  0  0  0  0
  190.2830  177.3060  138.7140 C   0  0  0  0  0  2  0  0  0  0  0  0
  188.2450  178.2370  137.6440 C   0  0  0  0  0  1  0  0  0  0  0  0
  188.4190  177.6510  142.5100 C   0  0  0  0  0  0  0  0  0  0  0  0
  191.0880  177.1820  139.9770 C   0  0  0  0  0  3  0  0  0  0  0  0
  188.4130  178.1770  140.1470 C   0  0  0  0  0  0  0  0  0  0  0  0
  187.0720  178.0530  142.5940 C   0  0  0  0  0  0  0  0  0  0  0  0
  187.1790  177.5480  145.0830 C   0  0  0  0  0  3  0  0  0  0  0  0
  186.3300  177.9490  143.9070 C   0  0  0  0  0  3  0  0  0  0  0  0
  190.5140  177.3270  141.1740 C   0  0  0  0  0  3  0  0  0  0  0  0
  189.0940  177.7110  141.2850 C   0  0  0  0  0  0  0  0  0  0  0  0
  184.9910  178.9910  141.4010 C   0  0  1  0  0  3  0  0  0  0  0  0
  184.7300  180.0240  139.1830 O   0  0  0  0  0  0  0  0  0  0  0  0
  184.0840  177.8180  139.3390 O   0  0  0  0  0  1  0  0  0  0  0  0
  184.3440  179.0220  140.0080 C   0  0  1  0  0  0  0  0  0  0  0  0
  183.4510  180.1290  139.7260 N   0  0  2  0  0  0  0  0  0  0  0  0
  182.5200  179.8230  138.6460 C   0  0  0  0  0  3  0  0  0  0  0  0
  181.6880  181.0520  138.3440 C   0  0  0  0  0  2  0  0  0  0  0  0
  181.1020  179.9280  139.1690 C   0  0  0  0  0  2  0  0  0  0  0  0
  184.1000  178.2960  142.4290 C   0  0  0  0  0  2  0  0  0  0  0  0
  183.5260  179.2880  143.4350 C   0  0  0  0  0  2  0  0  0  0  0  0
  182.1320  178.8880  143.8950 C   0  0  0  0  0  2  0  0  0  0  0  0
  181.1640  178.8810  142.7250 C   0  0  0  0  0  2  0  0  0  0  0  0
  179.4380  178.2300  144.3310 O   0  0  0  0  0  0  0  0  0  0  0  0
  179.9780  178.1200  143.0720 N   0  0  0  0  0  0  0  0  0  0  0  0
  179.3570  177.4990  142.1850 O   0  0  0  0  0  0  0  0  0  0  0  0
  1  4  1  0  0  0  0
  2  7  1  6  0  0  0
  2 10  1  0  0  0  0
  3  5  2  0  0  0  0
  4 11  2  0  0  0  0
  5 12  1  0  0  0  0
  6  2  1  0  0  0  0
  6  9  1  0  0  0  0
  8 11  1  0  0  0  0
  8  3  1  0  0  0  0
  9 14  2  0  0  0  0
 10  1  2  0  0  0  0
 10 15  1  0  0  0  0
 11 13  1  0  0  0  0
 13 12  2  0  0  0  0
 14 15  1  0  0  0  0
 15  8  2  0  0  0  0
 16  4  1  0  0  0  0
 16 24  1  1  0  0  0
 17 20  1  0  0  0  0
 17 19  1  0  0  0  0
 19 18  1  6  0  0  0
 19 16  1  0  0  0  0
 20 21  1  6  0  0  0
 20 19  1  0  0  0  0
 21 23  1  0  0  0  0
 22 21  1  0  0  0  0
 22 23  1  0  0  0  0
 24 25  1  0  0  0  0
 25 26  1  0  0  0  0
 27 29  1  0  0  0  0
 27 26  1  0  0  0  0
 29 28  2  0  0  0  0
 30 29  2  0  0  0  0
M  END
>  <MODEL>
8

>  <REMARK>
 VINA RESULT:      -8.0      4.179      7.544
  Name = 
  8 active torsions:
  status: ('A' for Active; 'I' for Inactive)
    1  A    between atoms: C_4  and  C_13
    2  A    between atoms: C_7  and  N_15
    3  A    between atoms: C_7  and  C_16
    4  A    between atoms: C_8  and  C_13
    5  A    between atoms: C_9  and  N_12
    6  A    between atoms: C_13  and  C_27
    7  A    between atoms: C_16  and  C_30
    8  A    between atoms: C_27  and  C_30
                            x       y       z     vdW  Elec       q    Type
                         _______ _______ _______ _____ _____    ______ ____

>  <TORSDO>
F 8

$$$$
=
 OpenBabel11052412293D

 30 34  0  0  1  0  0  0  0  0999 V2000
  186.9390  177.8810  144.7810 N   0  0  0  0  0  0  0  0  0  0  0  0
  187.7660  177.5120  147.1060 C   0  0  1  0  0  3  0  0  0  0  0  0
  190.6600  176.9060  143.1070 N   0  0  0  0  0  0  0  0  0  0  0  0
  187.0640  177.8900  143.4270 C   0  0  0  0  0  0  0  0  0  0  0  0
  190.8380  176.8210  141.6920 C   0  0  0  0  0  3  0  0  0  0  0  0
  189.0550  177.8380  147.8700 C   0  0  0  0  0  2  0  0  0  0  0  0
  186.6660  178.4480  147.5760 C   0  0  0  0  0  1  0  0  0  0  0  0
  189.3970  177.2610  143.6800 C   0  0  0  0  0  0  0  0  0  0  0  0
  190.2450  177.1280  147.2890 C   0  0  0  0  0  3  0  0  0  0  0  0
  187.9790  177.6050  145.6120 C   0  0  0  0  0  0  0  0  0  0  0  0
  188.3140  177.5800  142.8400 C   0  0  0  0  0  0  0  0  0  0  0  0
  189.8450  177.1290  140.8600 C   0  0  0  0  0  3  0  0  0  0  0  0
  188.5010  177.6090  141.3390 C   0  0  0  0  0  3  0  0  0  0  0  0
  190.3410  176.9110  145.9750 C   0  0  0  0  0  3  0  0  0  0  0  0
  189.2330  177.2730  145.0700 C   0  0  0  0  0  0  0  0  0  0  0  0
  185.8350  178.2470  142.6230 C   0  0  1  0  0  3  0  0  0  0  0  0
  184.1310  178.1850  144.3970 O   0  0  0  0  0  0  0  0  0  0  0  0
  184.8090  180.2860  143.7350 O   0  0  0  0  0  1  0  0  0  0  0  0
  184.7100  178.9240  143.4210 C   0  0  1  0  0  0  0  0  0  0  0  0
  183.3730  178.3910  143.2460 N   0  0  2  0  0  0  0  0  0  0  0  0
  182.3440  179.3620  143.6000 C   0  0  0  0  0  3  0  0  0  0  0  0
  181.0720  178.6270  143.9690 C   0  0  0  0  0  2  0  0  0  0  0  0
  181.2070  179.2650  142.6040 C   0  0  0  0  0  2  0  0  0  0  0  0
  186.1390  178.9880  141.3220 C   0  0  0  0  0  2  0  0  0  0  0  0
  184.9310  179.0050  140.3910 C   0  0  0  0  0  2  0  0  0  0  0  0
  184.9940  177.8900  139.3580 C   0  0  0  0  0  2  0  0  0  0  0  0
  185.3140  178.4510  137.9840 C   0  0  0  0  0  2  0  0  0  0  0  0
  187.3430  177.0890  138.0650 O   0  0  0  0  0  0  0  0  0  0  0  0
  186.7220  178.2540  137.6880 N   0  0  0  0  0  0  0  0  0  0  0  0
  187.3200  179.0640  136.9510 O   0  0  0  0  0  0  0  0  0  0  0  0
  1 10  1  0  0  0  0
  2  7  1  1  0  0  0
  2  6  1  0  0  0  0
  3  8  1  0  0  0  0
  4  1  2  0  0  0  0
  5  3  2  0  0  0  0
  8 15  1  0  0  0  0
  9  6  1  0  0  0  0
 10  2  1  0  0  0  0
 11  4  1  0  0  0  0
 11  8  2  0  0  0  0
 12 13  2  0  0  0  0
 12  5  1  0  0  0  0
 13 11  1  0  0  0  0
 14  9  2  0  0  0  0
 15 10  2  0  0  0  0
 15 14  1  0  0  0  0
 16 24  1  6  0  0  0
 16 19  1  0  0  0  0
 16  4  1  0  0  0  0
 19 18  1  1  0  0  0
 19 17  1  0  0  0  0
 20 19  1  0  0  0  0
 20 21  1  1  0  0  0
 20 17  1  0  0  0  0
 21 22  1  0  0  0  0
 23 21  1  0  0  0  0
 23 22  1  0  0  0  0
 25 24  1  0  0  0  0
 26 25  1  0  0  0  0
 27 26  1  0  0  0  0
 29 27  1  0  0  0  0
 29 28  2  0  0  0  0
 30 29  2  0  0  0  0
M  END
>  <MODEL>
9

>  <REMARK>
 VINA RESULT:      -8.0      3.238      7.199
  Name = 
  8 active torsions:
  status: ('A' for Active; 'I' for Inactive)
    1  A    between atoms: C_4  and  C_13
    2  A    between atoms: C_7  and  N_15
    3  A    between atoms: C_7  and  C_16
    4  A    between atoms: C_8  and  C_13
    5  A    between atoms: C_9  and  N_12
    6  A    between atoms: C_13  and  C_27
    7  A    between atoms: C_16  and  C_30
    8  A    between atoms: C_27  and  C_30
                            x       y       z     vdW  Elec       q    Type
                         _______ _______ _______ _____ _____    ______ ____

>  <TORSDO>
F 8

$$$$
