=
 OpenBabel11052413403D

 27 31  0  0  1  0  0  0  0  0999 V2000
  187.3780  177.7470  143.9390 C   0  0  0  0  0  3  0  0  0  0  0  0
  187.2640  178.1190  141.4720 C   0  0  0  0  0  0  0  0  0  0  0  0
  189.6810  178.1630  141.9940 C   0  0  0  0  0  3  0  0  0  0  0  0
  188.7220  177.3750  137.6370 O   0  0  0  0  0  0  0  0  0  0  0  0
  189.5650  175.3750  137.2940 O   0  0  0  0  0  1  0  0  0  0  0  0
  186.5540  178.6350  140.3230 N   0  0  0  0  0  0  0  0  0  0  0  0
  190.0710  176.4920  139.2080 C   0  0  1  0  0  3  0  0  0  0  0  0
  191.7200  178.3700  144.8220 C   0  0  0  0  0  3  0  0  0  0  0  0
  191.4140  177.0900  139.5800 C   0  0  0  0  0  1  0  0  0  0  0  0
  191.4840  177.0650  145.4650 C   0  0  0  0  0  3  0  0  0  0  0  0
  188.9510  177.2710  139.8230 C   0  0  1  0  0  3  0  0  0  0  0  0
  186.7090  178.2100  142.7020 C   0  0  0  0  0  0  0  0  0  0  0  0
  189.8700  176.6130  137.7520 N   0  0  0  0  0  0  0  0  0  0  0  0
  188.2040  177.7310  138.8590 C   0  0  0  0  0  0  0  0  0  0  0  0
  188.6890  177.7060  144.2200 C   0  0  0  0  0  0  0  0  0  0  0  0
  188.6010  177.4210  141.2800 C   0  0  0  0  0  0  0  0  0  0  0  0
  190.9470  178.9030  143.8710 C   0  0  0  0  0  3  0  0  0  0  0  0
  186.9680  178.4710  139.1030 C   0  0  0  0  0  3  0  0  0  0  0  0
  190.2820  176.5830  145.7860 C   0  0  0  0  0  3  0  0  0  0  0  0
  189.0170  177.3660  145.6390 C   0  0  0  0  0  2  0  0  0  0  0  0
  189.7400  178.2640  143.3210 C   0  0  0  0  0  0  0  0  0  0  0  0
  182.5380  179.0280  143.4770 C   0  0  0  0  0  3  0  0  0  0  0  0
  185.3240  178.7600  142.9110 C   0  0  1  0  0  3  0  0  0  0  0  0
  184.3090  178.1400  141.9450 C   0  0  0  0  0  2  0  0  0  0  0  0
  182.8880  178.5080  142.2890 C   0  0  0  0  0  3  0  0  0  0  0  0
  183.5490  179.3870  144.5350 C   0  0  0  0  0  2  0  0  0  0  0  0
  184.8580  178.6240  144.3580 C   0  0  0  0  0  2  0  0  0  0  0  0
  1 15  1  0  0  0  0
  2 12  1  0  0  0  0
  3 21  1  0  0  0  0
  4 13  1  0  0  0  0
  4 14  1  0  0  0  0
  5 13  1  0  0  0  0
  6  2  2  0  0  0  0
  7  9  1  6  0  0  0
  7 11  1  0  0  0  0
  8 10  1  0  0  0  0
 10 19  2  0  0  0  0
 11 14  1  6  0  0  0
 11 16  1  0  0  0  0
 12  1  2  0  0  0  0
 13  7  1  0  0  0  0
 14 18  2  0  0  0  0
 15 20  1  0  0  0  0
 16  2  1  0  0  0  0
 16  3  2  0  0  0  0
 17  8  2  0  0  0  0
 18  6  1  0  0  0  0
 20 19  1  0  0  0  0
 21 17  1  0  0  0  0
 21 15  2  0  0  0  0
 22 26  1  0  0  0  0
 23 12  1  1  0  0  0
 23 27  1  0  0  0  0
 24 25  1  0  0  0  0
 24 23  1  0  0  0  0
 25 22  2  0  0  0  0
 27 26  1  0  0  0  0
M  END
>  <MODEL>
1

>  <REMARK>
 VINA RESULT:     -10.3      0.000      0.000
  Name = 
  1 active torsions:
  status: ('A' for Active; 'I' for Inactive)
    1  A    between atoms: C_9  and  C_15
                            x       y       z     vdW  Elec       q    Type
                         _______ _______ _______ _____ _____    ______ ____

>  <TORSDO>
F 1

$$$$
=
 OpenBabel11052413403D

 27 31  0  0  1  0  0  0  0  0999 V2000
  188.1070  176.9280  143.4850 C   0  0  0  0  0  3  0  0  0  0  0  0
  185.9050  178.0050  143.9590 C   0  0  0  0  0  0  0  0  0  0  0  0
  186.4690  178.7350  141.6660 C   0  0  0  0  0  3  0  0  0  0  0  0
  182.0780  179.1000  142.7160 O   0  0  0  0  0  0  0  0  0  0  0  0
  181.1070  177.7530  141.2760 O   0  0  0  0  0  1  0  0  0  0  0  0
  184.9770  178.5730  144.9120 N   0  0  0  0  0  0  0  0  0  0  0  0
  183.2960  178.3000  141.0000 C   0  0  1  0  0  3  0  0  0  0  0  0
  189.2530  178.7360  139.5560 C   0  0  0  0  0  3  0  0  0  0  0  0
  183.8790  179.1840  139.9130 C   0  0  0  0  0  1  0  0  0  0  0  0
  189.4180  177.3000  139.2660 C   0  0  0  0  0  3  0  0  0  0  0  0
  184.1080  178.3890  142.2530 C   0  0  0  0  0  0  0  0  0  0  0  0
  187.0800  177.4930  144.3890 C   0  0  0  0  0  0  0  0  0  0  0  0
  181.9600  178.8020  141.3710 N   0  0  0  0  0  0  0  0  0  0  0  0
  183.3350  178.8360  143.2030 C   0  0  0  0  0  0  0  0  0  0  0  0
  188.3900  177.2680  142.2180 C   0  0  0  0  0  0  0  0  0  0  0  0
  185.5230  177.9290  142.4900 C   0  0  2  0  0  3  0  0  0  0  0  0
  188.5170  179.2340  140.5540 C   0  0  0  0  0  3  0  0  0  0  0  0
  183.7830  178.9680  144.5880 C   0  0  0  0  0  3  0  0  0  0  0  0
  189.5290  176.3470  140.1920 C   0  0  0  0  0  3  0  0  0  0  0  0
  189.6220  176.6320  141.6570 C   0  0  0  0  0  2  0  0  0  0  0  0
  187.7560  178.4200  141.5150 C   0  0  0  0  0  0  0  0  0  0  0  0
  188.5530  177.9000  148.4310 C   0  0  0  0  0  3  0  0  0  0  0  0
  187.4270  177.4160  145.8520 C   0  0  1  0  0  3  0  0  0  0  0  0
  188.9150  177.1330  146.0740 C   0  0  0  0  0  2  0  0  0  0  0  0
  189.3190  177.2780  147.5200 C   0  0  0  0  0  3  0  0  0  0  0  0
  187.1740  178.4180  148.1130 C   0  0  0  0  0  2  0  0  0  0  0  0
  186.9830  178.6590  146.6190 C   0  0  0  0  0  2  0  0  0  0  0  0
  1 12  1  0  0  0  0
  2 12  2  0  0  0  0
  2  6  1  0  0  0  0
  4 14  1  0  0  0  0
  5 13  1  0  0  0  0
  7  9  1  6  0  0  0
  7 13  1  0  0  0  0
  7 11  1  0  0  0  0
  8 17  2  0  0  0  0
 10  8  1  0  0  0  0
 10 19  2  0  0  0  0
 11 16  1  0  0  0  0
 11 14  2  0  0  0  0
 13  4  1  0  0  0  0
 14 18  1  0  0  0  0
 15  1  2  0  0  0  0
 16  3  1  6  0  0  0
 16  2  1  0  0  0  0
 17 21  1  0  0  0  0
 18  6  2  0  0  0  0
 19 20  1  0  0  0  0
 20 15  1  0  0  0  0
 21  3  2  0  0  0  0
 21 15  1  0  0  0  0
 23 12  1  6  0  0  0
 23 24  1  0  0  0  0
 23 27  1  0  0  0  0
 24 25  1  0  0  0  0
 25 22  2  0  0  0  0
 26 22  1  0  0  0  0
 27 26  1  0  0  0  0
M  END
>  <MODEL>
2

>  <REMARK>
 VINA RESULT:      -9.3      3.476      5.806
  Name = 
  1 active torsions:
  status: ('A' for Active; 'I' for Inactive)
    1  A    between atoms: C_9  and  C_15
                            x       y       z     vdW  Elec       q    Type
                         _______ _______ _______ _____ _____    ______ ____

>  <TORSDO>
F 1

$$$$
=
 OpenBabel11052413403D

 27 31  0  0  1  0  0  0  0  0999 V2000
  187.2980  178.4050  141.1390 C   0  0  0  0  0  3  0  0  0  0  0  0
  185.5800  178.4320  142.9490 C   0  0  1  0  0  3  0  0  0  0  0  0
  187.4670  177.1550  143.9080 C   0  0  0  0  0  3  0  0  0  0  0  0
  184.5870  178.8220  146.9810 O   0  0  0  0  0  0  0  0  0  0  0  0
  185.8470  180.1820  148.1590 O   0  0  0  0  0  1  0  0  0  0  0  0
  184.1890  178.4690  143.3440 N   0  0  0  0  0  0  0  0  0  0  0  0
  186.8180  178.7420  146.6940 C   0  0  1  0  0  3  0  0  0  0  0  0
  190.4100  175.6450  142.7870 C   0  0  0  0  0  3  0  0  0  0  0  0
  187.6560  177.5250  147.0390 C   0  0  0  0  0  1  0  0  0  0  0  0
  191.2320  176.8120  142.4190 C   0  0  0  0  0  3  0  0  0  0  0  0
  186.0920  178.5400  145.4010 C   0  0  0  0  0  0  0  0  0  0  0  0
  185.9070  178.4780  141.6390 C   0  0  0  0  0  0  0  0  0  0  0  0
  185.7600  178.9080  147.7070 N   0  0  0  0  0  0  0  0  0  0  0  0
  184.8130  178.6220  145.6400 C   0  0  0  0  0  0  0  0  0  0  0  0
  188.3510  177.7680  141.6740 C   0  0  0  0  0  0  0  0  0  0  0  0
  186.6640  178.4070  144.0140 C   0  0  0  0  0  0  0  0  0  0  0  0
  189.0890  175.6730  142.9860 C   0  0  0  0  0  3  0  0  0  0  0  0
  183.8070  178.5540  144.5840 C   0  0  0  0  0  3  0  0  0  0  0  0
  190.8490  177.7760  141.5820 C   0  0  0  0  0  3  0  0  0  0  0  0
  189.5700  177.7330  140.8080 C   0  0  0  0  0  2  0  0  0  0  0  0
  188.2540  176.8790  142.8680 C   0  0  0  0  0  0  0  0  0  0  0  0
  183.1320  178.2330  138.3350 C   0  0  0  0  0  3  0  0  0  0  0  0
  184.8670  178.6520  140.5640 C   0  0  1  0  0  3  0  0  0  0  0  0
  185.4730  178.5700  139.1600 C   0  0  0  0  0  2  0  0  0  0  0  0
  184.4210  178.5150  138.0810 C   0  0  0  0  0  3  0  0  0  0  0  0
  182.6020  178.0500  139.7330 C   0  0  0  0  0  2  0  0  0  0  0  0
  183.7040  177.6740  140.7190 C   0  0  0  0  0  2  0  0  0  0  0  0
  1 12  2  0  0  0  0
  1 15  1  0  0  0  0
  2 12  1  6  0  0  0
  2  6  1  0  0  0  0
  2 16  1  0  0  0  0
  3 16  2  0  0  0  0
  4 13  1  0  0  0  0
  6 18  2  0  0  0  0
  7  9  1  1  0  0  0
  7 13  1  0  0  0  0
  8 17  2  0  0  0  0
 10  8  1  0  0  0  0
 11 14  2  0  0  0  0
 11  7  1  0  0  0  0
 13  5  1  0  0  0  0
 14  4  1  0  0  0  0
 15 21  2  0  0  0  0
 16 11  1  0  0  0  0
 18 14  1  0  0  0  0
 19 10  2  0  0  0  0
 20 19  1  0  0  0  0
 20 15  1  0  0  0  0
 21 17  1  0  0  0  0
 21  3  1  0  0  0  0
 22 26  1  0  0  0  0
 23 27  1  0  0  0  0
 23 12  1  1  0  0  0
 24 23  1  0  0  0  0
 25 22  2  0  0  0  0
 25 24  1  0  0  0  0
 26 27  1  0  0  0  0
M  END
>  <MODEL>
3

>  <REMARK>
 VINA RESULT:      -9.1      3.830      5.807
  Name = 
  1 active torsions:
  status: ('A' for Active; 'I' for Inactive)
    1  A    between atoms: C_9  and  C_15
                            x       y       z     vdW  Elec       q    Type
                         _______ _______ _______ _____ _____    ______ ____

>  <TORSDO>
F 1

$$$$
=
 OpenBabel11052413403D

 27 31  0  0  1  0  0  0  0  0999 V2000
  191.0670  177.5030  140.6010 C   0  0  0  0  0  3  0  0  0  0  0  0
  189.0060  177.3520  139.2000 C   0  0  1  0  0  3  0  0  0  0  0  0
  188.1780  177.2740  141.5280 C   0  0  0  0  0  3  0  0  0  0  0  0
  185.0480  178.4430  138.4690 O   0  0  0  0  0  0  0  0  0  0  0  0
  184.4730  180.4700  139.0930 O   0  0  0  0  0  1  0  0  0  0  0  0
  188.3640  176.9370  137.9720 N   0  0  0  0  0  0  0  0  0  0  0  0
  185.7430  179.1890  140.4760 C   0  0  1  0  0  3  0  0  0  0  0  0
  189.4910  176.8250  144.7330 C   0  0  0  0  0  3  0  0  0  0  0  0
  185.3080  178.5660  141.7900 C   0  0  0  0  0  1  0  0  0  0  0  0
  190.2640  178.0660  144.9240 C   0  0  0  0  0  3  0  0  0  0  0  0
  186.7900  178.3520  139.8110 C   0  0  0  0  0  0  0  0  0  0  0  0
  190.3330  177.1490  139.3650 C   0  0  0  0  0  0  0  0  0  0  0  0
  184.6050  179.1970  139.5400 N   0  0  0  0  0  0  0  0  0  0  0  0
  186.3280  177.9770  138.6510 C   0  0  0  0  0  0  0  0  0  0  0  0
  190.6220  177.5250  141.8660 C   0  0  0  0  0  0  0  0  0  0  0  0
  188.1980  178.0710  140.2670 C   0  0  0  0  0  0  0  0  0  0  0  0
  189.0490  176.3750  143.5550 C   0  0  0  0  0  3  0  0  0  0  0  0
  187.1240  177.2120  137.6940 C   0  0  0  0  0  3  0  0  0  0  0  0
  191.2030  178.5110  144.0890 C   0  0  0  0  0  3  0  0  0  0  0  0
  191.6810  177.7370  142.9010 C   0  0  0  0  0  2  0  0  0  0  0  0
  189.2650  177.0540  142.2680 C   0  0  0  0  0  0  0  0  0  0  0  0
  193.0800  175.0160  136.8010 C   0  0  0  0  0  3  0  0  0  0  0  0
  191.1920  176.5760  138.2710 C   0  0  1  0  0  3  0  0  0  0  0  0
  192.6860  176.7530  138.5620 C   0  0  0  0  0  2  0  0  0  0  0  0
  193.5550  175.9890  137.5960 C   0  0  0  0  0  3  0  0  0  0  0  0
  191.6150  174.6720  136.7280 C   0  0  0  0  0  2  0  0  0  0  0  0
  190.8600  175.1150  137.9770 C   0  0  0  0  0  2  0  0  0  0  0  0
  1 15  1  0  0  0  0
  2  6  1  6  0  0  0
  2 12  1  0  0  0  0
  2 16  1  0  0  0  0
  3 21  1  0  0  0  0
  4 14  1  0  0  0  0
  4 13  1  0  0  0  0
  5 13  1  0  0  0  0
  7  9  1  1  0  0  0
  8 10  1  0  0  0  0
 11 16  1  0  0  0  0
 11  7  1  0  0  0  0
 12  1  2  0  0  0  0
 13  7  1  0  0  0  0
 14 11  2  0  0  0  0
 15 21  2  0  0  0  0
 15 20  1  0  0  0  0
 16  3  2  0  0  0  0
 17  8  2  0  0  0  0
 18  6  2  0  0  0  0
 18 14  1  0  0  0  0
 19 10  2  0  0  0  0
 20 19  1  0  0  0  0
 21 17  1  0  0  0  0
 22 25  2  0  0  0  0
 23 24  1  0  0  0  0
 23 12  1  1  0  0  0
 25 24  1  0  0  0  0
 26 22  1  0  0  0  0
 26 27  1  0  0  0  0
 27 23  1  0  0  0  0
M  END
>  <MODEL>
4

>  <REMARK>
 VINA RESULT:      -9.0      2.130      6.142
  Name = 
  1 active torsions:
  status: ('A' for Active; 'I' for Inactive)
    1  A    between atoms: C_9  and  C_15
                            x       y       z     vdW  Elec       q    Type
                         _______ _______ _______ _____ _____    ______ ____

>  <TORSDO>
F 1

$$$$
=
 OpenBabel11052413403D

 27 31  0  0  1  0  0  0  0  0999 V2000
  183.5980  179.0530  142.6470 C   0  0  0  0  0  3  0  0  0  0  0  0
  185.8420  178.5090  141.6990 C   0  0  0  0  0  0  0  0  0  0  0  0
  184.2390  177.6080  140.0470 C   0  0  0  0  0  3  0  0  0  0  0  0
  188.4190  178.2630  138.4300 O   0  0  0  0  0  0  0  0  0  0  0  0
  188.1120  179.7530  136.8440 O   0  0  0  0  0  1  0  0  0  0  0  0
  187.2370  178.1880  141.9090 N   0  0  0  0  0  0  0  0  0  0  0  0
  186.3140  178.7240  137.7770 C   0  0  1  0  0  3  0  0  0  0  0  0
  180.8180  176.9280  139.8580 C   0  0  0  0  0  3  0  0  0  0  0  0
  185.4080  177.7020  137.1140 C   0  0  0  0  0  1  0  0  0  0  0  0
  180.2360  178.2820  139.8620 C   0  0  0  0  0  3  0  0  0  0  0  0
  186.3910  178.4890  139.2530 C   0  0  0  0  0  0  0  0  0  0  0  0
  185.0430  178.7560  142.7610 C   0  0  0  0  0  0  0  0  0  0  0  0
  187.6930  178.5430  137.2870 N   0  0  0  0  0  0  0  0  0  0  0  0
  187.6360  178.2530  139.5590 C   0  0  0  0  0  0  0  0  0  0  0  0
  182.7220  178.6240  141.7260 C   0  0  0  0  0  0  0  0  0  0  0  0
  185.3010  178.6280  140.2840 C   0  0  2  0  0  3  0  0  0  0  0  0
  182.0710  176.6350  140.2180 C   0  0  0  0  0  3  0  0  0  0  0  0
  188.0880  178.0620  140.9350 C   0  0  0  0  0  3  0  0  0  0  0  0
  180.4810  179.2110  140.7860 C   0  0  0  0  0  3  0  0  0  0  0  0
  181.2920  178.9530  142.0160 C   0  0  0  0  0  2  0  0  0  0  0  0
  183.0620  177.6230  140.6720 C   0  0  0  0  0  0  0  0  0  0  0  0
  186.1180  178.2130  146.9110 C   0  0  0  0  0  3  0  0  0  0  0  0
  185.5780  178.7940  144.1680 C   0  0  1  0  0  3  0  0  0  0  0  0
  184.4650  178.9960  145.2000 C   0  0  0  0  0  2  0  0  0  0  0  0
  184.9510  178.8090  146.6150 C   0  0  0  0  0  3  0  0  0  0  0  0
  187.0950  177.7720  145.8530 C   0  0  0  0  0  2  0  0  0  0  0  0
  186.4190  177.5640  144.5010 C   0  0  0  0  0  2  0  0  0  0  0  0
  1 12  1  0  0  0  0
  2  6  1  0  0  0  0
  2 12  2  0  0  0  0
  3 21  2  0  0  0  0
  4 14  1  0  0  0  0
  5 13  1  0  0  0  0
  7  9  1  6  0  0  0
  7 11  1  0  0  0  0
  8 10  1  0  0  0  0
  8 17  2  0  0  0  0
 10 19  2  0  0  0  0
 11 14  2  0  0  0  0
 11 16  1  0  0  0  0
 13  7  1  0  0  0  0
 13  4  1  0  0  0  0
 14 18  1  0  0  0  0
 15 20  1  0  0  0  0
 15  1  2  0  0  0  0
 16  3  1  6  0  0  0
 16  2  1  0  0  0  0
 17 21  1  0  0  0  0
 18  6  2  0  0  0  0
 19 20  1  0  0  0  0
 21 15  1  0  0  0  0
 23 12  1  6  0  0  0
 23 27  1  0  0  0  0
 23 24  1  0  0  0  0
 24 25  1  0  0  0  0
 25 22  2  0  0  0  0
 26 22  1  0  0  0  0
 27 26  1  0  0  0  0
M  END
>  <MODEL>
5

>  <REMARK>
 VINA RESULT:      -8.5      2.397      5.978
  Name = 
  1 active torsions:
  status: ('A' for Active; 'I' for Inactive)
    1  A    between atoms: C_9  and  C_15
                            x       y       z     vdW  Elec       q    Type
                         _______ _______ _______ _____ _____    ______ ____

>  <TORSDO>
F 1

$$$$
=
 OpenBabel11052413403D

 27 31  0  0  1  0  0  0  0  0999 V2000
  188.8740  177.0610  142.5320 C   0  0  0  0  0  3  0  0  0  0  0  0
  186.7150  178.1130  143.2170 C   0  0  0  0  0  0  0  0  0  0  0  0
  186.9280  178.6480  140.8130 C   0  0  0  0  0  3  0  0  0  0  0  0
  182.7120  178.9790  142.4350 O   0  0  0  0  0  0  0  0  0  0  0  0
  181.6090  177.4800  141.2670 O   0  0  0  0  0  1  0  0  0  0  0  0
  185.9050  178.7380  144.2390 N   0  0  0  0  0  0  0  0  0  0  0  0
  183.7140  178.0620  140.6400 C   0  0  1  0  0  3  0  0  0  0  0  0
  189.3920  178.5380  138.3400 C   0  0  0  0  0  3  0  0  0  0  0  0
  184.1060  178.8610  139.4100 C   0  0  0  0  0  1  0  0  0  0  0  0
  189.5750  177.0870  138.1550 C   0  0  0  0  0  3  0  0  0  0  0  0
  184.6870  178.2890  141.7540 C   0  0  0  0  0  0  0  0  0  0  0  0
  187.9580  177.6760  143.5200 C   0  0  0  0  0  0  0  0  0  0  0  0
  182.4220  178.5570  141.1510 N   0  0  0  0  0  0  0  0  0  0  0  0
  184.0340  178.7970  142.7610 C   0  0  0  0  0  0  0  0  0  0  0  0
  188.9660  177.2930  141.2140 C   0  0  0  0  0  0  0  0  0  0  0  0
  186.1390  177.8930  141.8280 C   0  0  2  0  0  3  0  0  0  0  0  0
  188.7810  179.1030  139.3850 C   0  0  0  0  0  3  0  0  0  0  0  0
  184.6610  179.0670  144.0530 C   0  0  0  0  0  3  0  0  0  0  0  0
  189.8520  176.2250  139.1340 C   0  0  0  0  0  3  0  0  0  0  0  0
  190.1340  176.6450  140.5420 C   0  0  0  0  0  2  0  0  0  0  0  0
  188.1930  178.3580  140.5110 C   0  0  0  0  0  0  0  0  0  0  0  0
  189.2930  177.1000  147.5890 C   0  0  0  0  0  3  0  0  0  0  0  0
  188.5060  177.7430  144.9200 C   0  0  1  0  0  3  0  0  0  0  0  0
  187.4210  177.4950  145.9730 C   0  0  0  0  0  2  0  0  0  0  0  0
  187.9910  177.3340  147.3600 C   0  0  0  0  0  3  0  0  0  0  0  0
  190.3210  177.0820  146.4860 C   0  0  0  0  0  2  0  0  0  0  0  0
  189.6930  176.8050  145.1240 C   0  0  0  0  0  2  0  0  0  0  0  0
  1 12  1  0  0  0  0
  2 12  2  0  0  0  0
  2  6  1  0  0  0  0
  4 14  1  0  0  0  0
  7  9  1  6  0  0  0
  7 13  1  0  0  0  0
  7 11  1  0  0  0  0
  8 17  2  0  0  0  0
 10  8  1  0  0  0  0
 10 19  2  0  0  0  0
 11 16  1  0  0  0  0
 11 14  2  0  0  0  0
 13  5  1  0  0  0  0
 13  4  1  0  0  0  0
 14 18  1  0  0  0  0
 15  1  2  0  0  0  0
 16  3  1  6  0  0  0
 16  2  1  0  0  0  0
 17 21  1  0  0  0  0
 18  6  2  0  0  0  0
 19 20  1  0  0  0  0
 20 15  1  0  0  0  0
 21  3  2  0  0  0  0
 21 15  1  0  0  0  0
 23 12  1  6  0  0  0
 23 27  1  0  0  0  0
 23 24  1  0  0  0  0
 24 25  1  0  0  0  0
 25 22  2  0  0  0  0
 26 22  1  0  0  0  0
 27 26  1  0  0  0  0
M  END
>  <MODEL>
6

>  <REMARK>
 VINA RESULT:      -8.4      3.142      5.809
  Name = 
  1 active torsions:
  status: ('A' for Active; 'I' for Inactive)
    1  A    between atoms: C_9  and  C_15
                            x       y       z     vdW  Elec       q    Type
                         _______ _______ _______ _____ _____    ______ ____

>  <TORSDO>
F 1

$$$$
=
 OpenBabel11052413403D

 27 31  0  0  1  0  0  0  0  0999 V2000
  186.3630  178.6490  140.2160 C   0  0  0  0  0  3  0  0  0  0  0  0
  187.3690  178.0360  142.4170 C   0  0  0  0  0  0  0  0  0  0  0  0
  189.0140  177.2520  140.7470 C   0  0  0  0  0  3  0  0  0  0  0  0
  190.6940  177.7740  144.9210 O   0  0  0  0  0  0  0  0  0  0  0  0
  192.2320  179.3200  144.6500 O   0  0  0  0  0  1  0  0  0  0  0  0
  187.1960  177.6510  143.8010 N   0  0  0  0  0  0  0  0  0  0  0  0
  191.2920  178.3420  142.8260 C   0  0  1  0  0  3  0  0  0  0  0  0
  189.1550  176.7240  137.2970 C   0  0  0  0  0  3  0  0  0  0  0  0
  191.9650  177.3800  141.8650 C   0  0  0  0  0  1  0  0  0  0  0  0
  189.1030  178.1020  136.7740 C   0  0  0  0  0  3  0  0  0  0  0  0
  189.8250  178.0630  142.9200 C   0  0  0  0  0  0  0  0  0  0  0  0
  186.2850  178.2880  141.6500 C   0  0  0  0  0  0  0  0  0  0  0  0
  191.8140  178.1170  144.1870 N   0  0  0  0  0  0  0  0  0  0  0  0
  189.5500  177.7650  144.1590 C   0  0  0  0  0  0  0  0  0  0  0  0
  187.2790  178.2830  139.3060 C   0  0  0  0  0  0  0  0  0  0  0  0
  188.7700  178.2190  141.8560 C   0  0  2  0  0  3  0  0  0  0  0  0
  188.8270  176.3680  138.5420 C   0  0  0  0  0  3  0  0  0  0  0  0
  188.1890  177.5160  144.6270 C   0  0  0  0  0  3  0  0  0  0  0  0
  188.1580  178.9930  137.0760 C   0  0  0  0  0  3  0  0  0  0  0  0
  186.9520  178.6650  137.8970 C   0  0  0  0  0  2  0  0  0  0  0  0
  188.3660  177.3000  139.5830 C   0  0  0  0  0  0  0  0  0  0  0  0
  182.2820  179.0040  143.1090 C   0  0  0  0  0  3  0  0  0  0  0  0
  184.8890  178.2620  142.2110 C   0  0  1  0  0  3  0  0  0  0  0  0
  184.7580  179.1350  143.4630 C   0  0  0  0  0  2  0  0  0  0  0  0
  183.3250  179.3000  143.9020 C   0  0  0  0  0  3  0  0  0  0  0  0
  182.4490  178.3820  141.7470 C   0  0  0  0  0  2  0  0  0  0  0  0
  183.8380  178.6350  141.1690 C   0  0  0  0  0  2  0  0  0  0  0  0
  1 12  1  0  0  0  0
  2  6  1  0  0  0  0
  6 18  2  0  0  0  0
  7  9  1  6  0  0  0
  7 11  1  0  0  0  0
  7 13  1  0  0  0  0
  8 17  2  0  0  0  0
 10 19  2  0  0  0  0
 10  8  1  0  0  0  0
 11 14  2  0  0  0  0
 12  2  2  0  0  0  0
 13  5  1  0  0  0  0
 13  4  1  0  0  0  0
 14 18  1  0  0  0  0
 14  4  1  0  0  0  0
 15 21  1  0  0  0  0
 15  1  2  0  0  0  0
 16  3  1  6  0  0  0
 16  2  1  0  0  0  0
 16 11  1  0  0  0  0
 17 21  1  0  0  0  0
 19 20  1  0  0  0  0
 20 15  1  0  0  0  0
 21  3  2  0  0  0  0
 22 25  2  0  0  0  0
 23 12  1  6  0  0  0
 23 24  1  0  0  0  0
 24 25  1  0  0  0  0
 26 22  1  0  0  0  0
 27 26  1  0  0  0  0
 27 23  1  0  0  0  0
M  END
>  <MODEL>
7

>  <REMARK>
 VINA RESULT:      -8.2      2.825      5.186
  Name = 
  1 active torsions:
  status: ('A' for Active; 'I' for Inactive)
    1  A    between atoms: C_9  and  C_15
                            x       y       z     vdW  Elec       q    Type
                         _______ _______ _______ _____ _____    ______ ____

>  <TORSDO>
F 1

$$$$
=
 OpenBabel11052413403D

 27 31  0  0  1  0  0  0  0  0999 V2000
  186.6650  178.4660  142.1240 C   0  0  0  0  0  3  0  0  0  0  0  0
  186.4840  177.8540  144.5370 C   0  0  0  0  0  0  0  0  0  0  0  0
  188.6670  176.9350  143.8290 C   0  0  0  0  0  3  0  0  0  0  0  0
  188.2270  177.4660  148.3060 O   0  0  0  0  0  0  0  0  0  0  0  0
  189.8050  178.9150  148.7940 O   0  0  0  0  0  1  0  0  0  0  0  0
  185.6600  177.5140  145.6760 N   0  0  0  0  0  0  0  0  0  0  0  0
  189.7700  177.9460  146.7390 C   0  0  1  0  0  3  0  0  0  0  0  0
  190.3730  176.3130  140.8450 C   0  0  0  0  0  3  0  0  0  0  0  0
  190.7530  176.9230  146.2010 C   0  0  0  0  0  1  0  0  0  0  0  0
  190.6570  177.6770  140.3650 C   0  0  0  0  0  3  0  0  0  0  0  0
  188.4150  177.7530  146.1320 C   0  0  0  0  0  0  0  0  0  0  0  0
  185.9030  178.1470  143.3520 C   0  0  0  0  0  0  0  0  0  0  0  0
  189.5790  177.7260  148.1840 N   0  0  0  0  0  0  0  0  0  0  0  0
  187.5750  177.5030  147.0970 C   0  0  0  0  0  0  0  0  0  0  0  0
  187.8760  178.0260  141.7470 C   0  0  0  0  0  0  0  0  0  0  0  0
  187.9920  177.9420  144.6990 C   0  0  2  0  0  3  0  0  0  0  0  0
  189.4790  176.0070  141.7900 C   0  0  0  0  0  3  0  0  0  0  0  0
  186.1400  177.3440  146.8720 C   0  0  0  0  0  3  0  0  0  0  0  0
  189.7380  178.6280  140.1920 C   0  0  0  0  0  3  0  0  0  0  0  0
  188.2700  178.3900  140.3510 C   0  0  0  0  0  2  0  0  0  0  0  0
  188.6430  176.9900  142.4970 C   0  0  0  0  0  0  0  0  0  0  0  0
  181.7350  179.1270  142.7720 C   0  0  0  0  0  3  0  0  0  0  0  0
  184.4080  178.2150  143.1940 C   0  0  1  0  0  3  0  0  0  0  0  0
  183.7600  179.1200  144.2460 C   0  0  0  0  0  2  0  0  0  0  0  0
  182.3010  179.3780  143.9640 C   0  0  0  0  0  3  0  0  0  0  0  0
  182.4820  178.4680  141.6410 C   0  0  0  0  0  2  0  0  0  0  0  0
  183.9920  178.6280  141.7840 C   0  0  0  0  0  2  0  0  0  0  0  0
  1 12  1  0  0  0  0
  2 16  1  0  0  0  0
  2  6  1  0  0  0  0
  6 18  2  0  0  0  0
  7  9  1  6  0  0  0
  7 13  1  0  0  0  0
  8 17  2  0  0  0  0
 10  8  1  0  0  0  0
 11  7  1  0  0  0  0
 11 14  2  0  0  0  0
 12  2  2  0  0  0  0
 13  4  1  0  0  0  0
 13  5  1  0  0  0  0
 14  4  1  0  0  0  0
 15  1  2  0  0  0  0
 15 21  1  0  0  0  0
 16  3  1  6  0  0  0
 16 11  1  0  0  0  0
 17 21  1  0  0  0  0
 18 14  1  0  0  0  0
 19 20  1  0  0  0  0
 19 10  2  0  0  0  0
 20 15  1  0  0  0  0
 21  3  2  0  0  0  0
 22 25  2  0  0  0  0
 23 12  1  6  0  0  0
 23 24  1  0  0  0  0
 25 24  1  0  0  0  0
 26 27  1  0  0  0  0
 26 22  1  0  0  0  0
 27 23  1  0  0  0  0
M  END
>  <MODEL>
8

>  <REMARK>
 VINA RESULT:      -8.1      3.828      5.702
  Name = 
  1 active torsions:
  status: ('A' for Active; 'I' for Inactive)
    1  A    between atoms: C_9  and  C_15
                            x       y       z     vdW  Elec       q    Type
                         _______ _______ _______ _____ _____    ______ ____

>  <TORSDO>
F 1

$$$$
=
 OpenBabel11052413403D

 27 31  0  0  1  0  0  0  0  0999 V2000
  189.3980  178.1180  140.0670 C   0  0  0  0  0  3  0  0  0  0  0  0
  186.9330  178.2530  140.4370 C   0  0  1  0  0  3  0  0  0  0  0  0
  187.8020  177.1440  142.4680 C   0  0  0  0  0  3  0  0  0  0  0  0
  183.6940  178.9870  142.9580 O   0  0  0  0  0  0  0  0  0  0  0  0
  184.0090  180.4990  144.5210 O   0  0  0  0  0  1  0  0  0  0  0  0
  185.5930  178.2760  139.8930 N   0  0  0  0  0  0  0  0  0  0  0  0
  185.6310  178.9640  144.1040 C   0  0  1  0  0  3  0  0  0  0  0  0
  190.7720  175.6450  143.5340 C   0  0  0  0  0  3  0  0  0  0  0  0
  186.0480  177.8170  145.0070 C   0  0  0  0  0  1  0  0  0  0  0  0
  191.6800  176.8020  143.6330 C   0  0  0  0  0  3  0  0  0  0  0  0
  185.8420  178.6130  142.6650 C   0  0  0  0  0  0  0  0  0  0  0  0
  187.9950  178.1860  139.6020 C   0  0  0  0  0  0  0  0  0  0  0  0
  184.1800  179.1860  144.2370 N   0  0  0  0  0  0  0  0  0  0  0  0
  184.6870  178.6690  142.0640 C   0  0  0  0  0  0  0  0  0  0  0  0
  189.8850  177.5740  141.1930 C   0  0  0  0  0  0  0  0  0  0  0  0
  187.1390  178.3700  141.9380 C   0  0  0  0  0  0  0  0  0  0  0  0
  189.6060  175.6430  142.8800 C   0  0  0  0  0  3  0  0  0  0  0  0
  184.5350  178.4640  140.6250 C   0  0  0  0  0  3  0  0  0  0  0  0
  191.9170  177.6680  142.6470 C   0  0  0  0  0  3  0  0  0  0  0  0
  191.3780  177.5030  141.2620 C   0  0  0  0  0  2  0  0  0  0  0  0
  189.0530  176.8010  142.1590 C   0  0  0  0  0  0  0  0  0  0  0  0
  188.0260  177.6430  135.3160 C   0  0  0  0  0  3  0  0  0  0  0  0
  187.8340  178.2190  138.1060 C   0  0  1  0  0  3  0  0  0  0  0  0
  189.1670  178.4570  137.3910 C   0  0  0  0  0  2  0  0  0  0  0  0
  189.0630  178.2670  135.8990 C   0  0  0  0  0  3  0  0  0  0  0  0
  186.8240  177.1690  136.0910 C   0  0  0  0  0  2  0  0  0  0  0  0
  187.1400  176.9690  137.5700 C   0  0  0  0  0  2  0  0  0  0  0  0
  1 15  1  0  0  0  0
  2 12  1  6  0  0  0
  2 16  1  0  0  0  0
  4 13  1  0  0  0  0
  6  2  1  0  0  0  0
  6 18  2  0  0  0  0
  7 13  1  0  0  0  0
  7  9  1  1  0  0  0
  8 10  1  0  0  0  0
 11  7  1  0  0  0  0
 12  1  2  0  0  0  0
 13  5  1  0  0  0  0
 14 11  2  0  0  0  0
 14  4  1  0  0  0  0
 15 20  1  0  0  0  0
 15 21  2  0  0  0  0
 16  3  2  0  0  0  0
 16 11  1  0  0  0  0
 17  8  2  0  0  0  0
 18 14  1  0  0  0  0
 19 10  2  0  0  0  0
 20 19  1  0  0  0  0
 21  3  1  0  0  0  0
 21 17  1  0  0  0  0
 22 25  2  0  0  0  0
 22 26  1  0  0  0  0
 23 12  1  1  0  0  0
 24 23  1  0  0  0  0
 25 24  1  0  0  0  0
 26 27  1  0  0  0  0
 27 23  1  0  0  0  0
M  END
>  <MODEL>
9

>  <REMARK>
 VINA RESULT:      -8.0      2.952      5.838
  Name = 
  1 active torsions:
  status: ('A' for Active; 'I' for Inactive)
    1  A    between atoms: C_9  and  C_15
                            x       y       z     vdW  Elec       q    Type
                         _______ _______ _______ _____ _____    ______ ____

>  <TORSDO>
F 1

$$$$
