=
 OpenBabel11052413323D

 28 32  0  0  1  0  0  0  0  0999 V2000
  189.8930  176.8690  142.8580 N   0  0  0  0  0  0  0  0  0  0  0  0
  184.9890  178.3250  142.7510 S   0  0  0  0  0  0  0  0  0  0  0  0
  189.3670  178.0390  147.5530 C   0  0  0  0  0  2  0  0  0  0  0  0
  184.7300  178.4360  145.2360 C   0  0  0  0  0  0  0  0  0  0  0  0
  187.0680  177.7230  144.6220 C   0  0  1  0  0  3  0  0  0  0  0  0
  185.6870  178.1810  144.2710 C   0  0  0  0  0  0  0  0  0  0  0  0
  186.3610  177.8550  147.0450 C   0  0  0  0  0  2  0  0  0  0  0  0
  183.4740  178.7860  144.7320 C   0  0  0  0  0  3  0  0  0  0  0  0
  189.5280  176.9570  145.3090 C   0  0  2  0  0  3  0  0  0  0  0  0
  188.0090  178.1320  143.6520 O   0  0  0  0  0  0  0  0  0  0  0  0
  185.0550  178.3710  146.6270 N   0  0  0  0  0  2  0  0  0  0  0  0
  191.5850  175.9200  144.3940 C   0  0  0  0  0  2  0  0  0  0  0  0
  188.8010  177.7240  146.3850 C   0  0  0  0  0  0  0  0  0  0  0  0
  191.0140  176.7230  145.5570 C   0  0  0  0  0  2  0  0  0  0  0  0
  183.4650  178.7570  143.3400 C   0  0  0  0  0  0  0  0  0  0  0  0
  187.4430  178.2530  146.0250 C   0  0  1  0  0  3  0  0  0  0  0  0
  191.3300  176.6560  143.0790 C   0  0  0  0  0  2  0  0  0  0  0  0
  189.3360  177.6830  143.9520 C   0  0  2  0  0  3  0  0  0  0  0  0
  182.2950  179.1060  142.4890 C   0  0  0  0  0  2  0  0  0  0  0  0
  181.0240  179.0580  143.3120 C   0  0  0  0  0  1  0  0  0  0  0  0
  189.7010  177.5140  141.5460 C   0  0  0  0  0  2  0  0  0  0  0  0
  190.7650  177.1850  140.5330 C   0  0  0  0  0  0  0  0  0  0  0  0
  192.7420  176.5850  138.6420 C   0  0  0  0  0  0  0  0  0  0  0  0
  190.4480  176.4230  139.4010 C   0  0  0  0  0  3  0  0  0  0  0  0
  192.0740  177.6520  140.7100 C   0  0  0  0  0  3  0  0  0  0  0  0
  193.0610  177.3520  139.7670 C   0  0  0  0  0  3  0  0  0  0  0  0
  193.7230  176.2850  137.7070 O   0  0  0  0  0  1  0  0  0  0  0  0
  191.4360  176.1220  138.4590 C   0  0  0  0  0  3  0  0  0  0  0  0
  1 17  1  0  0  0  0
  1 18  1  0  0  0  0
  2 15  1  0  0  0  0
  2  6  1  0  0  0  0
  4 11  1  0  0  0  0
  5 10  1  6  0  0  0
  5 16  1  0  0  0  0
  6  5  1  0  0  0  0
  6  4  2  0  0  0  0
  8  4  1  0  0  0  0
  9 14  1  1  0  0  0
  9 13  1  0  0  0  0
 11  7  1  0  0  0  0
 12 14  1  0  0  0  0
 13  3  2  0  0  0  0
 15  8  2  0  0  0  0
 16 13  1  0  0  0  0
 16  7  1  1  0  0  0
 17 12  1  0  0  0  0
 18 10  1  6  0  0  0
 18  9  1  0  0  0  0
 19 20  1  0  0  0  0
 19 15  1  0  0  0  0
 21  1  1  0  0  0  0
 22 25  1  0  0  0  0
 22 21  1  0  0  0  0
 23 26  1  0  0  0  0
 24 22  2  0  0  0  0
 26 25  2  0  0  0  0
 27 23  1  0  0  0  0
 28 23  2  0  0  0  0
 28 24  1  0  0  0  0
M  END
>  <MODEL>
1

>  <REMARK>
 VINA RESULT:      -9.8      0.000      0.000
  Name = 
  3 active torsions:
  status: ('A' for Active; 'I' for Inactive)
    1  A    between atoms: N_1  and  C_2
    2  A    between atoms: C_2  and  C_3
    3  A    between atoms: C_12  and  C_24
                            x       y       z     vdW  Elec       q    Type
                         _______ _______ _______ _____ _____    ______ ____

>  <TORSDO>
F 3

$$$$
=
 OpenBabel11052413323D

 28 32  0  0  1  0  0  0  0  0999 V2000
  184.7330  178.4530  142.9330 N   0  0  0  0  0  0  0  0  0  0  0  0
  189.2310  177.4830  140.6960 S   0  0  0  0  0  0  0  0  0  0  0  0
  187.3860  177.6340  146.9310 C   0  0  0  0  0  2  0  0  0  0  0  0
  190.5590  177.5530  142.8140 C   0  0  0  0  0  0  0  0  0  0  0  0
  188.1230  177.9920  143.2840 C   0  0  1  0  0  3  0  0  0  0  0  0
  189.2540  177.6510  142.3670 C   0  0  0  0  0  0  0  0  0  0  0  0
  189.8250  178.0810  145.1490 C   0  0  0  0  0  2  0  0  0  0  0  0
  191.5000  177.2970  141.8130 C   0  0  0  0  0  3  0  0  0  0  0  0
  186.1380  178.5530  144.9740 C   0  0  2  0  0  3  0  0  0  0  0  0
  186.9070  177.4330  142.8320 O   0  0  0  0  0  0  0  0  0  0  0  0
  190.8690  177.6710  144.2050 N   0  0  0  0  0  2  0  0  0  0  0  0
  183.7830  179.3240  145.0450 C   0  0  0  0  0  2  0  0  0  0  0  0
  187.3440  177.9290  145.6290 C   0  0  0  0  0  0  0  0  0  0  0  0
  184.8920  178.6550  145.8480 C   0  0  0  0  0  2  0  0  0  0  0  0
  190.8980  177.2400  140.5590 C   0  0  0  0  0  0  0  0  0  0  0  0
  188.4610  177.5150  144.7140 C   0  0  1  0  0  3  0  0  0  0  0  0
  183.5220  178.5370  143.7610 C   0  0  0  0  0  2  0  0  0  0  0  0
  185.8010  177.7680  143.6800 C   0  0  2  0  0  3  0  0  0  0  0  0
  191.6110  176.9570  139.2840 C   0  0  0  0  0  2  0  0  0  0  0  0
  190.7250  176.1390  138.3660 C   0  0  0  0  0  1  0  0  0  0  0  0
  184.4060  177.7500  141.6790 C   0  0  0  0  0  2  0  0  0  0  0  0
  183.6110  178.5700  140.6980 C   0  0  0  0  0  0  0  0  0  0  0  0
  182.1320  180.0860  138.8660 C   0  0  0  0  0  0  0  0  0  0  0  0
  184.2680  179.3620  139.7480 C   0  0  0  0  0  3  0  0  0  0  0  0
  182.2120  178.5340  140.7230 C   0  0  0  0  0  3  0  0  0  0  0  0
  181.4730  179.2920  139.8100 C   0  0  0  0  0  3  0  0  0  0  0  0
  181.3980  180.8390  137.9600 O   0  0  0  0  0  1  0  0  0  0  0  0
  183.5290  180.1200  138.8340 C   0  0  0  0  0  3  0  0  0  0  0  0
  1 18  1  0  0  0  0
  1 17  1  0  0  0  0
  2  6  1  0  0  0  0
  4 11  1  0  0  0  0
  5  6  1  6  0  0  0
  5 16  1  0  0  0  0
  6  4  2  0  0  0  0
  8  4  1  0  0  0  0
  9 13  1  0  0  0  0
  9 14  1  1  0  0  0
 10  5  1  0  0  0  0
 11  7  1  0  0  0  0
 12 14  1  0  0  0  0
 13  3  2  0  0  0  0
 15  2  1  0  0  0  0
 15  8  2  0  0  0  0
 16  7  1  1  0  0  0
 16 13  1  0  0  0  0
 17 12  1  0  0  0  0
 18 10  1  6  0  0  0
 18  9  1  0  0  0  0
 19 15  1  0  0  0  0
 20 19  1  0  0  0  0
 21  1  1  0  0  0  0
 22 25  1  0  0  0  0
 22 21  1  0  0  0  0
 23 26  1  0  0  0  0
 24 22  2  0  0  0  0
 26 25  2  0  0  0  0
 27 23  1  0  0  0  0
 28 23  2  0  0  0  0
 28 24  1  0  0  0  0
M  END
>  <MODEL>
2

>  <REMARK>
 VINA RESULT:      -9.6      2.694      7.311
  Name = 
  3 active torsions:
  status: ('A' for Active; 'I' for Inactive)
    1  A    between atoms: N_1  and  C_2
    2  A    between atoms: C_2  and  C_3
    3  A    between atoms: C_12  and  C_24
                            x       y       z     vdW  Elec       q    Type
                         _______ _______ _______ _____ _____    ______ ____

>  <TORSDO>
F 3

$$$$
=
 OpenBabel11052413323D

 28 32  0  0  1  0  0  0  0  0999 V2000
  188.4730  177.5200  138.8210 N   0  0  0  0  0  0  0  0  0  0  0  0
  185.2790  178.4550  142.7070 S   0  0  0  0  0  0  0  0  0  0  0  0
  191.6810  177.3270  142.4770 C   0  0  0  0  0  2  0  0  0  0  0  0
  186.9210  177.8670  144.4990 C   0  0  0  0  0  0  0  0  0  0  0  0
  187.9600  177.5830  142.2210 C   0  0  1  0  0  3  0  0  0  0  0  0
  186.8340  177.9780  143.1240 C   0  0  0  0  0  0  0  0  0  0  0  0
  189.2580  176.9870  144.3060 C   0  0  0  0  0  2  0  0  0  0  0  0
  185.7550  178.2140  145.1870 C   0  0  0  0  0  3  0  0  0  0  0  0
  190.0160  176.9100  140.6630 C   0  0  2  0  0  3  0  0  0  0  0  0
  187.9450  178.3290  141.0220 O   0  0  0  0  0  0  0  0  0  0  0  0
  188.1420  177.4640  145.1270 N   0  0  0  0  0  2  0  0  0  0  0  0
  190.6030  176.3660  138.3170 C   0  0  0  0  0  2  0  0  0  0  0  0
  190.4090  177.2830  142.0700 C   0  0  0  0  0  0  0  0  0  0  0  0
  191.1690  176.7660  139.6740 C   0  0  0  0  0  2  0  0  0  0  0  0
  184.7350  178.5590  144.3040 C   0  0  0  0  0  0  0  0  0  0  0  0
  189.3010  177.7510  142.9700 C   0  0  1  0  0  3  0  0  0  0  0  0
  189.5740  177.3990  137.8570 C   0  0  0  0  0  2  0  0  0  0  0  0
  188.9990  177.9490  140.1280 C   0  0  2  0  0  3  0  0  0  0  0  0
  183.3740  179.0050  144.7090 C   0  0  0  0  0  2  0  0  0  0  0  0
  182.4500  179.0030  143.5070 C   0  0  0  0  0  1  0  0  0  0  0  0
  187.4770  178.4700  138.2940 C   0  0  0  0  0  2  0  0  0  0  0  0
  186.1110  177.8780  138.0740 C   0  0  0  0  0  0  0  0  0  0  0  0
  183.5700  176.7680  137.6760 C   0  0  0  0  0  0  0  0  0  0  0  0
  185.9490  176.7810  137.2180 C   0  0  0  0  0  3  0  0  0  0  0  0
  184.9980  178.4120  138.7360 C   0  0  0  0  0  3  0  0  0  0  0  0
  183.7300  177.8590  138.5360 C   0  0  0  0  0  3  0  0  0  0  0  0
  182.3110  176.2200  137.4770 O   0  0  0  0  0  1  0  0  0  0  0  0
  184.6800  176.2280  137.0190 C   0  0  0  0  0  3  0  0  0  0  0  0
  1 18  1  0  0  0  0
  2  6  1  0  0  0  0
  2 15  1  0  0  0  0
  4 11  1  0  0  0  0
  4  8  1  0  0  0  0
  5 10  1  6  0  0  0
  5 16  1  0  0  0  0
  5  6  1  0  0  0  0
  6  4  2  0  0  0  0
  7 11  1  0  0  0  0
  9 14  1  6  0  0  0
  9 13  1  0  0  0  0
 12 14  1  0  0  0  0
 13  3  2  0  0  0  0
 13 16  1  0  0  0  0
 15 19  1  0  0  0  0
 15  8  2  0  0  0  0
 16  7  1  1  0  0  0
 17 12  1  0  0  0  0
 17  1  1  0  0  0  0
 18  9  1  0  0  0  0
 18 10  1  1  0  0  0
 20 19  1  0  0  0  0
 21  1  1  0  0  0  0
 22 21  1  0  0  0  0
 22 25  1  0  0  0  0
 23 26  1  0  0  0  0
 24 22  2  0  0  0  0
 26 25  2  0  0  0  0
 27 23  1  0  0  0  0
 28 24  1  0  0  0  0
 28 23  2  0  0  0  0
M  END
>  <MODEL>
3

>  <REMARK>
 VINA RESULT:      -9.5      3.285      5.241
  Name = 
  3 active torsions:
  status: ('A' for Active; 'I' for Inactive)
    1  A    between atoms: N_1  and  C_2
    2  A    between atoms: C_2  and  C_3
    3  A    between atoms: C_12  and  C_24
                            x       y       z     vdW  Elec       q    Type
                         _______ _______ _______ _____ _____    ______ ____

>  <TORSDO>
F 3

$$$$
=
 OpenBabel11052413323D

 28 32  0  0  1  0  0  0  0  0999 V2000
  190.6980  177.3610  144.4290 N   0  0  0  0  0  0  0  0  0  0  0  0
  186.5550  178.6580  141.7230 S   0  0  0  0  0  0  0  0  0  0  0  0
  187.5560  177.9100  148.1060 C   0  0  0  0  0  2  0  0  0  0  0  0
  184.9570  178.4450  143.6350 C   0  0  0  0  0  0  0  0  0  0  0  0
  187.3010  177.8920  144.3760 C   0  0  1  0  0  3  0  0  0  0  0  0
  186.3070  178.3460  143.3540 C   0  0  0  0  0  0  0  0  0  0  0  0
  185.3660  177.6930  145.9890 C   0  0  0  0  0  2  0  0  0  0  0  0
  184.1610  178.8150  142.5480 C   0  0  0  0  0  3  0  0  0  0  0  0
  189.0340  177.1270  146.2520 C   0  0  2  0  0  3  0  0  0  0  0  0
  188.5760  178.4510  144.1380 O   0  0  0  0  0  0  0  0  0  0  0  0
  184.4640  178.2150  144.9580 N   0  0  0  0  0  2  0  0  0  0  0  0
  191.3440  176.2810  146.5590 C   0  0  0  0  0  2  0  0  0  0  0  0
  187.7640  177.7270  146.7990 C   0  0  0  0  0  0  0  0  0  0  0  0
  190.1510  176.9110  147.2680 C   0  0  0  0  0  2  0  0  0  0  0  0
  184.9250  178.9620  141.3930 C   0  0  0  0  0  0  0  0  0  0  0  0
  186.7860  178.2530  145.7880 C   0  0  1  0  0  3  0  0  0  0  0  0
  191.7870  177.1690  145.3960 C   0  0  0  0  0  2  0  0  0  0  0  0
  189.5530  178.0110  145.0900 C   0  0  2  0  0  3  0  0  0  0  0  0
  184.3910  179.3770  140.0670 C   0  0  0  0  0  2  0  0  0  0  0  0
  183.4240  178.3320  139.5480 C   0  0  0  0  0  1  0  0  0  0  0  0
  191.2010  178.1600  143.2960 C   0  0  0  0  0  2  0  0  0  0  0  0
  190.9760  177.5310  141.9470 C   0  0  0  0  0  0  0  0  0  0  0  0
  190.5540  176.3730  139.4320 C   0  0  0  0  0  0  0  0  0  0  0  0
  189.7270  176.9850  141.6240 C   0  0  0  0  0  3  0  0  0  0  0  0
  192.0100  177.5030  141.0030 C   0  0  0  0  0  3  0  0  0  0  0  0
  191.8000  176.9240  139.7480 C   0  0  0  0  0  3  0  0  0  0  0  0
  190.3470  175.7970  138.1860 O   0  0  0  0  0  1  0  0  0  0  0  0
  189.5180  176.4050  140.3690 C   0  0  0  0  0  3  0  0  0  0  0  0
  1 18  1  0  0  0  0
  1 17  1  0  0  0  0
  2  6  1  0  0  0  0
  4 11  1  0  0  0  0
  5  6  1  6  0  0  0
  5 16  1  0  0  0  0
  6  4  2  0  0  0  0
  8  4  1  0  0  0  0
  9 13  1  0  0  0  0
  9 14  1  1  0  0  0
 10  5  1  0  0  0  0
 11  7  1  0  0  0  0
 12 14  1  0  0  0  0
 13  3  2  0  0  0  0
 15  2  1  0  0  0  0
 15  8  2  0  0  0  0
 16  7  1  1  0  0  0
 16 13  1  0  0  0  0
 17 12  1  0  0  0  0
 18 10  1  6  0  0  0
 18  9  1  0  0  0  0
 19 15  1  0  0  0  0
 20 19  1  0  0  0  0
 21  1  1  0  0  0  0
 22 21  1  0  0  0  0
 23 26  2  0  0  0  0
 23 28  1  0  0  0  0
 24 22  1  0  0  0  0
 25 22  2  0  0  0  0
 26 25  1  0  0  0  0
 27 23  1  0  0  0  0
 28 24  2  0  0  0  0
M  END
>  <MODEL>
4

>  <REMARK>
 VINA RESULT:      -9.4      1.605      2.084
  Name = 
  3 active torsions:
  status: ('A' for Active; 'I' for Inactive)
    1  A    between atoms: N_1  and  C_2
    2  A    between atoms: C_2  and  C_3
    3  A    between atoms: C_12  and  C_24
                            x       y       z     vdW  Elec       q    Type
                         _______ _______ _______ _____ _____    ______ ____

>  <TORSDO>
F 3

$$$$
=
 OpenBabel11052413323D

 28 32  0  0  1  0  0  0  0  0999 V2000
  189.4990  177.1830  142.2210 N   0  0  0  0  0  0  0  0  0  0  0  0
  184.5750  178.5360  142.5260 S   0  0  0  0  0  0  0  0  0  0  0  0
  189.2190  177.8720  147.0320 C   0  0  0  0  0  2  0  0  0  0  0  0
  184.4530  178.3950  145.0200 C   0  0  0  0  0  0  0  0  0  0  0  0
  186.7640  177.7970  144.2130 C   0  0  1  0  0  3  0  0  0  0  0  0
  185.3590  178.2580  143.9850 C   0  0  0  0  0  0  0  0  0  0  0  0
  186.1930  177.6740  146.6720 C   0  0  0  0  0  2  0  0  0  0  0  0
  183.1660  178.7660  144.6230 C   0  0  0  0  0  3  0  0  0  0  0  0
  189.2710  177.0210  144.6850 C   0  0  2  0  0  3  0  0  0  0  0  0
  187.6430  178.3200  143.2380 O   0  0  0  0  0  0  0  0  0  0  0  0
  184.8570  178.2010  146.3790 N   0  0  0  0  0  2  0  0  0  0  0  0
  191.2900  176.1240  143.5610 C   0  0  0  0  0  2  0  0  0  0  0  0
  188.5940  177.6620  145.8700 C   0  0  0  0  0  0  0  0  0  0  0  0
  190.7730  176.7950  144.8270 C   0  0  0  0  0  2  0  0  0  0  0  0
  183.0790  178.8740  143.2370 C   0  0  0  0  0  0  0  0  0  0  0  0
  187.2090  178.1950  145.6390 C   0  0  1  0  0  3  0  0  0  0  0  0
  190.9490  176.9790  142.3410 C   0  0  0  0  0  2  0  0  0  0  0  0
  188.9920  177.8720  143.4200 C   0  0  2  0  0  3  0  0  0  0  0  0
  181.8570  179.2800  142.4900 C   0  0  0  0  0  2  0  0  0  0  0  0
  181.7800  178.5260  141.1780 C   0  0  0  0  0  1  0  0  0  0  0  0
  189.2240  177.9490  140.9920 C   0  0  0  0  0  2  0  0  0  0  0  0
  189.4010  177.1640  139.7200 C   0  0  0  0  0  0  0  0  0  0  0  0
  189.7240  175.6920  137.3590 C   0  0  0  0  0  0  0  0  0  0  0  0
  190.6240  176.5420  139.4410 C   0  0  0  0  0  3  0  0  0  0  0  0
  188.3370  177.0400  138.8170 C   0  0  0  0  0  3  0  0  0  0  0  0
  188.4990  176.3070  137.6380 C   0  0  0  0  0  3  0  0  0  0  0  0
  189.8850  174.9660  136.1880 O   0  0  0  0  0  1  0  0  0  0  0  0
  190.7860  175.8090  138.2610 C   0  0  0  0  0  3  0  0  0  0  0  0
  1 17  1  0  0  0  0
  1 18  1  0  0  0  0
  2 15  1  0  0  0  0
  2  6  1  0  0  0  0
  4 11  1  0  0  0  0
  5 10  1  6  0  0  0
  5 16  1  0  0  0  0
  6  5  1  0  0  0  0
  6  4  2  0  0  0  0
  8  4  1  0  0  0  0
  9 14  1  1  0  0  0
  9 13  1  0  0  0  0
 11  7  1  0  0  0  0
 12 14  1  0  0  0  0
 13  3  2  0  0  0  0
 15  8  2  0  0  0  0
 16 13  1  0  0  0  0
 16  7  1  1  0  0  0
 17 12  1  0  0  0  0
 18 10  1  6  0  0  0
 18  9  1  0  0  0  0
 19 15  1  0  0  0  0
 20 19  1  0  0  0  0
 21  1  1  0  0  0  0
 22 21  1  0  0  0  0
 23 26  2  0  0  0  0
 23 28  1  0  0  0  0
 24 22  1  0  0  0  0
 25 22  2  0  0  0  0
 26 25  1  0  0  0  0
 27 23  1  0  0  0  0
 28 24  2  0  0  0  0
M  END
>  <MODEL>
5

>  <REMARK>
 VINA RESULT:      -9.3      1.295      1.799
  Name = 
  3 active torsions:
  status: ('A' for Active; 'I' for Inactive)
    1  A    between atoms: N_1  and  C_2
    2  A    between atoms: C_2  and  C_3
    3  A    between atoms: C_12  and  C_24
                            x       y       z     vdW  Elec       q    Type
                         _______ _______ _______ _____ _____    ______ ____

>  <TORSDO>
F 3

$$$$
=
 OpenBabel11052413323D

 28 32  0  0  1  0  0  0  0  0999 V2000
  189.1110  177.0560  141.9630 N   0  0  0  0  0  0  0  0  0  0  0  0
  184.2540  178.5590  142.5420 S   0  0  0  0  0  0  0  0  0  0  0  0
  189.1720  177.9220  146.7530 C   0  0  0  0  0  2  0  0  0  0  0  0
  184.2970  178.5090  145.0430 C   0  0  0  0  0  0  0  0  0  0  0  0
  186.5320  177.8180  144.1070 C   0  0  1  0  0  3  0  0  0  0  0  0
  185.1270  178.3100  143.9550 C   0  0  0  0  0  0  0  0  0  0  0  0
  186.1240  177.7980  146.6010 C   0  0  0  0  0  2  0  0  0  0  0  0
  182.9960  178.9030  144.7180 C   0  0  0  0  0  3  0  0  0  0  0  0
  189.0440  176.9880  144.4410 C   0  0  2  0  0  3  0  0  0  0  0  0
  187.3570  178.2810  143.0580 O   0  0  0  0  0  0  0  0  0  0  0  0
  184.7850  178.3520  146.3780 N   0  0  0  0  0  2  0  0  0  0  0  0
  190.9590  175.9950  143.2200 C   0  0  0  0  0  2  0  0  0  0  0  0
  188.4650  177.6900  145.6430 C   0  0  0  0  0  0  0  0  0  0  0  0
  190.5450  176.7250  144.4920 C   0  0  0  0  0  2  0  0  0  0  0  0
  182.8190  178.9650  143.3380 C   0  0  0  0  0  0  0  0  0  0  0  0
  187.0820  178.2530  145.4850 C   0  0  1  0  0  3  0  0  0  0  0  0
  190.5600  176.8160  141.9950 C   0  0  0  0  0  2  0  0  0  0  0  0
  188.7030  177.8020  143.1660 C   0  0  2  0  0  3  0  0  0  0  0  0
  181.5610  179.3780  142.6590 C   0  0  0  0  0  2  0  0  0  0  0  0
  180.3630  178.9290  143.4710 C   0  0  0  0  0  1  0  0  0  0  0  0
  188.7730  177.7870  140.7280 C   0  0  0  0  0  2  0  0  0  0  0  0
  189.2730  177.1340  139.4660 C   0  0  0  0  0  0  0  0  0  0  0  0
  190.2050  175.9320  137.1150 C   0  0  0  0  0  0  0  0  0  0  0  0
  188.3700  176.7530  138.4660 C   0  0  0  0  0  3  0  0  0  0  0  0
  190.6450  176.9190  139.2820 C   0  0  0  0  0  3  0  0  0  0  0  0
  191.1090  176.3170  138.1090 C   0  0  0  0  0  3  0  0  0  0  0  0
  190.6660  175.3340  135.9510 O   0  0  0  0  0  1  0  0  0  0  0  0
  188.8360  176.1510  137.2930 C   0  0  0  0  0  3  0  0  0  0  0  0
  1 17  1  0  0  0  0
  1 18  1  0  0  0  0
  2 15  1  0  0  0  0
  2  6  1  0  0  0  0
  4 11  1  0  0  0  0
  5 10  1  6  0  0  0
  5 16  1  0  0  0  0
  6  5  1  0  0  0  0
  6  4  2  0  0  0  0
  8  4  1  0  0  0  0
  9 14  1  1  0  0  0
  9 13  1  0  0  0  0
 11  7  1  0  0  0  0
 12 14  1  0  0  0  0
 13  3  2  0  0  0  0
 15  8  2  0  0  0  0
 16 13  1  0  0  0  0
 16  7  1  1  0  0  0
 17 12  1  0  0  0  0
 18 10  1  6  0  0  0
 18  9  1  0  0  0  0
 19 15  1  0  0  0  0
 19 20  1  0  0  0  0
 21  1  1  0  0  0  0
 22 21  1  0  0  0  0
 23 28  2  0  0  0  0
 23 26  1  0  0  0  0
 24 22  2  0  0  0  0
 25 22  1  0  0  0  0
 26 25  2  0  0  0  0
 27 23  1  0  0  0  0
 28 24  1  0  0  0  0
M  END
>  <MODEL>
6

>  <REMARK>
 VINA RESULT:      -9.3      1.283      1.561
  Name = 
  3 active torsions:
  status: ('A' for Active; 'I' for Inactive)
    1  A    between atoms: N_1  and  C_2
    2  A    between atoms: C_2  and  C_3
    3  A    between atoms: C_12  and  C_24
                            x       y       z     vdW  Elec       q    Type
                         _______ _______ _______ _____ _____    ______ ____

>  <TORSDO>
F 3

$$$$
=
 OpenBabel11052413323D

 28 32  0  0  1  0  0  0  0  0999 V2000
  188.8610  177.5040  140.7120 N   0  0  0  0  0  0  0  0  0  0  0  0
  184.1700  178.6810  142.3810 S   0  0  0  0  0  0  0  0  0  0  0  0
  189.8140  177.7570  145.4790 C   0  0  0  0  0  2  0  0  0  0  0  0
  184.6900  178.3170  144.8000 C   0  0  0  0  0  0  0  0  0  0  0  0
  186.7220  177.8600  143.3810 C   0  0  1  0  0  3  0  0  0  0  0  0
  185.3020  178.2980  143.5600 C   0  0  0  0  0  0  0  0  0  0  0  0
  186.7980  177.5030  145.8820 C   0  0  0  0  0  2  0  0  0  0  0  0
  183.3420  178.6840  144.7790 C   0  0  0  0  0  3  0  0  0  0  0  0
  189.2700  177.1190  143.1270 C   0  0  2  0  0  3  0  0  0  0  0  0
  187.3190  178.4920  142.2680 O   0  0  0  0  0  0  0  0  0  0  0  0
  185.4280  178.0150  145.9880 N   0  0  0  0  0  2  0  0  0  0  0  0
  190.9400  176.3830  141.4490 C   0  0  0  0  0  2  0  0  0  0  0  0
  188.9140  177.6330  144.4990 C   0  0  0  0  0  0  0  0  0  0  0  0
  190.7600  176.9250  142.8620 C   0  0  0  0  0  2  0  0  0  0  0  0
  182.9040  178.9120  143.4770 C   0  0  0  0  0  0  0  0  0  0  0  0
  187.5130  178.1430  144.6780 C   0  0  1  0  0  3  0  0  0  0  0  0
  190.2950  177.3330  140.4410 C   0  0  0  0  0  2  0  0  0  0  0  0
  188.6720  178.0700  142.0590 C   0  0  2  0  0  3  0  0  0  0  0  0
  181.5300  179.3460  143.1050 C   0  0  0  0  0  2  0  0  0  0  0  0
  180.5100  178.6310  143.9680 C   0  0  0  0  0  1  0  0  0  0  0  0
  188.2760  178.3680  139.6700 C   0  0  0  0  0  2  0  0  0  0  0  0
  187.5680  177.6200  138.5720 C   0  0  0  0  0  0  0  0  0  0  0  0
  186.2570  176.2380  136.5190 C   0  0  0  0  0  0  0  0  0  0  0  0
  186.2970  178.0290  138.1490 C   0  0  0  0  0  3  0  0  0  0  0  0
  188.1830  176.5220  137.9590 C   0  0  0  0  0  3  0  0  0  0  0  0
  187.5280  175.8310  136.9350 C   0  0  0  0  0  3  0  0  0  0  0  0
  185.6050  175.5500  135.5050 O   0  0  0  0  0  1  0  0  0  0  0  0
  185.6420  177.3370  137.1250 C   0  0  0  0  0  3  0  0  0  0  0  0
  1 18  1  0  0  0  0
  2 15  1  0  0  0  0
  2  6  1  0  0  0  0
  4 11  1  0  0  0  0
  5 10  1  6  0  0  0
  5  6  1  0  0  0  0
  5 16  1  0  0  0  0
  6  4  2  0  0  0  0
  7 11  1  0  0  0  0
  8  4  1  0  0  0  0
  9 14  1  1  0  0  0
  9 13  1  0  0  0  0
 12 14  1  0  0  0  0
 13 16  1  0  0  0  0
 13  3  2  0  0  0  0
 15  8  2  0  0  0  0
 16  7  1  1  0  0  0
 17  1  1  0  0  0  0
 17 12  1  0  0  0  0
 18 10  1  1  0  0  0
 18  9  1  0  0  0  0
 19 15  1  0  0  0  0
 19 20  1  0  0  0  0
 21  1  1  0  0  0  0
 22 21  1  0  0  0  0
 23 26  2  0  0  0  0
 23 28  1  0  0  0  0
 24 22  1  0  0  0  0
 25 22  2  0  0  0  0
 26 25  1  0  0  0  0
 27 23  1  0  0  0  0
 28 24  2  0  0  0  0
M  END
>  <MODEL>
7

>  <REMARK>
 VINA RESULT:      -9.2      2.728      3.394
  Name = 
  3 active torsions:
  status: ('A' for Active; 'I' for Inactive)
    1  A    between atoms: N_1  and  C_2
    2  A    between atoms: C_2  and  C_3
    3  A    between atoms: C_12  and  C_24
                            x       y       z     vdW  Elec       q    Type
                         _______ _______ _______ _____ _____    ______ ____

>  <TORSDO>
F 3

$$$$
=
 OpenBabel11052413323D

 28 32  0  0  1  0  0  0  0  0999 V2000
  187.2410  178.3530  141.3390 N   0  0  0  0  0  0  0  0  0  0  0  0
  189.9930  177.3380  145.5310 S   0  0  0  0  0  0  0  0  0  0  0  0
  183.6290  178.3130  144.6020 C   0  0  0  0  0  2  0  0  0  0  0  0
  188.1380  177.8080  147.1410 C   0  0  0  0  0  0  0  0  0  0  0  0
  187.3610  178.1620  144.7710 C   0  0  1  0  0  3  0  0  0  0  0  0
  188.3860  177.7570  145.7820 C   0  0  0  0  0  0  0  0  0  0  0  0
  185.8130  178.6370  146.7120 C   0  0  0  0  0  2  0  0  0  0  0  0
  189.2270  177.4630  147.9460 C   0  0  0  0  0  3  0  0  0  0  0  0
  185.4780  178.8470  143.0110 C   0  0  2  0  0  3  0  0  0  0  0  0
  187.5350  177.4670  143.5530 O   0  0  0  0  0  0  0  0  0  0  0  0
  186.8410  178.1540  147.6380 N   0  0  0  0  0  2  0  0  0  0  0  0
  185.1500  179.4730  140.6350 C   0  0  0  0  0  2  0  0  0  0  0  0
  184.9370  178.4060  144.3480 C   0  0  0  0  0  0  0  0  0  0  0  0
  184.4430  179.0030  141.9010 C   0  0  0  0  0  2  0  0  0  0  0  0
  190.3510  177.1810  147.1750 C   0  0  0  0  0  0  0  0  0  0  0  0
  185.9470  177.9280  145.3510 C   0  0  1  0  0  3  0  0  0  0  0  0
  186.2550  178.4870  140.2580 C   0  0  0  0  0  2  0  0  0  0  0  0
  186.5810  177.8560  142.5580 C   0  0  2  0  0  3  0  0  0  0  0  0
  191.6700  176.7530  147.7180 C   0  0  0  0  0  2  0  0  0  0  0  0
  192.1830  175.5550  146.9450 C   0  0  0  0  0  1  0  0  0  0  0  0
  188.3190  177.4510  140.8950 C   0  0  0  0  0  2  0  0  0  0  0  0
  188.6170  177.5210  139.4210 C   0  0  0  0  0  0  0  0  0  0  0  0
  189.1590  177.6560  136.6760 C   0  0  0  0  0  0  0  0  0  0  0  0
  188.4440  176.3900  138.6130 C   0  0  0  0  0  3  0  0  0  0  0  0
  189.0550  178.7220  138.8480 C   0  0  0  0  0  3  0  0  0  0  0  0
  189.3280  178.7890  137.4790 C   0  0  0  0  0  3  0  0  0  0  0  0
  189.4320  177.7220  135.3170 O   0  0  0  0  0  1  0  0  0  0  0  0
  188.7170  176.4570  137.2430 C   0  0  0  0  0  3  0  0  0  0  0  0
  1 18  1  0  0  0  0
  2  6  1  0  0  0  0
  2 15  1  0  0  0  0
  4 11  1  0  0  0  0
  4  8  1  0  0  0  0
  5 10  1  6  0  0  0
  5 16  1  0  0  0  0
  5  6  1  0  0  0  0
  6  4  2  0  0  0  0
  7 11  1  0  0  0  0
  9 14  1  6  0  0  0
  9 13  1  0  0  0  0
 12 14  1  0  0  0  0
 13  3  2  0  0  0  0
 13 16  1  0  0  0  0
 15 19  1  0  0  0  0
 15  8  2  0  0  0  0
 16  7  1  1  0  0  0
 17 12  1  0  0  0  0
 17  1  1  0  0  0  0
 18  9  1  0  0  0  0
 18 10  1  1  0  0  0
 20 19  1  0  0  0  0
 21  1  1  0  0  0  0
 22 21  1  0  0  0  0
 23 28  2  0  0  0  0
 23 26  1  0  0  0  0
 24 22  2  0  0  0  0
 25 22  1  0  0  0  0
 26 25  2  0  0  0  0
 27 23  1  0  0  0  0
 28 24  1  0  0  0  0
M  END
>  <MODEL>
8

>  <REMARK>
 VINA RESULT:      -9.2      2.677      5.426
  Name = 
  3 active torsions:
  status: ('A' for Active; 'I' for Inactive)
    1  A    between atoms: N_1  and  C_2
    2  A    between atoms: C_2  and  C_3
    3  A    between atoms: C_12  and  C_24
                            x       y       z     vdW  Elec       q    Type
                         _______ _______ _______ _____ _____    ______ ____

>  <TORSDO>
F 3

$$$$
=
 OpenBabel11052413323D

 28 32  0  0  1  0  0  0  0  0999 V2000
  185.6460  178.3410  144.0210 N   0  0  0  0  0  0  0  0  0  0  0  0
  189.1220  177.5530  140.3500 S   0  0  0  0  0  0  0  0  0  0  0  0
  189.3880  176.9890  146.8250 C   0  0  0  0  0  2  0  0  0  0  0  0
  191.0610  177.3390  141.9150 C   0  0  0  0  0  0  0  0  0  0  0  0
  188.9350  177.7700  143.1970 C   0  0  1  0  0  3  0  0  0  0  0  0
  189.6900  177.5180  141.9300 C   0  0  0  0  0  0  0  0  0  0  0  0
  191.1490  177.5970  144.4050 C   0  0  0  0  0  2  0  0  0  0  0  0
  191.6150  177.1860  140.6410 C   0  0  0  0  0  3  0  0  0  0  0  0
  187.6340  178.1640  145.4910 C   0  0  2  0  0  3  0  0  0  0  0  0
  187.6080  177.2950  143.1080 O   0  0  0  0  0  0  0  0  0  0  0  0
  191.8070  177.2810  143.1340 N   0  0  0  0  0  2  0  0  0  0  0  0
  185.4770  178.9710  146.4080 C   0  0  0  0  0  2  0  0  0  0  0  0
  188.9480  177.4410  145.6470 C   0  0  0  0  0  0  0  0  0  0  0  0
  186.7440  178.1860  146.7290 C   0  0  0  0  0  2  0  0  0  0  0  0
  190.6400  177.2940  139.6530 C   0  0  0  0  0  0  0  0  0  0  0  0
  189.6860  177.1170  144.3800 C   0  0  1  0  0  3  0  0  0  0  0  0
  184.7720  178.3500  145.2020 C   0  0  0  0  0  2  0  0  0  0  0  0
  186.8550  177.5480  144.3010 C   0  0  2  0  0  3  0  0  0  0  0  0
  190.8880  177.1510  138.1920 C   0  0  0  0  0  2  0  0  0  0  0  0
  192.1940  176.4190  137.9590 C   0  0  0  0  0  1  0  0  0  0  0  0
  184.8930  177.8020  142.8730 C   0  0  0  0  0  2  0  0  0  0  0  0
  183.5200  178.3940  142.7000 C   0  0  0  0  0  0  0  0  0  0  0  0
  180.9600  179.4840  142.3800 C   0  0  0  0  0  0  0  0  0  0  0  0
  182.9580  178.5080  141.4220 C   0  0  0  0  0  3  0  0  0  0  0  0
  182.7920  178.8210  143.8180 C   0  0  0  0  0  3  0  0  0  0  0  0
  181.5150  179.3660  143.6580 C   0  0  0  0  0  3  0  0  0  0  0  0
  179.6920  180.0270  142.2220 O   0  0  0  0  0  1  0  0  0  0  0  0
  181.6810  179.0540  141.2630 C   0  0  0  0  0  3  0  0  0  0  0  0
  1 18  1  0  0  0  0
  1 17  1  0  0  0  0
  2  6  1  0  0  0  0
  4  6  2  0  0  0  0
  4 11  1  0  0  0  0
  5  6  1  6  0  0  0
  5 16  1  0  0  0  0
  8  4  1  0  0  0  0
  9 13  1  0  0  0  0
  9 14  1  1  0  0  0
 10  5  1  0  0  0  0
 11  7  1  0  0  0  0
 12 14  1  0  0  0  0
 13  3  2  0  0  0  0
 15  2  1  0  0  0  0
 15  8  2  0  0  0  0
 16  7  1  1  0  0  0
 16 13  1  0  0  0  0
 17 12  1  0  0  0  0
 18 10  1  6  0  0  0
 18  9  1  0  0  0  0
 19 15  1  0  0  0  0
 20 19  1  0  0  0  0
 21  1  1  0  0  0  0
 22 21  1  0  0  0  0
 22 25  1  0  0  0  0
 23 26  1  0  0  0  0
 24 22  2  0  0  0  0
 26 25  2  0  0  0  0
 27 23  1  0  0  0  0
 28 24  1  0  0  0  0
 28 23  2  0  0  0  0
M  END
>  <MODEL>
9

>  <REMARK>
 VINA RESULT:      -9.2      2.184      7.727
  Name = 
  3 active torsions:
  status: ('A' for Active; 'I' for Inactive)
    1  A    between atoms: N_1  and  C_2
    2  A    between atoms: C_2  and  C_3
    3  A    between atoms: C_12  and  C_24
                            x       y       z     vdW  Elec       q    Type
                         _______ _______ _______ _____ _____    ______ ____

>  <TORSDO>
F 3

$$$$
