=
 OpenBabel11052413323D

 28 30  0  0  1  0  0  0  0  0999 V2000
  190.8520  176.4000  139.0910 C   0  0  0  0  0  2  0  0  0  0  0  0
  186.0560  179.2660  141.7590 C   0  0  0  0  0  1  0  0  0  0  0  0
  188.7380  177.0910  137.9690 C   0  0  2  0  0  3  0  0  0  0  0  0
  189.1630  177.7960  140.3440 C   0  0  0  0  0  0  0  0  0  0  0  0
  190.5150  175.9180  136.6200 C   0  0  2  0  0  3  0  0  0  0  0  0
  189.7940  177.4980  139.0040 C   0  0  1  0  0  3  0  0  0  0  0  0
  187.0890  178.2830  139.2560 O   0  0  0  0  0  0  0  0  0  0  0  0
  189.3830  176.9500  136.5930 C   0  0  0  0  0  2  0  0  0  0  0  0
  187.9600  178.1130  142.9400 C   0  0  2  0  0  3  0  0  0  0  0  0
  189.9980  177.8500  141.5610 C   0  0  0  0  0  3  0  0  0  0  0  0
  187.6400  178.1410  137.9470 C   0  0  0  0  0  2  0  0  0  0  0  0
  187.3130  178.5370  141.6930 N   0  0  0  0  0  0  0  0  0  0  0  0
  189.9680  174.5060  136.7540 C   0  0  0  0  0  1  0  0  0  0  0  0
  191.5290  176.2240  137.7290 C   0  0  0  0  0  2  0  0  0  0  0  0
  187.8770  178.1960  140.4150 C   0  0  0  0  0  0  0  0  0  0  0  0
  189.4640  178.0680  142.7650 C   0  0  0  0  0  0  0  0  0  0  0  0
  187.4330  176.7390  143.3710 C   0  0  0  0  0  3  0  0  0  0  0  0
  187.2190  176.7110  144.7490 O   0  0  0  0  0  1  0  0  0  0  0  0
  188.3470  175.7400  143.0340 O   0  0  0  0  0  1  0  0  0  0  0  0
  190.3720  178.1460  143.9490 C   0  0  0  0  0  2  0  0  0  0  0  0
  191.1420  176.8710  144.1360 C   0  0  0  0  0  3  0  0  0  0  0  0
  191.5290  176.3980  145.3280 C   0  0  0  0  0  3  0  0  0  0  0  0
  191.2390  177.0790  146.6330 C   0  0  0  0  0  2  0  0  0  0  0  0
  189.8330  176.7640  147.1380 C   0  0  0  0  0  2  0  0  0  0  0  0
  189.1240  177.9750  147.7450 C   0  0  2  0  0  3  0  0  0  0  0  0
  189.7970  178.4280  148.8660 F   0  0  0  0  0  0  0  0  0  0  0  0
  186.7990  178.3560  147.6040 O   0  0  0  0  0  0  0  0  0  0  0  0
  187.6980  177.6820  148.0820 C   0  0  0  0  0  3  0  0  0  0  0  0
  3  8  1  6  0  0  0
  3  6  1  0  0  0  0
  4 15  2  0  0  0  0
  4 10  1  0  0  0  0
  5 13  1  1  0  0  0
  5 14  1  0  0  0  0
  6  1  1  1  0  0  0
  6  4  1  0  0  0  0
  7 15  1  0  0  0  0
  8  5  1  0  0  0  0
  9 17  1  6  0  0  0
 10 16  2  0  0  0  0
 11  3  1  0  0  0  0
 11  7  1  0  0  0  0
 12  2  1  0  0  0  0
 12  9  1  0  0  0  0
 14  1  1  0  0  0  0
 15 12  1  0  0  0  0
 16  9  1  0  0  0  0
 16 20  1  0  0  0  0
 17 18  1  0  0  0  0
 19 17  1  0  0  0  0
 20 21  1  0  0  0  0
 21 22  2  0  0  0  0
 22 23  1  0  0  0  0
 23 24  1  0  0  0  0
 24 25  1  0  0  0  0
 25 28  1  0  0  0  0
 25 26  1  1  0  0  0
 27 28  2  0  0  0  0
M  END
>  <MODEL>
1

>  <REMARK>
 VINA RESULT:      -7.9      0.000      0.000
  Name = 
  7 active torsions:
  status: ('A' for Active; 'I' for Inactive)
    1  A    between atoms: C_1  and  C_2
    2  A    between atoms: C_1  and  C_27
    3  A    between atoms: C_3  and  C_8
    4  A    between atoms: C_6  and  C_11
    5  A    between atoms: C_6  and  C_28
    6  A    between atoms: C_8  and  C_11
    7  A    between atoms: C_16  and  C_19
                            x       y       z     vdW  Elec       q    Type
                         _______ _______ _______ _____ _____    ______ ____

>  <TORSDO>
F 7

$$$$
=
 OpenBabel11052413323D

 28 30  0  0  1  0  0  0  0  0999 V2000
  187.6610  178.1080  139.6100 C   0  0  0  0  0  2  0  0  0  0  0  0
  191.6700  175.9200  143.7920 C   0  0  0  0  0  1  0  0  0  0  0  0
  190.0370  177.4860  139.1910 C   0  0  2  0  0  3  0  0  0  0  0  0
  189.0070  176.9850  141.4270 C   0  0  0  0  0  0  0  0  0  0  0  0
  188.6460  178.3710  137.2840 C   0  0  2  0  0  3  0  0  0  0  0  0
  188.7580  177.0970  139.9420 C   0  0  1  0  0  3  0  0  0  0  0  0
  191.3230  176.5660  141.0060 O   0  0  0  0  0  0  0  0  0  0  0  0
  189.7940  177.4380  137.6850 C   0  0  0  0  0  2  0  0  0  0  0  0
  189.4550  177.0230  144.2700 C   0  0  2  0  0  3  0  0  0  0  0  0
  187.8700  176.9810  142.3710 C   0  0  0  0  0  3  0  0  0  0  0  0
  191.1510  176.5340  139.5890 C   0  0  0  0  0  2  0  0  0  0  0  0
  190.4450  176.5340  143.3030 N   0  0  0  0  0  0  0  0  0  0  0  0
  189.0610  179.8300  137.3950 C   0  0  0  0  0  1  0  0  0  0  0  0
  187.3810  178.0930  138.1060 C   0  0  0  0  0  2  0  0  0  0  0  0
  190.2410  176.7000  141.8900 C   0  0  0  0  0  0  0  0  0  0  0  0
  188.0600  176.9270  143.6910 C   0  0  0  0  0  0  0  0  0  0  0  0
  189.7700  178.4710  144.6650 C   0  0  0  0  0  3  0  0  0  0  0  0
  190.6820  179.0320  143.7700 O   0  0  0  0  0  1  0  0  0  0  0  0
  190.3100  178.5180  145.9510 O   0  0  0  0  0  1  0  0  0  0  0  0
  186.8630  176.8910  144.5870 C   0  0  0  0  0  2  0  0  0  0  0  0
  186.6050  178.2310  145.2130 C   0  0  0  0  0  3  0  0  0  0  0  0
  185.4470  178.8960  145.1070 C   0  0  0  0  0  3  0  0  0  0  0  0
  184.2550  178.3870  144.3500 C   0  0  0  0  0  2  0  0  0  0  0  0
  183.9810  179.2170  143.0980 C   0  0  0  0  0  2  0  0  0  0  0  0
  184.9220  178.8900  141.9390 C   0  0  2  0  0  3  0  0  0  0  0  0
  186.0350  179.7120  141.9610 F   0  0  0  0  0  0  0  0  0  0  0  0
  184.5840  179.8220  139.7970 O   0  0  0  0  0  0  0  0  0  0  0  0
  184.2370  178.9840  140.6140 C   0  0  0  0  0  3  0  0  0  0  0  0
  3  8  1  6  0  0  0
  3 11  1  0  0  0  0
  3  6  1  0  0  0  0
  4 15  2  0  0  0  0
  4 10  1  0  0  0  0
  5 13  1  1  0  0  0
  5  8  1  0  0  0  0
  5 14  1  0  0  0  0
  6  1  1  1  0  0  0
  6  4  1  0  0  0  0
  7 15  1  0  0  0  0
  9 17  1  6  0  0  0
 10 16  2  0  0  0  0
 11  7  1  0  0  0  0
 12  2  1  0  0  0  0
 12  9  1  0  0  0  0
 14  1  1  0  0  0  0
 15 12  1  0  0  0  0
 16  9  1  0  0  0  0
 16 20  1  0  0  0  0
 17 19  1  0  0  0  0
 18 17  1  0  0  0  0
 20 21  1  0  0  0  0
 22 21  2  0  0  0  0
 23 22  1  0  0  0  0
 24 23  1  0  0  0  0
 25 26  1  6  0  0  0
 25 24  1  0  0  0  0
 27 28  2  0  0  0  0
 28 25  1  0  0  0  0
M  END
>  <MODEL>
2

>  <REMARK>
 VINA RESULT:      -7.3      2.695      5.028
  Name = 
  7 active torsions:
  status: ('A' for Active; 'I' for Inactive)
    1  A    between atoms: C_1  and  C_2
    2  A    between atoms: C_1  and  C_27
    3  A    between atoms: C_3  and  C_8
    4  A    between atoms: C_6  and  C_11
    5  A    between atoms: C_6  and  C_28
    6  A    between atoms: C_8  and  C_11
    7  A    between atoms: C_16  and  C_19
                            x       y       z     vdW  Elec       q    Type
                         _______ _______ _______ _____ _____    ______ ____

>  <TORSDO>
F 7

$$$$
=
 OpenBabel11052413323D

 28 30  0  0  1  0  0  0  0  0999 V2000
  187.6350  178.2250  139.5790 C   0  0  0  0  0  2  0  0  0  0  0  0
  191.6800  175.9320  143.6680 C   0  0  0  0  0  1  0  0  0  0  0  0
  189.9940  177.5750  139.1140 C   0  0  2  0  0  3  0  0  0  0  0  0
  188.9940  177.0620  141.3610 C   0  0  0  0  0  0  0  0  0  0  0  0
  188.5850  178.5020  137.2410 C   0  0  2  0  0  3  0  0  0  0  0  0
  188.7220  177.1950  139.8810 C   0  0  1  0  0  3  0  0  0  0  0  0
  191.2960  176.6150  140.8960 O   0  0  0  0  0  0  0  0  0  0  0  0
  189.7250  177.5480  137.6110 C   0  0  0  0  0  2  0  0  0  0  0  0
  189.4890  177.0600  144.1960 C   0  0  2  0  0  3  0  0  0  0  0  0
  187.8720  177.0640  142.3230 C   0  0  0  0  0  3  0  0  0  0  0  0
  191.1010  176.6020  139.4820 C   0  0  0  0  0  2  0  0  0  0  0  0
  190.4560  176.5690  143.2070 N   0  0  0  0  0  0  0  0  0  0  0  0
  189.0220  179.9530  137.3610 C   0  0  0  0  0  1  0  0  0  0  0  0
  187.3300  178.2320  138.0800 C   0  0  0  0  0  2  0  0  0  0  0  0
  190.2310  176.7540  141.8000 C   0  0  0  0  0  0  0  0  0  0  0  0
  188.0830  176.9910  143.6400 C   0  0  0  0  0  0  0  0  0  0  0  0
  189.8310  178.4990  144.6020 C   0  0  0  0  0  3  0  0  0  0  0  0
  190.5600  179.1290  143.5930 O   0  0  0  0  0  1  0  0  0  0  0  0
  190.5850  178.5060  145.7770 O   0  0  0  0  0  1  0  0  0  0  0  0
  186.9010  176.9620  144.5540 C   0  0  0  0  0  2  0  0  0  0  0  0
  186.1380  178.2530  144.5080 C   0  0  0  0  0  3  0  0  0  0  0  0
  185.6940  178.9000  145.5940 C   0  0  0  0  0  3  0  0  0  0  0  0
  185.9060  178.4200  146.9990 C   0  0  0  0  0  2  0  0  0  0  0  0
  187.1460  179.0470  147.6320 C   0  0  0  0  0  2  0  0  0  0  0  0
  187.9640  178.0600  148.4640 C   0  0  2  0  0  3  0  0  0  0  0  0
  189.1590  178.6290  148.8700 F   0  0  0  0  0  0  0  0  0  0  0  0
  189.3570  176.3440  147.6380 O   0  0  0  0  0  0  0  0  0  0  0  0
  188.2230  176.7840  147.7310 C   0  0  0  0  0  3  0  0  0  0  0  0
  3  8  1  6  0  0  0
  3 11  1  0  0  0  0
  3  6  1  0  0  0  0
  4 15  2  0  0  0  0
  4 10  1  0  0  0  0
  5 13  1  1  0  0  0
  5  8  1  0  0  0  0
  5 14  1  0  0  0  0
  6  1  1  1  0  0  0
  6  4  1  0  0  0  0
  7 15  1  0  0  0  0
  9 17  1  6  0  0  0
 10 16  2  0  0  0  0
 11  7  1  0  0  0  0
 12  2  1  0  0  0  0
 12  9  1  0  0  0  0
 14  1  1  0  0  0  0
 15 12  1  0  0  0  0
 16  9  1  0  0  0  0
 16 20  1  0  0  0  0
 17 19  1  0  0  0  0
 18 17  1  0  0  0  0
 21 20  1  0  0  0  0
 21 22  2  0  0  0  0
 22 23  1  0  0  0  0
 23 24  1  0  0  0  0
 24 25  1  0  0  0  0
 25 26  1  6  0  0  0
 27 28  2  0  0  0  0
 28 25  1  0  0  0  0
M  END
>  <MODEL>
3

>  <REMARK>
 VINA RESULT:      -7.0      2.180      3.777
  Name = 
  7 active torsions:
  status: ('A' for Active; 'I' for Inactive)
    1  A    between atoms: C_1  and  C_2
    2  A    between atoms: C_1  and  C_27
    3  A    between atoms: C_3  and  C_8
    4  A    between atoms: C_6  and  C_11
    5  A    between atoms: C_6  and  C_28
    6  A    between atoms: C_8  and  C_11
    7  A    between atoms: C_16  and  C_19
                            x       y       z     vdW  Elec       q    Type
                         _______ _______ _______ _____ _____    ______ ____

>  <TORSDO>
F 7

$$$$
=
 OpenBabel11052413323D

 28 30  0  0  1  0  0  0  0  0999 V2000
  183.1390  176.9620  139.1490 C   0  0  0  0  0  2  0  0  0  0  0  0
  179.2420  180.9110  141.8990 C   0  0  0  0  0  1  0  0  0  0  0  0
  181.2050  178.1110  138.0780 C   0  0  2  0  0  3  0  0  0  0  0  0
  181.8670  178.7340  140.4210 C   0  0  0  0  0  0  0  0  0  0  0  0
  182.6100  176.5340  136.7020 C   0  0  2  0  0  3  0  0  0  0  0  0
  182.3630  178.2760  139.0690 C   0  0  1  0  0  3  0  0  0  0  0  0
  179.9270  179.6740  139.3880 O   0  0  0  0  0  0  0  0  0  0  0  0
  181.7490  177.8020  136.6860 C   0  0  0  0  0  2  0  0  0  0  0  0
  180.8670  179.3630  143.0450 C   0  0  2  0  0  3  0  0  0  0  0  0
  182.7360  178.6100  141.6090 C   0  0  0  0  0  3  0  0  0  0  0  0
  180.3810  179.3870  138.0660 C   0  0  0  0  0  2  0  0  0  0  0  0
  180.2910  179.9070  141.8100 N   0  0  0  0  0  0  0  0  0  0  0  0
  181.7530  175.2920  136.8860 C   0  0  0  0  0  1  0  0  0  0  0  0
  183.7070  176.6120  137.7710 C   0  0  0  0  0  2  0  0  0  0  0  0
  180.7140  179.4240  140.5240 C   0  0  0  0  0  0  0  0  0  0  0  0
  182.3110  178.9660  142.8240 C   0  0  0  0  0  0  0  0  0  0  0  0
  180.0500  178.1570  143.5250 C   0  0  0  0  0  3  0  0  0  0  0  0
  179.3830  177.5640  142.4530 O   0  0  0  0  0  1  0  0  0  0  0  0
  179.1110  178.5550  144.4780 O   0  0  0  0  0  1  0  0  0  0  0  0
  183.2540  178.8470  143.9770 C   0  0  0  0  0  2  0  0  0  0  0  0
  184.6020  178.3520  143.5370 C   0  0  0  0  0  3  0  0  0  0  0  0
  185.6880  178.3420  144.3210 C   0  0  0  0  0  3  0  0  0  0  0  0
  185.6990  178.8200  145.7430 C   0  0  0  0  0  2  0  0  0  0  0  0
  186.4000  177.8290  146.6700 C   0  0  0  0  0  2  0  0  0  0  0  0
  187.9220  177.8430  146.5300 C   0  0  2  0  0  3  0  0  0  0  0  0
  188.3400  176.9100  145.5980 F   0  0  0  0  0  0  0  0  0  0  0  0
  188.1200  178.0290  148.8740 O   0  0  0  0  0  0  0  0  0  0  0  0
  188.6100  177.6120  147.8360 C   0  0  0  0  0  3  0  0  0  0  0  0
  3  8  1  6  0  0  0
  3  6  1  0  0  0  0
  4 15  2  0  0  0  0
  4 10  1  0  0  0  0
  5 13  1  1  0  0  0
  5 14  1  0  0  0  0
  6  1  1  1  0  0  0
  6  4  1  0  0  0  0
  7 15  1  0  0  0  0
  8  5  1  0  0  0  0
  9 17  1  6  0  0  0
 10 16  2  0  0  0  0
 11  3  1  0  0  0  0
 11  7  1  0  0  0  0
 12  2  1  0  0  0  0
 12  9  1  0  0  0  0
 14  1  1  0  0  0  0
 15 12  1  0  0  0  0
 16  9  1  0  0  0  0
 16 20  1  0  0  0  0
 17 19  1  0  0  0  0
 18 17  1  0  0  0  0
 21 20  1  0  0  0  0
 21 22  2  0  0  0  0
 22 23  1  0  0  0  0
 23 24  1  0  0  0  0
 25 26  1  6  0  0  0
 25 24  1  0  0  0  0
 25 28  1  0  0  0  0
 28 27  2  0  0  0  0
M  END
>  <MODEL>
4

>  <REMARK>
 VINA RESULT:      -7.0      5.180      6.870
  Name = 
  7 active torsions:
  status: ('A' for Active; 'I' for Inactive)
    1  A    between atoms: C_1  and  C_2
    2  A    between atoms: C_1  and  C_27
    3  A    between atoms: C_3  and  C_8
    4  A    between atoms: C_6  and  C_11
    5  A    between atoms: C_6  and  C_28
    6  A    between atoms: C_8  and  C_11
    7  A    between atoms: C_16  and  C_19
                            x       y       z     vdW  Elec       q    Type
                         _______ _______ _______ _____ _____    ______ ____

>  <TORSDO>
F 7

$$$$
=
 OpenBabel11052413323D

 28 30  0  0  1  0  0  0  0  0999 V2000
  188.2640  177.4840  142.5370 C   0  0  0  0  0  2  0  0  0  0  0  0
  187.5020  178.4350  136.4660 C   0  0  0  0  0  1  0  0  0  0  0  0
  190.0070  177.2300  140.7740 C   0  0  2  0  0  3  0  0  0  0  0  0
  187.7670  178.1940  140.1650 C   0  0  0  0  0  0  0  0  0  0  0  0
  190.6110  176.7530  143.1740 C   0  0  2  0  0  3  0  0  0  0  0  0
  188.8190  178.0790  141.2430 C   0  0  1  0  0  3  0  0  0  0  0  0
  189.4300  177.7700  138.5000 O   0  0  0  0  0  0  0  0  0  0  0  0
  191.1170  177.2620  141.8200 C   0  0  0  0  0  2  0  0  0  0  0  0
  185.6770  178.1870  138.1860 C   0  0  2  0  0  3  0  0  0  0  0  0
  186.4020  178.6450  140.5070 C   0  0  0  0  0  3  0  0  0  0  0  0
  190.5020  177.7690  139.4430 C   0  0  0  0  0  2  0  0  0  0  0  0
  187.1050  178.2460  137.8530 N   0  0  0  0  0  0  0  0  0  0  0  0
  190.3800  175.2500  143.1430 C   0  0  0  0  0  1  0  0  0  0  0  0
  189.3460  177.4970  143.6190 C   0  0  0  0  0  2  0  0  0  0  0  0
  188.1080  178.0700  138.8670 C   0  0  0  0  0  0  0  0  0  0  0  0
  185.4400  178.7160  139.5850 C   0  0  0  0  0  0  0  0  0  0  0  0
  185.1640  176.7460  138.0670 C   0  0  0  0  0  3  0  0  0  0  0  0
  185.9830  176.0070  137.2120 O   0  0  0  0  0  1  0  0  0  0  0  0
  183.8610  176.7340  137.5700 O   0  0  0  0  0  1  0  0  0  0  0  0
  184.0910  179.2140  139.9930 C   0  0  0  0  0  2  0  0  0  0  0  0
  183.3670  178.2100  140.8430 C   0  0  0  0  0  3  0  0  0  0  0  0
  183.3460  178.2410  142.1820 C   0  0  0  0  0  3  0  0  0  0  0  0
  184.0390  179.2840  143.0070 C   0  0  0  0  0  2  0  0  0  0  0  0
  183.9560  178.9740  144.5000 C   0  0  0  0  0  2  0  0  0  0  0  0
  185.3130  178.6510  145.1260 C   0  0  2  0  0  3  0  0  0  0  0  0
  185.8270  177.4750  144.6080 F   0  0  0  0  0  0  0  0  0  0  0  0
  185.6940  179.4720  147.3060 O   0  0  0  0  0  0  0  0  0  0  0  0
  185.2410  178.5710  146.6160 C   0  0  0  0  0  3  0  0  0  0  0  0
  1 14  1  0  0  0  0
  2 12  1  0  0  0  0
  3 11  1  6  0  0  0
  3  6  1  0  0  0  0
  3  8  1  0  0  0  0
  4 10  1  0  0  0  0
  4  6  1  0  0  0  0
  5 13  1  6  0  0  0
  5 14  1  0  0  0  0
  6  1  1  1  0  0  0
  7 15  1  0  0  0  0
  7 11  1  0  0  0  0
  8  5  1  0  0  0  0
  9 17  1  1  0  0  0
  9 16  1  0  0  0  0
 12  9  1  0  0  0  0
 12 15  1  0  0  0  0
 15  4  2  0  0  0  0
 16 20  1  0  0  0  0
 16 10  2  0  0  0  0
 18 17  1  0  0  0  0
 19 17  1  0  0  0  0
 20 21  1  0  0  0  0
 21 22  2  0  0  0  0
 22 23  1  0  0  0  0
 23 24  1  0  0  0  0
 24 25  1  0  0  0  0
 25 26  1  6  0  0  0
 25 28  1  0  0  0  0
 28 27  2  0  0  0  0
M  END
>  <MODEL>
5

>  <REMARK>
 VINA RESULT:      -6.9      2.779      5.560
  Name = 
  7 active torsions:
  status: ('A' for Active; 'I' for Inactive)
    1  A    between atoms: C_1  and  C_2
    2  A    between atoms: C_1  and  C_27
    3  A    between atoms: C_3  and  C_8
    4  A    between atoms: C_6  and  C_11
    5  A    between atoms: C_6  and  C_28
    6  A    between atoms: C_8  and  C_11
    7  A    between atoms: C_16  and  C_19
                            x       y       z     vdW  Elec       q    Type
                         _______ _______ _______ _____ _____    ______ ____

>  <TORSDO>
F 7

$$$$
=
 OpenBabel11052413323D

 28 30  0  0  1  0  0  0  0  0999 V2000
  189.9620  175.8750  137.4620 C   0  0  0  0  0  2  0  0  0  0  0  0
  186.7690  179.2120  141.5870 C   0  0  0  0  0  1  0  0  0  0  0  0
  187.6970  176.8580  137.1280 C   0  0  2  0  0  3  0  0  0  0  0  0
  188.9930  177.4230  139.2060 C   0  0  0  0  0  0  0  0  0  0  0  0
  188.7430  175.5240  135.2620 C   0  0  2  0  0  3  0  0  0  0  0  0
  189.0850  177.0970  137.7340 C   0  0  1  0  0  3  0  0  0  0  0  0
  186.7520  178.1970  138.8910 O   0  0  0  0  0  0  0  0  0  0  0  0
  187.8100  176.6870  135.6150 C   0  0  0  0  0  2  0  0  0  0  0  0
  188.7990  177.7950  142.0530 C   0  0  2  0  0  3  0  0  0  0  0  0
  190.1930  177.3330  140.0620 C   0  0  0  0  0  3  0  0  0  0  0  0
  186.8000  178.0340  137.4740 C   0  0  0  0  0  2  0  0  0  0  0  0
  187.8240  178.3370  141.1000 N   0  0  0  0  0  0  0  0  0  0  0  0
  188.1000  174.1860  135.5890 C   0  0  0  0  0  1  0  0  0  0  0  0
  190.1050  175.6650  135.9530 C   0  0  0  0  0  2  0  0  0  0  0  0
  187.8710  177.9750  139.7100 C   0  0  0  0  0  0  0  0  0  0  0  0
  190.1340  177.5730  141.3740 C   0  0  0  0  0  0  0  0  0  0  0  0
  188.2810  176.4820  142.6530 C   0  0  0  0  0  3  0  0  0  0  0  0
  187.6060  176.7260  143.8490 O   0  0  0  0  0  1  0  0  0  0  0  0
  189.3420  175.6100  142.9020 O   0  0  0  0  0  1  0  0  0  0  0  0
  191.3940  177.4980  142.1740 C   0  0  0  0  0  2  0  0  0  0  0  0
  191.5450  178.6880  143.0760 C   0  0  0  0  0  3  0  0  0  0  0  0
  191.5360  178.6190  144.4140 C   0  0  0  0  0  3  0  0  0  0  0  0
  191.3780  177.3420  145.1860 C   0  0  0  0  0  2  0  0  0  0  0  0
  190.0830  177.3250  145.9950 C   0  0  0  0  0  2  0  0  0  0  0  0
  190.2820  176.8760  147.4430 C   0  0  2  0  0  3  0  0  0  0  0  0
  189.9050  177.8740  148.3240 F   0  0  0  0  0  0  0  0  0  0  0  0
  191.9780  175.2680  147.7740 O   0  0  0  0  0  0  0  0  0  0  0  0
  191.6900  176.4530  147.7130 C   0  0  0  0  0  3  0  0  0  0  0  0
  3  8  1  6  0  0  0
  3 11  1  0  0  0  0
  3  6  1  0  0  0  0
  4 15  2  0  0  0  0
  4 10  1  0  0  0  0
  5 13  1  1  0  0  0
  5  8  1  0  0  0  0
  5 14  1  0  0  0  0
  6  1  1  1  0  0  0
  6  4  1  0  0  0  0
  7 15  1  0  0  0  0
  9 17  1  6  0  0  0
 10 16  2  0  0  0  0
 11  7  1  0  0  0  0
 12  2  1  0  0  0  0
 12  9  1  0  0  0  0
 14  1  1  0  0  0  0
 15 12  1  0  0  0  0
 16  9  1  0  0  0  0
 16 20  1  0  0  0  0
 17 19  1  0  0  0  0
 17 18  1  0  0  0  0
 20 21  1  0  0  0  0
 21 22  2  0  0  0  0
 22 23  1  0  0  0  0
 23 24  1  0  0  0  0
 24 25  1  0  0  0  0
 25 28  1  0  0  0  0
 25 26  1  1  0  0  0
 28 27  2  0  0  0  0
M  END
>  <MODEL>
6

>  <REMARK>
 VINA RESULT:      -6.8      1.599      2.048
  Name = 
  7 active torsions:
  status: ('A' for Active; 'I' for Inactive)
    1  A    between atoms: C_1  and  C_2
    2  A    between atoms: C_1  and  C_27
    3  A    between atoms: C_3  and  C_8
    4  A    between atoms: C_6  and  C_11
    5  A    between atoms: C_6  and  C_28
    6  A    between atoms: C_8  and  C_11
    7  A    between atoms: C_16  and  C_19
                            x       y       z     vdW  Elec       q    Type
                         _______ _______ _______ _____ _____    ______ ____

>  <TORSDO>
F 7

$$$$
=
 OpenBabel11052413323D

 28 30  0  0  1  0  0  0  0  0999 V2000
  186.2390  177.9770  144.5190 C   0  0  0  0  0  2  0  0  0  0  0  0
  190.9570  177.6280  140.5230 C   0  0  0  0  0  1  0  0  0  0  0  0
  186.1770  178.5940  142.1060 C   0  0  2  0  0  3  0  0  0  0  0  0
  188.2290  177.4860  143.0430 C   0  0  0  0  0  0  0  0  0  0  0  0
  184.0910  178.8620  143.4950 C   0  0  2  0  0  3  0  0  0  0  0  0
  186.7230  177.5860  143.1230 C   0  0  1  0  0  3  0  0  0  0  0  0
  188.1560  178.2530  140.7790 O   0  0  0  0  0  0  0  0  0  0  0  0
  184.6510  178.5570  142.1020 C   0  0  0  0  0  2  0  0  0  0  0  0
  191.1070  177.5040  143.0350 C   0  0  2  0  0  3  0  0  0  0  0  0
  188.9900  176.8670  144.1480 C   0  0  0  0  0  3  0  0  0  0  0  0
  186.7300  178.2560  140.7320 C   0  0  0  0  0  2  0  0  0  0  0  0
  190.2950  177.6230  141.8180 N   0  0  0  0  0  0  0  0  0  0  0  0
  184.2760  180.3290  143.8520 C   0  0  0  0  0  1  0  0  0  0  0  0
  184.7100  177.9520  144.5630 C   0  0  0  0  0  2  0  0  0  0  0  0
  188.8690  177.7850  141.8950 C   0  0  0  0  0  0  0  0  0  0  0  0
  190.3240  176.8030  144.1250 C   0  0  0  0  0  0  0  0  0  0  0  0
  191.5570  178.8910  143.5110 C   0  0  0  0  0  3  0  0  0  0  0  0
  192.6640  178.7810  144.3530 O   0  0  0  0  0  1  0  0  0  0  0  0
  190.5240  179.5270  144.2010 O   0  0  0  0  0  1  0  0  0  0  0  0
  191.0280  176.1320  145.2600 C   0  0  0  0  0  2  0  0  0  0  0  0
  191.2830  177.0860  146.3910 C   0  0  0  0  0  3  0  0  0  0  0  0
  190.5050  177.1850  147.4760 C   0  0  0  0  0  3  0  0  0  0  0  0
  189.2780  176.3540  147.7060 C   0  0  0  0  0  2  0  0  0  0  0  0
  188.0110  177.0710  147.2430 C   0  0  0  0  0  2  0  0  0  0  0  0
  187.7250  178.3540  148.0240 C   0  0  2  0  0  3  0  0  0  0  0  0
  188.0810  178.2120  149.3530 F   0  0  0  0  0  0  0  0  0  0  0  0
  186.0060  179.8860  147.5050 O   0  0  0  0  0  0  0  0  0  0  0  0
  186.2950  178.7730  147.9140 C   0  0  0  0  0  3  0  0  0  0  0  0
  1 14  1  0  0  0  0
  2 12  1  0  0  0  0
  3 11  1  6  0  0  0
  3  6  1  0  0  0  0
  4  6  1  0  0  0  0
  4 10  1  0  0  0  0
  5 13  1  1  0  0  0
  5 14  1  0  0  0  0
  6  1  1  1  0  0  0
  7 15  1  0  0  0  0
  8  3  1  0  0  0  0
  8  5  1  0  0  0  0
  9 17  1  1  0  0  0
  9 16  1  0  0  0  0
 11  7  1  0  0  0  0
 12 15  1  0  0  0  0
 12  9  1  0  0  0  0
 15  4  2  0  0  0  0
 16 10  2  0  0  0  0
 16 20  1  0  0  0  0
 17 19  1  0  0  0  0
 17 18  1  0  0  0  0
 20 21  1  0  0  0  0
 21 22  2  0  0  0  0
 22 23  1  0  0  0  0
 24 23  1  0  0  0  0
 24 25  1  0  0  0  0
 25 26  1  1  0  0  0
 27 28  2  0  0  0  0
 28 25  1  0  0  0  0
M  END
>  <MODEL>
7

>  <REMARK>
 VINA RESULT:      -6.5      2.422      4.892
  Name = 
  7 active torsions:
  status: ('A' for Active; 'I' for Inactive)
    1  A    between atoms: C_1  and  C_2
    2  A    between atoms: C_1  and  C_27
    3  A    between atoms: C_3  and  C_8
    4  A    between atoms: C_6  and  C_11
    5  A    between atoms: C_6  and  C_28
    6  A    between atoms: C_8  and  C_11
    7  A    between atoms: C_16  and  C_19
                            x       y       z     vdW  Elec       q    Type
                         _______ _______ _______ _____ _____    ______ ____

>  <TORSDO>
F 7

$$$$
=
 OpenBabel11052413323D

 28 30  0  0  1  0  0  0  0  0999 V2000
  181.5610  181.8550  138.2370 C   0  0  0  0  0  2  0  0  0  0  0  0
  183.5720  176.0860  137.2300 C   0  0  0  0  0  1  0  0  0  0  0  0
  180.8290  180.3380  136.4020 C   0  0  2  0  0  3  0  0  0  0  0  0
  182.3360  179.4530  138.2080 C   0  0  0  0  0  0  0  0  0  0  0  0
  179.8410  182.6520  136.5480 C   0  0  2  0  0  3  0  0  0  0  0  0
  181.2130  180.4100  137.8840 C   0  0  1  0  0  3  0  0  0  0  0  0
  181.7240  178.1040  136.3300 O   0  0  0  0  0  0  0  0  0  0  0  0
  179.5940  181.1960  136.1400 C   0  0  0  0  0  2  0  0  0  0  0  0
  184.6360  177.8040  138.7350 C   0  0  2  0  0  3  0  0  0  0  0  0
  183.1030  179.6060  139.4610 C   0  0  0  0  0  3  0  0  0  0  0  0
  180.5690  178.8880  136.0300 C   0  0  0  0  0  2  0  0  0  0  0  0
  183.5580  177.4170  137.8170 N   0  0  0  0  0  0  0  0  0  0  0  0
  180.7950  183.3380  135.5830 C   0  0  0  0  0  1  0  0  0  0  0  0
  180.3480  182.7550  137.9920 C   0  0  0  0  0  2  0  0  0  0  0  0
  182.5250  178.3490  137.4570 C   0  0  0  0  0  0  0  0  0  0  0  0
  184.1290  178.8020  139.7540 C   0  0  0  0  0  0  0  0  0  0  0  0
  185.8130  178.3960  137.9500 C   0  0  0  0  0  3  0  0  0  0  0  0
  185.9670  177.7340  136.7310 O   0  0  0  0  0  1  0  0  0  0  0  0
  186.9950  178.2770  138.6820 O   0  0  0  0  0  1  0  0  0  0  0  0
  184.8390  178.9910  141.0550 C   0  0  0  0  0  2  0  0  0  0  0  0
  183.9810  178.5750  142.2150 C   0  0  0  0  0  3  0  0  0  0  0  0
  184.4470  178.3680  143.4540 C   0  0  0  0  0  3  0  0  0  0  0  0
  185.8860  178.5270  143.8450 C   0  0  0  0  0  2  0  0  0  0  0  0
  186.3120  177.4880  144.8800 C   0  0  0  0  0  2  0  0  0  0  0  0
  186.8430  178.1060  146.1740 C   0  0  2  0  0  3  0  0  0  0  0  0
  187.3880  177.1360  146.9950 F   0  0  0  0  0  0  0  0  0  0  0  0
  184.6580  178.4230  147.0060 O   0  0  0  0  0  0  0  0  0  0  0  0
  185.7890  178.8710  146.9060 C   0  0  0  0  0  3  0  0  0  0  0  0
  2 12  1  0  0  0  0
  3 11  1  1  0  0  0
  3  6  1  0  0  0  0
  4 10  1  0  0  0  0
  5 13  1  6  0  0  0
  5 14  1  0  0  0  0
  6  4  1  0  0  0  0
  6  1  1  6  0  0  0
  7 15  1  0  0  0  0
  8  3  1  0  0  0  0
  8  5  1  0  0  0  0
  9 17  1  6  0  0  0
  9 16  1  0  0  0  0
 10 16  2  0  0  0  0
 11  7  1  0  0  0  0
 12  9  1  0  0  0  0
 14  1  1  0  0  0  0
 15 12  1  0  0  0  0
 15  4  2  0  0  0  0
 16 20  1  0  0  0  0
 17 19  1  0  0  0  0
 18 17  1  0  0  0  0
 20 21  1  0  0  0  0
 21 22  2  0  0  0  0
 22 23  1  0  0  0  0
 23 24  1  0  0  0  0
 24 25  1  0  0  0  0
 25 28  1  0  0  0  0
 25 26  1  1  0  0  0
 28 27  2  0  0  0  0
M  END
>  <MODEL>
8

>  <REMARK>
 VINA RESULT:      -6.3      5.051      7.613
  Name = 
  7 active torsions:
  status: ('A' for Active; 'I' for Inactive)
    1  A    between atoms: C_1  and  C_2
    2  A    between atoms: C_1  and  C_27
    3  A    between atoms: C_3  and  C_8
    4  A    between atoms: C_6  and  C_11
    5  A    between atoms: C_6  and  C_28
    6  A    between atoms: C_8  and  C_11
    7  A    between atoms: C_16  and  C_19
                            x       y       z     vdW  Elec       q    Type
                         _______ _______ _______ _____ _____    ______ ____

>  <TORSDO>
F 7

$$$$
=
 OpenBabel11052413323D

 28 30  0  0  1  0  0  0  0  0999 V2000
  182.9940  176.8190  139.2270 C   0  0  0  0  0  2  0  0  0  0  0  0
  179.2600  181.2990  141.3070 C   0  0  0  0  0  1  0  0  0  0  0  0
  181.4940  178.2490  137.8440 C   0  0  2  0  0  3  0  0  0  0  0  0
  181.7730  178.7570  140.2900 C   0  0  0  0  0  0  0  0  0  0  0  0
  182.8930  176.4840  136.7120 C   0  0  2  0  0  3  0  0  0  0  0  0
  182.4490  178.2350  139.0430 C   0  0  1  0  0  3  0  0  0  0  0  0
  180.2290  179.9820  138.9350 O   0  0  0  0  0  0  0  0  0  0  0  0
  182.2470  177.8660  136.5730 C   0  0  0  0  0  2  0  0  0  0  0  0
  180.3860  179.5210  142.6930 C   0  0  2  0  0  3  0  0  0  0  0  0
  182.3670  178.5000  141.6180 C   0  0  0  0  0  3  0  0  0  0  0  0
  180.8850  179.6350  137.7160 C   0  0  0  0  0  2  0  0  0  0  0  0
  180.1470  180.1490  141.3880 N   0  0  0  0  0  0  0  0  0  0  0  0
  181.8440  175.3830  136.6880 C   0  0  0  0  0  1  0  0  0  0  0  0
  183.7600  176.3920  137.9730 C   0  0  0  0  0  2  0  0  0  0  0  0
  180.7360  179.6130  140.1920 C   0  0  0  0  0  0  0  0  0  0  0  0
  181.7710  178.9120  142.7400 C   0  0  0  0  0  0  0  0  0  0  0  0
  179.3230  178.4500  142.9680 C   0  0  0  0  0  3  0  0  0  0  0  0
  179.1730  178.2550  144.3420 O   0  0  0  0  0  1  0  0  0  0  0  0
  179.6890  177.2400  142.3770 O   0  0  0  0  0  1  0  0  0  0  0  0
  182.4450  178.6490  144.0470 C   0  0  0  0  0  2  0  0  0  0  0  0
  183.4700  179.7010  144.3600 C   0  0  0  0  0  3  0  0  0  0  0  0
  184.7520  179.4360  144.6430 C   0  0  0  0  0  3  0  0  0  0  0  0
  185.3330  178.0540  144.6820 C   0  0  0  0  0  2  0  0  0  0  0  0
  186.6650  178.0190  145.4270 C   0  0  0  0  0  2  0  0  0  0  0  0
  187.8180  177.4800  144.5790 C   0  0  2  0  0  3  0  0  0  0  0  0
  187.4200  176.3700  143.8560 F   0  0  0  0  0  0  0  0  0  0  0  0
  189.8770  178.0010  145.6080 O   0  0  0  0  0  0  0  0  0  0  0  0
  189.0200  177.1560  145.4050 C   0  0  0  0  0  3  0  0  0  0  0  0
  2 12  1  0  0  0  0
  3  8  1  6  0  0  0
  3  6  1  0  0  0  0
  4 10  1  0  0  0  0
  5 13  1  1  0  0  0
  5 14  1  0  0  0  0
  6  1  1  1  0  0  0
  6  4  1  0  0  0  0
  7 15  1  0  0  0  0
  8  5  1  0  0  0  0
  9 16  1  0  0  0  0
  9 17  1  6  0  0  0
 10 16  2  0  0  0  0
 11  3  1  0  0  0  0
 11  7  1  0  0  0  0
 12  9  1  0  0  0  0
 14  1  1  0  0  0  0
 15  4  2  0  0  0  0
 15 12  1  0  0  0  0
 16 20  1  0  0  0  0
 17 18  1  0  0  0  0
 19 17  1  0  0  0  0
 20 21  1  0  0  0  0
 21 22  2  0  0  0  0
 22 23  1  0  0  0  0
 23 24  1  0  0  0  0
 25 26  1  1  0  0  0
 25 28  1  0  0  0  0
 25 24  1  0  0  0  0
 28 27  2  0  0  0  0
M  END
>  <MODEL>
9

>  <REMARK>
 VINA RESULT:      -6.3      5.345      7.122
  Name = 
  7 active torsions:
  status: ('A' for Active; 'I' for Inactive)
    1  A    between atoms: C_1  and  C_2
    2  A    between atoms: C_1  and  C_27
    3  A    between atoms: C_3  and  C_8
    4  A    between atoms: C_6  and  C_11
    5  A    between atoms: C_6  and  C_28
    6  A    between atoms: C_8  and  C_11
    7  A    between atoms: C_16  and  C_19
                            x       y       z     vdW  Elec       q    Type
                         _______ _______ _______ _____ _____    ______ ____

>  <TORSDO>
F 7

$$$$
