=
 OpenBabel11052416543D

 32 36  0  0  1  0  0  0  0  0999 V2000
  187.8950  177.9880  142.1210 C   0  0  0  0  0  0  0  0  0  0  0  0
  183.4830  179.2780  143.7580 C   0  0  0  0  0  3  0  0  0  0  0  0
  183.8830  179.0900  145.0230 C   0  0  0  0  0  3  0  0  0  0  0  0
  189.8100  177.5950  143.7390 C   0  0  2  0  0  3  0  0  0  0  0  0
  189.9790  176.9860  145.1220 C   0  0  1  0  0  3  0  0  0  0  0  0
  188.3440  177.7320  139.6360 C   0  0  2  0  0  3  0  0  0  0  0  0
  186.0200  178.3620  140.4300 C   0  0  0  0  0  2  0  0  0  0  0  0
  189.9100  177.3460  147.3570 C   0  0  0  0  0  0  0  0  0  0  0  0
  184.1320  178.5190  142.6330 C   0  0  0  0  0  2  0  0  0  0  0  0
  186.5300  178.2480  141.8470 C   0  0  0  0  0  0  0  0  0  0  0  0
  185.6040  178.3020  142.9030 C   0  0  0  0  0  0  0  0  0  0  0  0
  187.3750  177.8540  144.5190 C   0  0  0  0  0  0  0  0  0  0  0  0
  191.2090  176.6950  147.0400 C   0  0  0  0  0  2  0  0  0  0  0  0
  187.1200  178.6250  139.3960 C   0  0  2  0  0  3  0  0  0  0  0  0
  191.3510  176.8010  145.5830 N   0  0  0  0  0  2  0  0  0  0  0  0
  184.9890  178.1160  145.3340 C   0  0  0  0  0  2  0  0  0  0  0  0
  186.0240  178.1030  144.2330 C   0  0  0  0  0  0  0  0  0  0  0  0
  187.7860  177.5590  145.9560 C   0  0  0  0  0  2  0  0  0  0  0  0
  188.9240  178.0160  141.0170 C   0  0  0  0  0  2  0  0  0  0  0  0
  190.4830  178.8180  143.6600 O   0  0  0  0  0  1  0  0  0  0  0  0
  189.4790  177.5140  148.4870 O   0  0  0  0  0  0  0  0  0  0  0  0
  188.3250  177.8010  143.4520 C   0  0  0  0  0  0  0  0  0  0  0  0
  189.2670  177.8370  146.1310 C   0  0  2  0  0  3  0  0  0  0  0  0
  190.5290  176.8690  138.6730 C   0  0  0  0  0  1  0  0  0  0  0  0
  189.4180  177.9020  138.5590 C   0  0  0  0  0  2  0  0  0  0  0  0
  186.6340  178.5850  138.0680 O   0  0  0  0  0  0  0  0  0  0  0  0
  185.4050  177.9040  138.0450 C   0  0  0  0  0  2  0  0  0  0  0  0
  185.4870  176.7480  137.0710 C   0  0  0  0  0  2  0  0  0  0  0  0
  186.5820  176.9730  136.1450 N   0  0  0  0  0  2  0  0  0  0  0  0
  187.3180  175.7250  136.0360 C   0  0  1  0  0  3  0  0  0  0  0  0
  188.6810  175.9950  135.4350 C   0  0  0  0  0  1  0  0  0  0  0  0
  187.4770  175.1610  137.3030 O   0  0  0  0  0  1  0  0  0  0  0  0
  1 22  1  0  0  0  0
  2  3  2  0  0  0  0
  3 16  1  0  0  0  0
  4 20  1  1  0  0  0
  4  5  1  0  0  0  0
  5 15  1  1  0  0  0
  5 23  1  0  0  0  0
  6 25  1  6  0  0  0
  6 19  1  0  0  0  0
  7 10  1  0  0  0  0
  8 21  2  0  0  0  0
  9 11  1  0  0  0  0
  9  2  1  0  0  0  0
 10  1  2  0  0  0  0
 10 11  1  0  0  0  0
 11 17  2  0  0  0  0
 12 18  1  0  0  0  0
 13  8  1  0  0  0  0
 14 26  1  6  0  0  0
 14  6  1  0  0  0  0
 14  7  1  0  0  0  0
 15 13  1  0  0  0  0
 17 12  1  0  0  0  0
 17 16  1  0  0  0  0
 19  1  1  0  0  0  0
 22  4  1  0  0  0  0
 22 12  2  0  0  0  0
 23 18  1  1  0  0  0
 23  8  1  0  0  0  0
 25 24  1  0  0  0  0
 27 26  1  0  0  0  0
 28 27  1  0  0  0  0
 29 28  1  0  0  0  0
 30 31  1  1  0  0  0
 30 29  1  0  0  0  0
 30 32  1  0  0  0  0
M  END
>  <MODEL>
1

>  <REMARK>
 VINA RESULT:      -9.1      0.000      0.000
  Name = 
  6 active torsions:
  status: ('A' for Active; 'I' for Inactive)
    1  A    between atoms: C_1  and  N_10
    2  A    between atoms: C_2  and  O_12
    3  A    between atoms: C_2  and  C_24
    4  A    between atoms: C_8  and  C_23
    5  A    between atoms: N_10  and  C_24
    6  A    between atoms: O_12  and  C_21
                            x       y       z     vdW  Elec       q    Type
                         _______ _______ _______ _____ _____    ______ ____

>  <TORSDO>
F 6

$$$$
=
 OpenBabel11052416543D

 32 36  0  0  1  0  0  0  0  0999 V2000
  187.5210  178.0330  142.1140 C   0  0  0  0  0  0  0  0  0  0  0  0
  183.6350  179.1630  144.8410 C   0  0  0  0  0  3  0  0  0  0  0  0
  184.3170  178.8690  145.9570 C   0  0  0  0  0  3  0  0  0  0  0  0
  189.7540  177.5110  143.2000 C   0  0  2  0  0  3  0  0  0  0  0  0
  190.2310  176.7870  144.4490 C   0  0  1  0  0  3  0  0  0  0  0  0
  187.3730  177.9920  139.5800 C   0  0  2  0  0  3  0  0  0  0  0  0
  185.3090  178.5430  140.9460 C   0  0  0  0  0  2  0  0  0  0  0  0
  190.6920  176.9550  146.6600 C   0  0  0  0  0  0  0  0  0  0  0  0
  183.9910  178.5040  143.5350 C   0  0  0  0  0  2  0  0  0  0  0  0
  186.1340  178.3100  142.1900 C   0  0  0  0  0  0  0  0  0  0  0  0
  185.4810  178.2710  143.4340 C   0  0  0  0  0  0  0  0  0  0  0  0
  187.5730  177.6930  144.5470 C   0  0  0  0  0  0  0  0  0  0  0  0
  191.8710  176.3370  145.9940 C   0  0  0  0  0  2  0  0  0  0  0  0
  186.1410  178.8970  139.7090 C   0  0  2  0  0  3  0  0  0  0  0  0
  191.6700  176.5680  144.5590 N   0  0  0  0  0  2  0  0  0  0  0  0
  185.4480  177.8760  145.9180 C   0  0  0  0  0  2  0  0  0  0  0  0
  186.1980  177.9610  144.6070 C   0  0  0  0  0  0  0  0  0  0  0  0
  188.3040  177.2790  145.8180 C   0  0  0  0  0  2  0  0  0  0  0  0
  188.2640  178.1590  140.8060 C   0  0  0  0  0  2  0  0  0  0  0  0
  190.4100  178.7390  143.0680 O   0  0  0  0  0  1  0  0  0  0  0  0
  190.5400  177.0240  147.8690 O   0  0  0  0  0  0  0  0  0  0  0  0
  188.2470  177.7350  143.2870 C   0  0  0  0  0  0  0  0  0  0  0  0
  189.7890  177.5460  145.6640 C   0  0  2  0  0  3  0  0  0  0  0  0
  189.6300  177.8530  138.4250 C   0  0  0  0  0  1  0  0  0  0  0  0
  188.1680  178.2560  138.3000 C   0  0  0  0  0  2  0  0  0  0  0  0
  185.3580  178.9680  138.5330 O   0  0  0  0  0  0  0  0  0  0  0  0
  184.4310  177.9120  138.5300 C   0  0  0  0  0  2  0  0  0  0  0  0
  183.0910  178.4180  138.0400 C   0  0  0  0  0  2  0  0  0  0  0  0
  182.0760  177.4090  138.2790 N   0  0  0  0  0  2  0  0  0  0  0  0
  182.2220  176.9700  139.6570 C   0  0  1  0  0  3  0  0  0  0  0  0
  181.3240  177.8010  140.5470 C   0  0  0  0  0  1  0  0  0  0  0  0
  181.8610  175.6260  139.7630 O   0  0  0  0  0  1  0  0  0  0  0  0
  1 10  2  0  0  0  0
  1 22  1  0  0  0  0
  2  3  2  0  0  0  0
  4 20  1  1  0  0  0
  4 22  1  0  0  0  0
  4  5  1  0  0  0  0
  5 15  1  6  0  0  0
  5 23  1  0  0  0  0
  6 25  1  6  0  0  0
  6 14  1  0  0  0  0
  6 19  1  0  0  0  0
  7 10  1  0  0  0  0
  8 21  2  0  0  0  0
  9  2  1  0  0  0  0
 10 11  1  0  0  0  0
 11  9  1  0  0  0  0
 11 17  2  0  0  0  0
 12 17  1  0  0  0  0
 12 18  1  0  0  0  0
 13  8  1  0  0  0  0
 14 26  1  6  0  0  0
 14  7  1  0  0  0  0
 15 13  1  0  0  0  0
 16  3  1  0  0  0  0
 17 16  1  0  0  0  0
 19  1  1  0  0  0  0
 22 12  2  0  0  0  0
 23 18  1  1  0  0  0
 23  8  1  0  0  0  0
 25 24  1  0  0  0  0
 27 26  1  0  0  0  0
 28 29  1  0  0  0  0
 28 27  1  0  0  0  0
 29 30  1  0  0  0  0
 30 32  1  0  0  0  0
 30 31  1  1  0  0  0
M  END
>  <MODEL>
2

>  <REMARK>
 VINA RESULT:      -9.1      1.854      2.619
  Name = 
  6 active torsions:
  status: ('A' for Active; 'I' for Inactive)
    1  A    between atoms: C_1  and  N_10
    2  A    between atoms: C_2  and  O_12
    3  A    between atoms: C_2  and  C_24
    4  A    between atoms: C_8  and  C_23
    5  A    between atoms: N_10  and  C_24
    6  A    between atoms: O_12  and  C_21
                            x       y       z     vdW  Elec       q    Type
                         _______ _______ _______ _____ _____    ______ ____

>  <TORSDO>
F 6

$$$$
=
 OpenBabel11052416543D

 32 36  0  0  1  0  0  0  0  0999 V2000
  188.0290  177.9410  142.3170 C   0  0  0  0  0  0  0  0  0  0  0  0
  183.5140  179.2780  143.5980 C   0  0  0  0  0  3  0  0  0  0  0  0
  183.8250  179.1340  144.8930 C   0  0  0  0  0  3  0  0  0  0  0  0
  189.8260  177.6070  144.0780 C   0  0  2  0  0  3  0  0  0  0  0  0
  189.8980  177.0460  145.4880 C   0  0  1  0  0  3  0  0  0  0  0  0
  188.6510  177.6020  139.8800 C   0  0  2  0  0  3  0  0  0  0  0  0
  186.2780  178.2540  140.4870 C   0  0  0  0  0  2  0  0  0  0  0  0
  189.6740  177.4810  147.7000 C   0  0  0  0  0  0  0  0  0  0  0  0
  184.2400  178.4820  142.5470 C   0  0  0  0  0  2  0  0  0  0  0  0
  186.6870  178.1890  141.9400 C   0  0  0  0  0  0  0  0  0  0  0  0
  185.6900  178.2770  142.9260 C   0  0  0  0  0  0  0  0  0  0  0  0
  187.3430  177.8870  144.6760 C   0  0  0  0  0  0  0  0  0  0  0  0
  190.9910  176.8220  147.4960 C   0  0  0  0  0  2  0  0  0  0  0  0
  187.4460  178.4840  139.5240 C   0  0  2  0  0  3  0  0  0  0  0  0
  191.2350  176.8790  146.0510 N   0  0  0  0  0  2  0  0  0  0  0  0
  184.9060  178.1730  145.3140 C   0  0  0  0  0  2  0  0  0  0  0  0
  186.0160  178.1250  144.2880 C   0  0  0  0  0  0  0  0  0  0  0  0
  187.6530  177.6430  146.1470 C   0  0  0  0  0  2  0  0  0  0  0  0
  189.1330  177.9340  141.2870 C   0  0  0  0  0  2  0  0  0  0  0  0
  190.5040  178.8280  144.0040 O   0  0  0  0  0  1  0  0  0  0  0  0
  189.1650  177.6870  148.7900 O   0  0  0  0  0  0  0  0  0  0  0  0
  188.3650  177.8000  143.6800 C   0  0  0  0  0  0  0  0  0  0  0  0
  189.1180  177.9290  146.4160 C   0  0  2  0  0  3  0  0  0  0  0  0
  190.8180  176.6140  138.9980 C   0  0  0  0  0  1  0  0  0  0  0  0
  189.7970  177.7370  138.8750 C   0  0  0  0  0  2  0  0  0  0  0  0
  187.0550  178.3970  138.1680 O   0  0  0  0  0  0  0  0  0  0  0  0
  185.6640  178.2040  138.0990 C   0  0  0  0  0  2  0  0  0  0  0  0
  185.3600  177.0640  137.1510 C   0  0  0  0  0  2  0  0  0  0  0  0
  183.9220  176.8880  137.0530 N   0  0  0  0  0  2  0  0  0  0  0  0
  183.3480  177.3220  138.3160 C   0  0  1  0  0  3  0  0  0  0  0  0
  182.1170  178.1600  138.0470 C   0  0  0  0  0  1  0  0  0  0  0  0
  182.9910  176.2080  139.0770 O   0  0  0  0  0  1  0  0  0  0  0  0
  1 22  1  0  0  0  0
  2  3  2  0  0  0  0
  3 16  1  0  0  0  0
  4 20  1  1  0  0  0
  4  5  1  0  0  0  0
  5 15  1  1  0  0  0
  5 23  1  0  0  0  0
  6 25  1  6  0  0  0
  6 19  1  0  0  0  0
  7 10  1  0  0  0  0
  8 21  2  0  0  0  0
  9 11  1  0  0  0  0
  9  2  1  0  0  0  0
 10  1  2  0  0  0  0
 10 11  1  0  0  0  0
 11 17  2  0  0  0  0
 12 18  1  0  0  0  0
 13  8  1  0  0  0  0
 14 26  1  6  0  0  0
 14  6  1  0  0  0  0
 14  7  1  0  0  0  0
 15 13  1  0  0  0  0
 17 12  1  0  0  0  0
 17 16  1  0  0  0  0
 19  1  1  0  0  0  0
 22  4  1  0  0  0  0
 22 12  2  0  0  0  0
 23 18  1  1  0  0  0
 23  8  1  0  0  0  0
 25 24  1  0  0  0  0
 27 26  1  0  0  0  0
 28 27  1  0  0  0  0
 29 28  1  0  0  0  0
 29 30  1  0  0  0  0
 30 31  1  6  0  0  0
 30 32  1  0  0  0  0
M  END
>  <MODEL>
3

>  <REMARK>
 VINA RESULT:      -9.0      1.208      1.885
  Name = 
  6 active torsions:
  status: ('A' for Active; 'I' for Inactive)
    1  A    between atoms: C_1  and  N_10
    2  A    between atoms: C_2  and  O_12
    3  A    between atoms: C_2  and  C_24
    4  A    between atoms: C_8  and  C_23
    5  A    between atoms: N_10  and  C_24
    6  A    between atoms: O_12  and  C_21
                            x       y       z     vdW  Elec       q    Type
                         _______ _______ _______ _____ _____    ______ ____

>  <TORSDO>
F 6

$$$$
=
 OpenBabel11052416543D

 32 36  0  0  1  0  0  0  0  0999 V2000
  189.5250  177.5930  141.9450 C   0  0  0  0  0  0  0  0  0  0  0  0
  184.9400  179.2350  142.2420 C   0  0  0  0  0  3  0  0  0  0  0  0
  184.9840  179.1530  143.5790 C   0  0  0  0  0  3  0  0  0  0  0  0
  190.9220  177.2730  144.0390 C   0  0  2  0  0  3  0  0  0  0  0  0
  190.6840  176.7950  145.4620 C   0  0  1  0  0  3  0  0  0  0  0  0
  190.5860  177.0760  139.6970 C   0  0  2  0  0  3  0  0  0  0  0  0
  188.1850  177.8850  139.7920 C   0  0  0  0  0  2  0  0  0  0  0  0
  190.0620  177.3740  147.5620 C   0  0  0  0  0  0  0  0  0  0  0  0
  185.8050  178.3410  141.3960 C   0  0  0  0  0  2  0  0  0  0  0  0
  188.3000  177.8860  141.2980 C   0  0  0  0  0  0  0  0  0  0  0  0
  187.1380  178.0850  142.0630 C   0  0  0  0  0  0  0  0  0  0  0  0
  188.3930  177.7160  144.1210 C   0  0  0  0  0  0  0  0  0  0  0  0
  191.3500  176.6360  147.6540 C   0  0  0  0  0  2  0  0  0  0  0  0
  189.5310  177.9960  139.0680 C   0  0  2  0  0  3  0  0  0  0  0  0
  191.8730  176.5940  146.2840 N   0  0  0  0  0  2  0  0  0  0  0  0
  185.9010  178.1650  144.2510 C   0  0  0  0  0  2  0  0  0  0  0  0
  187.1830  177.9980  143.4680 C   0  0  0  0  0  0  0  0  0  0  0  0
  188.3950  177.5450  145.6350 C   0  0  0  0  0  2  0  0  0  0  0  0
  190.8060  177.4670  141.1540 C   0  0  0  0  0  2  0  0  0  0  0  0
  191.6760  178.4510  144.0410 O   0  0  0  0  0  1  0  0  0  0  0  0
  189.3650  177.6700  148.5190 O   0  0  0  0  0  0  0  0  0  0  0  0
  189.5810  177.5170  143.3520 C   0  0  0  0  0  0  0  0  0  0  0  0
  189.7950  177.7710  146.1730 C   0  0  2  0  0  3  0  0  0  0  0  0
  193.1150  177.2540  139.8510 C   0  0  0  0  0  1  0  0  0  0  0  0
  191.9110  177.0910  138.9330 C   0  0  0  0  0  2  0  0  0  0  0  0
  189.4060  177.8490  137.6670 O   0  0  0  0  0  0  0  0  0  0  0  0
  188.4610  176.8450  137.3900 C   0  0  0  0  0  2  0  0  0  0  0  0
  188.7220  176.2740  136.0130 C   0  0  0  0  0  2  0  0  0  0  0  0
  189.8650  175.3800  136.0690 N   0  0  0  0  0  2  0  0  0  0  0  0
  189.6190  174.4350  137.1460 C   0  0  1  0  0  3  0  0  0  0  0  0
  188.9400  173.2030  136.5880 C   0  0  0  0  0  1  0  0  0  0  0  0
  190.8300  174.0680  137.7350 O   0  0  0  0  0  1  0  0  0  0  0  0
  1 22  1  0  0  0  0
  2  3  2  0  0  0  0
  3 16  1  0  0  0  0
  4 20  1  1  0  0  0
  4  5  1  0  0  0  0
  5 23  1  0  0  0  0
  5 15  1  1  0  0  0
  6 25  1  6  0  0  0
  6 19  1  0  0  0  0
  7 10  1  0  0  0  0
  8 13  1  0  0  0  0
  8 21  2  0  0  0  0
  9 11  1  0  0  0  0
  9  2  1  0  0  0  0
 10  1  2  0  0  0  0
 10 11  1  0  0  0  0
 11 17  2  0  0  0  0
 12 18  1  0  0  0  0
 14 26  1  6  0  0  0
 14  6  1  0  0  0  0
 14  7  1  0  0  0  0
 15 13  1  0  0  0  0
 17 12  1  0  0  0  0
 17 16  1  0  0  0  0
 19  1  1  0  0  0  0
 22  4  1  0  0  0  0
 22 12  2  0  0  0  0
 23 18  1  6  0  0  0
 23  8  1  0  0  0  0
 25 24  1  0  0  0  0
 27 26  1  0  0  0  0
 28 29  1  0  0  0  0
 28 27  1  0  0  0  0
 29 30  1  0  0  0  0
 30 31  1  6  0  0  0
 30 32  1  0  0  0  0
M  END
>  <MODEL>
4

>  <REMARK>
 VINA RESULT:      -8.9      1.608      2.128
  Name = 
  6 active torsions:
  status: ('A' for Active; 'I' for Inactive)
    1  A    between atoms: C_1  and  N_10
    2  A    between atoms: C_2  and  O_12
    3  A    between atoms: C_2  and  C_24
    4  A    between atoms: C_8  and  C_23
    5  A    between atoms: N_10  and  C_24
    6  A    between atoms: O_12  and  C_21
                            x       y       z     vdW  Elec       q    Type
                         _______ _______ _______ _____ _____    ______ ____

>  <TORSDO>
F 6

$$$$
=
 OpenBabel11052416543D

 32 36  0  0  1  0  0  0  0  0999 V2000
  186.8480  178.2010  143.2100 C   0  0  0  0  0  0  0  0  0  0  0  0
  189.4720  177.1100  139.2440 C   0  0  0  0  0  3  0  0  0  0  0  0
  190.5350  176.8280  140.0090 C   0  0  0  0  0  3  0  0  0  0  0  0
  187.7800  177.7810  145.5330 C   0  0  2  0  0  3  0  0  0  0  0  0
  189.1350  177.8900  146.2140 C   0  0  1  0  0  3  0  0  0  0  0  0
  184.5080  179.1630  143.0060 C   0  0  2  0  0  3  0  0  0  0  0  0
  185.8400  178.6560  140.9100 C   0  0  0  0  0  2  0  0  0  0  0  0
  191.0950  176.8550  146.6800 C   0  0  0  0  0  0  0  0  0  0  0  0
  188.4280  178.0850  139.7190 C   0  0  0  0  0  2  0  0  0  0  0  0
  186.9860  178.2420  141.8010 C   0  0  0  0  0  0  0  0  0  0  0  0
  188.2390  177.9900  141.2160 C   0  0  0  0  0  0  0  0  0  0  0  0
  189.2310  177.6430  143.4170 C   0  0  0  0  0  0  0  0  0  0  0  0
  190.5410  177.3790  147.9570 C   0  0  0  0  0  2  0  0  0  0  0  0
  184.4690  178.5780  141.5880 C   0  0  2  0  0  3  0  0  0  0  0  0
  189.1440  177.7200  147.6640 N   0  0  0  0  0  2  0  0  0  0  0  0
  190.6990  177.4830  141.3550 C   0  0  0  0  0  2  0  0  0  0  0  0
  189.3570  177.6950  142.0210 C   0  0  0  0  0  0  0  0  0  0  0  0
  190.4750  177.4050  144.2650 C   0  0  0  0  0  2  0  0  0  0  0  0
  185.4960  178.3760  143.8600 C   0  0  0  0  0  2  0  0  0  0  0  0
  187.1720  176.5630  145.8490 O   0  0  0  0  0  1  0  0  0  0  0  0
  192.2210  176.4020  146.5490 O   0  0  0  0  0  0  0  0  0  0  0  0
  187.9610  177.8930  144.0210 C   0  0  0  0  0  0  0  0  0  0  0  0
  190.0700  176.8760  145.6280 C   0  0  2  0  0  3  0  0  0  0  0  0
  183.1920  178.8910  145.1610 C   0  0  0  0  0  1  0  0  0  0  0  0
  183.1290  179.1900  143.6700 C   0  0  0  0  0  2  0  0  0  0  0  0
  183.4350  179.1070  140.7800 O   0  0  0  0  0  0  0  0  0  0  0  0
  182.7080  178.0490  140.2070 C   0  0  0  0  0  2  0  0  0  0  0  0
  181.2430  178.1970  140.5550 C   0  0  0  0  0  2  0  0  0  0  0  0
  180.9380  179.5990  140.7750 N   0  0  0  0  0  2  0  0  0  0  0  0
  179.8380  179.6570  141.7240 C   0  0  1  0  0  3  0  0  0  0  0  0
  179.7720  178.3570  142.4960 C   0  0  0  0  0  1  0  0  0  0  0  0
  180.0390  180.7130  142.6140 O   0  0  0  0  0  1  0  0  0  0  0  0
  1 19  1  0  0  0  0
  1 22  1  0  0  0  0
  2  9  1  0  0  0  0
  2  3  2  0  0  0  0
  3 16  1  0  0  0  0
  4 20  1  6  0  0  0
  4  5  1  0  0  0  0
  5 15  1  1  0  0  0
  6 25  1  1  0  0  0
  6 19  1  0  0  0  0
  7 14  1  0  0  0  0
  7 10  1  0  0  0  0
  8 13  1  0  0  0  0
  9 11  1  0  0  0  0
 10  1  2  0  0  0  0
 11 10  1  0  0  0  0
 11 17  2  0  0  0  0
 12 22  2  0  0  0  0
 12 18  1  0  0  0  0
 14 26  1  6  0  0  0
 14  6  1  0  0  0  0
 15 13  1  0  0  0  0
 16 17  1  0  0  0  0
 17 12  1  0  0  0  0
 21  8  2  0  0  0  0
 22  4  1  0  0  0  0
 23 18  1  6  0  0  0
 23  5  1  0  0  0  0
 23  8  1  0  0  0  0
 25 24  1  0  0  0  0
 27 28  1  0  0  0  0
 27 26  1  0  0  0  0
 28 29  1  0  0  0  0
 29 30  1  0  0  0  0
 30 31  1  1  0  0  0
 30 32  1  0  0  0  0
M  END
>  <MODEL>
5

>  <REMARK>
 VINA RESULT:      -8.7      2.817      5.638
  Name = 
  6 active torsions:
  status: ('A' for Active; 'I' for Inactive)
    1  A    between atoms: C_1  and  N_10
    2  A    between atoms: C_2  and  O_12
    3  A    between atoms: C_2  and  C_24
    4  A    between atoms: C_8  and  C_23
    5  A    between atoms: N_10  and  C_24
    6  A    between atoms: O_12  and  C_21
                            x       y       z     vdW  Elec       q    Type
                         _______ _______ _______ _____ _____    ______ ____

>  <TORSDO>
F 6

$$$$
=
 OpenBabel11052416543D

 32 36  0  0  1  0  0  0  0  0999 V2000
  189.1360  177.6230  142.0670 C   0  0  0  0  0  0  0  0  0  0  0  0
  184.5730  179.2480  142.6650 C   0  0  0  0  0  3  0  0  0  0  0  0
  184.7080  179.1750  143.9960 C   0  0  0  0  0  3  0  0  0  0  0  0
  190.6730  177.3220  144.0640 C   0  0  2  0  0  3  0  0  0  0  0  0
  190.5330  176.8530  145.5030 C   0  0  1  0  0  3  0  0  0  0  0  0
  190.0440  177.0950  139.7560 C   0  0  2  0  0  3  0  0  0  0  0  0
  187.6510  177.8950  140.0080 C   0  0  0  0  0  2  0  0  0  0  0  0
  190.0520  177.4430  147.6360 C   0  0  0  0  0  0  0  0  0  0  0  0
  185.3830  178.3510  141.7670 C   0  0  0  0  0  2  0  0  0  0  0  0
  187.8680  177.9060  141.5030 C   0  0  0  0  0  0  0  0  0  0  0  0
  186.7590  178.1050  142.3440 C   0  0  0  0  0  0  0  0  0  0  0  0
  188.1530  177.7560  144.3150 C   0  0  0  0  0  0  0  0  0  0  0  0
  191.3480  176.7110  147.6460 C   0  0  0  0  0  2  0  0  0  0  0  0
  188.9440  178.0060  139.1950 C   0  0  2  0  0  3  0  0  0  0  0  0
  191.7760  176.6620  146.2440 N   0  0  0  0  0  2  0  0  0  0  0  0
  185.6730  178.1950  144.6110 C   0  0  0  0  0  2  0  0  0  0  0  0
  186.9000  178.0280  143.7430 C   0  0  0  0  0  0  0  0  0  0  0  0
  188.2580  177.5950  145.8260 C   0  0  0  0  0  2  0  0  0  0  0  0
  190.3600  177.4960  141.1930 C   0  0  0  0  0  2  0  0  0  0  0  0
  191.4190  178.5030  144.0070 O   0  0  0  0  0  1  0  0  0  0  0  0
  189.4200  177.7430  148.6360 O   0  0  0  0  0  0  0  0  0  0  0  0
  189.2870  177.5560  143.4680 C   0  0  0  0  0  0  0  0  0  0  0  0
  189.6900  177.8300  146.2660 C   0  0  2  0  0  3  0  0  0  0  0  0
  192.5780  177.2560  139.7390 C   0  0  0  0  0  1  0  0  0  0  0  0
  191.3140  177.1100  138.9040 C   0  0  0  0  0  2  0  0  0  0  0  0
  188.7250  177.8490  137.8060 O   0  0  0  0  0  0  0  0  0  0  0  0
  187.3780  178.1260  137.5160 C   0  0  0  0  0  2  0  0  0  0  0  0
  186.9570  177.3490  136.2870 C   0  0  0  0  0  2  0  0  0  0  0  0
  185.5090  177.3640  136.1790 N   0  0  0  0  0  2  0  0  0  0  0  0
  184.9760  176.9970  137.4800 C   0  0  1  0  0  3  0  0  0  0  0  0
  183.7600  177.8450  137.7830 C   0  0  0  0  0  1  0  0  0  0  0  0
  184.6110  175.6500  137.4770 O   0  0  0  0  0  1  0  0  0  0  0  0
  1 22  1  0  0  0  0
  2  3  2  0  0  0  0
  3 16  1  0  0  0  0
  4 20  1  1  0  0  0
  4  5  1  0  0  0  0
  5 15  1  1  0  0  0
  5 23  1  0  0  0  0
  6 25  1  6  0  0  0
  6 19  1  0  0  0  0
  7 10  1  0  0  0  0
  8 13  1  0  0  0  0
  8 21  2  0  0  0  0
  9 11  1  0  0  0  0
  9  2  1  0  0  0  0
 10  1  2  0  0  0  0
 10 11  1  0  0  0  0
 11 17  2  0  0  0  0
 12 18  1  0  0  0  0
 14 26  1  6  0  0  0
 14  6  1  0  0  0  0
 14  7  1  0  0  0  0
 15 13  1  0  0  0  0
 17 12  1  0  0  0  0
 17 16  1  0  0  0  0
 19  1  1  0  0  0  0
 22  4  1  0  0  0  0
 22 12  2  0  0  0  0
 23 18  1  1  0  0  0
 23  8  1  0  0  0  0
 25 24  1  0  0  0  0
 27 26  1  0  0  0  0
 28 27  1  0  0  0  0
 29 28  1  0  0  0  0
 29 30  1  0  0  0  0
 30 31  1  6  0  0  0
 32 30  1  0  0  0  0
M  END
>  <MODEL>
6

>  <REMARK>
 VINA RESULT:      -8.5      1.224      1.824
  Name = 
  6 active torsions:
  status: ('A' for Active; 'I' for Inactive)
    1  A    between atoms: C_1  and  N_10
    2  A    between atoms: C_2  and  O_12
    3  A    between atoms: C_2  and  C_24
    4  A    between atoms: C_8  and  C_23
    5  A    between atoms: N_10  and  C_24
    6  A    between atoms: O_12  and  C_21
                            x       y       z     vdW  Elec       q    Type
                         _______ _______ _______ _____ _____    ______ ____

>  <TORSDO>
F 6

$$$$
=
 OpenBabel11052416543D

 32 36  0  0  1  0  0  0  0  0999 V2000
  186.3800  178.2320  143.0920 C   0  0  0  0  0  0  0  0  0  0  0  0
  189.9120  177.2430  139.8740 C   0  0  0  0  0  3  0  0  0  0  0  0
  190.7870  177.0570  140.8720 C   0  0  0  0  0  3  0  0  0  0  0  0
  186.7790  177.9360  145.5810 C   0  0  2  0  0  3  0  0  0  0  0  0
  187.9300  178.1590  146.5480 C   0  0  1  0  0  3  0  0  0  0  0  0
  184.0920  179.0160  142.3220 C   0  0  2  0  0  3  0  0  0  0  0  0
  185.9010  178.5580  140.6060 C   0  0  0  0  0  2  0  0  0  0  0  0
  189.7950  177.2810  147.4880 C   0  0  0  0  0  0  0  0  0  0  0  0
  188.7260  178.1500  140.0600 C   0  0  0  0  0  2  0  0  0  0  0  0
  186.8360  178.2500  141.7510 C   0  0  0  0  0  0  0  0  0  0  0  0
  188.2040  178.0770  141.4770 C   0  0  0  0  0  0  0  0  0  0  0  0
  188.6840  177.8550  143.8580 C   0  0  0  0  0  0  0  0  0  0  0  0
  188.9290  177.7930  148.5840 C   0  0  0  0  0  2  0  0  0  0  0  0
  184.4190  178.3970  140.9570 C   0  0  2  0  0  3  0  0  0  0  0  0
  187.6180  178.0240  147.9670 N   0  0  0  0  0  2  0  0  0  0  0  0
  190.5930  177.7540  142.1930 C   0  0  0  0  0  2  0  0  0  0  0  0
  189.1240  177.8830  142.5260 C   0  0  0  0  0  0  0  0  0  0  0  0
  189.7120  177.7280  144.9750 C   0  0  0  0  0  2  0  0  0  0  0  0
  184.9070  178.3230  143.4090 C   0  0  0  0  0  2  0  0  0  0  0  0
  186.1960  176.6840  145.7980 O   0  0  0  0  0  1  0  0  0  0  0  0
  190.9480  176.9090  147.6350 O   0  0  0  0  0  0  0  0  0  0  0  0
  187.2950  178.0260  144.1470 C   0  0  0  0  0  0  0  0  0  0  0  0
  189.0400  177.2030  146.2300 C   0  0  2  0  0  3  0  0  0  0  0  0
  182.3360  178.8180  144.1460 C   0  0  0  0  0  1  0  0  0  0  0  0
  182.5990  178.9580  142.6530 C   0  0  0  0  0  2  0  0  0  0  0  0
  183.5660  178.8290  139.9140 O   0  0  0  0  0  0  0  0  0  0  0  0
  184.2750  178.8160  138.7010 C   0  0  0  0  0  2  0  0  0  0  0  0
  183.6770  177.7750  137.7790 C   0  0  0  0  0  2  0  0  0  0  0  0
  184.6190  176.6830  137.6070 N   0  0  0  0  0  2  0  0  0  0  0  0
  185.8030  177.2340  136.9690 C   0  0  1  0  0  3  0  0  0  0  0  0
  186.9860  176.3280  137.2380 C   0  0  0  0  0  1  0  0  0  0  0  0
  185.5960  177.3260  135.5920 O   0  0  0  0  0  1  0  0  0  0  0  0
  1 19  1  0  0  0  0
  1 22  1  0  0  0  0
  2  9  1  0  0  0  0
  2  3  2  0  0  0  0
  3 16  1  0  0  0  0
  4 20  1  1  0  0  0
  4  5  1  0  0  0  0
  5 15  1  1  0  0  0
  6 25  1  1  0  0  0
  6 19  1  0  0  0  0
  7 14  1  0  0  0  0
  7 10  1  0  0  0  0
  8 21  2  0  0  0  0
  8 13  1  0  0  0  0
  9 11  1  0  0  0  0
 10  1  2  0  0  0  0
 11 10  1  0  0  0  0
 11 17  2  0  0  0  0
 12 22  2  0  0  0  0
 12 18  1  0  0  0  0
 14 26  1  6  0  0  0
 14  6  1  0  0  0  0
 15 13  1  0  0  0  0
 16 17  1  0  0  0  0
 17 12  1  0  0  0  0
 22  4  1  0  0  0  0
 23 18  1  6  0  0  0
 23  5  1  0  0  0  0
 23  8  1  0  0  0  0
 25 24  1  0  0  0  0
 27 26  1  0  0  0  0
 28 27  1  0  0  0  0
 29 28  1  0  0  0  0
 30 31  1  6  0  0  0
 30 29  1  0  0  0  0
 32 30  1  0  0  0  0
M  END
>  <MODEL>
7

>  <REMARK>
 VINA RESULT:      -8.5      1.824      4.282
  Name = 
  6 active torsions:
  status: ('A' for Active; 'I' for Inactive)
    1  A    between atoms: C_1  and  N_10
    2  A    between atoms: C_2  and  O_12
    3  A    between atoms: C_2  and  C_24
    4  A    between atoms: C_8  and  C_23
    5  A    between atoms: N_10  and  C_24
    6  A    between atoms: O_12  and  C_21
                            x       y       z     vdW  Elec       q    Type
                         _______ _______ _______ _____ _____    ______ ____

>  <TORSDO>
F 6

$$$$
=
 OpenBabel11052416543D

 32 36  0  0  1  0  0  0  0  0999 V2000
  185.5850  178.1440  142.4430 C   0  0  0  0  0  0  0  0  0  0  0  0
  185.3870  178.8810  147.2630 C   0  0  0  0  0  3  0  0  0  0  0  0
  186.7090  178.6900  147.3590 C   0  0  0  0  0  3  0  0  0  0  0  0
  187.8190  177.9030  141.2630 C   0  0  2  0  0  3  0  0  0  0  0  0
  189.1650  177.2650  141.5690 C   0  0  1  0  0  3  0  0  0  0  0  0
  183.4670  178.0330  141.0490 C   0  0  2  0  0  3  0  0  0  0  0  0
  183.2990  178.3740  143.5550 C   0  0  0  0  0  2  0  0  0  0  0  0
  191.1980  177.5310  142.5300 C   0  0  0  0  0  0  0  0  0  0  0  0
  184.6040  178.2390  146.1480 C   0  0  0  0  0  2  0  0  0  0  0  0
  184.8040  178.2630  143.6190 C   0  0  0  0  0  0  0  0  0  0  0  0
  185.4220  178.1750  144.8780 C   0  0  0  0  0  0  0  0  0  0  0  0
  187.5980  177.8640  143.8230 C   0  0  0  0  0  0  0  0  0  0  0  0
  191.4110  177.0380  141.1430 C   0  0  0  0  0  2  0  0  0  0  0  0
  182.7670  178.7940  142.1820 C   0  0  2  0  0  3  0  0  0  0  0  0
  190.1210  177.2140  140.4660 N   0  0  0  0  0  2  0  0  0  0  0  0
  187.4300  177.8320  146.3530 C   0  0  0  0  0  2  0  0  0  0  0  0
  186.8120  177.9740  144.9800 C   0  0  0  0  0  0  0  0  0  0  0  0
  189.0850  177.5630  143.9630 C   0  0  0  0  0  2  0  0  0  0  0  0
  184.9630  178.3260  141.0800 C   0  0  0  0  0  2  0  0  0  0  0  0
  187.9960  179.1950  140.7580 O   0  0  0  0  0  1  0  0  0  0  0  0
  192.0730  177.6080  143.3780 O   0  0  0  0  0  0  0  0  0  0  0  0
  186.9800  177.9560  142.5380 C   0  0  0  0  0  0  0  0  0  0  0  0
  189.8150  177.9940  142.7060 C   0  0  2  0  0  3  0  0  0  0  0  0
  183.4070  179.6750  139.1130 C   0  0  0  0  0  1  0  0  0  0  0  0
  182.8850  178.3590  139.6720 C   0  0  0  0  0  2  0  0  0  0  0  0
  181.3550  178.7510  142.1130 O   0  0  0  0  0  0  0  0  0  0  0  0
  180.8200  179.7720  142.9170 C   0  0  0  0  0  2  0  0  0  0  0  0
  179.4390  180.1370  142.4180 C   0  0  0  0  0  2  0  0  0  0  0  0
  179.5280  181.3050  141.5590 N   0  0  0  0  0  2  0  0  0  0  0  0
  179.9690  180.8460  140.2530 C   0  0  1  0  0  3  0  0  0  0  0  0
  179.0210  179.7790  139.7490 C   0  0  0  0  0  1  0  0  0  0  0  0
  179.9790  181.9150  139.3570 O   0  0  0  0  0  1  0  0  0  0  0  0
  1 22  2  0  0  0  0
  1 10  1  0  0  0  0
  2  3  2  0  0  0  0
  4 20  1  1  0  0  0
  4  5  1  0  0  0  0
  4 22  1  0  0  0  0
  5 15  1  6  0  0  0
  5 23  1  0  0  0  0
  6 25  1  6  0  0  0
  6 19  1  0  0  0  0
  6 14  1  0  0  0  0
  7 10  1  0  0  0  0
  8 23  1  0  0  0  0
  8 21  2  0  0  0  0
  9  2  1  0  0  0  0
 10 11  2  0  0  0  0
 11 17  1  0  0  0  0
 11  9  1  0  0  0  0
 12 18  1  0  0  0  0
 12 17  2  0  0  0  0
 13  8  1  0  0  0  0
 14 26  1  1  0  0  0
 14  7  1  0  0  0  0
 15 13  1  0  0  0  0
 16  3  1  0  0  0  0
 17 16  1  0  0  0  0
 19  1  1  0  0  0  0
 22 12  1  0  0  0  0
 23 18  1  1  0  0  0
 24 25  1  0  0  0  0
 26 27  1  0  0  0  0
 28 27  1  0  0  0  0
 29 28  1  0  0  0  0
 30 31  1  6  0  0  0
 30 29  1  0  0  0  0
 32 30  1  0  0  0  0
M  END
>  <MODEL>
8

>  <REMARK>
 VINA RESULT:      -8.5      3.461      5.678
  Name = 
  6 active torsions:
  status: ('A' for Active; 'I' for Inactive)
    1  A    between atoms: C_1  and  N_10
    2  A    between atoms: C_2  and  O_12
    3  A    between atoms: C_2  and  C_24
    4  A    between atoms: C_8  and  C_23
    5  A    between atoms: N_10  and  C_24
    6  A    between atoms: O_12  and  C_21
                            x       y       z     vdW  Elec       q    Type
                         _______ _______ _______ _____ _____    ______ ____

>  <TORSDO>
F 6

$$$$
=
 OpenBabel11052416543D

 32 36  0  0  1  0  0  0  0  0999 V2000
  185.5180  178.3920  142.4830 C   0  0  0  0  0  0  0  0  0  0  0  0
  185.6500  178.7100  147.3500 C   0  0  0  0  0  3  0  0  0  0  0  0
  186.9470  178.3750  147.3490 C   0  0  0  0  0  3  0  0  0  0  0  0
  187.6480  178.0260  141.1530 C   0  0  2  0  0  3  0  0  0  0  0  0
  188.9290  177.2270  141.3210 C   0  0  1  0  0  3  0  0  0  0  0  0
  183.3300  178.6270  141.2160 C   0  0  2  0  0  3  0  0  0  0  0  0
  183.3310  178.7580  143.7480 C   0  0  0  0  0  2  0  0  0  0  0  0
  191.0270  177.1920  142.1750 C   0  0  0  0  0  0  0  0  0  0  0  0
  184.7460  178.2560  146.2360 C   0  0  0  0  0  2  0  0  0  0  0  0
  184.8160  178.4850  143.7090 C   0  0  0  0  0  0  0  0  0  0  0  0
  185.4850  178.2210  144.9170 C   0  0  0  0  0  0  0  0  0  0  0  0
  187.5570  177.7800  143.7090 C   0  0  0  0  0  0  0  0  0  0  0  0
  191.1120  176.8060  140.7410 C   0  0  0  0  0  2  0  0  0  0  0  0
  182.7770  179.3530  142.4490 C   0  0  2  0  0  3  0  0  0  0  0  0
  189.8160  177.1750  140.1620 N   0  0  0  0  0  2  0  0  0  0  0  0
  187.5170  177.5400  146.2320 C   0  0  0  0  0  2  0  0  0  0  0  0
  186.8480  177.8680  144.9160 C   0  0  0  0  0  0  0  0  0  0  0  0
  189.0070  177.3150  143.7320 C   0  0  0  0  0  2  0  0  0  0  0  0
  184.8490  178.7590  141.1800 C   0  0  0  0  0  2  0  0  0  0  0  0
  187.9380  179.3320  140.7470 O   0  0  0  0  0  1  0  0  0  0  0  0
  191.9470  177.1010  142.9710 O   0  0  0  0  0  0  0  0  0  0  0  0
  186.8870  178.0510  142.4760 C   0  0  0  0  0  0  0  0  0  0  0  0
  189.7140  177.7790  142.4730 C   0  0  2  0  0  3  0  0  0  0  0  0
  183.7050  179.9310  139.0690 C   0  0  0  0  0  1  0  0  0  0  0  0
  182.7170  179.1340  139.9090 C   0  0  0  0  0  2  0  0  0  0  0  0
  181.3670  179.4630  142.4630 O   0  0  0  0  0  0  0  0  0  0  0  0
  180.8060  178.1990  142.7180 C   0  0  0  0  0  2  0  0  0  0  0  0
  179.8830  177.8190  141.5800 C   0  0  0  0  0  2  0  0  0  0  0  0
  179.3230  176.5030  141.8320 N   0  0  0  0  0  2  0  0  0  0  0  0
  179.2310  175.8220  140.5510 C   0  0  1  0  0  3  0  0  0  0  0  0
  180.3250  176.3250  139.6350 C   0  0  0  0  0  1  0  0  0  0  0  0
  179.3800  174.4470  140.7380 O   0  0  0  0  0  1  0  0  0  0  0  0
  1 10  1  0  0  0  0
  3  2  2  0  0  0  0
  4 20  1  1  0  0  0
  4  5  1  0  0  0  0
  4 22  1  0  0  0  0
  5 15  1  6  0  0  0
  5 23  1  0  0  0  0
  6 25  1  6  0  0  0
  6 14  1  0  0  0  0
  8 23  1  0  0  0  0
  8 21  2  0  0  0  0
  9  2  1  0  0  0  0
 10  7  1  0  0  0  0
 10 11  2  0  0  0  0
 11  9  1  0  0  0  0
 12 18  1  0  0  0  0
 12 17  2  0  0  0  0
 13  8  1  0  0  0  0
 14 26  1  1  0  0  0
 14  7  1  0  0  0  0
 15 13  1  0  0  0  0
 16  3  1  0  0  0  0
 17 11  1  0  0  0  0
 17 16  1  0  0  0  0
 19  6  1  0  0  0  0
 19  1  1  0  0  0  0
 22  1  2  0  0  0  0
 22 12  1  0  0  0  0
 23 18  1  1  0  0  0
 24 25  1  0  0  0  0
 26 27  1  0  0  0  0
 28 29  1  0  0  0  0
 28 27  1  0  0  0  0
 30 31  1  6  0  0  0
 30 32  1  0  0  0  0
 30 29  1  0  0  0  0
M  END
>  <MODEL>
9

>  <REMARK>
 VINA RESULT:      -8.4      3.515      5.454
  Name = 
  6 active torsions:
  status: ('A' for Active; 'I' for Inactive)
    1  A    between atoms: C_1  and  N_10
    2  A    between atoms: C_2  and  O_12
    3  A    between atoms: C_2  and  C_24
    4  A    between atoms: C_8  and  C_23
    5  A    between atoms: N_10  and  C_24
    6  A    between atoms: O_12  and  C_21
                            x       y       z     vdW  Elec       q    Type
                         _______ _______ _______ _____ _____    ______ ____

>  <TORSDO>
F 6

$$$$
