=
 OpenBabel11052416533D

 32 37  0  0  1  0  0  0  0  0999 V2000
  188.3200  176.9520  137.2630 C   0  0  1  0  0  3  0  0  0  0  0  0
  188.2120  177.5020  142.0780 C   0  0  1  0  0  3  0  0  0  0  0  0
  183.5290  178.8910  142.8670 C   0  0  0  0  0  3  0  0  0  0  0  0
  183.7300  178.6680  144.3160 C   0  0  0  0  0  3  0  0  0  0  0  0
  189.6460  177.0640  144.1460 C   0  0  0  0  0  0  0  0  0  0  0  0
  189.7740  177.1210  145.5230 C   0  0  0  0  0  0  0  0  0  0  0  0
  189.1110  177.5490  139.9000 C   0  0  1  0  0  3  0  0  0  0  0  0
  186.7080  177.9600  140.2040 N   0  0  0  0  0  2  0  0  0  0  0  0
  189.1360  177.5750  147.6110 C   0  0  0  0  0  0  0  0  0  0  0  0
  187.5900  178.1320  137.9090 C   0  0  0  0  0  2  0  0  0  0  0  0
  184.5260  178.6500  142.0050 C   0  0  0  0  0  3  0  0  0  0  0  0
  186.9990  178.3190  141.5930 C   0  0  1  0  0  3  0  0  0  0  0  0
  185.8170  178.0560  142.5090 C   0  0  1  0  0  3  0  0  0  0  0  0
  187.4310  178.0950  144.4530 C   0  0  0  0  0  0  0  0  0  0  0  0
  190.3630  177.0030  147.6700 N   0  0  0  0  0  0  0  0  0  0  0  0
  190.1530  177.0950  137.3710 S   0  0  0  0  0  0  0  0  0  0  0  0
  187.8780  178.3220  139.4030 C   0  0  2  0  0  3  0  0  0  0  0  0
  190.7620  176.7180  146.4000 C   0  0  0  0  0  3  0  0  0  0  0  0
  190.3040  177.8700  139.0260 C   0  0  0  0  0  2  0  0  0  0  0  0
  184.9660  178.5080  144.8070 C   0  0  0  0  0  3  0  0  0  0  0  0
  186.1490  178.6460  143.8840 C   0  0  2  0  0  3  0  0  0  0  0  0
  187.6090  178.1280  145.7810 O   0  0  0  0  0  0  0  0  0  0  0  0
  189.3820  177.8960  141.2940 N   0  0  0  0  0  2  0  0  0  0  0  0
  190.6660  176.4590  143.3530 N   0  0  0  0  0  1  0  0  0  0  0  0
  188.3650  178.0180  148.8030 C   0  0  0  0  0  1  0  0  0  0  0  0
  188.4600  177.5990  143.5760 C   0  0  0  0  0  0  0  0  0  0  0  0
  188.7260  177.6660  146.3080 C   0  0  0  0  0  0  0  0  0  0  0  0
  187.8230  175.6200  137.8100 C   0  0  0  0  0  2  0  0  0  0  0  0
  186.3950  175.0460  136.8760 S   0  0  1  0  0  0  0  0  0  0  0  0
  186.8880  175.0760  135.4360 O   0  0  0  0  0  0  0  0  0  0  0  0
  186.3310  173.3370  137.2460 N   0  0  0  0  0  2  0  0  0  0  0  0
  184.9940  173.0640  137.7400 C   0  0  0  0  0  1  0  0  0  0  0  0
  1 16  1  0  0  0  0
  1 28  1  1  0  0  0
  1 10  1  0  0  0  0
  2 23  1  6  0  0  0
  2 26  1  0  0  0  0
  3  4  1  0  0  0  0
  4 20  2  0  0  0  0
  5  6  2  0  0  0  0
  6 27  1  0  0  0  0
  6 18  1  0  0  0  0
  7 19  1  6  0  0  0
  7 23  1  0  0  0  0
  9 15  1  0  0  0  0
  9 25  1  0  0  0  0
 11  3  2  0  0  0  0
 12  8  1  6  0  0  0
 12  2  1  0  0  0  0
 12 13  1  0  0  0  0
 13 11  1  6  0  0  0
 13 21  1  0  0  0  0
 14 22  1  0  0  0  0
 16 19  1  0  0  0  0
 17 10  1  6  0  0  0
 17  7  1  0  0  0  0
 17  8  1  0  0  0  0
 18 15  2  0  0  0  0
 21 14  1  0  0  0  0
 21 20  1  1  0  0  0
 22 27  1  0  0  0  0
 24  5  1  0  0  0  0
 26  5  1  0  0  0  0
 26 14  2  0  0  0  0
 27  9  2  0  0  0  0
 29 30  2  6  0  0  0
 29 31  1  0  0  0  0
 29 28  1  0  0  0  0
 31 32  1  0  0  0  0
M  END
>  <MODEL>
1

>  <REMARK>
 VINA RESULT:      -9.5      0.000      0.000
  Name = 
  3 active torsions:
  status: ('A' for Active; 'I' for Inactive)
    1  A    between atoms: S_1  and  N_10
    2  A    between atoms: S_1  and  C_24
    3  A    between atoms: C_2  and  C_24
                            x       y       z     vdW  Elec       q    Type
                         _______ _______ _______ _____ _____    ______ ____

>  <TORSDO>
F 3

$$$$
=
 OpenBabel11052416533D

 32 37  0  0  1  0  0  0  0  0999 V2000
  190.5420  176.2990  137.1740 C   0  0  1  0  0  3  0  0  0  0  0  0
  189.6230  177.1150  141.8640 C   0  0  1  0  0  3  0  0  0  0  0  0
  184.9600  178.7650  141.7440 C   0  0  0  0  0  3  0  0  0  0  0  0
  184.8900  178.6120  143.2150 C   0  0  0  0  0  3  0  0  0  0  0  0
  190.6460  176.7230  144.1710 C   0  0  0  0  0  0  0  0  0  0  0  0
  190.5330  176.8480  145.5450 C   0  0  0  0  0  0  0  0  0  0  0  0
  190.8900  177.0010  139.8800 C   0  0  1  0  0  3  0  0  0  0  0  0
  188.4990  177.5410  139.7330 N   0  0  0  0  0  2  0  0  0  0  0  0
  189.5660  177.4450  147.4630 C   0  0  0  0  0  0  0  0  0  0  0  0
  189.7770  177.5460  137.6260 C   0  0  0  0  0  2  0  0  0  0  0  0
  186.0770  178.4300  141.0850 C   0  0  0  0  0  3  0  0  0  0  0  0
  188.5610  177.9600  141.1340 C   0  0  1  0  0  3  0  0  0  0  0  0
  187.2250  177.8050  141.8360 C   0  0  1  0  0  3  0  0  0  0  0  0
  188.4720  177.8720  144.0330 C   0  0  0  0  0  0  0  0  0  0  0  0
  190.7290  176.8190  147.7660 N   0  0  0  0  0  0  0  0  0  0  0  0
  192.3320  176.3610  137.6000 S   0  0  0  0  0  0  0  0  0  0  0  0
  189.8090  177.8030  139.1380 C   0  0  2  0  0  3  0  0  0  0  0  0
  191.3280  176.4470  146.6010 C   0  0  0  0  0  3  0  0  0  0  0  0
  192.2350  177.2180  139.2190 C   0  0  0  0  0  2  0  0  0  0  0  0
  186.0100  178.4200  143.9230 C   0  0  0  0  0  3  0  0  0  0  0  0
  187.3430  178.4520  143.2210 C   0  0  2  0  0  3  0  0  0  0  0  0
  188.4170  177.9690  145.3680 O   0  0  0  0  0  0  0  0  0  0  0  0
  190.9330  177.4100  141.2830 N   0  0  0  0  0  2  0  0  0  0  0  0
  191.7530  176.0270  143.6000 N   0  0  0  0  0  1  0  0  0  0  0  0
  188.6240  177.9880  148.4780 C   0  0  0  0  0  1  0  0  0  0  0  0
  189.6100  177.2810  143.3760 C   0  0  0  0  0  0  0  0  0  0  0  0
  189.3960  177.4840  146.1060 C   0  0  0  0  0  0  0  0  0  0  0  0
  189.8830  175.0250  137.6840 C   0  0  0  0  0  2  0  0  0  0  0  0
  188.6260  174.4550  136.5260 S   0  0  1  0  0  0  0  0  0  0  0  0
  188.5840  172.9530  136.7720 O   0  0  0  0  0  0  0  0  0  0  0  0
  187.1330  175.0250  137.2380 N   0  0  0  0  0  2  0  0  0  0  0  0
  186.6120  176.0520  136.3550 C   0  0  0  0  0  1  0  0  0  0  0  0
  1 16  1  0  0  0  0
  1 10  1  0  0  0  0
  1 28  1  1  0  0  0
  2 23  1  6  0  0  0
  2 26  1  0  0  0  0
  3  4  1  0  0  0  0
  4 20  2  0  0  0  0
  5  6  2  0  0  0  0
  6 27  1  0  0  0  0
  6 18  1  0  0  0  0
  7 19  1  6  0  0  0
  7 23  1  0  0  0  0
  9 15  1  0  0  0  0
  9 25  1  0  0  0  0
 11  3  2  0  0  0  0
 12  8  1  6  0  0  0
 12 13  1  0  0  0  0
 12  2  1  0  0  0  0
 13 11  1  6  0  0  0
 13 21  1  0  0  0  0
 14 22  1  0  0  0  0
 16 19  1  0  0  0  0
 17 10  1  6  0  0  0
 17  8  1  0  0  0  0
 17  7  1  0  0  0  0
 18 15  2  0  0  0  0
 21 20  1  1  0  0  0
 21 14  1  0  0  0  0
 22 27  1  0  0  0  0
 24  5  1  0  0  0  0
 26 14  2  0  0  0  0
 26  5  1  0  0  0  0
 27  9  2  0  0  0  0
 29 30  2  1  0  0  0
 29 31  1  0  0  0  0
 29 28  1  0  0  0  0
 32 31  1  0  0  0  0
M  END
>  <MODEL>
2

>  <REMARK>
 VINA RESULT:      -9.3      1.545      1.758
  Name = 
  3 active torsions:
  status: ('A' for Active; 'I' for Inactive)
    1  A    between atoms: S_1  and  N_10
    2  A    between atoms: S_1  and  C_24
    3  A    between atoms: C_2  and  C_24
                            x       y       z     vdW  Elec       q    Type
                         _______ _______ _______ _____ _____    ______ ____

>  <TORSDO>
F 3

$$$$
=
 OpenBabel11052416533D

 32 37  0  0  1  0  0  0  0  0999 V2000
  184.8180  178.0230  137.9530 C   0  0  1  0  0  3  0  0  0  0  0  0
  187.2590  177.6880  142.1280 C   0  0  1  0  0  3  0  0  0  0  0  0
  183.7950  178.8550  145.4610 C   0  0  0  0  0  3  0  0  0  0  0  0
  184.6950  178.3750  146.5340 C   0  0  0  0  0  3  0  0  0  0  0  0
  189.5120  176.8990  143.0370 C   0  0  0  0  0  0  0  0  0  0  0  0
  190.3370  176.7060  144.1320 C   0  0  0  0  0  0  0  0  0  0  0  0
  186.9040  178.1400  139.8420 C   0  0  1  0  0  3  0  0  0  0  0  0
  185.0490  178.4610  141.4200 N   0  0  0  0  0  2  0  0  0  0  0  0
  190.9100  176.7660  146.2850 C   0  0  0  0  0  0  0  0  0  0  0  0
  184.6290  179.0570  139.0660 C   0  0  0  0  0  2  0  0  0  0  0  0
  184.1780  178.7870  144.1800 C   0  0  0  0  0  3  0  0  0  0  0  0
  186.0450  178.5650  142.4880 C   0  0  1  0  0  3  0  0  0  0  0  0
  185.4880  178.1270  143.8300 C   0  0  1  0  0  3  0  0  0  0  0  0
  187.8710  177.8300  144.6190 C   0  0  0  0  0  0  0  0  0  0  0  0
  191.9370  176.2070  145.6010 N   0  0  0  0  0  0  0  0  0  0  0  0
  186.4470  178.1660  137.1070 S   0  0  0  0  0  0  0  0  0  0  0  0
  185.6630  178.9770  140.1960 C   0  0  2  0  0  3  0  0  0  0  0  0
  191.5970  176.1620  144.2840 C   0  0  0  0  0  3  0  0  0  0  0  0
  187.4970  178.6290  138.5380 C   0  0  0  0  0  2  0  0  0  0  0  0
  185.9880  178.1430  146.2710 C   0  0  0  0  0  3  0  0  0  0  0  0
  186.5320  178.4610  144.9030 C   0  0  2  0  0  3  0  0  0  0  0  0
  188.7110  177.6240  145.6420 O   0  0  0  0  0  0  0  0  0  0  0  0
  187.8850  178.2320  140.9230 N   0  0  0  0  0  2  0  0  0  0  0  0
  189.9200  176.4600  141.7420 N   0  0  0  0  0  1  0  0  0  0  0  0
  190.9060  176.9760  147.7580 C   0  0  0  0  0  1  0  0  0  0  0  0
  188.2530  177.5140  143.2670 C   0  0  0  0  0  0  0  0  0  0  0  0
  189.8960  177.0870  145.4240 C   0  0  0  0  0  0  0  0  0  0  0  0
  184.5640  176.6090  138.4570 C   0  0  0  0  0  2  0  0  0  0  0  0
  182.9380  176.0330  137.9350 S   0  0  1  0  0  0  0  0  0  0  0  0
  183.2090  174.6090  137.4680 O   0  0  0  0  0  0  0  0  0  0  0  0
  182.0850  175.8090  139.4460 N   0  0  0  0  0  2  0  0  0  0  0  0
  181.5140  177.0950  139.8010 C   0  0  0  0  0  1  0  0  0  0  0  0
  1 28  1  1  0  0  0
  1 10  1  0  0  0  0
  2 23  1  6  0  0  0
  2 12  1  0  0  0  0
  2 26  1  0  0  0  0
  3  4  1  0  0  0  0
  5 26  1  0  0  0  0
  5  6  2  0  0  0  0
  6 18  1  0  0  0  0
  6 27  1  0  0  0  0
  7 19  1  6  0  0  0
  7 17  1  0  0  0  0
  7 23  1  0  0  0  0
  9 25  1  0  0  0  0
 11  3  2  0  0  0  0
 12  8  1  6  0  0  0
 12 13  1  0  0  0  0
 13 11  1  1  0  0  0
 13 21  1  0  0  0  0
 14 21  1  0  0  0  0
 14 22  1  0  0  0  0
 15  9  1  0  0  0  0
 16  1  1  0  0  0  0
 16 19  1  0  0  0  0
 17 10  1  6  0  0  0
 17  8  1  0  0  0  0
 18 15  2  0  0  0  0
 20  4  2  0  0  0  0
 21 20  1  1  0  0  0
 24  5  1  0  0  0  0
 26 14  2  0  0  0  0
 27 22  1  0  0  0  0
 27  9  2  0  0  0  0
 29 30  2  1  0  0  0
 29 28  1  0  0  0  0
 29 31  1  0  0  0  0
 31 32  1  0  0  0  0
M  END
>  <MODEL>
3

>  <REMARK>
 VINA RESULT:      -8.9      2.209      2.723
  Name = 
  3 active torsions:
  status: ('A' for Active; 'I' for Inactive)
    1  A    between atoms: S_1  and  N_10
    2  A    between atoms: S_1  and  C_24
    3  A    between atoms: C_2  and  C_24
                            x       y       z     vdW  Elec       q    Type
                         _______ _______ _______ _____ _____    ______ ____

>  <TORSDO>
F 3

$$$$
=
 OpenBabel11052416533D

 32 37  0  0  1  0  0  0  0  0999 V2000
  181.2910  180.0700  138.2510 C   0  0  1  0  0  3  0  0  0  0  0  0
  184.4930  178.8720  141.6890 C   0  0  1  0  0  3  0  0  0  0  0  0
  188.6120  178.1030  139.0590 C   0  0  0  0  0  3  0  0  0  0  0  0
  189.3880  178.0880  140.3190 C   0  0  0  0  0  3  0  0  0  0  0  0
  184.7190  178.7950  144.2320 C   0  0  0  0  0  0  0  0  0  0  0  0
  185.5120  178.5280  145.3350 C   0  0  0  0  0  0  0  0  0  0  0  0
  182.4020  178.9970  140.6070 C   0  0  1  0  0  3  0  0  0  0  0  0
  184.4440  178.9120  139.2440 N   0  0  0  0  0  2  0  0  0  0  0  0
  187.3560  177.8850  146.4100 C   0  0  0  0  0  0  0  0  0  0  0  0
  182.2940  178.9340  138.0380 C   0  0  0  0  0  2  0  0  0  0  0  0
  187.2890  178.3110  139.0860 C   0  0  0  0  0  3  0  0  0  0  0  0
  185.1260  178.3220  140.3960 C   0  0  1  0  0  3  0  0  0  0  0  0
  186.6130  178.6270  140.3960 C   0  0  1  0  0  3  0  0  0  0  0  0
  186.6350  178.0750  142.8620 C   0  0  0  0  0  0  0  0  0  0  0  0
  186.4440  178.2530  147.3420 N   0  0  0  0  0  0  0  0  0  0  0  0
  179.9640  179.6410  139.4540 S   0  0  0  0  0  0  0  0  0  0  0  0
  183.0420  178.4950  139.3030 C   0  0  2  0  0  3  0  0  0  0  0  0
  185.3130  178.6510  146.6960 C   0  0  0  0  0  3  0  0  0  0  0  0
  180.9350  178.6270  140.6350 C   0  0  0  0  0  2  0  0  0  0  0  0
  188.7560  177.9910  141.4960 C   0  0  0  0  0  3  0  0  0  0  0  0
  187.2610  177.8070  141.5170 C   0  0  2  0  0  3  0  0  0  0  0  0
  187.3560  177.8300  143.9640 O   0  0  0  0  0  0  0  0  0  0  0  0
  183.1030  178.4210  141.7540 N   0  0  0  0  0  2  0  0  0  0  0  0
  183.4150  179.3470  144.4000 N   0  0  0  0  0  1  0  0  0  0  0  0
  188.7250  177.3990  146.7310 C   0  0  0  0  0  1  0  0  0  0  0  0
  185.2710  178.5300  142.9500 C   0  0  0  0  0  0  0  0  0  0  0  0
  186.8320  178.0410  145.1560 C   0  0  0  0  0  0  0  0  0  0  0  0
  181.9910  181.3710  138.6220 C   0  0  0  0  0  2  0  0  0  0  0  0
  181.0840  182.7850  137.9730 S   0  0  1  0  0  0  0  0  0  0  0  0
  182.1810  183.8050  137.7010 O   0  0  0  0  0  0  0  0  0  0  0  0
  180.6120  182.2620  136.3710 N   0  0  0  0  0  2  0  0  0  0  0  0
  180.8060  183.3950  135.4850 C   0  0  0  0  0  1  0  0  0  0  0  0
  1 28  1  1  0  0  0
  1 16  1  0  0  0  0
  2 23  1  1  0  0  0
  2 26  1  0  0  0  0
  3 11  2  0  0  0  0
  3  4  1  0  0  0  0
  4 20  2  0  0  0  0
  5 24  1  0  0  0  0
  5  6  2  0  0  0  0
  6 18  1  0  0  0  0
  7 19  1  6  0  0  0
  7 23  1  0  0  0  0
  8 17  1  0  0  0  0
  9 25  1  0  0  0  0
  9 15  1  0  0  0  0
 10  1  1  0  0  0  0
 12  8  1  6  0  0  0
 12  2  1  0  0  0  0
 13 11  1  6  0  0  0
 13 12  1  0  0  0  0
 13 21  1  0  0  0  0
 14 26  2  0  0  0  0
 14 22  1  0  0  0  0
 16 19  1  0  0  0  0
 17 10  1  6  0  0  0
 17  7  1  0  0  0  0
 18 15  2  0  0  0  0
 21 20  1  1  0  0  0
 21 14  1  0  0  0  0
 22 27  1  0  0  0  0
 26  5  1  0  0  0  0
 27  6  1  0  0  0  0
 27  9  2  0  0  0  0
 29 30  2  6  0  0  0
 29 28  1  0  0  0  0
 31 29  1  0  0  0  0
 32 31  1  0  0  0  0
M  END
>  <MODEL>
4

>  <REMARK>
 VINA RESULT:      -8.3      4.337      6.307
  Name = 
  3 active torsions:
  status: ('A' for Active; 'I' for Inactive)
    1  A    between atoms: S_1  and  N_10
    2  A    between atoms: S_1  and  C_24
    3  A    between atoms: C_2  and  C_24
                            x       y       z     vdW  Elec       q    Type
                         _______ _______ _______ _____ _____    ______ ____

>  <TORSDO>
F 3

$$$$
=
 OpenBabel11052416533D

 32 37  0  0  1  0  0  0  0  0999 V2000
  181.4370  178.3970  139.5250 C   0  0  1  0  0  3  0  0  0  0  0  0
  185.7750  178.2620  141.6840 C   0  0  1  0  0  3  0  0  0  0  0  0
  184.5630  178.4630  146.4770 C   0  0  0  0  0  3  0  0  0  0  0  0
  185.9560  178.0990  146.8230 C   0  0  0  0  0  3  0  0  0  0  0  0
  188.2400  177.8800  141.1350 C   0  0  0  0  0  0  0  0  0  0  0  0
  189.5440  177.7790  141.5880 C   0  0  0  0  0  0  0  0  0  0  0  0
  184.1780  178.7970  140.0350 C   0  0  1  0  0  3  0  0  0  0  0  0
  183.4560  178.6220  142.3770 N   0  0  0  0  0  2  0  0  0  0  0  0
  191.1830  177.7990  143.1000 C   0  0  0  0  0  0  0  0  0  0  0  0
  181.7500  179.2900  140.7280 C   0  0  0  0  0  2  0  0  0  0  0  0
  184.1930  178.5660  145.1940 C   0  0  0  0  0  3  0  0  0  0  0  0
  184.8490  178.8480  142.7680 C   0  0  1  0  0  3  0  0  0  0  0  0
  185.1750  178.2110  144.1070 C   0  0  1  0  0  3  0  0  0  0  0  0
  187.6180  178.3450  143.4730 C   0  0  0  0  0  0  0  0  0  0  0  0
  191.7350  177.5090  141.8970 N   0  0  0  0  0  0  0  0  0  0  0  0
  182.3090  178.9260  137.9910 S   0  0  0  0  0  0  0  0  0  0  0  0
  183.2320  179.3380  141.1200 C   0  0  2  0  0  3  0  0  0  0  0  0
  190.7430  177.4910  140.9650 C   0  0  0  0  0  3  0  0  0  0  0  0
  183.8970  179.4880  138.7190 C   0  0  0  0  0  2  0  0  0  0  0  0
  186.9150  178.1520  145.8900 C   0  0  0  0  0  3  0  0  0  0  0  0
  186.5790  178.6710  144.5150 C   0  0  2  0  0  3  0  0  0  0  0  0
  188.8980  178.2390  143.8550 O   0  0  0  0  0  0  0  0  0  0  0  0
  185.5670  179.0070  140.4420 N   0  0  0  0  0  2  0  0  0  0  0  0
  187.9320  177.6260  139.7660 N   0  0  0  0  0  1  0  0  0  0  0  0
  191.9530  177.8970  144.3690 C   0  0  0  0  0  1  0  0  0  0  0  0
  187.2400  178.2110  142.0890 C   0  0  0  0  0  0  0  0  0  0  0  0
  189.8320  177.9700  142.9630 C   0  0  0  0  0  0  0  0  0  0  0  0
  181.6850  176.9280  139.8390 C   0  0  0  0  0  2  0  0  0  0  0  0
  180.8560  175.8750  138.6360 S   0  0  1  0  0  0  0  0  0  0  0  0
  182.0060  175.1040  138.0010 O   0  0  0  0  0  0  0  0  0  0  0  0
  180.0640  174.6730  139.6300 N   0  0  0  0  0  2  0  0  0  0  0  0
  179.0530  175.3690  140.4050 C   0  0  0  0  0  1  0  0  0  0  0  0
  1 28  1  1  0  0  0
  1 10  1  0  0  0  0
  2 23  1  6  0  0  0
  2 26  1  0  0  0  0
  2 12  1  0  0  0  0
  3  4  1  0  0  0  0
  5  6  2  0  0  0  0
  5 26  1  0  0  0  0
  6 27  1  0  0  0  0
  7 19  1  6  0  0  0
  7 23  1  0  0  0  0
  7 17  1  0  0  0  0
  9 25  1  0  0  0  0
 11  3  2  0  0  0  0
 12  8  1  6  0  0  0
 12 13  1  0  0  0  0
 13 21  1  0  0  0  0
 13 11  1  1  0  0  0
 14 22  1  0  0  0  0
 14 21  1  0  0  0  0
 15  9  1  0  0  0  0
 16 19  1  0  0  0  0
 16  1  1  0  0  0  0
 17 10  1  6  0  0  0
 17  8  1  0  0  0  0
 18  6  1  0  0  0  0
 18 15  2  0  0  0  0
 20  4  2  0  0  0  0
 21 20  1  1  0  0  0
 24  5  1  0  0  0  0
 26 14  2  0  0  0  0
 27  9  2  0  0  0  0
 27 22  1  0  0  0  0
 29 30  2  6  0  0  0
 29 31  1  0  0  0  0
 29 28  1  0  0  0  0
 31 32  1  0  0  0  0
M  END
>  <MODEL>
5

>  <REMARK>
 VINA RESULT:      -7.8      3.247      4.830
  Name = 
  3 active torsions:
  status: ('A' for Active; 'I' for Inactive)
    1  A    between atoms: S_1  and  N_10
    2  A    between atoms: S_1  and  C_24
    3  A    between atoms: C_2  and  C_24
                            x       y       z     vdW  Elec       q    Type
                         _______ _______ _______ _____ _____    ______ ____

>  <TORSDO>
F 3

$$$$
=
 OpenBabel11052416533D

 32 37  0  0  1  0  0  0  0  0999 V2000
  187.9710  177.2360  136.0730 C   0  0  1  0  0  3  0  0  0  0  0  0
  186.8900  177.8920  140.7540 C   0  0  1  0  0  3  0  0  0  0  0  0
  182.0730  179.0030  140.5690 C   0  0  0  0  0  3  0  0  0  0  0  0
  181.9980  178.8280  142.0370 C   0  0  0  0  0  3  0  0  0  0  0  0
  187.9150  177.5950  143.0740 C   0  0  0  0  0  0  0  0  0  0  0  0
  187.7660  177.6910  144.4470 C   0  0  0  0  0  0  0  0  0  0  0  0
  188.1940  177.9440  138.7910 C   0  0  1  0  0  3  0  0  0  0  0  0
  185.7590  178.2110  138.6080 N   0  0  0  0  0  2  0  0  0  0  0  0
  186.7070  178.1540  146.3540 C   0  0  0  0  0  0  0  0  0  0  0  0
  187.0620  178.3830  136.5230 C   0  0  0  0  0  2  0  0  0  0  0  0
  183.2300  178.8050  139.9260 C   0  0  0  0  0  3  0  0  0  0  0  0
  185.7510  178.6200  140.0130 C   0  0  1  0  0  3  0  0  0  0  0  0
  184.4300  178.3060  140.6910 C   0  0  1  0  0  3  0  0  0  0  0  0
  185.6270  178.4910  142.9090 C   0  0  0  0  0  0  0  0  0  0  0  0
  187.9290  177.6610  146.6700 N   0  0  0  0  0  0  0  0  0  0  0  0
  189.7360  177.4960  136.5290 S   0  0  0  0  0  0  0  0  0  0  0  0
  187.0410  178.6270  138.0370 C   0  0  2  0  0  3  0  0  0  0  0  0
  188.5850  177.3720  145.5130 C   0  0  0  0  0  3  0  0  0  0  0  0
  189.5150  178.3190  138.1550 C   0  0  0  0  0  2  0  0  0  0  0  0
  183.1210  178.7570  142.7630 C   0  0  0  0  0  3  0  0  0  0  0  0
  184.4520  178.9480  142.0830 C   0  0  2  0  0  3  0  0  0  0  0  0
  185.5390  178.5670  144.2440 O   0  0  0  0  0  0  0  0  0  0  0  0
  188.1670  178.3410  140.1980 N   0  0  0  0  0  2  0  0  0  0  0  0
  189.1030  177.0350  142.5160 N   0  0  0  0  0  1  0  0  0  0  0  0
  185.6940  178.5760  147.3570 C   0  0  0  0  0  1  0  0  0  0  0  0
  186.8350  178.0400  142.2670 C   0  0  0  0  0  0  0  0  0  0  0  0
  186.5560  178.1880  144.9940 C   0  0  0  0  0  0  0  0  0  0  0  0
  187.4530  175.8900  136.5610 C   0  0  0  0  0  2  0  0  0  0  0  0
  185.7380  175.6540  136.0630 S   0  0  1  0  0  0  0  0  0  0  0  0
  185.8560  175.2370  134.6030 O   0  0  0  0  0  0  0  0  0  0  0  0
  185.2830  174.1700  136.8710 N   0  0  0  0  0  2  0  0  0  0  0  0
  186.5150  173.4870  137.2190 C   0  0  0  0  0  1  0  0  0  0  0  0
  1 10  1  0  0  0  0
  1 16  1  0  0  0  0
  1 28  1  1  0  0  0
  2 23  1  6  0  0  0
  2 26  1  0  0  0  0
  3  4  1  0  0  0  0
  4 20  2  0  0  0  0
  5  6  2  0  0  0  0
  6 27  1  0  0  0  0
  6 18  1  0  0  0  0
  7 19  1  6  0  0  0
  7 23  1  0  0  0  0
  9 15  1  0  0  0  0
  9 25  1  0  0  0  0
 11  3  2  0  0  0  0
 12  8  1  6  0  0  0
 12 13  1  0  0  0  0
 12  2  1  0  0  0  0
 13 11  1  6  0  0  0
 13 21  1  0  0  0  0
 14 22  1  0  0  0  0
 16 19  1  0  0  0  0
 17 10  1  6  0  0  0
 17  8  1  0  0  0  0
 17  7  1  0  0  0  0
 18 15  2  0  0  0  0
 21 20  1  1  0  0  0
 21 14  1  0  0  0  0
 22 27  1  0  0  0  0
 24  5  1  0  0  0  0
 26 14  2  0  0  0  0
 26  5  1  0  0  0  0
 27  9  2  0  0  0  0
 29 30  2  6  0  0  0
 29 28  1  0  0  0  0
 29 31  1  0  0  0  0
 31 32  1  0  0  0  0
M  END
>  <MODEL>
6

>  <REMARK>
 VINA RESULT:      -7.7      1.562      2.122
  Name = 
  3 active torsions:
  status: ('A' for Active; 'I' for Inactive)
    1  A    between atoms: S_1  and  N_10
    2  A    between atoms: S_1  and  C_24
    3  A    between atoms: C_2  and  C_24
                            x       y       z     vdW  Elec       q    Type
                         _______ _______ _______ _____ _____    ______ ____

>  <TORSDO>
F 3

$$$$
=
 OpenBabel11052416533D

 32 37  0  0  1  0  0  0  0  0999 V2000
  181.9070  178.3750  140.4680 C   0  0  1  0  0  3  0  0  0  0  0  0
  186.7280  177.8700  140.5420 C   0  0  1  0  0  3  0  0  0  0  0  0
  187.6700  177.5390  145.3880 C   0  0  0  0  0  3  0  0  0  0  0  0
  189.0470  177.0990  145.0690 C   0  0  0  0  0  3  0  0  0  0  0  0
  188.6960  177.4900  138.9590 C   0  0  0  0  0  0  0  0  0  0  0  0
  190.0580  177.3010  138.7990 C   0  0  0  0  0  0  0  0  0  0  0  0
  184.6300  178.6380  139.7930 C   0  0  1  0  0  3  0  0  0  0  0  0
  184.9520  178.2090  142.1900 N   0  0  0  0  0  2  0  0  0  0  0  0
  192.1780  177.0980  139.4590 C   0  0  0  0  0  0  0  0  0  0  0  0
  182.7650  179.1110  141.5010 C   0  0  0  0  0  2  0  0  0  0  0  0
  186.8020  177.8020  144.4030 C   0  0  0  0  0  3  0  0  0  0  0  0
  186.3920  178.3490  141.9680 C   0  0  1  0  0  3  0  0  0  0  0  0
  187.2040  177.5510  142.9710 C   0  0  1  0  0  3  0  0  0  0  0  0
  189.1540  177.6930  141.3700 C   0  0  0  0  0  0  0  0  0  0  0  0
  192.1480  176.9380  138.1140 N   0  0  0  0  0  0  0  0  0  0  0  0
  182.0880  179.0570  138.7670 S   0  0  0  0  0  0  0  0  0  0  0  0
  184.2730  179.0730  141.2240 C   0  0  2  0  0  3  0  0  0  0  0  0
  190.8570  177.0570  137.6990 C   0  0  0  0  0  3  0  0  0  0  0  0
  183.8720  179.4870  138.7950 C   0  0  0  0  0  2  0  0  0  0  0  0
  189.5240  177.2350  143.8250 C   0  0  0  0  0  3  0  0  0  0  0  0
  188.6800  177.9210  142.7830 C   0  0  2  0  0  3  0  0  0  0  0  0
  190.4640  177.5090  141.1570 O   0  0  0  0  0  0  0  0  0  0  0  0
  186.0720  178.7610  139.5850 N   0  0  0  0  0  2  0  0  0  0  0  0
  187.8210  177.4070  137.8360 N   0  0  0  0  0  1  0  0  0  0  0  0
  193.4160  177.0260  140.2800 C   0  0  0  0  0  1  0  0  0  0  0  0
  188.2200  177.7320  140.2750 C   0  0  0  0  0  0  0  0  0  0  0  0
  190.9120  177.3210  139.9300 C   0  0  0  0  0  0  0  0  0  0  0  0
  182.1550  176.8730  140.5050 C   0  0  0  0  0  2  0  0  0  0  0  0
  181.8960  176.1490  138.8760 S   0  0  1  0  0  0  0  0  0  0  0  0
  183.1240  175.2690  138.6880 O   0  0  0  0  0  0  0  0  0  0  0  0
  180.6090  174.9950  139.1470 N   0  0  0  0  0  2  0  0  0  0  0  0
  179.9530  175.3800  140.3830 C   0  0  0  0  0  1  0  0  0  0  0  0
  1 28  1  6  0  0  0
  1 10  1  0  0  0  0
  2 23  1  6  0  0  0
  2 12  1  0  0  0  0
  4  3  1  0  0  0  0
  5 26  1  0  0  0  0
  6  5  2  0  0  0  0
  6 27  1  0  0  0  0
  7 19  1  6  0  0  0
  7 17  1  0  0  0  0
  9 27  2  0  0  0  0
  9 25  1  0  0  0  0
 11  3  2  0  0  0  0
 12  8  1  1  0  0  0
 12 13  1  0  0  0  0
 13 11  1  1  0  0  0
 14 21  1  0  0  0  0
 15  9  1  0  0  0  0
 16 19  1  0  0  0  0
 16  1  1  0  0  0  0
 17 10  1  6  0  0  0
 17  8  1  0  0  0  0
 18 15  2  0  0  0  0
 18  6  1  0  0  0  0
 20  4  2  0  0  0  0
 21 13  1  0  0  0  0
 21 20  1  1  0  0  0
 22 14  1  0  0  0  0
 23  7  1  0  0  0  0
 24  5  1  0  0  0  0
 26  2  1  0  0  0  0
 26 14  2  0  0  0  0
 27 22  1  0  0  0  0
 29 30  2  1  0  0  0
 29 31  1  0  0  0  0
 29 28  1  0  0  0  0
 31 32  1  0  0  0  0
M  END
>  <MODEL>
7

>  <REMARK>
 VINA RESULT:      -7.4      3.397      5.858
  Name = 
  3 active torsions:
  status: ('A' for Active; 'I' for Inactive)
    1  A    between atoms: S_1  and  N_10
    2  A    between atoms: S_1  and  C_24
    3  A    between atoms: C_2  and  C_24
                            x       y       z     vdW  Elec       q    Type
                         _______ _______ _______ _____ _____    ______ ____

>  <TORSDO>
F 3

$$$$
=
 OpenBabel11052416533D

 32 37  0  0  1  0  0  0  0  0999 V2000
  180.7590  179.0250  137.8120 C   0  0  1  0  0  3  0  0  0  0  0  0
  183.9940  178.4970  141.3840 C   0  0  1  0  0  3  0  0  0  0  0  0
  188.2650  178.2590  138.8990 C   0  0  0  0  0  3  0  0  0  0  0  0
  188.9940  178.4220  140.1780 C   0  0  0  0  0  3  0  0  0  0  0  0
  184.1470  178.5720  143.9320 C   0  0  0  0  0  0  0  0  0  0  0  0
  184.9360  178.4820  145.0670 C   0  0  0  0  0  0  0  0  0  0  0  0
  181.9460  178.2470  140.2450 C   0  0  1  0  0  3  0  0  0  0  0  0
  184.0190  178.4180  138.9390 N   0  0  0  0  0  2  0  0  0  0  0  0
  186.8210  178.1840  146.2190 C   0  0  0  0  0  0  0  0  0  0  0  0
  181.9320  178.0500  137.6800 C   0  0  0  0  0  2  0  0  0  0  0  0
  186.9270  178.2600  138.8830 C   0  0  0  0  0  3  0  0  0  0  0  0
  184.7460  177.9940  140.1370 C   0  0  1  0  0  3  0  0  0  0  0  0
  186.1680  178.5270  140.1580 C   0  0  1  0  0  3  0  0  0  0  0  0
  186.1950  178.0970  142.6480 C   0  0  0  0  0  0  0  0  0  0  0  0
  185.8330  178.4470  147.1080 N   0  0  0  0  0  0  0  0  0  0  0  0
  179.4760  178.4500  139.0010 S   0  0  0  0  0  0  0  0  0  0  0  0
  182.6970  177.7910  138.9840 C   0  0  2  0  0  3  0  0  0  0  0  0
  184.6760  178.6340  146.4150 C   0  0  0  0  0  3  0  0  0  0  0  0
  180.5530  177.6540  140.2550 C   0  0  0  0  0  2  0  0  0  0  0  0
  188.3470  178.2820  141.3420 C   0  0  0  0  0  3  0  0  0  0  0  0
  186.8980  177.8690  141.3350 C   0  0  2  0  0  3  0  0  0  0  0  0
  186.9090  178.0180  143.7800 O   0  0  0  0  0  0  0  0  0  0  0  0
  182.6890  177.8390  141.4370 N   0  0  0  0  0  2  0  0  0  0  0  0
  182.7680  178.9210  144.0400 N   0  0  0  0  0  1  0  0  0  0  0  0
  188.2370  177.9320  146.5980 C   0  0  0  0  0  1  0  0  0  0  0  0
  184.7750  178.3380  142.6800 C   0  0  0  0  0  0  0  0  0  0  0  0
  186.3190  178.1980  144.9460 C   0  0  0  0  0  0  0  0  0  0  0  0
  181.2380  180.4340  138.1350 C   0  0  0  0  0  2  0  0  0  0  0  0
  180.6140  181.6080  136.9190 S   0  0  1  0  0  0  0  0  0  0  0  0
  180.3850  180.7430  135.6880 O   0  0  0  0  0  0  0  0  0  0  0  0
  178.9920  181.9490  137.4820 N   0  0  0  0  0  2  0  0  0  0  0  0
  178.9780  183.3360  137.9080 C   0  0  0  0  0  1  0  0  0  0  0  0
  1 28  1  1  0  0  0
  1 16  1  0  0  0  0
  2 23  1  1  0  0  0
  2 26  1  0  0  0  0
  3  4  1  0  0  0  0
  4 20  2  0  0  0  0
  5 24  1  0  0  0  0
  5  6  2  0  0  0  0
  6 18  1  0  0  0  0
  7 19  1  1  0  0  0
  7 23  1  0  0  0  0
  8 17  1  0  0  0  0
  9 25  1  0  0  0  0
  9 15  1  0  0  0  0
 10  1  1  0  0  0  0
 11  3  2  0  0  0  0
 12  8  1  6  0  0  0
 12 13  1  0  0  0  0
 12  2  1  0  0  0  0
 13 11  1  6  0  0  0
 13 21  1  0  0  0  0
 14 26  2  0  0  0  0
 14 22  1  0  0  0  0
 16 19  1  0  0  0  0
 17 10  1  6  0  0  0
 17  7  1  0  0  0  0
 18 15  2  0  0  0  0
 21 20  1  1  0  0  0
 21 14  1  0  0  0  0
 22 27  1  0  0  0  0
 26  5  1  0  0  0  0
 27  6  1  0  0  0  0
 27  9  2  0  0  0  0
 29 30  2  6  0  0  0
 29 31  1  0  0  0  0
 29 28  1  0  0  0  0
 31 32  1  0  0  0  0
M  END
>  <MODEL>
8

>  <REMARK>
 VINA RESULT:      -7.0      4.314      6.441
  Name = 
  3 active torsions:
  status: ('A' for Active; 'I' for Inactive)
    1  A    between atoms: S_1  and  N_10
    2  A    between atoms: S_1  and  C_24
    3  A    between atoms: C_2  and  C_24
                            x       y       z     vdW  Elec       q    Type
                         _______ _______ _______ _____ _____    ______ ____

>  <TORSDO>
F 3

$$$$
