=
 OpenBabel11052413453D

 27 31  0  0  0  0  0  0  0  0999 V2000
  186.3150  178.9190  141.4250 C   0  0  0  0  0  3  0  0  0  0  0  0
  185.6450  178.3340  143.7290 C   0  0  0  0  0  0  0  0  0  0  0  0
  187.6380  176.9720  143.3180 N   0  0  0  0  0  0  0  0  0  0  0  0
  186.8300  179.2660  147.4830 C   0  0  0  0  0  3  0  0  0  0  0  0
  187.7940  178.8950  148.3250 C   0  0  0  0  0  2  0  0  0  0  0  0
  184.7320  179.0140  144.6720 C   0  0  0  0  0  3  0  0  0  0  0  0
  187.9430  176.7710  146.0970 C   0  0  0  0  0  3  0  0  0  0  0  0
  190.0170  177.1700  140.6380 C   0  0  0  0  0  0  0  0  0  0  0  0
  188.3650  176.5960  147.5010 C   0  0  0  0  0  3  0  0  0  0  0  0
  191.1610  176.7050  140.4000 O   0  0  0  0  0  0  0  0  0  0  0  0
  186.9710  177.5790  145.6540 C   0  0  0  0  0  0  0  0  0  0  0  0
  185.3350  178.3960  142.3270 N   0  0  0  0  0  0  0  0  0  0  0  0
  188.3050  177.5200  148.4680 C   0  0  0  0  0  3  0  0  0  0  0  0
  186.0730  178.2980  146.6350 C   0  0  0  0  0  0  0  0  0  0  0  0
  187.5530  178.4440  141.3490 C   0  0  0  0  0  0  0  0  0  0  0  0
  186.7300  177.6750  144.1890 C   0  0  0  0  0  0  0  0  0  0  0  0
  189.0560  176.3780  141.4760 C   0  0  0  0  0  2  0  0  0  0  0  0
  184.9210  179.0030  145.9880 C   0  0  0  0  0  3  0  0  0  0  0  0
  189.6140  178.4500  140.0310 C   0  0  0  0  0  3  0  0  0  0  0  0
  188.4540  179.0290  140.3440 C   0  0  0  0  0  3  0  0  0  0  0  0
  188.0120  177.2530  142.1050 C   0  0  0  0  0  0  0  0  0  0  0  0
  181.3490  177.9080  140.9090 C   0  0  0  0  0  3  0  0  0  0  0  0
  183.9790  178.2160  141.8580 C   0  0  0  0  0  0  0  0  0  0  0  0
  183.7240  177.5030  140.6740 C   0  0  0  0  0  3  0  0  0  0  0  0
  182.4170  177.3470  140.2040 C   0  0  0  0  0  3  0  0  0  0  0  0
  181.5890  178.6280  142.0810 C   0  0  0  0  0  3  0  0  0  0  0  0
  182.8950  178.7840  142.5510 C   0  0  0  0  0  3  0  0  0  0  0  0
  1 12  1  0  0  0  0
  2 16  2  0  0  0  0
  2  6  1  0  0  0  0
  3 16  1  0  0  0  0
  4  5  1  0  0  0  0
  5 13  1  0  0  0  0
  6 18  2  0  0  0  0
  7  9  1  0  0  0  0
  8 17  1  0  0  0  0
  9 13  2  0  0  0  0
 10  8  2  0  0  0  0
 11  7  2  0  0  0  0
 11 14  1  0  0  0  0
 12  2  1  0  0  0  0
 14  4  2  0  0  0  0
 15  1  2  0  0  0  0
 15 21  1  0  0  0  0
 16 11  1  0  0  0  0
 17 21  1  0  0  0  0
 18 14  1  0  0  0  0
 19 20  2  0  0  0  0
 19  8  1  0  0  0  0
 20 15  1  0  0  0  0
 21  3  2  0  0  0  0
 22 26  1  0  0  0  0
 23 12  1  0  0  0  0
 23 27  1  0  0  0  0
 24 23  2  0  0  0  0
 25 24  1  0  0  0  0
 25 22  2  0  0  0  0
 26 27  2  0  0  0  0
M  END
>  <MODEL>
1

>  <REMARK>
 VINA RESULT:      -8.2      0.000      0.000
  Name = 
  1 active torsions:
  status: ('A' for Active; 'I' for Inactive)
    1  A    between atoms: C_9  and  N_15
                            x       y       z     vdW  Elec       q    Type
                         _______ _______ _______ _____ _____    ______ ____

>  <TORSDO>
F 1

$$$$
=
 OpenBabel11052413453D

 27 31  0  0  1  0  0  0  0  0999 V2000
  189.4220  176.7080  140.7790 C   0  0  0  0  0  3  0  0  0  0  0  0
  187.4340  177.8900  141.6460 C   0  0  0  0  0  0  0  0  0  0  0  0
  187.6420  178.6780  139.3370 N   0  0  0  0  0  0  0  0  0  0  0  0
  183.4150  177.5300  141.3550 C   0  0  0  0  0  3  0  0  0  0  0  0
  182.4650  177.8530  140.4780 C   0  0  0  0  0  3  0  0  0  0  0  0
  186.6010  177.6330  142.8400 C   0  0  0  0  0  3  0  0  0  0  0  0
  184.9320  179.3840  139.4460 C   0  0  0  0  0  3  0  0  0  0  0  0
  189.7040  177.4210  136.6810 C   0  0  0  0  0  0  0  0  0  0  0  0
  183.5190  179.7530  139.2260 C   0  0  0  0  0  3  0  0  0  0  0  0
  189.7730  177.5710  135.4340 O   0  0  0  0  0  0  0  0  0  0  0  0
  185.4270  178.7280  140.5040 C   0  0  0  0  0  0  0  0  0  0  0  0
  188.8400  177.6050  141.7300 N   0  0  0  0  0  0  0  0  0  0  0  0
  182.4470  179.0860  139.6700 C   0  0  0  0  0  3  0  0  0  0  0  0
  184.5480  178.4380  141.6980 C   0  0  2  0  0  3  0  0  0  0  0  0
  189.3170  176.8810  139.4660 C   0  0  0  0  0  0  0  0  0  0  0  0
  186.8740  178.3830  140.5200 C   0  0  0  0  0  0  0  0  0  0  0  0
  189.2240  178.5580  137.5370 C   0  0  0  0  0  2  0  0  0  0  0  0
  185.2940  177.8780  142.8700 C   0  0  0  0  0  3  0  0  0  0  0  0
  190.1620  176.1590  137.2870 C   0  0  0  0  0  3  0  0  0  0  0  0
  190.0040  175.9210  138.5890 C   0  0  0  0  0  3  0  0  0  0  0  0
  188.6900  178.0770  138.8540 C   0  0  0  0  0  0  0  0  0  0  0  0
  191.1280  178.6480  145.1680 C   0  0  0  0  0  3  0  0  0  0  0  0
  189.6020  177.9690  142.9040 C   0  0  0  0  0  0  0  0  0  0  0  0
  190.5530  179.0030  142.8430 C   0  0  0  0  0  3  0  0  0  0  0  0
  191.3090  179.3420  143.9690 C   0  0  0  0  0  3  0  0  0  0  0  0
  190.1940  177.6120  145.2390 C   0  0  0  0  0  3  0  0  0  0  0  0
  189.4390  177.2720  144.1140 C   0  0  0  0  0  3  0  0  0  0  0  0
  1 12  1  0  0  0  0
  2 12  1  0  0  0  0
  2  6  1  0  0  0  0
  3 16  1  0  0  0  0
  5  4  2  0  0  0  0
  6 18  2  0  0  0  0
  7 11  2  0  0  0  0
  8 19  1  0  0  0  0
  8 17  1  0  0  0  0
  9  7  1  0  0  0  0
  9 13  2  0  0  0  0
 10  8  2  0  0  0  0
 11 16  1  0  0  0  0
 11 14  1  0  0  0  0
 12 23  1  0  0  0  0
 13  5  1  0  0  0  0
 14  4  1  6  0  0  0
 14 18  1  0  0  0  0
 15  1  2  0  0  0  0
 16  2  2  0  0  0  0
 17 21  1  0  0  0  0
 19 20  2  0  0  0  0
 20 15  1  0  0  0  0
 21  3  2  0  0  0  0
 21 15  1  0  0  0  0
 22 26  1  0  0  0  0
 23 27  1  0  0  0  0
 24 23  2  0  0  0  0
 24 25  1  0  0  0  0
 25 22  2  0  0  0  0
 27 26  2  0  0  0  0
M  END
>  <MODEL>
2

>  <REMARK>
 VINA RESULT:      -7.6      2.525      6.406
  Name = 
  1 active torsions:
  status: ('A' for Active; 'I' for Inactive)
    1  A    between atoms: C_9  and  N_15
                            x       y       z     vdW  Elec       q    Type
                         _______ _______ _______ _____ _____    ______ ____

>  <TORSDO>
F 1

$$$$
=
 OpenBabel11052413453D

 27 31  0  0  1  0  0  0  0  0999 V2000
  188.3200  177.8120  139.1570 C   0  0  0  0  0  3  0  0  0  0  0  0
  190.5110  176.6710  139.1530 C   0  0  0  0  0  0  0  0  0  0  0  0
  189.1610  175.3870  137.5640 N   0  0  0  0  0  0  0  0  0  0  0  0
  193.7750  176.5430  136.7670 C   0  0  0  0  0  3  0  0  0  0  0  0
  194.1420  175.9270  135.6430 C   0  0  0  0  0  3  0  0  0  0  0  0
  191.8330  177.1170  139.6420 C   0  0  0  0  0  3  0  0  0  0  0  0
  191.5570  174.4550  136.4460 C   0  0  0  0  0  3  0  0  0  0  0  0
  185.9740  176.1860  136.1180 C   0  0  0  0  0  0  0  0  0  0  0  0
  192.6620  173.9030  135.6370 C   0  0  0  0  0  3  0  0  0  0  0  0
  185.2720  175.7550  135.1680 O   0  0  0  0  0  0  0  0  0  0  0  0
  191.6600  175.3890  137.4010 C   0  0  0  0  0  0  0  0  0  0  0  0
  189.3440  177.1100  139.8680 N   0  0  0  0  0  0  0  0  0  0  0  0
  193.7830  174.5430  135.2840 C   0  0  0  0  0  3  0  0  0  0  0  0
  193.0200  175.8610  137.8590 C   0  0  2  0  0  3  0  0  0  0  0  0
  187.7320  177.3250  138.0700 C   0  0  0  0  0  0  0  0  0  0  0  0
  190.4210  175.8730  138.0670 C   0  0  0  0  0  0  0  0  0  0  0  0
  186.8710  175.2400  136.8640 C   0  0  0  0  0  2  0  0  0  0  0  0
  192.9730  176.7550  139.0600 C   0  0  0  0  0  3  0  0  0  0  0  0
  185.8510  177.5950  136.5300 C   0  0  0  0  0  3  0  0  0  0  0  0
  186.6550  178.1160  137.4580 C   0  0  0  0  0  3  0  0  0  0  0  0
  187.9940  175.9610  137.5500 C   0  0  0  0  0  0  0  0  0  0  0  0
  189.2380  177.0650  144.1260 C   0  0  0  0  0  3  0  0  0  0  0  0
  189.3180  177.1120  141.3140 C   0  0  0  0  0  0  0  0  0  0  0  0
  190.2320  176.3330  142.0440 C   0  0  0  0  0  3  0  0  0  0  0  0
  190.1940  176.3120  143.4410 C   0  0  0  0  0  3  0  0  0  0  0  0
  188.3170  177.8360  143.4130 C   0  0  0  0  0  3  0  0  0  0  0  0
  188.3540  177.8570  142.0170 C   0  0  0  0  0  3  0  0  0  0  0  0
  1 12  1  0  0  0  0
  2  6  1  0  0  0  0
  2 12  1  0  0  0  0
  3 16  1  0  0  0  0
  5  4  2  0  0  0  0
  7 11  2  0  0  0  0
  8 19  1  0  0  0  0
  8 17  1  0  0  0  0
  9  7  1  0  0  0  0
 10  8  2  0  0  0  0
 11 14  1  0  0  0  0
 11 16  1  0  0  0  0
 12 23  1  0  0  0  0
 13  9  2  0  0  0  0
 13  5  1  0  0  0  0
 14  4  1  6  0  0  0
 14 18  1  0  0  0  0
 15  1  2  0  0  0  0
 16  2  2  0  0  0  0
 17 21  1  0  0  0  0
 18  6  2  0  0  0  0
 19 20  2  0  0  0  0
 20 15  1  0  0  0  0
 21  3  2  0  0  0  0
 21 15  1  0  0  0  0
 23 27  2  0  0  0  0
 23 24  1  0  0  0  0
 24 25  2  0  0  0  0
 25 22  1  0  0  0  0
 26 22  2  0  0  0  0
 27 26  1  0  0  0  0
M  END
>  <MODEL>
3

>  <REMARK>
 VINA RESULT:      -7.5      4.309      8.542
  Name = 
  1 active torsions:
  status: ('A' for Active; 'I' for Inactive)
    1  A    between atoms: C_9  and  N_15
                            x       y       z     vdW  Elec       q    Type
                         _______ _______ _______ _____ _____    ______ ____

>  <TORSDO>
F 1

$$$$
=
 OpenBabel11052413453D

 27 31  0  0  1  0  0  0  0  0999 V2000
  183.5830  177.5010  140.0740 C   0  0  0  0  0  3  0  0  0  0  0  0
  181.7520  178.5050  138.7540 C   0  0  0  0  0  0  0  0  0  0  0  0
  181.2700  179.1770  141.0590 N   0  0  0  0  0  0  0  0  0  0  0  0
  180.8130  182.1610  137.2970 C   0  0  0  0  0  3  0  0  0  0  0  0
  180.2740  183.2880  137.7590 C   0  0  0  0  0  3  0  0  0  0  0  0
  181.6240  178.7390  137.3000 C   0  0  0  0  0  3  0  0  0  0  0  0
  179.7180  181.2630  140.0140 C   0  0  0  0  0  3  0  0  0  0  0  0
  183.3450  178.9420  143.9790 C   0  0  0  0  0  0  0  0  0  0  0  0
  178.9310  182.4760  139.7140 C   0  0  0  0  0  3  0  0  0  0  0  0
  183.3310  179.4120  145.1460 O   0  0  0  0  0  0  0  0  0  0  0  0
  180.4080  180.5260  139.1340 C   0  0  0  0  0  0  0  0  0  0  0  0
  182.4690  177.3380  139.1900 N   0  0  0  0  0  0  0  0  0  0  0  0
  179.1740  183.3590  138.7380 C   0  0  0  0  0  3  0  0  0  0  0  0
  180.2960  180.8060  137.6530 C   0  0  0  0  0  0  0  0  0  0  0  0
  183.4960  178.1430  141.2330 C   0  0  0  0  0  0  0  0  0  0  0  0
  181.2010  179.3700  139.6330 C   0  0  2  0  0  3  0  0  0  0  0  0
  182.0470  178.6750  143.2730 C   0  0  0  0  0  2  0  0  0  0  0  0
  180.9680  179.7790  136.7950 C   0  0  0  0  0  3  0  0  0  0  0  0
  184.6320  178.5950  143.3520 C   0  0  0  0  0  3  0  0  0  0  0  0
  184.6960  178.1980  142.0810 C   0  0  0  0  0  3  0  0  0  0  0  0
  182.2170  178.6550  141.7830 C   0  0  0  0  0  0  0  0  0  0  0  0
  181.8860  173.6060  137.2220 C   0  0  0  0  0  3  0  0  0  0  0  0
  182.2740  176.0620  138.5390 C   0  0  0  0  0  0  0  0  0  0  0  0
  183.3150  175.4730  137.7990 C   0  0  0  0  0  3  0  0  0  0  0  0
  183.1230  174.2520  137.1480 C   0  0  0  0  0  3  0  0  0  0  0  0
  180.8410  174.1850  137.9450 C   0  0  0  0  0  3  0  0  0  0  0  0
  181.0320  175.4060  138.5960 C   0  0  0  0  0  3  0  0  0  0  0  0
  1 15  2  0  0  0  0
  2 12  1  0  0  0  0
  3 21  2  0  0  0  0
  4 14  1  0  0  0  0
  4  5  2  0  0  0  0
  5 13  1  0  0  0  0
  6  2  2  0  0  0  0
  8 10  2  0  0  0  0
  9  7  1  0  0  0  0
 11 16  1  0  0  0  0
 11  7  2  0  0  0  0
 12  1  1  0  0  0  0
 13  9  2  0  0  0  0
 14 11  1  0  0  0  0
 15 21  1  0  0  0  0
 15 20  1  0  0  0  0
 16  2  1  6  0  0  0
 16  3  1  0  0  0  0
 17  8  1  0  0  0  0
 18  6  1  0  0  0  0
 18 14  2  0  0  0  0
 19  8  1  0  0  0  0
 20 19  2  0  0  0  0
 21 17  1  0  0  0  0
 22 26  1  0  0  0  0
 23 27  1  0  0  0  0
 23 12  1  0  0  0  0
 24 23  2  0  0  0  0
 25 22  2  0  0  0  0
 25 24  1  0  0  0  0
 26 27  2  0  0  0  0
M  END
>  <MODEL>
4

>  <REMARK>
 VINA RESULT:      -7.4      4.215      8.335
  Name = 
  1 active torsions:
  status: ('A' for Active; 'I' for Inactive)
    1  A    between atoms: C_9  and  N_15
                            x       y       z     vdW  Elec       q    Type
                         _______ _______ _______ _____ _____    ______ ____

>  <TORSDO>
F 1

$$$$
=
 OpenBabel11052413453D

 27 31  0  0  1  0  0  0  0  0999 V2000
  190.1450  178.2500  141.7070 C   0  0  0  0  0  3  0  0  0  0  0  0
  187.6830  178.0390  141.6750 C   0  0  0  0  0  0  0  0  0  0  0  0
  188.3390  177.1050  143.8410 N   0  0  0  0  0  0  0  0  0  0  0  0
  184.5240  180.0000  143.2690 C   0  0  0  0  0  3  0  0  0  0  0  0
  183.8920  180.0460  144.4410 C   0  0  0  0  0  3  0  0  0  0  0  0
  186.6700  178.6830  140.8130 C   0  0  0  0  0  3  0  0  0  0  0  0
  185.7190  177.5810  144.7190 C   0  0  0  0  0  3  0  0  0  0  0  0
  191.5090  177.2510  145.5180 C   0  0  0  0  0  0  0  0  0  0  0  0
  184.4490  177.8130  145.4350 C   0  0  0  0  0  3  0  0  0  0  0  0
  191.9380  177.0140  146.6770 O   0  0  0  0  0  0  0  0  0  0  0  0
  186.0390  178.0350  143.5000 C   0  0  0  0  0  0  0  0  0  0  0  0
  188.9620  177.7260  141.0960 N   0  0  0  0  0  0  0  0  0  0  0  0
  183.6570  178.8850  145.3180 C   0  0  0  0  0  3  0  0  0  0  0  0
  185.0000  178.7280  142.6490 C   0  0  0  0  0  0  0  0  0  0  0  0
  190.4390  178.0600  142.9880 C   0  0  0  0  0  0  0  0  0  0  0  0
  187.3990  177.7560  142.9640 C   0  0  2  0  0  3  0  0  0  0  0  0
  190.3480  176.4620  144.9830 C   0  0  0  0  0  2  0  0  0  0  0  0
  185.4530  178.9990  141.2480 C   0  0  0  0  0  3  0  0  0  0  0  0
  192.1980  178.2450  144.6780 C   0  0  0  0  0  3  0  0  0  0  0  0
  191.7110  178.6020  143.4890 C   0  0  0  0  0  3  0  0  0  0  0  0
  189.6360  177.1950  143.8850 C   0  0  0  0  0  0  0  0  0  0  0  0
  189.2670  176.0710  137.1830 C   0  0  0  0  0  3  0  0  0  0  0  0
  189.0550  177.1490  139.7730 C   0  0  0  0  0  0  0  0  0  0  0  0
  190.2150  176.4610  139.3760 C   0  0  0  0  0  3  0  0  0  0  0  0
  190.3190  175.9230  138.0910 C   0  0  0  0  0  3  0  0  0  0  0  0
  188.1130  176.7610  137.5610 C   0  0  0  0  0  3  0  0  0  0  0  0
  188.0080  177.2990  138.8460 C   0  0  0  0  0  3  0  0  0  0  0  0
  1 15  2  0  0  0  0
  3 21  2  0  0  0  0
  4  5  2  0  0  0  0
  5 13  1  0  0  0  0
  6 18  1  0  0  0  0
  6  2  2  0  0  0  0
  7  9  1  0  0  0  0
  8 10  2  0  0  0  0
 11  7  2  0  0  0  0
 12  2  1  0  0  0  0
 12  1  1  0  0  0  0
 13  9  2  0  0  0  0
 14  4  1  0  0  0  0
 14 11  1  0  0  0  0
 15 20  1  0  0  0  0
 15 21  1  0  0  0  0
 16  2  1  6  0  0  0
 16 11  1  0  0  0  0
 16  3  1  0  0  0  0
 17  8  1  0  0  0  0
 18 14  2  0  0  0  0
 19  8  1  0  0  0  0
 20 19  2  0  0  0  0
 21 17  1  0  0  0  0
 22 26  2  0  0  0  0
 22 25  1  0  0  0  0
 23 12  1  0  0  0  0
 24 23  1  0  0  0  0
 25 24  2  0  0  0  0
 26 27  1  0  0  0  0
 27 23  2  0  0  0  0
M  END
>  <MODEL>
5

>  <REMARK>
 VINA RESULT:      -7.3      2.704      5.102
  Name = 
  1 active torsions:
  status: ('A' for Active; 'I' for Inactive)
    1  A    between atoms: C_9  and  N_15
                            x       y       z     vdW  Elec       q    Type
                         _______ _______ _______ _____ _____    ______ ____

>  <TORSDO>
F 1

$$$$
=
 OpenBabel11052413453D

 27 31  0  0  1  0  0  0  0  0999 V2000
  187.7100  176.9290  143.6330 C   0  0  0  0  0  3  0  0  0  0  0  0
  185.6100  178.1600  143.2180 C   0  0  0  0  0  0  0  0  0  0  0  0
  187.0750  178.8320  141.3750 N   0  0  0  0  0  0  0  0  0  0  0  0
  182.4010  177.8010  140.7790 C   0  0  0  0  0  3  0  0  0  0  0  0
  182.0990  178.0840  139.5130 C   0  0  0  0  0  3  0  0  0  0  0  0
  184.2500  177.9650  143.7660 C   0  0  0  0  0  3  0  0  0  0  0  0
  184.7730  179.5530  139.9480 C   0  0  0  0  0  3  0  0  0  0  0  0
  190.2170  177.4370  140.3410 C   0  0  0  0  0  0  0  0  0  0  0  0
  183.7240  179.9150  138.9730 C   0  0  0  0  0  3  0  0  0  0  0  0
  190.9650  177.5250  139.3330 O   0  0  0  0  0  0  0  0  0  0  0  0
  184.5860  178.9480  141.1280 C   0  0  0  0  0  0  0  0  0  0  0  0
  186.7300  177.8740  144.0720 N   0  0  0  0  0  0  0  0  0  0  0  0
  182.5650  179.2750  138.7800 C   0  0  0  0  0  3  0  0  0  0  0  0
  183.1870  178.7200  141.6530 C   0  0  2  0  0  3  0  0  0  0  0  0
  188.3490  177.0370  142.4740 C   0  0  0  0  0  0  0  0  0  0  0  0
  185.7750  178.5980  141.9510 C   0  0  0  0  0  0  0  0  0  0  0  0
  189.3810  178.6170  140.7470 C   0  0  0  0  0  2  0  0  0  0  0  0
  183.1500  178.2160  143.0630 C   0  0  0  0  0  3  0  0  0  0  0  0
  190.2290  176.2060  141.1480 C   0  0  0  0  0  3  0  0  0  0  0  0
  189.3750  176.0330  142.1580 C   0  0  0  0  0  3  0  0  0  0  0  0
  188.1970  178.2040  141.5710 C   0  0  0  0  0  0  0  0  0  0  0  0
  186.7100  179.0600  148.1630 C   0  0  0  0  0  3  0  0  0  0  0  0
  186.7330  178.2930  145.4560 C   0  0  0  0  0  0  0  0  0  0  0  0
  187.6790  177.7730  146.3560 C   0  0  0  0  0  3  0  0  0  0  0  0
  187.6700  178.1570  147.7000 C   0  0  0  0  0  3  0  0  0  0  0  0
  185.7580  179.5770  147.2820 C   0  0  0  0  0  3  0  0  0  0  0  0
  185.7660  179.1940  145.9380 C   0  0  0  0  0  3  0  0  0  0  0  0
  1 12  1  0  0  0  0
  2  6  1  0  0  0  0
  2 12  1  0  0  0  0
  3 21  2  0  0  0  0
  3 16  1  0  0  0  0
  5  4  2  0  0  0  0
  7 11  2  0  0  0  0
  8 17  1  0  0  0  0
  8 19  1  0  0  0  0
  9  7  1  0  0  0  0
 10  8  2  0  0  0  0
 11 14  1  0  0  0  0
 11 16  1  0  0  0  0
 12 23  1  0  0  0  0
 13  9  2  0  0  0  0
 13  5  1  0  0  0  0
 14  4  1  6  0  0  0
 14 18  1  0  0  0  0
 15  1  2  0  0  0  0
 16  2  2  0  0  0  0
 17 21  1  0  0  0  0
 18  6  2  0  0  0  0
 19 20  2  0  0  0  0
 20 15  1  0  0  0  0
 21 15  1  0  0  0  0
 23 27  2  0  0  0  0
 23 24  1  0  0  0  0
 24 25  2  0  0  0  0
 25 22  1  0  0  0  0
 26 22  2  0  0  0  0
 27 26  1  0  0  0  0
M  END
>  <MODEL>
6

>  <REMARK>
 VINA RESULT:      -7.1      1.303      5.800
  Name = 
  1 active torsions:
  status: ('A' for Active; 'I' for Inactive)
    1  A    between atoms: C_9  and  N_15
                            x       y       z     vdW  Elec       q    Type
                         _______ _______ _______ _____ _____    ______ ____

>  <TORSDO>
F 1

$$$$
=
 OpenBabel11052413453D

 27 31  0  0  1  0  0  0  0  0999 V2000
  182.7630  178.6490  140.7740 C   0  0  0  0  0  3  0  0  0  0  0  0
  184.2900  178.5420  138.8350 C   0  0  0  0  0  0  0  0  0  0  0  0
  185.7360  179.1830  140.7040 N   0  0  0  0  0  0  0  0  0  0  0  0
  187.0280  175.9540  137.3630 C   0  0  0  0  0  3  0  0  0  0  0  0
  188.2990  175.6340  137.6030 C   0  0  0  0  0  3  0  0  0  0  0  0
  184.1180  177.9240  137.5030 C   0  0  0  0  0  3  0  0  0  0  0  0
  187.9090  178.2340  139.2090 C   0  0  0  0  0  3  0  0  0  0  0  0
  185.0420  179.1720  144.2270 C   0  0  0  0  0  0  0  0  0  0  0  0
  189.1840  177.7250  138.6660 C   0  0  0  0  0  3  0  0  0  0  0  0
  185.7120  179.2670  145.2870 O   0  0  0  0  0  0  0  0  0  0  0  0
  186.6880  178.0320  138.6940 C   0  0  0  0  0  0  0  0  0  0  0  0
  183.1310  179.1090  139.4710 N   0  0  0  0  0  0  0  0  0  0  0  0
  189.3550  176.5940  137.9720 C   0  0  0  0  0  3  0  0  0  0  0  0
  186.5320  177.3610  137.3500 C   0  0  0  0  0  0  0  0  0  0  0  0
  183.5990  178.6600  141.8060 C   0  0  0  0  0  0  0  0  0  0  0  0
  185.5060  178.5690  139.4210 C   0  0  2  0  0  3  0  0  0  0  0  0
  185.5110  179.8820  142.9890 C   0  0  0  0  0  2  0  0  0  0  0  0
  185.1290  177.3870  136.8260 C   0  0  0  0  0  3  0  0  0  0  0  0
  183.7710  178.4270  144.2350 C   0  0  0  0  0  3  0  0  0  0  0  0
  183.0880  178.2120  143.1100 C   0  0  0  0  0  3  0  0  0  0  0  0
  184.9560  179.2550  141.7430 C   0  0  0  0  0  0  0  0  0  0  0  0
  180.3200  181.4610  137.3010 C   0  0  0  0  0  3  0  0  0  0  0  0
  182.1870  179.9040  138.7170 C   0  0  0  0  0  0  0  0  0  0  0  0
  182.2820  181.3060  138.7110 C   0  0  0  0  0  3  0  0  0  0  0  0
  181.3560  182.0790  138.0050 C   0  0  0  0  0  3  0  0  0  0  0  0
  180.2080  180.0690  137.3070 C   0  0  0  0  0  3  0  0  0  0  0  0
  181.1330  179.2950  138.0130 C   0  0  0  0  0  3  0  0  0  0  0  0
  1 15  2  0  0  0  0
  2 16  1  0  0  0  0
  2 12  1  0  0  0  0
  3 21  2  0  0  0  0
  4  5  2  0  0  0  0
  5 13  1  0  0  0  0
  6  2  2  0  0  0  0
  8 19  1  0  0  0  0
  8 10  2  0  0  0  0
  9  7  1  0  0  0  0
 11  7  2  0  0  0  0
 12  1  1  0  0  0  0
 13  9  2  0  0  0  0
 14  4  1  0  0  0  0
 14 11  1  0  0  0  0
 15 20  1  0  0  0  0
 16 11  1  6  0  0  0
 16  3  1  0  0  0  0
 17  8  1  0  0  0  0
 18 14  2  0  0  0  0
 18  6  1  0  0  0  0
 20 19  2  0  0  0  0
 21 15  1  0  0  0  0
 21 17  1  0  0  0  0
 22 26  2  0  0  0  0
 22 25  1  0  0  0  0
 23 12  1  0  0  0  0
 24 23  1  0  0  0  0
 25 24  2  0  0  0  0
 26 27  1  0  0  0  0
 27 23  2  0  0  0  0
M  END
>  <MODEL>
7

>  <REMARK>
 VINA RESULT:      -6.9      3.338      6.773
  Name = 
  1 active torsions:
  status: ('A' for Active; 'I' for Inactive)
    1  A    between atoms: C_9  and  N_15
                            x       y       z     vdW  Elec       q    Type
                         _______ _______ _______ _____ _____    ______ ____

>  <TORSDO>
F 1

$$$$
=
 OpenBabel11052413453D

 27 31  0  0  1  0  0  0  0  0999 V2000
  182.2460  178.9690  140.8160 C   0  0  0  0  0  3  0  0  0  0  0  0
  183.0260  178.6680  138.4910 C   0  0  0  0  0  0  0  0  0  0  0  0
  185.0880  178.8130  139.8040 N   0  0  0  0  0  0  0  0  0  0  0  0
  184.4660  175.6460  136.2200 C   0  0  0  0  0  3  0  0  0  0  0  0
  185.6320  175.0260  136.0420 C   0  0  0  0  0  3  0  0  0  0  0  0
  182.3080  178.2120  137.2820 C   0  0  0  0  0  3  0  0  0  0  0  0
  186.3970  177.5120  137.6930 C   0  0  0  0  0  3  0  0  0  0  0  0
  185.5340  178.6860  143.3630 C   0  0  0  0  0  0  0  0  0  0  0  0
  187.2790  176.7700  136.7720 C   0  0  0  0  0  3  0  0  0  0  0  0
  186.5010  178.5420  144.1550 O   0  0  0  0  0  0  0  0  0  0  0  0
  185.0660  177.6360  137.5930 C   0  0  0  0  0  0  0  0  0  0  0  0
  182.2930  179.4330  139.4630 N   0  0  0  0  0  0  0  0  0  0  0  0
  186.9490  175.6870  136.0580 C   0  0  0  0  0  3  0  0  0  0  0  0
  184.3450  177.1260  136.3680 C   0  0  0  0  0  0  0  0  0  0  0  0
  183.3360  178.7090  141.5280 C   0  0  0  0  0  0  0  0  0  0  0  0
  184.3320  178.3710  138.6590 C   0  0  2  0  0  3  0  0  0  0  0  0
  185.7550  179.3640  142.0420 C   0  0  0  0  0  2  0  0  0  0  0  0
  182.8990  177.5120  136.3180 C   0  0  0  0  0  3  0  0  0  0  0  0
  184.1880  178.2530  143.7750 C   0  0  0  0  0  3  0  0  0  0  0  0
  183.1600  178.2890  142.9260 C   0  0  0  0  0  3  0  0  0  0  0  0
  184.7090  178.9800  141.0370 C   0  0  0  0  0  0  0  0  0  0  0  0
  179.6330  182.5470  138.2940 C   0  0  0  0  0  3  0  0  0  0  0  0
  181.3840  180.4790  139.0510 C   0  0  0  0  0  0  0  0  0  0  0  0
  181.8590  181.5980  138.3440 C   0  0  0  0  0  3  0  0  0  0  0  0
  180.9880  182.6230  137.9650 C   0  0  0  0  0  3  0  0  0  0  0  0
  179.1490  181.4460  139.0050 C   0  0  0  0  0  3  0  0  0  0  0  0
  180.0190  180.4210  139.3840 C   0  0  0  0  0  3  0  0  0  0  0  0
  1 15  2  0  0  0  0
  2 16  1  0  0  0  0
  2 12  1  0  0  0  0
  3 21  2  0  0  0  0
  4 14  1  0  0  0  0
  5 13  1  0  0  0  0
  5  4  2  0  0  0  0
  6  2  2  0  0  0  0
  8 19  1  0  0  0  0
  8 10  2  0  0  0  0
  9  7  1  0  0  0  0
 11  7  2  0  0  0  0
 12  1  1  0  0  0  0
 13  9  2  0  0  0  0
 14 11  1  0  0  0  0
 15 20  1  0  0  0  0
 16 11  1  6  0  0  0
 16  3  1  0  0  0  0
 17  8  1  0  0  0  0
 18 14  2  0  0  0  0
 18  6  1  0  0  0  0
 20 19  2  0  0  0  0
 21 15  1  0  0  0  0
 21 17  1  0  0  0  0
 22 26  1  0  0  0  0
 23 27  1  0  0  0  0
 23 12  1  0  0  0  0
 24 23  2  0  0  0  0
 25 22  2  0  0  0  0
 25 24  1  0  0  0  0
 26 27  2  0  0  0  0
M  END
>  <MODEL>
8

>  <REMARK>
 VINA RESULT:      -6.9      3.743      7.429
  Name = 
  1 active torsions:
  status: ('A' for Active; 'I' for Inactive)
    1  A    between atoms: C_9  and  N_15
                            x       y       z     vdW  Elec       q    Type
                         _______ _______ _______ _____ _____    ______ ____

>  <TORSDO>
F 1

$$$$
=
 OpenBabel11052413453D

 27 31  0  0  1  0  0  0  0  0999 V2000
  184.2110  179.6430  140.0650 C   0  0  0  0  0  3  0  0  0  0  0  0
  186.2220  178.2870  139.5970 C   0  0  0  0  0  0  0  0  0  0  0  0
  184.5350  177.4120  138.0530 N   0  0  0  0  0  0  0  0  0  0  0  0
  189.1250  178.1720  136.7810 C   0  0  0  0  0  3  0  0  0  0  0  0
  189.2680  177.6990  135.5430 C   0  0  0  0  0  3  0  0  0  0  0  0
  187.6410  178.5080  139.9510 C   0  0  0  0  0  3  0  0  0  0  0  0
  186.6370  176.4080  136.4930 C   0  0  0  0  0  3  0  0  0  0  0  0
  181.3210  178.7590  137.1920 C   0  0  0  0  0  0  0  0  0  0  0  0
  187.5540  175.8700  135.4700 C   0  0  0  0  0  3  0  0  0  0  0  0
  180.4580  178.5550  136.3000 O   0  0  0  0  0  0  0  0  0  0  0  0
  186.9750  177.1700  137.5430 C   0  0  0  0  0  0  0  0  0  0  0  0
  185.2180  178.7350  140.5220 N   0  0  0  0  0  0  0  0  0  0  0  0
  188.6950  176.4320  135.0530 C   0  0  0  0  0  3  0  0  0  0  0  0
  188.4300  177.4180  137.8650 C   0  0  2  0  0  3  0  0  0  0  0  0
  183.4370  179.3930  139.0150 C   0  0  0  0  0  0  0  0  0  0  0  0
  185.8990  177.6780  138.4360 C   0  0  0  0  0  0  0  0  0  0  0  0
  182.1760  177.6200  137.6690 C   0  0  0  0  0  2  0  0  0  0  0  0
  188.6450  178.1180  139.1710 C   0  0  0  0  0  3  0  0  0  0  0  0
  181.4300  180.0940  137.8050 C   0  0  0  0  0  3  0  0  0  0  0  0
  182.4010  180.3790  138.6740 C   0  0  0  0  0  3  0  0  0  0  0  0
  183.4570  178.1040  138.2820 C   0  0  0  0  0  0  0  0  0  0  0  0
  185.6860  178.1560  144.7160 C   0  0  0  0  0  3  0  0  0  0  0  0
  185.3710  178.5200  141.9440 C   0  0  0  0  0  0  0  0  0  0  0  0
  184.3730  178.9400  142.8400 C   0  0  0  0  0  3  0  0  0  0  0  0
  184.5280  178.7560  144.2170 C   0  0  0  0  0  3  0  0  0  0  0  0
  186.6900  177.7430  143.8380 C   0  0  0  0  0  3  0  0  0  0  0  0
  186.5360  177.9270  142.4620 C   0  0  0  0  0  3  0  0  0  0  0  0
  1 12  1  0  0  0  0
  2  6  1  0  0  0  0
  2 12  1  0  0  0  0
  3 21  2  0  0  0  0
  3 16  1  0  0  0  0
  5  4  2  0  0  0  0
  7 11  2  0  0  0  0
  8 17  1  0  0  0  0
  8 19  1  0  0  0  0
  9  7  1  0  0  0  0
 10  8  2  0  0  0  0
 11 14  1  0  0  0  0
 11 16  1  0  0  0  0
 12 23  1  0  0  0  0
 13  9  2  0  0  0  0
 13  5  1  0  0  0  0
 14  4  1  6  0  0  0
 14 18  1  0  0  0  0
 15  1  2  0  0  0  0
 16  2  2  0  0  0  0
 17 21  1  0  0  0  0
 18  6  2  0  0  0  0
 19 20  2  0  0  0  0
 20 15  1  0  0  0  0
 21 15  1  0  0  0  0
 23 27  2  0  0  0  0
 23 24  1  0  0  0  0
 24 25  2  0  0  0  0
 25 22  1  0  0  0  0
 26 22  2  0  0  0  0
 27 26  1  0  0  0  0
M  END
>  <MODEL>
9

>  <REMARK>
 VINA RESULT:      -6.9      3.758      7.751
  Name = 
  1 active torsions:
  status: ('A' for Active; 'I' for Inactive)
    1  A    between atoms: C_9  and  N_15
                            x       y       z     vdW  Elec       q    Type
                         _______ _______ _______ _____ _____    ______ ____

>  <TORSDO>
F 1

$$$$
