=
 OpenBabel11052413343D

 28 32  0  0  1  0  0  0  0  0999 V2000
  188.4060  176.7690  143.0300 C   0  0  1  0  0  3  0  0  0  0  0  0
  192.8010  176.9230  138.5800 C   0  0  1  0  0  3  0  0  0  0  0  0
  187.5320  178.8850  138.6410 O   0  0  0  0  0  1  0  0  0  0  0  0
  191.1450  175.1880  138.2360 C   0  0  2  0  0  3  0  0  0  0  0  0
  190.6200  177.1360  139.8820 C   0  0  2  0  0  3  0  0  0  0  0  0
  193.3950  175.9020  137.6220 C   0  0  1  0  0  3  0  0  0  0  0  0
  191.6630  176.2020  139.2560 C   0  0  2  0  0  3  0  0  0  0  0  0
  188.9380  176.4280  138.1530 C   0  0  0  0  0  2  0  0  0  0  0  0
  192.3660  174.8500  137.3780 C   0  0  2  0  0  3  0  0  0  0  0  0
  187.8980  177.8140  140.7730 C   0  0  2  0  0  3  0  0  0  0  0  0
  189.9600  176.4460  141.0750 C   0  0  0  0  0  2  0  0  0  0  0  0
  190.0110  175.7170  137.3450 C   0  0  0  0  0  2  0  0  0  0  0  0
  186.2460  178.0010  142.6250 C   0  0  0  0  0  2  0  0  0  0  0  0
  188.5210  178.5090  139.5550 C   0  0  1  0  0  3  0  0  0  0  0  0
  186.8830  178.7290  141.4510 C   0  0  0  0  0  2  0  0  0  0  0  0
  192.6340  175.8710  136.4420 O   0  0  0  0  0  0  0  0  0  0  0  0
  193.7960  177.3040  139.5660 N   0  0  0  0  0  1  0  0  0  0  0  0
  189.5700  177.6200  138.8690 C   0  0  1  0  0  3  0  0  0  0  0  0
  187.3150  177.6440  143.6510 C   0  0  0  0  0  2  0  0  0  0  0  0
  189.0020  177.4120  141.7660 C   0  0  2  0  0  3  0  0  0  0  0  0
  189.4730  176.4240  144.0790 C   0  0  0  0  0  2  0  0  0  0  0  0
  189.6580  177.4910  145.0620 N   0  0  0  0  0  0  0  0  0  0  0  0
  188.3360  176.3960  146.6590 O   0  0  0  0  0  0  0  0  0  0  0  0
  189.0360  177.3990  146.3590 C   0  0  0  0  0  0  0  0  0  0  0  0
  189.1640  178.5030  147.3580 C   0  0  0  0  0  2  0  0  0  0  0  0
  188.4040  178.1500  148.6210 C   0  0  0  0  0  1  0  0  0  0  0  0
  190.2360  178.7480  144.5990 C   0  0  0  0  0  2  0  0  0  0  0  0
  191.6390  178.5220  144.0670 C   0  0  0  0  0  1  0  0  0  0  0  0
  1 19  1  0  0  0  0
  1 21  1  1  0  0  0
  2  7  1  0  0  0  0
  2 17  1  1  0  0  0
  3 14  1  0  0  0  0
  4 12  1  6  0  0  0
  4  7  1  0  0  0  0
  5 11  1  1  0  0  0
  6 16  1  6  0  0  0
  6  2  1  0  0  0  0
  7  5  1  0  0  0  0
  8 18  1  0  0  0  0
  9  6  1  0  0  0  0
  9  4  1  0  0  0  0
 10 15  1  0  0  0  0
 10 20  1  0  0  0  0
 11 20  1  0  0  0  0
 12  8  1  0  0  0  0
 13 19  1  0  0  0  0
 14 10  1  0  0  0  0
 15 13  1  0  0  0  0
 16  9  1  0  0  0  0
 18 14  1  0  0  0  0
 18  5  1  0  0  0  0
 20  1  1  0  0  0  0
 21 22  1  0  0  0  0
 22 24  1  0  0  0  0
 24 23  2  0  0  0  0
 24 25  1  0  0  0  0
 25 26  1  0  0  0  0
 27 22  1  0  0  0  0
 28 27  1  0  0  0  0
M  END
>  <MODEL>
1

>  <REMARK>
 VINA RESULT:      -7.4      0.000      0.000
  Name = 
  4 active torsions:
  status: ('A' for Active; 'I' for Inactive)
    1  A    between atoms: C_1  and  C_2
    2  A    between atoms: C_2  and  N_3
    3  A    between atoms: N_3  and  C_7
    4  A    between atoms: C_6  and  C_11
                            x       y       z     vdW  Elec       q    Type
                         _______ _______ _______ _____ _____    ______ ____

>  <TORSDO>
F 4

$$$$
=
 OpenBabel11052413343D

 28 32  0  0  1  0  0  0  0  0999 V2000
  188.6070  177.6800  142.6170 C   0  0  1  0  0  3  0  0  0  0  0  0
  187.3440  175.8220  136.7780 C   0  0  1  0  0  3  0  0  0  0  0  0
  192.1890  177.2930  139.2230 O   0  0  0  0  0  1  0  0  0  0  0  0
  187.6040  178.2210  136.9880 C   0  0  2  0  0  3  0  0  0  0  0  0
  188.4960  176.6770  138.8860 C   0  0  2  0  0  3  0  0  0  0  0  0
  186.6900  176.4640  135.5650 C   0  0  1  0  0  3  0  0  0  0  0  0
  187.4500  176.9320  137.7930 C   0  0  2  0  0  3  0  0  0  0  0  0
  189.9250  178.5250  137.9550 C   0  0  0  0  0  2  0  0  0  0  0  0
  186.8790  177.9410  135.6710 C   0  0  2  0  0  3  0  0  0  0  0  0
  190.4640  177.5500  140.8920 C   0  0  2  0  0  3  0  0  0  0  0  0
  188.0840  177.3930  140.1710 C   0  0  0  0  0  2  0  0  0  0  0  0
  189.0620  178.6170  136.7080 C   0  0  0  0  0  2  0  0  0  0  0  0
  191.0150  178.0210  143.2740 C   0  0  0  0  0  2  0  0  0  0  0  0
  190.9160  176.8560  139.6000 C   0  0  1  0  0  3  0  0  0  0  0  0
  191.4590  177.2850  142.0180 C   0  0  0  0  0  2  0  0  0  0  0  0
  187.6640  177.1420  134.8130 O   0  0  0  0  0  0  0  0  0  0  0  0
  186.4910  174.7660  137.2910 N   0  0  0  0  0  1  0  0  0  0  0  0
  189.9150  177.0810  138.4550 C   0  0  1  0  0  3  0  0  0  0  0  0
  189.6540  177.5020  143.7190 C   0  0  0  0  0  2  0  0  0  0  0  0
  189.0640  177.0520  141.2890 C   0  0  2  0  0  3  0  0  0  0  0  0
  187.2440  177.1500  143.0860 C   0  0  0  0  0  2  0  0  0  0  0  0
  186.3370  178.2220  143.4960 N   0  0  0  0  0  0  0  0  0  0  0  0
  186.2920  177.4800  145.7200 O   0  0  0  0  0  0  0  0  0  0  0  0
  185.8940  178.3150  144.8640 C   0  0  0  0  0  0  0  0  0  0  0  0
  184.9230  179.3660  145.2930 C   0  0  0  0  0  2  0  0  0  0  0  0
  183.5060  178.8350  145.1950 C   0  0  0  0  0  1  0  0  0  0  0  0
  185.6850  178.9970  142.4470 C   0  0  0  0  0  2  0  0  0  0  0  0
  184.6200  178.1650  141.7560 C   0  0  0  0  0  1  0  0  0  0  0  0
  1 21  1  1  0  0  0
  1 19  1  0  0  0  0
  2 17  1  1  0  0  0
  2  7  1  0  0  0  0
  3 14  1  0  0  0  0
  4 12  1  6  0  0  0
  4  7  1  0  0  0  0
  5 11  1  1  0  0  0
  6 16  1  6  0  0  0
  6  9  1  0  0  0  0
  6  2  1  0  0  0  0
  7  5  1  0  0  0  0
  8 18  1  0  0  0  0
  9  4  1  0  0  0  0
 10 20  1  0  0  0  0
 10 15  1  0  0  0  0
 11 20  1  0  0  0  0
 12  8  1  0  0  0  0
 13 19  1  0  0  0  0
 14 10  1  0  0  0  0
 15 13  1  0  0  0  0
 16  9  1  0  0  0  0
 18  5  1  0  0  0  0
 18 14  1  0  0  0  0
 20  1  1  0  0  0  0
 21 22  1  0  0  0  0
 22 24  1  0  0  0  0
 24 25  1  0  0  0  0
 24 23  2  0  0  0  0
 26 25  1  0  0  0  0
 27 22  1  0  0  0  0
 28 27  1  0  0  0  0
M  END
>  <MODEL>
2

>  <REMARK>
 VINA RESULT:      -7.2      2.719      4.483
  Name = 
  4 active torsions:
  status: ('A' for Active; 'I' for Inactive)
    1  A    between atoms: C_1  and  C_2
    2  A    between atoms: C_2  and  N_3
    3  A    between atoms: N_3  and  C_7
    4  A    between atoms: C_6  and  C_11
                            x       y       z     vdW  Elec       q    Type
                         _______ _______ _______ _____ _____    ______ ____

>  <TORSDO>
F 4

$$$$
=
 OpenBabel11052413343D

 28 32  0  0  1  0  0  0  0  0999 V2000
  184.8900  179.0020  142.2020 C   0  0  1  0  0  3  0  0  0  0  0  0
  190.1460  175.9380  143.6660 C   0  0  1  0  0  3  0  0  0  0  0  0
  185.7980  177.5510  146.8470 O   0  0  0  0  0  1  0  0  0  0  0  0
  190.2150  178.2920  144.2340 C   0  0  2  0  0  3  0  0  0  0  0  0
  187.9140  177.1670  143.7630 C   0  0  2  0  0  3  0  0  0  0  0  0
  191.6060  176.3300  143.8310 C   0  0  1  0  0  3  0  0  0  0  0  0
  189.4160  177.2420  143.4630 C   0  0  2  0  0  3  0  0  0  0  0  0
  188.2390  178.6280  145.7840 C   0  0  0  0  0  2  0  0  0  0  0  0
  191.6530  177.7700  144.2170 C   0  0  2  0  0  3  0  0  0  0  0  0
  185.3430  178.3250  144.6060 C   0  0  2  0  0  3  0  0  0  0  0  0
  187.1670  178.1940  142.9130 C   0  0  0  0  0  2  0  0  0  0  0  0
  189.7500  178.4950  145.6850 C   0  0  0  0  0  2  0  0  0  0  0  0
  183.1360  179.2940  143.9850 C   0  0  0  0  0  2  0  0  0  0  0  0
  186.0790  177.3160  145.4970 C   0  0  1  0  0  3  0  0  0  0  0  0
  183.8380  178.2530  144.8440 C   0  0  0  0  0  2  0  0  0  0  0  0
  191.8330  176.7340  145.1570 O   0  0  0  0  0  0  0  0  0  0  0  0
  189.9940  175.1020  142.4890 N   0  0  0  0  0  1  0  0  0  0  0  0
  187.5960  177.3460  145.2560 C   0  0  1  0  0  3  0  0  0  0  0  0
  183.3920  179.0030  142.5120 C   0  0  0  0  0  2  0  0  0  0  0  0
  185.6640  178.0470  143.1270 C   0  0  2  0  0  3  0  0  0  0  0  0
  185.1260  178.7050  140.7140 C   0  0  0  0  0  2  0  0  0  0  0  0
  183.8780  178.6070  139.9570 N   0  0  0  0  0  0  0  0  0  0  0  0
  184.1810  180.7150  138.9770 O   0  0  0  0  0  0  0  0  0  0  0  0
  183.4650  179.6850  139.0940 C   0  0  0  0  0  0  0  0  0  0  0  0
  182.1670  179.6320  138.3570 C   0  0  0  0  0  2  0  0  0  0  0  0
  181.4830  180.9840  138.4130 C   0  0  0  0  0  1  0  0  0  0  0  0
  182.9480  177.5420  140.3170 C   0  0  0  0  0  2  0  0  0  0  0  0
  183.0550  176.3910  139.3340 C   0  0  0  0  0  1  0  0  0  0  0  0
  1 21  1  6  0  0  0
  1 19  1  0  0  0  0
  1 20  1  0  0  0  0
  2 17  1  6  0  0  0
  2  6  1  0  0  0  0
  4 12  1  1  0  0  0
  5 11  1  6  0  0  0
  5 18  1  0  0  0  0
  6  9  1  0  0  0  0
  6 16  1  1  0  0  0
  7  2  1  0  0  0  0
  7  5  1  0  0  0  0
  7  4  1  0  0  0  0
  9  4  1  0  0  0  0
  9 16  1  0  0  0  0
 10 15  1  0  0  0  0
 10 14  1  0  0  0  0
 11 20  1  0  0  0  0
 12  8  1  0  0  0  0
 13 15  1  0  0  0  0
 14  3  1  0  0  0  0
 18 14  1  0  0  0  0
 18  8  1  0  0  0  0
 19 13  1  0  0  0  0
 20 10  1  0  0  0  0
 22 27  1  0  0  0  0
 22 21  1  0  0  0  0
 23 24  2  0  0  0  0
 24 22  1  0  0  0  0
 25 26  1  0  0  0  0
 25 24  1  0  0  0  0
 28 27  1  0  0  0  0
M  END
>  <MODEL>
3

>  <REMARK>
 VINA RESULT:      -7.1      4.043      7.307
  Name = 
  4 active torsions:
  status: ('A' for Active; 'I' for Inactive)
    1  A    between atoms: C_1  and  C_2
    2  A    between atoms: C_2  and  N_3
    3  A    between atoms: N_3  and  C_7
    4  A    between atoms: C_6  and  C_11
                            x       y       z     vdW  Elec       q    Type
                         _______ _______ _______ _____ _____    ______ ____

>  <TORSDO>
F 4

$$$$
=
 OpenBabel11052413343D

 28 32  0  0  1  0  0  0  0  0999 V2000
  189.1840  177.5230  140.6580 C   0  0  1  0  0  3  0  0  0  0  0  0
  193.3090  175.6210  136.3540 C   0  0  1  0  0  3  0  0  0  0  0  0
  187.8840  177.0310  135.9070 O   0  0  0  0  0  1  0  0  0  0  0  0
  191.8140  173.8650  137.0960 C   0  0  2  0  0  3  0  0  0  0  0  0
  191.1880  176.3480  137.5670 C   0  0  2  0  0  3  0  0  0  0  0  0
  193.9500  174.2900  135.9960 C   0  0  1  0  0  3  0  0  0  0  0  0
  192.2820  175.2860  137.4070 C   0  0  2  0  0  3  0  0  0  0  0  0
  189.4960  174.7570  136.6030 C   0  0  0  0  0  2  0  0  0  0  0  0
  193.0160  173.2040  136.4170 C   0  0  2  0  0  3  0  0  0  0  0  0
  188.4620  177.2290  138.2420 C   0  0  2  0  0  3  0  0  0  0  0  0
  190.6600  176.3310  139.0010 C   0  0  0  0  0  2  0  0  0  0  0  0
  190.5890  173.7950  136.1710 C   0  0  0  0  0  2  0  0  0  0  0  0
  186.8970  178.2460  139.8900 C   0  0  0  0  0  2  0  0  0  0  0  0
  188.9510  177.2350  136.7880 C   0  0  1  0  0  3  0  0  0  0  0  0
  187.3990  178.3030  138.4550 C   0  0  0  0  0  2  0  0  0  0  0  0
  193.1350  173.6140  135.0730 O   0  0  0  0  0  0  0  0  0  0  0  0
  194.3110  176.5110  136.9120 N   0  0  0  0  0  1  0  0  0  0  0  0
  190.0450  176.1820  136.5520 C   0  0  1  0  0  3  0  0  0  0  0  0
  188.0470  178.5280  140.8490 C   0  0  0  0  0  2  0  0  0  0  0  0
  189.6490  177.4580  139.1930 C   0  0  2  0  0  3  0  0  0  0  0  0
  190.3330  177.8260  141.6310 C   0  0  0  0  0  2  0  0  0  0  0  0
  190.0610  177.3430  142.9850 N   0  0  0  0  0  0  0  0  0  0  0  0
  191.5000  178.9210  143.9530 O   0  0  0  0  0  0  0  0  0  0  0  0
  190.7060  177.9580  144.1190 C   0  0  0  0  0  0  0  0  0  0  0  0
  190.4880  177.4440  145.5040 C   0  0  0  0  0  2  0  0  0  0  0  0
  191.6630  176.5840  145.9290 C   0  0  0  0  0  1  0  0  0  0  0  0
  189.3630  176.0700  143.1240 C   0  0  0  0  0  2  0  0  0  0  0  0
  187.9300  176.2970  143.5700 C   0  0  0  0  0  1  0  0  0  0  0  0
  1 19  1  0  0  0  0
  1 21  1  1  0  0  0
  2 17  1  1  0  0  0
  2  7  1  0  0  0  0
  3 14  1  0  0  0  0
  4 12  1  6  0  0  0
  4  7  1  0  0  0  0
  5 11  1  1  0  0  0
  6 16  1  6  0  0  0
  6  2  1  0  0  0  0
  6  9  1  0  0  0  0
  7  5  1  0  0  0  0
  9  4  1  0  0  0  0
 10 15  1  0  0  0  0
 10 20  1  0  0  0  0
 11 20  1  0  0  0  0
 12  8  1  0  0  0  0
 13 19  1  0  0  0  0
 14 10  1  0  0  0  0
 15 13  1  0  0  0  0
 16  9  1  0  0  0  0
 18  8  1  0  0  0  0
 18 14  1  0  0  0  0
 18  5  1  0  0  0  0
 20  1  1  0  0  0  0
 21 22  1  0  0  0  0
 22 27  1  0  0  0  0
 22 24  1  0  0  0  0
 23 24  2  0  0  0  0
 24 25  1  0  0  0  0
 25 26  1  0  0  0  0
 27 28  1  0  0  0  0
M  END
>  <MODEL>
4

>  <REMARK>
 VINA RESULT:      -7.1      1.986      2.916
  Name = 
  4 active torsions:
  status: ('A' for Active; 'I' for Inactive)
    1  A    between atoms: C_1  and  C_2
    2  A    between atoms: C_2  and  N_3
    3  A    between atoms: N_3  and  C_7
    4  A    between atoms: C_6  and  C_11
                            x       y       z     vdW  Elec       q    Type
                         _______ _______ _______ _____ _____    ______ ____

>  <TORSDO>
F 4

$$$$
=
 OpenBabel11052413343D

 28 32  0  0  1  0  0  0  0  0999 V2000
  187.1550  176.8080  144.0870 C   0  0  1  0  0  3  0  0  0  0  0  0
  183.8700  179.3650  139.4160 C   0  0  1  0  0  3  0  0  0  0  0  0
  183.6990  180.2420  144.9670 O   0  0  0  0  0  1  0  0  0  0  0  0
  182.6620  177.6360  140.6070 C   0  0  2  0  0  3  0  0  0  0  0  0
  184.7670  178.7020  141.7080 C   0  0  2  0  0  3  0  0  0  0  0  0
  182.7350  178.8960  138.5200 C   0  0  1  0  0  3  0  0  0  0  0  0
  184.0450  178.2620  140.4290 C   0  0  2  0  0  3  0  0  0  0  0  0
  182.6360  178.4250  143.0130 C   0  0  0  0  0  2  0  0  0  0  0  0
  181.9640  177.8570  139.2630 C   0  0  2  0  0  3  0  0  0  0  0  0
  185.3530  178.5250  144.5870 C   0  0  2  0  0  3  0  0  0  0  0  0
  185.5100  177.5120  142.3150 C   0  0  0  0  0  2  0  0  0  0  0  0
  181.8290  178.2630  141.7360 C   0  0  0  0  0  2  0  0  0  0  0  0
  186.8380  177.7180  146.4140 C   0  0  0  0  0  2  0  0  0  0  0  0
  184.5810  179.7210  144.0150 C   0  0  1  0  0  3  0  0  0  0  0  0
  186.1210  178.9310  145.8400 C   0  0  0  0  0  2  0  0  0  0  0  0
  181.5050  179.1850  139.1350 O   0  0  0  0  0  0  0  0  0  0  0  0
  185.0840  179.5090  138.6320 N   0  0  0  0  0  1  0  0  0  0  0  0
  183.8210  179.3470  142.7330 C   0  0  1  0  0  3  0  0  0  0  0  0
  187.8430  177.1880  145.4000 C   0  0  0  0  0  2  0  0  0  0  0  0
  186.3180  177.9700  143.5250 C   0  0  2  0  0  3  0  0  0  0  0  0
  188.1850  176.2780  143.0790 C   0  0  0  0  0  2  0  0  0  0  0  0
  189.2160  177.2650  142.7600 N   0  0  0  0  0  0  0  0  0  0  0  0
  190.7580  176.2910  144.2330 O   0  0  0  0  0  0  0  0  0  0  0  0
  190.5050  177.2020  143.4010 C   0  0  0  0  0  0  0  0  0  0  0  0
  191.5530  178.2330  143.1330 C   0  0  0  0  0  2  0  0  0  0  0  0
  191.5420  179.2800  144.2290 C   0  0  0  0  0  1  0  0  0  0  0  0
  188.8120  178.4510  142.0130 C   0  0  0  0  0  2  0  0  0  0  0  0
  188.6420  178.1180  140.5420 C   0  0  0  0  0  1  0  0  0  0  0  0
  1 21  1  6  0  0  0
  1 19  1  0  0  0  0
  2 17  1  6  0  0  0
  2  7  1  0  0  0  0
  4 12  1  1  0  0  0
  5 11  1  1  0  0  0
  5 18  1  0  0  0  0
  6 16  1  1  0  0  0
  6  9  1  0  0  0  0
  6  2  1  0  0  0  0
  7  4  1  0  0  0  0
  7  5  1  0  0  0  0
  9  4  1  0  0  0  0
 10 15  1  0  0  0  0
 11 20  1  0  0  0  0
 12  8  1  0  0  0  0
 14 10  1  0  0  0  0
 14  3  1  0  0  0  0
 15 13  1  0  0  0  0
 16  9  1  0  0  0  0
 18  8  1  0  0  0  0
 18 14  1  0  0  0  0
 19 13  1  0  0  0  0
 20  1  1  0  0  0  0
 20 10  1  0  0  0  0
 22 21  1  0  0  0  0
 22 24  1  0  0  0  0
 24 23  2  0  0  0  0
 25 24  1  0  0  0  0
 25 26  1  0  0  0  0
 27 22  1  0  0  0  0
 28 27  1  0  0  0  0
M  END
>  <MODEL>
5

>  <REMARK>
 VINA RESULT:      -7.0      3.529      6.700
  Name = 
  4 active torsions:
  status: ('A' for Active; 'I' for Inactive)
    1  A    between atoms: C_1  and  C_2
    2  A    between atoms: C_2  and  N_3
    3  A    between atoms: N_3  and  C_7
    4  A    between atoms: C_6  and  C_11
                            x       y       z     vdW  Elec       q    Type
                         _______ _______ _______ _____ _____    ______ ____

>  <TORSDO>
F 4

$$$$
=
 OpenBabel11052413343D

 28 32  0  0  1  0  0  0  0  0999 V2000
  184.4820  178.4830  141.9940 C   0  0  1  0  0  3  0  0  0  0  0  0
  187.8960  178.5730  136.7520 C   0  0  1  0  0  3  0  0  0  0  0  0
  182.3510  178.0830  137.5450 O   0  0  0  0  0  1  0  0  0  0  0  0
  187.2330  176.3430  137.4300 C   0  0  2  0  0  3  0  0  0  0  0  0
  185.9900  178.3980  138.4360 C   0  0  2  0  0  3  0  0  0  0  0  0
  188.8200  177.5860  136.0550 C   0  0  1  0  0  3  0  0  0  0  0  0
  187.2940  177.7970  137.8960 C   0  0  2  0  0  3  0  0  0  0  0  0
  184.7040  176.4370  137.5280 C   0  0  0  0  0  2  0  0  0  0  0  0
  188.3930  176.2090  136.4400 C   0  0  2  0  0  3  0  0  0  0  0  0
  183.3550  178.2180  139.7360 C   0  0  2  0  0  3  0  0  0  0  0  0
  185.8360  178.0490  139.9150 C   0  0  0  0  0  2  0  0  0  0  0  0
  185.9140  175.9580  136.7430 C   0  0  0  0  0  2  0  0  0  0  0  0
  181.9720  178.4580  141.7910 C   0  0  0  0  0  2  0  0  0  0  0  0
  183.4720  178.5440  138.2410 C   0  0  1  0  0  3  0  0  0  0  0  0
  182.0890  178.8350  140.3220 C   0  0  0  0  0  2  0  0  0  0  0  0
  188.0680  176.7750  135.1890 O   0  0  0  0  0  0  0  0  0  0  0  0
  188.6700  179.6870  137.2670 N   0  0  0  0  0  1  0  0  0  0  0  0
  184.7560  177.9600  137.6300 C   0  0  1  0  0  3  0  0  0  0  0  0
  183.1640  179.0130  142.5610 C   0  0  0  0  0  2  0  0  0  0  0  0
  184.5970  178.7370  140.4820 C   0  0  2  0  0  3  0  0  0  0  0  0
  185.6690  179.0550  142.7830 C   0  0  0  0  0  2  0  0  0  0  0  0
  186.1990  178.1080  143.7640 N   0  0  0  0  0  0  0  0  0  0  0  0
  185.3050  179.3110  145.5680 O   0  0  0  0  0  0  0  0  0  0  0  0
  185.9700  178.3170  145.1720 C   0  0  0  0  0  0  0  0  0  0  0  0
  186.5490  177.3940  146.1950 C   0  0  0  0  0  2  0  0  0  0  0  0
  187.1620  178.1950  147.3270 C   0  0  0  0  0  1  0  0  0  0  0  0
  187.1820  177.1330  143.3050 C   0  0  0  0  0  2  0  0  0  0  0  0
  188.3610  177.8340  142.6550 C   0  0  0  0  0  1  0  0  0  0  0  0
  1 19  1  0  0  0  0
  1 21  1  1  0  0  0
  2 17  1  1  0  0  0
  2  7  1  0  0  0  0
  3 14  1  0  0  0  0
  4 12  1  6  0  0  0
  4  7  1  0  0  0  0
  5 11  1  1  0  0  0
  6 16  1  6  0  0  0
  6  9  1  0  0  0  0
  6  2  1  0  0  0  0
  7  5  1  0  0  0  0
  8 18  1  0  0  0  0
  9  4  1  0  0  0  0
 10 15  1  0  0  0  0
 10 20  1  0  0  0  0
 11 20  1  0  0  0  0
 12  8  1  0  0  0  0
 13 19  1  0  0  0  0
 14 10  1  0  0  0  0
 15 13  1  0  0  0  0
 16  9  1  0  0  0  0
 18 14  1  0  0  0  0
 18  5  1  0  0  0  0
 20  1  1  0  0  0  0
 21 22  1  0  0  0  0
 22 24  1  0  0  0  0
 24 23  2  0  0  0  0
 24 25  1  0  0  0  0
 25 26  1  0  0  0  0
 27 22  1  0  0  0  0
 28 27  1  0  0  0  0
M  END
>  <MODEL>
6

>  <REMARK>
 VINA RESULT:      -7.0      3.367      4.525
  Name = 
  4 active torsions:
  status: ('A' for Active; 'I' for Inactive)
    1  A    between atoms: C_1  and  C_2
    2  A    between atoms: C_2  and  N_3
    3  A    between atoms: N_3  and  C_7
    4  A    between atoms: C_6  and  C_11
                            x       y       z     vdW  Elec       q    Type
                         _______ _______ _______ _____ _____    ______ ____

>  <TORSDO>
F 4

$$$$
=
 OpenBabel11052413343D

 28 32  0  0  1  0  0  0  0  0999 V2000
  184.2360  178.6180  141.9920 C   0  0  1  0  0  3  0  0  0  0  0  0
  187.0930  178.4850  136.4270 C   0  0  1  0  0  3  0  0  0  0  0  0
  181.6700  177.9450  137.8120 O   0  0  0  0  0  1  0  0  0  0  0  0
  186.5540  176.2840  137.2840 C   0  0  2  0  0  3  0  0  0  0  0  0
  185.3740  178.3680  138.3050 C   0  0  2  0  0  3  0  0  0  0  0  0
  187.9630  177.4780  135.6910 C   0  0  1  0  0  3  0  0  0  0  0  0
  186.6290  177.7620  137.6660 C   0  0  2  0  0  3  0  0  0  0  0  0
  184.0460  176.3400  137.6370 C   0  0  0  0  0  2  0  0  0  0  0  0
  187.6090  176.1160  136.1890 C   0  0  2  0  0  3  0  0  0  0  0  0
  182.8900  178.2140  139.8780 C   0  0  2  0  0  3  0  0  0  0  0  0
  185.3790  178.0970  139.8090 C   0  0  0  0  0  2  0  0  0  0  0  0
  185.1800  175.8400  136.7580 C   0  0  0  0  0  2  0  0  0  0  0  0
  181.7190  178.5400  142.0500 C   0  0  0  0  0  2  0  0  0  0  0  0
  182.8470  178.4610  138.3640 C   0  0  1  0  0  3  0  0  0  0  0  0
  181.6770  178.8400  140.5590 C   0  0  0  0  0  2  0  0  0  0  0  0
  187.1450  176.6080  134.9500 O   0  0  0  0  0  0  0  0  0  0  0  0
  187.8920  179.6380  136.8020 N   0  0  0  0  0  1  0  0  0  0  0  0
  184.0740  177.8670  137.6560 C   0  0  1  0  0  3  0  0  0  0  0  0
  182.9700  179.1560  142.6630 C   0  0  0  0  0  2  0  0  0  0  0  0
  184.1890  178.7930  140.4640 C   0  0  2  0  0  3  0  0  0  0  0  0
  185.4840  179.2520  142.6230 C   0  0  0  0  0  2  0  0  0  0  0  0
  186.1880  178.3320  143.5160 N   0  0  0  0  0  0  0  0  0  0  0  0
  187.8560  177.8950  141.9280 O   0  0  0  0  0  0  0  0  0  0  0  0
  187.3940  177.6750  143.0790 C   0  0  0  0  0  0  0  0  0  0  0  0
  188.0980  176.6890  143.9530 C   0  0  0  0  0  2  0  0  0  0  0  0
  189.1170  177.4000  144.8210 C   0  0  0  0  0  1  0  0  0  0  0  0
  185.4940  177.8910  144.7210 C   0  0  0  0  0  2  0  0  0  0  0  0
  185.3420  179.0430  145.6970 C   0  0  0  0  0  1  0  0  0  0  0  0
  1 21  1  1  0  0  0
  1 19  1  0  0  0  0
  2 17  1  1  0  0  0
  2  7  1  0  0  0  0
  3 14  1  0  0  0  0
  4 12  1  6  0  0  0
  4  7  1  0  0  0  0
  5 11  1  1  0  0  0
  6 16  1  6  0  0  0
  6  9  1  0  0  0  0
  6  2  1  0  0  0  0
  7  5  1  0  0  0  0
  8 18  1  0  0  0  0
  9  4  1  0  0  0  0
 10 20  1  0  0  0  0
 10 15  1  0  0  0  0
 11 20  1  0  0  0  0
 12  8  1  0  0  0  0
 13 19  1  0  0  0  0
 14 10  1  0  0  0  0
 15 13  1  0  0  0  0
 16  9  1  0  0  0  0
 18  5  1  0  0  0  0
 18 14  1  0  0  0  0
 20  1  1  0  0  0  0
 21 22  1  0  0  0  0
 22 27  1  0  0  0  0
 23 24  2  0  0  0  0
 24 22  1  0  0  0  0
 24 25  1  0  0  0  0
 25 26  1  0  0  0  0
 27 28  1  0  0  0  0
M  END
>  <MODEL>
7

>  <REMARK>
 VINA RESULT:      -6.9      3.722      5.224
  Name = 
  4 active torsions:
  status: ('A' for Active; 'I' for Inactive)
    1  A    between atoms: C_1  and  C_2
    2  A    between atoms: C_2  and  N_3
    3  A    between atoms: N_3  and  C_7
    4  A    between atoms: C_6  and  C_11
                            x       y       z     vdW  Elec       q    Type
                         _______ _______ _______ _____ _____    ______ ____

>  <TORSDO>
F 4

$$$$
=
 OpenBabel11052413343D

 28 32  0  0  1  0  0  0  0  0999 V2000
  187.8260  177.9640  141.4330 C   0  0  1  0  0  3  0  0  0  0  0  0
  182.7020  180.6010  138.9950 C   0  0  1  0  0  3  0  0  0  0  0  0
  183.6160  178.2530  144.0220 O   0  0  0  0  0  1  0  0  0  0  0  0
  182.6630  178.1800  138.9260 C   0  0  2  0  0  3  0  0  0  0  0  0
  184.3480  179.3770  140.5100 C   0  0  2  0  0  3  0  0  0  0  0  0
  181.6730  180.1860  137.9560 C   0  0  1  0  0  3  0  0  0  0  0  0
  183.5690  179.3820  139.1890 C   0  0  2  0  0  3  0  0  0  0  0  0
  182.9330  177.4730  141.3430 C   0  0  0  0  0  2  0  0  0  0  0  0
  181.6180  178.6950  137.9350 C   0  0  2  0  0  3  0  0  0  0  0  0
  185.6720  178.0410  142.7740 C   0  0  2  0  0  3  0  0  0  0  0  0
  185.6430  178.5840  140.3410 C   0  0  0  0  0  2  0  0  0  0  0  0
  181.9670  177.6320  140.1820 C   0  0  0  0  0  2  0  0  0  0  0  0
  187.7720  177.2430  143.8460 C   0  0  0  0  0  2  0  0  0  0  0  0
  184.3580  178.8080  142.9740 C   0  0  1  0  0  3  0  0  0  0  0  0
  186.4980  178.0490  144.0560 C   0  0  0  0  0  2  0  0  0  0  0  0
  180.6370  179.4750  138.5830 O   0  0  0  0  0  0  0  0  0  0  0  0
  183.5040  181.6960  138.4790 N   0  0  0  0  0  1  0  0  0  0  0  0
  183.5180  178.8420  141.6880 C   0  0  1  0  0  3  0  0  0  0  0  0
  188.6080  177.8830  142.7460 C   0  0  0  0  0  2  0  0  0  0  0  0
  186.4720  178.6690  141.6190 C   0  0  2  0  0  3  0  0  0  0  0  0
  188.6860  178.6120  140.3390 C   0  0  0  0  0  2  0  0  0  0  0  0
  189.1920  177.6370  139.3730 N   0  0  0  0  0  0  0  0  0  0  0  0
  191.2760  177.5000  140.4400 O   0  0  0  0  0  0  0  0  0  0  0  0
  190.5330  177.1220  139.4960 C   0  0  0  0  0  0  0  0  0  0  0  0
  191.0900  176.1690  138.4890 C   0  0  0  0  0  2  0  0  0  0  0  0
  192.5830  176.3860  138.3410 C   0  0  0  0  0  1  0  0  0  0  0  0
  188.4220  177.4270  138.1530 C   0  0  0  0  0  2  0  0  0  0  0  0
  188.5480  178.6280  137.2330 C   0  0  0  0  0  1  0  0  0  0  0  0
  1 21  1  6  0  0  0
  1 20  1  0  0  0  0
  1 19  1  0  0  0  0
  2 17  1  6  0  0  0
  2  7  1  0  0  0  0
  4  7  1  0  0  0  0
  4 12  1  1  0  0  0
  5 11  1  6  0  0  0
  5 18  1  0  0  0  0
  6 16  1  1  0  0  0
  6  2  1  0  0  0  0
  7  5  1  0  0  0  0
  8 18  1  0  0  0  0
  9  6  1  0  0  0  0
  9 16  1  0  0  0  0
  9  4  1  0  0  0  0
 10 14  1  0  0  0  0
 10 15  1  0  0  0  0
 11 20  1  0  0  0  0
 12  8  1  0  0  0  0
 13 15  1  0  0  0  0
 14  3  1  0  0  0  0
 18 14  1  0  0  0  0
 19 13  1  0  0  0  0
 20 10  1  0  0  0  0
 22 24  1  0  0  0  0
 22 21  1  0  0  0  0
 24 23  2  0  0  0  0
 25 24  1  0  0  0  0
 26 25  1  0  0  0  0
 27 22  1  0  0  0  0
 28 27  1  0  0  0  0
M  END
>  <MODEL>
8

>  <REMARK>
 VINA RESULT:      -6.7      3.976      7.704
  Name = 
  4 active torsions:
  status: ('A' for Active; 'I' for Inactive)
    1  A    between atoms: C_1  and  C_2
    2  A    between atoms: C_2  and  N_3
    3  A    between atoms: N_3  and  C_7
    4  A    between atoms: C_6  and  C_11
                            x       y       z     vdW  Elec       q    Type
                         _______ _______ _______ _____ _____    ______ ____

>  <TORSDO>
F 4

$$$$
=
 OpenBabel11052413343D

 28 32  0  0  1  0  0  0  0  0999 V2000
  185.1650  178.5410  142.9840 C   0  0  1  0  0  3  0  0  0  0  0  0
  180.9280  179.4000  138.4610 C   0  0  1  0  0  3  0  0  0  0  0  0
  180.3340  178.8310  144.0230 O   0  0  0  0  0  1  0  0  0  0  0  0
  181.0960  177.0980  139.1970 C   0  0  2  0  0  3  0  0  0  0  0  0
  182.0800  178.9850  140.6970 C   0  0  2  0  0  3  0  0  0  0  0  0
  180.3260  178.5240  137.3740 C   0  0  1  0  0  3  0  0  0  0  0  0
  181.7740  178.4640  139.2870 C   0  0  2  0  0  3  0  0  0  0  0  0
  180.6180  177.1920  141.6820 C   0  0  0  0  0  2  0  0  0  0  0  0
  180.3930  177.1070  137.8370 C   0  0  2  0  0  3  0  0  0  0  0  0
  182.6930  178.6280  143.5530 C   0  0  2  0  0  3  0  0  0  0  0  0
  183.4150  178.4180  141.1770 C   0  0  0  0  0  2  0  0  0  0  0  0
  180.0730  176.8290  140.3110 C   0  0  0  0  0  2  0  0  0  0  0  0
  184.3840  178.5630  145.3790 C   0  0  0  0  0  2  0  0  0  0  0  0
  181.3310  179.1750  143.1050 C   0  0  1  0  0  3  0  0  0  0  0  0
  183.0540  179.1570  144.9380 C   0  0  0  0  0  2  0  0  0  0  0  0
  179.1990  177.8570  137.8820 O   0  0  0  0  0  0  0  0  0  0  0  0
  181.7680  180.4190  137.8580 N   0  0  0  0  0  1  0  0  0  0  0  0
  180.9550  178.6820  141.7000 C   0  0  1  0  0  3  0  0  0  0  0  0
  185.4830  178.9880  144.4120 C   0  0  0  0  0  2  0  0  0  0  0  0
  183.7740  179.0200  142.5320 C   0  0  2  0  0  3  0  0  0  0  0  0
  186.2830  178.9800  142.0270 C   0  0  0  0  0  2  0  0  0  0  0  0
  187.4260  178.0670  142.0450 N   0  0  0  0  0  0  0  0  0  0  0  0
  188.1310  178.7360  139.9110 O   0  0  0  0  0  0  0  0  0  0  0  0
  188.3200  178.0020  140.9160 C   0  0  0  0  0  0  0  0  0  0  0  0
  189.4600  177.0370  140.8890 C   0  0  0  0  0  2  0  0  0  0  0  0
  190.4320  177.4130  139.7880 C   0  0  0  0  0  1  0  0  0  0  0  0
  187.4640  177.0480  143.0870 C   0  0  0  0  0  2  0  0  0  0  0  0
  188.4990  177.4030  144.1390 C   0  0  0  0  0  1  0  0  0  0  0  0
  1 21  1  6  0  0  0
  1 19  1  0  0  0  0
  2 17  1  6  0  0  0
  2  7  1  0  0  0  0
  4  7  1  0  0  0  0
  4 12  1  1  0  0  0
  5 11  1  1  0  0  0
  5 18  1  0  0  0  0
  6  9  1  0  0  0  0
  6 16  1  1  0  0  0
  6  2  1  0  0  0  0
  7  5  1  0  0  0  0
  8 18  1  0  0  0  0
  9 16  1  0  0  0  0
  9  4  1  0  0  0  0
 10 15  1  0  0  0  0
 11 20  1  0  0  0  0
 12  8  1  0  0  0  0
 14 10  1  0  0  0  0
 14  3  1  0  0  0  0
 15 13  1  0  0  0  0
 18 14  1  0  0  0  0
 19 13  1  0  0  0  0
 20  1  1  0  0  0  0
 20 10  1  0  0  0  0
 21 22  1  0  0  0  0
 22 27  1  0  0  0  0
 23 24  2  0  0  0  0
 24 22  1  0  0  0  0
 25 24  1  0  0  0  0
 26 25  1  0  0  0  0
 27 28  1  0  0  0  0
M  END
>  <MODEL>
9

>  <REMARK>
 VINA RESULT:      -6.6      5.157      8.369
  Name = 
  4 active torsions:
  status: ('A' for Active; 'I' for Inactive)
    1  A    between atoms: C_1  and  C_2
    2  A    between atoms: C_2  and  N_3
    3  A    between atoms: N_3  and  C_7
    4  A    between atoms: C_6  and  C_11
                            x       y       z     vdW  Elec       q    Type
                         _______ _______ _______ _____ _____    ______ ____

>  <TORSDO>
F 4

$$$$
