=
 OpenBabel11052412343D

 30 36  0  0  1  0  0  0  0  0999 V2000
  186.3410  178.5210  142.1600 C   0  0  0  0  0  0  0  0  0  0  0  0
  183.1300  178.7480  143.9700 C   0  0  0  0  0  3  0  0  0  0  0  0
  187.3420  177.4570  147.2520 C   0  0  0  0  0  2  0  0  0  0  0  0
  187.7490  178.4800  142.3410 N   0  0  0  0  0  0  0  0  0  0  0  0
  185.8940  178.4500  140.8170 C   0  0  0  0  0  0  0  0  0  0  0  0
  186.3400  178.3090  138.4510 N   0  0  0  0  0  0  0  0  0  0  0  0
  189.8270  178.4520  142.1560 C   0  0  1  0  0  3  0  0  0  0  0  0
  186.8230  178.3800  139.7200 C   0  0  0  0  0  0  0  0  0  0  0  0
  184.5130  178.4530  140.5460 C   0  0  0  0  0  0  0  0  0  0  0  0
  189.0240  177.0460  145.3700 C   0  0  1  0  0  3  0  0  0  0  0  0
  187.5890  176.8730  145.8690 C   0  0  0  0  0  2  0  0  0  0  0  0
  183.5940  178.5400  141.5980 C   0  0  0  0  0  3  0  0  0  0  0  0
  188.3070  178.3850  139.9400 C   0  0  0  0  0  3  0  0  0  0  0  0
  183.5920  178.8750  145.2810 C   0  0  0  0  0  3  0  0  0  0  0  0
  189.0230  177.0480  143.8410 C   0  0  1  0  0  3  0  0  0  0  0  0
  189.9970  175.1070  142.9900 C   0  0  0  0  0  1  0  0  0  0  0  0
  184.0710  178.3760  139.2250 C   0  0  0  0  0  3  0  0  0  0  0  0
  184.0430  178.6390  142.9210 C   0  0  0  0  0  0  0  0  0  0  0  0
  186.9430  178.9230  147.1410 C   0  0  0  0  0  2  0  0  0  0  0  0
  185.4360  179.0800  146.9480 C   0  0  0  0  0  2  0  0  0  0  0  0
  185.0050  178.3030  138.1870 C   0  0  0  0  0  3  0  0  0  0  0  0
  185.4260  178.6480  143.2100 C   0  0  0  0  0  0  0  0  0  0  0  0
  188.6620  178.4370  141.2120 C   0  0  0  0  0  0  0  0  0  0  0  0
  189.6350  178.1980  145.8800 O   0  0  0  0  0  1  0  0  0  0  0  0
  188.8810  178.4340  143.2420 C   0  0  2  0  0  3  0  0  0  0  0  0
  190.2630  176.4970  143.3260 N   0  0  0  0  0  0  0  0  0  0  0  0
  191.9460  177.4660  142.0930 C   0  0  0  0  0  1  0  0  0  0  0  0
  184.9680  178.8970  145.5340 C   0  0  0  0  0  0  0  0  0  0  0  0
  185.8460  178.7930  144.4960 N   0  0  0  0  0  0  0  0  0  0  0  0
  190.5240  177.1670  142.1150 N   0  0  0  0  0  0  0  0  0  0  0  0
  1  4  1  0  0  0  0
  1 22  1  0  0  0  0
  2 14  1  0  0  0  0
  5  1  2  0  0  0  0
  6  8  2  0  0  0  0
  7 23  1  6  0  0  0
  7 25  1  0  0  0  0
  8 13  1  0  0  0  0
  8  5  1  0  0  0  0
  9  5  1  0  0  0  0
  9 12  2  0  0  0  0
 10 11  1  0  0  0  0
 10 24  1  1  0  0  0
 11  3  1  0  0  0  0
 12 18  1  0  0  0  0
 13 23  2  0  0  0  0
 14 28  2  0  0  0  0
 15 26  1  6  0  0  0
 15 10  1  0  0  0  0
 16 26  1  0  0  0  0
 17  9  1  0  0  0  0
 18 22  1  0  0  0  0
 18  2  2  0  0  0  0
 19  3  1  0  0  0  0
 20 19  1  0  0  0  0
 21  6  1  0  0  0  0
 21 17  2  0  0  0  0
 22 29  2  0  0  0  0
 23  4  1  0  0  0  0
 25  4  1  6  0  0  0
 25 15  1  0  0  0  0
 27 30  1  0  0  0  0
 28 20  1  0  0  0  0
 29 28  1  0  0  0  0
 30  7  1  0  0  0  0
 30 26  1  0  0  0  0
M  END
>  <MODEL>
1

>  <REMARK>
 VINA RESULT:      -9.5      0.000      0.000
  Name = 
  0 active torsions:
  status: ('A' for Active; 'I' for Inactive)
                            x       y       z     vdW  Elec       q    Type
                         _______ _______ _______ _____ _____    ______ ____

>  <TORSDO>
F 0

$$$$
=
 OpenBabel11052412343D

 30 36  0  0  1  0  0  0  0  0999 V2000
  186.5610  177.8180  142.6590 C   0  0  0  0  0  0  0  0  0  0  0  0
  184.2530  179.3380  140.2090 C   0  0  0  0  0  3  0  0  0  0  0  0
  189.1920  178.2220  138.0790 C   0  0  0  0  0  2  0  0  0  0  0  0
  187.7850  177.1080  142.7810 N   0  0  0  0  0  0  0  0  0  0  0  0
  185.8970  178.1070  143.8770 C   0  0  0  0  0  0  0  0  0  0  0  0
  185.7490  177.9760  146.2800 N   0  0  0  0  0  0  0  0  0  0  0  0
  189.4630  176.0310  143.3940 C   0  0  1  0  0  3  0  0  0  0  0  0
  186.4240  177.6680  145.1410 C   0  0  0  0  0  0  0  0  0  0  0  0
  184.6920  178.8340  143.8530 C   0  0  0  0  0  0  0  0  0  0  0  0
  190.3190  177.6680  140.3060 C   0  0  1  0  0  3  0  0  0  0  0  0
  189.3510  178.5780  139.5500 C   0  0  0  0  0  2  0  0  0  0  0  0
  184.1530  179.2540  142.6310 C   0  0  0  0  0  3  0  0  0  0  0  0
  187.6970  176.8790  145.2350 C   0  0  0  0  0  3  0  0  0  0  0  0
  184.8940  178.9930  139.0170 C   0  0  0  0  0  3  0  0  0  0  0  0
  189.9380  177.6570  141.7870 C   0  0  1  0  0  3  0  0  0  0  0  0
  191.5220  178.7830  143.0780 C   0  0  0  0  0  1  0  0  0  0  0  0
  184.0400  179.1260  145.0510 C   0  0  0  0  0  3  0  0  0  0  0  0
  184.8000  178.9400  141.4290 C   0  0  0  0  0  0  0  0  0  0  0  0
  188.0870  177.1890  137.9040 C   0  0  0  0  0  2  0  0  0  0  0  0
  186.7190  177.8530  137.7570 C   0  0  0  0  0  2  0  0  0  0  0  0
  184.5880  178.6870  146.2600 C   0  0  0  0  0  3  0  0  0  0  0  0
  186.0040  178.2020  141.4340 C   0  0  0  0  0  0  0  0  0  0  0  0
  188.2780  176.6550  144.0690 C   0  0  0  0  0  0  0  0  0  0  0  0
  190.3590  176.3710  139.7810 O   0  0  0  0  0  1  0  0  0  0  0  0
  188.9630  176.5540  142.1480 C   0  0  2  0  0  3  0  0  0  0  0  0
  191.1120  177.4650  142.6190 N   0  0  0  0  0  0  0  0  0  0  0  0
  191.6950  175.7440  144.0300 C   0  0  0  0  0  1  0  0  0  0  0  0
  186.0770  178.2480  139.0540 C   0  0  0  0  0  0  0  0  0  0  0  0
  186.5950  177.8640  140.2560 N   0  0  0  0  0  0  0  0  0  0  0  0
  190.6830  176.7510  143.7540 N   0  0  0  0  0  0  0  0  0  0  0  0
  1  4  1  0  0  0  0
  1  5  1  0  0  0  0
  2 18  1  0  0  0  0
  3 11  1  0  0  0  0
  4 23  1  0  0  0  0
  5  8  1  0  0  0  0
  7 30  1  0  0  0  0
  7 23  1  1  0  0  0
  8 13  1  0  0  0  0
  8  6  2  0  0  0  0
  9  5  2  0  0  0  0
  9 17  1  0  0  0  0
 10 24  1  6  0  0  0
 10 15  1  0  0  0  0
 11 10  1  0  0  0  0
 12  9  1  0  0  0  0
 14 28  1  0  0  0  0
 14  2  2  0  0  0  0
 15 25  1  0  0  0  0
 15 26  1  1  0  0  0
 17 21  2  0  0  0  0
 18 22  1  0  0  0  0
 18 12  2  0  0  0  0
 19  3  1  0  0  0  0
 20 19  1  0  0  0  0
 20 28  1  0  0  0  0
 21  6  1  0  0  0  0
 22  1  2  0  0  0  0
 23 13  2  0  0  0  0
 25  4  1  1  0  0  0
 25  7  1  0  0  0  0
 26 16  1  0  0  0  0
 26 30  1  0  0  0  0
 28 29  2  0  0  0  0
 29 22  1  0  0  0  0
 30 27  1  0  0  0  0
M  END
>  <MODEL>
2

>  <REMARK>
 VINA RESULT:      -9.4      1.783      5.200
  Name = 
  0 active torsions:
  status: ('A' for Active; 'I' for Inactive)
                            x       y       z     vdW  Elec       q    Type
                         _______ _______ _______ _____ _____    ______ ____

>  <TORSDO>
F 0

$$$$
=
 OpenBabel11052412343D

 30 36  0  0  1  0  0  0  0  0999 V2000
  186.5820  178.4200  141.1190 C   0  0  0  0  0  0  0  0  0  0  0  0
  183.0010  178.6250  141.9980 C   0  0  0  0  0  3  0  0  0  0  0  0
  186.2030  177.5500  146.3310 C   0  0  0  0  0  2  0  0  0  0  0  0
  187.8910  178.4210  141.6700 N   0  0  0  0  0  0  0  0  0  0  0  0
  186.5120  178.2940  139.7090 C   0  0  0  0  0  0  0  0  0  0  0  0
  187.5750  178.0870  137.5550 N   0  0  0  0  0  0  0  0  0  0  0  0
  189.9430  178.4390  142.0470 C   0  0  1  0  0  3  0  0  0  0  0  0
  187.7000  178.2110  138.9030 C   0  0  0  0  0  0  0  0  0  0  0  0
  185.2530  178.2530  139.0800 C   0  0  0  0  0  0  0  0  0  0  0  0
  188.3330  177.1200  144.9820 C   0  0  1  0  0  3  0  0  0  0  0  0
  186.8200  176.9270  145.0870 C   0  0  0  0  0  2  0  0  0  0  0  0
  184.0850  178.3510  139.8460 C   0  0  0  0  0  3  0  0  0  0  0  0
  189.0720  178.2610  139.5100 C   0  0  0  0  0  3  0  0  0  0  0  0
  183.0950  178.8070  143.3800 C   0  0  0  0  0  3  0  0  0  0  0  0
  188.7410  177.0710  143.5090 C   0  0  1  0  0  3  0  0  0  0  0  0
  189.9370  175.1280  143.0230 C   0  0  0  0  0  1  0  0  0  0  0  0
  185.1810  178.1210  137.6940 C   0  0  0  0  0  3  0  0  0  0  0  0
  184.1630  178.5050  141.2360 C   0  0  0  0  0  0  0  0  0  0  0  0
  185.8260  179.0000  146.0610 C   0  0  0  0  0  2  0  0  0  0  0  0
  184.4230  179.1130  145.4680 C   0  0  0  0  0  2  0  0  0  0  0  0
  186.3590  178.0380  136.9450 C   0  0  0  0  0  3  0  0  0  0  0  0
  185.4180  178.5580  141.8820 C   0  0  0  0  0  0  0  0  0  0  0  0
  189.0730  178.3630  140.8280 C   0  0  0  0  0  0  0  0  0  0  0  0
  188.7670  178.3030  145.5920 O   0  0  0  0  0  1  0  0  0  0  0  0
  188.7420  178.4330  142.8410 C   0  0  2  0  0  3  0  0  0  0  0  0
  190.0810  176.5350  143.3640 N   0  0  0  0  0  0  0  0  0  0  0  0
  192.0180  177.5050  142.5880 C   0  0  0  0  0  1  0  0  0  0  0  0
  184.3520  178.8710  143.9880 C   0  0  0  0  0  0  0  0  0  0  0  0
  185.4770  178.7560  143.2270 N   0  0  0  0  0  0  0  0  0  0  0  0
  190.6460  177.1720  142.2420 N   0  0  0  0  0  0  0  0  0  0  0  0
  1  4  1  0  0  0  0
  1 22  1  0  0  0  0
  2 14  1  0  0  0  0
  5  1  2  0  0  0  0
  6  8  2  0  0  0  0
  7 23  1  6  0  0  0
  7 30  1  0  0  0  0
  7 25  1  0  0  0  0
  8 13  1  0  0  0  0
  8  5  1  0  0  0  0
  9  5  1  0  0  0  0
  9 12  2  0  0  0  0
 10 11  1  0  0  0  0
 10 24  1  6  0  0  0
 11  3  1  0  0  0  0
 12 18  1  0  0  0  0
 13 23  2  0  0  0  0
 14 28  2  0  0  0  0
 15 26  1  1  0  0  0
 15 10  1  0  0  0  0
 16 26  1  0  0  0  0
 17  9  1  0  0  0  0
 18 22  1  0  0  0  0
 18  2  2  0  0  0  0
 19  3  1  0  0  0  0
 20 19  1  0  0  0  0
 21  6  1  0  0  0  0
 21 17  2  0  0  0  0
 22 29  2  0  0  0  0
 23  4  1  0  0  0  0
 25  4  1  6  0  0  0
 25 15  1  0  0  0  0
 28 20  1  0  0  0  0
 29 28  1  0  0  0  0
 30 27  1  0  0  0  0
 30 26  1  0  0  0  0
M  END
>  <MODEL>
3

>  <REMARK>
 VINA RESULT:      -8.9      0.880      1.285
  Name = 
  0 active torsions:
  status: ('A' for Active; 'I' for Inactive)
                            x       y       z     vdW  Elec       q    Type
                         _______ _______ _______ _____ _____    ______ ____

>  <TORSDO>
F 0

$$$$
=
 OpenBabel11052412343D

 30 36  0  0  1  0  0  0  0  0999 V2000
  186.9370  178.0970  141.5770 C   0  0  0  0  0  0  0  0  0  0  0  0
  190.3810  176.7970  141.8670 C   0  0  0  0  0  3  0  0  0  0  0  0
  188.5050  176.7330  136.7040 C   0  0  0  0  0  2  0  0  0  0  0  0
  185.9740  178.5710  140.6470 N   0  0  0  0  0  0  0  0  0  0  0  0
  186.5170  178.0660  142.9300 C   0  0  0  0  0  0  0  0  0  0  0  0
  184.8580  178.4700  144.6330 N   0  0  0  0  0  0  0  0  0  0  0  0
  184.3230  179.3700  139.6520 C   0  0  1  0  0  3  0  0  0  0  0  0
  185.2110  178.5250  143.3210 C   0  0  0  0  0  0  0  0  0  0  0  0
  187.3960  177.5810  143.9160 C   0  0  0  0  0  0  0  0  0  0  0  0
  186.0820  177.2910  137.2990 C   0  0  1  0  0  3  0  0  0  0  0  0
  187.3440  176.5070  137.6610 C   0  0  0  0  0  2  0  0  0  0  0  0
  188.6780  177.1470  143.5580 C   0  0  0  0  0  3  0  0  0  0  0  0
  184.2310  179.0650  142.3210 C   0  0  0  0  0  3  0  0  0  0  0  0
  190.7950  176.8900  140.5370 C   0  0  0  0  0  3  0  0  0  0  0  0
  185.2610  177.5260  138.5680 C   0  0  1  0  0  3  0  0  0  0  0  0
  183.3010  176.2600  138.5560 C   0  0  0  0  0  1  0  0  0  0  0  0
  186.9830  177.5430  145.2480 C   0  0  0  0  0  3  0  0  0  0  0  0
  189.0970  177.2080  142.2230 C   0  0  0  0  0  0  0  0  0  0  0  0
  189.3300  177.9330  137.1520 C   0  0  0  0  0  2  0  0  0  0  0  0
  190.4060  177.5280  138.1570 C   0  0  0  0  0  2  0  0  0  0  0  0
  185.7030  177.9930  145.5870 C   0  0  0  0  0  3  0  0  0  0  0  0
  188.2310  177.7010  141.2220 C   0  0  0  0  0  0  0  0  0  0  0  0
  184.6730  179.0540  141.0760 C   0  0  0  0  0  0  0  0  0  0  0  0
  186.3660  178.4960  136.6460 O   0  0  0  0  0  1  0  0  0  0  0  0
  185.6020  178.8250  139.2710 C   0  0  2  0  0  3  0  0  0  0  0  0
  183.8430  177.5770  138.2600 N   0  0  0  0  0  0  0  0  0  0  0  0
  182.3220  179.2930  138.4450 C   0  0  0  0  0  1  0  0  0  0  0  0
  189.9200  177.3970  139.5710 C   0  0  0  0  0  0  0  0  0  0  0  0
  188.6690  177.7980  139.9370 N   0  0  0  0  0  0  0  0  0  0  0  0
  183.2680  178.4730  139.1820 N   0  0  0  0  0  0  0  0  0  0  0  0
  1  5  1  0  0  0  0
  2 18  1  0  0  0  0
  3 19  1  0  0  0  0
  3 11  1  0  0  0  0
  4 23  1  0  0  0  0
  4  1  1  0  0  0  0
  5  8  2  0  0  0  0
  5  9  1  0  0  0  0
  6 21  2  0  0  0  0
  7 23  1  1  0  0  0
  8  6  1  0  0  0  0
  9 17  2  0  0  0  0
 10 24  1  1  0  0  0
 10 11  1  0  0  0  0
 10 15  1  0  0  0  0
 12  9  1  0  0  0  0
 13  8  1  0  0  0  0
 14  2  2  0  0  0  0
 15 26  1  6  0  0  0
 15 25  1  0  0  0  0
 17 21  1  0  0  0  0
 18 12  2  0  0  0  0
 19 20  1  0  0  0  0
 20 28  1  0  0  0  0
 22  1  2  0  0  0  0
 22 18  1  0  0  0  0
 23 13  2  0  0  0  0
 25  7  1  0  0  0  0
 25  4  1  1  0  0  0
 26 16  1  0  0  0  0
 26 30  1  0  0  0  0
 27 30  1  0  0  0  0
 28 29  2  0  0  0  0
 28 14  1  0  0  0  0
 29 22  1  0  0  0  0
 30  7  1  0  0  0  0
M  END
>  <MODEL>
4

>  <REMARK>
 VINA RESULT:      -8.9      2.606      7.084
  Name = 
  0 active torsions:
  status: ('A' for Active; 'I' for Inactive)
                            x       y       z     vdW  Elec       q    Type
                         _______ _______ _______ _____ _____    ______ ____

>  <TORSDO>
F 0

$$$$
=
 OpenBabel11052412343D

 30 36  0  0  1  0  0  0  0  0999 V2000
  186.6610  178.3210  141.2650 C   0  0  0  0  0  0  0  0  0  0  0  0
  186.5190  177.9250  144.9340 C   0  0  0  0  0  3  0  0  0  0  0  0
  191.4010  176.5430  142.8280 C   0  0  0  0  0  2  0  0  0  0  0  0
  187.5530  178.3920  140.1620 N   0  0  0  0  0  0  0  0  0  0  0  0
  185.2840  178.4260  140.9470 C   0  0  0  0  0  0  0  0  0  0  0  0
  183.5070  178.7200  139.3440 N   0  0  0  0  0  0  0  0  0  0  0  0
  188.4890  178.6030  138.3100 C   0  0  1  0  0  3  0  0  0  0  0  0
  184.8400  178.6300  139.5940 C   0  0  0  0  0  0  0  0  0  0  0  0
  184.3270  178.3350  141.9750 C   0  0  0  0  0  0  0  0  0  0  0  0
  190.6610  176.6160  140.3820 C   0  0  1  0  0  3  0  0  0  0  0  0
  190.3110  176.2220  141.8160 C   0  0  0  0  0  2  0  0  0  0  0  0
  184.7400  178.1550  143.3010 C   0  0  0  0  0  3  0  0  0  0  0  0
  185.8090  178.7470  138.4540 C   0  0  0  0  0  3  0  0  0  0  0  0
  187.8820  177.8820  145.2330 C   0  0  0  0  0  3  0  0  0  0  0  0
  189.3680  176.8690  139.6050 C   0  0  1  0  0  3  0  0  0  0  0  0
  188.9920  175.2000  138.0180 C   0  0  0  0  0  1  0  0  0  0  0  0
  182.9710  178.4300  141.6640 C   0  0  0  0  0  3  0  0  0  0  0  0
  186.1040  178.0820  143.6120 C   0  0  0  0  0  0  0  0  0  0  0  0
  191.2240  177.9600  143.3580 C   0  0  0  0  0  2  0  0  0  0  0  0
  190.2810  177.9950  144.5590 C   0  0  0  0  0  2  0  0  0  0  0  0
  182.5790  178.6230  140.3350 C   0  0  0  0  0  3  0  0  0  0  0  0
  187.0780  178.1810  142.5940 C   0  0  0  0  0  0  0  0  0  0  0  0
  187.0760  178.6250  138.8110 C   0  0  0  0  0  0  0  0  0  0  0  0
  191.5140  177.7250  140.3230 O   0  0  0  0  0  1  0  0  0  0  0  0
  188.9070  178.3130  139.6580 C   0  0  2  0  0  3  0  0  0  0  0  0
  189.5370  176.5360  138.2020 N   0  0  0  0  0  0  0  0  0  0  0  0
  189.4670  177.8580  136.3200 C   0  0  0  0  0  1  0  0  0  0  0  0
  188.8220  177.9990  144.2040 C   0  0  0  0  0  0  0  0  0  0  0  0
  188.3990  178.1560  142.9170 N   0  0  0  0  0  0  0  0  0  0  0  0
  188.7100  177.4180  137.4810 N   0  0  0  0  0  0  0  0  0  0  0  0
  1 22  1  0  0  0  0
  2 14  1  0  0  0  0
  3 19  1  0  0  0  0
  4  1  1  0  0  0  0
  5  1  2  0  0  0  0
  5  9  1  0  0  0  0
  6  8  2  0  0  0  0
  6 21  1  0  0  0  0
  7 23  1  1  0  0  0
  7 25  1  0  0  0  0
  8  5  1  0  0  0  0
  9 12  2  0  0  0  0
 10 24  1  1  0  0  0
 10 11  1  0  0  0  0
 11  3  1  0  0  0  0
 12 18  1  0  0  0  0
 13 23  2  0  0  0  0
 13  8  1  0  0  0  0
 15 26  1  6  0  0  0
 15 25  1  0  0  0  0
 15 10  1  0  0  0  0
 16 26  1  0  0  0  0
 17  9  1  0  0  0  0
 18  2  2  0  0  0  0
 19 20  1  0  0  0  0
 21 17  2  0  0  0  0
 22 29  2  0  0  0  0
 22 18  1  0  0  0  0
 23  4  1  0  0  0  0
 25  4  1  1  0  0  0
 27 30  1  0  0  0  0
 28 20  1  0  0  0  0
 28 14  2  0  0  0  0
 29 28  1  0  0  0  0
 30 26  1  0  0  0  0
 30  7  1  0  0  0  0
M  END
>  <MODEL>
5

>  <REMARK>
 VINA RESULT:      -8.8      2.132      4.000
  Name = 
  0 active torsions:
  status: ('A' for Active; 'I' for Inactive)
                            x       y       z     vdW  Elec       q    Type
                         _______ _______ _______ _____ _____    ______ ____

>  <TORSDO>
F 0

$$$$
=
 OpenBabel11052412343D

 30 36  0  0  1  0  0  0  0  0999 V2000
  185.1470  178.4510  142.2450 C   0  0  0  0  0  0  0  0  0  0  0  0
  188.7320  177.7410  141.7070 C   0  0  0  0  0  3  0  0  0  0  0  0
  185.7290  177.1280  137.1480 C   0  0  0  0  0  2  0  0  0  0  0  0
  183.9270  178.7180  141.5700 N   0  0  0  0  0  0  0  0  0  0  0  0
  185.0700  178.4170  143.6590 C   0  0  0  0  0  0  0  0  0  0  0  0
  183.8160  178.6280  145.7080 N   0  0  0  0  0  0  0  0  0  0  0  0
  181.9770  179.1900  140.9950 C   0  0  1  0  0  3  0  0  0  0  0  0
  183.8360  178.6770  144.3490 C   0  0  0  0  0  0  0  0  0  0  0  0
  186.2260  178.1280  144.4090 C   0  0  0  0  0  0  0  0  0  0  0  0
  183.4560  177.3130  138.3040 C   0  0  1  0  0  3  0  0  0  0  0  0
  184.8810  176.7630  138.3580 C   0  0  0  0  0  2  0  0  0  0  0  0
  187.4420  177.8910  143.7560 C   0  0  0  0  0  3  0  0  0  0  0  0
  182.5710  179.0030  143.6110 C   0  0  0  0  0  3  0  0  0  0  0  0
  188.7980  177.8360  140.3160 C   0  0  0  0  0  3  0  0  0  0  0  0
  182.9300  177.4730  139.7310 C   0  0  1  0  0  3  0  0  0  0  0  0
  181.2650  175.9070  140.2020 C   0  0  0  0  0  1  0  0  0  0  0  0
  186.1510  178.0870  145.8010 C   0  0  0  0  0  3  0  0  0  0  0  0
  187.5170  177.9550  142.3590 C   0  0  0  0  0  0  0  0  0  0  0  0
  186.4220  178.4650  137.3750 C   0  0  0  0  0  2  0  0  0  0  0  0
  187.7570  178.2890  138.0950 C   0  0  0  0  0  2  0  0  0  0  0  0
  184.9310  178.3400  146.4350 C   0  0  0  0  0  3  0  0  0  0  0  0
  186.3690  178.2530  141.5920 C   0  0  0  0  0  0  0  0  0  0  0  0
  182.7020  179.0030  142.2960 C   0  0  0  0  0  0  0  0  0  0  0  0
  183.3710  178.5160  137.5930 O   0  0  0  0  0  1  0  0  0  0  0  0
  183.2030  178.8420  140.3230 C   0  0  2  0  0  3  0  0  0  0  0  0
  181.4920  177.2790  139.7740 N   0  0  0  0  0  0  0  0  0  0  0  0
  179.7900  178.7330  140.3060 C   0  0  0  0  0  1  0  0  0  0  0  0
  187.6470  178.1480  139.5850 C   0  0  0  0  0  0  0  0  0  0  0  0
  186.4690  178.3590  140.2390 N   0  0  0  0  0  0  0  0  0  0  0  0
  181.0080  178.1130  140.8000 N   0  0  0  0  0  0  0  0  0  0  0  0
  1  5  1  0  0  0  0
  2 18  1  0  0  0  0
  3 19  1  0  0  0  0
  3 11  1  0  0  0  0
  4  1  1  0  0  0  0
  4 23  1  0  0  0  0
  5  8  2  0  0  0  0
  5  9  1  0  0  0  0
  6 21  2  0  0  0  0
  7 23  1  1  0  0  0
  8  6  1  0  0  0  0
  9 17  2  0  0  0  0
 10 24  1  1  0  0  0
 10 11  1  0  0  0  0
 10 15  1  0  0  0  0
 12  9  1  0  0  0  0
 13  8  1  0  0  0  0
 14  2  2  0  0  0  0
 15 26  1  6  0  0  0
 15 25  1  0  0  0  0
 17 21  1  0  0  0  0
 18 12  2  0  0  0  0
 19 20  1  0  0  0  0
 20 28  1  0  0  0  0
 22  1  2  0  0  0  0
 22 18  1  0  0  0  0
 23 13  2  0  0  0  0
 25  7  1  0  0  0  0
 25  4  1  1  0  0  0
 26 16  1  0  0  0  0
 26 30  1  0  0  0  0
 27 30  1  0  0  0  0
 28 29  2  0  0  0  0
 28 14  1  0  0  0  0
 29 22  1  0  0  0  0
 30  7  1  0  0  0  0
M  END
>  <MODEL>
6

>  <REMARK>
 VINA RESULT:      -8.5      2.932      7.389
  Name = 
  0 active torsions:
  status: ('A' for Active; 'I' for Inactive)
                            x       y       z     vdW  Elec       q    Type
                         _______ _______ _______ _____ _____    ______ ____

>  <TORSDO>
F 0

$$$$
=
 OpenBabel11052412343D

 30 36  0  0  1  0  0  0  0  0999 V2000
  186.0330  178.3860  141.2660 C   0  0  0  0  0  0  0  0  0  0  0  0
  189.4610  177.5700  142.3720 C   0  0  0  0  0  3  0  0  0  0  0  0
  188.6850  176.6920  137.0050 C   0  0  0  0  0  2  0  0  0  0  0  0
  185.2360  178.6290  140.1170 N   0  0  0  0  0  0  0  0  0  0  0  0
  185.3540  178.4560  142.5080 C   0  0  0  0  0  0  0  0  0  0  0  0
  183.3520  178.8370  143.7980 N   0  0  0  0  0  0  0  0  0  0  0  0
  183.7480  179.0970  138.7300 C   0  0  1  0  0  3  0  0  0  0  0  0
  183.9560  178.7880  142.5810 C   0  0  0  0  0  0  0  0  0  0  0  0
  186.0590  178.1980  143.6980 C   0  0  0  0  0  0  0  0  0  0  0  0
  186.1470  177.0040  137.0520 C   0  0  1  0  0  3  0  0  0  0  0  0
  187.3820  176.4310  137.7470 C   0  0  0  0  0  2  0  0  0  0  0  0
  187.4250  177.8910  143.6500 C   0  0  0  0  0  3  0  0  0  0  0  0
  183.1490  179.0850  141.3510 C   0  0  0  0  0  3  0  0  0  0  0  0
  190.1240  177.5640  141.1430 C   0  0  0  0  0  3  0  0  0  0  0  0
  185.0670  177.2750  138.1000 C   0  0  1  0  0  3  0  0  0  0  0  0
  183.2880  175.7800  137.8920 C   0  0  0  0  0  1  0  0  0  0  0  0
  185.3910  178.2580  144.9210 C   0  0  0  0  0  3  0  0  0  0  0  0
  188.0960  177.8540  142.4210 C   0  0  0  0  0  0  0  0  0  0  0  0
  189.2760  178.0280  137.4340 C   0  0  0  0  0  2  0  0  0  0  0  0
  190.1620  177.8770  138.6690 C   0  0  0  0  0  2  0  0  0  0  0  0
  184.0300  178.5800  144.9500 C   0  0  0  0  0  3  0  0  0  0  0  0
  187.4060  178.1190  141.2180 C   0  0  0  0  0  0  0  0  0  0  0  0
  183.8330  178.9890  140.2240 C   0  0  0  0  0  0  0  0  0  0  0  0
  186.4350  178.1550  136.3090 O   0  0  0  0  0  1  0  0  0  0  0  0
  185.1260  178.6780  138.6740 C   0  0  2  0  0  3  0  0  0  0  0  0
  183.7430  177.1130  137.5280 N   0  0  0  0  0  0  0  0  0  0  0  0
  182.0510  178.6340  137.1900 C   0  0  0  0  0  1  0  0  0  0  0  0
  189.4150  177.8460  139.9710 C   0  0  0  0  0  0  0  0  0  0  0  0
  188.0820  178.1260  140.0380 N   0  0  0  0  0  0  0  0  0  0  0  0
  182.9060  178.0270  138.1960 N   0  0  0  0  0  0  0  0  0  0  0  0
  1  5  1  0  0  0  0
  2 18  1  0  0  0  0
  3 19  1  0  0  0  0
  3 11  1  0  0  0  0
  4 23  1  0  0  0  0
  4  1  1  0  0  0  0
  5  8  2  0  0  0  0
  5  9  1  0  0  0  0
  6 21  2  0  0  0  0
  7 23  1  1  0  0  0
  8  6  1  0  0  0  0
  9 17  2  0  0  0  0
 10 24  1  1  0  0  0
 10 11  1  0  0  0  0
 10 15  1  0  0  0  0
 12  9  1  0  0  0  0
 13  8  1  0  0  0  0
 14  2  2  0  0  0  0
 15 26  1  6  0  0  0
 15 25  1  0  0  0  0
 17 21  1  0  0  0  0
 18 12  2  0  0  0  0
 19 20  1  0  0  0  0
 20 28  1  0  0  0  0
 22  1  2  0  0  0  0
 22 18  1  0  0  0  0
 23 13  2  0  0  0  0
 25  7  1  0  0  0  0
 25  4  1  1  0  0  0
 26 16  1  0  0  0  0
 26 30  1  0  0  0  0
 27 30  1  0  0  0  0
 28 29  2  0  0  0  0
 28 14  1  0  0  0  0
 29 22  1  0  0  0  0
 30  7  1  0  0  0  0
M  END
>  <MODEL>
7

>  <REMARK>
 VINA RESULT:      -8.5      2.658      6.995
  Name = 
  0 active torsions:
  status: ('A' for Active; 'I' for Inactive)
                            x       y       z     vdW  Elec       q    Type
                         _______ _______ _______ _____ _____    ______ ____

>  <TORSDO>
F 0

$$$$
=
 OpenBabel11052412343D

 30 36  0  0  1  0  0  0  0  0999 V2000
  187.8130  178.0190  140.5620 C   0  0  0  0  0  0  0  0  0  0  0  0
  190.4550  177.4740  143.0850 C   0  0  0  0  0  3  0  0  0  0  0  0
  191.8730  175.6830  138.0890 C   0  0  0  0  0  2  0  0  0  0  0  0
  187.5620  178.0470  139.1650 N   0  0  0  0  0  0  0  0  0  0  0  0
  186.6940  178.2840  141.3900 C   0  0  0  0  0  0  0  0  0  0  0  0
  184.3630  178.8360  141.6730 N   0  0  0  0  0  0  0  0  0  0  0  0
  186.7880  178.2420  137.2370 C   0  0  1  0  0  3  0  0  0  0  0  0
  185.4050  178.5940  140.8330 C   0  0  0  0  0  0  0  0  0  0  0  0
  186.8430  178.2460  142.7890 C   0  0  0  0  0  0  0  0  0  0  0  0
  189.5530  175.9460  137.0470 C   0  0  1  0  0  3  0  0  0  0  0  0
  190.3710  175.5250  138.2680 C   0  0  0  0  0  2  0  0  0  0  0  0
  188.0940  177.9640  143.3520 C   0  0  0  0  0  3  0  0  0  0  0  0
  185.1800  178.6620  139.3500 C   0  0  0  0  0  3  0  0  0  0  0  0
  191.5570  177.2740  142.2510 C   0  0  0  0  0  3  0  0  0  0  0  0
  188.1560  176.3680  137.5050 C   0  0  1  0  0  3  0  0  0  0  0  0
  186.5410  174.8230  136.8370 C   0  0  0  0  0  1  0  0  0  0  0  0
  185.7420  178.4990  143.6070 C   0  0  0  0  0  3  0  0  0  0  0  0
  189.2030  177.7330  142.5270 C   0  0  0  0  0  0  0  0  0  0  0  0
  192.3070  177.0850  138.4970 C   0  0  0  0  0  2  0  0  0  0  0  0
  192.6090  177.1640  139.9920 C   0  0  0  0  0  2  0  0  0  0  0  0
  184.5030  178.7920  143.0260 C   0  0  0  0  0  3  0  0  0  0  0  0
  189.0720  177.7760  141.1210 C   0  0  0  0  0  0  0  0  0  0  0  0
  186.2560  178.3910  138.6320 C   0  0  0  0  0  0  0  0  0  0  0  0
  190.1740  176.9600  136.3080 O   0  0  0  0  0  1  0  0  0  0  0  0
  188.0480  177.8480  137.8160 C   0  0  2  0  0  3  0  0  0  0  0  0
  187.1700  176.0840  136.4780 N   0  0  0  0  0  0  0  0  0  0  0  0
  185.8380  177.4900  135.2370 C   0  0  0  0  0  1  0  0  0  0  0  0
  191.3980  177.3380  140.8630 C   0  0  0  0  0  0  0  0  0  0  0  0
  190.1680  177.5970  140.3350 N   0  0  0  0  0  0  0  0  0  0  0  0
  186.1820  177.0800  136.5890 N   0  0  0  0  0  0  0  0  0  0  0  0
  1 22  2  0  0  0  0
  1  5  1  0  0  0  0
  3 11  1  0  0  0  0
  3 19  1  0  0  0  0
  4  1  1  0  0  0  0
  5  9  1  0  0  0  0
  6 21  2  0  0  0  0
  7 25  1  0  0  0  0
  7 23  1  1  0  0  0
  8  5  2  0  0  0  0
  8  6  1  0  0  0  0
  9 12  1  0  0  0  0
  9 17  2  0  0  0  0
 10 24  1  1  0  0  0
 10 15  1  0  0  0  0
 10 11  1  0  0  0  0
 13  8  1  0  0  0  0
 14  2  2  0  0  0  0
 15 26  1  6  0  0  0
 15 25  1  0  0  0  0
 18  2  1  0  0  0  0
 18 12  2  0  0  0  0
 19 20  1  0  0  0  0
 20 28  1  0  0  0  0
 21 17  1  0  0  0  0
 22 18  1  0  0  0  0
 23  4  1  0  0  0  0
 23 13  2  0  0  0  0
 25  4  1  1  0  0  0
 26 30  1  0  0  0  0
 26 16  1  0  0  0  0
 27 30  1  0  0  0  0
 28 14  1  0  0  0  0
 29 28  2  0  0  0  0
 29 22  1  0  0  0  0
 30  7  1  0  0  0  0
M  END
>  <MODEL>
8

>  <REMARK>
 VINA RESULT:      -8.3      2.888      6.614
  Name = 
  0 active torsions:
  status: ('A' for Active; 'I' for Inactive)
                            x       y       z     vdW  Elec       q    Type
                         _______ _______ _______ _____ _____    ______ ____

>  <TORSDO>
F 0

$$$$
=
 OpenBabel11052412343D

 30 36  0  0  1  0  0  0  0  0999 V2000
  186.2900  178.3380  142.4570 C   0  0  0  0  0  0  0  0  0  0  0  0
  189.8210  177.2880  142.7160 C   0  0  0  0  0  3  0  0  0  0  0  0
  187.9090  177.0910  137.5700 C   0  0  0  0  0  2  0  0  0  0  0  0
  185.2870  178.7420  141.5360 N   0  0  0  0  0  0  0  0  0  0  0  0
  185.8850  178.2770  143.8140 C   0  0  0  0  0  0  0  0  0  0  0  0
  184.2170  178.5610  145.5320 N   0  0  0  0  0  0  0  0  0  0  0  0
  183.5750  179.4210  140.5560 C   0  0  1  0  0  3  0  0  0  0  0  0
  184.5540  178.6420  144.2170 C   0  0  0  0  0  0  0  0  0  0  0  0
  186.8050  177.8560  144.7920 C   0  0  0  0  0  0  0  0  0  0  0  0
  185.4570  177.4730  138.1870 C   0  0  1  0  0  3  0  0  0  0  0  0
  186.7750  176.7820  138.5370 C   0  0  0  0  0  2  0  0  0  0  0  0
  188.1120  177.5150  144.4230 C   0  0  0  0  0  3  0  0  0  0  0  0
  183.5280  179.1100  143.2260 C   0  0  0  0  0  3  0  0  0  0  0  0
  190.2150  177.4110  141.3830 C   0  0  0  0  0  3  0  0  0  0  0  0
  184.6320  177.6480  139.4630 C   0  0  1  0  0  3  0  0  0  0  0  0
  182.7690  176.2460  139.4680 C   0  0  0  0  0  1  0  0  0  0  0  0
  186.4080  177.7880  146.1280 C   0  0  0  0  0  3  0  0  0  0  0  0
  188.5140  177.6060  143.0840 C   0  0  0  0  0  0  0  0  0  0  0  0
  188.6490  178.3460  138.0110 C   0  0  0  0  0  2  0  0  0  0  0  0
  189.7610  178.0200  139.0070 C   0  0  0  0  0  2  0  0  0  0  0  0
  185.1020  178.1460  146.4790 C   0  0  0  0  0  3  0  0  0  0  0  0
  187.6060  178.0360  142.0910 C   0  0  0  0  0  0  0  0  0  0  0  0
  183.9590  179.1300  141.9770 C   0  0  0  0  0  0  0  0  0  0  0  0
  185.6490  178.6960  137.5320 O   0  0  0  0  0  1  0  0  0  0  0  0
  184.8850  178.9690  140.1640 C   0  0  2  0  0  3  0  0  0  0  0  0
  183.2120  177.5980  139.1680 N   0  0  0  0  0  0  0  0  0  0  0  0
  181.5740  179.2010  139.3670 C   0  0  0  0  0  1  0  0  0  0  0  0
  189.2970  177.8540  140.4250 C   0  0  0  0  0  0  0  0  0  0  0  0
  188.0240  178.1650  140.8030 N   0  0  0  0  0  0  0  0  0  0  0  0
  182.5830  178.4500  140.0960 N   0  0  0  0  0  0  0  0  0  0  0  0
  1  5  1  0  0  0  0
  2 18  1  0  0  0  0
  3 19  1  0  0  0  0
  3 11  1  0  0  0  0
  4 23  1  0  0  0  0
  4  1  1  0  0  0  0
  5  8  2  0  0  0  0
  5  9  1  0  0  0  0
  6 21  2  0  0  0  0
  7 23  1  1  0  0  0
  8  6  1  0  0  0  0
  9 17  2  0  0  0  0
 10 24  1  1  0  0  0
 10 11  1  0  0  0  0
 10 15  1  0  0  0  0
 12  9  1  0  0  0  0
 13  8  1  0  0  0  0
 14  2  2  0  0  0  0
 15 26  1  6  0  0  0
 15 25  1  0  0  0  0
 17 21  1  0  0  0  0
 18 12  2  0  0  0  0
 19 20  1  0  0  0  0
 20 28  1  0  0  0  0
 22  1  2  0  0  0  0
 22 18  1  0  0  0  0
 23 13  2  0  0  0  0
 25  7  1  0  0  0  0
 25  4  1  1  0  0  0
 26 16  1  0  0  0  0
 26 30  1  0  0  0  0
 27 30  1  0  0  0  0
 28 29  2  0  0  0  0
 28 14  1  0  0  0  0
 29 22  1  0  0  0  0
 30  7  1  0  0  0  0
M  END
>  <MODEL>
9

>  <REMARK>
 VINA RESULT:      -8.3      2.458      6.897
  Name = 
  0 active torsions:
  status: ('A' for Active; 'I' for Inactive)
                            x       y       z     vdW  Elec       q    Type
                         _______ _______ _______ _____ _____    ______ ____

>  <TORSDO>
F 0

$$$$
