=
 OpenBabel11052413103D

 31 34  0  0  1  0  0  0  0  0999 V2000
  189.2600  177.2990  143.4960 N   0  0  0  0  0  0  0  0  0  0  0  0
  188.4960  176.9600  144.7030 C   0  0  2  0  0  3  0  0  0  0  0  0
  187.3600  177.9620  144.9770 C   0  0  1  0  0  3  0  0  0  0  0  0
  184.8450  178.2110  144.4910 C   0  0  0  0  0  2  0  0  0  0  0  0
  186.2110  177.7280  143.9870 C   0  0  0  0  0  2  0  0  0  0  0  0
  189.3960  177.8380  146.9070 C   0  0  0  0  0  2  0  0  0  0  0  0
  184.9950  179.3620  145.4770 C   0  0  0  0  0  2  0  0  0  0  0  0
  189.4230  176.6940  145.8990 C   0  0  0  0  0  2  0  0  0  0  0  0
  185.7590  178.9120  146.7260 C   0  0  0  0  0  2  0  0  0  0  0  0
  187.7700  177.1700  148.5340 O   0  0  0  0  0  1  0  0  0  0  0  0
  186.8680  177.8890  146.4360 C   0  0  2  0  0  3  0  0  0  0  0  0
  187.9890  178.0480  147.4720 C   0  0  2  0  0  3  0  0  0  0  0  0
  190.5710  177.9130  143.5240 C   0  0  0  0  0  0  0  0  0  0  0  0
  190.7410  179.1700  143.9240 C   0  0  0  0  0  2  0  0  0  0  0  0
  191.7860  177.1440  143.1070 C   0  0  0  0  0  2  0  0  0  0  0  0
  191.7710  175.7520  143.7120 C   0  0  0  0  0  1  0  0  0  0  0  0
  188.6690  176.9190  142.2150 C   0  0  0  0  0  2  0  0  0  0  0  0
  188.6460  178.0980  141.2550 C   0  0  0  0  0  2  0  0  0  0  0  0
  189.4600  177.7780  140.0190 C   0  0  0  0  0  2  0  0  0  0  0  0
  188.5390  177.3810  138.8820 C   0  0  0  0  0  2  0  0  0  0  0  0
  187.5740  178.4420  138.6350 N   0  0  0  0  0  2  0  0  0  0  0  0
  182.6350  178.4910  140.3340 C   0  0  0  0  0  0  0  0  0  0  0  0
  185.0570  178.8280  140.4790 C   0  0  0  0  0  3  0  0  0  0  0  0
  184.3750  177.5730  137.2580 O   0  0  0  0  0  0  0  0  0  0  0  0
  185.6890  177.6810  137.1320 C   0  0  0  0  0  3  0  0  0  0  0  0
  181.4120  178.5550  140.9140 F   0  0  0  0  0  0  0  0  0  0  0  0
  186.2020  178.1790  138.3280 C   0  0  0  0  0  0  0  0  0  0  0  0
  183.7780  178.8910  141.0620 C   0  0  0  0  0  3  0  0  0  0  0  0
  184.0350  177.9730  138.4610 C   0  0  0  0  0  0  0  0  0  0  0  0
  185.1380  178.3620  139.1700 C   0  0  0  0  0  0  0  0  0  0  0  0
  182.7570  178.0230  139.0120 C   0  0  0  0  0  3  0  0  0  0  0  0
  1 13  1  0  0  0  0
  2  1  1  6  0  0  0
  2  3  1  0  0  0  0
  2  8  1  0  0  0  0
  3  5  1  6  0  0  0
  3 11  1  0  0  0  0
  4  7  1  0  0  0  0
  5  4  1  0  0  0  0
  6 12  1  0  0  0  0
  7  9  1  0  0  0  0
  8  6  1  0  0  0  0
 11  9  1  1  0  0  0
 11 12  1  0  0  0  0
 12 10  1  1  0  0  0
 13 14  2  0  0  0  0
 15 13  1  0  0  0  0
 15 16  1  0  0  0  0
 17  1  1  0  0  0  0
 18 17  1  0  0  0  0
 19 18  1  0  0  0  0
 20 19  1  0  0  0  0
 21 20  1  0  0  0  0
 22 26  1  0  0  0  0
 22 28  1  0  0  0  0
 23 28  2  0  0  0  0
 24 29  1  0  0  0  0
 25 24  1  0  0  0  0
 25 27  2  0  0  0  0
 27 21  1  0  0  0  0
 27 30  1  0  0  0  0
 29 31  1  0  0  0  0
 29 30  2  0  0  0  0
 30 23  1  0  0  0  0
 31 22  2  0  0  0  0
M  END
>  <MODEL>
1

>  <REMARK>
 VINA RESULT:      -8.1      0.000      0.000
  Name = 
  9 active torsions:
  status: ('A' for Active; 'I' for Inactive)
    1  A    between atoms: C_2  and  N_12
    2  A    between atoms: C_2  and  C_13
    3  A    between atoms: C_4  and  N_12
    4  A    between atoms: C_9  and  N_23
    5  A    between atoms: N_12  and  C_25
    6  A    between atoms: C_15  and  C_20
    7  A    between atoms: C_15  and  N_23
    8  A    between atoms: C_20  and  C_27
    9  A    between atoms: C_25  and  C_27
                            x       y       z     vdW  Elec       q    Type
                         _______ _______ _______ _____ _____    ______ ____

>  <TORSDO>
F 9

$$$$
=
 OpenBabel11052413103D

 31 34  0  0  1  0  0  0  0  0999 V2000
  189.2850  178.0740  140.8270 N   0  0  0  0  0  0  0  0  0  0  0  0
  189.6580  177.8700  139.4210 C   0  0  2  0  0  3  0  0  0  0  0  0
  188.6480  176.9830  138.6700 C   0  0  1  0  0  3  0  0  0  0  0  0
  186.5640  177.2590  137.1870 C   0  0  0  0  0  2  0  0  0  0  0  0
  187.3680  177.7800  138.3840 C   0  0  0  0  0  2  0  0  0  0  0  0
  191.2490  175.9560  138.9290 C   0  0  0  0  0  2  0  0  0  0  0  0
  186.7900  175.7680  136.9750 C   0  0  0  0  0  2  0  0  0  0  0  0
  191.1240  177.4330  139.2870 C   0  0  0  0  0  2  0  0  0  0  0  0
  188.2570  175.4830  136.6400 C   0  0  0  0  0  2  0  0  0  0  0  0
  191.4420  175.9280  136.5420 O   0  0  0  0  0  1  0  0  0  0  0  0
  189.2470  176.3990  137.3760 C   0  0  2  0  0  3  0  0  0  0  0  0
  190.5690  175.6480  137.5930 C   0  0  2  0  0  3  0  0  0  0  0  0
  190.0150  177.5030  141.9400 C   0  0  0  0  0  0  0  0  0  0  0  0
  190.8260  178.2430  142.6900 C   0  0  0  0  0  2  0  0  0  0  0  0
  189.8730  176.0540  142.2860 C   0  0  0  0  0  2  0  0  0  0  0  0
  190.8300  175.6750  143.4010 C   0  0  0  0  0  1  0  0  0  0  0  0
  188.1540  178.9630  141.0850 C   0  0  0  0  0  2  0  0  0  0  0  0
  187.0600  178.2410  141.8570 C   0  0  0  0  0  2  0  0  0  0  0  0
  185.7160  178.8760  141.5670 C   0  0  0  0  0  2  0  0  0  0  0  0
  185.0530  179.2970  142.8650 C   0  0  0  0  0  2  0  0  0  0  0  0
  185.0430  178.1800  143.7990 N   0  0  0  0  0  2  0  0  0  0  0  0
  188.7930  177.8210  147.4170 C   0  0  0  0  0  0  0  0  0  0  0  0
  187.8330  177.6960  145.1670 C   0  0  0  0  0  3  0  0  0  0  0  0
  185.2550  178.7190  147.3410 O   0  0  0  0  0  0  0  0  0  0  0  0
  184.5510  178.7150  146.2200 C   0  0  0  0  0  3  0  0  0  0  0  0
  189.8610  177.6770  148.2380 F   0  0  0  0  0  0  0  0  0  0  0  0
  185.3910  178.3280  145.1790 C   0  0  0  0  0  0  0  0  0  0  0  0
  188.9310  177.5560  146.0360 C   0  0  0  0  0  3  0  0  0  0  0  0
  186.4860  178.3580  147.0640 C   0  0  0  0  0  0  0  0  0  0  0  0
  186.6250  178.1020  145.7280 C   0  0  0  0  0  0  0  0  0  0  0  0
  187.5540  178.2270  147.9480 C   0  0  0  0  0  3  0  0  0  0  0  0
  1 17  1  0  0  0  0
  1 13  1  0  0  0  0
  2  1  1  1  0  0  0
  3  5  1  6  0  0  0
  3  2  1  0  0  0  0
  4  5  1  0  0  0  0
  6  8  1  0  0  0  0
  7  4  1  0  0  0  0
  8  2  1  0  0  0  0
  9  7  1  0  0  0  0
 11  9  1  1  0  0  0
 11 12  1  0  0  0  0
 11  3  1  0  0  0  0
 12 10  1  6  0  0  0
 12  6  1  0  0  0  0
 13 15  1  0  0  0  0
 13 14  2  0  0  0  0
 15 16  1  0  0  0  0
 17 18  1  0  0  0  0
 19 18  1  0  0  0  0
 19 20  1  0  0  0  0
 20 21  1  0  0  0  0
 21 27  1  0  0  0  0
 22 31  1  0  0  0  0
 22 26  1  0  0  0  0
 23 30  2  0  0  0  0
 23 28  1  0  0  0  0
 25 24  1  0  0  0  0
 27 30  1  0  0  0  0
 27 25  2  0  0  0  0
 28 22  2  0  0  0  0
 29 24  1  0  0  0  0
 29 31  2  0  0  0  0
 30 29  1  0  0  0  0
M  END
>  <MODEL>
2

>  <REMARK>
 VINA RESULT:      -7.7      2.991      7.451
  Name = 
  9 active torsions:
  status: ('A' for Active; 'I' for Inactive)
    1  A    between atoms: C_2  and  N_12
    2  A    between atoms: C_2  and  C_13
    3  A    between atoms: C_4  and  N_12
    4  A    between atoms: C_9  and  N_23
    5  A    between atoms: N_12  and  C_25
    6  A    between atoms: C_15  and  C_20
    7  A    between atoms: C_15  and  N_23
    8  A    between atoms: C_20  and  C_27
    9  A    between atoms: C_25  and  C_27
                            x       y       z     vdW  Elec       q    Type
                         _______ _______ _______ _____ _____    ______ ____

>  <TORSDO>
F 9

$$$$
=
 OpenBabel11052413103D

 31 34  0  0  1  0  0  0  0  0999 V2000
  189.2940  177.4320  143.2940 N   0  0  0  0  0  0  0  0  0  0  0  0
  188.5680  177.0020  144.4960 C   0  0  2  0  0  3  0  0  0  0  0  0
  187.4360  177.9740  144.8760 C   0  0  1  0  0  3  0  0  0  0  0  0
  184.9070  178.2390  144.4850 C   0  0  0  0  0  2  0  0  0  0  0  0
  186.2580  177.8030  143.9060 C   0  0  0  0  0  2  0  0  0  0  0  0
  189.5310  177.7270  146.7290 C   0  0  0  0  0  2  0  0  0  0  0  0
  185.0800  179.3180  145.5450 C   0  0  0  0  0  2  0  0  0  0  0  0
  189.5330  176.6580  145.6410 C   0  0  0  0  0  2  0  0  0  0  0  0
  185.8850  178.7850  146.7350 C   0  0  0  0  0  2  0  0  0  0  0  0
  187.9590  176.9320  148.3520 O   0  0  0  0  0  1  0  0  0  0  0  0
  186.9890  177.7930  146.3390 C   0  0  2  0  0  3  0  0  0  0  0  0
  188.1410  177.8860  147.3500 C   0  0  2  0  0  3  0  0  0  0  0  0
  190.6070  178.0410  143.3260 C   0  0  0  0  0  0  0  0  0  0  0  0
  190.7920  179.2670  143.8060 C   0  0  0  0  0  2  0  0  0  0  0  0
  191.8060  177.3020  142.8210 C   0  0  0  0  0  2  0  0  0  0  0  0
  191.9740  177.5140  141.3270 C   0  0  0  0  0  1  0  0  0  0  0  0
  188.6600  177.1510  142.0070 C   0  0  0  0  0  2  0  0  0  0  0  0
  188.3580  178.4390  141.2570 C   0  0  0  0  0  2  0  0  0  0  0  0
  188.0580  178.1340  139.8040 C   0  0  0  0  0  2  0  0  0  0  0  0
  189.0990  178.7850  138.9140 C   0  0  0  0  0  2  0  0  0  0  0  0
  189.0460  178.2000  137.5820 N   0  0  0  0  0  2  0  0  0  0  0  0
  192.4990  174.2870  137.3690 C   0  0  0  0  0  0  0  0  0  0  0  0
  191.7450  176.5930  137.7110 C   0  0  0  0  0  3  0  0  0  0  0  0
  188.9060  174.6880  136.8560 O   0  0  0  0  0  0  0  0  0  0  0  0
  188.3010  175.8580  136.9920 C   0  0  0  0  0  3  0  0  0  0  0  0
  193.5060  173.3820  137.3480 F   0  0  0  0  0  0  0  0  0  0  0  0
  189.2590  176.8060  137.3440 C   0  0  0  0  0  0  0  0  0  0  0  0
  192.7760  175.6360  137.6870 C   0  0  0  0  0  3  0  0  0  0  0  0
  190.1860  174.8480  137.1010 C   0  0  0  0  0  0  0  0  0  0  0  0
  190.4590  176.1510  137.4110 C   0  0  0  0  0  0  0  0  0  0  0  0
  191.1860  173.8790  137.0690 C   0  0  0  0  0  3  0  0  0  0  0  0
  1 13  1  0  0  0  0
  2  1  1  6  0  0  0
  2  3  1  0  0  0  0
  2  8  1  0  0  0  0
  3  5  1  6  0  0  0
  3 11  1  0  0  0  0
  4  7  1  0  0  0  0
  5  4  1  0  0  0  0
  6 12  1  0  0  0  0
  7  9  1  0  0  0  0
  8  6  1  0  0  0  0
 11  9  1  1  0  0  0
 11 12  1  0  0  0  0
 12 10  1  1  0  0  0
 13 14  2  0  0  0  0
 15 13  1  0  0  0  0
 16 15  1  0  0  0  0
 17  1  1  0  0  0  0
 18 17  1  0  0  0  0
 19 18  1  0  0  0  0
 20 19  1  0  0  0  0
 21 20  1  0  0  0  0
 22 28  1  0  0  0  0
 24 25  1  0  0  0  0
 24 29  1  0  0  0  0
 25 27  2  0  0  0  0
 26 22  1  0  0  0  0
 27 30  1  0  0  0  0
 27 21  1  0  0  0  0
 28 23  2  0  0  0  0
 29 30  2  0  0  0  0
 30 23  1  0  0  0  0
 31 29  1  0  0  0  0
 31 22  2  0  0  0  0
M  END
>  <MODEL>
3

>  <REMARK>
 VINA RESULT:      -7.7      3.328      4.808
  Name = 
  9 active torsions:
  status: ('A' for Active; 'I' for Inactive)
    1  A    between atoms: C_2  and  N_12
    2  A    between atoms: C_2  and  C_13
    3  A    between atoms: C_4  and  N_12
    4  A    between atoms: C_9  and  N_23
    5  A    between atoms: N_12  and  C_25
    6  A    between atoms: C_15  and  C_20
    7  A    between atoms: C_15  and  N_23
    8  A    between atoms: C_20  and  C_27
    9  A    between atoms: C_25  and  C_27
                            x       y       z     vdW  Elec       q    Type
                         _______ _______ _______ _____ _____    ______ ____

>  <TORSDO>
F 9

$$$$
=
 OpenBabel11052413103D

 31 34  0  0  1  0  0  0  0  0999 V2000
  189.2640  177.3950  143.5060 N   0  0  0  0  0  0  0  0  0  0  0  0
  188.5130  177.0140  144.7090 C   0  0  2  0  0  3  0  0  0  0  0  0
  187.3620  177.9910  145.0140 C   0  0  1  0  0  3  0  0  0  0  0  0
  184.8410  178.2080  144.5490 C   0  0  0  0  0  2  0  0  0  0  0  0
  186.2110  177.7610  144.0250 C   0  0  0  0  0  2  0  0  0  0  0  0
  189.4130  177.8550  146.9280 C   0  0  0  0  0  2  0  0  0  0  0  0
  184.9780  179.3390  145.5600 C   0  0  0  0  0  2  0  0  0  0  0  0
  189.4530  176.7360  145.8930 C   0  0  0  0  0  2  0  0  0  0  0  0
  185.7570  178.8720  146.7940 C   0  0  0  0  0  2  0  0  0  0  0  0
  187.8090  177.1210  148.5480 O   0  0  0  0  0  1  0  0  0  0  0  0
  186.8810  177.8750  146.4730 C   0  0  2  0  0  3  0  0  0  0  0  0
  188.0060  178.0280  147.5070 C   0  0  2  0  0  3  0  0  0  0  0  0
  190.5940  177.9660  143.5390 C   0  0  0  0  0  0  0  0  0  0  0  0
  190.8060  179.2070  143.9670 C   0  0  0  0  0  2  0  0  0  0  0  0
  191.7810  177.1700  143.0940 C   0  0  0  0  0  2  0  0  0  0  0  0
  191.7520  175.7810  143.7060 C   0  0  0  0  0  1  0  0  0  0  0  0
  188.6370  177.1020  142.2190 C   0  0  0  0  0  2  0  0  0  0  0  0
  188.6750  178.3170  141.3060 C   0  0  0  0  0  2  0  0  0  0  0  0
  188.3400  177.9110  139.8860 C   0  0  0  0  0  2  0  0  0  0  0  0
  189.5860  177.9680  139.0240 C   0  0  0  0  0  2  0  0  0  0  0  0
  190.0180  176.6190  138.6890 N   0  0  0  0  0  2  0  0  0  0  0  0
  193.4130  173.3410  136.4510 C   0  0  0  0  0  0  0  0  0  0  0  0
  191.2040  174.2350  137.0180 C   0  0  0  0  0  3  0  0  0  0  0  0
  193.5920  176.3100  138.5700 O   0  0  0  0  0  0  0  0  0  0  0  0
  192.5070  176.9440  138.9880 C   0  0  0  0  0  3  0  0  0  0  0  0
  194.1660  172.4110  135.8170 F   0  0  0  0  0  0  0  0  0  0  0  0
  191.3920  176.2810  138.4800 C   0  0  0  0  0  0  0  0  0  0  0  0
  192.0040  173.2800  136.3640 C   0  0  0  0  0  3  0  0  0  0  0  0
  193.2220  175.2900  137.8310 C   0  0  0  0  0  0  0  0  0  0  0  0
  191.8600  175.2270  137.7420 C   0  0  0  0  0  0  0  0  0  0  0  0
  194.0400  174.3590  137.1950 C   0  0  0  0  0  3  0  0  0  0  0  0
  1 13  1  0  0  0  0
  2  1  1  6  0  0  0
  2  3  1  0  0  0  0
  2  8  1  0  0  0  0
  3  5  1  6  0  0  0
  3 11  1  0  0  0  0
  4  7  1  0  0  0  0
  5  4  1  0  0  0  0
  6 12  1  0  0  0  0
  7  9  1  0  0  0  0
  8  6  1  0  0  0  0
 11  9  1  1  0  0  0
 11 12  1  0  0  0  0
 12 10  1  1  0  0  0
 13 14  2  0  0  0  0
 15 13  1  0  0  0  0
 15 16  1  0  0  0  0
 17  1  1  0  0  0  0
 18 17  1  0  0  0  0
 19 18  1  0  0  0  0
 20 19  1  0  0  0  0
 21 20  1  0  0  0  0
 22 31  1  0  0  0  0
 23 30  2  0  0  0  0
 24 25  1  0  0  0  0
 26 22  1  0  0  0  0
 27 21  1  0  0  0  0
 27 25  2  0  0  0  0
 28 22  2  0  0  0  0
 28 23  1  0  0  0  0
 29 24  1  0  0  0  0
 30 29  1  0  0  0  0
 30 27  1  0  0  0  0
 31 29  2  0  0  0  0
M  END
>  <MODEL>
4

>  <REMARK>
 VINA RESULT:      -7.6      4.136      5.822
  Name = 
  9 active torsions:
  status: ('A' for Active; 'I' for Inactive)
    1  A    between atoms: C_2  and  N_12
    2  A    between atoms: C_2  and  C_13
    3  A    between atoms: C_4  and  N_12
    4  A    between atoms: C_9  and  N_23
    5  A    between atoms: N_12  and  C_25
    6  A    between atoms: C_15  and  C_20
    7  A    between atoms: C_15  and  N_23
    8  A    between atoms: C_20  and  C_27
    9  A    between atoms: C_25  and  C_27
                            x       y       z     vdW  Elec       q    Type
                         _______ _______ _______ _____ _____    ______ ____

>  <TORSDO>
F 9

$$$$
=
 OpenBabel11052413103D

 31 34  0  0  1  0  0  0  0  0999 V2000
  189.1840  177.3610  143.5940 N   0  0  0  0  0  0  0  0  0  0  0  0
  188.6200  176.9840  144.8960 C   0  0  2  0  0  3  0  0  0  0  0  0
  187.5520  177.9810  145.3810 C   0  0  1  0  0  3  0  0  0  0  0  0
  184.9940  178.2570  145.3120 C   0  0  0  0  0  2  0  0  0  0  0  0
  186.2570  177.7860  144.5800 C   0  0  0  0  0  2  0  0  0  0  0  0
  189.8690  177.7820  146.9550 C   0  0  0  0  0  2  0  0  0  0  0  0
  185.3110  179.3730  146.2990 C   0  0  0  0  0  2  0  0  0  0  0  0
  189.7230  176.6740  145.9180 C   0  0  0  0  0  2  0  0  0  0  0  0
  186.2600  178.8770  147.3940 C   0  0  0  0  0  2  0  0  0  0  0  0
  188.5170  177.0650  148.7980 O   0  0  0  0  0  1  0  0  0  0  0  0
  187.2980  177.8600  146.8960 C   0  0  2  0  0  3  0  0  0  0  0  0
  188.5720  177.9780  147.7450 C   0  0  2  0  0  3  0  0  0  0  0  0
  190.4710  178.0080  143.4360 C   0  0  0  0  0  0  0  0  0  0  0  0
  190.6480  179.2860  143.7530 C   0  0  0  0  0  2  0  0  0  0  0  0
  191.6490  177.2490  142.9110 C   0  0  0  0  0  2  0  0  0  0  0  0
  191.8280  177.5000  141.4250 C   0  0  0  0  0  1  0  0  0  0  0  0
  188.4150  176.9860  142.4090 C   0  0  0  0  0  2  0  0  0  0  0  0
  188.2350  178.1750  141.4780 C   0  0  0  0  0  2  0  0  0  0  0  0
  186.8380  178.7410  141.6240 C   0  0  0  0  0  2  0  0  0  0  0  0
  186.0130  178.4010  140.3980 C   0  0  0  0  0  2  0  0  0  0  0  0
  184.9470  179.3790  140.2330 N   0  0  0  0  0  2  0  0  0  0  0  0
  180.7020  178.4200  143.1210 C   0  0  0  0  0  0  0  0  0  0  0  0
  183.0400  179.0220  142.7070 C   0  0  0  0  0  3  0  0  0  0  0  0
  181.5470  178.4380  139.5690 O   0  0  0  0  0  0  0  0  0  0  0  0
  182.7620  178.7370  139.1350 C   0  0  0  0  0  3  0  0  0  0  0  0
  179.6930  178.1980  143.9980 F   0  0  0  0  0  0  0  0  0  0  0  0
  183.5630  179.0180  140.2400 C   0  0  0  0  0  0  0  0  0  0  0  0
  181.9780  178.7900  143.6010 C   0  0  0  0  0  3  0  0  0  0  0  0
  181.5400  178.5140  140.8800 C   0  0  0  0  0  0  0  0  0  0  0  0
  182.7730  178.8730  141.3490 C   0  0  0  0  0  0  0  0  0  0  0  0
  180.4710  178.2770  141.7400 C   0  0  0  0  0  3  0  0  0  0  0  0
  2  1  1  6  0  0  0
  2  3  1  0  0  0  0
  2  8  1  0  0  0  0
  3  5  1  6  0  0  0
  3 11  1  0  0  0  0
  4  7  1  0  0  0  0
  5  4  1  0  0  0  0
  6 12  1  0  0  0  0
  7  9  1  0  0  0  0
  8  6  1  0  0  0  0
 11  9  1  1  0  0  0
 11 12  1  0  0  0  0
 12 10  1  1  0  0  0
 13  1  1  0  0  0  0
 13 14  2  0  0  0  0
 15 13  1  0  0  0  0
 16 15  1  0  0  0  0
 17  1  1  0  0  0  0
 18 19  1  0  0  0  0
 18 17  1  0  0  0  0
 20 19  1  0  0  0  0
 21 27  1  0  0  0  0
 21 20  1  0  0  0  0
 22 28  1  0  0  0  0
 22 26  1  0  0  0  0
 23 28  2  0  0  0  0
 24 29  1  0  0  0  0
 25 24  1  0  0  0  0
 25 27  2  0  0  0  0
 27 30  1  0  0  0  0
 29 30  2  0  0  0  0
 29 31  1  0  0  0  0
 30 23  1  0  0  0  0
 31 22  2  0  0  0  0
M  END
>  <MODEL>
5

>  <REMARK>
 VINA RESULT:      -7.5      1.651      2.282
  Name = 
  9 active torsions:
  status: ('A' for Active; 'I' for Inactive)
    1  A    between atoms: C_2  and  N_12
    2  A    between atoms: C_2  and  C_13
    3  A    between atoms: C_4  and  N_12
    4  A    between atoms: C_9  and  N_23
    5  A    between atoms: N_12  and  C_25
    6  A    between atoms: C_15  and  C_20
    7  A    between atoms: C_15  and  N_23
    8  A    between atoms: C_20  and  C_27
    9  A    between atoms: C_25  and  C_27
                            x       y       z     vdW  Elec       q    Type
                         _______ _______ _______ _____ _____    ______ ____

>  <TORSDO>
F 9

$$$$
=
 OpenBabel11052413103D

 31 34  0  0  1  0  0  0  0  0999 V2000
  189.3120  177.2880  143.2270 N   0  0  0  0  0  0  0  0  0  0  0  0
  188.5920  176.9110  144.4510 C   0  0  2  0  0  3  0  0  0  0  0  0
  187.4790  177.9140  144.8070 C   0  0  1  0  0  3  0  0  0  0  0  0
  184.9500  178.2050  144.4310 C   0  0  0  0  0  2  0  0  0  0  0  0
  186.2890  177.7280  143.8540 C   0  0  0  0  0  2  0  0  0  0  0  0
  189.5880  177.6980  146.6480 C   0  0  0  0  0  2  0  0  0  0  0  0
  185.1510  179.3170  145.4510 C   0  0  0  0  0  2  0  0  0  0  0  0
  189.5630  176.5920  145.5980 C   0  0  0  0  0  2  0  0  0  0  0  0
  185.9590  178.8130  146.6510 C   0  0  0  0  0  2  0  0  0  0  0  0
  188.0200  176.9850  148.3120 O   0  0  0  0  0  1  0  0  0  0  0  0
  187.0440  177.7910  146.2800 C   0  0  2  0  0  3  0  0  0  0  0  0
  188.2070  177.9000  147.2760 C   0  0  2  0  0  3  0  0  0  0  0  0
  190.6020  177.9460  143.2280 C   0  0  0  0  0  0  0  0  0  0  0  0
  191.7050  177.3110  142.8430 C   0  0  0  0  0  2  0  0  0  0  0  0
  190.7340  179.3730  143.6600 C   0  0  0  0  0  2  0  0  0  0  0  0
  191.9970  179.5680  144.4790 C   0  0  0  0  0  1  0  0  0  0  0  0
  188.7010  176.9010  141.9580 C   0  0  0  0  0  2  0  0  0  0  0  0
  188.7010  178.0620  140.9770 C   0  0  0  0  0  2  0  0  0  0  0  0
  189.4390  177.6730  139.7120 C   0  0  0  0  0  2  0  0  0  0  0  0
  189.1220  178.6590  138.6050 C   0  0  0  0  0  2  0  0  0  0  0  0
  188.8640  177.9430  137.3650 N   0  0  0  0  0  2  0  0  0  0  0  0
  188.0290  172.8130  136.8450 C   0  0  0  0  0  0  0  0  0  0  0  0
  189.3660  174.8550  137.0520 C   0  0  0  0  0  3  0  0  0  0  0  0
  185.9780  175.8180  137.1630 O   0  0  0  0  0  0  0  0  0  0  0  0
  186.5100  177.0250  137.2860 C   0  0  0  0  0  3  0  0  0  0  0  0
  187.9710  171.4670  136.7020 F   0  0  0  0  0  0  0  0  0  0  0  0
  187.8970  176.8930  137.2680 C   0  0  0  0  0  0  0  0  0  0  0  0
  189.2850  173.4580  136.9070 C   0  0  0  0  0  3  0  0  0  0  0  0
  186.9500  174.9390  137.0700 C   0  0  0  0  0  0  0  0  0  0  0  0
  188.1670  175.5580  137.1310 C   0  0  0  0  0  0  0  0  0  0  0  0
  186.8380  173.5590  136.9270 C   0  0  0  0  0  3  0  0  0  0  0  0
  1 13  1  0  0  0  0
  2  1  1  6  0  0  0
  2  3  1  0  0  0  0
  2  8  1  0  0  0  0
  3  5  1  6  0  0  0
  3 11  1  0  0  0  0
  4  7  1  0  0  0  0
  5  4  1  0  0  0  0
  6 12  1  0  0  0  0
  7  9  1  0  0  0  0
  8  6  1  0  0  0  0
 11  9  1  1  0  0  0
 11 12  1  0  0  0  0
 12 10  1  1  0  0  0
 13 15  1  0  0  0  0
 14 13  2  0  0  0  0
 15 16  1  0  0  0  0
 17  1  1  0  0  0  0
 18 17  1  0  0  0  0
 19 18  1  0  0  0  0
 20 19  1  0  0  0  0
 21 20  1  0  0  0  0
 22 28  2  0  0  0  0
 22 31  1  0  0  0  0
 23 30  2  0  0  0  0
 24 25  1  0  0  0  0
 26 22  1  0  0  0  0
 27 25  2  0  0  0  0
 27 21  1  0  0  0  0
 28 23  1  0  0  0  0
 29 30  1  0  0  0  0
 29 24  1  0  0  0  0
 30 27  1  0  0  0  0
 31 29  2  0  0  0  0
M  END
>  <MODEL>
6

>  <REMARK>
 VINA RESULT:      -7.5      2.662      3.750
  Name = 
  9 active torsions:
  status: ('A' for Active; 'I' for Inactive)
    1  A    between atoms: C_2  and  N_12
    2  A    between atoms: C_2  and  C_13
    3  A    between atoms: C_4  and  N_12
    4  A    between atoms: C_9  and  N_23
    5  A    between atoms: N_12  and  C_25
    6  A    between atoms: C_15  and  C_20
    7  A    between atoms: C_15  and  N_23
    8  A    between atoms: C_20  and  C_27
    9  A    between atoms: C_25  and  C_27
                            x       y       z     vdW  Elec       q    Type
                         _______ _______ _______ _____ _____    ______ ____

>  <TORSDO>
F 9

$$$$
=
 OpenBabel11052413103D

 31 34  0  0  1  0  0  0  0  0999 V2000
  189.2320  177.3650  143.6630 N   0  0  0  0  0  0  0  0  0  0  0  0
  188.4930  177.0160  144.8830 C   0  0  2  0  0  3  0  0  0  0  0  0
  187.3570  178.0100  145.1840 C   0  0  1  0  0  3  0  0  0  0  0  0
  184.8320  178.2470  144.7490 C   0  0  0  0  0  2  0  0  0  0  0  0
  186.1900  177.7750  144.2150 C   0  0  0  0  0  2  0  0  0  0  0  0
  189.4310  177.8880  147.0730 C   0  0  0  0  0  2  0  0  0  0  0  0
  184.9950  179.3950  145.7360 C   0  0  0  0  0  2  0  0  0  0  0  0
  189.4450  176.7500  146.0590 C   0  0  0  0  0  2  0  0  0  0  0  0
  185.7850  178.9430  146.9680 C   0  0  0  0  0  2  0  0  0  0  0  0
  187.8410  177.2030  148.7280 O   0  0  0  0  0  1  0  0  0  0  0  0
  186.8940  177.9270  146.6510 C   0  0  2  0  0  3  0  0  0  0  0  0
  188.0340  178.0880  147.6670 C   0  0  2  0  0  3  0  0  0  0  0  0
  190.5220  178.0220  143.6680 C   0  0  0  0  0  0  0  0  0  0  0  0
  190.6450  179.3080  143.9830 C   0  0  0  0  0  2  0  0  0  0  0  0
  191.7670  177.2670  143.3220 C   0  0  0  0  0  2  0  0  0  0  0  0
  191.6020  175.7920  143.6370 C   0  0  0  0  0  1  0  0  0  0  0  0
  188.6390  176.9500  142.3930 C   0  0  0  0  0  2  0  0  0  0  0  0
  188.9450  177.9560  141.2950 C   0  0  0  0  0  2  0  0  0  0  0  0
  189.3950  177.2350  140.0410 C   0  0  0  0  0  2  0  0  0  0  0  0
  189.4750  178.2120  138.8840 C   0  0  0  0  0  2  0  0  0  0  0  0
  188.1360  178.6310  138.4970 N   0  0  0  0  0  2  0  0  0  0  0  0
  183.7120  177.0830  136.1920 C   0  0  0  0  0  0  0  0  0  0  0  0
  185.1200  177.8720  138.0340 C   0  0  0  0  0  3  0  0  0  0  0  0
  187.1930  177.5650  135.2020 O   0  0  0  0  0  0  0  0  0  0  0  0
  188.1160  177.9870  136.0530 C   0  0  0  0  0  3  0  0  0  0  0  0
  182.4950  176.6980  135.7370 F   0  0  0  0  0  0  0  0  0  0  0  0
  187.5090  178.1870  137.2900 C   0  0  0  0  0  0  0  0  0  0  0  0
  183.8640  177.4730  137.5420 C   0  0  0  0  0  3  0  0  0  0  0  0
  186.0450  177.4880  135.8330 C   0  0  0  0  0  0  0  0  0  0  0  0
  186.1870  177.8650  137.1400 C   0  0  0  0  0  0  0  0  0  0  0  0
  184.8150  177.0870  135.3170 C   0  0  0  0  0  3  0  0  0  0  0  0
  1 13  1  0  0  0  0
  2  1  1  6  0  0  0
  2  3  1  0  0  0  0
  2  8  1  0  0  0  0
  3  5  1  6  0  0  0
  3 11  1  0  0  0  0
  4  7  1  0  0  0  0
  5  4  1  0  0  0  0
  6 12  1  0  0  0  0
  7  9  1  0  0  0  0
  8  6  1  0  0  0  0
 11  9  1  1  0  0  0
 11 12  1  0  0  0  0
 12 10  1  1  0  0  0
 13 14  2  0  0  0  0
 15 16  1  0  0  0  0
 15 13  1  0  0  0  0
 17  1  1  0  0  0  0
 18 17  1  0  0  0  0
 19 18  1  0  0  0  0
 20 19  1  0  0  0  0
 21 20  1  0  0  0  0
 22 28  1  0  0  0  0
 24 29  1  0  0  0  0
 24 25  1  0  0  0  0
 25 27  2  0  0  0  0
 26 22  1  0  0  0  0
 27 21  1  0  0  0  0
 28 23  2  0  0  0  0
 29 30  2  0  0  0  0
 30 27  1  0  0  0  0
 30 23  1  0  0  0  0
 31 29  1  0  0  0  0
 31 22  2  0  0  0  0
M  END
>  <MODEL>
7

>  <REMARK>
 VINA RESULT:      -7.4      1.645      2.076
  Name = 
  9 active torsions:
  status: ('A' for Active; 'I' for Inactive)
    1  A    between atoms: C_2  and  N_12
    2  A    between atoms: C_2  and  C_13
    3  A    between atoms: C_4  and  N_12
    4  A    between atoms: C_9  and  N_23
    5  A    between atoms: N_12  and  C_25
    6  A    between atoms: C_15  and  C_20
    7  A    between atoms: C_15  and  N_23
    8  A    between atoms: C_20  and  C_27
    9  A    between atoms: C_25  and  C_27
                            x       y       z     vdW  Elec       q    Type
                         _______ _______ _______ _____ _____    ______ ____

>  <TORSDO>
F 9

$$$$
=
 OpenBabel11052413103D

 31 34  0  0  1  0  0  0  0  0999 V2000
  189.2900  177.2940  145.4190 N   0  0  0  0  0  0  0  0  0  0  0  0
  187.8440  177.1780  145.6510 C   0  0  2  0  0  3  0  0  0  0  0  0
  187.0260  178.0690  144.6990 C   0  0  1  0  0  3  0  0  0  0  0  0
  185.8140  177.8770  142.4370 C   0  0  0  0  0  2  0  0  0  0  0  0
  187.0150  177.4550  143.2920 C   0  0  0  0  0  2  0  0  0  0  0  0
  186.8490  178.6840  147.4330 C   0  0  0  0  0  2  0  0  0  0  0  0
  185.2960  179.2490  142.8500 C   0  0  0  0  0  2  0  0  0  0  0  0
  187.4990  177.3370  147.1390 C   0  0  0  0  0  2  0  0  0  0  0  0
  184.7840  179.2240  144.2940 C   0  0  0  0  0  2  0  0  0  0  0  0
  184.4960  178.2510  147.3470 O   0  0  0  0  0  1  0  0  0  0  0  0
  185.5950  178.3040  145.2200 C   0  0  2  0  0  3  0  0  0  0  0  0
  185.5440  178.8550  146.6530 C   0  0  2  0  0  3  0  0  0  0  0  0
  190.2870  177.0410  146.4380 C   0  0  0  0  0  0  0  0  0  0  0  0
  190.1560  177.5180  147.6720 C   0  0  0  0  0  2  0  0  0  0  0  0
  191.5030  176.2230  146.1330 C   0  0  0  0  0  2  0  0  0  0  0  0
  192.1180  175.6830  147.4110 C   0  0  0  0  0  1  0  0  0  0  0  0
  189.7150  177.6160  144.0590 C   0  0  0  0  0  2  0  0  0  0  0  0
  190.6350  178.8260  144.0470 C   0  0  0  0  0  2  0  0  0  0  0  0
  191.7300  178.6370  143.0180 C   0  0  0  0  0  2  0  0  0  0  0  0
  191.5260  177.3270  142.2820 C   0  0  0  0  0  2  0  0  0  0  0  0
  192.2000  177.3730  140.9930 N   0  0  0  0  0  2  0  0  0  0  0  0
  187.7150  177.8660  138.3610 C   0  0  0  0  0  0  0  0  0  0  0  0
  189.2160  178.0680  140.2870 C   0  0  0  0  0  3  0  0  0  0  0  0
  191.0660  176.5840  137.6800 O   0  0  0  0  0  0  0  0  0  0  0  0
  192.0260  176.6010  138.5930 C   0  0  0  0  0  3  0  0  0  0  0  0
  186.4910  178.0540  137.8130 F   0  0  0  0  0  0  0  0  0  0  0  0
  191.5110  177.1680  139.7560 C   0  0  0  0  0  0  0  0  0  0  0  0
  187.9520  178.2570  139.6980 C   0  0  0  0  0  3  0  0  0  0  0  0
  189.9810  177.1060  138.2040 C   0  0  0  0  0  0  0  0  0  0  0  0
  190.2050  177.4870  139.4980 C   0  0  0  0  0  0  0  0  0  0  0  0
  188.7410  177.2800  137.5950 C   0  0  0  0  0  3  0  0  0  0  0  0
  1 13  1  0  0  0  0
  2  1  1  1  0  0  0
  2  8  1  0  0  0  0
  3  5  1  6  0  0  0
  3 11  1  0  0  0  0
  3  2  1  0  0  0  0
  4  7  1  0  0  0  0
  4  5  1  0  0  0  0
  7  9  1  0  0  0  0
  8  6  1  0  0  0  0
 11  9  1  6  0  0  0
 11 12  1  0  0  0  0
 12 10  1  1  0  0  0
 12  6  1  0  0  0  0
 13 14  2  0  0  0  0
 15 13  1  0  0  0  0
 15 16  1  0  0  0  0
 17  1  1  0  0  0  0
 18 17  1  0  0  0  0
 19 18  1  0  0  0  0
 20 19  1  0  0  0  0
 21 20  1  0  0  0  0
 22 28  1  0  0  0  0
 24 29  1  0  0  0  0
 24 25  1  0  0  0  0
 25 27  2  0  0  0  0
 26 22  1  0  0  0  0
 27 21  1  0  0  0  0
 28 23  2  0  0  0  0
 29 30  2  0  0  0  0
 30 27  1  0  0  0  0
 30 23  1  0  0  0  0
 31 29  1  0  0  0  0
 31 22  2  0  0  0  0
M  END
>  <MODEL>
8

>  <REMARK>
 VINA RESULT:      -7.4      2.695      4.091
  Name = 
  9 active torsions:
  status: ('A' for Active; 'I' for Inactive)
    1  A    between atoms: C_2  and  N_12
    2  A    between atoms: C_2  and  C_13
    3  A    between atoms: C_4  and  N_12
    4  A    between atoms: C_9  and  N_23
    5  A    between atoms: N_12  and  C_25
    6  A    between atoms: C_15  and  C_20
    7  A    between atoms: C_15  and  N_23
    8  A    between atoms: C_20  and  C_27
    9  A    between atoms: C_25  and  C_27
                            x       y       z     vdW  Elec       q    Type
                         _______ _______ _______ _____ _____    ______ ____

>  <TORSDO>
F 9

$$$$
=
 OpenBabel11052413103D

 31 34  0  0  1  0  0  0  0  0999 V2000
  189.2440  177.2370  143.7350 N   0  0  0  0  0  0  0  0  0  0  0  0
  188.5230  176.9550  144.9840 C   0  0  2  0  0  3  0  0  0  0  0  0
  187.3900  177.9640  145.2460 C   0  0  1  0  0  3  0  0  0  0  0  0
  184.8590  178.1750  144.8350 C   0  0  0  0  0  2  0  0  0  0  0  0
  186.2100  177.6750  144.3080 C   0  0  0  0  0  2  0  0  0  0  0  0
  189.4920  177.9480  147.1080 C   0  0  0  0  0  2  0  0  0  0  0  0
  185.0350  179.3760  145.7550 C   0  0  0  0  0  2  0  0  0  0  0  0
  189.4930  176.7550  146.1580 C   0  0  0  0  0  2  0  0  0  0  0  0
  185.8440  178.9940  146.9990 C   0  0  0  0  0  2  0  0  0  0  0  0
  187.9270  177.3550  148.8220 O   0  0  0  0  0  1  0  0  0  0  0  0
  186.9490  177.9620  146.7220 C   0  0  2  0  0  3  0  0  0  0  0  0
  188.1040  178.1790  147.7100 C   0  0  2  0  0  3  0  0  0  0  0  0
  190.5650  177.8270  143.6890 C   0  0  0  0  0  0  0  0  0  0  0  0
  190.7640  179.1080  143.9830 C   0  0  0  0  0  2  0  0  0  0  0  0
  191.7580  177.0050  143.3120 C   0  0  0  0  0  2  0  0  0  0  0  0
  191.6900  175.6350  143.9630 C   0  0  0  0  0  1  0  0  0  0  0  0
  188.5950  176.8220  142.4930 C   0  0  0  0  0  2  0  0  0  0  0  0
  188.8420  177.8340  141.3860 C   0  0  0  0  0  2  0  0  0  0  0  0
  187.7560  178.8900  141.3950 C   0  0  0  0  0  2  0  0  0  0  0  0
  186.6580  178.5100  140.4220 C   0  0  0  0  0  2  0  0  0  0  0  0
  185.5010  179.3710  140.6210 N   0  0  0  0  0  2  0  0  0  0  0  0
  181.5230  177.3570  137.9010 C   0  0  0  0  0  0  0  0  0  0  0  0
  183.7730  178.2640  138.2390 C   0  0  0  0  0  3  0  0  0  0  0  0
  182.1740  178.2580  141.3790 O   0  0  0  0  0  0  0  0  0  0  0  0
  183.3330  178.7670  141.7700 C   0  0  0  0  0  3  0  0  0  0  0  0
  180.5830  176.8510  137.0660 F   0  0  0  0  0  0  0  0  0  0  0  0
  184.1630  178.8660  140.6560 C   0  0  0  0  0  0  0  0  0  0  0  0
  182.7850  177.7330  137.3890 C   0  0  0  0  0  3  0  0  0  0  0  0
  182.2300  178.0340  140.0860 C   0  0  0  0  0  0  0  0  0  0  0  0
  183.4500  178.3950  139.5860 C   0  0  0  0  0  0  0  0  0  0  0  0
  181.2320  177.5070  139.2700 C   0  0  0  0  0  3  0  0  0  0  0  0
  2  1  1  6  0  0  0
  2  3  1  0  0  0  0
  2  8  1  0  0  0  0
  3  5  1  6  0  0  0
  3 11  1  0  0  0  0
  4  7  1  0  0  0  0
  5  4  1  0  0  0  0
  6 12  1  0  0  0  0
  7  9  1  0  0  0  0
  8  6  1  0  0  0  0
 11  9  1  6  0  0  0
 11 12  1  0  0  0  0
 12 10  1  1  0  0  0
 13  1  1  0  0  0  0
 13 14  2  0  0  0  0
 15 13  1  0  0  0  0
 15 16  1  0  0  0  0
 17  1  1  0  0  0  0
 18 19  1  0  0  0  0
 18 17  1  0  0  0  0
 20 21  1  0  0  0  0
 20 19  1  0  0  0  0
 21 27  1  0  0  0  0
 22 31  1  0  0  0  0
 23 30  2  0  0  0  0
 24 25  1  0  0  0  0
 26 22  1  0  0  0  0
 27 25  2  0  0  0  0
 28 22  2  0  0  0  0
 28 23  1  0  0  0  0
 29 24  1  0  0  0  0
 30 29  1  0  0  0  0
 30 27  1  0  0  0  0
 31 29  2  0  0  0  0
M  END
>  <MODEL>
9

>  <REMARK>
 VINA RESULT:      -7.3      1.561      2.167
  Name = 
  9 active torsions:
  status: ('A' for Active; 'I' for Inactive)
    1  A    between atoms: C_2  and  N_12
    2  A    between atoms: C_2  and  C_13
    3  A    between atoms: C_4  and  N_12
    4  A    between atoms: C_9  and  N_23
    5  A    between atoms: N_12  and  C_25
    6  A    between atoms: C_15  and  C_20
    7  A    between atoms: C_15  and  N_23
    8  A    between atoms: C_20  and  C_27
    9  A    between atoms: C_25  and  C_27
                            x       y       z     vdW  Elec       q    Type
                         _______ _______ _______ _____ _____    ______ ____

>  <TORSDO>
F 9

$$$$
