=
 OpenBabel11052412273D

 30 31  0  0  1  0  0  0  0  0999 V2000
  188.8090  177.6580  142.1940 C   0  0  1  0  0  0  0  0  0  0  0  0
  187.3220  176.2950  143.9090 C   0  0  0  0  0  3  0  0  0  0  0  0
  188.1010  176.4480  142.8240 C   0  0  0  0  0  3  0  0  0  0  0  0
  187.3700  177.3870  146.0760 C   0  0  0  0  0  0  0  0  0  0  0  0
  186.7980  178.2800  147.1040 C   0  0  0  0  0  3  0  0  0  0  0  0
  188.4610  176.6460  146.3930 F   0  0  0  0  0  0  0  0  0  0  0  0
  185.8430  179.1570  146.7900 C   0  0  0  0  0  3  0  0  0  0  0  0
  186.8100  177.3000  144.8580 C   0  0  0  0  0  0  0  0  0  0  0  0
  185.3910  179.3150  145.3670 C   0  0  0  0  0  2  0  0  0  0  0  0
  185.4930  177.9880  144.6090 C   0  0  0  0  0  2  0  0  0  0  0  0
  190.0490  179.3870  143.4290 O   0  0  0  0  0  1  0  0  0  0  0  0
  190.0730  178.0450  143.0420 C   0  0  1  0  0  3  0  0  0  0  0  0
  191.0750  177.9370  145.4270 C   0  0  0  0  0  2  0  0  0  0  0  0
  191.4630  176.0810  143.9780 C   0  0  0  0  0  2  0  0  0  0  0  0
  190.5000  177.1960  144.2510 C   0  0  2  0  0  3  0  0  0  0  0  0
  191.8580  176.9740  146.1940 N   0  0  0  0  0  2  0  0  0  0  0  0
  192.0530  175.7970  145.3440 C   0  0  0  0  0  2  0  0  0  0  0  0
  189.1960  177.3930  140.7110 C   0  0  2  0  0  3  0  0  0  0  0  0
  190.5660  175.8540  139.4340 O   0  0  0  0  0  1  0  0  0  0  0  0
  190.5540  176.6920  140.5520 C   0  0  0  0  0  2  0  0  0  0  0  0
  189.1600  178.6880  139.8810 C   0  0  0  0  0  2  0  0  0  0  0  0
  189.1730  178.4150  138.3840 C   0  0  0  0  0  2  0  0  0  0  0  0
  187.8560  177.8090  137.9410 C   0  0  0  0  0  1  0  0  0  0  0  0
  187.9340  178.7900  142.1460 O   0  0  0  0  0  0  0  0  0  0  0  0
  186.8570  178.6190  141.2520 C   0  0  0  0  0  2  0  0  0  0  0  0
  185.6540  179.4060  141.7380 C   0  0  0  0  0  2  0  0  0  0  0  0
  184.3830  178.8490  141.1230 C   0  0  0  0  0  2  0  0  0  0  0  0
  184.3290  177.9730  138.7910 O   0  0  0  0  0  0  0  0  0  0  0  0
  184.3990  179.0610  139.6510 C   0  0  0  0  0  0  0  0  0  0  0  0
  184.4470  180.2280  139.1840 O   0  0  0  0  0  1  0  0  0  0  0  0
  1  3  1  1  0  0  0
  1 12  1  0  0  0  0
  2  8  1  0  0  0  0
  3  2  2  0  0  0  0
  4  6  1  0  0  0  0
  4  5  1  0  0  0  0
  7  5  2  0  0  0  0
  8  4  2  0  0  0  0
  9  7  1  0  0  0  0
 10  8  1  0  0  0  0
 10  9  1  0  0  0  0
 12 11  1  1  0  0  0
 13 16  1  0  0  0  0
 14 15  1  0  0  0  0
 14 17  1  0  0  0  0
 15 12  1  6  0  0  0
 15 13  1  0  0  0  0
 17 16  1  0  0  0  0
 18 21  1  6  0  0  0
 18  1  1  0  0  0  0
 19 20  1  0  0  0  0
 20 18  1  0  0  0  0
 22 21  1  0  0  0  0
 23 22  1  0  0  0  0
 24  1  1  0  0  0  0
 25 26  1  0  0  0  0
 25 24  1  0  0  0  0
 27 26  1  0  0  0  0
 28 29  2  0  0  0  0
 29 27  1  0  0  0  0
 30 29  1  0  0  0  0
M  END
>  <MODEL>
1

>  <REMARK>
 VINA RESULT:      -6.8      0.000      0.000
  Name = 
  13 active torsions:
  status: ('A' for Active; 'I' for Inactive)
    1  A    between atoms: C_1  and  C_22
    2  A    between atoms: C_3  and  C_19
    3  A    between atoms: C_4  and  C_13
    4  A    between atoms: C_7  and  C_15
    5  A    between atoms: C_7  and  C_16
    6  A    between atoms: C_8  and  C_12
    7  A    between atoms: C_8  and  C_13
    8  A    between atoms: C_13  and  C_23
    9  A    between atoms: C_13  and  O_27
   10  A    between atoms: C_16  and  C_30
   11  A    between atoms: C_19  and  C_23
   12  A    between atoms: C_23  and  C_25
   13  A    between atoms: O_27  and  C_30
                            x       y       z     vdW  Elec       q    Type
                         _______ _______ _______ _____ _____    ______ ____

>  <TORSDO>
F 13

$$$$
=
 OpenBabel11052412273D

 30 31  0  0  1  0  0  0  0  0999 V2000
  190.3290  177.1860  143.2390 C   0  0  1  0  0  0  0  0  0  0  0  0
  187.9010  176.1310  143.3010 C   0  0  0  0  0  3  0  0  0  0  0  0
  189.2430  176.0980  143.2380 C   0  0  0  0  0  3  0  0  0  0  0  0
  186.2610  177.5180  144.4330 C   0  0  0  0  0  0  0  0  0  0  0  0
  185.2290  178.5740  144.4500 C   0  0  0  0  0  3  0  0  0  0  0  0
  186.4570  176.7810  145.5560 F   0  0  0  0  0  0  0  0  0  0  0  0
  185.1210  179.4390  143.4400 C   0  0  0  0  0  3  0  0  0  0  0  0
  186.9810  177.2830  143.3230 C   0  0  0  0  0  0  0  0  0  0  0  0
  186.1050  179.4120  142.3060 C   0  0  0  0  0  2  0  0  0  0  0  0
  186.6040  177.9870  142.0460 C   0  0  0  0  0  2  0  0  0  0  0  0
  191.9630  177.6250  141.4530 O   0  0  0  0  0  1  0  0  0  0  0  0
  190.6040  177.6740  141.7720 C   0  0  1  0  0  3  0  0  0  0  0  0
  190.5860  176.3570  139.5430 C   0  0  0  0  0  2  0  0  0  0  0  0
  188.9520  178.0730  139.8270 C   0  0  0  0  0  2  0  0  0  0  0  0
  189.8040  177.1030  140.5880 C   0  0  2  0  0  3  0  0  0  0  0  0
  189.7820  176.3630  138.3260 N   0  0  0  0  0  2  0  0  0  0  0  0
  188.7310  177.3670  138.5050 C   0  0  0  0  0  2  0  0  0  0  0  0
  189.9490  178.3810  144.1600 C   0  0  2  0  0  3  0  0  0  0  0  0
  192.0540  179.5580  144.4080 O   0  0  0  0  0  1  0  0  0  0  0  0
  190.7660  179.6510  143.8760 C   0  0  0  0  0  2  0  0  0  0  0  0
  190.0510  177.9990  145.6460 C   0  0  0  0  0  2  0  0  0  0  0  0
  188.8110  178.4000  146.4310 C   0  0  0  0  0  2  0  0  0  0  0  0
  188.7330  177.6330  147.7360 C   0  0  0  0  0  1  0  0  0  0  0  0
  191.5520  176.6810  143.7830 O   0  0  0  0  0  0  0  0  0  0  0  0
  191.5060  175.2990  144.0590 C   0  0  0  0  0  2  0  0  0  0  0  0
  192.3290  174.9920  145.2960 C   0  0  0  0  0  2  0  0  0  0  0  0
  191.5240  175.2930  146.5470 C   0  0  0  0  0  2  0  0  0  0  0  0
  192.0680  177.0990  148.1750 O   0  0  0  0  0  1  0  0  0  0  0  0
  192.4070  175.8880  147.5850 C   0  0  0  0  0  0  0  0  0  0  0  0
  193.4470  175.2820  147.9500 O   0  0  0  0  0  0  0  0  0  0  0  0
  1  3  1  1  0  0  0
  1 24  1  0  0  0  0
  1 18  1  0  0  0  0
  2  8  1  0  0  0  0
  3  2  2  0  0  0  0
  4  5  1  0  0  0  0
  4  6  1  0  0  0  0
  7  5  2  0  0  0  0
  8  4  2  0  0  0  0
  9  7  1  0  0  0  0
 10  9  1  0  0  0  0
 10  8  1  0  0  0  0
 12 11  1  6  0  0  0
 12  1  1  0  0  0  0
 13 15  1  0  0  0  0
 14 15  1  0  0  0  0
 15 12  1  1  0  0  0
 16 17  1  0  0  0  0
 16 13  1  0  0  0  0
 17 14  1  0  0  0  0
 18 20  1  1  0  0  0
 18 21  1  0  0  0  0
 20 19  1  0  0  0  0
 21 22  1  0  0  0  0
 22 23  1  0  0  0  0
 24 25  1  0  0  0  0
 25 26  1  0  0  0  0
 26 27  1  0  0  0  0
 27 29  1  0  0  0  0
 29 30  2  0  0  0  0
 29 28  1  0  0  0  0
M  END
>  <MODEL>
2

>  <REMARK>
 VINA RESULT:      -6.8      3.073      6.437
  Name = 
  13 active torsions:
  status: ('A' for Active; 'I' for Inactive)
    1  A    between atoms: C_1  and  C_22
    2  A    between atoms: C_3  and  C_19
    3  A    between atoms: C_4  and  C_13
    4  A    between atoms: C_7  and  C_15
    5  A    between atoms: C_7  and  C_16
    6  A    between atoms: C_8  and  C_12
    7  A    between atoms: C_8  and  C_13
    8  A    between atoms: C_13  and  C_23
    9  A    between atoms: C_13  and  O_27
   10  A    between atoms: C_16  and  C_30
   11  A    between atoms: C_19  and  C_23
   12  A    between atoms: C_23  and  C_25
   13  A    between atoms: O_27  and  C_30
                            x       y       z     vdW  Elec       q    Type
                         _______ _______ _______ _____ _____    ______ ____

>  <TORSDO>
F 13

$$$$
=
 OpenBabel11052412273D

 30 31  0  0  1  0  0  0  0  0999 V2000
  189.3990  177.7160  142.4170 C   0  0  1  0  0  0  0  0  0  0  0  0
  187.5810  176.3160  143.7380 C   0  0  0  0  0  3  0  0  0  0  0  0
  188.5550  176.5000  142.8320 C   0  0  0  0  0  3  0  0  0  0  0  0
  187.3550  177.4050  145.8970 C   0  0  0  0  0  0  0  0  0  0  0  0
  186.6350  178.2610  146.8610 C   0  0  0  0  0  3  0  0  0  0  0  0
  188.4540  176.7300  146.3190 F   0  0  0  0  0  0  0  0  0  0  0  0
  185.6630  179.0790  146.4540 C   0  0  0  0  0  3  0  0  0  0  0  0
  186.9200  177.2870  144.6300 C   0  0  0  0  0  0  0  0  0  0  0  0
  185.3410  179.2120  144.9930 C   0  0  0  0  0  2  0  0  0  0  0  0
  185.5950  177.8950  144.2530 C   0  0  0  0  0  2  0  0  0  0  0  0
  190.5800  179.1900  143.9940 O   0  0  0  0  0  1  0  0  0  0  0  0
  190.5880  177.9140  143.4240 C   0  0  1  0  0  3  0  0  0  0  0  0
  191.4260  177.4160  145.8220 C   0  0  0  0  0  2  0  0  0  0  0  0
  191.7350  175.7240  144.1680 C   0  0  0  0  0  2  0  0  0  0  0  0
  190.8610  176.8850  144.5340 C   0  0  2  0  0  3  0  0  0  0  0  0
  192.0700  176.2950  146.4980 N   0  0  0  0  0  2  0  0  0  0  0  0
  192.2110  175.2180  145.5150 C   0  0  0  0  0  2  0  0  0  0  0  0
  189.9220  177.5870  140.9580 C   0  0  2  0  0  3  0  0  0  0  0  0
  188.7290  176.8500  138.9810 O   0  0  0  0  0  1  0  0  0  0  0  0
  189.2890  176.4190  140.1860 C   0  0  0  0  0  2  0  0  0  0  0  0
  191.4560  177.4890  140.9180 C   0  0  0  0  0  2  0  0  0  0  0  0
  191.9680  176.9970  139.5720 C   0  0  0  0  0  2  0  0  0  0  0  0
  193.4800  177.0820  139.5120 C   0  0  0  0  0  1  0  0  0  0  0  0
  188.6050  178.9070  142.4160 O   0  0  0  0  0  0  0  0  0  0  0  0
  187.9430  179.1300  141.1910 C   0  0  0  0  0  2  0  0  0  0  0  0
  186.4450  178.9920  141.3820 C   0  0  0  0  0  2  0  0  0  0  0  0
  185.7820  178.6280  140.0670 C   0  0  0  0  0  2  0  0  0  0  0  0
  184.2200  180.2900  139.0640 O   0  0  0  0  0  0  0  0  0  0  0  0
  184.4430  179.2700  139.9810 C   0  0  0  0  0  0  0  0  0  0  0  0
  183.5050  178.8710  140.7170 O   0  0  0  0  0  1  0  0  0  0  0  0
  1  3  1  1  0  0  0
  1 12  1  0  0  0  0
  2  8  1  0  0  0  0
  3  2  2  0  0  0  0
  4  6  1  0  0  0  0
  4  5  1  0  0  0  0
  7  5  2  0  0  0  0
  8  4  2  0  0  0  0
  9  7  1  0  0  0  0
 10  8  1  0  0  0  0
 10  9  1  0  0  0  0
 12 11  1  1  0  0  0
 13 16  1  0  0  0  0
 14 15  1  0  0  0  0
 14 17  1  0  0  0  0
 15 12  1  6  0  0  0
 15 13  1  0  0  0  0
 17 16  1  0  0  0  0
 18 20  1  1  0  0  0
 18  1  1  0  0  0  0
 19 20  1  0  0  0  0
 21 18  1  0  0  0  0
 22 21  1  0  0  0  0
 23 22  1  0  0  0  0
 24  1  1  0  0  0  0
 25 26  1  0  0  0  0
 25 24  1  0  0  0  0
 27 26  1  0  0  0  0
 28 29  2  0  0  0  0
 29 27  1  0  0  0  0
 29 30  1  0  0  0  0
M  END
>  <MODEL>
3

>  <REMARK>
 VINA RESULT:      -6.8      1.140      1.652
  Name = 
  13 active torsions:
  status: ('A' for Active; 'I' for Inactive)
    1  A    between atoms: C_1  and  C_22
    2  A    between atoms: C_3  and  C_19
    3  A    between atoms: C_4  and  C_13
    4  A    between atoms: C_7  and  C_15
    5  A    between atoms: C_7  and  C_16
    6  A    between atoms: C_8  and  C_12
    7  A    between atoms: C_8  and  C_13
    8  A    between atoms: C_13  and  C_23
    9  A    between atoms: C_13  and  O_27
   10  A    between atoms: C_16  and  C_30
   11  A    between atoms: C_19  and  C_23
   12  A    between atoms: C_23  and  C_25
   13  A    between atoms: O_27  and  C_30
                            x       y       z     vdW  Elec       q    Type
                         _______ _______ _______ _____ _____    ______ ____

>  <TORSDO>
F 13

$$$$
=
 OpenBabel11052412273D

 30 31  0  0  1  0  0  0  0  0999 V2000
  189.3770  177.5860  142.9340 C   0  0  1  0  0  0  0  0  0  0  0  0
  187.4190  176.2890  144.1560 C   0  0  0  0  0  3  0  0  0  0  0  0
  188.4380  176.4230  143.2910 C   0  0  0  0  0  3  0  0  0  0  0  0
  187.2500  177.4170  146.3000 C   0  0  0  0  0  0  0  0  0  0  0  0
  186.5630  178.3020  147.2620 C   0  0  0  0  0  3  0  0  0  0  0  0
  188.3430  176.7290  146.7150 F   0  0  0  0  0  0  0  0  0  0  0  0
  185.5990  179.1310  146.8580 C   0  0  0  0  0  3  0  0  0  0  0  0
  186.7920  177.2870  145.0430 C   0  0  0  0  0  0  0  0  0  0  0  0
  185.2540  179.2460  145.4010 C   0  0  0  0  0  2  0  0  0  0  0  0
  185.4710  177.9130  144.6790 C   0  0  0  0  0  2  0  0  0  0  0  0
  189.4030  179.4500  141.3290 O   0  0  0  0  0  1  0  0  0  0  0  0
  188.5800  178.7110  142.1820 C   0  0  1  0  0  3  0  0  0  0  0  0
  187.3350  178.3730  139.9370 C   0  0  0  0  0  2  0  0  0  0  0  0
  186.0850  179.2380  141.7770 C   0  0  0  0  0  2  0  0  0  0  0  0
  187.2720  178.3880  141.4400 C   0  0  2  0  0  3  0  0  0  0  0  0
  185.9720  178.5650  139.4540 N   0  0  0  0  0  2  0  0  0  0  0  0
  185.1710  179.0350  140.5860 C   0  0  0  0  0  2  0  0  0  0  0  0
  190.0920  178.1580  144.1910 C   0  0  2  0  0  3  0  0  0  0  0  0
  192.1510  179.4370  144.1600 O   0  0  0  0  0  1  0  0  0  0  0  0
  190.7730  179.5120  143.9400 C   0  0  0  0  0  2  0  0  0  0  0  0
  191.0990  177.1500  144.7720 C   0  0  0  0  0  2  0  0  0  0  0  0
  191.0490  177.0960  146.2920 C   0  0  0  0  0  2  0  0  0  0  0  0
  191.9770  176.0190  146.8180 C   0  0  0  0  0  1  0  0  0  0  0  0
  190.4370  177.1390  142.0830 O   0  0  0  0  0  0  0  0  0  0  0  0
  189.9850  176.3630  140.9960 C   0  0  0  0  0  2  0  0  0  0  0  0
  190.7600  176.7290  139.7440 C   0  0  0  0  0  2  0  0  0  0  0  0
  189.9600  176.3580  138.5080 C   0  0  0  0  0  2  0  0  0  0  0  0
  191.2990  176.1010  136.4230 O   0  0  0  0  0  0  0  0  0  0  0  0
  190.7990  175.5410  137.5910 C   0  0  0  0  0  0  0  0  0  0  0  0
  191.0820  174.3510  137.8870 O   0  0  0  0  0  1  0  0  0  0  0  0
  1  3  1  1  0  0  0
  1 18  1  0  0  0  0
  2  8  1  0  0  0  0
  3  2  2  0  0  0  0
  4  6  1  0  0  0  0
  4  5  1  0  0  0  0
  7  5  2  0  0  0  0
  8  4  2  0  0  0  0
  9  7  1  0  0  0  0
 10  8  1  0  0  0  0
 10  9  1  0  0  0  0
 12 11  1  6  0  0  0
 12  1  1  0  0  0  0
 13 15  1  0  0  0  0
 15 14  1  0  0  0  0
 15 12  1  1  0  0  0
 16 13  1  0  0  0  0
 16 17  1  0  0  0  0
 17 14  1  0  0  0  0
 18 20  1  6  0  0  0
 18 21  1  0  0  0  0
 20 19  1  0  0  0  0
 21 22  1  0  0  0  0
 22 23  1  0  0  0  0
 24  1  1  0  0  0  0
 25 24  1  0  0  0  0
 26 25  1  0  0  0  0
 27 26  1  0  0  0  0
 28 29  2  0  0  0  0
 29 30  1  0  0  0  0
 29 27  1  0  0  0  0
M  END
>  <MODEL>
4

>  <REMARK>
 VINA RESULT:      -6.6      2.491      5.320
  Name = 
  13 active torsions:
  status: ('A' for Active; 'I' for Inactive)
    1  A    between atoms: C_1  and  C_22
    2  A    between atoms: C_3  and  C_19
    3  A    between atoms: C_4  and  C_13
    4  A    between atoms: C_7  and  C_15
    5  A    between atoms: C_7  and  C_16
    6  A    between atoms: C_8  and  C_12
    7  A    between atoms: C_8  and  C_13
    8  A    between atoms: C_13  and  C_23
    9  A    between atoms: C_13  and  O_27
   10  A    between atoms: C_16  and  C_30
   11  A    between atoms: C_19  and  C_23
   12  A    between atoms: C_23  and  C_25
   13  A    between atoms: O_27  and  C_30
                            x       y       z     vdW  Elec       q    Type
                         _______ _______ _______ _____ _____    ______ ____

>  <TORSDO>
F 13

$$$$
=
 OpenBabel11052412273D

 30 31  0  0  1  0  0  0  0  0999 V2000
  189.0270  177.5460  142.0930 C   0  0  1  0  0  0  0  0  0  0  0  0
  189.9750  179.1270  143.9930 C   0  0  0  0  0  3  0  0  0  0  0  0
  189.5460  178.8320  142.7550 C   0  0  0  0  0  3  0  0  0  0  0  0
  191.3740  177.7130  145.3860 C   0  0  0  0  0  0  0  0  0  0  0  0
  191.5710  176.7230  146.4630 C   0  0  0  0  0  3  0  0  0  0  0  0
  192.4370  178.0580  144.6160 F   0  0  0  0  0  0  0  0  0  0  0  0
  190.6090  176.4860  147.3570 C   0  0  0  0  0  3  0  0  0  0  0  0
  190.1620  178.2510  145.1650 C   0  0  0  0  0  0  0  0  0  0  0  0
  189.3380  177.2860  147.3370 C   0  0  0  0  0  2  0  0  0  0  0  0
  188.9740  177.7030  145.9100 C   0  0  0  0  0  2  0  0  0  0  0  0
  187.7280  179.1800  140.7910 O   0  0  0  0  0  1  0  0  0  0  0  0
  188.2690  177.8930  140.7620 C   0  0  1  0  0  3  0  0  0  0  0  0
  189.1560  178.9000  138.5470 C   0  0  0  0  0  2  0  0  0  0  0  0
  188.2950  176.6750  138.4850 C   0  0  0  0  0  2  0  0  0  0  0  0
  188.9400  177.6760  139.3940 C   0  0  2  0  0  3  0  0  0  0  0  0
  189.3010  178.4420  137.1700 N   0  0  0  0  0  2  0  0  0  0  0  0
  188.8380  177.0540  137.1220 C   0  0  0  0  0  2  0  0  0  0  0  0
  190.1720  176.5270  141.8310 C   0  0  2  0  0  3  0  0  0  0  0  0
  191.5700  175.3090  143.3920 O   0  0  0  0  0  1  0  0  0  0  0  0
  190.2680  175.4290  142.9010 C   0  0  0  0  0  2  0  0  0  0  0  0
  191.5280  177.2360  141.6670 C   0  0  0  0  0  2  0  0  0  0  0  0
  192.0090  177.2350  140.2240 C   0  0  0  0  0  2  0  0  0  0  0  0
  193.5210  177.3150  140.1650 C   0  0  0  0  0  1  0  0  0  0  0  0
  188.1200  176.8590  142.9620 O   0  0  0  0  0  0  0  0  0  0  0  0
  186.8020  177.3540  142.8890 C   0  0  0  0  0  2  0  0  0  0  0  0
  186.3210  177.7460  144.2740 C   0  0  0  0  0  2  0  0  0  0  0  0
  185.0470  178.5640  144.1710 C   0  0  0  0  0  2  0  0  0  0  0  0
  185.5410  179.2490  146.5150 O   0  0  0  0  0  1  0  0  0  0  0  0
  184.6010  178.9760  145.5290 C   0  0  0  0  0  0  0  0  0  0  0  0
  183.3750  179.1050  145.7780 O   0  0  0  0  0  0  0  0  0  0  0  0
  1  3  1  1  0  0  0
  1 24  1  0  0  0  0
  2  8  1  0  0  0  0
  3  2  2  0  0  0  0
  4  5  1  0  0  0  0
  5  7  2  0  0  0  0
  6  4  1  0  0  0  0
  8  4  2  0  0  0  0
  8 10  1  0  0  0  0
  9  7  1  0  0  0  0
 10  9  1  0  0  0  0
 12 11  1  1  0  0  0
 12  1  1  0  0  0  0
 13 15  1  0  0  0  0
 14 15  1  0  0  0  0
 15 12  1  1  0  0  0
 16 13  1  0  0  0  0
 17 16  1  0  0  0  0
 17 14  1  0  0  0  0
 18 21  1  1  0  0  0
 18  1  1  0  0  0  0
 18 20  1  0  0  0  0
 20 19  1  0  0  0  0
 22 21  1  0  0  0  0
 23 22  1  0  0  0  0
 25 24  1  0  0  0  0
 25 26  1  0  0  0  0
 27 26  1  0  0  0  0
 27 29  1  0  0  0  0
 29 30  2  0  0  0  0
 29 28  1  0  0  0  0
M  END
>  <MODEL>
5

>  <REMARK>
 VINA RESULT:      -6.6      2.858      4.949
  Name = 
  13 active torsions:
  status: ('A' for Active; 'I' for Inactive)
    1  A    between atoms: C_1  and  C_22
    2  A    between atoms: C_3  and  C_19
    3  A    between atoms: C_4  and  C_13
    4  A    between atoms: C_7  and  C_15
    5  A    between atoms: C_7  and  C_16
    6  A    between atoms: C_8  and  C_12
    7  A    between atoms: C_8  and  C_13
    8  A    between atoms: C_13  and  C_23
    9  A    between atoms: C_13  and  O_27
   10  A    between atoms: C_16  and  C_30
   11  A    between atoms: C_19  and  C_23
   12  A    between atoms: C_23  and  C_25
   13  A    between atoms: O_27  and  C_30
                            x       y       z     vdW  Elec       q    Type
                         _______ _______ _______ _____ _____    ______ ____

>  <TORSDO>
F 13

$$$$
=
 OpenBabel11052412273D

 30 31  0  0  1  0  0  0  0  0999 V2000
  189.4930  177.1980  143.1770 C   0  0  1  0  0  0  0  0  0  0  0  0
  187.1110  176.3590  143.9720 C   0  0  0  0  0  3  0  0  0  0  0  0
  188.4040  176.2150  143.6350 C   0  0  0  0  0  3  0  0  0  0  0  0
  185.7410  178.0150  145.1010 C   0  0  0  0  0  0  0  0  0  0  0  0
  184.7670  179.1250  145.1040 C   0  0  0  0  0  3  0  0  0  0  0  0
  186.0990  177.4600  146.2860 F   0  0  0  0  0  0  0  0  0  0  0  0
  184.5210  179.8200  143.9920 C   0  0  0  0  0  3  0  0  0  0  0  0
  186.2520  177.5570  143.9450 C   0  0  0  0  0  0  0  0  0  0  0  0
  185.2940  179.5440  142.7350 C   0  0  0  0  0  2  0  0  0  0  0  0
  185.6880  178.0670  142.6450 C   0  0  0  0  0  2  0  0  0  0  0  0
  189.7450  179.3180  144.4000 O   0  0  0  0  0  1  0  0  0  0  0  0
  190.0830  177.9630  144.4160 C   0  0  1  0  0  3  0  0  0  0  0  0
  189.0220  178.2520  146.7600 C   0  0  0  0  0  2  0  0  0  0  0  0
  191.1230  177.1280  146.6270 C   0  0  0  0  0  2  0  0  0  0  0  0
  189.8810  177.4260  145.8430 C   0  0  2  0  0  3  0  0  0  0  0  0
  189.3720  177.8750  148.1250 N   0  0  0  0  0  2  0  0  0  0  0  0
  190.6290  177.1260  148.0590 C   0  0  0  0  0  2  0  0  0  0  0  0
  190.6190  176.4830  142.3780 C   0  0  2  0  0  3  0  0  0  0  0  0
  192.0180  175.2770  143.9490 O   0  0  0  0  0  1  0  0  0  0  0  0
  191.0240  175.1270  142.9780 C   0  0  0  0  0  2  0  0  0  0  0  0
  191.8530  177.3870  142.2140 C   0  0  0  0  0  2  0  0  0  0  0  0
  192.4770  177.2660  140.8320 C   0  0  0  0  0  2  0  0  0  0  0  0
  191.4130  176.9870  139.7880 C   0  0  0  0  0  1  0  0  0  0  0  0
  188.9560  178.1620  142.2660 O   0  0  0  0  0  0  0  0  0  0  0  0
  188.6100  177.6090  141.0160 C   0  0  0  0  0  2  0  0  0  0  0  0
  188.3150  178.7190  140.0250 C   0  0  0  0  0  2  0  0  0  0  0  0
  187.8550  178.1310  138.7040 C   0  0  0  0  0  2  0  0  0  0  0  0
  189.3280  177.5790  136.7710 O   0  0  0  0  0  0  0  0  0  0  0  0
  188.7880  178.5380  137.6180 C   0  0  0  0  0  0  0  0  0  0  0  0
  189.0650  179.7530  137.4480 O   0  0  0  0  0  1  0  0  0  0  0  0
  1  3  1  1  0  0  0
  1 12  1  0  0  0  0
  3  2  2  0  0  0  0
  4  5  1  0  0  0  0
  4  6  1  0  0  0  0
  7  5  2  0  0  0  0
  8  2  1  0  0  0  0
  8  4  2  0  0  0  0
  9  7  1  0  0  0  0
 10  9  1  0  0  0  0
 10  8  1  0  0  0  0
 12 11  1  1  0  0  0
 13 16  1  0  0  0  0
 14 17  1  0  0  0  0
 15 12  1  6  0  0  0
 15 14  1  0  0  0  0
 15 13  1  0  0  0  0
 17 16  1  0  0  0  0
 18 21  1  1  0  0  0
 18 20  1  0  0  0  0
 18  1  1  0  0  0  0
 20 19  1  0  0  0  0
 22 21  1  0  0  0  0
 23 22  1  0  0  0  0
 24  1  1  0  0  0  0
 25 24  1  0  0  0  0
 26 25  1  0  0  0  0
 27 26  1  0  0  0  0
 28 29  2  0  0  0  0
 29 27  1  0  0  0  0
 30 29  1  0  0  0  0
M  END
>  <MODEL>
6

>  <REMARK>
 VINA RESULT:      -6.2      2.111      3.078
  Name = 
  13 active torsions:
  status: ('A' for Active; 'I' for Inactive)
    1  A    between atoms: C_1  and  C_22
    2  A    between atoms: C_3  and  C_19
    3  A    between atoms: C_4  and  C_13
    4  A    between atoms: C_7  and  C_15
    5  A    between atoms: C_7  and  C_16
    6  A    between atoms: C_8  and  C_12
    7  A    between atoms: C_8  and  C_13
    8  A    between atoms: C_13  and  C_23
    9  A    between atoms: C_13  and  O_27
   10  A    between atoms: C_16  and  C_30
   11  A    between atoms: C_19  and  C_23
   12  A    between atoms: C_23  and  C_25
   13  A    between atoms: O_27  and  C_30
                            x       y       z     vdW  Elec       q    Type
                         _______ _______ _______ _____ _____    ______ ____

>  <TORSDO>
F 13

$$$$
=
 OpenBabel11052412273D

 30 31  0  0  1  0  0  0  0  0999 V2000
  188.4270  177.5770  142.0460 C   0  0  1  0  0  0  0  0  0  0  0  0
  190.3340  178.6270  143.5520 C   0  0  0  0  0  3  0  0  0  0  0  0
  189.3570  178.6520  142.6300 C   0  0  0  0  0  3  0  0  0  0  0  0
  190.8360  177.4860  145.6360 C   0  0  0  0  0  0  0  0  0  0  0  0
  191.5190  176.4400  146.4230 C   0  0  0  0  0  3  0  0  0  0  0  0
  190.1460  178.4500  146.2960 F   0  0  0  0  0  0  0  0  0  0  0  0
  192.0560  175.3760  145.8230 C   0  0  0  0  0  3  0  0  0  0  0  0
  190.9090  177.4900  144.2940 C   0  0  0  0  0  0  0  0  0  0  0  0
  191.8990  175.1770  144.3420 C   0  0  0  0  0  2  0  0  0  0  0  0
  191.8380  176.5210  143.6110 C   0  0  0  0  0  2  0  0  0  0  0  0
  188.0160  175.7130  143.5980 O   0  0  0  0  0  1  0  0  0  0  0  0
  187.5380  176.9580  143.1830 C   0  0  1  0  0  3  0  0  0  0  0  0
  187.4340  177.1380  145.7640 C   0  0  0  0  0  2  0  0  0  0  0  0
  185.7600  178.2830  144.5070 C   0  0  0  0  0  2  0  0  0  0  0  0
  187.1690  177.7800  144.4300 C   0  0  2  0  0  3  0  0  0  0  0  0
  186.5790  177.8100  146.7360 N   0  0  0  0  0  2  0  0  0  0  0  0
  185.5810  178.5730  145.9830 C   0  0  0  0  0  2  0  0  0  0  0  0
  187.5440  178.1390  140.8950 C   0  0  2  0  0  3  0  0  0  0  0  0
  187.8170  178.6270  138.5360 O   0  0  0  0  0  1  0  0  0  0  0  0
  188.3530  178.8610  139.8050 C   0  0  0  0  0  2  0  0  0  0  0  0
  186.4340  179.0560  141.4350 C   0  0  0  0  0  2  0  0  0  0  0  0
  185.1690  178.9890  140.5930 C   0  0  0  0  0  2  0  0  0  0  0  0
  184.1300  178.1080  141.2580 C   0  0  0  0  0  1  0  0  0  0  0  0
  189.1850  176.5240  141.4430 O   0  0  0  0  0  0  0  0  0  0  0  0
  190.2500  176.9940  140.6480 C   0  0  0  0  0  2  0  0  0  0  0  0
  190.2870  176.2360  139.3340 C   0  0  0  0  0  2  0  0  0  0  0  0
  191.1970  176.9450  138.3480 C   0  0  0  0  0  2  0  0  0  0  0  0
  192.3840  174.7900  137.9540 O   0  0  0  0  0  0  0  0  0  0  0  0
  192.4480  176.1620  138.1620 C   0  0  0  0  0  0  0  0  0  0  0  0
  193.5620  176.7450  138.1640 O   0  0  0  0  0  1  0  0  0  0  0  0
  1  3  1  1  0  0  0
  1 12  1  0  0  0  0
  2  8  1  0  0  0  0
  3  2  2  0  0  0  0
  4  6  1  0  0  0  0
  4  5  1  0  0  0  0
  7  5  2  0  0  0  0
  8  4  2  0  0  0  0
  9  7  1  0  0  0  0
 10  8  1  0  0  0  0
 10  9  1  0  0  0  0
 12 11  1  1  0  0  0
 13 16  1  0  0  0  0
 14 17  1  0  0  0  0
 15 12  1  6  0  0  0
 15 14  1  0  0  0  0
 15 13  1  0  0  0  0
 17 16  1  0  0  0  0
 18 20  1  6  0  0  0
 18 21  1  0  0  0  0
 18  1  1  0  0  0  0
 19 20  1  0  0  0  0
 22 23  1  0  0  0  0
 22 21  1  0  0  0  0
 24  1  1  0  0  0  0
 25 24  1  0  0  0  0
 26 25  1  0  0  0  0
 27 26  1  0  0  0  0
 28 29  2  0  0  0  0
 29 30  1  0  0  0  0
 29 27  1  0  0  0  0
M  END
>  <MODEL>
7

>  <REMARK>
 VINA RESULT:      -5.8      1.939      5.347
  Name = 
  13 active torsions:
  status: ('A' for Active; 'I' for Inactive)
    1  A    between atoms: C_1  and  C_22
    2  A    between atoms: C_3  and  C_19
    3  A    between atoms: C_4  and  C_13
    4  A    between atoms: C_7  and  C_15
    5  A    between atoms: C_7  and  C_16
    6  A    between atoms: C_8  and  C_12
    7  A    between atoms: C_8  and  C_13
    8  A    between atoms: C_13  and  C_23
    9  A    between atoms: C_13  and  O_27
   10  A    between atoms: C_16  and  C_30
   11  A    between atoms: C_19  and  C_23
   12  A    between atoms: C_23  and  C_25
   13  A    between atoms: O_27  and  C_30
                            x       y       z     vdW  Elec       q    Type
                         _______ _______ _______ _____ _____    ______ ____

>  <TORSDO>
F 13

$$$$
=
 OpenBabel11052412273D

 30 31  0  0  1  0  0  0  0  0999 V2000
  182.8450  178.4170  139.9440 C   0  0  1  0  0  0  0  0  0  0  0  0
  182.6830  175.8270  139.4210 C   0  0  0  0  0  3  0  0  0  0  0  0
  183.0180  176.9040  140.1510 C   0  0  0  0  0  3  0  0  0  0  0  0
  180.8130  175.2780  137.9730 C   0  0  0  0  0  0  0  0  0  0  0  0
  180.2110  175.0460  136.6450 C   0  0  0  0  0  3  0  0  0  0  0  0
  180.0770  175.0000  139.0780 F   0  0  0  0  0  0  0  0  0  0  0  0
  180.8210  175.4680  135.5360 C   0  0  0  0  0  3  0  0  0  0  0  0
  182.0690  175.7420  138.0830 C   0  0  0  0  0  0  0  0  0  0  0  0
  182.0890  176.2680  135.6220 C   0  0  0  0  0  2  0  0  0  0  0  0
  182.9170  175.8550  136.8430 C   0  0  0  0  0  2  0  0  0  0  0  0
  184.1860  180.3060  139.1160 O   0  0  0  0  0  1  0  0  0  0  0  0
  183.9160  178.9490  138.9260 C   0  0  1  0  0  3  0  0  0  0  0  0
  186.3930  178.6320  139.6110 C   0  0  0  0  0  2  0  0  0  0  0  0
  185.8090  178.1950  137.3390 C   0  0  0  0  0  2  0  0  0  0  0  0
  185.2510  178.2090  138.7300 C   0  0  2  0  0  3  0  0  0  0  0  0
  187.6220  178.2130  138.9450 N   0  0  0  0  0  2  0  0  0  0  0  0
  187.2730  177.8780  137.5620 C   0  0  0  0  0  2  0  0  0  0  0  0
  181.4060  178.7750  139.4730 C   0  0  2  0  0  3  0  0  0  0  0  0
  180.2980  178.7440  137.3170 O   0  0  0  0  0  1  0  0  0  0  0  0
  181.3540  179.3120  138.0340 C   0  0  0  0  0  2  0  0  0  0  0  0
  180.7270  179.7610  140.4390 C   0  0  0  0  0  2  0  0  0  0  0  0
  179.4490  179.1940  141.0370 C   0  0  0  0  0  2  0  0  0  0  0  0
  179.4460  177.6800  140.9540 C   0  0  0  0  0  1  0  0  0  0  0  0
  183.0090  179.1200  141.1800 O   0  0  0  0  0  0  0  0  0  0  0  0
  183.7380  178.3880  142.1400 C   0  0  0  0  0  2  0  0  0  0  0  0
  183.3030  178.7930  143.5360 C   0  0  0  0  0  2  0  0  0  0  0  0
  184.4310  179.5210  144.2430 C   0  0  0  0  0  2  0  0  0  0  0  0
  184.5400  178.6370  146.5700 O   0  0  0  0  0  1  0  0  0  0  0  0
  185.0360  178.6350  145.2730 C   0  0  0  0  0  0  0  0  0  0  0  0
  185.9780  177.8610  144.9630 O   0  0  0  0  0  0  0  0  0  0  0  0
  1  3  1  1  0  0  0
  1 24  1  0  0  0  0
  2  3  2  0  0  0  0
  4  8  2  0  0  0  0
  4  6  1  0  0  0  0
  5  4  1  0  0  0  0
  7  9  1  0  0  0  0
  7  5  2  0  0  0  0
  8  2  1  0  0  0  0
  9 10  1  0  0  0  0
 10  8  1  0  0  0  0
 12 11  1  1  0  0  0
 12  1  1  0  0  0  0
 14 17  1  0  0  0  0
 14 15  1  0  0  0  0
 15 12  1  6  0  0  0
 15 13  1  0  0  0  0
 16 13  1  0  0  0  0
 17 16  1  0  0  0  0
 18 20  1  6  0  0  0
 18  1  1  0  0  0  0
 18 21  1  0  0  0  0
 19 20  1  0  0  0  0
 21 22  1  0  0  0  0
 23 22  1  0  0  0  0
 24 25  1  0  0  0  0
 25 26  1  0  0  0  0
 26 27  1  0  0  0  0
 27 29  1  0  0  0  0
 29 28  1  0  0  0  0
 30 29  2  0  0  0  0
M  END
>  <MODEL>
8

>  <REMARK>
 VINA RESULT:      -5.7      4.543      8.429
  Name = 
  13 active torsions:
  status: ('A' for Active; 'I' for Inactive)
    1  A    between atoms: C_1  and  C_22
    2  A    between atoms: C_3  and  C_19
    3  A    between atoms: C_4  and  C_13
    4  A    between atoms: C_7  and  C_15
    5  A    between atoms: C_7  and  C_16
    6  A    between atoms: C_8  and  C_12
    7  A    between atoms: C_8  and  C_13
    8  A    between atoms: C_13  and  C_23
    9  A    between atoms: C_13  and  O_27
   10  A    between atoms: C_16  and  C_30
   11  A    between atoms: C_19  and  C_23
   12  A    between atoms: C_23  and  C_25
   13  A    between atoms: O_27  and  C_30
                            x       y       z     vdW  Elec       q    Type
                         _______ _______ _______ _____ _____    ______ ____

>  <TORSDO>
F 13

$$$$
=
 OpenBabel11052412273D

 30 31  0  0  1  0  0  0  0  0999 V2000
  189.1610  177.6280  142.2410 C   0  0  1  0  0  0  0  0  0  0  0  0
  190.1670  178.9340  144.3130 C   0  0  0  0  0  3  0  0  0  0  0  0
  189.7180  178.8090  143.0530 C   0  0  0  0  0  3  0  0  0  0  0  0
  189.3380  177.6780  146.2180 C   0  0  0  0  0  0  0  0  0  0  0  0
  189.5240  176.7670  147.3650 C   0  0  0  0  0  3  0  0  0  0  0  0
  188.1340  178.2820  146.0550 F   0  0  0  0  0  0  0  0  0  0  0  0
  190.6210  176.0150  147.4680 C   0  0  0  0  0  3  0  0  0  0  0  0
  190.3460  177.9130  145.3610 C   0  0  0  0  0  0  0  0  0  0  0  0
  191.6490  176.0130  146.3730 C   0  0  0  0  0  2  0  0  0  0  0  0
  191.7170  177.3780  145.6820 C   0  0  0  0  0  2  0  0  0  0  0  0
  188.3040  179.5340  140.9420 O   0  0  0  0  0  1  0  0  0  0  0  0
  188.4970  178.1500  140.9170 C   0  0  1  0  0  3  0  0  0  0  0  0
  189.2970  178.8810  138.5650 C   0  0  0  0  0  2  0  0  0  0  0  0
  188.3140  176.7170  138.7770 C   0  0  0  0  0  2  0  0  0  0  0  0
  189.0680  177.7610  139.5430 C   0  0  2  0  0  3  0  0  0  0  0  0
  189.3300  178.2830  137.2350 N   0  0  0  0  0  2  0  0  0  0  0  0
  188.7900  176.9270  137.3540 C   0  0  0  0  0  2  0  0  0  0  0  0
  190.2580  176.5710  141.9310 C   0  0  2  0  0  3  0  0  0  0  0  0
  191.4470  174.9990  143.3440 O   0  0  0  0  0  1  0  0  0  0  0  0
  190.1870  175.3350  142.8420 C   0  0  0  0  0  2  0  0  0  0  0  0
  191.6660  177.1910  141.9780 C   0  0  0  0  0  2  0  0  0  0  0  0
  192.0700  177.8040  140.6450 C   0  0  0  0  0  2  0  0  0  0  0  0
  193.0890  176.9290  139.9430 C   0  0  0  0  0  1  0  0  0  0  0  0
  188.1720  176.9180  142.9920 O   0  0  0  0  0  0  0  0  0  0  0  0
  186.8680  177.4210  142.8050 C   0  0  0  0  0  2  0  0  0  0  0  0
  186.2250  177.7010  144.1510 C   0  0  0  0  0  2  0  0  0  0  0  0
  184.9420  178.4890  143.9620 C   0  0  0  0  0  2  0  0  0  0  0  0
  183.8870  177.9370  141.7740 O   0  0  0  0  0  0  0  0  0  0  0  0
  184.7240  178.7600  142.5160 C   0  0  0  0  0  0  0  0  0  0  0  0
  185.2740  179.7510  141.9710 O   0  0  0  0  0  1  0  0  0  0  0  0
  1 24  1  0  0  0  0
  1  3  1  1  0  0  0
  2  8  1  0  0  0  0
  3  2  2  0  0  0  0
  4  5  1  0  0  0  0
  5  7  2  0  0  0  0
  6  4  1  0  0  0  0
  8 10  1  0  0  0  0
  8  4  2  0  0  0  0
  9  7  1  0  0  0  0
 10  9  1  0  0  0  0
 12 11  1  1  0  0  0
 12  1  1  0  0  0  0
 13 15  1  0  0  0  0
 14 15  1  0  0  0  0
 15 12  1  1  0  0  0
 16 17  1  0  0  0  0
 16 13  1  0  0  0  0
 17 14  1  0  0  0  0
 18 21  1  1  0  0  0
 18  1  1  0  0  0  0
 18 20  1  0  0  0  0
 20 19  1  0  0  0  0
 22 21  1  0  0  0  0
 23 22  1  0  0  0  0
 25 24  1  0  0  0  0
 25 26  1  0  0  0  0
 27 26  1  0  0  0  0
 28 29  2  0  0  0  0
 29 27  1  0  0  0  0
 30 29  1  0  0  0  0
M  END
>  <MODEL>
9

>  <REMARK>
 VINA RESULT:      -5.6      2.566      4.507
  Name = 
  13 active torsions:
  status: ('A' for Active; 'I' for Inactive)
    1  A    between atoms: C_1  and  C_22
    2  A    between atoms: C_3  and  C_19
    3  A    between atoms: C_4  and  C_13
    4  A    between atoms: C_7  and  C_15
    5  A    between atoms: C_7  and  C_16
    6  A    between atoms: C_8  and  C_12
    7  A    between atoms: C_8  and  C_13
    8  A    between atoms: C_13  and  C_23
    9  A    between atoms: C_13  and  O_27
   10  A    between atoms: C_16  and  C_30
   11  A    between atoms: C_19  and  C_23
   12  A    between atoms: C_23  and  C_25
   13  A    between atoms: O_27  and  C_30
                            x       y       z     vdW  Elec       q    Type
                         _______ _______ _______ _____ _____    ______ ____

>  <TORSDO>
F 13

$$$$
