=
 OpenBabel11052413523D

 27 31  0  0  0  0  0  0  0  0999 V2000
  190.4230  177.9810  141.6770 C   0  0  0  0  0  2  0  0  0  0  0  0
  188.0170  178.0920  141.1410 C   0  0  0  0  0  0  0  0  0  0  0  0
  187.8700  176.8720  143.2580 C   0  0  0  0  0  2  0  0  0  0  0  0
  187.2220  178.9470  140.2160 C   0  0  0  0  0  3  0  0  0  0  0  0
  190.6410  176.7530  147.3440 C   0  0  0  0  0  1  0  0  0  0  0  0
  190.5470  177.0350  145.8880 C   0  0  0  0  0  0  0  0  0  0  0  0
  189.3020  177.5340  140.8570 N   0  0  0  0  0  0  0  0  0  0  0  0
  186.1300  178.5350  142.2930 N   0  0  0  0  0  0  0  0  0  0  0  0
  190.3760  177.5520  143.1250 C   0  0  0  0  0  0  0  0  0  0  0  0
  187.4020  177.8970  142.2780 C   0  0  0  0  0  0  0  0  0  0  0  0
  189.3260  176.9010  145.2280 C   0  0  0  0  0  3  0  0  0  0  0  0
  185.9440  179.2230  141.0190 C   0  0  0  0  0  3  0  0  0  0  0  0
  191.6810  177.4240  145.1780 C   0  0  0  0  0  3  0  0  0  0  0  0
  191.5900  177.6840  143.8110 C   0  0  0  0  0  3  0  0  0  0  0  0
  189.2130  177.1680  143.8580 C   0  0  0  0  0  0  0  0  0  0  0  0
  183.8060  178.6280  143.1010 C   0  0  0  0  0  3  0  0  0  0  0  0
  183.3090  178.6760  145.4680 C   0  0  0  0  0  3  0  0  0  0  0  0
  184.6750  178.6280  145.7550 C   0  0  0  0  0  3  0  0  0  0  0  0
  185.6060  178.5780  144.7130 C   0  0  0  0  0  3  0  0  0  0  0  0
  185.1810  178.5730  143.3750 C   0  0  0  0  0  0  0  0  0  0  0  0
  182.8740  178.6770  144.1420 C   0  0  0  0  0  3  0  0  0  0  0  0
  190.0190  175.2890  137.3850 C   0  0  0  0  0  3  0  0  0  0  0  0
  189.5460  176.7530  139.6740 C   0  0  0  0  0  0  0  0  0  0  0  0
  190.7740  176.1040  139.4760 C   0  0  0  0  0  3  0  0  0  0  0  0
  190.9800  175.3880  138.3390 N   0  0  0  0  0  0  0  0  0  0  0  0
  188.7990  175.9370  137.5710 C   0  0  0  0  0  3  0  0  0  0  0  0
  188.5910  176.6540  138.7080 N   0  0  0  0  0  0  0  0  0  0  0  0
  1  9  1  0  0  0  0
  2 10  2  0  0  0  0
  3 15  1  0  0  0  0
  4 12  2  0  0  0  0
  4  2  1  0  0  0  0
  6  5  1  0  0  0  0
  7  2  1  0  0  0  0
  7  1  1  0  0  0  0
  8 20  1  0  0  0  0
  9 14  2  0  0  0  0
  9 15  1  0  0  0  0
 10  8  1  0  0  0  0
 10  3  1  0  0  0  0
 11  6  1  0  0  0  0
 12  8  1  0  0  0  0
 13  6  2  0  0  0  0
 14 13  1  0  0  0  0
 15 11  2  0  0  0  0
 16 20  2  0  0  0  0
 16 21  1  0  0  0  0
 17 18  1  0  0  0  0
 19 18  2  0  0  0  0
 20 19  1  0  0  0  0
 21 17  2  0  0  0  0
 22 26  2  0  0  0  0
 22 25  1  0  0  0  0
 23  7  1  0  0  0  0
 24 23  1  0  0  0  0
 25 24  2  0  0  0  0
 26 27  1  0  0  0  0
 27 23  2  0  0  0  0
M  END
>  <MODEL>
1

>  <REMARK>
 VINA RESULT:      -8.9      0.000      0.000
  Name = 
  2 active torsions:
  status: ('A' for Active; 'I' for Inactive)
    1  A    between atoms: C_9  and  N_15
    2  A    between atoms: C_14  and  N_17
                            x       y       z     vdW  Elec       q    Type
                         _______ _______ _______ _____ _____    ______ ____

>  <TORSDO>
F 2

$$$$
=
 OpenBabel11052413523D

 27 31  0  0  0  0  0  0  0  0999 V2000
  185.8320  179.1380  140.8960 C   0  0  0  0  0  2  0  0  0  0  0  0
  185.1500  178.7830  143.2400 C   0  0  0  0  0  0  0  0  0  0  0  0
  186.9470  177.1260  143.1230 C   0  0  0  0  0  2  0  0  0  0  0  0
  184.3660  179.6050  144.2050 C   0  0  0  0  0  3  0  0  0  0  0  0
  191.1160  176.7730  140.5000 C   0  0  0  0  0  1  0  0  0  0  0  0
  189.7490  177.3400  140.6300 C   0  0  0  0  0  0  0  0  0  0  0  0
  184.8540  178.6270  141.8510 N   0  0  0  0  0  0  0  0  0  0  0  0
  186.2210  178.4930  145.2030 N   0  0  0  0  0  0  0  0  0  0  0  0
  187.1500  178.3990  140.8650 C   0  0  0  0  0  0  0  0  0  0  0  0
  186.1710  178.1990  143.8120 C   0  0  0  0  0  0  0  0  0  0  0  0
  188.9840  177.0660  141.7640 C   0  0  0  0  0  3  0  0  0  0  0  0
  185.1100  179.3810  145.5290 C   0  0  0  0  0  3  0  0  0  0  0  0
  189.2240  178.1370  139.6150 C   0  0  0  0  0  3  0  0  0  0  0  0
  187.9390  178.6640  139.7390 C   0  0  0  0  0  3  0  0  0  0  0  0
  187.6960  177.5950  141.9100 C   0  0  0  0  0  0  0  0  0  0  0  0
  186.9820  178.2240  147.5290 C   0  0  0  0  0  3  0  0  0  0  0  0
  189.1410  177.2530  148.0320 C   0  0  0  0  0  3  0  0  0  0  0  0
  189.3840  177.0900  146.6660 C   0  0  0  0  0  3  0  0  0  0  0  0
  188.4250  177.4950  145.7330 C   0  0  0  0  0  3  0  0  0  0  0  0
  187.2120  178.0620  146.1540 C   0  0  0  0  0  0  0  0  0  0  0  0
  187.9410  177.8210  148.4640 C   0  0  0  0  0  3  0  0  0  0  0  0
  181.0620  177.4460  140.4960 C   0  0  0  0  0  3  0  0  0  0  0  0
  183.5560  178.2100  141.3930 C   0  0  0  0  0  0  0  0  0  0  0  0
  183.4200  177.3040  140.3300 C   0  0  0  0  0  3  0  0  0  0  0  0
  182.1790  176.9430  139.9090 N   0  0  0  0  0  0  0  0  0  0  0  0
  181.1890  178.3510  141.5480 C   0  0  0  0  0  3  0  0  0  0  0  0
  182.4290  178.7150  141.9700 N   0  0  0  0  0  0  0  0  0  0  0  0
  1  7  1  0  0  0  0
  2 10  2  0  0  0  0
  2  4  1  0  0  0  0
  3 10  1  0  0  0  0
  4 12  2  0  0  0  0
  5  6  1  0  0  0  0
  6 11  1  0  0  0  0
  7  2  1  0  0  0  0
  8 12  1  0  0  0  0
  8 20  1  0  0  0  0
  9  1  1  0  0  0  0
  9 15  1  0  0  0  0
 10  8  1  0  0  0  0
 11 15  2  0  0  0  0
 13 14  1  0  0  0  0
 13  6  2  0  0  0  0
 14  9  2  0  0  0  0
 15  3  1  0  0  0  0
 16 21  1  0  0  0  0
 17 21  2  0  0  0  0
 18 17  1  0  0  0  0
 19 20  1  0  0  0  0
 19 18  2  0  0  0  0
 20 16  2  0  0  0  0
 22 26  1  0  0  0  0
 23  7  1  0  0  0  0
 23 27  1  0  0  0  0
 24 23  2  0  0  0  0
 25 24  1  0  0  0  0
 25 22  2  0  0  0  0
 26 27  2  0  0  0  0
M  END
>  <MODEL>
2

>  <REMARK>
 VINA RESULT:      -8.7      2.621      5.667
  Name = 
  2 active torsions:
  status: ('A' for Active; 'I' for Inactive)
    1  A    between atoms: C_9  and  N_15
    2  A    between atoms: C_14  and  N_17
                            x       y       z     vdW  Elec       q    Type
                         _______ _______ _______ _____ _____    ______ ____

>  <TORSDO>
F 2

$$$$
=
 OpenBabel11052413523D

 27 31  0  0  0  0  0  0  0  0999 V2000
  191.7190  177.8330  140.9480 C   0  0  0  0  0  2  0  0  0  0  0  0
  189.8020  177.8030  139.3940 C   0  0  0  0  0  0  0  0  0  0  0  0
  188.6980  176.8580  141.3640 C   0  0  0  0  0  2  0  0  0  0  0  0
  189.5230  178.5100  138.1130 C   0  0  0  0  0  3  0  0  0  0  0  0
  189.3740  177.3400  146.2320 C   0  0  0  0  0  1  0  0  0  0  0  0
  189.9420  177.4320  144.8620 C   0  0  0  0  0  0  0  0  0  0  0  0
  191.0630  177.2520  139.7810 N   0  0  0  0  0  0  0  0  0  0  0  0
  187.6150  178.3320  139.5270 N   0  0  0  0  0  0  0  0  0  0  0  0
  191.0240  177.5890  142.2670 C   0  0  0  0  0  0  0  0  0  0  0  0
  188.7420  177.7350  140.1570 C   0  0  0  0  0  0  0  0  0  0  0  0
  189.1340  177.1790  143.7530 C   0  0  0  0  0  3  0  0  0  0  0  0
  188.0310  178.8480  138.2260 C   0  0  0  0  0  3  0  0  0  0  0  0
  191.2830  177.7610  144.6830 C   0  0  0  0  0  3  0  0  0  0  0  0
  191.8130  177.8430  143.3950 C   0  0  0  0  0  3  0  0  0  0  0  0
  189.6470  177.2670  142.4530 C   0  0  0  0  0  0  0  0  0  0  0  0
  186.1080  178.7380  141.4320 C   0  0  0  0  0  3  0  0  0  0  0  0
  183.7050  178.7460  141.1440 C   0  0  0  0  0  3  0  0  0  0  0  0
  183.8700  178.4840  139.7820 C   0  0  0  0  0  3  0  0  0  0  0  0
  185.1540  178.3500  139.2460 C   0  0  0  0  0  3  0  0  0  0  0  0
  186.2870  178.4800  140.0640 C   0  0  0  0  0  0  0  0  0  0  0  0
  184.8240  178.8730  141.9700 C   0  0  0  0  0  3  0  0  0  0  0  0
  193.1410  174.5920  137.2870 C   0  0  0  0  0  3  0  0  0  0  0  0
  191.7810  176.3350  138.9370 C   0  0  0  0  0  0  0  0  0  0  0  0
  193.1430  176.5240  138.6560 C   0  0  0  0  0  3  0  0  0  0  0  0
  193.7890  175.6490  137.8410 N   0  0  0  0  0  0  0  0  0  0  0  0
  191.7860  174.4010  137.5560 C   0  0  0  0  0  3  0  0  0  0  0  0
  191.1380  175.2760  138.3710 N   0  0  0  0  0  0  0  0  0  0  0  0
  1  9  1  0  0  0  0
  2  7  1  0  0  0  0
  2 10  2  0  0  0  0
  3 15  1  0  0  0  0
  4 12  2  0  0  0  0
  4  2  1  0  0  0  0
  6  5  1  0  0  0  0
  7  1  1  0  0  0  0
  8 20  1  0  0  0  0
  8 10  1  0  0  0  0
  9 15  2  0  0  0  0
  9 14  1  0  0  0  0
 10  3  1  0  0  0  0
 11  6  2  0  0  0  0
 12  8  1  0  0  0  0
 13  6  1  0  0  0  0
 14 13  2  0  0  0  0
 15 11  1  0  0  0  0
 16 21  1  0  0  0  0
 17 21  2  0  0  0  0
 18 17  1  0  0  0  0
 19 18  2  0  0  0  0
 19 20  1  0  0  0  0
 20 16  2  0  0  0  0
 22 26  2  0  0  0  0
 22 25  1  0  0  0  0
 23  7  1  0  0  0  0
 24 23  1  0  0  0  0
 25 24  2  0  0  0  0
 26 27  1  0  0  0  0
 27 23  2  0  0  0  0
M  END
>  <MODEL>
3

>  <REMARK>
 VINA RESULT:      -8.2      1.920      2.927
  Name = 
  2 active torsions:
  status: ('A' for Active; 'I' for Inactive)
    1  A    between atoms: C_9  and  N_15
    2  A    between atoms: C_14  and  N_17
                            x       y       z     vdW  Elec       q    Type
                         _______ _______ _______ _____ _____    ______ ____

>  <TORSDO>
F 2

$$$$
=
 OpenBabel11052413523D

 27 31  0  0  0  0  0  0  0  0999 V2000
  189.1150  178.4910  145.5190 C   0  0  0  0  0  2  0  0  0  0  0  0
  190.3920  177.6240  143.5940 C   0  0  0  0  0  0  0  0  0  0  0  0
  188.1840  176.7520  142.9970 C   0  0  0  0  0  2  0  0  0  0  0  0
  191.7150  177.9830  143.0100 C   0  0  0  0  0  3  0  0  0  0  0  0
  183.5600  178.2530  143.8610 C   0  0  0  0  0  1  0  0  0  0  0  0
  184.9900  178.2690  144.2640 C   0  0  0  0  0  0  0  0  0  0  0  0
  190.0950  177.5480  144.9890 N   0  0  0  0  0  0  0  0  0  0  0  0
  190.0590  177.4960  141.3680 N   0  0  0  0  0  0  0  0  0  0  0  0
  187.6970  178.2860  145.0390 C   0  0  0  0  0  0  0  0  0  0  0  0
  189.4990  177.3800  142.6700 C   0  0  0  0  0  0  0  0  0  0  0  0
  185.9390  177.5990  143.4930 C   0  0  0  0  0  3  0  0  0  0  0  0
  191.4620  177.8780  141.5000 C   0  0  0  0  0  3  0  0  0  0  0  0
  185.3830  178.9450  145.4170 C   0  0  0  0  0  3  0  0  0  0  0  0
  186.7250  178.9540  145.7940 C   0  0  0  0  0  3  0  0  0  0  0  0
  187.2930  177.6070  143.8500 C   0  0  0  0  0  0  0  0  0  0  0  0
  189.9080  176.4660  139.1360 C   0  0  0  0  0  3  0  0  0  0  0  0
  188.1010  177.0210  137.6250 C   0  0  0  0  0  3  0  0  0  0  0  0
  187.5720  177.8920  138.5800 C   0  0  0  0  0  3  0  0  0  0  0  0
  188.2120  178.0490  139.8130 C   0  0  0  0  0  3  0  0  0  0  0  0
  189.3840  177.3350  140.1060 C   0  0  0  0  0  0  0  0  0  0  0  0
  189.2690  176.3080  137.9020 C   0  0  0  0  0  3  0  0  0  0  0  0
  192.4310  175.2470  147.6080 C   0  0  0  0  0  3  0  0  0  0  0  0
  190.8840  176.7530  145.8910 C   0  0  0  0  0  0  0  0  0  0  0  0
  190.8950  177.0170  147.2700 C   0  0  0  0  0  3  0  0  0  0  0  0
  191.6650  176.2580  148.0930 N   0  0  0  0  0  0  0  0  0  0  0  0
  192.4300  174.9830  146.2400 C   0  0  0  0  0  3  0  0  0  0  0  0
  191.6610  175.7410  145.4130 N   0  0  0  0  0  0  0  0  0  0  0  0
  2  7  1  0  0  0  0
  3 15  1  0  0  0  0
  4  2  1  0  0  0  0
  5  6  1  0  0  0  0
  6 13  1  0  0  0  0
  7  1  1  0  0  0  0
  7 23  1  0  0  0  0
  8 12  1  0  0  0  0
  8 10  1  0  0  0  0
  9  1  1  0  0  0  0
  9 14  1  0  0  0  0
 10  3  1  0  0  0  0
 10  2  2  0  0  0  0
 11 15  1  0  0  0  0
 11  6  2  0  0  0  0
 12  4  2  0  0  0  0
 13 14  2  0  0  0  0
 15  9  2  0  0  0  0
 16 20  1  0  0  0  0
 17 21  1  0  0  0  0
 17 18  2  0  0  0  0
 18 19  1  0  0  0  0
 19 20  2  0  0  0  0
 20  8  1  0  0  0  0
 21 16  2  0  0  0  0
 22 25  1  0  0  0  0
 23 24  1  0  0  0  0
 24 25  2  0  0  0  0
 26 22  2  0  0  0  0
 27 23  2  0  0  0  0
 27 26  1  0  0  0  0
M  END
>  <MODEL>
4

>  <REMARK>
 VINA RESULT:      -7.7      2.340      6.486
  Name = 
  2 active torsions:
  status: ('A' for Active; 'I' for Inactive)
    1  A    between atoms: C_9  and  N_15
    2  A    between atoms: C_14  and  N_17
                            x       y       z     vdW  Elec       q    Type
                         _______ _______ _______ _____ _____    ______ ____

>  <TORSDO>
F 2

$$$$
=
 OpenBabel11052413523D

 27 31  0  0  0  0  0  0  0  0999 V2000
  182.2340  178.5430  141.1110 C   0  0  0  0  0  2  0  0  0  0  0  0
  183.7820  178.5840  139.1900 C   0  0  0  0  0  0  0  0  0  0  0  0
  185.2740  179.5210  140.8890 C   0  0  0  0  0  2  0  0  0  0  0  0
  183.7860  177.8830  137.8750 C   0  0  0  0  0  3  0  0  0  0  0  0
  185.6360  179.0140  145.7870 C   0  0  0  0  0  1  0  0  0  0  0  0
  184.7940  178.9280  144.5660 C   0  0  0  0  0  0  0  0  0  0  0  0
  182.6300  179.1310  139.8350 N   0  0  0  0  0  0  0  0  0  0  0  0
  185.9490  178.0570  138.8580 N   0  0  0  0  0  0  0  0  0  0  0  0
  183.1900  178.7820  142.2560 C   0  0  0  0  0  0  0  0  0  0  0  0
  184.9790  178.6490  139.7130 C   0  0  0  0  0  0  0  0  0  0  0  0
  185.3500  179.1870  143.3150 C   0  0  0  0  0  3  0  0  0  0  0  0
  185.2690  177.5470  137.6710 C   0  0  0  0  0  3  0  0  0  0  0  0
  183.4440  178.5970  144.6710 C   0  0  0  0  0  3  0  0  0  0  0  0
  182.6560  178.5210  143.5240 C   0  0  0  0  0  3  0  0  0  0  0  0
  184.5760  179.1050  142.1500 C   0  0  0  0  0  0  0  0  0  0  0  0
  188.2240  177.5720  138.0490 C   0  0  0  0  0  3  0  0  0  0  0  0
  190.1150  177.5880  139.5600 C   0  0  0  0  0  3  0  0  0  0  0  0
  189.2650  177.9170  140.6180 C   0  0  0  0  0  3  0  0  0  0  0  0
  187.8940  178.0750  140.3900 C   0  0  0  0  0  3  0  0  0  0  0  0
  187.3600  177.9090  139.1030 C   0  0  0  0  0  0  0  0  0  0  0  0
  189.5950  177.4140  138.2750 C   0  0  0  0  0  3  0  0  0  0  0  0
  180.0800  181.8060  137.8470 C   0  0  0  0  0  3  0  0  0  0  0  0
  181.7500  180.0510  139.1660 C   0  0  0  0  0  0  0  0  0  0  0  0
  180.4010  179.7330  138.9460 C   0  0  0  0  0  3  0  0  0  0  0  0
  179.6000  180.6170  138.2950 N   0  0  0  0  0  0  0  0  0  0  0  0
  181.4210  182.1260  138.0560 C   0  0  0  0  0  3  0  0  0  0  0  0
  182.2250  181.2430  138.7060 N   0  0  0  0  0  0  0  0  0  0  0  0
  1  9  1  0  0  0  0
  2 10  2  0  0  0  0
  2  7  1  0  0  0  0
  3 15  1  0  0  0  0
  4  2  1  0  0  0  0
  6 13  1  0  0  0  0
  6  5  1  0  0  0  0
  7  1  1  0  0  0  0
  8 20  1  0  0  0  0
  8 10  1  0  0  0  0
  9 14  1  0  0  0  0
 10  3  1  0  0  0  0
 11  6  2  0  0  0  0
 12  4  2  0  0  0  0
 12  8  1  0  0  0  0
 14 13  2  0  0  0  0
 15  9  2  0  0  0  0
 15 11  1  0  0  0  0
 16 21  2  0  0  0  0
 16 20  1  0  0  0  0
 17 18  2  0  0  0  0
 19 18  1  0  0  0  0
 20 19  2  0  0  0  0
 21 17  1  0  0  0  0
 22 26  2  0  0  0  0
 22 25  1  0  0  0  0
 23  7  1  0  0  0  0
 24 23  1  0  0  0  0
 25 24  2  0  0  0  0
 26 27  1  0  0  0  0
 27 23  2  0  0  0  0
M  END
>  <MODEL>
5

>  <REMARK>
 VINA RESULT:      -7.3      3.502      7.439
  Name = 
  2 active torsions:
  status: ('A' for Active; 'I' for Inactive)
    1  A    between atoms: C_9  and  N_15
    2  A    between atoms: C_14  and  N_17
                            x       y       z     vdW  Elec       q    Type
                         _______ _______ _______ _____ _____    ______ ____

>  <TORSDO>
F 2

$$$$
=
 OpenBabel11052413523D

 27 31  0  0  0  0  0  0  0  0999 V2000
  181.5280  179.1340  140.9020 C   0  0  0  0  0  2  0  0  0  0  0  0
  182.4260  178.8350  138.6230 C   0  0  0  0  0  0  0  0  0  0  0  0
  184.5390  179.1680  139.8130 C   0  0  0  0  0  2  0  0  0  0  0  0
  181.8550  178.2540  137.3760 C   0  0  0  0  0  3  0  0  0  0  0  0
  186.0550  178.2540  144.4230 C   0  0  0  0  0  1  0  0  0  0  0  0
  184.9260  178.5050  143.4900 C   0  0  0  0  0  0  0  0  0  0  0  0
  181.7200  179.6580  139.5540 N   0  0  0  0  0  0  0  0  0  0  0  0
  184.1490  177.7070  137.7070 N   0  0  0  0  0  0  0  0  0  0  0  0
  182.7870  178.9990  141.7270 C   0  0  0  0  0  0  0  0  0  0  0  0
  183.6800  178.5040  138.7880 C   0  0  0  0  0  0  0  0  0  0  0  0
  185.1700  178.6680  142.1270 C   0  0  0  0  0  3  0  0  0  0  0  0
  183.0490  177.5030  136.7700 C   0  0  0  0  0  3  0  0  0  0  0  0
  183.6240  178.5870  143.9770 C   0  0  0  0  0  3  0  0  0  0  0  0
  182.5670  178.8270  143.0990 C   0  0  0  0  0  3  0  0  0  0  0  0
  184.1200  178.8980  141.2290 C   0  0  0  0  0  0  0  0  0  0  0  0
  186.6020  177.9240  137.7080 C   0  0  0  0  0  3  0  0  0  0  0  0
  188.0240  176.0270  137.2220 C   0  0  0  0  0  3  0  0  0  0  0  0
  186.8930  175.2240  137.0570 C   0  0  0  0  0  3  0  0  0  0  0  0
  185.6170  175.7720  137.2180 C   0  0  0  0  0  3  0  0  0  0  0  0
  185.4580  177.1270  137.5500 C   0  0  0  0  0  0  0  0  0  0  0  0
  187.8790  177.3770  137.5470 C   0  0  0  0  0  3  0  0  0  0  0  0
  179.6550  183.0930  138.3090 C   0  0  0  0  0  3  0  0  0  0  0  0
  181.0160  180.8420  139.1390 C   0  0  0  0  0  0  0  0  0  0  0  0
  179.7760  181.1830  139.7020 C   0  0  0  0  0  3  0  0  0  0  0  0
  179.1280  182.2990  139.2760 N   0  0  0  0  0  0  0  0  0  0  0  0
  180.8820  182.7580  137.7390 C   0  0  0  0  0  3  0  0  0  0  0  0
  181.5320  181.6410  138.1640 N   0  0  0  0  0  0  0  0  0  0  0  0
  1  9  1  0  0  0  0
  2 10  2  0  0  0  0
  2  7  1  0  0  0  0
  3 15  1  0  0  0  0
  4  2  1  0  0  0  0
  6 13  1  0  0  0  0
  6  5  1  0  0  0  0
  7  1  1  0  0  0  0
  8 10  1  0  0  0  0
  9 14  1  0  0  0  0
 10  3  1  0  0  0  0
 11  6  2  0  0  0  0
 12  4  2  0  0  0  0
 12  8  1  0  0  0  0
 14 13  2  0  0  0  0
 15  9  2  0  0  0  0
 15 11  1  0  0  0  0
 17 21  1  0  0  0  0
 18 19  1  0  0  0  0
 18 17  2  0  0  0  0
 19 20  2  0  0  0  0
 20  8  1  0  0  0  0
 20 16  1  0  0  0  0
 21 16  2  0  0  0  0
 22 25  1  0  0  0  0
 23  7  1  0  0  0  0
 23 24  1  0  0  0  0
 25 24  2  0  0  0  0
 26 27  1  0  0  0  0
 26 22  2  0  0  0  0
 27 23  2  0  0  0  0
M  END
>  <MODEL>
6

>  <REMARK>
 VINA RESULT:      -7.1      4.277      8.291
  Name = 
  2 active torsions:
  status: ('A' for Active; 'I' for Inactive)
    1  A    between atoms: C_9  and  N_15
    2  A    between atoms: C_14  and  N_17
                            x       y       z     vdW  Elec       q    Type
                         _______ _______ _______ _____ _____    ______ ____

>  <TORSDO>
F 2

$$$$
=
 OpenBabel11052413523D

 27 31  0  0  0  0  0  0  0  0999 V2000
  181.5290  179.0700  140.9300 C   0  0  0  0  0  2  0  0  0  0  0  0
  182.4330  178.7910  138.6510 C   0  0  0  0  0  0  0  0  0  0  0  0
  184.5400  179.1520  139.8440 C   0  0  0  0  0  2  0  0  0  0  0  0
  181.8720  178.2040  137.4010 C   0  0  0  0  0  3  0  0  0  0  0  0
  186.0660  178.2490  144.4530 C   0  0  0  0  0  1  0  0  0  0  0  0
  184.9340  178.4860  143.5200 C   0  0  0  0  0  0  0  0  0  0  0  0
  181.7140  179.6010  139.5830 N   0  0  0  0  0  0  0  0  0  0  0  0
  184.1740  177.6900  137.7340 N   0  0  0  0  0  0  0  0  0  0  0  0
  182.7890  178.9520  141.7560 C   0  0  0  0  0  0  0  0  0  0  0  0
  183.6920  178.4780  138.8160 C   0  0  0  0  0  0  0  0  0  0  0  0
  185.1760  178.6560  142.1570 C   0  0  0  0  0  3  0  0  0  0  0  0
  183.0770  177.4730  136.7950 C   0  0  0  0  0  3  0  0  0  0  0  0
  183.6300  178.5480  144.0050 C   0  0  0  0  0  3  0  0  0  0  0  0
  182.5700  178.7730  143.1270 C   0  0  0  0  0  3  0  0  0  0  0  0
  184.1240  178.8730  141.2590 C   0  0  0  0  0  0  0  0  0  0  0  0
  185.6420  175.7810  137.2180 C   0  0  0  0  0  3  0  0  0  0  0  0
  188.0510  176.0050  137.2870 C   0  0  0  0  0  3  0  0  0  0  0  0
  187.9140  177.3470  137.6480 C   0  0  0  0  0  3  0  0  0  0  0  0
  186.6410  177.9060  137.7940 C   0  0  0  0  0  3  0  0  0  0  0  0
  185.4920  177.1300  137.5760 C   0  0  0  0  0  0  0  0  0  0  0  0
  186.9150  175.2220  137.0730 C   0  0  0  0  0  3  0  0  0  0  0  0
  179.6170  183.0430  138.4150 C   0  0  0  0  0  3  0  0  0  0  0  0
  180.9930  180.7750  139.1700 C   0  0  0  0  0  0  0  0  0  0  0  0
  181.5570  181.6930  138.2720 C   0  0  0  0  0  3  0  0  0  0  0  0
  180.8560  182.8020  137.9150 N   0  0  0  0  0  0  0  0  0  0  0  0
  179.0520  182.1390  139.3130 C   0  0  0  0  0  3  0  0  0  0  0  0
  179.7520  181.0290  139.6720 N   0  0  0  0  0  0  0  0  0  0  0  0
  1  9  1  0  0  0  0
  2 10  2  0  0  0  0
  2  7  1  0  0  0  0
  3 15  1  0  0  0  0
  4  2  1  0  0  0  0
  6 13  1  0  0  0  0
  6  5  1  0  0  0  0
  7  1  1  0  0  0  0
  8 10  1  0  0  0  0
  9 14  1  0  0  0  0
 10  3  1  0  0  0  0
 11  6  2  0  0  0  0
 12  4  2  0  0  0  0
 12  8  1  0  0  0  0
 14 13  2  0  0  0  0
 15  9  2  0  0  0  0
 15 11  1  0  0  0  0
 16 20  1  0  0  0  0
 17 18  2  0  0  0  0
 18 19  1  0  0  0  0
 20  8  1  0  0  0  0
 20 19  2  0  0  0  0
 21 16  2  0  0  0  0
 21 17  1  0  0  0  0
 22 26  1  0  0  0  0
 23  7  1  0  0  0  0
 23 27  1  0  0  0  0
 24 23  2  0  0  0  0
 25 24  1  0  0  0  0
 25 22  2  0  0  0  0
 26 27  2  0  0  0  0
M  END
>  <MODEL>
7

>  <REMARK>
 VINA RESULT:      -7.1      4.248      8.230
  Name = 
  2 active torsions:
  status: ('A' for Active; 'I' for Inactive)
    1  A    between atoms: C_9  and  N_15
    2  A    between atoms: C_14  and  N_17
                            x       y       z     vdW  Elec       q    Type
                         _______ _______ _______ _____ _____    ______ ____

>  <TORSDO>
F 2

$$$$
=
 OpenBabel11052413523D

 27 31  0  0  0  0  0  0  0  0999 V2000
  188.7530  178.2680  139.5120 C   0  0  0  0  0  2  0  0  0  0  0  0
  190.9130  177.0920  139.7090 C   0  0  0  0  0  0  0  0  0  0  0  0
  189.8310  175.6110  138.0880 C   0  0  0  0  0  2  0  0  0  0  0  0
  192.2510  177.5050  140.2180 C   0  0  0  0  0  3  0  0  0  0  0  0
  186.4060  176.2760  134.5940 C   0  0  0  0  0  1  0  0  0  0  0  0
  187.0220  176.7400  135.8630 C   0  0  0  0  0  0  0  0  0  0  0  0
  189.6580  177.4370  140.2990 N   0  0  0  0  0  0  0  0  0  0  0  0
  192.3630  176.1370  138.2710 N   0  0  0  0  0  0  0  0  0  0  0  0
  188.1770  177.6090  138.2800 C   0  0  0  0  0  0  0  0  0  0  0  0
  191.0040  176.3570  138.6310 C   0  0  0  0  0  0  0  0  0  0  0  0
  188.1260  176.0690  136.3890 C   0  0  0  0  0  3  0  0  0  0  0  0
  193.2150  176.8350  139.2300 C   0  0  0  0  0  3  0  0  0  0  0  0
  186.4930  177.8390  136.5360 C   0  0  0  0  0  3  0  0  0  0  0  0
  187.0720  178.2680  137.7300 C   0  0  0  0  0  3  0  0  0  0  0  0
  188.7270  176.4920  137.5810 C   0  0  0  0  0  0  0  0  0  0  0  0
  193.3720  174.1120  137.2980 C   0  0  0  0  0  3  0  0  0  0  0  0
  193.8630  173.9760  134.9320 C   0  0  0  0  0  3  0  0  0  0  0  0
  193.3620  175.2680  134.7560 C   0  0  0  0  0  3  0  0  0  0  0  0
  192.8650  175.9810  135.8510 C   0  0  0  0  0  3  0  0  0  0  0  0
  192.8610  175.4090  137.1330 C   0  0  0  0  0  0  0  0  0  0  0  0
  193.8690  173.3980  136.2030 C   0  0  0  0  0  3  0  0  0  0  0  0
  188.8760  176.7430  144.3630 C   0  0  0  0  0  3  0  0  0  0  0  0
  189.3790  177.1920  141.6890 C   0  0  0  0  0  0  0  0  0  0  0  0
  188.3510  177.8780  142.3530 C   0  0  0  0  0  3  0  0  0  0  0  0
  188.1230  177.6370  143.6710 N   0  0  0  0  0  0  0  0  0  0  0  0
  189.9040  176.0620  143.7120 C   0  0  0  0  0  3  0  0  0  0  0  0
  190.1330  176.3030  142.3940 N   0  0  0  0  0  0  0  0  0  0  0  0
  1  7  1  0  0  0  0
  2  4  1  0  0  0  0
  2  7  1  0  0  0  0
  3 10  1  0  0  0  0
  5  6  1  0  0  0  0
  6 11  2  0  0  0  0
  6 13  1  0  0  0  0
  7 23  1  0  0  0  0
  8 10  1  0  0  0  0
  8 12  1  0  0  0  0
  9  1  1  0  0  0  0
 10  2  2  0  0  0  0
 11 15  1  0  0  0  0
 12  4  2  0  0  0  0
 13 14  2  0  0  0  0
 14  9  1  0  0  0  0
 15  3  1  0  0  0  0
 15  9  2  0  0  0  0
 17 21  1  0  0  0  0
 18 17  2  0  0  0  0
 18 19  1  0  0  0  0
 19 20  2  0  0  0  0
 20 16  1  0  0  0  0
 20  8  1  0  0  0  0
 21 16  2  0  0  0  0
 23 24  2  0  0  0  0
 23 27  1  0  0  0  0
 24 25  1  0  0  0  0
 25 22  2  0  0  0  0
 26 22  1  0  0  0  0
 27 26  2  0  0  0  0
M  END
>  <MODEL>
8

>  <REMARK>
 VINA RESULT:      -6.8      2.792      8.730
  Name = 
  2 active torsions:
  status: ('A' for Active; 'I' for Inactive)
    1  A    between atoms: C_9  and  N_15
    2  A    between atoms: C_14  and  N_17
                            x       y       z     vdW  Elec       q    Type
                         _______ _______ _______ _____ _____    ______ ____

>  <TORSDO>
F 2

$$$$
=
 OpenBabel11052413523D

 27 31  0  0  0  0  0  0  0  0999 V2000
  191.6690  177.4990  139.4900 C   0  0  0  0  0  2  0  0  0  0  0  0
  189.6380  177.4620  138.0900 C   0  0  0  0  0  0  0  0  0  0  0  0
  188.6470  176.7160  140.2000 C   0  0  0  0  0  2  0  0  0  0  0  0
  189.2940  178.0920  136.7840 C   0  0  0  0  0  3  0  0  0  0  0  0
  189.7220  177.4990  144.9560 C   0  0  0  0  0  1  0  0  0  0  0  0
  190.1850  177.4660  143.5440 C   0  0  0  0  0  0  0  0  0  0  0  0
  190.8980  176.8740  138.4210 N   0  0  0  0  0  0  0  0  0  0  0  0
  187.4950  178.1140  138.3460 N   0  0  0  0  0  0  0  0  0  0  0  0
  191.0690  177.3850  140.8720 C   0  0  0  0  0  0  0  0  0  0  0  0
  188.6380  177.5040  138.9320 C   0  0  0  0  0  0  0  0  0  0  0  0
  189.2830  177.1790  142.5210 C   0  0  0  0  0  3  0  0  0  0  0  0
  187.8320  178.5150  136.9830 C   0  0  0  0  0  3  0  0  0  0  0  0
  191.5220  177.7110  143.2420 C   0  0  0  0  0  3  0  0  0  0  0  0
  191.9540  177.6750  141.9170 C   0  0  0  0  0  3  0  0  0  0  0  0
  189.6960  177.1490  141.1830 C   0  0  0  0  0  0  0  0  0  0  0  0
  185.0370  178.2200  138.2280 C   0  0  0  0  0  3  0  0  0  0  0  0
  183.7230  178.8820  140.1490 C   0  0  0  0  0  3  0  0  0  0  0  0
  184.8940  179.0380  140.8940 C   0  0  0  0  0  3  0  0  0  0  0  0
  186.1370  178.7840  140.3050 C   0  0  0  0  0  3  0  0  0  0  0  0
  186.2210  178.3680  138.9670 C   0  0  0  0  0  0  0  0  0  0  0  0
  183.7940  178.4740  138.8160 C   0  0  0  0  0  3  0  0  0  0  0  0
  192.6970  173.9210  136.0430 C   0  0  0  0  0  3  0  0  0  0  0  0
  191.5040  175.8640  137.5960 C   0  0  0  0  0  0  0  0  0  0  0  0
  190.9380  174.5850  137.4810 C   0  0  0  0  0  3  0  0  0  0  0  0
  191.5450  173.6480  136.7080 N   0  0  0  0  0  0  0  0  0  0  0  0
  193.2700  175.1870  136.1570 C   0  0  0  0  0  3  0  0  0  0  0  0
  192.6640  176.1270  136.9310 N   0  0  0  0  0  0  0  0  0  0  0  0
  1  9  1  0  0  0  0
  2  7  1  0  0  0  0
  2 10  2  0  0  0  0
  3 15  1  0  0  0  0
  4 12  2  0  0  0  0
  4  2  1  0  0  0  0
  6  5  1  0  0  0  0
  7  1  1  0  0  0  0
  8 10  1  0  0  0  0
  8 20  1  0  0  0  0
  9 15  2  0  0  0  0
  9 14  1  0  0  0  0
 10  3  1  0  0  0  0
 11  6  2  0  0  0  0
 12  8  1  0  0  0  0
 13  6  1  0  0  0  0
 14 13  2  0  0  0  0
 15 11  1  0  0  0  0
 16 21  2  0  0  0  0
 16 20  1  0  0  0  0
 17 18  2  0  0  0  0
 19 18  1  0  0  0  0
 20 19  2  0  0  0  0
 21 17  1  0  0  0  0
 22 26  2  0  0  0  0
 22 25  1  0  0  0  0
 23  7  1  0  0  0  0
 24 23  1  0  0  0  0
 25 24  2  0  0  0  0
 26 27  1  0  0  0  0
 27 23  2  0  0  0  0
M  END
>  <MODEL>
9

>  <REMARK>
 VINA RESULT:      -6.7      2.428      3.693
  Name = 
  2 active torsions:
  status: ('A' for Active; 'I' for Inactive)
    1  A    between atoms: C_9  and  N_15
    2  A    between atoms: C_14  and  N_17
                            x       y       z     vdW  Elec       q    Type
                         _______ _______ _______ _____ _____    ______ ____

>  <TORSDO>
F 2

$$$$
