=
 OpenBabel11052412243D

 30 33  0  0  1  0  0  0  0  0999 V2000
  190.9560  177.1950  144.4910 C   0  0  2  0  0  3  0  0  0  0  0  0
  191.5700  177.1800  145.8880 C   0  0  0  0  0  2  0  0  0  0  0  0
  191.6970  178.2230  143.6520 C   0  0  0  0  0  1  0  0  0  0  0  0
  188.7460  177.2310  145.6420 C   0  0  0  0  0  0  0  0  0  0  0  0
  190.7290  176.2950  146.7900 C   0  0  0  0  0  2  0  0  0  0  0  0
  189.4630  177.4690  144.5150 C   0  0  0  0  0  0  0  0  0  0  0  0
  189.3850  176.7680  146.7990 O   0  0  0  0  0  0  0  0  0  0  0  0
  185.4320  179.0290  146.4550 C   0  0  0  0  0  3  0  0  0  0  0  0
  184.7670  178.7700  145.3250 C   0  0  0  0  0  3  0  0  0  0  0  0
  186.8910  178.6940  146.5870 C   0  0  1  0  0  3  0  0  0  0  0  0
  186.6080  177.4860  144.3800 C   0  0  0  0  0  3  0  0  0  0  0  0
  187.2850  178.4210  148.3010 Cl  0  0  0  0  0  0  0  0  0  0  0  0
  185.4220  178.0740  144.1940 C   0  0  0  0  0  0  0  0  0  0  0  0
  187.2590  177.4630  145.7390 C   0  0  1  0  0  3  0  0  0  0  0  0
  185.9520  179.7290  141.8240 O   0  0  0  0  0  0  0  0  0  0  0  0
  185.0550  178.8470  141.7830 C   0  0  0  0  0  0  0  0  0  0  0  0
  184.8060  177.9880  142.9030 N   0  0  0  0  0  2  0  0  0  0  0  0
  184.2770  178.6980  140.6030 N   0  0  0  0  0  1  0  0  0  0  0  0
  188.7800  177.8490  143.2330 C   0  0  0  0  0  2  0  0  0  0  0  0
  188.9540  176.7540  142.2000 C   0  0  0  0  0  2  0  0  0  0  0  0
  188.2930  177.1140  141.0260 O   0  0  0  0  0  0  0  0  0  0  0  0
  189.1550  178.0090  140.3920 C   0  0  2  0  0  3  0  0  0  0  0  0
  188.4170  178.8880  139.5980 O   0  0  0  0  0  1  0  0  0  0  0  0
  192.1040  176.5010  138.7490 C   0  0  0  0  0  2  0  0  0  0  0  0
  190.1360  177.2690  139.5440 C   0  0  0  0  0  0  0  0  0  0  0  0
  190.9410  175.9010  137.9930 C   0  0  2  0  0  0  0  0  0  0  0  0
  189.7470  176.4170  138.5250 O   0  0  0  0  0  0  0  0  0  0  0  0
  191.4180  177.3520  139.7160 N   0  0  0  0  0  0  0  0  0  0  0  0
  190.9560  174.5000  138.1110 O   0  0  0  0  0  0  0  0  0  0  0  0
  190.9660  175.0250  136.8060 C   0  0  0  0  0  2  0  0  0  0  0  0
  1  3  1  6  0  0  0
  1  6  1  0  0  0  0
  1  2  1  0  0  0  0
  2  5  1  0  0  0  0
  4  7  1  0  0  0  0
  5  7  1  0  0  0  0
  6  4  2  0  0  0  0
  8 10  1  0  0  0  0
  9  8  2  0  0  0  0
 10 12  1  1  0  0  0
 11 14  1  0  0  0  0
 13 11  2  0  0  0  0
 13  9  1  0  0  0  0
 14  4  1  6  0  0  0
 14 10  1  0  0  0  0
 16 15  2  0  0  0  0
 16 17  1  0  0  0  0
 17 13  1  0  0  0  0
 18 16  1  0  0  0  0
 19  6  1  0  0  0  0
 20 19  1  0  0  0  0
 21 20  1  0  0  0  0
 22 23  1  6  0  0  0
 22 21  1  0  0  0  0
 24 28  1  0  0  0  0
 25 28  2  0  0  0  0
 25 22  1  0  0  0  0
 26 30  1  6  0  0  0
 26 29  1  0  0  0  0
 26 27  1  0  0  0  0
 26 24  1  0  0  0  0
 27 25  1  0  0  0  0
 30 29  1  0  0  0  0
M  END
>  <MODEL>
1

>  <REMARK>
 VINA RESULT:      -8.8      0.000      0.000
  Name = 
  7 active torsions:
  status: ('A' for Active; 'I' for Inactive)
    1  A    between atoms: C_1  and  O_4
    2  A    between atoms: C_1  and  C_5
    3  A    between atoms: O_4  and  C_27
    4  A    between atoms: C_5  and  C_22
    5  A    between atoms: C_8  and  C_27
    6  A    between atoms: N_16  and  C_25
    7  A    between atoms: C_19  and  C_29
                            x       y       z     vdW  Elec       q    Type
                         _______ _______ _______ _____ _____    ______ ____

>  <TORSDO>
F 7

$$$$
=
 OpenBabel11052412243D

 30 33  0  0  1  0  0  0  0  0999 V2000
  189.7560  177.8990  145.2760 C   0  0  2  0  0  3  0  0  0  0  0  0
  191.2660  178.0700  145.1420 C   0  0  0  0  0  2  0  0  0  0  0  0
  189.4820  176.9120  146.3990 C   0  0  0  0  0  1  0  0  0  0  0  0
  189.7260  177.6810  142.7930 C   0  0  0  0  0  0  0  0  0  0  0  0
  191.5630  178.9070  143.9110 C   0  0  0  0  0  2  0  0  0  0  0  0
  189.1030  177.4590  143.9780 C   0  0  0  0  0  0  0  0  0  0  0  0
  190.9900  178.2850  142.7650 O   0  0  0  0  0  0  0  0  0  0  0  0
  188.1730  178.0880  139.2870 C   0  0  0  0  0  3  0  0  0  0  0  0
  188.8790  177.1600  138.6330 C   0  0  0  0  0  3  0  0  0  0  0  0
  188.5230  178.4740  140.6970 C   0  0  1  0  0  3  0  0  0  0  0  0
  190.1180  176.5090  140.6260 C   0  0  0  0  0  3  0  0  0  0  0  0
  187.0680  179.0770  141.5250 Cl  0  0  0  0  0  0  0  0  0  0  0  0
  189.9770  176.4250  139.2990 C   0  0  0  0  0  0  0  0  0  0  0  0
  189.1360  177.2880  141.4630 C   0  0  1  0  0  3  0  0  0  0  0  0
  192.7840  176.9770  138.6240 O   0  0  0  0  0  0  0  0  0  0  0  0
  192.2360  175.9220  138.2080 C   0  0  0  0  0  0  0  0  0  0  0  0
  190.8870  175.5970  138.5630 N   0  0  0  0  0  2  0  0  0  0  0  0
  192.9720  175.0360  137.3760 N   0  0  0  0  0  1  0  0  0  0  0  0
  187.7000  176.9240  144.0230 C   0  0  0  0  0  2  0  0  0  0  0  0
  186.7900  177.8980  144.7450 C   0  0  0  0  0  2  0  0  0  0  0  0
  185.4620  177.6150  144.4260 O   0  0  0  0  0  0  0  0  0  0  0  0
  184.8000  178.8370  144.5410 C   0  0  2  0  0  3  0  0  0  0  0  0
  184.3470  179.0030  145.8510 O   0  0  0  0  0  1  0  0  0  0  0  0
  182.4300  178.6610  141.7090 C   0  0  0  0  0  2  0  0  0  0  0  0
  183.6440  178.8900  143.5990 C   0  0  0  0  0  0  0  0  0  0  0  0
  181.5830  179.2020  142.8380 C   0  0  2  0  0  0  0  0  0  0  0  0
  182.3880  179.3280  143.9820 O   0  0  0  0  0  0  0  0  0  0  0  0
  183.7260  178.5070  142.3630 N   0  0  0  0  0  0  0  0  0  0  0  0
  180.5090  178.3330  143.0980 O   0  0  0  0  0  0  0  0  0  0  0  0
  180.1840  179.6690  142.7980 C   0  0  0  0  0  2  0  0  0  0  0  0
  1  3  1  1  0  0  0
  2  1  1  0  0  0  0
  4  6  2  0  0  0  0
  5  2  1  0  0  0  0
  6 19  1  0  0  0  0
  6  1  1  0  0  0  0
  7  4  1  0  0  0  0
  7  5  1  0  0  0  0
  8 10  1  0  0  0  0
  9  8  2  0  0  0  0
  9 13  1  0  0  0  0
 10 14  1  0  0  0  0
 10 12  1  1  0  0  0
 11 14  1  0  0  0  0
 13 11  2  0  0  0  0
 14  4  1  1  0  0  0
 16 17  1  0  0  0  0
 16 15  2  0  0  0  0
 17 13  1  0  0  0  0
 18 16  1  0  0  0  0
 19 20  1  0  0  0  0
 21 22  1  0  0  0  0
 21 20  1  0  0  0  0
 22 23  1  1  0  0  0
 24 28  1  0  0  0  0
 25 27  1  0  0  0  0
 25 22  1  0  0  0  0
 26 24  1  6  0  0  0
 26 29  1  0  0  0  0
 26 27  1  0  0  0  0
 28 25  2  0  0  0  0
 30 26  1  0  0  0  0
 30 29  1  0  0  0  0
M  END
>  <MODEL>
2

>  <REMARK>
 VINA RESULT:      -8.7      2.805      7.229
  Name = 
  7 active torsions:
  status: ('A' for Active; 'I' for Inactive)
    1  A    between atoms: C_1  and  O_4
    2  A    between atoms: C_1  and  C_5
    3  A    between atoms: O_4  and  C_27
    4  A    between atoms: C_5  and  C_22
    5  A    between atoms: C_8  and  C_27
    6  A    between atoms: N_16  and  C_25
    7  A    between atoms: C_19  and  C_29
                            x       y       z     vdW  Elec       q    Type
                         _______ _______ _______ _____ _____    ______ ____

>  <TORSDO>
F 7

$$$$
=
 OpenBabel11052412243D

 30 33  0  0  1  0  0  0  0  0999 V2000
  189.7750  176.7560  145.2400 C   0  0  2  0  0  3  0  0  0  0  0  0
  190.0330  177.7330  146.3840 C   0  0  0  0  0  2  0  0  0  0  0  0
  190.9240  176.8600  144.2510 C   0  0  0  0  0  1  0  0  0  0  0  0
  187.4470  177.6460  145.2230 C   0  0  0  0  0  0  0  0  0  0  0  0
  188.8130  177.7760  147.2850 C   0  0  0  0  0  2  0  0  0  0  0  0
  188.4370  176.9930  144.5650 C   0  0  0  0  0  0  0  0  0  0  0  0
  187.6690  178.1380  146.5170 O   0  0  0  0  0  0  0  0  0  0  0  0
  183.9700  179.2480  144.7600 C   0  0  0  0  0  3  0  0  0  0  0  0
  183.9790  179.3950  143.4310 C   0  0  0  0  0  3  0  0  0  0  0  0
  185.2060  178.8180  145.4980 C   0  0  1  0  0  3  0  0  0  0  0  0
  186.1870  178.3930  143.2030 C   0  0  0  0  0  3  0  0  0  0  0  0
  184.7410  177.9940  147.0060 Cl  0  0  0  0  0  0  0  0  0  0  0  0
  185.1820  179.0660  142.6340 C   0  0  0  0  0  0  0  0  0  0  0  0
  186.0880  177.9060  144.6260 C   0  0  1  0  0  3  0  0  0  0  0  0
  183.7500  177.9080  140.3440 O   0  0  0  0  0  0  0  0  0  0  0  0
  184.6140  178.8030  140.1530 C   0  0  0  0  0  0  0  0  0  0  0  0
  185.2930  179.4260  141.2510 N   0  0  0  0  0  2  0  0  0  0  0  0
  184.9190  179.2060  138.8250 N   0  0  0  0  0  1  0  0  0  0  0  0
  188.1820  176.3540  143.2290 C   0  0  0  0  0  2  0  0  0  0  0  0
  189.0750  176.9720  142.1720 C   0  0  0  0  0  2  0  0  0  0  0  0
  188.3510  177.1340  140.9910 O   0  0  0  0  0  0  0  0  0  0  0  0
  189.1220  178.0030  140.2180 C   0  0  2  0  0  3  0  0  0  0  0  0
  188.2880  178.7620  139.3950 O   0  0  0  0  0  1  0  0  0  0  0  0
  192.0390  176.4000  138.6090 C   0  0  0  0  0  2  0  0  0  0  0  0
  190.0880  177.2320  139.3810 C   0  0  0  0  0  0  0  0  0  0  0  0
  190.8660  175.8410  137.8370 C   0  0  2  0  0  0  0  0  0  0  0  0
  189.6830  176.3950  138.3550 O   0  0  0  0  0  0  0  0  0  0  0  0
  191.3700  177.2720  139.5690 N   0  0  0  0  0  0  0  0  0  0  0  0
  190.8320  174.4400  137.9530 O   0  0  0  0  0  0  0  0  0  0  0  0
  190.8770  174.9670  136.6490 C   0  0  0  0  0  2  0  0  0  0  0  0
  1  3  1  6  0  0  0
  1  2  1  0  0  0  0
  2  5  1  0  0  0  0
  4  7  1  0  0  0  0
  6  4  2  0  0  0  0
  6  1  1  0  0  0  0
  7  5  1  0  0  0  0
  8 10  1  0  0  0  0
  9  8  2  0  0  0  0
 10 12  1  1  0  0  0
 11 14  1  0  0  0  0
 13 11  2  0  0  0  0
 13  9  1  0  0  0  0
 14  4  1  1  0  0  0
 14 10  1  0  0  0  0
 16 15  2  0  0  0  0
 16 17  1  0  0  0  0
 17 13  1  0  0  0  0
 18 16  1  0  0  0  0
 19  6  1  0  0  0  0
 20 19  1  0  0  0  0
 21 20  1  0  0  0  0
 22 23  1  6  0  0  0
 22 21  1  0  0  0  0
 24 28  1  0  0  0  0
 25 28  2  0  0  0  0
 25 22  1  0  0  0  0
 26 30  1  6  0  0  0
 26 29  1  0  0  0  0
 26 27  1  0  0  0  0
 26 24  1  0  0  0  0
 27 25  1  0  0  0  0
 30 29  1  0  0  0  0
M  END
>  <MODEL>
3

>  <REMARK>
 VINA RESULT:      -8.7      1.309      1.612
  Name = 
  7 active torsions:
  status: ('A' for Active; 'I' for Inactive)
    1  A    between atoms: C_1  and  O_4
    2  A    between atoms: C_1  and  C_5
    3  A    between atoms: O_4  and  C_27
    4  A    between atoms: C_5  and  C_22
    5  A    between atoms: C_8  and  C_27
    6  A    between atoms: N_16  and  C_25
    7  A    between atoms: C_19  and  C_29
                            x       y       z     vdW  Elec       q    Type
                         _______ _______ _______ _____ _____    ______ ____

>  <TORSDO>
F 7

$$$$
=
 OpenBabel11052412243D

 30 33  0  0  1  0  0  0  0  0999 V2000
  191.0340  177.2640  144.6370 C   0  0  2  0  0  3  0  0  0  0  0  0
  191.6380  177.1210  146.0310 C   0  0  0  0  0  2  0  0  0  0  0  0
  191.7910  178.3520  143.8950 C   0  0  0  0  0  1  0  0  0  0  0  0
  188.8160  177.2240  145.7740 C   0  0  0  0  0  0  0  0  0  0  0  0
  190.7830  176.1700  146.8480 C   0  0  0  0  0  2  0  0  0  0  0  0
  189.5440  177.5500  144.6770 C   0  0  0  0  0  0  0  0  0  0  0  0
  189.4440  176.6560  146.8910 O   0  0  0  0  0  0  0  0  0  0  0  0
  185.5180  179.0540  146.5770 C   0  0  0  0  0  3  0  0  0  0  0  0
  184.8380  178.7650  145.4620 C   0  0  0  0  0  3  0  0  0  0  0  0
  186.9770  178.7180  146.7000 C   0  0  1  0  0  3  0  0  0  0  0  0
  186.6640  177.4490  144.5310 C   0  0  0  0  0  3  0  0  0  0  0  0
  187.3910  178.4920  148.4170 Cl  0  0  0  0  0  0  0  0  0  0  0  0
  185.4780  178.0360  144.3440 C   0  0  0  0  0  0  0  0  0  0  0  0
  187.3320  177.4630  145.8830 C   0  0  1  0  0  3  0  0  0  0  0  0
  185.8340  179.7510  141.9840 O   0  0  0  0  0  0  0  0  0  0  0  0
  185.0060  178.8020  141.9490 C   0  0  0  0  0  0  0  0  0  0  0  0
  184.8460  177.9150  143.0630 N   0  0  0  0  0  2  0  0  0  0  0  0
  184.2200  178.6050  140.7810 N   0  0  0  0  0  1  0  0  0  0  0  0
  188.8730  178.0480  143.4280 C   0  0  0  0  0  2  0  0  0  0  0  0
  189.1070  177.0800  142.2850 C   0  0  0  0  0  2  0  0  0  0  0  0
  188.6890  177.6650  141.0900 O   0  0  0  0  0  0  0  0  0  0  0  0
  189.5280  177.1240  140.1160 C   0  0  2  0  0  3  0  0  0  0  0  0
  190.8550  177.4410  140.4120 O   0  0  0  0  0  1  0  0  0  0  0  0
  188.7600  179.1370  137.1100 C   0  0  0  0  0  2  0  0  0  0  0  0
  189.1720  177.6620  138.7700 C   0  0  0  0  0  0  0  0  0  0  0  0
  188.6390  177.7130  136.6160 C   0  0  2  0  0  0  0  0  0  0  0  0
  188.9000  176.8420  137.6880 O   0  0  0  0  0  0  0  0  0  0  0  0
  189.1140  178.9310  138.5120 N   0  0  0  0  0  0  0  0  0  0  0  0
  189.5550  177.4820  135.5740 O   0  0  0  0  0  0  0  0  0  0  0  0
  188.1990  177.2320  135.2920 C   0  0  0  0  0  2  0  0  0  0  0  0
  1  3  1  1  0  0  0
  1  6  1  0  0  0  0
  1  2  1  0  0  0  0
  2  5  1  0  0  0  0
  4  7  1  0  0  0  0
  5  7  1  0  0  0  0
  6  4  2  0  0  0  0
  8 10  1  0  0  0  0
  9  8  2  0  0  0  0
 10 12  1  1  0  0  0
 11 14  1  0  0  0  0
 13 11  2  0  0  0  0
 13  9  1  0  0  0  0
 14  4  1  6  0  0  0
 14 10  1  0  0  0  0
 16 15  2  0  0  0  0
 16 17  1  0  0  0  0
 17 13  1  0  0  0  0
 18 16  1  0  0  0  0
 19  6  1  0  0  0  0
 20 19  1  0  0  0  0
 21 20  1  0  0  0  0
 22 23  1  1  0  0  0
 22 21  1  0  0  0  0
 24 28  1  0  0  0  0
 25 22  1  0  0  0  0
 26 30  1  6  0  0  0
 26 24  1  0  0  0  0
 26 27  1  0  0  0  0
 27 25  1  0  0  0  0
 28 25  2  0  0  0  0
 29 26  1  0  0  0  0
 30 29  1  0  0  0  0
M  END
>  <MODEL>
4

>  <REMARK>
 VINA RESULT:      -8.7      1.493      1.702
  Name = 
  7 active torsions:
  status: ('A' for Active; 'I' for Inactive)
    1  A    between atoms: C_1  and  O_4
    2  A    between atoms: C_1  and  C_5
    3  A    between atoms: O_4  and  C_27
    4  A    between atoms: C_5  and  C_22
    5  A    between atoms: C_8  and  C_27
    6  A    between atoms: N_16  and  C_25
    7  A    between atoms: C_19  and  C_29
                            x       y       z     vdW  Elec       q    Type
                         _______ _______ _______ _____ _____    ______ ____

>  <TORSDO>
F 7

$$$$
=
 OpenBabel11052412243D

 30 33  0  0  1  0  0  0  0  0999 V2000
  191.0950  177.3180  144.7370 C   0  0  2  0  0  3  0  0  0  0  0  0
  191.7760  177.1210  146.0890 C   0  0  0  0  0  2  0  0  0  0  0  0
  191.7830  178.4660  144.0160 C   0  0  0  0  0  1  0  0  0  0  0  0
  188.9430  177.1550  145.9820 C   0  0  0  0  0  0  0  0  0  0  0  0
  190.9900  176.1050  146.8970 C   0  0  0  0  0  2  0  0  0  0  0  0
  189.6020  177.5590  144.8680 C   0  0  0  0  0  0  0  0  0  0  0  0
  189.6430  176.5480  147.0330 O   0  0  0  0  0  0  0  0  0  0  0  0
  185.6530  178.7390  147.2230 C   0  0  0  0  0  3  0  0  0  0  0  0
  184.9410  178.6620  146.0940 C   0  0  0  0  0  3  0  0  0  0  0  0
  187.1190  178.4100  147.2350 C   0  0  1  0  0  3  0  0  0  0  0  0
  186.7500  177.5830  144.8710 C   0  0  0  0  0  3  0  0  0  0  0  0
  187.5900  177.8610  148.8620 Cl  0  0  0  0  0  0  0  0  0  0  0  0
  185.5520  178.1750  144.8360 C   0  0  0  0  0  0  0  0  0  0  0  0
  187.4600  177.3440  146.1790 C   0  0  1  0  0  3  0  0  0  0  0  0
  182.7750  178.9980  144.3370 O   0  0  0  0  0  0  0  0  0  0  0  0
  183.5080  178.6520  143.3730 C   0  0  0  0  0  0  0  0  0  0  0  0
  184.8810  178.2960  143.5750 N   0  0  0  0  0  2  0  0  0  0  0  0
  182.9640  178.6180  142.0610 N   0  0  0  0  0  1  0  0  0  0  0  0
  188.8540  178.1000  143.6830 C   0  0  0  0  0  2  0  0  0  0  0  0
  189.2570  177.3590  142.4240 C   0  0  0  0  0  2  0  0  0  0  0  0
  188.1520  177.2460  141.5800 O   0  0  0  0  0  0  0  0  0  0  0  0
  188.1130  178.4530  140.8810 C   0  0  2  0  0  3  0  0  0  0  0  0
  186.8560  179.0400  141.0290 O   0  0  0  0  0  1  0  0  0  0  0  0
  189.4870  177.6430  137.5450 C   0  0  0  0  0  2  0  0  0  0  0  0
  188.3920  178.2210  139.4330 C   0  0  0  0  0  0  0  0  0  0  0  0
  188.0730  178.0790  137.2410 C   0  0  2  0  0  0  0  0  0  0  0  0
  187.4430  178.4310  138.4480 O   0  0  0  0  0  0  0  0  0  0  0  0
  189.5320  177.7840  138.9970 N   0  0  0  0  0  0  0  0  0  0  0  0
  187.3660  177.0360  136.6160 O   0  0  0  0  0  0  0  0  0  0  0  0
  187.4260  178.2630  135.9280 C   0  0  0  0  0  2  0  0  0  0  0  0
  1  3  1  1  0  0  0
  1  6  1  0  0  0  0
  1  2  1  0  0  0  0
  2  5  1  0  0  0  0
  4  7  1  0  0  0  0
  5  7  1  0  0  0  0
  6  4  2  0  0  0  0
  8 10  1  0  0  0  0
  9  8  2  0  0  0  0
 10 12  1  1  0  0  0
 11 14  1  0  0  0  0
 13 11  2  0  0  0  0
 13  9  1  0  0  0  0
 14  4  1  6  0  0  0
 14 10  1  0  0  0  0
 16 17  1  0  0  0  0
 16 15  2  0  0  0  0
 17 13  1  0  0  0  0
 18 16  1  0  0  0  0
 19  6  1  0  0  0  0
 20 19  1  0  0  0  0
 21 20  1  0  0  0  0
 22 23  1  6  0  0  0
 22 21  1  0  0  0  0
 24 28  1  0  0  0  0
 25 22  1  0  0  0  0
 26 30  1  6  0  0  0
 26 24  1  0  0  0  0
 26 27  1  0  0  0  0
 27 25  1  0  0  0  0
 28 25  2  0  0  0  0
 29 26  1  0  0  0  0
 30 29  1  0  0  0  0
M  END
>  <MODEL>
5

>  <REMARK>
 VINA RESULT:      -8.2      1.724      2.034
  Name = 
  7 active torsions:
  status: ('A' for Active; 'I' for Inactive)
    1  A    between atoms: C_1  and  O_4
    2  A    between atoms: C_1  and  C_5
    3  A    between atoms: O_4  and  C_27
    4  A    between atoms: C_5  and  C_22
    5  A    between atoms: C_8  and  C_27
    6  A    between atoms: N_16  and  C_25
    7  A    between atoms: C_19  and  C_29
                            x       y       z     vdW  Elec       q    Type
                         _______ _______ _______ _____ _____    ______ ____

>  <TORSDO>
F 7

$$$$
=
 OpenBabel11052412243D

 30 33  0  0  1  0  0  0  0  0999 V2000
  191.1640  177.1510  143.1930 C   0  0  2  0  0  3  0  0  0  0  0  0
  191.6350  178.1320  144.2630 C   0  0  0  0  0  2  0  0  0  0  0  0
  191.9060  177.4570  141.9020 C   0  0  0  0  0  1  0  0  0  0  0  0
  188.8540  177.6620  143.9750 C   0  0  0  0  0  0  0  0  0  0  0  0
  190.7780  177.9620  145.5040 C   0  0  0  0  0  2  0  0  0  0  0  0
  189.6600  177.1870  142.9930 C   0  0  0  0  0  0  0  0  0  0  0  0
  189.4080  178.1550  145.1630 O   0  0  0  0  0  0  0  0  0  0  0  0
  185.2030  178.5040  144.8890 C   0  0  0  0  0  3  0  0  0  0  0  0
  184.7660  178.8890  143.6860 C   0  0  0  0  0  3  0  0  0  0  0  0
  186.6620  178.2340  145.1310 C   0  0  1  0  0  3  0  0  0  0  0  0
  186.9160  178.4640  142.6220 C   0  0  0  0  0  3  0  0  0  0  0  0
  186.8360  177.0660  146.4630 Cl  0  0  0  0  0  0  0  0  0  0  0  0
  185.6890  178.9880  142.5320 C   0  0  0  0  0  0  0  0  0  0  0  0
  187.3520  177.7160  143.8570 C   0  0  1  0  0  3  0  0  0  0  0  0
  183.8150  177.9690  140.5110 O   0  0  0  0  0  0  0  0  0  0  0  0
  184.4160  179.0580  140.3140 C   0  0  0  0  0  0  0  0  0  0  0  0
  185.2960  179.6090  141.3020 N   0  0  0  0  0  2  0  0  0  0  0  0
  184.2150  179.7550  139.0920 N   0  0  0  0  0  1  0  0  0  0  0  0
  189.0820  176.5450  141.7640 C   0  0  0  0  0  2  0  0  0  0  0  0
  189.0560  177.5350  140.6170 C   0  0  0  0  0  2  0  0  0  0  0  0
  189.6270  176.9510  139.4870 O   0  0  0  0  0  0  0  0  0  0  0  0
  189.2080  177.7500  138.4220 C   0  0  2  0  0  3  0  0  0  0  0  0
  189.0560  179.0670  138.8570 O   0  0  0  0  0  1  0  0  0  0  0  0
  185.8040  177.2420  137.0730 C   0  0  0  0  0  2  0  0  0  0  0  0
  187.9140  177.2470  137.8770 C   0  0  0  0  0  0  0  0  0  0  0  0
  186.3860  175.8470  137.0790 C   0  0  2  0  0  0  0  0  0  0  0  0
  187.6930  175.9100  137.5920 O   0  0  0  0  0  0  0  0  0  0  0  0
  186.9130  178.0250  137.6080 N   0  0  0  0  0  0  0  0  0  0  0  0
  186.4050  175.3230  135.7750 O   0  0  0  0  0  0  0  0  0  0  0  0
  185.7250  174.5700  136.7500 C   0  0  0  0  0  2  0  0  0  0  0  0
  1  3  1  6  0  0  0
  1  2  1  0  0  0  0
  2  5  1  0  0  0  0
  4  7  1  0  0  0  0
  6  1  1  0  0  0  0
  6  4  2  0  0  0  0
  7  5  1  0  0  0  0
  8 10  1  0  0  0  0
  9  8  2  0  0  0  0
 10 12  1  1  0  0  0
 11 14  1  0  0  0  0
 13 11  2  0  0  0  0
 13  9  1  0  0  0  0
 14  4  1  1  0  0  0
 14 10  1  0  0  0  0
 16 15  2  0  0  0  0
 16 17  1  0  0  0  0
 17 13  1  0  0  0  0
 18 16  1  0  0  0  0
 19  6  1  0  0  0  0
 20 19  1  0  0  0  0
 21 20  1  0  0  0  0
 22 23  1  1  0  0  0
 22 21  1  0  0  0  0
 24 26  1  0  0  0  0
 24 28  1  0  0  0  0
 25 22  1  0  0  0  0
 26 30  1  1  0  0  0
 26 27  1  0  0  0  0
 27 25  1  0  0  0  0
 28 25  2  0  0  0  0
 29 30  1  0  0  0  0
 29 26  1  0  0  0  0
M  END
>  <MODEL>
6

>  <REMARK>
 VINA RESULT:      -7.9      2.396      2.844
  Name = 
  7 active torsions:
  status: ('A' for Active; 'I' for Inactive)
    1  A    between atoms: C_1  and  O_4
    2  A    between atoms: C_1  and  C_5
    3  A    between atoms: O_4  and  C_27
    4  A    between atoms: C_5  and  C_22
    5  A    between atoms: C_8  and  C_27
    6  A    between atoms: N_16  and  C_25
    7  A    between atoms: C_19  and  C_29
                            x       y       z     vdW  Elec       q    Type
                         _______ _______ _______ _____ _____    ______ ____

>  <TORSDO>
F 7

$$$$
=
 OpenBabel11052412243D

 30 33  0  0  1  0  0  0  0  0999 V2000
  188.7960  177.9200  138.9620 C   0  0  2  0  0  3  0  0  0  0  0  0
  187.9280  177.2090  137.9280 C   0  0  0  0  0  2  0  0  0  0  0  0
  189.9680  177.0160  139.3080 C   0  0  0  0  0  1  0  0  0  0  0  0
  186.6660  178.4480  140.1440 C   0  0  0  0  0  0  0  0  0  0  0  0
  186.6600  178.0140  137.7060 C   0  0  0  0  0  2  0  0  0  0  0  0
  188.0150  178.3160  140.2020 C   0  0  0  0  0  0  0  0  0  0  0  0
  185.9840  178.1840  138.9490 O   0  0  0  0  0  0  0  0  0  0  0  0
  183.5680  178.7330  142.4230 C   0  0  0  0  0  3  0  0  0  0  0  0
  184.1540  178.5200  143.6050 C   0  0  0  0  0  3  0  0  0  0  0  0
  184.3270  178.5450  141.1390 C   0  0  1  0  0  3  0  0  0  0  0  0
  186.3690  178.2950  142.6160 C   0  0  0  0  0  3  0  0  0  0  0  0
  183.6220  179.5810  139.8750 Cl  0  0  0  0  0  0  0  0  0  0  0  0
  185.5890  178.1690  143.6950 C   0  0  0  0  0  0  0  0  0  0  0  0
  185.8240  178.8530  141.3260 C   0  0  1  0  0  3  0  0  0  0  0  0
  185.5360  179.4890  146.3210 O   0  0  0  0  0  0  0  0  0  0  0  0
  186.1770  178.4150  146.1730 C   0  0  0  0  0  0  0  0  0  0  0  0
  186.1800  177.7180  144.9210 N   0  0  0  0  0  2  0  0  0  0  0  0
  186.9070  177.8820  147.2700 N   0  0  0  0  0  1  0  0  0  0  0  0
  188.7750  178.7100  141.4360 C   0  0  0  0  0  2  0  0  0  0  0  0
  189.3810  177.4860  142.0930 C   0  0  0  0  0  2  0  0  0  0  0  0
  190.3880  177.8830  142.9730 O   0  0  0  0  0  0  0  0  0  0  0  0
  190.9430  176.6920  143.4400 C   0  0  2  0  0  3  0  0  0  0  0  0
  190.1790  175.6130  142.9950 O   0  0  0  0  0  1  0  0  0  0  0  0
  190.3790  177.0380  147.0780 C   0  0  0  0  0  2  0  0  0  0  0  0
  190.9900  176.6940  144.9320 C   0  0  0  0  0  0  0  0  0  0  0  0
  191.6960  176.3010  146.9990 C   0  0  2  0  0  0  0  0  0  0  0  0
  192.0280  176.1200  145.6460 O   0  0  0  0  0  0  0  0  0  0  0  0
  190.0540  177.2100  145.6650 N   0  0  0  0  0  0  0  0  0  0  0  0
  191.5930  175.0540  147.6410 O   0  0  0  0  0  0  0  0  0  0  0  0
  192.6050  175.9200  148.0970 C   0  0  0  0  0  2  0  0  0  0  0  0
  1  3  1  1  0  0  0
  1  6  1  0  0  0  0
  2  1  1  0  0  0  0
  4  6  2  0  0  0  0
  5  2  1  0  0  0  0
  5  7  1  0  0  0  0
  6 19  1  0  0  0  0
  7  4  1  0  0  0  0
  8  9  2  0  0  0  0
  9 13  1  0  0  0  0
 10 12  1  6  0  0  0
 10 14  1  0  0  0  0
 10  8  1  0  0  0  0
 11 13  2  0  0  0  0
 13 17  1  0  0  0  0
 14  4  1  6  0  0  0
 14 11  1  0  0  0  0
 16 15  2  0  0  0  0
 16 18  1  0  0  0  0
 17 16  1  0  0  0  0
 19 20  1  0  0  0  0
 20 21  1  0  0  0  0
 21 22  1  0  0  0  0
 22 23  1  1  0  0  0
 22 25  1  0  0  0  0
 25 27  1  0  0  0  0
 25 28  2  0  0  0  0
 26 24  1  1  0  0  0
 26 29  1  0  0  0  0
 26 30  1  0  0  0  0
 27 26  1  0  0  0  0
 28 24  1  0  0  0  0
 29 30  1  0  0  0  0
M  END
>  <MODEL>
7

>  <REMARK>
 VINA RESULT:      -7.8      3.044      6.314
  Name = 
  7 active torsions:
  status: ('A' for Active; 'I' for Inactive)
    1  A    between atoms: C_1  and  O_4
    2  A    between atoms: C_1  and  C_5
    3  A    between atoms: O_4  and  C_27
    4  A    between atoms: C_5  and  C_22
    5  A    between atoms: C_8  and  C_27
    6  A    between atoms: N_16  and  C_25
    7  A    between atoms: C_19  and  C_29
                            x       y       z     vdW  Elec       q    Type
                         _______ _______ _______ _____ _____    ______ ____

>  <TORSDO>
F 7

$$$$
=
 OpenBabel11052412243D

 30 33  0  0  1  0  0  0  0  0999 V2000
  184.0590  176.5560  137.6370 C   0  0  2  0  0  3  0  0  0  0  0  0
  183.3990  175.2440  138.0530 C   0  0  0  0  0  2  0  0  0  0  0  0
  185.4440  176.2450  137.0940 C   0  0  0  0  0  1  0  0  0  0  0  0
  183.2650  177.4580  139.8200 C   0  0  0  0  0  0  0  0  0  0  0  0
  182.0930  175.5500  138.7640 C   0  0  0  0  0  2  0  0  0  0  0  0
  184.1200  177.5620  138.7710 C   0  0  0  0  0  0  0  0  0  0  0  0
  182.3480  176.4000  139.8780 O   0  0  0  0  0  0  0  0  0  0  0  0
  181.9370  179.3760  142.8910 C   0  0  0  0  0  3  0  0  0  0  0  0
  183.0190  179.3020  143.6710 C   0  0  0  0  0  3  0  0  0  0  0  0
  181.8590  178.6040  141.6030 C   0  0  1  0  0  3  0  0  0  0  0  0
  184.3050  178.0840  142.0000 C   0  0  0  0  0  3  0  0  0  0  0  0
  180.7610  179.4380  140.4770 Cl  0  0  0  0  0  0  0  0  0  0  0  0
  184.2090  178.5230  143.2590 C   0  0  0  0  0  0  0  0  0  0  0  0
  183.2530  178.4250  140.9750 C   0  0  1  0  0  3  0  0  0  0  0  0
  184.2930  179.0020  146.1570 O   0  0  0  0  0  0  0  0  0  0  0  0
  185.3060  178.5410  145.5700 C   0  0  0  0  0  0  0  0  0  0  0  0
  185.2810  178.2460  144.1680 N   0  0  0  0  0  2  0  0  0  0  0  0
  186.4950  178.3030  146.3120 N   0  0  0  0  0  1  0  0  0  0  0  0
  185.0250  178.7510  138.6310 C   0  0  0  0  0  2  0  0  0  0  0  0
  186.4760  178.3180  138.7010 C   0  0  0  0  0  2  0  0  0  0  0  0
  186.9910  178.6240  139.9610 O   0  0  0  0  0  0  0  0  0  0  0  0
  188.3340  178.2540  139.8970 C   0  0  2  0  0  3  0  0  0  0  0  0
  188.5070  177.2850  138.9070 O   0  0  0  0  0  1  0  0  0  0  0  0
  188.7740  177.1700  143.4040 C   0  0  0  0  0  2  0  0  0  0  0  0
  188.7860  177.7150  141.2130 C   0  0  0  0  0  0  0  0  0  0  0  0
  190.0360  176.6830  142.7290 C   0  0  2  0  0  0  0  0  0  0  0  0
  189.9910  177.0530  141.3740 O   0  0  0  0  0  0  0  0  0  0  0  0
  188.0740  177.8060  142.2920 N   0  0  0  0  0  0  0  0  0  0  0  0
  190.1390  175.2850  142.8430 O   0  0  0  0  0  0  0  0  0  0  0  0
  191.2180  176.0420  143.3370 C   0  0  0  0  0  2  0  0  0  0  0  0
  1  3  1  1  0  0  0
  1  2  1  0  0  0  0
  1  6  1  0  0  0  0
  2  5  1  0  0  0  0
  4  7  1  0  0  0  0
  5  7  1  0  0  0  0
  6  4  2  0  0  0  0
  8  9  2  0  0  0  0
 10 12  1  6  0  0  0
 10  8  1  0  0  0  0
 11 13  2  0  0  0  0
 13  9  1  0  0  0  0
 13 17  1  0  0  0  0
 14  4  1  6  0  0  0
 14 10  1  0  0  0  0
 14 11  1  0  0  0  0
 16 15  2  0  0  0  0
 16 18  1  0  0  0  0
 17 16  1  0  0  0  0
 19 20  1  0  0  0  0
 19  6  1  0  0  0  0
 20 21  1  0  0  0  0
 22 23  1  6  0  0  0
 22 21  1  0  0  0  0
 22 25  1  0  0  0  0
 25 27  1  0  0  0  0
 25 28  2  0  0  0  0
 26 29  1  0  0  0  0
 26 30  1  1  0  0  0
 26 24  1  0  0  0  0
 27 26  1  0  0  0  0
 28 24  1  0  0  0  0
 29 30  1  0  0  0  0
M  END
>  <MODEL>
8

>  <REMARK>
 VINA RESULT:      -7.8      3.618      6.359
  Name = 
  7 active torsions:
  status: ('A' for Active; 'I' for Inactive)
    1  A    between atoms: C_1  and  O_4
    2  A    between atoms: C_1  and  C_5
    3  A    between atoms: O_4  and  C_27
    4  A    between atoms: C_5  and  C_22
    5  A    between atoms: C_8  and  C_27
    6  A    between atoms: N_16  and  C_25
    7  A    between atoms: C_19  and  C_29
                            x       y       z     vdW  Elec       q    Type
                         _______ _______ _______ _____ _____    ______ ____

>  <TORSDO>
F 7

$$$$
=
 OpenBabel11052412243D

 30 33  0  0  1  0  0  0  0  0999 V2000
  188.6270  177.3940  142.6860 C   0  0  2  0  0  3  0  0  0  0  0  0
  188.7540  177.7280  141.2020 C   0  0  0  0  0  2  0  0  0  0  0  0
  189.2720  176.0400  142.9290 C   0  0  0  0  0  1  0  0  0  0  0  0
  186.2520  178.1200  142.4780 C   0  0  0  0  0  0  0  0  0  0  0  0
  187.9580  178.9870  140.9070 C   0  0  0  0  0  2  0  0  0  0  0  0
  187.1880  177.4190  143.1670 C   0  0  0  0  0  0  0  0  0  0  0  0
  186.6030  178.7940  141.3010 O   0  0  0  0  0  0  0  0  0  0  0  0
  182.9920  179.6570  143.8500 C   0  0  0  0  0  3  0  0  0  0  0  0
  182.1330  179.1730  142.9470 C   0  0  0  0  0  3  0  0  0  0  0  0
  184.4750  179.4990  143.6670 C   0  0  1  0  0  3  0  0  0  0  0  0
  183.8730  177.9680  141.7410 C   0  0  0  0  0  3  0  0  0  0  0  0
  185.2740  179.5130  145.2580 Cl  0  0  0  0  0  0  0  0  0  0  0  0
  182.6070  178.3970  141.7790 C   0  0  0  0  0  0  0  0  0  0  0  0
  184.8080  178.2060  142.9000 C   0  0  1  0  0  3  0  0  0  0  0  0
  182.3890  179.7280  139.1680 O   0  0  0  0  0  0  0  0  0  0  0  0
  181.6220  178.7700  139.4480 C   0  0  0  0  0  0  0  0  0  0  0  0
  181.7370  178.0650  140.6890 N   0  0  0  0  0  2  0  0  0  0  0  0
  180.6270  178.3780  138.5110 N   0  0  0  0  0  1  0  0  0  0  0  0
  186.8610  176.7930  144.4910 C   0  0  0  0  0  2  0  0  0  0  0  0
  187.6350  177.4760  145.6010 C   0  0  0  0  0  2  0  0  0  0  0  0
  187.0480  177.1730  146.8300 O   0  0  0  0  0  0  0  0  0  0  0  0
  188.0360  177.4530  147.7750 C   0  0  2  0  0  3  0  0  0  0  0  0
  187.9370  178.7860  148.1740 O   0  0  0  0  0  1  0  0  0  0  0  0
  191.2320  177.4330  145.9160 C   0  0  0  0  0  2  0  0  0  0  0  0
  189.3890  177.1980  147.1990 C   0  0  0  0  0  0  0  0  0  0  0  0
  191.3920  176.2920  146.8950 C   0  0  2  0  0  0  0  0  0  0  0  0
  190.2180  176.1900  147.6610 O   0  0  0  0  0  0  0  0  0  0  0  0
  189.8940  177.9160  146.2450 N   0  0  0  0  0  0  0  0  0  0  0  0
  192.4960  176.5250  147.7360 O   0  0  0  0  0  0  0  0  0  0  0  0
  192.4970  175.3210  147.0060 C   0  0  0  0  0  2  0  0  0  0  0  0
  1  3  1  6  0  0  0
  1  6  1  0  0  0  0
  2  1  1  0  0  0  0
  4  6  2  0  0  0  0
  5  2  1  0  0  0  0
  5  7  1  0  0  0  0
  6 19  1  0  0  0  0
  7  4  1  0  0  0  0
  9  8  2  0  0  0  0
 10  8  1  0  0  0  0
 10 12  1  1  0  0  0
 11 13  2  0  0  0  0
 11 14  1  0  0  0  0
 13  9  1  0  0  0  0
 14  4  1  6  0  0  0
 14 10  1  0  0  0  0
 15 16  2  0  0  0  0
 16 17  1  0  0  0  0
 17 13  1  0  0  0  0
 18 16  1  0  0  0  0
 19 20  1  0  0  0  0
 20 21  1  0  0  0  0
 21 22  1  0  0  0  0
 22 23  1  6  0  0  0
 24 28  1  0  0  0  0
 25 27  1  0  0  0  0
 25 22  1  0  0  0  0
 26 24  1  6  0  0  0
 26 30  1  0  0  0  0
 26 27  1  0  0  0  0
 26 29  1  0  0  0  0
 28 25  2  0  0  0  0
 30 29  1  0  0  0  0
M  END
>  <MODEL>
9

>  <REMARK>
 VINA RESULT:      -7.6      3.032      5.902
  Name = 
  7 active torsions:
  status: ('A' for Active; 'I' for Inactive)
    1  A    between atoms: C_1  and  O_4
    2  A    between atoms: C_1  and  C_5
    3  A    between atoms: O_4  and  C_27
    4  A    between atoms: C_5  and  C_22
    5  A    between atoms: C_8  and  C_27
    6  A    between atoms: N_16  and  C_25
    7  A    between atoms: C_19  and  C_29
                            x       y       z     vdW  Elec       q    Type
                         _______ _______ _______ _____ _____    ______ ____

>  <TORSDO>
F 7

$$$$
