=
 OpenBabel11052415143D

 37 42  0  0  1  0  0  0  0  0999 V2000
  185.8900  180.0880  142.2210 O   0  0  0  0  0  1  0  0  0  0  0  0
  190.9640  177.0170  141.0890 C   0  0  0  0  0  2  0  0  0  0  0  0
  187.1670  177.9880  138.7990 C   0  0  0  0  0  0  0  0  0  0  0  0
  184.0830  179.6090  139.8480 C   0  0  0  0  0  2  0  0  0  0  0  0
  189.7700  177.8730  139.0490 C   0  0  2  0  0  3  0  0  0  0  0  0
  186.1360  178.1560  139.7200 C   0  0  0  0  0  0  0  0  0  0  0  0
  188.3470  177.9740  139.5430 C   0  0  0  0  0  0  0  0  0  0  0  0
  184.6610  178.2700  139.4290 C   0  0  1  0  0  0  0  0  0  0  0  0
  189.8310  177.7500  137.6610 O   0  0  0  0  0  1  0  0  0  0  0  0
  187.9860  178.1530  140.8710 C   0  0  0  0  0  0  0  0  0  0  0  0
  188.3570  178.4830  143.2330 O   0  0  0  0  0  1  0  0  0  0  0  0
  185.8250  177.4020  136.7280 C   0  0  0  0  0  2  0  0  0  0  0  0
  187.1550  179.3940  136.8780 O   0  0  0  0  0  1  0  0  0  0  0  0
  188.9810  178.2620  142.0050 C   0  0  1  0  0  3  0  0  0  0  0  0
  183.7070  178.3440  140.6220 C   0  0  1  0  0  3  0  0  0  0  0  0
  187.0750  178.0650  137.2980 C   0  0  1  0  0  3  0  0  0  0  0  0
  186.6400  178.2700  140.9650 N   0  0  0  0  0  0  0  0  0  0  0  0
  190.4760  176.6850  139.6860 C   0  0  0  0  0  2  0  0  0  0  0  0
  184.1280  177.5990  138.1330 C   0  0  2  0  0  3  0  0  0  0  0  0
  189.8270  177.0010  142.1030 C   0  0  0  0  0  2  0  0  0  0  0  0
  184.4060  178.1830  141.9920 C   0  0  1  0  0  3  0  0  0  0  0  0
  185.8540  178.6950  142.1170 C   0  0  2  0  0  3  0  0  0  0  0  0
  184.6910  178.1750  136.9940 O   0  0  0  0  0  0  0  0  0  0  0  0
  182.2310  178.1580  136.7830 C   0  0  0  0  0  2  0  0  0  0  0  0
  182.6740  177.4070  137.9670 N   0  0  1  0  0  0  0  0  0  0  0  0
  182.2720  175.9850  137.9400 C   0  0  1  0  0  3  0  0  0  0  0  0
  182.1950  175.4400  139.3560 C   0  0  0  0  0  1  0  0  0  0  0  0
  180.1670  176.9900  137.3640 O   0  0  0  0  0  0  0  0  0  0  0  0
  180.9050  175.8000  137.2730 C   0  0  0  0  0  2  0  0  0  0  0  0
  180.7550  177.8820  136.4480 C   0  0  0  0  0  2  0  0  0  0  0  0
  183.4780  178.5160  143.1690 C   0  0  2  0  0  3  0  0  0  0  0  0
  182.1100  178.9930  142.7010 C   0  0  0  0  0  2  0  0  0  0  0  0
  181.0550  178.6860  143.7470 C   0  0  0  0  0  1  0  0  0  0  0  0
  184.1100  179.5390  144.1070 C   0  0  0  0  0  2  0  0  0  0  0  0
  184.1100  179.0570  145.4170 O   0  0  0  0  0  0  0  0  0  0  0  0
  186.0860  177.7860  145.7850 C   0  0  0  0  0  1  0  0  0  0  0  0
  185.4400  179.1570  145.8230 C   0  0  0  0  0  2  0  0  0  0  0  0
  2 20  1  0  0  0  0
  3  7  1  0  0  0  0
  3  6  2  0  0  0  0
  5  9  1  6  0  0  0
  5  7  1  0  0  0  0
  5 18  1  0  0  0  0
  6 17  1  0  0  0  0
  7 10  2  0  0  0  0
  8  6  1  0  0  0  0
  8  4  1  6  0  0  0
  8 15  1  0  0  0  0
 10 17  1  0  0  0  0
 10 14  1  0  0  0  0
 12 23  1  0  0  0  0
 12 16  1  0  0  0  0
 14 20  1  0  0  0  0
 14 11  1  1  0  0  0
 15  4  1  1  0  0  0
 15 21  1  0  0  0  0
 16 13  1  1  0  0  0
 16  3  1  0  0  0  0
 17 22  1  0  0  0  0
 18  2  1  0  0  0  0
 19 23  1  6  0  0  0
 19  8  1  0  0  0  0
 21 22  1  0  0  0  0
 21 31  1  1  0  0  0
 22  1  1  6  0  0  0
 25 24  1  6  0  0  0
 25 19  1  0  0  0  0
 26 25  1  0  0  0  0
 26 27  1  1  0  0  0
 29 28  1  0  0  0  0
 29 26  1  0  0  0  0
 30 24  1  0  0  0  0
 30 28  1  0  0  0  0
 31 32  1  6  0  0  0
 31 34  1  0  0  0  0
 32 33  1  0  0  0  0
 34 35  1  0  0  0  0
 35 37  1  0  0  0  0
 36 37  1  0  0  0  0
M  END
>  <MODEL>
1

>  <REMARK>
 VINA RESULT:      -7.5      0.000      0.000
  Name = 
  6 active torsions:
  status: ('A' for Active; 'I' for Inactive)
    1  A    between atoms: O_5  and  C_17
    2  A    between atoms: O_5  and  C_23
    3  A    between atoms: N_6  and  C_31
    4  A    between atoms: C_11  and  C_26
    5  A    between atoms: C_17  and  C_26
    6  A    between atoms: C_26  and  C_33
                            x       y       z     vdW  Elec       q    Type
                         _______ _______ _______ _____ _____    ______ ____

>  <TORSDO>
F 6

$$$$
=
 OpenBabel11052415143D

 37 42  0  0  1  0  0  0  0  0999 V2000
  186.2780  180.1890  141.5390 O   0  0  0  0  0  1  0  0  0  0  0  0
  191.0530  176.7230  140.2570 C   0  0  0  0  0  2  0  0  0  0  0  0
  187.1300  177.7450  138.2160 C   0  0  0  0  0  0  0  0  0  0  0  0
  184.2460  179.6370  139.3740 C   0  0  0  0  0  2  0  0  0  0  0  0
  189.7340  177.4850  138.2580 C   0  0  2  0  0  3  0  0  0  0  0  0
  186.1950  178.0510  139.2010 C   0  0  0  0  0  0  0  0  0  0  0  0
  188.3670  177.7160  138.8570 C   0  0  0  0  0  0  0  0  0  0  0  0
  184.7080  178.2350  139.0250 C   0  0  1  0  0  0  0  0  0  0  0  0
  189.6660  177.2480  136.8850 O   0  0  0  0  0  1  0  0  0  0  0  0
  188.1350  178.0240  140.1900 C   0  0  0  0  0  0  0  0  0  0  0  0
  188.7310  178.5180  142.4760 O   0  0  0  0  0  1  0  0  0  0  0  0
  185.5810  177.0800  136.3200 C   0  0  0  0  0  2  0  0  0  0  0  0
  187.0280  178.9900  136.1890 O   0  0  0  0  0  1  0  0  0  0  0  0
  189.2310  178.1600  141.2250 C   0  0  1  0  0  3  0  0  0  0  0  0
  183.8690  178.4640  140.2820 C   0  0  1  0  0  3  0  0  0  0  0  0
  186.9110  177.7060  136.7260 C   0  0  1  0  0  3  0  0  0  0  0  0
  186.8120  178.2320  140.3850 N   0  0  0  0  0  0  0  0  0  0  0  0
  190.4260  176.3100  138.9330 C   0  0  0  0  0  2  0  0  0  0  0  0
  184.0270  177.4960  137.8400 C   0  0  2  0  0  3  0  0  0  0  0  0
  190.0100  176.8600  141.3590 C   0  0  0  0  0  2  0  0  0  0  0  0
  184.6760  178.3700  141.5970 C   0  0  1  0  0  3  0  0  0  0  0  0
  186.1560  178.7970  141.5590 C   0  0  2  0  0  3  0  0  0  0  0  0
  184.5190  177.9430  136.6130 O   0  0  0  0  0  0  0  0  0  0  0  0
  182.0490  178.1080  136.6350 C   0  0  0  0  0  2  0  0  0  0  0  0
  182.5560  177.3840  137.8110 N   0  0  1  0  0  0  0  0  0  0  0  0
  182.0750  175.9890  137.8900 C   0  0  1  0  0  3  0  0  0  0  0  0
  182.0960  175.5120  139.3320 C   0  0  0  0  0  1  0  0  0  0  0  0
  179.9850  177.0910  137.4520 O   0  0  0  0  0  0  0  0  0  0  0  0
  180.6450  175.8560  137.3550 C   0  0  0  0  0  2  0  0  0  0  0  0
  180.5360  177.9060  136.4460 C   0  0  0  0  0  2  0  0  0  0  0  0
  183.8750  178.8540  142.8150 C   0  0  2  0  0  3  0  0  0  0  0  0
  184.3390  178.1890  144.1040 C   0  0  0  0  0  2  0  0  0  0  0  0
  184.9350  179.2180  145.0460 C   0  0  0  0  0  1  0  0  0  0  0  0
  182.3770  178.6500  142.6160 C   0  0  0  0  0  2  0  0  0  0  0  0
  181.6790  179.7970  142.9960 O   0  0  0  0  0  0  0  0  0  0  0  0
  180.1230  178.2940  143.9840 C   0  0  0  0  0  1  0  0  0  0  0  0
  180.3390  179.4100  142.9810 C   0  0  0  0  0  2  0  0  0  0  0  0
  2 20  1  0  0  0  0
  3  7  1  0  0  0  0
  3  6  2  0  0  0  0
  5  9  1  6  0  0  0
  5  7  1  0  0  0  0
  5 18  1  0  0  0  0
  6 17  1  0  0  0  0
  7 10  2  0  0  0  0
  8  6  1  0  0  0  0
  8  4  1  6  0  0  0
  8 15  1  0  0  0  0
 10 17  1  0  0  0  0
 10 14  1  0  0  0  0
 12 23  1  0  0  0  0
 12 16  1  0  0  0  0
 14 20  1  0  0  0  0
 14 11  1  1  0  0  0
 15  4  1  6  0  0  0
 15 21  1  0  0  0  0
 16 13  1  1  0  0  0
 16  3  1  0  0  0  0
 17 22  1  0  0  0  0
 18  2  1  0  0  0  0
 19 23  1  6  0  0  0
 19  8  1  0  0  0  0
 21 31  1  1  0  0  0
 22  1  1  6  0  0  0
 22 21  1  0  0  0  0
 25 24  1  6  0  0  0
 25 19  1  0  0  0  0
 25 26  1  0  0  0  0
 26 27  1  1  0  0  0
 29 28  1  0  0  0  0
 29 26  1  0  0  0  0
 30 24  1  0  0  0  0
 30 28  1  0  0  0  0
 31 34  1  6  0  0  0
 31 32  1  0  0  0  0
 32 33  1  0  0  0  0
 34 35  1  0  0  0  0
 37 35  1  0  0  0  0
 37 36  1  0  0  0  0
M  END
>  <MODEL>
2

>  <REMARK>
 VINA RESULT:      -6.8      0.924      1.859
  Name = 
  6 active torsions:
  status: ('A' for Active; 'I' for Inactive)
    1  A    between atoms: O_5  and  C_17
    2  A    between atoms: O_5  and  C_23
    3  A    between atoms: N_6  and  C_31
    4  A    between atoms: C_11  and  C_26
    5  A    between atoms: C_17  and  C_26
    6  A    between atoms: C_26  and  C_33
                            x       y       z     vdW  Elec       q    Type
                         _______ _______ _______ _____ _____    ______ ____

>  <TORSDO>
F 6

$$$$
=
 OpenBabel11052415143D

 37 42  0  0  1  0  0  0  0  0999 V2000
  189.3250  179.0270  138.4240 O   0  0  0  0  0  1  0  0  0  0  0  0
  185.2930  176.0480  135.0570 C   0  0  0  0  0  2  0  0  0  0  0  0
  185.2550  178.1590  139.0760 C   0  0  0  0  0  0  0  0  0  0  0  0
  187.9450  179.6140  141.0460 C   0  0  0  0  0  2  0  0  0  0  0  0
  184.3050  177.6920  136.6820 C   0  0  2  0  0  3  0  0  0  0  0  0
  186.5380  178.0950  139.6120 C   0  0  0  0  0  0  0  0  0  0  0  0
  185.3740  177.7590  137.7460 C   0  0  0  0  0  0  0  0  0  0  0  0
  186.9630  178.4580  141.0130 C   0  0  1  0  0  0  0  0  0  0  0  0
  183.0550  178.0650  137.1770 O   0  0  0  0  0  1  0  0  0  0  0  0
  186.7180  177.4910  137.5270 C   0  0  0  0  0  0  0  0  0  0  0  0
  188.6710  176.9190  136.2290 O   0  0  0  0  0  1  0  0  0  0  0  0
  183.9010  178.4900  141.1950 C   0  0  0  0  0  2  0  0  0  0  0  0
  184.0070  180.1490  139.4650 O   0  0  0  0  0  1  0  0  0  0  0  0
  187.2870  177.0860  136.1850 C   0  0  1  0  0  3  0  0  0  0  0  0
  188.4190  178.2020  141.4000 C   0  0  1  0  0  3  0  0  0  0  0  0
  184.0300  178.7740  139.7020 C   0  0  1  0  0  3  0  0  0  0  0  0
  187.4160  177.7060  138.6660 N   0  0  0  0  0  0  0  0  0  0  0  0
  184.2110  176.2890  136.1010 C   0  0  0  0  0  2  0  0  0  0  0  0
  185.8980  178.3510  142.1390 C   0  0  2  0  0  3  0  0  0  0  0  0
  186.6510  175.7910  135.6990 C   0  0  0  0  0  2  0  0  0  0  0  0
  189.2430  177.4940  140.3010 C   0  0  1  0  0  3  0  0  0  0  0  0
  188.8640  177.7730  138.8340 C   0  0  2  0  0  3  0  0  0  0  0  0
  184.8380  179.2320  141.9220 O   0  0  0  0  0  0  0  0  0  0  0  0
  185.4110  179.2390  144.3090 C   0  0  0  0  0  2  0  0  0  0  0  0
  186.3340  178.3830  143.5480 N   0  0  1  0  0  0  0  0  0  0  0  0
  186.5030  177.0380  144.1380 C   0  0  1  0  0  3  0  0  0  0  0  0
  187.8430  176.4550  143.7230 C   0  0  0  0  0  1  0  0  0  0  0  0
  186.7990  178.3670  146.1180 O   0  0  0  0  0  0  0  0  0  0  0  0
  186.4460  177.0850  145.6680 C   0  0  0  0  0  2  0  0  0  0  0  0
  185.7040  179.1980  145.8190 C   0  0  0  0  0  2  0  0  0  0  0  0
  190.7480  177.4800  140.6080 C   0  0  2  0  0  3  0  0  0  0  0  0
  191.5470  176.7820  139.5160 C   0  0  0  0  0  2  0  0  0  0  0  0
  192.9980  177.2230  139.5590 C   0  0  0  0  0  1  0  0  0  0  0  0
  191.0350  176.8510  141.9680 C   0  0  0  0  0  2  0  0  0  0  0  0
  191.9740  177.6140  142.6640 O   0  0  0  0  0  0  0  0  0  0  0  0
  190.9310  179.2410  144.0490 C   0  0  0  0  0  1  0  0  0  0  0  0
  191.4030  177.8060  143.9210 C   0  0  0  0  0  2  0  0  0  0  0  0
  2 20  1  0  0  0  0
  2 18  1  0  0  0  0
  3  6  2  0  0  0  0
  3 16  1  0  0  0  0
  5  9  1  1  0  0  0
  5  7  1  0  0  0  0
  6  8  1  0  0  0  0
  7  3  1  0  0  0  0
  8  4  1  6  0  0  0
  8 15  1  0  0  0  0
  8 19  1  0  0  0  0
 10  7  2  0  0  0  0
 10 17  1  0  0  0  0
 12 23  1  0  0  0  0
 14 11  1  1  0  0  0
 14 10  1  0  0  0  0
 15  4  1  6  0  0  0
 16 13  1  1  0  0  0
 16 12  1  0  0  0  0
 17 22  1  0  0  0  0
 17  6  1  0  0  0  0
 18  5  1  0  0  0  0
 19 23  1  1  0  0  0
 19 25  1  0  0  0  0
 20 14  1  0  0  0  0
 21 31  1  6  0  0  0
 21 15  1  0  0  0  0
 22  1  1  1  0  0  0
 22 21  1  0  0  0  0
 24 30  1  0  0  0  0
 25 26  1  0  0  0  0
 25 24  1  1  0  0  0
 26 27  1  1  0  0  0
 26 29  1  0  0  0  0
 29 28  1  0  0  0  0
 30 28  1  0  0  0  0
 31 32  1  6  0  0  0
 31 34  1  0  0  0  0
 32 33  1  0  0  0  0
 34 35  1  0  0  0  0
 35 37  1  0  0  0  0
 37 36  1  0  0  0  0
M  END
>  <MODEL>
3

>  <REMARK>
 VINA RESULT:      -6.6      2.107      6.770
  Name = 
  6 active torsions:
  status: ('A' for Active; 'I' for Inactive)
    1  A    between atoms: O_5  and  C_17
    2  A    between atoms: O_5  and  C_23
    3  A    between atoms: N_6  and  C_31
    4  A    between atoms: C_11  and  C_26
    5  A    between atoms: C_17  and  C_26
    6  A    between atoms: C_26  and  C_33
                            x       y       z     vdW  Elec       q    Type
                         _______ _______ _______ _____ _____    ______ ____

>  <TORSDO>
F 6

$$$$
=
 OpenBabel11052415143D

 37 42  0  0  1  0  0  0  0  0999 V2000
  191.1190  178.0520  140.6450 O   0  0  0  0  0  1  0  0  0  0  0  0
  191.2940  175.1560  135.3490 C   0  0  0  0  0  2  0  0  0  0  0  0
  188.2360  177.6440  137.6000 C   0  0  0  0  0  0  0  0  0  0  0  0
  188.2760  179.0210  140.9680 C   0  0  0  0  0  2  0  0  0  0  0  0
  189.6310  177.0370  135.4700 C   0  0  2  0  0  3  0  0  0  0  0  0
  188.4870  177.5100  138.9630 C   0  0  0  0  0  0  0  0  0  0  0  0
  189.3470  177.1060  136.9510 C   0  0  0  0  0  0  0  0  0  0  0  0
  187.6110  177.9670  140.1030 C   0  0  1  0  0  0  0  0  0  0  0  0
  188.5880  177.5740  134.7150 O   0  0  0  0  0  1  0  0  0  0  0  0
  190.2270  176.6910  137.9400 C   0  0  0  0  0  0  0  0  0  0  0  0
  192.2920  175.8110  138.8300 O   0  0  0  0  0  1  0  0  0  0  0  0
  185.7890  178.3080  137.6590 C   0  0  0  0  0  2  0  0  0  0  0  0
  187.5000  179.7720  136.8280 O   0  0  0  0  0  1  0  0  0  0  0  0
  191.5930  176.1040  137.6590 C   0  0  1  0  0  3  0  0  0  0  0  0
  188.0540  177.6120  141.5230 C   0  0  1  0  0  3  0  0  0  0  0  0
  187.1310  178.4310  136.9450 C   0  0  1  0  0  3  0  0  0  0  0  0
  189.6970  176.9490  139.1590 N   0  0  0  0  0  0  0  0  0  0  0  0
  189.8720  175.5990  135.0340 C   0  0  0  0  0  2  0  0  0  0  0  0
  186.0840  178.0720  139.8390 C   0  0  2  0  0  3  0  0  0  0  0  0
  191.4730  174.8340  136.8280 C   0  0  0  0  0  2  0  0  0  0  0  0
  189.3180  176.7240  141.5790 C   0  0  1  0  0  3  0  0  0  0  0  0
  190.3600  176.8940  140.4570 C   0  0  2  0  0  3  0  0  0  0  0  0
  185.8020  179.0250  138.8600 O   0  0  0  0  0  0  0  0  0  0  0  0
  185.6400  179.2840  141.8570 C   0  0  0  0  0  2  0  0  0  0  0  0
  185.1620  178.2010  140.9840 N   0  0  1  0  0  0  0  0  0  0  0  0
  183.7490  178.3560  140.5820 C   0  0  1  0  0  3  0  0  0  0  0  0
  183.1540  177.0010  140.2390 C   0  0  0  0  0  1  0  0  0  0  0  0
  183.5210  178.7440  142.9420 O   0  0  0  0  0  0  0  0  0  0  0  0
  182.9120  178.9850  141.7010 C   0  0  0  0  0  2  0  0  0  0  0  0
  184.6470  179.5860  142.9920 C   0  0  0  0  0  2  0  0  0  0  0  0
  189.8850  176.5980  143.0010 C   0  0  2  0  0  3  0  0  0  0  0  0
  190.6840  175.3140  143.1840 C   0  0  0  0  0  2  0  0  0  0  0  0
  191.8220  175.5350  144.1630 C   0  0  0  0  0  1  0  0  0  0  0  0
  188.7860  176.6990  144.0530 C   0  0  0  0  0  2  0  0  0  0  0  0
  189.0930  177.6970  144.9780 O   0  0  0  0  0  0  0  0  0  0  0  0
  186.7440  177.5780  145.3260 C   0  0  0  0  0  1  0  0  0  0  0  0
  188.1180  177.5680  145.9660 C   0  0  0  0  0  2  0  0  0  0  0  0
  2 20  1  0  0  0  0
  3  6  2  0  0  0  0
  5  9  1  6  0  0  0
  5  7  1  0  0  0  0
  6 17  1  0  0  0  0
  6  8  1  0  0  0  0
  7  3  1  0  0  0  0
  7 10  2  0  0  0  0
  8  4  1  6  0  0  0
  8 15  1  0  0  0  0
 10 17  1  0  0  0  0
 12 23  1  0  0  0  0
 14 10  1  0  0  0  0
 14 11  1  1  0  0  0
 15  4  1  1  0  0  0
 15 21  1  0  0  0  0
 16 13  1  1  0  0  0
 16  3  1  0  0  0  0
 16 12  1  0  0  0  0
 17 22  1  0  0  0  0
 18  2  1  0  0  0  0
 18  5  1  0  0  0  0
 19 23  1  6  0  0  0
 19  8  1  0  0  0  0
 19 25  1  0  0  0  0
 20 14  1  0  0  0  0
 21 31  1  1  0  0  0
 22  1  1  1  0  0  0
 22 21  1  0  0  0  0
 24 30  1  0  0  0  0
 25 24  1  6  0  0  0
 26 27  1  1  0  0  0
 26 25  1  0  0  0  0
 26 29  1  0  0  0  0
 28 30  1  0  0  0  0
 29 28  1  0  0  0  0
 31 32  1  6  0  0  0
 31 34  1  0  0  0  0
 32 33  1  0  0  0  0
 34 35  1  0  0  0  0
 35 37  1  0  0  0  0
 36 37  1  0  0  0  0
M  END
>  <MODEL>
4

>  <REMARK>
 VINA RESULT:      -6.4      2.276      5.007
  Name = 
  6 active torsions:
  status: ('A' for Active; 'I' for Inactive)
    1  A    between atoms: O_5  and  C_17
    2  A    between atoms: O_5  and  C_23
    3  A    between atoms: N_6  and  C_31
    4  A    between atoms: C_11  and  C_26
    5  A    between atoms: C_17  and  C_26
    6  A    between atoms: C_26  and  C_33
                            x       y       z     vdW  Elec       q    Type
                         _______ _______ _______ _____ _____    ______ ____

>  <TORSDO>
F 6

$$$$
=
 OpenBabel11052415143D

 37 42  0  0  1  0  0  0  0  0999 V2000
  184.9010  179.9380  139.2730 O   0  0  0  0  0  1  0  0  0  0  0  0
  179.9460  176.5550  138.5910 C   0  0  0  0  0  2  0  0  0  0  0  0
  182.1860  178.3790  142.0920 C   0  0  0  0  0  0  0  0  0  0  0  0
  185.3730  180.1290  142.2510 C   0  0  0  0  0  2  0  0  0  0  0  0
  180.0160  177.9130  140.7060 C   0  0  2  0  0  3  0  0  0  0  0  0
  183.5280  178.4920  141.7370 C   0  0  0  0  0  0  0  0  0  0  0  0
  181.5010  178.0870  140.9140 C   0  0  0  0  0  0  0  0  0  0  0  0
  184.6870  178.8330  142.6410 C   0  0  1  0  0  0  0  0  0  0  0  0
  179.3050  178.0450  141.8990 O   0  0  0  0  0  1  0  0  0  0  0  0
  182.4460  178.0560  139.8980 C   0  0  0  0  0  0  0  0  0  0  0  0
  183.2350  177.8910  137.6230 O   0  0  0  0  0  1  0  0  0  0  0  0
  182.3930  178.3540  144.6200 C   0  0  0  0  0  2  0  0  0  0  0  0
  181.2630  180.1110  143.4400 O   0  0  0  0  0  1  0  0  0  0  0  0
  182.1070  177.8320  138.4400 C   0  0  1  0  0  3  0  0  0  0  0  0
  186.0910  178.7940  142.0370 C   0  0  1  0  0  3  0  0  0  0  0  0
  181.5530  178.7460  143.4090 C   0  0  1  0  0  3  0  0  0  0  0  0
  183.6730  178.3110  140.4100 N   0  0  0  0  0  0  0  0  0  0  0  0
  179.7140  176.5520  140.0960 C   0  0  0  0  0  2  0  0  0  0  0  0
  184.5510  178.4840  144.1490 C   0  0  2  0  0  3  0  0  0  0  0  0
  181.4280  176.4840  138.2460 C   0  0  0  0  0  2  0  0  0  0  0  0
  186.1280  178.2990  140.5730 C   0  0  1  0  0  3  0  0  0  0  0  0
  184.9050  178.6030  139.6860 C   0  0  2  0  0  3  0  0  0  0  0  0
  183.5060  179.1930  144.7420 O   0  0  0  0  0  0  0  0  0  0  0  0
  185.4230  179.1610  146.2740 C   0  0  0  0  0  2  0  0  0  0  0  0
  185.7540  178.5000  145.0030 N   0  0  1  0  0  0  0  0  0  0  0  0
  186.3620  177.1640  145.1810 C   0  0  1  0  0  3  0  0  0  0  0  0
  187.2100  176.8130  143.9700 C   0  0  0  0  0  1  0  0  0  0  0  0
  187.6950  178.4050  146.7480 O   0  0  0  0  0  0  0  0  0  0  0  0
  187.2500  177.1130  146.4280 C   0  0  0  0  0  2  0  0  0  0  0  0
  186.5820  179.0780  147.2820 C   0  0  0  0  0  2  0  0  0  0  0  0
  187.4980  178.5120  139.9140 C   0  0  2  0  0  3  0  0  0  0  0  0
  187.6650  177.6670  138.6570 C   0  0  0  0  0  2  0  0  0  0  0  0
  188.5570  178.3770  137.6570 C   0  0  0  0  0  1  0  0  0  0  0  0
  188.6370  178.2460  140.8920 C   0  0  0  0  0  2  0  0  0  0  0  0
  188.9760  176.8920  140.8820 O   0  0  0  0  0  0  0  0  0  0  0  0
  191.1940  177.3110  140.1360 C   0  0  0  0  0  1  0  0  0  0  0  0
  190.3110  176.8650  141.2840 C   0  0  0  0  0  2  0  0  0  0  0  0
  2 18  1  0  0  0  0
  3 16  1  0  0  0  0
  5  7  1  0  0  0  0
  5  9  1  1  0  0  0
  6  3  2  0  0  0  0
  6  8  1  0  0  0  0
  7  3  1  0  0  0  0
  8  4  1  1  0  0  0
  8 19  1  0  0  0  0
 10 17  1  0  0  0  0
 10  7  2  0  0  0  0
 12 23  1  0  0  0  0
 14 11  1  6  0  0  0
 14 10  1  0  0  0  0
 15  4  1  6  0  0  0
 15  8  1  0  0  0  0
 16 13  1  6  0  0  0
 16 12  1  0  0  0  0
 17  6  1  0  0  0  0
 18  5  1  0  0  0  0
 19 23  1  1  0  0  0
 19 25  1  0  0  0  0
 20 14  1  0  0  0  0
 20  2  1  0  0  0  0
 21 31  1  6  0  0  0
 21 15  1  0  0  0  0
 22  1  1  1  0  0  0
 22 17  1  0  0  0  0
 22 21  1  0  0  0  0
 24 30  1  0  0  0  0
 25 26  1  0  0  0  0
 25 24  1  1  0  0  0
 26 27  1  6  0  0  0
 26 29  1  0  0  0  0
 28 30  1  0  0  0  0
 29 28  1  0  0  0  0
 31 32  1  6  0  0  0
 31 34  1  0  0  0  0
 33 32  1  0  0  0  0
 35 34  1  0  0  0  0
 35 37  1  0  0  0  0
 36 37  1  0  0  0  0
M  END
>  <MODEL>
5

>  <REMARK>
 VINA RESULT:      -6.3      2.034      7.787
  Name = 
  6 active torsions:
  status: ('A' for Active; 'I' for Inactive)
    1  A    between atoms: O_5  and  C_17
    2  A    between atoms: O_5  and  C_23
    3  A    between atoms: N_6  and  C_31
    4  A    between atoms: C_11  and  C_26
    5  A    between atoms: C_17  and  C_26
    6  A    between atoms: C_26  and  C_33
                            x       y       z     vdW  Elec       q    Type
                         _______ _______ _______ _____ _____    ______ ____

>  <TORSDO>
F 6

$$$$
=
 OpenBabel11052415143D

 37 42  0  0  1  0  0  0  0  0999 V2000
  189.0330  179.3150  142.0730 O   0  0  0  0  0  1  0  0  0  0  0  0
  191.8170  176.3200  137.6300 C   0  0  0  0  0  2  0  0  0  0  0  0
  187.6350  177.9350  138.3470 C   0  0  0  0  0  0  0  0  0  0  0  0
  186.1180  179.4390  141.2910 C   0  0  0  0  0  2  0  0  0  0  0  0
  189.8050  177.6460  136.9120 C   0  0  2  0  0  3  0  0  0  0  0  0
  187.4060  177.9510  139.7200 C   0  0  0  0  0  0  0  0  0  0  0  0
  189.0020  177.7070  138.1890 C   0  0  0  0  0  0  0  0  0  0  0  0
  186.0950  178.1950  140.4240 C   0  0  1  0  0  0  0  0  0  0  0  0
  189.0030  177.8190  135.7840 O   0  0  0  0  0  1  0  0  0  0  0  0
  189.5430  177.6160  139.4630 C   0  0  0  0  0  0  0  0  0  0  0  0
  191.3010  177.4160  141.1050 O   0  0  0  0  0  1  0  0  0  0  0  0
  185.2470  177.8680  137.4950 C   0  0  0  0  0  2  0  0  0  0  0  0
  186.7140  179.7170  137.0640 O   0  0  0  0  0  1  0  0  0  0  0  0
  191.0190  177.4330  139.7390 C   0  0  1  0  0  3  0  0  0  0  0  0
  186.0730  178.0570  141.9470 C   0  0  1  0  0  3  0  0  0  0  0  0
  186.6790  178.3350  137.2530 C   0  0  1  0  0  3  0  0  0  0  0  0
  188.5640  177.7730  140.3850 N   0  0  0  0  0  0  0  0  0  0  0  0
  190.5390  176.3180  136.8010 C   0  0  0  0  0  2  0  0  0  0  0  0
  184.7900  177.8410  139.6590 C   0  0  2  0  0  3  0  0  0  0  0  0
  191.5280  176.1410  139.1160 C   0  0  0  0  0  2  0  0  0  0  0  0
  187.4120  177.5750  142.5500 C   0  0  1  0  0  3  0  0  0  0  0  0
  188.7090  177.9790  141.8220 C   0  0  2  0  0  3  0  0  0  0  0  0
  184.6470  178.6200  138.5110 O   0  0  0  0  0  0  0  0  0  0  0  0
  183.2360  179.0700  141.0060 C   0  0  0  0  0  2  0  0  0  0  0  0
  183.5180  177.7580  140.4040 N   0  0  1  0  0  0  0  0  0  0  0  0
  182.3990  177.2360  139.5920 C   0  0  1  0  0  3  0  0  0  0  0  0
  182.4710  175.7200  139.5220 C   0  0  0  0  0  1  0  0  0  0  0  0
  181.1790  177.8780  141.5600 O   0  0  0  0  0  0  0  0  0  0  0  0
  181.0430  177.6310  140.1860 C   0  0  0  0  0  2  0  0  0  0  0  0
  181.8480  179.1100  141.6680 C   0  0  0  0  0  2  0  0  0  0  0  0
  187.4450  177.6920  144.0810 C   0  0  2  0  0  3  0  0  0  0  0  0
  188.4670  176.7510  144.7040 C   0  0  0  0  0  2  0  0  0  0  0  0
  189.5010  177.5370  145.4880 C   0  0  0  0  0  1  0  0  0  0  0  0
  186.0650  177.4620  144.6890 C   0  0  0  0  0  2  0  0  0  0  0  0
  186.0620  177.8330  146.0340 O   0  0  0  0  0  0  0  0  0  0  0  0
  184.1910  178.9820  145.1210 C   0  0  0  0  0  1  0  0  0  0  0  0
  185.3820  179.0500  146.0570 C   0  0  0  0  0  2  0  0  0  0  0  0
  2 20  1  0  0  0  0
  3  6  2  0  0  0  0
  5  9  1  6  0  0  0
  5  7  1  0  0  0  0
  6 17  1  0  0  0  0
  6  8  1  0  0  0  0
  7  3  1  0  0  0  0
  7 10  2  0  0  0  0
  8  4  1  6  0  0  0
  8 15  1  0  0  0  0
 10 14  1  0  0  0  0
 10 17  1  0  0  0  0
 12 23  1  0  0  0  0
 14 11  1  1  0  0  0
 15  4  1  1  0  0  0
 15 21  1  0  0  0  0
 16 13  1  1  0  0  0
 16 12  1  0  0  0  0
 16  3  1  0  0  0  0
 17 22  1  0  0  0  0
 18  5  1  0  0  0  0
 18  2  1  0  0  0  0
 19 23  1  6  0  0  0
 19 25  1  0  0  0  0
 19  8  1  0  0  0  0
 20 14  1  0  0  0  0
 21 31  1  1  0  0  0
 22  1  1  6  0  0  0
 22 21  1  0  0  0  0
 24 30  1  0  0  0  0
 25 24  1  6  0  0  0
 26 27  1  1  0  0  0
 26 29  1  0  0  0  0
 26 25  1  0  0  0  0
 28 30  1  0  0  0  0
 29 28  1  0  0  0  0
 31 34  1  1  0  0  0
 31 32  1  0  0  0  0
 32 33  1  0  0  0  0
 34 35  1  0  0  0  0
 35 37  1  0  0  0  0
 36 37  1  0  0  0  0
M  END
>  <MODEL>
6

>  <REMARK>
 VINA RESULT:      -6.2      1.883      3.237
  Name = 
  6 active torsions:
  status: ('A' for Active; 'I' for Inactive)
    1  A    between atoms: O_5  and  C_17
    2  A    between atoms: O_5  and  C_23
    3  A    between atoms: N_6  and  C_31
    4  A    between atoms: C_11  and  C_26
    5  A    between atoms: C_17  and  C_26
    6  A    between atoms: C_26  and  C_33
                            x       y       z     vdW  Elec       q    Type
                         _______ _______ _______ _____ _____    ______ ____

>  <TORSDO>
F 6

$$$$
=
 OpenBabel11052415143D

 37 42  0  0  1  0  0  0  0  0999 V2000
  187.9590  179.7610  140.4880 O   0  0  0  0  0  1  0  0  0  0  0  0
  182.0670  178.4740  140.7830 C   0  0  0  0  0  2  0  0  0  0  0  0
  185.5810  178.3200  143.6520 C   0  0  0  0  0  0  0  0  0  0  0  0
  189.1400  178.8530  143.1160 C   0  0  0  0  0  2  0  0  0  0  0  0
  183.1440  179.0070  142.9910 C   0  0  2  0  0  3  0  0  0  0  0  0
  186.7400  178.1170  142.9080 C   0  0  0  0  0  0  0  0  0  0  0  0
  184.5840  178.6390  142.7310 C   0  0  0  0  0  0  0  0  0  0  0  0
  188.1140  177.7800  143.4300 C   0  0  1  0  0  0  0  0  0  0  0  0
  182.8360  178.9730  144.3510 O   0  0  0  0  0  1  0  0  0  0  0  0
  185.1820  178.6370  141.4780 C   0  0  0  0  0  0  0  0  0  0  0  0
  185.2970  178.9580  139.0890 O   0  0  0  0  0  1  0  0  0  0  0  0
  186.3380  177.4400  145.9080 C   0  0  0  0  0  2  0  0  0  0  0  0
  185.7410  179.7380  145.5580 O   0  0  0  0  0  1  0  0  0  0  0  0
  184.4560  178.9980  140.2000 C   0  0  1  0  0  3  0  0  0  0  0  0
  189.2130  177.4990  142.4050 C   0  0  1  0  0  3  0  0  0  0  0  0
  185.4620  178.4320  145.1500 C   0  0  1  0  0  3  0  0  0  0  0  0
  186.4930  178.3250  141.6000 N   0  0  0  0  0  0  0  0  0  0  0  0
  182.2060  178.0700  142.2440 C   0  0  0  0  0  2  0  0  0  0  0  0
  188.2050  177.0360  144.7910 C   0  0  2  0  0  3  0  0  0  0  0  0
  183.2820  178.0590  139.9630 C   0  0  0  0  0  2  0  0  0  0  0  0
  188.7160  177.5020  140.9410 C   0  0  1  0  0  3  0  0  0  0  0  0
  187.5390  178.4320  140.5890 C   0  0  2  0  0  3  0  0  0  0  0  0
  187.6850  177.8100  145.8290 O   0  0  0  0  0  0  0  0  0  0  0  0
  190.2690  176.1360  143.9740 C   0  0  0  0  0  2  0  0  0  0  0  0
  189.4820  176.4100  145.1860 N   0  0  1  0  0  0  0  0  0  0  0  0
  190.2240  177.1860  146.2010 C   0  0  1  0  0  3  0  0  0  0  0  0
  189.6500  176.9180  147.5820 C   0  0  0  0  0  1  0  0  0  0  0  0
  191.8850  175.5240  145.6990 O   0  0  0  0  0  0  0  0  0  0  0  0
  191.7110  176.8180  146.2130 C   0  0  0  0  0  2  0  0  0  0  0  0
  191.6810  175.6270  144.3110 C   0  0  0  0  0  2  0  0  0  0  0  0
  189.8700  177.4760  139.9270 C   0  0  2  0  0  3  0  0  0  0  0  0
  189.5140  176.6810  138.6780 C   0  0  0  0  0  2  0  0  0  0  0  0
  189.4970  177.5870  137.4620 C   0  0  0  0  0  1  0  0  0  0  0  0
  191.1530  176.9410  140.5550 C   0  0  0  0  0  2  0  0  0  0  0  0
  192.1790  177.8780  140.4280 O   0  0  0  0  0  0  0  0  0  0  0  0
  193.1800  176.7530  138.5880 C   0  0  0  0  0  1  0  0  0  0  0  0
  193.2920  177.1260  140.0530 C   0  0  0  0  0  2  0  0  0  0  0  0
  2 18  1  0  0  0  0
  3 16  1  0  0  0  0
  5  9  1  1  0  0  0
  6  8  1  0  0  0  0
  6  3  2  0  0  0  0
  7  5  1  0  0  0  0
  7  3  1  0  0  0  0
  8  4  1  1  0  0  0
  8 19  1  0  0  0  0
 10 17  1  0  0  0  0
 10  7  2  0  0  0  0
 14 11  1  6  0  0  0
 14 10  1  0  0  0  0
 15  4  1  6  0  0  0
 15  8  1  0  0  0  0
 16 13  1  1  0  0  0
 16 12  1  0  0  0  0
 17  6  1  0  0  0  0
 18  5  1  0  0  0  0
 19 25  1  0  0  0  0
 19 23  1  1  0  0  0
 20 14  1  0  0  0  0
 20  2  1  0  0  0  0
 21 31  1  6  0  0  0
 21 15  1  0  0  0  0
 22  1  1  1  0  0  0
 22 21  1  0  0  0  0
 22 17  1  0  0  0  0
 23 12  1  0  0  0  0
 24 30  1  0  0  0  0
 25 24  1  6  0  0  0
 25 26  1  0  0  0  0
 26 29  1  0  0  0  0
 26 27  1  1  0  0  0
 28 29  1  0  0  0  0
 30 28  1  0  0  0  0
 31 32  1  6  0  0  0
 31 34  1  0  0  0  0
 33 32  1  0  0  0  0
 35 34  1  0  0  0  0
 36 37  1  0  0  0  0
 37 35  1  0  0  0  0
M  END
>  <MODEL>
7

>  <REMARK>
 VINA RESULT:      -6.1      2.455      8.488
  Name = 
  6 active torsions:
  status: ('A' for Active; 'I' for Inactive)
    1  A    between atoms: O_5  and  C_17
    2  A    between atoms: O_5  and  C_23
    3  A    between atoms: N_6  and  C_31
    4  A    between atoms: C_11  and  C_26
    5  A    between atoms: C_17  and  C_26
    6  A    between atoms: C_26  and  C_33
                            x       y       z     vdW  Elec       q    Type
                         _______ _______ _______ _____ _____    ______ ____

>  <TORSDO>
F 6

$$$$
=
 OpenBabel11052415143D

 37 42  0  0  1  0  0  0  0  0999 V2000
  184.9630  179.8690  139.8140 O   0  0  0  0  0  1  0  0  0  0  0  0
  190.4200  177.3390  139.2820 C   0  0  0  0  0  2  0  0  0  0  0  0
  186.6030  177.3950  136.8240 C   0  0  0  0  0  0  0  0  0  0  0  0
  183.3070  178.7560  137.5460 C   0  0  0  0  0  2  0  0  0  0  0  0
  189.1910  177.6660  137.1130 C   0  0  2  0  0  3  0  0  0  0  0  0
  185.5310  177.5830  137.6930 C   0  0  0  0  0  0  0  0  0  0  0  0
  187.7510  177.6640  137.5690 C   0  0  0  0  0  0  0  0  0  0  0  0
  184.0630  177.4520  137.3740 C   0  0  1  0  0  0  0  0  0  0  0  0
  189.3110  177.3140  135.7690 O   0  0  0  0  0  1  0  0  0  0  0  0
  187.3290  178.0210  138.8410 C   0  0  0  0  0  0  0  0  0  0  0  0
  187.5820  178.7990  141.1130 O   0  0  0  0  0  1  0  0  0  0  0  0
  185.4130  176.2900  134.8760 C   0  0  0  0  0  2  0  0  0  0  0  0
  186.4720  178.4350  134.6870 O   0  0  0  0  0  1  0  0  0  0  0  0
  188.2660  178.4530  139.9480 C   0  0  1  0  0  3  0  0  0  0  0  0
  183.0710  177.6050  138.5270 C   0  0  1  0  0  3  0  0  0  0  0  0
  186.5490  177.1990  135.3320 C   0  0  1  0  0  3  0  0  0  0  0  0
  185.9780  177.9750  138.9020 N   0  0  0  0  0  0  0  0  0  0  0  0
  190.0220  176.7090  137.9540 C   0  0  0  0  0  2  0  0  0  0  0  0
  183.6610  176.5030  136.2110 C   0  0  2  0  0  3  0  0  0  0  0  0
  189.2620  177.3490  140.2730 C   0  0  0  0  0  2  0  0  0  0  0  0
  183.7420  177.7760  139.9090 C   0  0  1  0  0  3  0  0  0  0  0  0
  185.1080  178.4860  139.9560 C   0  0  2  0  0  3  0  0  0  0  0  0
  184.1810  176.9430  134.9930 O   0  0  0  0  0  0  0  0  0  0  0  0
  181.6730  176.7910  134.9060 C   0  0  0  0  0  2  0  0  0  0  0  0
  182.2490  176.0970  136.0680 N   0  0  1  0  0  0  0  0  0  0  0  0
  182.0650  174.6310  136.0230 C   0  0  1  0  0  3  0  0  0  0  0  0
  182.1000  174.0600  137.4300 C   0  0  0  0  0  1  0  0  0  0  0  0
  179.8210  175.3170  135.5040 O   0  0  0  0  0  0  0  0  0  0  0  0
  180.7270  174.2530  135.3780 C   0  0  0  0  0  2  0  0  0  0  0  0
  180.2490  176.3010  134.5940 C   0  0  0  0  0  2  0  0  0  0  0  0
  182.7420  178.1830  141.0030 C   0  0  2  0  0  3  0  0  0  0  0  0
  181.5740  178.9800  140.4390 C   0  0  0  0  0  2  0  0  0  0  0  0
  180.2560  178.3790  140.8910 C   0  0  0  0  0  1  0  0  0  0  0  0
  183.4260  178.9550  142.1250 C   0  0  0  0  0  2  0  0  0  0  0  0
  183.8410  178.0800  143.1300 O   0  0  0  0  0  0  0  0  0  0  0  0
  184.4240  178.8540  145.3010 C   0  0  0  0  0  1  0  0  0  0  0  0
  184.8080  178.7950  143.8360 C   0  0  0  0  0  2  0  0  0  0  0  0
  2 20  1  0  0  0  0
  3  7  1  0  0  0  0
  3  6  2  0  0  0  0
  5  9  1  6  0  0  0
  5  7  1  0  0  0  0
  5 18  1  0  0  0  0
  6 17  1  0  0  0  0
  7 10  2  0  0  0  0
  8  4  1  6  0  0  0
  8  6  1  0  0  0  0
  8 15  1  0  0  0  0
 10 17  1  0  0  0  0
 10 14  1  0  0  0  0
 12 23  1  0  0  0  0
 12 16  1  0  0  0  0
 14 20  1  0  0  0  0
 14 11  1  1  0  0  0
 15  4  1  6  0  0  0
 15 21  1  0  0  0  0
 16 13  1  6  0  0  0
 16  3  1  0  0  0  0
 17 22  1  0  0  0  0
 18  2  1  0  0  0  0
 19 23  1  6  0  0  0
 19  8  1  0  0  0  0
 21 22  1  0  0  0  0
 21 31  1  1  0  0  0
 22  1  1  6  0  0  0
 25 24  1  6  0  0  0
 25 19  1  0  0  0  0
 26 25  1  0  0  0  0
 26 27  1  1  0  0  0
 29 28  1  0  0  0  0
 29 26  1  0  0  0  0
 30 24  1  0  0  0  0
 30 28  1  0  0  0  0
 31 32  1  6  0  0  0
 31 34  1  0  0  0  0
 32 33  1  0  0  0  0
 34 35  1  0  0  0  0
 35 37  1  0  0  0  0
 37 36  1  0  0  0  0
M  END
>  <MODEL>
8

>  <REMARK>
 VINA RESULT:      -6.1      1.819      2.284
  Name = 
  6 active torsions:
  status: ('A' for Active; 'I' for Inactive)
    1  A    between atoms: O_5  and  C_17
    2  A    between atoms: O_5  and  C_23
    3  A    between atoms: N_6  and  C_31
    4  A    between atoms: C_11  and  C_26
    5  A    between atoms: C_17  and  C_26
    6  A    between atoms: C_26  and  C_33
                            x       y       z     vdW  Elec       q    Type
                         _______ _______ _______ _____ _____    ______ ____

>  <TORSDO>
F 6

$$$$
=
 OpenBabel11052415143D

 37 42  0  0  1  0  0  0  0  0999 V2000
  188.2790  179.3800  140.5450 O   0  0  0  0  0  1  0  0  0  0  0  0
  182.3410  178.2860  140.4520 C   0  0  0  0  0  2  0  0  0  0  0  0
  185.5790  178.4120  143.6310 C   0  0  0  0  0  0  0  0  0  0  0  0
  189.1890  178.7850  143.3630 C   0  0  0  0  0  2  0  0  0  0  0  0
  183.2370  179.0700  142.6660 C   0  0  2  0  0  3  0  0  0  0  0  0
  186.7920  178.0870  143.0280 C   0  0  0  0  0  0  0  0  0  0  0  0
  184.6800  178.6360  142.5880 C   0  0  0  0  0  0  0  0  0  0  0  0
  188.1010  177.7860  143.7130 C   0  0  1  0  0  0  0  0  0  0  0  0
  182.8080  179.2170  143.9860 O   0  0  0  0  0  1  0  0  0  0  0  0
  185.3860  178.4600  141.4060 C   0  0  0  0  0  0  0  0  0  0  0  0
  185.7240  178.4710  139.0160 O   0  0  0  0  0  1  0  0  0  0  0  0
  186.1010  177.8090  146.0380 C   0  0  0  0  0  2  0  0  0  0  0  0
  185.6210  180.0570  145.3510 O   0  0  0  0  0  1  0  0  0  0  0  0
  184.7900  178.6730  140.0320 C   0  0  1  0  0  3  0  0  0  0  0  0
  189.2750  177.3500  142.8360 C   0  0  1  0  0  3  0  0  0  0  0  0
  185.3320  178.7170  145.0850 C   0  0  1  0  0  3  0  0  0  0  0  0
  186.6690  178.1330  141.6870 N   0  0  0  0  0  0  0  0  0  0  0  0
  182.3350  178.0690  141.9590 C   0  0  0  0  0  2  0  0  0  0  0  0
  188.0440  177.2200  145.1580 C   0  0  2  0  0  3  0  0  0  0  0  0
  183.6080  177.7400  139.8060 C   0  0  0  0  0  2  0  0  0  0  0  0
  188.9110  177.1790  141.3440 C   0  0  1  0  0  3  0  0  0  0  0  0
  187.8040  178.0850  140.7710 C   0  0  2  0  0  3  0  0  0  0  0  0
  187.4620  178.1320  146.0390 O   0  0  0  0  0  0  0  0  0  0  0  0
  190.3850  176.8350  144.8260 C   0  0  0  0  0  2  0  0  0  0  0  0
  189.2570  176.6170  145.7450 N   0  0  1  0  0  0  0  0  0  0  0  0
  189.5300  177.0770  147.1220 C   0  0  1  0  0  3  0  0  0  0  0  0
  188.6600  176.3140  148.1070 C   0  0  0  0  0  1  0  0  0  0  0  0
  191.5480  175.8360  146.7250 O   0  0  0  0  0  0  0  0  0  0  0  0
  190.9980  176.8640  147.5050 C   0  0  0  0  0  2  0  0  0  0  0  0
  191.7190  176.3750  145.4370 C   0  0  0  0  0  2  0  0  0  0  0  0
  190.1480  176.9950  140.4520 C   0  0  2  0  0  3  0  0  0  0  0  0
  191.4070  177.5540  141.1020 C   0  0  0  0  0  2  0  0  0  0  0  0
  192.5890  177.4290  140.1590 C   0  0  0  0  0  1  0  0  0  0  0  0
  189.9390  177.6100  139.0730 C   0  0  0  0  0  2  0  0  0  0  0  0
  189.7360  176.6080  138.1240 O   0  0  0  0  0  0  0  0  0  0  0  0
  189.1100  178.7070  137.2000 C   0  0  0  0  0  1  0  0  0  0  0  0
  188.9270  177.2030  137.1560 C   0  0  0  0  0  2  0  0  0  0  0  0
  2 18  1  0  0  0  0
  3 16  1  0  0  0  0
  5  9  1  1  0  0  0
  6  3  2  0  0  0  0
  6  8  1  0  0  0  0
  7  5  1  0  0  0  0
  7  3  1  0  0  0  0
  8  4  1  1  0  0  0
  8 19  1  0  0  0  0
 10 17  1  0  0  0  0
 10  7  2  0  0  0  0
 12 23  1  0  0  0  0
 14 11  1  6  0  0  0
 14 10  1  0  0  0  0
 15  4  1  6  0  0  0
 15  8  1  0  0  0  0
 16 13  1  6  0  0  0
 16 12  1  0  0  0  0
 17  6  1  0  0  0  0
 18  5  1  0  0  0  0
 19 25  1  0  0  0  0
 19 23  1  1  0  0  0
 20 14  1  0  0  0  0
 20  2  1  0  0  0  0
 21 31  1  6  0  0  0
 21 15  1  0  0  0  0
 22  1  1  1  0  0  0
 22 21  1  0  0  0  0
 22 17  1  0  0  0  0
 24 30  1  0  0  0  0
 25 24  1  6  0  0  0
 25 26  1  0  0  0  0
 26 29  1  0  0  0  0
 26 27  1  1  0  0  0
 28 29  1  0  0  0  0
 30 28  1  0  0  0  0
 31 34  1  6  0  0  0
 31 32  1  0  0  0  0
 33 32  1  0  0  0  0
 35 34  1  0  0  0  0
 37 36  1  0  0  0  0
 37 35  1  0  0  0  0
M  END
>  <MODEL>
9

>  <REMARK>
 VINA RESULT:      -6.0      2.390      8.584
  Name = 
  6 active torsions:
  status: ('A' for Active; 'I' for Inactive)
    1  A    between atoms: O_5  and  C_17
    2  A    between atoms: O_5  and  C_23
    3  A    between atoms: N_6  and  C_31
    4  A    between atoms: C_11  and  C_26
    5  A    between atoms: C_17  and  C_26
    6  A    between atoms: C_26  and  C_33
                            x       y       z     vdW  Elec       q    Type
                         _______ _______ _______ _____ _____    ______ ____

>  <TORSDO>
F 6

$$$$
