=
 OpenBabel11052416513D

 32 36  0  0  1  0  0  0  0  0999 V2000
  184.2150  179.2600  139.7260 C   0  0  1  0  0  3  0  0  0  0  0  0
  186.9010  177.3360  142.9830 C   0  0  0  0  0  2  0  0  0  0  0  0
  189.9350  177.1710  138.1430 C   0  0  0  0  0  2  0  0  0  0  0  0
  190.8580  176.4010  139.1000 C   0  0  0  0  0  2  0  0  0  0  0  0
  184.7710  178.0340  141.8740 C   0  0  2  0  0  3  0  0  0  0  0  0
  186.5740  179.4110  140.5680 C   0  0  0  0  0  2  0  0  0  0  0  0
  184.4410  180.4160  138.9760 O   0  0  0  0  0  1  0  0  0  0  0  0
  188.5650  177.4580  138.7540 C   0  0  0  0  0  2  0  0  0  0  0  0
  187.4490  178.1980  140.8580 C   0  0  1  0  0  3  0  0  0  0  0  0
  188.7220  178.2600  140.0480 C   0  0  1  0  0  3  0  0  0  0  0  0
  189.1520  177.6070  142.3380 C   0  0  2  0  0  3  0  0  0  0  0  0
  182.4260  177.9710  140.9540 C   0  0  1  0  0  3  0  0  0  0  0  0
  185.0950  179.2600  140.9840 C   0  0  1  0  0  3  0  0  0  0  0  0
  183.2840  177.9950  142.2160 C   0  0  0  0  0  2  0  0  0  0  0  0
  182.7330  179.1950  140.0930 C   0  0  0  0  0  2  0  0  0  0  0  0
  190.3460  176.3580  140.5430 C   0  0  0  0  0  2  0  0  0  0  0  0
  189.8120  177.7240  140.9770 C   0  0  1  0  0  3  0  0  0  0  0  0
  185.5610  178.0360  143.1760 C   0  0  0  0  0  2  0  0  0  0  0  0
  187.8230  178.2060  142.2670 N   0  0  2  0  0  0  0  0  0  0  0  0
  182.6520  176.7660  140.2290 O   0  0  0  0  0  0  0  0  0  0  0  0
  181.6580  176.1740  139.4490 C   0  0  0  0  0  0  0  0  0  0  0  0
  181.9850  175.2720  138.4440 O   0  0  0  0  0  0  0  0  0  0  0  0
  180.4510  176.4620  139.6560 O   0  0  0  0  0  1  0  0  0  0  0  0
  190.0090  178.2260  143.4570 C   0  0  0  0  0  2  0  0  0  0  0  0
  189.4850  178.1000  145.9430 C   0  0  0  0  0  2  0  0  0  0  0  0
  189.4670  177.1480  147.1380 C   0  0  1  0  0  3  0  0  0  0  0  0
  191.7650  176.4470  146.4460 C   0  0  0  0  0  3  0  0  0  0  0  0
  190.8180  176.5310  147.3930 C   0  0  0  0  0  3  0  0  0  0  0  0
  191.6070  177.0520  145.0750 C   0  0  0  0  0  2  0  0  0  0  0  0
  190.1540  177.4150  144.7550 C   0  0  2  0  0  3  0  0  0  0  0  0
  188.9930  177.8500  148.3670 C   0  0  0  0  0  3  0  0  0  0  0  0
  187.7280  178.2460  148.4840 C   0  0  0  0  0  2  0  0  0  0  0  0
  1  7  1  1  0  0  0
  1 15  1  0  0  0  0
  1 13  1  0  0  0  0
  2 18  1  0  0  0  0
  3  8  1  0  0  0  0
  3  4  1  0  0  0  0
  4 16  1  0  0  0  0
  5 14  1  1  0  0  0
  5 18  1  0  0  0  0
  9  6  1  1  0  0  0
  9 19  1  0  0  0  0
 10  8  1  6  0  0  0
 10  9  1  0  0  0  0
 10 17  1  0  0  0  0
 11 24  1  1  0  0  0
 12 20  1  6  0  0  0
 12 14  1  0  0  0  0
 13  6  1  6  0  0  0
 13  5  1  0  0  0  0
 15 12  1  0  0  0  0
 17 16  1  6  0  0  0
 17 11  1  0  0  0  0
 19 11  1  0  0  0  0
 19  2  1  1  0  0  0
 21 23  1  0  0  0  0
 21 20  1  0  0  0  0
 22 21  2  0  0  0  0
 25 26  1  0  0  0  0
 26 28  1  0  0  0  0
 26 31  1  1  0  0  0
 27 28  2  0  0  0  0
 29 27  1  0  0  0  0
 30 24  1  6  0  0  0
 30 29  1  0  0  0  0
 30 25  1  0  0  0  0
 31 32  2  0  0  0  0
M  END
>  <MODEL>
1

>  <REMARK>
 VINA RESULT:      -8.5      0.000      0.000
  Name = 
  5 active torsions:
  status: ('A' for Active; 'I' for Inactive)
    1  A    between atoms: C_1  and  O_17
    2  A    between atoms: C_7  and  C_22
    3  A    between atoms: C_16  and  C_27
    4  A    between atoms: O_17  and  C_19
    5  A    between atoms: C_27  and  C_32
                            x       y       z     vdW  Elec       q    Type
                         _______ _______ _______ _____ _____    ______ ____

>  <TORSDO>
F 5

$$$$
=
 OpenBabel11052416513D

 32 36  0  0  1  0  0  0  0  0999 V2000
  191.9050  176.1610  137.7230 C   0  0  1  0  0  3  0  0  0  0  0  0
  187.5720  177.2420  138.9780 C   0  0  0  0  0  2  0  0  0  0  0  0
  190.4020  176.2000  143.8320 C   0  0  0  0  0  2  0  0  0  0  0  0
  188.9740  176.4130  144.3590 C   0  0  0  0  0  2  0  0  0  0  0  0
  189.3920  176.3990  137.4870 C   0  0  2  0  0  3  0  0  0  0  0  0
  190.7230  177.6500  139.3610 C   0  0  0  0  0  2  0  0  0  0  0  0
  193.0950  176.8280  138.0220 O   0  0  0  0  0  1  0  0  0  0  0  0
  190.4600  176.1270  142.3080 C   0  0  0  0  0  2  0  0  0  0  0  0
  189.5640  177.1920  140.2380 C   0  0  1  0  0  3  0  0  0  0  0  0
  189.8880  177.4090  141.6970 C   0  0  1  0  0  3  0  0  0  0  0  0
  187.6320  178.1090  141.1690 C   0  0  2  0  0  3  0  0  0  0  0  0
  190.6820  174.9500  135.8780 C   0  0  1  0  0  3  0  0  0  0  0  0
  190.7050  177.0980  137.9200 C   0  0  1  0  0  3  0  0  0  0  0  0
  189.4980  175.8980  136.0480 C   0  0  0  0  0  2  0  0  0  0  0  0
  191.9750  175.6540  136.2830 C   0  0  0  0  0  2  0  0  0  0  0  0
  187.9730  176.8160  143.2720 C   0  0  0  0  0  2  0  0  0  0  0  0
  188.5740  177.8630  142.3340 C   0  0  1  0  0  3  0  0  0  0  0  0
  188.1830  177.3180  137.5850 C   0  0  0  0  0  2  0  0  0  0  0  0
  188.3860  177.9910  139.9250 N   0  0  2  0  0  0  0  0  0  0  0  0
  190.4800  173.7680  136.6460 O   0  0  0  0  0  0  0  0  0  0  0  0
  189.4650  172.8570  136.3520 C   0  0  0  0  0  0  0  0  0  0  0  0
  188.3720  172.7100  137.1980 O   0  0  0  0  0  1  0  0  0  0  0  0
  189.5400  172.1590  135.3090 O   0  0  0  0  0  0  0  0  0  0  0  0
  186.9050  179.4600  141.2830 C   0  0  0  0  0  2  0  0  0  0  0  0
  185.3650  179.1460  143.2830 C   0  0  0  0  0  2  0  0  0  0  0  0
  183.9280  179.3560  143.7590 C   0  0  1  0  0  3  0  0  0  0  0  0
  183.2030  178.2920  141.6160 C   0  0  0  0  0  3  0  0  0  0  0  0
  182.9300  178.6470  142.8810 C   0  0  0  0  0  3  0  0  0  0  0  0
  184.5610  178.4760  140.9910 C   0  0  0  0  0  2  0  0  0  0  0  0
  185.4530  179.4320  141.7870 C   0  0  2  0  0  3  0  0  0  0  0  0
  183.7680  178.9030  145.1730 C   0  0  0  0  0  3  0  0  0  0  0  0
  184.8290  178.6450  145.9330 C   0  0  0  0  0  2  0  0  0  0  0  0
  1 13  1  0  0  0  0
  1  7  1  6  0  0  0
  3  4  1  0  0  0  0
  5 14  1  6  0  0  0
  5 18  1  0  0  0  0
  5 13  1  0  0  0  0
  8  3  1  0  0  0  0
  9  6  1  6  0  0  0
  9 10  1  0  0  0  0
 10  8  1  1  0  0  0
 10 17  1  0  0  0  0
 11 24  1  1  0  0  0
 11 17  1  0  0  0  0
 12 14  1  0  0  0  0
 12 15  1  0  0  0  0
 12 20  1  1  0  0  0
 13  6  1  1  0  0  0
 15  1  1  0  0  0  0
 16  4  1  0  0  0  0
 17 16  1  1  0  0  0
 18  2  1  0  0  0  0
 19  2  1  6  0  0  0
 19  9  1  0  0  0  0
 19 11  1  0  0  0  0
 21 20  1  0  0  0  0
 21 22  1  0  0  0  0
 23 21  2  0  0  0  0
 25 26  1  0  0  0  0
 26 31  1  1  0  0  0
 27 28  2  0  0  0  0
 28 26  1  0  0  0  0
 29 27  1  0  0  0  0
 29 30  1  0  0  0  0
 30 24  1  6  0  0  0
 30 25  1  0  0  0  0
 31 32  2  0  0  0  0
M  END
>  <MODEL>
2

>  <REMARK>
 VINA RESULT:      -7.4      3.506      6.868
  Name = 
  5 active torsions:
  status: ('A' for Active; 'I' for Inactive)
    1  A    between atoms: C_1  and  O_17
    2  A    between atoms: C_7  and  C_22
    3  A    between atoms: C_16  and  C_27
    4  A    between atoms: O_17  and  C_19
    5  A    between atoms: C_27  and  C_32
                            x       y       z     vdW  Elec       q    Type
                         _______ _______ _______ _____ _____    ______ ____

>  <TORSDO>
F 5

$$$$
=
 OpenBabel11052416513D

 32 36  0  0  1  0  0  0  0  0999 V2000
  181.7470  178.6180  140.1530 C   0  0  1  0  0  3  0  0  0  0  0  0
  186.3420  178.7250  140.7840 C   0  0  0  0  0  2  0  0  0  0  0  0
  184.0310  178.9870  146.0040 C   0  0  0  0  0  2  0  0  0  0  0  0
  185.5230  179.1610  146.3290 C   0  0  0  0  0  2  0  0  0  0  0  0
  184.1770  179.0540  139.5770 C   0  0  2  0  0  3  0  0  0  0  0  0
  183.4920  177.4980  141.5670 C   0  0  0  0  0  2  0  0  0  0  0  0
  180.8270  177.6600  140.5830 O   0  0  0  0  0  1  0  0  0  0  0  0
  183.7480  179.0400  144.5040 C   0  0  0  0  0  2  0  0  0  0  0  0
  184.5990  178.2470  142.2980 C   0  0  1  0  0  3  0  0  0  0  0  0
  184.5460  177.9550  143.7780 C   0  0  1  0  0  3  0  0  0  0  0  0
  186.8120  177.8770  142.9320 C   0  0  2  0  0  3  0  0  0  0  0  0
  182.3440  180.1070  138.2050 C   0  0  1  0  0  3  0  0  0  0  0  0
  183.1660  178.0320  140.1560 C   0  0  1  0  0  3  0  0  0  0  0  0
  183.7470  179.5070  138.1840 C   0  0  0  0  0  2  0  0  0  0  0  0
  181.3490  179.0860  138.7540 C   0  0  0  0  0  2  0  0  0  0  0  0
  186.4360  179.0370  145.1050 C   0  0  0  0  0  2  0  0  0  0  0  0
  186.0080  177.8660  144.2180 C   0  0  1  0  0  3  0  0  0  0  0  0
  185.5870  178.4880  139.4820 C   0  0  0  0  0  2  0  0  0  0  0  0
  185.8910  177.7890  141.8030 N   0  0  2  0  0  0  0  0  0  0  0  0
  182.3320  181.3010  138.9810 O   0  0  0  0  0  0  0  0  0  0  0  0
  181.8470  182.5080  138.4760 C   0  0  0  0  0  0  0  0  0  0  0  0
  180.5190  182.6330  138.0840 O   0  0  0  0  0  0  0  0  0  0  0  0
  182.6200  183.4940  138.3720 O   0  0  0  0  0  1  0  0  0  0  0  0
  187.8780  176.7670  142.9010 C   0  0  0  0  0  2  0  0  0  0  0  0
  189.5580  176.7930  144.8100 C   0  0  0  0  0  2  0  0  0  0  0  0
  191.0400  176.9840  145.1260 C   0  0  1  0  0  3  0  0  0  0  0  0
  190.9440  179.0340  143.6980 C   0  0  0  0  0  3  0  0  0  0  0  0
  191.5520  178.3230  144.6600 C   0  0  0  0  0  3  0  0  0  0  0  0
  189.6410  178.6130  143.0690 C   0  0  0  0  0  2  0  0  0  0  0  0
  189.2970  177.1480  143.3490 C   0  0  2  0  0  3  0  0  0  0  0  0
  191.2940  176.8300  146.5890 C   0  0  0  0  0  3  0  0  0  0  0  0
  192.0370  175.8280  147.0530 C   0  0  0  0  0  2  0  0  0  0  0  0
  1 13  1  0  0  0  0
  1  7  1  6  0  0  0
  3  4  1  0  0  0  0
  5 14  1  6  0  0  0
  5 13  1  0  0  0  0
  8  3  1  0  0  0  0
  9  6  1  6  0  0  0
  9 10  1  0  0  0  0
 10 17  1  0  0  0  0
 10  8  1  1  0  0  0
 11 24  1  1  0  0  0
 11 17  1  0  0  0  0
 12 15  1  0  0  0  0
 12 20  1  1  0  0  0
 13  6  1  1  0  0  0
 14 12  1  0  0  0  0
 15  1  1  0  0  0  0
 16  4  1  0  0  0  0
 17 16  1  1  0  0  0
 18  5  1  0  0  0  0
 18  2  1  0  0  0  0
 19  2  1  6  0  0  0
 19  9  1  0  0  0  0
 19 11  1  0  0  0  0
 21 20  1  0  0  0  0
 22 21  2  0  0  0  0
 23 21  1  0  0  0  0
 25 26  1  0  0  0  0
 26 31  1  1  0  0  0
 27 28  2  0  0  0  0
 28 26  1  0  0  0  0
 29 30  1  0  0  0  0
 29 27  1  0  0  0  0
 30 24  1  1  0  0  0
 30 25  1  0  0  0  0
 31 32  2  0  0  0  0
M  END
>  <MODEL>
3

>  <REMARK>
 VINA RESULT:      -7.3      2.156      4.830
  Name = 
  5 active torsions:
  status: ('A' for Active; 'I' for Inactive)
    1  A    between atoms: C_1  and  O_17
    2  A    between atoms: C_7  and  C_22
    3  A    between atoms: C_16  and  C_27
    4  A    between atoms: O_17  and  C_19
    5  A    between atoms: C_27  and  C_32
                            x       y       z     vdW  Elec       q    Type
                         _______ _______ _______ _____ _____    ______ ____

>  <TORSDO>
F 5

$$$$
=
 OpenBabel11052416513D

 32 36  0  0  1  0  0  0  0  0999 V2000
  180.2940  177.4900  139.1790 C   0  0  1  0  0  3  0  0  0  0  0  0
  184.4890  179.4670  139.2980 C   0  0  0  0  0  2  0  0  0  0  0  0
  182.8790  178.8640  144.7480 C   0  0  0  0  0  2  0  0  0  0  0  0
  184.1980  179.6350  144.9100 C   0  0  0  0  0  2  0  0  0  0  0  0
  182.2560  178.8650  138.3500 C   0  0  2  0  0  3  0  0  0  0  0  0
  182.4910  177.2020  140.3570 C   0  0  0  0  0  2  0  0  0  0  0  0
  179.8970  176.2490  139.6800 O   0  0  0  0  0  1  0  0  0  0  0  0
  182.4300  178.7690  143.2910 C   0  0  0  0  0  2  0  0  0  0  0  0
  183.2740  178.3500  140.9820 C   0  0  1  0  0  3  0  0  0  0  0  0
  183.5130  178.0890  142.4500 C   0  0  1  0  0  3  0  0  0  0  0  0
  185.5040  178.9230  141.3550 C   0  0  2  0  0  3  0  0  0  0  0  0
  180.0110  179.0570  137.2210 C   0  0  1  0  0  3  0  0  0  0  0  0
  181.8190  177.5320  139.0070 C   0  0  1  0  0  3  0  0  0  0  0  0
  181.5240  179.0780  137.0260 C   0  0  0  0  0  2  0  0  0  0  0  0
  179.5850  177.7300  137.8470 C   0  0  0  0  0  2  0  0  0  0  0  0
  184.9380  179.8700  143.5900 C   0  0  0  0  0  2  0  0  0  0  0  0
  184.9240  178.6100  142.7220 C   0  0  1  0  0  3  0  0  0  0  0  0
  183.7540  178.9190  138.0820 C   0  0  0  0  0  2  0  0  0  0  0  0
  184.5760  178.4470  140.3340 N   0  0  2  0  0  0  0  0  0  0  0  0
  179.6040  180.1570  138.0280 O   0  0  0  0  0  0  0  0  0  0  0  0
  179.7910  181.4800  137.6260 C   0  0  0  0  0  0  0  0  0  0  0  0
  179.2820  181.9350  136.4150 O   0  0  0  0  0  0  0  0  0  0  0  0
  180.4310  182.2700  138.3660 O   0  0  0  0  0  1  0  0  0  0  0  0
  186.9170  178.3410  141.1730 C   0  0  0  0  0  2  0  0  0  0  0  0
  189.2760  178.2630  142.1210 C   0  0  0  0  0  2  0  0  0  0  0  0
  190.0690  178.3520  143.4240 C   0  0  1  0  0  3  0  0  0  0  0  0
  188.4300  176.7220  144.3780 C   0  0  0  0  0  3  0  0  0  0  0  0
  189.6340  177.3130  144.4250 C   0  0  0  0  0  3  0  0  0  0  0  0
  187.4440  176.9640  143.2650 C   0  0  0  0  0  2  0  0  0  0  0  0
  187.7840  178.2050  142.4350 C   0  0  2  0  0  3  0  0  0  0  0  0
  191.5330  178.2180  143.1630 C   0  0  0  0  0  3  0  0  0  0  0  0
  192.0020  177.2480  142.3830 C   0  0  0  0  0  2  0  0  0  0  0  0
  1  7  1  6  0  0  0
  3  4  1  0  0  0  0
  5 14  1  6  0  0  0
  5 13  1  0  0  0  0
  8  3  1  0  0  0  0
  9  6  1  6  0  0  0
  9 10  1  0  0  0  0
 10 17  1  0  0  0  0
 10  8  1  1  0  0  0
 11 24  1  6  0  0  0
 11 17  1  0  0  0  0
 12 15  1  0  0  0  0
 12 20  1  1  0  0  0
 13  1  1  0  0  0  0
 13  6  1  1  0  0  0
 14 12  1  0  0  0  0
 15  1  1  0  0  0  0
 16  4  1  0  0  0  0
 17 16  1  1  0  0  0
 18  5  1  0  0  0  0
 18  2  1  0  0  0  0
 19  2  1  6  0  0  0
 19  9  1  0  0  0  0
 19 11  1  0  0  0  0
 21 20  1  0  0  0  0
 21 23  1  0  0  0  0
 22 21  2  0  0  0  0
 25 30  1  0  0  0  0
 25 26  1  0  0  0  0
 26 31  1  6  0  0  0
 26 28  1  0  0  0  0
 27 28  2  0  0  0  0
 29 27  1  0  0  0  0
 30 24  1  6  0  0  0
 30 29  1  0  0  0  0
 32 31  2  0  0  0  0
M  END
>  <MODEL>
4

>  <REMARK>
 VINA RESULT:      -7.1      2.472      5.559
  Name = 
  5 active torsions:
  status: ('A' for Active; 'I' for Inactive)
    1  A    between atoms: C_1  and  O_17
    2  A    between atoms: C_7  and  C_22
    3  A    between atoms: C_16  and  C_27
    4  A    between atoms: O_17  and  C_19
    5  A    between atoms: C_27  and  C_32
                            x       y       z     vdW  Elec       q    Type
                         _______ _______ _______ _____ _____    ______ ____

>  <TORSDO>
F 5

$$$$
=
 OpenBabel11052416513D

 32 36  0  0  1  0  0  0  0  0999 V2000
  188.9180  177.2720  136.2800 C   0  0  1  0  0  3  0  0  0  0  0  0
  185.6060  177.9680  139.4530 C   0  0  0  0  0  2  0  0  0  0  0  0
  190.2820  176.4510  142.3670 C   0  0  0  0  0  2  0  0  0  0  0  0
  189.2390  176.5240  143.4930 C   0  0  0  0  0  2  0  0  0  0  0  0
  186.5640  177.4150  137.2120 C   0  0  2  0  0  3  0  0  0  0  0  0
  188.6050  178.4780  138.4590 C   0  0  0  0  0  2  0  0  0  0  0  0
  190.1250  177.9530  136.1110 O   0  0  0  0  0  1  0  0  0  0  0  0
  189.6560  176.5780  140.9790 C   0  0  0  0  0  2  0  0  0  0  0  0
  187.9490  177.8550  139.6850 C   0  0  1  0  0  3  0  0  0  0  0  0
  188.8900  177.8980  140.8650 C   0  0  1  0  0  3  0  0  0  0  0  0
  186.6440  178.5480  141.4890 C   0  0  2  0  0  3  0  0  0  0  0  0
  186.9870  176.2500  135.0170 C   0  0  1  0  0  3  0  0  0  0  0  0
  187.9420  178.1160  137.1120 C   0  0  1  0  0  3  0  0  0  0  0  0
  186.0140  177.1090  135.8200 C   0  0  0  0  0  2  0  0  0  0  0  0
  188.3350  176.9590  134.9030 C   0  0  0  0  0  2  0  0  0  0  0  0
  187.8650  177.0130  143.0260 C   0  0  0  0  0  2  0  0  0  0  0  0
  188.0010  178.2010  142.0720 C   0  0  1  0  0  3  0  0  0  0  0  0
  185.5360  178.2540  137.9590 C   0  0  0  0  0  2  0  0  0  0  0  0
  186.7650  178.6280  140.0370 N   0  0  2  0  0  0  0  0  0  0  0  0
  187.1310  174.9710  135.6260 O   0  0  0  0  0  0  0  0  0  0  0  0
  186.3330  173.8850  135.2650 C   0  0  0  0  0  0  0  0  0  0  0  0
  184.9520  174.0110  135.1850 O   0  0  0  0  0  1  0  0  0  0  0  0
  186.8710  172.7760  135.0120 O   0  0  0  0  0  0  0  0  0  0  0  0
  186.0600  179.8360  142.0960 C   0  0  0  0  0  2  0  0  0  0  0  0
  185.7570  178.9960  144.4770 C   0  0  0  0  0  2  0  0  0  0  0  0
  184.8260  179.0720  145.6870 C   0  0  1  0  0  3  0  0  0  0  0  0
  182.9450  178.6270  144.1000 C   0  0  0  0  0  3  0  0  0  0  0  0
  183.4250  178.6270  145.3540 C   0  0  0  0  0  3  0  0  0  0  0  0
  183.7910  178.9700  142.9010 C   0  0  0  0  0  2  0  0  0  0  0  0
  185.0960  179.6750  143.2810 C   0  0  2  0  0  3  0  0  0  0  0  0
  185.3590  178.2540  146.8170 C   0  0  0  0  0  3  0  0  0  0  0  0
  186.4750  177.5430  146.6790 C   0  0  0  0  0  2  0  0  0  0  0  0
  1  7  1  6  0  0  0
  1 13  1  0  0  0  0
  3  4  1  0  0  0  0
  5 14  1  6  0  0  0
  5 18  1  0  0  0  0
  8  3  1  0  0  0  0
  9  6  1  6  0  0  0
  9 19  1  0  0  0  0
  9 10  1  0  0  0  0
 10  8  1  1  0  0  0
 10 17  1  0  0  0  0
 11 17  1  0  0  0  0
 11 24  1  1  0  0  0
 12 20  1  1  0  0  0
 12 14  1  0  0  0  0
 13  5  1  0  0  0  0
 13  6  1  1  0  0  0
 15 12  1  0  0  0  0
 15  1  1  0  0  0  0
 16  4  1  0  0  0  0
 17 16  1  1  0  0  0
 18  2  1  0  0  0  0
 19  2  1  6  0  0  0
 19 11  1  0  0  0  0
 21 20  1  0  0  0  0
 22 21  1  0  0  0  0
 23 21  2  0  0  0  0
 25 26  1  0  0  0  0
 26 31  1  1  0  0  0
 27 28  2  0  0  0  0
 28 26  1  0  0  0  0
 29 30  1  0  0  0  0
 29 27  1  0  0  0  0
 30 24  1  6  0  0  0
 30 25  1  0  0  0  0
 32 31  2  0  0  0  0
M  END
>  <MODEL>
5

>  <REMARK>
 VINA RESULT:      -6.9      3.103      5.488
  Name = 
  5 active torsions:
  status: ('A' for Active; 'I' for Inactive)
    1  A    between atoms: C_1  and  O_17
    2  A    between atoms: C_7  and  C_22
    3  A    between atoms: C_16  and  C_27
    4  A    between atoms: O_17  and  C_19
    5  A    between atoms: C_27  and  C_32
                            x       y       z     vdW  Elec       q    Type
                         _______ _______ _______ _____ _____    ______ ____

>  <TORSDO>
F 5

$$$$
=
 OpenBabel11052416513D

 32 36  0  0  1  0  0  0  0  0999 V2000
  181.7680  179.4140  138.7400 C   0  0  1  0  0  3  0  0  0  0  0  0
  185.0890  177.9200  141.6140 C   0  0  0  0  0  2  0  0  0  0  0  0
  187.2210  177.3930  136.3380 C   0  0  0  0  0  2  0  0  0  0  0  0
  188.3390  176.7550  137.1770 C   0  0  0  0  0  2  0  0  0  0  0  0
  182.7630  178.4270  140.8530 C   0  0  2  0  0  3  0  0  0  0  0  0
  184.2280  179.7350  139.1230 C   0  0  0  0  0  2  0  0  0  0  0  0
  181.7950  180.4990  137.8610 O   0  0  0  0  0  1  0  0  0  0  0  0
  185.9680  177.6870  137.1590 C   0  0  0  0  0  2  0  0  0  0  0  0
  185.2050  178.5890  139.3560 C   0  0  1  0  0  3  0  0  0  0  0  0
  186.3090  178.6180  138.3260 C   0  0  1  0  0  3  0  0  0  0  0  0
  187.1730  178.2090  140.5490 C   0  0  2  0  0  3  0  0  0  0  0  0
  180.2990  178.1880  140.3830 C   0  0  1  0  0  3  0  0  0  0  0  0
  182.8570  179.5710  139.8120 C   0  0  1  0  0  3  0  0  0  0  0  0
  181.3640  178.3670  141.4610 C   0  0  0  0  0  2  0  0  0  0  0  0
  180.3820  179.3320  139.3740 C   0  0  0  0  0  2  0  0  0  0  0  0
  188.0950  176.8350  138.6870 C   0  0  0  0  0  2  0  0  0  0  0  0
  187.5730  178.2160  139.0860 C   0  0  1  0  0  3  0  0  0  0  0  0
  183.7700  178.5850  141.9840 C   0  0  0  0  0  2  0  0  0  0  0  0
  185.8220  178.7490  140.6670 N   0  0  2  0  0  0  0  0  0  0  0  0
  180.4560  176.9270  139.7410 O   0  0  0  0  0  0  0  0  0  0  0  0
  179.7370  175.7990  140.1370 C   0  0  0  0  0  0  0  0  0  0  0  0
  179.1000  175.7570  141.3710 O   0  0  0  0  0  1  0  0  0  0  0  0
  179.6650  174.8060  139.3680 O   0  0  0  0  0  0  0  0  0  0  0  0
  188.1800  178.9650  141.4330 C   0  0  0  0  0  2  0  0  0  0  0  0
  187.8650  178.2420  143.8510 C   0  0  0  0  0  2  0  0  0  0  0  0
  188.3970  177.2840  144.9160 C   0  0  1  0  0  3  0  0  0  0  0  0
  190.6880  178.0540  144.2730 C   0  0  0  0  0  3  0  0  0  0  0  0
  189.8700  177.4780  145.1680 C   0  0  0  0  0  3  0  0  0  0  0  0
  190.1940  178.6510  142.9810 C   0  0  0  0  0  2  0  0  0  0  0  0
  188.7740  178.2010  142.6270 C   0  0  2  0  0  3  0  0  0  0  0  0
  187.6420  177.4400  146.1940 C   0  0  0  0  0  3  0  0  0  0  0  0
  186.4000  177.9180  146.2010 C   0  0  0  0  0  2  0  0  0  0  0  0
  1  7  1  6  0  0  0
  1 15  1  0  0  0  0
  1 13  1  0  0  0  0
  2 18  1  0  0  0  0
  3  8  1  0  0  0  0
  3  4  1  0  0  0  0
  4 16  1  0  0  0  0
  5 14  1  1  0  0  0
  5 18  1  0  0  0  0
  9  6  1  6  0  0  0
  9 19  1  0  0  0  0
 10  8  1  6  0  0  0
 10 17  1  0  0  0  0
 10  9  1  0  0  0  0
 11 19  1  0  0  0  0
 11 24  1  1  0  0  0
 12 20  1  6  0  0  0
 12 14  1  0  0  0  0
 13  6  1  6  0  0  0
 13  5  1  0  0  0  0
 15 12  1  0  0  0  0
 17 16  1  6  0  0  0
 17 11  1  0  0  0  0
 19  2  1  1  0  0  0
 20 21  1  0  0  0  0
 21 22  1  0  0  0  0
 23 21  2  0  0  0  0
 25 26  1  0  0  0  0
 26 28  1  0  0  0  0
 26 31  1  1  0  0  0
 27 28  2  0  0  0  0
 29 27  1  0  0  0  0
 30 24  1  6  0  0  0
 30 29  1  0  0  0  0
 30 25  1  0  0  0  0
 31 32  2  0  0  0  0
M  END
>  <MODEL>
6

>  <REMARK>
 VINA RESULT:      -6.9      1.807      2.710
  Name = 
  5 active torsions:
  status: ('A' for Active; 'I' for Inactive)
    1  A    between atoms: C_1  and  O_17
    2  A    between atoms: C_7  and  C_22
    3  A    between atoms: C_16  and  C_27
    4  A    between atoms: O_17  and  C_19
    5  A    between atoms: C_27  and  C_32
                            x       y       z     vdW  Elec       q    Type
                         _______ _______ _______ _____ _____    ______ ____

>  <TORSDO>
F 5

$$$$
=
 OpenBabel11052416513D

 32 36  0  0  1  0  0  0  0  0999 V2000
  186.9210  177.5040  137.8200 C   0  0  1  0  0  3  0  0  0  0  0  0
  182.2940  177.3540  138.1230 C   0  0  0  0  0  2  0  0  0  0  0  0
  184.1660  178.7740  143.3320 C   0  0  0  0  0  2  0  0  0  0  0  0
  182.6570  178.6280  143.5860 C   0  0  0  0  0  2  0  0  0  0  0  0
  184.5600  176.7930  137.2290 C   0  0  2  0  0  3  0  0  0  0  0  0
  185.0330  178.9030  138.7030 C   0  0  0  0  0  2  0  0  0  0  0  0
  187.7740  178.5930  138.0070 O   0  0  0  0  0  1  0  0  0  0  0  0
  184.5750  178.2920  141.9420 C   0  0  0  0  0  2  0  0  0  0  0  0
  183.8900  178.3490  139.5440 C   0  0  1  0  0  3  0  0  0  0  0  0
  183.8100  179.0710  140.8680 C   0  0  1  0  0  3  0  0  0  0  0  0
  181.6220  178.7770  139.8770 C   0  0  2  0  0  3  0  0  0  0  0  0
  186.5290  175.4750  136.3720 C   0  0  1  0  0  3  0  0  0  0  0  0
  185.4900  177.9910  137.5450 C   0  0  1  0  0  3  0  0  0  0  0  0
  185.1180  175.9690  136.0700 C   0  0  0  0  0  2  0  0  0  0  0  0
  187.4460  176.6630  136.6580 C   0  0  0  0  0  2  0  0  0  0  0  0
  181.8470  178.3370  142.3190 C   0  0  0  0  0  2  0  0  0  0  0  0
  182.3150  179.2120  141.1550 C   0  0  1  0  0  3  0  0  0  0  0  0
  183.1480  177.2320  136.8670 C   0  0  0  0  0  2  0  0  0  0  0  0
  182.6310  178.5730  138.8440 N   0  0  2  0  0  0  0  0  0  0  0  0
  186.5090  174.5680  137.4690 O   0  0  0  0  0  0  0  0  0  0  0  0
  185.9960  173.2750  137.3520 C   0  0  0  0  0  0  0  0  0  0  0  0
  186.6320  172.3250  136.5620 O   0  0  0  0  0  0  0  0  0  0  0  0
  184.9430  172.9670  137.9670 O   0  0  0  0  0  1  0  0  0  0  0  0
  180.5330  179.7720  139.4380 C   0  0  0  0  0  2  0  0  0  0  0  0
  180.6980  182.0640  138.3470 C   0  0  0  0  0  2  0  0  0  0  0  0
  181.1780  182.7820  137.0860 C   0  0  1  0  0  3  0  0  0  0  0  0
  179.9840  181.0120  135.7850 C   0  0  0  0  0  3  0  0  0  0  0  0
  180.5260  182.2380  135.8410 C   0  0  0  0  0  3  0  0  0  0  0  0
  179.8840  180.1070  136.9850 C   0  0  0  0  0  2  0  0  0  0  0  0
  180.7840  180.5550  138.1390 C   0  0  2  0  0  3  0  0  0  0  0  0
  180.9290  184.2500  137.1860 C   0  0  0  0  0  3  0  0  0  0  0  0
  180.8080  184.9990  136.0930 C   0  0  0  0  0  2  0  0  0  0  0  0
  1  7  1  6  0  0  0
  3  4  1  0  0  0  0
  5 14  1  6  0  0  0
  5 13  1  0  0  0  0
  8  3  1  0  0  0  0
  9  6  1  6  0  0  0
  9 10  1  0  0  0  0
 10 17  1  0  0  0  0
 10  8  1  1  0  0  0
 11 24  1  6  0  0  0
 11 17  1  0  0  0  0
 12 15  1  0  0  0  0
 12 20  1  1  0  0  0
 13  1  1  0  0  0  0
 13  6  1  1  0  0  0
 14 12  1  0  0  0  0
 15  1  1  0  0  0  0
 16  4  1  0  0  0  0
 17 16  1  1  0  0  0
 18  5  1  0  0  0  0
 18  2  1  0  0  0  0
 19  2  1  1  0  0  0
 19  9  1  0  0  0  0
 19 11  1  0  0  0  0
 21 20  1  0  0  0  0
 21 23  1  0  0  0  0
 22 21  2  0  0  0  0
 26 31  1  1  0  0  0
 26 25  1  0  0  0  0
 27 28  2  0  0  0  0
 27 29  1  0  0  0  0
 28 26  1  0  0  0  0
 29 30  1  0  0  0  0
 30 25  1  0  0  0  0
 30 24  1  1  0  0  0
 32 31  2  0  0  0  0
M  END
>  <MODEL>
7

>  <REMARK>
 VINA RESULT:      -6.6      4.694      9.221
  Name = 
  5 active torsions:
  status: ('A' for Active; 'I' for Inactive)
    1  A    between atoms: C_1  and  O_17
    2  A    between atoms: C_7  and  C_22
    3  A    between atoms: C_16  and  C_27
    4  A    between atoms: O_17  and  C_19
    5  A    between atoms: C_27  and  C_32
                            x       y       z     vdW  Elec       q    Type
                         _______ _______ _______ _____ _____    ______ ____

>  <TORSDO>
F 5

$$$$
=
 OpenBabel11052416513D

 32 36  0  0  1  0  0  0  0  0999 V2000
  188.2150  178.1910  137.2040 C   0  0  1  0  0  3  0  0  0  0  0  0
  183.8810  176.6260  137.7400 C   0  0  0  0  0  2  0  0  0  0  0  0
  185.2320  179.2240  142.6470 C   0  0  0  0  0  2  0  0  0  0  0  0
  183.8510  178.6430  142.9870 C   0  0  0  0  0  2  0  0  0  0  0  0
  186.2020  176.7000  136.8140 C   0  0  2  0  0  3  0  0  0  0  0  0
  185.9850  179.0230  138.0000 C   0  0  0  0  0  2  0  0  0  0  0  0
  188.6770  179.5090  137.2190 O   0  0  0  0  0  1  0  0  0  0  0  0
  185.7660  178.7220  141.3070 C   0  0  0  0  0  2  0  0  0  0  0  0
  185.0840  178.2490  138.9540 C   0  0  1  0  0  3  0  0  0  0  0  0
  184.7860  179.0730  140.1850 C   0  0  1  0  0  3  0  0  0  0  0  0
  182.8000  177.9770  139.3400 C   0  0  2  0  0  3  0  0  0  0  0  0
  188.4840  175.9740  136.0300 C   0  0  1  0  0  3  0  0  0  0  0  0
  186.7030  178.1610  136.9400 C   0  0  1  0  0  3  0  0  0  0  0  0
  186.9870  175.9530  135.7390 C   0  0  0  0  0  2  0  0  0  0  0  0
  188.9750  177.4170  136.1290 C   0  0  0  0  0  2  0  0  0  0  0  0
  183.1690  177.9490  141.8040 C   0  0  0  0  0  2  0  0  0  0  0  0
  183.3260  178.7700  140.5230 C   0  0  1  0  0  3  0  0  0  0  0  0
  184.7210  176.6200  136.4690 C   0  0  0  0  0  2  0  0  0  0  0  0
  183.8160  177.9710  138.2920 N   0  0  2  0  0  0  0  0  0  0  0  0
  188.7620  175.2560  137.2280 O   0  0  0  0  0  0  0  0  0  0  0  0
  190.0600  174.8990  137.5940 C   0  0  0  0  0  0  0  0  0  0  0  0
  190.7410  175.6020  138.5810 O   0  0  0  0  0  1  0  0  0  0  0  0
  190.6220  173.9300  137.0230 O   0  0  0  0  0  0  0  0  0  0  0  0
  181.4480  178.5110  138.8360 C   0  0  0  0  0  2  0  0  0  0  0  0
  180.9130  180.9300  138.2590 C   0  0  0  0  0  2  0  0  0  0  0  0
  181.1870  182.0270  137.2310 C   0  0  1  0  0  3  0  0  0  0  0  0
  180.6770  180.3230  135.4730 C   0  0  0  0  0  3  0  0  0  0  0  0
  180.7940  181.6090  135.8370 C   0  0  0  0  0  3  0  0  0  0  0  0
  180.8240  179.1820  136.4460 C   0  0  0  0  0  2  0  0  0  0  0  0
  181.4860  179.6070  137.7590 C   0  0  2  0  0  3  0  0  0  0  0  0
  180.4760  183.2870  137.5990 C   0  0  0  0  0  3  0  0  0  0  0  0
  180.8840  184.4640  137.1300 C   0  0  0  0  0  2  0  0  0  0  0  0
  1  7  1  6  0  0  0
  3  4  1  0  0  0  0
  5 14  1  6  0  0  0
  5 13  1  0  0  0  0
  8  3  1  0  0  0  0
  9  6  1  6  0  0  0
  9 10  1  0  0  0  0
 10 17  1  0  0  0  0
 10  8  1  1  0  0  0
 11 24  1  6  0  0  0
 11 17  1  0  0  0  0
 12 15  1  0  0  0  0
 12 20  1  1  0  0  0
 13  1  1  0  0  0  0
 13  6  1  1  0  0  0
 14 12  1  0  0  0  0
 15  1  1  0  0  0  0
 16  4  1  0  0  0  0
 17 16  1  1  0  0  0
 18  5  1  0  0  0  0
 18  2  1  0  0  0  0
 19  2  1  1  0  0  0
 19  9  1  0  0  0  0
 19 11  1  0  0  0  0
 20 21  1  0  0  0  0
 21 22  1  0  0  0  0
 23 21  2  0  0  0  0
 26 31  1  1  0  0  0
 26 25  1  0  0  0  0
 27 28  2  0  0  0  0
 27 29  1  0  0  0  0
 28 26  1  0  0  0  0
 29 30  1  0  0  0  0
 30 25  1  0  0  0  0
 30 24  1  1  0  0  0
 32 31  2  0  0  0  0
M  END
>  <MODEL>
8

>  <REMARK>
 VINA RESULT:      -6.5      4.698      9.229
  Name = 
  5 active torsions:
  status: ('A' for Active; 'I' for Inactive)
    1  A    between atoms: C_1  and  O_17
    2  A    between atoms: C_7  and  C_22
    3  A    between atoms: C_16  and  C_27
    4  A    between atoms: O_17  and  C_19
    5  A    between atoms: C_27  and  C_32
                            x       y       z     vdW  Elec       q    Type
                         _______ _______ _______ _____ _____    ______ ____

>  <TORSDO>
F 5

$$$$
=
 OpenBabel11052416513D

 32 36  0  0  1  0  0  0  0  0999 V2000
  182.4990  176.5280  135.6790 C   0  0  1  0  0  3  0  0  0  0  0  0
  182.9080  176.7520  140.2950 C   0  0  0  0  0  2  0  0  0  0  0  0
  187.9740  178.3490  138.1870 C   0  0  0  0  0  2  0  0  0  0  0  0
  188.2690  178.3350  139.6950 C   0  0  0  0  0  2  0  0  0  0  0  0
  182.0050  175.9640  138.1010 C   0  0  2  0  0  3  0  0  0  0  0  0
  183.3300  178.1200  137.4330 C   0  0  0  0  0  2  0  0  0  0  0  0
  182.5980  177.5580  134.7420 O   0  0  0  0  0  1  0  0  0  0  0  0
  186.6100  177.7510  137.8520 C   0  0  0  0  0  2  0  0  0  0  0  0
  184.2280  177.7090  138.5930 C   0  0  1  0  0  3  0  0  0  0  0  0
  185.5050  178.5160  138.5830 C   0  0  1  0  0  3  0  0  0  0  0  0
  184.5810  178.3300  140.8120 C   0  0  2  0  0  3  0  0  0  0  0  0
  181.1930  174.4480  136.2590 C   0  0  1  0  0  3  0  0  0  0  0  0
  182.2240  177.1050  137.0760 C   0  0  1  0  0  3  0  0  0  0  0  0
  180.8910  175.0290  137.6370 C   0  0  0  0  0  2  0  0  0  0  0  0
  181.3830  175.5780  135.2480 C   0  0  0  0  0  2  0  0  0  0  0  0
  187.0420  178.0270  140.5580 C   0  0  0  0  0  2  0  0  0  0  0  0
  185.8140  178.7890  140.0560 C   0  0  1  0  0  3  0  0  0  0  0  0
  181.6460  176.4870  139.4850 C   0  0  0  0  0  2  0  0  0  0  0  0
  183.5420  177.9840  139.8480 N   0  0  2  0  0  0  0  0  0  0  0  0
  182.3470  173.6160  136.3190 O   0  0  0  0  0  0  0  0  0  0  0  0
  182.3000  172.3210  136.8370 C   0  0  0  0  0  0  0  0  0  0  0  0
  181.0940  171.6380  136.9400 O   0  0  0  0  0  0  0  0  0  0  0  0
  183.3620  171.7660  137.2180 O   0  0  0  0  0  1  0  0  0  0  0  0
  184.1020  179.3750  141.8350 C   0  0  0  0  0  2  0  0  0  0  0  0
  185.7160  178.1780  143.3930 C   0  0  0  0  0  2  0  0  0  0  0  0
  186.3450  178.2480  144.7840 C   0  0  1  0  0  3  0  0  0  0  0  0
  184.0380  178.6480  145.6620 C   0  0  0  0  0  3  0  0  0  0  0  0
  185.3070  178.2660  145.8760 C   0  0  0  0  0  3  0  0  0  0  0  0
  183.5090  178.9930  144.2940 C   0  0  0  0  0  2  0  0  0  0  0  0
  184.6230  179.2360  143.2740 C   0  0  2  0  0  3  0  0  0  0  0  0
  187.2830  177.1060  144.9990 C   0  0  0  0  0  3  0  0  0  0  0  0
  188.5790  177.2240  144.7220 C   0  0  0  0  0  2  0  0  0  0  0  0
  1  7  1  6  0  0  0
  1 13  1  0  0  0  0
  3  4  1  0  0  0  0
  4 16  1  0  0  0  0
  5 14  1  6  0  0  0
  5 18  1  0  0  0  0
  8  3  1  0  0  0  0
  9  6  1  6  0  0  0
  9 19  1  0  0  0  0
 10  8  1  1  0  0  0
 10  9  1  0  0  0  0
 10 17  1  0  0  0  0
 11 24  1  1  0  0  0
 12 20  1  1  0  0  0
 12 14  1  0  0  0  0
 13  6  1  1  0  0  0
 13  5  1  0  0  0  0
 15  1  1  0  0  0  0
 15 12  1  0  0  0  0
 17 16  1  1  0  0  0
 17 11  1  0  0  0  0
 18  2  1  0  0  0  0
 19  2  1  1  0  0  0
 19 11  1  0  0  0  0
 20 21  1  0  0  0  0
 21 22  2  0  0  0  0
 21 23  1  0  0  0  0
 25 26  1  0  0  0  0
 26 31  1  1  0  0  0
 26 28  1  0  0  0  0
 27 28  2  0  0  0  0
 29 27  1  0  0  0  0
 30 24  1  6  0  0  0
 30 25  1  0  0  0  0
 30 29  1  0  0  0  0
 32 31  2  0  0  0  0
M  END
>  <MODEL>
9

>  <REMARK>
 VINA RESULT:      -6.4      2.760      5.123
  Name = 
  5 active torsions:
  status: ('A' for Active; 'I' for Inactive)
    1  A    between atoms: C_1  and  O_17
    2  A    between atoms: C_7  and  C_22
    3  A    between atoms: C_16  and  C_27
    4  A    between atoms: O_17  and  C_19
    5  A    between atoms: C_27  and  C_32
                            x       y       z     vdW  Elec       q    Type
                         _______ _______ _______ _____ _____    ______ ____

>  <TORSDO>
F 5

$$$$
