=
 OpenBabel11052413303D

 28 31  0  0  1  0  0  0  0  0999 V2000
  186.1380  178.1620  142.3730 C   0  0  0  0  0  2  0  0  0  0  0  0
  187.9000  177.8370  147.9060 C   0  0  0  0  0  1  0  0  0  0  0  0
  184.2630  178.5540  144.9060 C   0  0  2  0  0  3  0  0  0  0  0  0
  185.6950  178.1940  144.8900 C   0  0  0  0  0  0  0  0  0  0  0  0
  183.7850  179.1200  142.4790 C   0  0  2  0  0  3  0  0  0  0  0  0
  186.5450  177.9410  143.8030 C   0  0  0  0  0  0  0  0  0  0  0  0
  185.0330  178.5570  147.0580 C   0  0  0  0  0  2  0  0  0  0  0  0
  183.9870  179.6640  143.9010 C   0  0  0  0  0  2  0  0  0  0  0  0
  187.8790  177.6110  144.0840 C   0  0  0  0  0  3  0  0  0  0  0  0
  183.9610  178.9790  146.2250 O   0  0  0  0  0  0  0  0  0  0  0  0
  187.4560  177.8110  146.4810 C   0  0  0  0  0  0  0  0  0  0  0  0
  182.0730  178.7020  142.2370 Cl  0  0  0  0  0  0  0  0  0  0  0  0
  184.6530  177.9070  142.1260 C   0  0  0  0  0  2  0  0  0  0  0  0
  186.1360  178.1480  146.1650 C   0  0  0  0  0  0  0  0  0  0  0  0
  188.3470  177.5140  145.4140 C   0  0  0  0  0  0  0  0  0  0  0  0
  190.6880  176.8540  144.5990 C   0  0  2  0  0  3  0  0  0  0  0  0
  189.7220  177.1590  145.6470 N   0  0  0  0  0  0  0  0  0  0  0  0
  191.4650  176.2300  146.7590 C   0  0  0  0  0  3  0  0  0  0  0  0
  190.2420  176.7110  146.8880 C   0  0  0  0  0  3  0  0  0  0  0  0
  191.9170  176.3190  145.3390 C   0  0  0  0  0  2  0  0  0  0  0  0
  190.9910  178.0780  143.7230 C   0  0  2  0  0  3  0  0  0  0  0  0
  190.8680  179.2600  144.4530 O   0  0  0  0  0  1  0  0  0  0  0  0
  190.2320  178.1450  142.3890 C   0  0  0  0  0  2  0  0  0  0  0  0
  190.0960  176.8350  140.2430 C   0  0  0  0  0  0  0  0  0  0  0  0
  192.3160  177.3540  141.2630 C   0  0  0  0  0  1  0  0  0  0  0  0
  190.8640  177.3570  141.3370 N   0  0  0  0  0  0  0  0  0  0  0  0
  188.7400  177.1220  140.1330 O   0  0  0  0  0  1  0  0  0  0  0  0
  190.6460  176.1220  139.3620 O   0  0  0  0  0  0  0  0  0  0  0  0
  1  6  1  0  0  0  0
  3  8  1  6  0  0  0
  3 10  1  0  0  0  0
  4  3  1  0  0  0  0
  4 14  1  0  0  0  0
  5 12  1  1  0  0  0
  5  8  1  0  0  0  0
  6  9  1  0  0  0  0
  6  4  2  0  0  0  0
  9 15  2  0  0  0  0
 10  7  1  0  0  0  0
 11  2  1  0  0  0  0
 13  1  1  0  0  0  0
 13  5  1  0  0  0  0
 14 11  2  0  0  0  0
 14  7  1  0  0  0  0
 15 17  1  0  0  0  0
 15 11  1  0  0  0  0
 16 21  1  1  0  0  0
 16 20  1  0  0  0  0
 16 17  1  0  0  0  0
 17 19  1  0  0  0  0
 18 19  2  0  0  0  0
 20 18  1  0  0  0  0
 21 22  1  1  0  0  0
 23 21  1  0  0  0  0
 24 26  1  0  0  0  0
 25 26  1  0  0  0  0
 26 23  1  0  0  0  0
 27 24  1  0  0  0  0
 28 24  2  0  0  0  0
M  END
>  <MODEL>
1

>  <REMARK>
 VINA RESULT:     -10.0      0.000      0.000
  Name = 
  4 active torsions:
  status: ('A' for Active; 'I' for Inactive)
    1  A    between atoms: C_1  and  C_2
    2  A    between atoms: C_2  and  C_3
    3  A    between atoms: C_3  and  N_11
    4  A    between atoms: N_16  and  C_27
                            x       y       z     vdW  Elec       q    Type
                         _______ _______ _______ _____ _____    ______ ____

>  <TORSDO>
F 4

$$$$
=
 OpenBabel11052413303D

 28 31  0  0  1  0  0  0  0  0999 V2000
  185.7050  178.2460  142.2210 C   0  0  0  0  0  2  0  0  0  0  0  0
  188.2570  177.6800  147.4160 C   0  0  0  0  0  1  0  0  0  0  0  0
  184.2290  178.5490  145.0160 C   0  0  2  0  0  3  0  0  0  0  0  0
  185.6380  178.1780  144.7740 C   0  0  0  0  0  0  0  0  0  0  0  0
  183.4070  179.2170  142.7100 C   0  0  2  0  0  3  0  0  0  0  0  0
  186.3150  177.9630  143.5650 C   0  0  0  0  0  0  0  0  0  0  0  0
  185.3080  178.4580  147.0290 C   0  0  0  0  0  2  0  0  0  0  0  0
  183.8240  179.7010  144.1070 C   0  0  0  0  0  2  0  0  0  0  0  0
  187.6710  177.6110  143.6330 C   0  0  0  0  0  3  0  0  0  0  0  0
  184.1310  178.9220  146.3810 O   0  0  0  0  0  0  0  0  0  0  0  0
  187.6080  177.7160  146.0720 C   0  0  0  0  0  0  0  0  0  0  0  0
  181.6720  178.8230  142.7080 Cl  0  0  0  0  0  0  0  0  0  0  0  0
  184.1970  178.0120  142.1860 C   0  0  0  0  0  2  0  0  0  0  0  0
  186.2600  178.0760  145.9680 C   0  0  0  0  0  0  0  0  0  0  0  0
  188.3280  177.4550  144.8740 C   0  0  0  0  0  0  0  0  0  0  0  0
  190.4140  176.4420  143.7780 C   0  0  2  0  0  3  0  0  0  0  0  0
  189.7180  177.0800  144.8870 N   0  0  0  0  0  0  0  0  0  0  0  0
  191.6630  176.3610  145.8010 C   0  0  0  0  0  3  0  0  0  0  0  0
  190.5060  176.9420  146.0580 C   0  0  0  0  0  3  0  0  0  0  0  0
  191.7760  176.0390  144.3470 C   0  0  0  0  0  2  0  0  0  0  0  0
  190.5160  177.3660  142.5560 C   0  0  2  0  0  3  0  0  0  0  0  0
  190.5750  178.7050  142.9430 O   0  0  0  0  0  1  0  0  0  0  0  0
  189.4690  177.1320  141.4570 C   0  0  0  0  0  2  0  0  0  0  0  0
  189.1910  178.1190  139.1570 C   0  0  0  0  0  0  0  0  0  0  0  0
  191.4000  177.1990  139.8740 C   0  0  0  0  0  1  0  0  0  0  0  0
  189.9810  177.4050  140.1190 N   0  0  0  0  0  0  0  0  0  0  0  0
  187.9410  178.6180  139.5030 O   0  0  0  0  0  1  0  0  0  0  0  0
  189.6290  178.3130  137.9920 O   0  0  0  0  0  0  0  0  0  0  0  0
  1  6  1  0  0  0  0
  3  8  1  6  0  0  0
  3 10  1  0  0  0  0
  4  3  1  0  0  0  0
  4 14  1  0  0  0  0
  5 12  1  1  0  0  0
  5  8  1  0  0  0  0
  6  9  1  0  0  0  0
  6  4  2  0  0  0  0
  9 15  2  0  0  0  0
 10  7  1  0  0  0  0
 11  2  1  0  0  0  0
 13  1  1  0  0  0  0
 13  5  1  0  0  0  0
 14 11  2  0  0  0  0
 14  7  1  0  0  0  0
 15 17  1  0  0  0  0
 15 11  1  0  0  0  0
 16 21  1  6  0  0  0
 16 20  1  0  0  0  0
 16 17  1  0  0  0  0
 17 19  1  0  0  0  0
 18 19  2  0  0  0  0
 20 18  1  0  0  0  0
 21 22  1  1  0  0  0
 23 21  1  0  0  0  0
 24 27  1  0  0  0  0
 24 26  1  0  0  0  0
 25 26  1  0  0  0  0
 26 23  1  0  0  0  0
 28 24  2  0  0  0  0
M  END
>  <MODEL>
2

>  <REMARK>
 VINA RESULT:      -9.9      1.029      1.100
  Name = 
  4 active torsions:
  status: ('A' for Active; 'I' for Inactive)
    1  A    between atoms: C_1  and  C_2
    2  A    between atoms: C_2  and  C_3
    3  A    between atoms: C_3  and  N_11
    4  A    between atoms: N_16  and  C_27
                            x       y       z     vdW  Elec       q    Type
                         _______ _______ _______ _____ _____    ______ ____

>  <TORSDO>
F 4

$$$$
=
 OpenBabel11052413303D

 28 31  0  0  1  0  0  0  0  0999 V2000
  189.4580  176.7690  144.3690 C   0  0  0  0  0  2  0  0  0  0  0  0
  184.1350  179.0630  144.8390 C   0  0  0  0  0  1  0  0  0  0  0  0
  188.2100  177.9380  147.0450 C   0  0  2  0  0  3  0  0  0  0  0  0
  187.6090  177.9300  145.6960 C   0  0  0  0  0  0  0  0  0  0  0  0
  190.2800  176.4970  146.7600 C   0  0  2  0  0  3  0  0  0  0  0  0
  188.1450  177.4920  144.4760 C   0  0  0  0  0  0  0  0  0  0  0  0
  186.0610  178.6980  147.2080 C   0  0  0  0  0  2  0  0  0  0  0  0
  188.8610  176.5940  147.3400 C   0  0  0  0  0  2  0  0  0  0  0  0
  187.3410  177.6080  143.3330 C   0  0  0  0  0  3  0  0  0  0  0  0
  187.1610  178.2060  147.9610 O   0  0  0  0  0  0  0  0  0  0  0  0
  185.5320  178.5660  144.6650 C   0  0  0  0  0  0  0  0  0  0  0  0
  191.4510  177.1350  147.9370 Cl  0  0  0  0  0  0  0  0  0  0  0  0
  190.4740  177.2130  145.4180 C   0  0  0  0  0  2  0  0  0  0  0  0
  186.3570  178.4260  145.7870 C   0  0  0  0  0  0  0  0  0  0  0  0
  186.0440  178.1660  143.4020 C   0  0  0  0  0  0  0  0  0  0  0  0
  185.6750  179.0100  141.0070 C   0  0  2  0  0  3  0  0  0  0  0  0
  185.2650  178.2730  142.1960 N   0  0  0  0  0  0  0  0  0  0  0  0
  183.3740  178.4090  140.9550 C   0  0  0  0  0  3  0  0  0  0  0  0
  183.8760  178.0020  142.1050 C   0  0  0  0  0  3  0  0  0  0  0  0
  184.4380  179.0240  140.1060 C   0  0  0  0  0  2  0  0  0  0  0  0
  186.9060  178.3810  140.3390 C   0  0  2  0  0  3  0  0  0  0  0  0
  188.0330  179.1870  140.5050 O   0  0  0  0  0  1  0  0  0  0  0  0
  186.7210  177.9490  138.8770 C   0  0  0  0  0  2  0  0  0  0  0  0
  188.3930  178.6530  137.1320 C   0  0  0  0  0  0  0  0  0  0  0  0
  188.9490  176.8290  138.7450 C   0  0  0  0  0  1  0  0  0  0  0  0
  187.9860  177.7580  138.1760 N   0  0  0  0  0  0  0  0  0  0  0  0
  187.6150  179.7580  136.8060 O   0  0  0  0  0  1  0  0  0  0  0  0
  189.4690  178.4540  136.5070 O   0  0  0  0  0  0  0  0  0  0  0  0
  1  6  1  0  0  0  0
  1 13  1  0  0  0  0
  3  8  1  1  0  0  0
  3 10  1  0  0  0  0
  4 14  1  0  0  0  0
  4  3  1  0  0  0  0
  5  8  1  0  0  0  0
  5 12  1  1  0  0  0
  6  4  2  0  0  0  0
  7 10  1  0  0  0  0
  9 15  2  0  0  0  0
  9  6  1  0  0  0  0
 11  2  1  0  0  0  0
 11 14  2  0  0  0  0
 13  5  1  0  0  0  0
 14  7  1  0  0  0  0
 15 11  1  0  0  0  0
 16 21  1  6  0  0  0
 16 17  1  0  0  0  0
 17 15  1  0  0  0  0
 18 19  2  0  0  0  0
 19 17  1  0  0  0  0
 20 18  1  0  0  0  0
 20 16  1  0  0  0  0
 21 22  1  6  0  0  0
 23 21  1  0  0  0  0
 24 26  1  0  0  0  0
 26 25  1  0  0  0  0
 26 23  1  0  0  0  0
 27 24  1  0  0  0  0
 28 24  2  0  0  0  0
M  END
>  <MODEL>
3

>  <REMARK>
 VINA RESULT:      -9.4      3.193      5.614
  Name = 
  4 active torsions:
  status: ('A' for Active; 'I' for Inactive)
    1  A    between atoms: C_1  and  C_2
    2  A    between atoms: C_2  and  C_3
    3  A    between atoms: C_3  and  N_11
    4  A    between atoms: N_16  and  C_27
                            x       y       z     vdW  Elec       q    Type
                         _______ _______ _______ _____ _____    ______ ____

>  <TORSDO>
F 4

$$$$
=
 OpenBabel11052413303D

 28 31  0  0  1  0  0  0  0  0999 V2000
  185.2020  179.1150  142.9500 C   0  0  0  0  0  2  0  0  0  0  0  0
  190.1470  176.7540  141.0000 C   0  0  0  0  0  1  0  0  0  0  0  0
  187.2100  177.3890  144.7030 C   0  0  2  0  0  3  0  0  0  0  0  0
  187.2990  177.6880  143.2590 C   0  0  0  0  0  0  0  0  0  0  0  0
  185.2970  178.8650  145.4780 C   0  0  2  0  0  3  0  0  0  0  0  0
  186.4060  178.3820  142.4290 C   0  0  0  0  0  0  0  0  0  0  0  0
  189.2110  176.6040  143.9250 C   0  0  0  0  0  2  0  0  0  0  0  0
  186.8160  178.6400  145.4760 C   0  0  0  0  0  2  0  0  0  0  0  0
  186.7460  178.5130  141.0750 C   0  0  0  0  0  3  0  0  0  0  0  0
  188.4880  176.9260  145.1060 O   0  0  0  0  0  0  0  0  0  0  0  0
  188.8230  177.2820  141.4450 C   0  0  0  0  0  0  0  0  0  0  0  0
  184.5650  177.9920  146.8440 Cl  0  0  0  0  0  0  0  0  0  0  0  0
  184.5860  178.4580  144.1820 C   0  0  0  0  0  2  0  0  0  0  0  0
  188.4580  177.1790  142.7920 C   0  0  0  0  0  0  0  0  0  0  0  0
  187.9340  177.9480  140.5580 C   0  0  0  0  0  0  0  0  0  0  0  0
  188.0450  177.0640  138.1530 C   0  0  2  0  0  3  0  0  0  0  0  0
  188.2300  178.1020  139.1580 N   0  0  0  0  0  0  0  0  0  0  0  0
  189.3490  178.8820  137.3480 C   0  0  0  0  0  3  0  0  0  0  0  0
  189.0570  179.1180  138.6130 C   0  0  0  0  0  3  0  0  0  0  0  0
  188.7050  177.6160  136.8880 C   0  0  0  0  0  2  0  0  0  0  0  0
  186.5630  176.7100  137.9590 C   0  0  2  0  0  3  0  0  0  0  0  0
  186.4130  175.6530  137.0600 O   0  0  0  0  0  1  0  0  0  0  0  0
  185.6370  177.8870  137.6200 C   0  0  0  0  0  2  0  0  0  0  0  0
  183.8500  178.9300  139.0560 C   0  0  0  0  0  0  0  0  0  0  0  0
  183.4650  176.7090  137.9790 C   0  0  0  0  0  1  0  0  0  0  0  0
  184.3520  177.8150  138.3050 N   0  0  0  0  0  0  0  0  0  0  0  0
  184.5550  180.1270  139.0940 O   0  0  0  0  0  0  0  0  0  0  0  0
  182.7580  178.8400  139.6760 O   0  0  0  0  0  1  0  0  0  0  0  0
  1 13  1  0  0  0  0
  2 11  1  0  0  0  0
  3 10  1  0  0  0  0
  3  8  1  1  0  0  0
  4  3  1  0  0  0  0
  5 12  1  1  0  0  0
  6  1  1  0  0  0  0
  6  4  2  0  0  0  0
  7 10  1  0  0  0  0
  8  5  1  0  0  0  0
  9  6  1  0  0  0  0
 11 14  2  0  0  0  0
 13  5  1  0  0  0  0
 14  4  1  0  0  0  0
 14  7  1  0  0  0  0
 15  9  2  0  0  0  0
 15 11  1  0  0  0  0
 16 21  1  6  0  0  0
 16 17  1  0  0  0  0
 17 15  1  0  0  0  0
 18 19  2  0  0  0  0
 19 17  1  0  0  0  0
 20 18  1  0  0  0  0
 20 16  1  0  0  0  0
 21 22  1  6  0  0  0
 23 21  1  0  0  0  0
 23 26  1  0  0  0  0
 24 27  2  0  0  0  0
 24 28  1  0  0  0  0
 25 26  1  0  0  0  0
 26 24  1  0  0  0  0
M  END
>  <MODEL>
4

>  <REMARK>
 VINA RESULT:      -9.1      3.410      6.236
  Name = 
  4 active torsions:
  status: ('A' for Active; 'I' for Inactive)
    1  A    between atoms: C_1  and  C_2
    2  A    between atoms: C_2  and  C_3
    3  A    between atoms: C_3  and  N_11
    4  A    between atoms: N_16  and  C_27
                            x       y       z     vdW  Elec       q    Type
                         _______ _______ _______ _____ _____    ______ ____

>  <TORSDO>
F 4

$$$$
=
 OpenBabel11052413303D

 28 31  0  0  1  0  0  0  0  0999 V2000
  189.6320  176.7370  144.4470 C   0  0  0  0  0  2  0  0  0  0  0  0
  184.2680  178.9690  144.7060 C   0  0  0  0  0  1  0  0  0  0  0  0
  188.2670  177.8930  147.0700 C   0  0  2  0  0  3  0  0  0  0  0  0
  187.7190  177.8770  145.6990 C   0  0  0  0  0  0  0  0  0  0  0  0
  190.3630  176.4760  146.8680 C   0  0  2  0  0  3  0  0  0  0  0  0
  188.3070  177.4440  144.5010 C   0  0  0  0  0  0  0  0  0  0  0  0
  186.1040  178.6280  147.1490 C   0  0  0  0  0  2  0  0  0  0  0  0
  188.9220  176.5560  147.3920 C   0  0  0  0  0  2  0  0  0  0  0  0
  187.5470  177.5510  143.3280 C   0  0  0  0  0  3  0  0  0  0  0  0
  187.1800  178.1480  147.9450 O   0  0  0  0  0  0  0  0  0  0  0  0
  185.6770  178.4880  144.5880 C   0  0  0  0  0  0  0  0  0  0  0  0
  191.4800  177.1280  148.0890 Cl  0  0  0  0  0  0  0  0  0  0  0  0
  190.6010  177.1930  145.5340 C   0  0  0  0  0  2  0  0  0  0  0  0
  186.4590  178.3580  145.7410 C   0  0  0  0  0  0  0  0  0  0  0  0
  186.2430  178.0940  143.3450 C   0  0  0  0  0  0  0  0  0  0  0  0
  185.9440  178.9540  140.9470 C   0  0  2  0  0  3  0  0  0  0  0  0
  185.5100  178.1920  142.1100 N   0  0  0  0  0  0  0  0  0  0  0  0
  183.6670  178.2830  140.7940 C   0  0  0  0  0  3  0  0  0  0  0  0
  184.1350  177.8780  141.9600 C   0  0  0  0  0  3  0  0  0  0  0  0
  184.7450  178.9410  139.9960 C   0  0  0  0  0  2  0  0  0  0  0  0
  187.2200  178.3720  140.3230 C   0  0  2  0  0  3  0  0  0  0  0  0
  188.3550  179.0360  140.7910 O   0  0  0  0  0  1  0  0  0  0  0  0
  187.2170  178.2520  138.7910 C   0  0  0  0  0  2  0  0  0  0  0  0
  187.1940  176.0910  137.5010 C   0  0  0  0  0  0  0  0  0  0  0  0
  189.3340  176.9780  138.4340 C   0  0  0  0  0  1  0  0  0  0  0  0
  187.8860  177.0480  138.3150 N   0  0  0  0  0  0  0  0  0  0  0  0
  185.8840  176.3230  137.1000 O   0  0  0  0  0  0  0  0  0  0  0  0
  187.7720  175.0350  137.1290 O   0  0  0  0  0  1  0  0  0  0  0  0
  1  6  1  0  0  0  0
  1 13  1  0  0  0  0
  3  8  1  1  0  0  0
  3 10  1  0  0  0  0
  4 14  1  0  0  0  0
  4  3  1  0  0  0  0
  5  8  1  0  0  0  0
  5 12  1  1  0  0  0
  6  4  2  0  0  0  0
  7 10  1  0  0  0  0
  9 15  2  0  0  0  0
  9  6  1  0  0  0  0
 11  2  1  0  0  0  0
 11 14  2  0  0  0  0
 13  5  1  0  0  0  0
 14  7  1  0  0  0  0
 15 11  1  0  0  0  0
 16 21  1  6  0  0  0
 16 17  1  0  0  0  0
 17 15  1  0  0  0  0
 18 19  2  0  0  0  0
 19 17  1  0  0  0  0
 20 18  1  0  0  0  0
 20 16  1  0  0  0  0
 21 22  1  6  0  0  0
 23 21  1  0  0  0  0
 24 26  1  0  0  0  0
 26 25  1  0  0  0  0
 26 23  1  0  0  0  0
 27 24  2  0  0  0  0
 28 24  1  0  0  0  0
M  END
>  <MODEL>
5

>  <REMARK>
 VINA RESULT:      -9.1      3.176      5.567
  Name = 
  4 active torsions:
  status: ('A' for Active; 'I' for Inactive)
    1  A    between atoms: C_1  and  C_2
    2  A    between atoms: C_2  and  C_3
    3  A    between atoms: C_3  and  N_11
    4  A    between atoms: N_16  and  C_27
                            x       y       z     vdW  Elec       q    Type
                         _______ _______ _______ _____ _____    ______ ____

>  <TORSDO>
F 4

$$$$
=
 OpenBabel11052413303D

 28 31  0  0  1  0  0  0  0  0999 V2000
  185.5910  178.9710  141.6150 C   0  0  0  0  0  2  0  0  0  0  0  0
  190.5120  176.5470  143.5460 C   0  0  0  0  0  1  0  0  0  0  0  0
  186.0190  177.7990  144.5350 C   0  0  2  0  0  3  0  0  0  0  0  0
  186.9700  177.7780  143.4050 C   0  0  0  0  0  0  0  0  0  0  0  0
  184.1490  179.2890  143.6840 C   0  0  2  0  0  3  0  0  0  0  0  0
  186.8040  178.2160  142.0830 C   0  0  0  0  0  0  0  0  0  0  0  0
  188.0180  176.9860  145.2890 C   0  0  0  0  0  2  0  0  0  0  0  0
  185.3490  179.1620  144.6340 C   0  0  0  0  0  2  0  0  0  0  0  0
  187.8890  178.0670  141.2080 C   0  0  0  0  0  3  0  0  0  0  0  0
  186.7660  177.5150  145.7070 O   0  0  0  0  0  0  0  0  0  0  0  0
  189.2320  177.0780  142.9910 C   0  0  0  0  0  0  0  0  0  0  0  0
  182.6810  178.6940  144.4930 Cl  0  0  0  0  0  0  0  0  0  0  0  0
  184.3130  178.5650  142.3430 C   0  0  0  0  0  2  0  0  0  0  0  0
  188.1340  177.2510  143.8400 C   0  0  0  0  0  0  0  0  0  0  0  0
  189.1000  177.4770  141.6340 C   0  0  0  0  0  0  0  0  0  0  0  0
  190.1840  176.4080  139.5690 C   0  0  2  0  0  3  0  0  0  0  0  0
  190.1790  177.3370  140.6910 N   0  0  0  0  0  0  0  0  0  0  0  0
  192.3360  177.3280  139.9940 C   0  0  0  0  0  3  0  0  0  0  0  0
  191.5040  177.7960  140.9060 C   0  0  0  0  0  3  0  0  0  0  0  0
  191.6100  176.4640  139.0160 C   0  0  0  0  0  2  0  0  0  0  0  0
  189.1140  176.7620  138.5260 C   0  0  2  0  0  3  0  0  0  0  0  0
  188.6950  175.6260  137.8310 O   0  0  0  0  0  1  0  0  0  0  0  0
  189.4660  177.9170  137.5780 C   0  0  0  0  0  2  0  0  0  0  0  0
  187.4020  178.4040  136.2190 C   0  0  0  0  0  0  0  0  0  0  0  0
  189.4610  177.5230  135.1110 C   0  0  0  0  0  1  0  0  0  0  0  0
  188.7280  177.8650  136.3210 N   0  0  0  0  0  0  0  0  0  0  0  0
  186.8160  179.0420  137.3060 O   0  0  0  0  0  1  0  0  0  0  0  0
  186.7610  178.3160  135.1380 O   0  0  0  0  0  0  0  0  0  0  0  0
  1  6  1  0  0  0  0
  1 13  1  0  0  0  0
  3  8  1  1  0  0  0
  3 10  1  0  0  0  0
  4 14  1  0  0  0  0
  4  3  1  0  0  0  0
  5 12  1  1  0  0  0
  5  8  1  0  0  0  0
  6  4  2  0  0  0  0
  7 10  1  0  0  0  0
  9 15  2  0  0  0  0
  9  6  1  0  0  0  0
 11  2  1  0  0  0  0
 11 14  2  0  0  0  0
 13  5  1  0  0  0  0
 14  7  1  0  0  0  0
 15 11  1  0  0  0  0
 16 21  1  6  0  0  0
 16 17  1  0  0  0  0
 17 19  1  0  0  0  0
 17 15  1  0  0  0  0
 18 19  2  0  0  0  0
 20 16  1  0  0  0  0
 20 18  1  0  0  0  0
 21 22  1  6  0  0  0
 23 21  1  0  0  0  0
 24 26  1  0  0  0  0
 24 27  1  0  0  0  0
 25 26  1  0  0  0  0
 26 23  1  0  0  0  0
 28 24  2  0  0  0  0
M  END
>  <MODEL>
6

>  <REMARK>
 VINA RESULT:      -9.1      2.587      4.529
  Name = 
  4 active torsions:
  status: ('A' for Active; 'I' for Inactive)
    1  A    between atoms: C_1  and  C_2
    2  A    between atoms: C_2  and  C_3
    3  A    between atoms: C_3  and  N_11
    4  A    between atoms: N_16  and  C_27
                            x       y       z     vdW  Elec       q    Type
                         _______ _______ _______ _____ _____    ______ ____

>  <TORSDO>
F 4

$$$$
=
 OpenBabel11052413303D

 28 31  0  0  1  0  0  0  0  0999 V2000
  187.1900  177.8190  143.0840 C   0  0  0  0  0  2  0  0  0  0  0  0
  191.9820  177.2030  139.8460 C   0  0  0  0  0  1  0  0  0  0  0  0
  190.0690  177.0960  144.2130 C   0  0  2  0  0  3  0  0  0  0  0  0
  189.6700  177.2690  142.8010 C   0  0  0  0  0  0  0  0  0  0  0  0
  188.0130  177.8590  145.4890 C   0  0  2  0  0  3  0  0  0  0  0  0
  188.4040  177.5170  142.2500 C   0  0  0  0  0  0  0  0  0  0  0  0
  191.9480  177.0060  142.9140 C   0  0  0  0  0  2  0  0  0  0  0  0
  189.4530  178.1910  145.0730 C   0  0  0  0  0  2  0  0  0  0  0  0
  188.3130  177.6320  140.8560 C   0  0  0  0  0  3  0  0  0  0  0  0
  191.4860  177.1590  144.2490 O   0  0  0  0  0  0  0  0  0  0  0  0
  190.7180  177.2640  140.6380 C   0  0  0  0  0  0  0  0  0  0  0  0
  188.0300  176.9150  146.9970 Cl  0  0  0  0  0  0  0  0  0  0  0  0
  187.1970  177.1050  144.4330 C   0  0  0  0  0  2  0  0  0  0  0  0
  190.7740  177.1650  142.0320 C   0  0  0  0  0  0  0  0  0  0  0  0
  189.4510  177.4820  140.0310 C   0  0  0  0  0  0  0  0  0  0  0  0
  189.9920  176.7680  137.6280 C   0  0  2  0  0  3  0  0  0  0  0  0
  189.3000  177.5980  138.6040 N   0  0  0  0  0  0  0  0  0  0  0  0
  188.9630  178.6680  136.6350 C   0  0  0  0  0  3  0  0  0  0  0  0
  188.7630  178.7290  137.9380 C   0  0  0  0  0  3  0  0  0  0  0  0
  189.6910  177.4150  136.2740 C   0  0  0  0  0  2  0  0  0  0  0  0
  189.5530  175.2990  137.7090 C   0  0  2  0  0  3  0  0  0  0  0  0
  190.6360  174.4660  137.9920 O   0  0  0  0  0  1  0  0  0  0  0  0
  188.7280  174.7840  136.5200 C   0  0  0  0  0  2  0  0  0  0  0  0
  186.8980  173.2190  137.2550 C   0  0  0  0  0  0  0  0  0  0  0  0
  186.4630  175.6730  137.0800 C   0  0  0  0  0  1  0  0  0  0  0  0
  187.3340  174.5290  136.8630 N   0  0  0  0  0  0  0  0  0  0  0  0
  187.8120  172.1780  137.3730 O   0  0  0  0  0  0  0  0  0  0  0  0
  185.6830  173.0030  137.5110 O   0  0  0  0  0  1  0  0  0  0  0  0
  1 13  1  0  0  0  0
  2 11  1  0  0  0  0
  3 10  1  0  0  0  0
  3  8  1  1  0  0  0
  4  3  1  0  0  0  0
  5 12  1  1  0  0  0
  6  4  1  0  0  0  0
  6  1  1  0  0  0  0
  7 10  1  0  0  0  0
  8  5  1  0  0  0  0
  9  6  2  0  0  0  0
 11 14  1  0  0  0  0
 13  5  1  0  0  0  0
 14  4  2  0  0  0  0
 14  7  1  0  0  0  0
 15 11  2  0  0  0  0
 15  9  1  0  0  0  0
 16 21  1  6  0  0  0
 16 17  1  0  0  0  0
 17 15  1  0  0  0  0
 18 19  2  0  0  0  0
 19 17  1  0  0  0  0
 20 18  1  0  0  0  0
 20 16  1  0  0  0  0
 21 22  1  6  0  0  0
 23 26  1  0  0  0  0
 23 21  1  0  0  0  0
 24 27  2  0  0  0  0
 24 28  1  0  0  0  0
 26 25  1  0  0  0  0
 26 24  1  0  0  0  0
M  END
>  <MODEL>
7

>  <REMARK>
 VINA RESULT:      -9.0      3.487      6.774
  Name = 
  4 active torsions:
  status: ('A' for Active; 'I' for Inactive)
    1  A    between atoms: C_1  and  C_2
    2  A    between atoms: C_2  and  C_3
    3  A    between atoms: C_3  and  N_11
    4  A    between atoms: N_16  and  C_27
                            x       y       z     vdW  Elec       q    Type
                         _______ _______ _______ _____ _____    ______ ____

>  <TORSDO>
F 4

$$$$
=
 OpenBabel11052413303D

 28 31  0  0  1  0  0  0  0  0999 V2000
  184.8760  178.6020  139.5910 C   0  0  0  0  0  2  0  0  0  0  0  0
  182.9610  178.8220  145.0790 C   0  0  0  0  0  1  0  0  0  0  0  0
  181.8270  178.8360  140.4470 C   0  0  2  0  0  3  0  0  0  0  0  0
  183.0040  178.6940  141.3280 C   0  0  0  0  0  0  0  0  0  0  0  0
  182.8630  179.2010  138.1590 C   0  0  2  0  0  3  0  0  0  0  0  0
  184.3560  178.5160  140.9990 C   0  0  0  0  0  0  0  0  0  0  0  0
  181.1380  179.0630  142.6140 C   0  0  0  0  0  2  0  0  0  0  0  0
  182.1160  179.8400  139.3390 C   0  0  0  0  0  2  0  0  0  0  0  0
  185.2720  178.4030  142.0540 C   0  0  0  0  0  3  0  0  0  0  0  0
  180.7540  179.2770  141.2630 O   0  0  0  0  0  0  0  0  0  0  0  0
  183.4720  178.6580  143.6860 C   0  0  0  0  0  0  0  0  0  0  0  0
  181.6900  178.5200  137.0080 Cl  0  0  0  0  0  0  0  0  0  0  0  0
  183.8720  178.1150  138.5500 C   0  0  0  0  0  2  0  0  0  0  0  0
  182.5870  178.7780  142.6090 C   0  0  0  0  0  0  0  0  0  0  0  0
  184.8480  178.4440  143.4020 C   0  0  0  0  0  0  0  0  0  0  0  0
  186.6940  177.1530  144.6300 C   0  0  2  0  0  3  0  0  0  0  0  0
  185.8290  178.3110  144.4470 N   0  0  0  0  0  0  0  0  0  0  0  0
  186.7060  178.6010  146.5170 C   0  0  0  0  0  3  0  0  0  0  0  0
  185.8570  179.0900  145.6330 C   0  0  0  0  0  3  0  0  0  0  0  0
  187.3770  177.3800  145.9800 C   0  0  0  0  0  2  0  0  0  0  0  0
  187.6840  176.9870  143.4680 C   0  0  2  0  0  3  0  0  0  0  0  0
  188.0250  175.6460  143.2870 O   0  0  0  0  0  1  0  0  0  0  0  0
  188.9240  177.8930  143.5170 C   0  0  0  0  0  2  0  0  0  0  0  0
  191.0260  177.4680  142.1970 C   0  0  0  0  0  0  0  0  0  0  0  0
  188.9130  178.1120  141.0290 C   0  0  0  0  0  1  0  0  0  0  0  0
  189.6630  177.9120  142.2590 N   0  0  0  0  0  0  0  0  0  0  0  0
  191.6510  176.9530  143.3260 O   0  0  0  0  0  1  0  0  0  0  0  0
  191.6650  177.5270  141.1130 O   0  0  0  0  0  0  0  0  0  0  0  0
  1  6  1  0  0  0  0
  3  8  1  6  0  0  0
  3 10  1  0  0  0  0
  3  4  1  0  0  0  0
  4 14  1  0  0  0  0
  5 12  1  6  0  0  0
  5 13  1  0  0  0  0
  5  8  1  0  0  0  0
  6  4  2  0  0  0  0
  6  9  1  0  0  0  0
  9 15  2  0  0  0  0
 10  7  1  0  0  0  0
 11  2  1  0  0  0  0
 13  1  1  0  0  0  0
 14  7  1  0  0  0  0
 14 11  2  0  0  0  0
 15 11  1  0  0  0  0
 15 17  1  0  0  0  0
 16 21  1  6  0  0  0
 16 20  1  0  0  0  0
 17 16  1  0  0  0  0
 17 19  1  0  0  0  0
 19 18  2  0  0  0  0
 20 18  1  0  0  0  0
 21 22  1  1  0  0  0
 21 23  1  0  0  0  0
 24 26  1  0  0  0  0
 24 27  1  0  0  0  0
 25 26  1  0  0  0  0
 26 23  1  0  0  0  0
 28 24  2  0  0  0  0
M  END
>  <MODEL>
8

>  <REMARK>
 VINA RESULT:      -8.8      2.665      4.346
  Name = 
  4 active torsions:
  status: ('A' for Active; 'I' for Inactive)
    1  A    between atoms: C_1  and  C_2
    2  A    between atoms: C_2  and  C_3
    3  A    between atoms: C_3  and  N_11
    4  A    between atoms: N_16  and  C_27
                            x       y       z     vdW  Elec       q    Type
                         _______ _______ _______ _____ _____    ______ ____

>  <TORSDO>
F 4

$$$$
=
 OpenBabel11052413303D

 28 31  0  0  1  0  0  0  0  0999 V2000
  186.6260  178.3930  143.0750 C   0  0  0  0  0  2  0  0  0  0  0  0
  191.0550  176.7010  139.7080 C   0  0  0  0  0  1  0  0  0  0  0  0
  189.1960  176.8330  144.0970 C   0  0  2  0  0  3  0  0  0  0  0  0
  188.8560  177.2020  142.7080 C   0  0  0  0  0  0  0  0  0  0  0  0
  187.4320  178.0440  145.4610 C   0  0  2  0  0  3  0  0  0  0  0  0
  187.7070  177.8250  142.1990 C   0  0  0  0  0  0  0  0  0  0  0  0
  190.9740  176.3170  142.7570 C   0  0  0  0  0  2  0  0  0  0  0  0
  188.9070  177.9950  145.0370 C   0  0  0  0  0  2  0  0  0  0  0  0
  187.6490  178.0540  140.8170 C   0  0  0  0  0  3  0  0  0  0  0  0
  190.5750  176.5010  144.1090 O   0  0  0  0  0  0  0  0  0  0  0  0
  189.8590  177.0540  140.5270 C   0  0  0  0  0  0  0  0  0  0  0  0
  187.1920  177.0330  146.9050 Cl  0  0  0  0  0  0  0  0  0  0  0  0
  186.4380  177.6160  144.3760 C   0  0  0  0  0  2  0  0  0  0  0  0
  189.8880  176.8510  141.9110 C   0  0  0  0  0  0  0  0  0  0  0  0
  188.7000  177.6520  139.9620 C   0  0  0  0  0  0  0  0  0  0  0  0
  188.3600  176.8710  137.5420 C   0  0  2  0  0  3  0  0  0  0  0  0
  188.5840  177.9010  138.5480 N   0  0  0  0  0  0  0  0  0  0  0  0
  189.0140  178.9480  136.5850 C   0  0  0  0  0  3  0  0  0  0  0  0
  189.0180  179.0840  137.8980 C   0  0  0  0  0  3  0  0  0  0  0  0
  188.5430  177.5840  136.2000 C   0  0  0  0  0  2  0  0  0  0  0  0
  186.9820  176.2100  137.6950 C   0  0  2  0  0  3  0  0  0  0  0  0
  187.0220  174.8710  137.3060 O   0  0  0  0  0  1  0  0  0  0  0  0
  185.8090  176.9610  137.0480 C   0  0  0  0  0  2  0  0  0  0  0  0
  184.4450  178.2430  138.7320 C   0  0  0  0  0  0  0  0  0  0  0  0
  183.5710  176.1130  137.7610 C   0  0  0  0  0  1  0  0  0  0  0  0
  184.6510  177.0730  137.9280 N   0  0  0  0  0  0  0  0  0  0  0  0
  185.3150  179.3230  138.6420 O   0  0  0  0  0  0  0  0  0  0  0  0
  183.4620  178.3090  139.5180 O   0  0  0  0  0  1  0  0  0  0  0  0
  1 13  1  0  0  0  0
  2 11  1  0  0  0  0
  3 10  1  0  0  0  0
  3  8  1  1  0  0  0
  4  3  1  0  0  0  0
  5 12  1  1  0  0  0
  6  4  1  0  0  0  0
  6  1  1  0  0  0  0
  7 10  1  0  0  0  0
  8  5  1  0  0  0  0
  9  6  2  0  0  0  0
 11 14  1  0  0  0  0
 13  5  1  0  0  0  0
 14  4  2  0  0  0  0
 14  7  1  0  0  0  0
 15 11  2  0  0  0  0
 15  9  1  0  0  0  0
 16 21  1  6  0  0  0
 16 17  1  0  0  0  0
 17 15  1  0  0  0  0
 18 19  2  0  0  0  0
 19 17  1  0  0  0  0
 20 18  1  0  0  0  0
 20 16  1  0  0  0  0
 21 22  1  6  0  0  0
 23 21  1  0  0  0  0
 23 26  1  0  0  0  0
 24 28  1  0  0  0  0
 25 26  1  0  0  0  0
 26 24  1  0  0  0  0
 27 24  2  0  0  0  0
M  END
>  <MODEL>
9

>  <REMARK>
 VINA RESULT:      -8.7      3.546      6.862
  Name = 
  4 active torsions:
  status: ('A' for Active; 'I' for Inactive)
    1  A    between atoms: C_1  and  C_2
    2  A    between atoms: C_2  and  C_3
    3  A    between atoms: C_3  and  N_11
    4  A    between atoms: N_16  and  C_27
                            x       y       z     vdW  Elec       q    Type
                         _______ _______ _______ _____ _____    ______ ____

>  <TORSDO>
F 4

$$$$
