=
 OpenBabel11052412513D

 25 27  0  0  1  0  0  0  0  0999 V2000
  189.7430  177.0570  143.4460 C   0  0  0  0  0  0  0  0  0  0  0  0
  189.7970  177.2740  142.0830 C   0  0  0  0  0  0  0  0  0  0  0  0
  191.0030  176.8880  143.9070 N   0  0  0  0  0  2  0  0  0  0  0  0
  191.8520  176.9920  142.8900 N   0  0  0  0  0  0  0  0  0  0  0  0
  191.5820  177.4200  140.4210 C   0  0  0  0  0  0  0  0  0  0  0  0
  192.8050  177.3820  140.1300 O   0  0  0  0  0  0  0  0  0  0  0  0
  188.7300  177.5300  141.0600 C   0  0  0  0  0  2  0  0  0  0  0  0
  190.5920  177.6580  139.4100 N   0  0  0  0  0  0  0  0  0  0  0  0
  189.3070  177.7010  139.6600 C   0  0  0  0  0  0  0  0  0  0  0  0
  191.1210  177.2260  141.7860 C   0  0  0  0  0  0  0  0  0  0  0  0
  188.5470  177.0100  144.3040 C   0  0  0  0  0  0  0  0  0  0  0  0
  187.5560  176.3180  143.9460 O   0  0  0  0  0  0  0  0  0  0  0  0
  188.4940  177.7710  145.5910 C   0  0  2  0  0  3  0  0  0  0  0  0
  187.8460  178.2490  148.3120 C   0  0  0  0  0  3  0  0  0  0  0  0
  189.2750  177.0490  146.6960 C   0  0  0  0  0  2  0  0  0  0  0  0
  189.0330  177.7020  148.0300 C   0  0  0  0  0  3  0  0  0  0  0  0
  186.7850  178.2990  147.2880 C   0  0  0  0  0  3  0  0  0  0  0  0
  187.0710  178.0370  146.0080 C   0  0  0  0  0  3  0  0  0  0  0  0
  188.3670  177.9800  138.5440 C   0  0  0  0  0  2  0  0  0  0  0  0
  187.0790  178.3860  139.0810 N   0  0  0  0  0  2  0  0  0  0  0  0
  185.8710  178.2640  138.3260 C   0  0  0  0  0  0  0  0  0  0  0  0
  185.8990  177.7950  137.1560 O   0  0  0  0  0  0  0  0  0  0  0  0
  184.5960  178.6880  138.9190 C   0  0  0  0  0  0  0  0  0  0  0  0
  184.3480  180.0670  139.1730 N   0  0  0  0  0  2  0  0  0  0  0  0
  183.6910  177.8140  139.2150 N   0  0  0  0  0  1  0  0  0  0  0  0
  1  3  1  0  0  0  0
  1 11  1  0  0  0  0
  2  1  2  0  0  0  0
  4  3  1  0  0  0  0
  5 10  1  0  0  0  0
  6  5  2  0  0  0  0
  7  2  1  0  0  0  0
  8  9  2  0  0  0  0
  8  5  1  0  0  0  0
  9  7  1  0  0  0  0
 10  2  1  0  0  0  0
 10  4  2  0  0  0  0
 12 11  2  0  0  0  0
 13 11  1  6  0  0  0
 13 18  1  0  0  0  0
 13 15  1  0  0  0  0
 15 16  1  0  0  0  0
 16 14  2  0  0  0  0
 17 14  1  0  0  0  0
 18 17  2  0  0  0  0
 19 20  1  0  0  0  0
 19  9  1  0  0  0  0
 21 23  1  0  0  0  0
 21 20  1  0  0  0  0
 22 21  2  0  0  0  0
 23 24  2  0  0  0  0
 23 25  1  0  0  0  0
M  END
>  <MODEL>
1

>  <REMARK>
 VINA RESULT:      -8.8      0.000      0.000
  Name = 
  5 active torsions:
  status: ('A' for Active; 'I' for Inactive)
    1  A    between atoms: C_1  and  C_18
    2  A    between atoms: C_2  and  C_21
    3  A    between atoms: C_5  and  C_18
    4  A    between atoms: C_6  and  N_15
    5  A    between atoms: C_6  and  C_23
                            x       y       z     vdW  Elec       q    Type
                         _______ _______ _______ _____ _____    ______ ____

>  <TORSDO>
F 5

$$$$
=
 OpenBabel11052412513D

 25 27  0  0  1  0  0  0  0  0999 V2000
  187.3420  178.0230  146.8320 C   0  0  0  0  0  0  0  0  0  0  0  0
  188.5090  177.7330  146.1530 C   0  0  0  0  0  0  0  0  0  0  0  0
  187.4250  177.5000  148.0770 N   0  0  0  0  0  2  0  0  0  0  0  0
  188.5990  176.8920  148.2120 N   0  0  0  0  0  0  0  0  0  0  0  0
  190.5790  176.5520  146.6920 C   0  0  0  0  0  0  0  0  0  0  0  0
  191.2840  175.9070  147.5100 O   0  0  0  0  0  0  0  0  0  0  0  0
  188.9770  178.0620  144.7660 C   0  0  0  0  0  2  0  0  0  0  0  0
  191.0610  176.8370  145.3710 N   0  0  0  0  0  0  0  0  0  0  0  0
  190.3640  177.4990  144.4810 C   0  0  0  0  0  0  0  0  0  0  0  0
  189.2550  177.0340  147.0470 C   0  0  0  0  0  0  0  0  0  0  0  0
  186.1750  178.7730  146.3370 C   0  0  0  0  0  0  0  0  0  0  0  0
  185.8740  179.8730  146.8740 O   0  0  0  0  0  0  0  0  0  0  0  0
  185.3450  178.2470  145.2090 C   0  0  2  0  0  3  0  0  0  0  0  0
  183.7390  178.3770  142.8730 C   0  0  0  0  0  3  0  0  0  0  0  0
  185.9990  178.5420  143.8530 C   0  0  0  0  0  2  0  0  0  0  0  0
  185.0580  178.2100  142.7270 C   0  0  0  0  0  3  0  0  0  0  0  0
  183.1810  178.8060  144.1700 C   0  0  0  0  0  3  0  0  0  0  0  0
  183.9400  178.7860  145.2700 C   0  0  0  0  0  3  0  0  0  0  0  0
  190.9670  177.7630  143.1480 C   0  0  0  0  0  2  0  0  0  0  0  0
  189.9190  178.0850  142.1940 N   0  0  0  0  0  2  0  0  0  0  0  0
  189.7230  177.3260  140.9980 C   0  0  0  0  0  0  0  0  0  0  0  0
  190.4710  176.3430  140.7410 O   0  0  0  0  0  0  0  0  0  0  0  0
  188.6460  177.6950  140.0700 C   0  0  0  0  0  0  0  0  0  0  0  0
  188.5390  177.0490  138.8050 N   0  0  0  0  0  2  0  0  0  0  0  0
  187.7910  178.6080  140.3920 N   0  0  0  0  0  1  0  0  0  0  0  0
  1  3  1  0  0  0  0
  2  1  2  0  0  0  0
  2 10  1  0  0  0  0
  3  4  1  0  0  0  0
  5 10  1  0  0  0  0
  5  6  2  0  0  0  0
  7  2  1  0  0  0  0
  8  5  1  0  0  0  0
  9  7  1  0  0  0  0
  9  8  2  0  0  0  0
 10  4  2  0  0  0  0
 11  1  1  0  0  0  0
 11 12  2  0  0  0  0
 13 18  1  0  0  0  0
 13 11  1  1  0  0  0
 14 17  1  0  0  0  0
 15 13  1  0  0  0  0
 16 14  2  0  0  0  0
 16 15  1  0  0  0  0
 17 18  2  0  0  0  0
 19  9  1  0  0  0  0
 20 19  1  0  0  0  0
 21 20  1  0  0  0  0
 22 21  2  0  0  0  0
 23 25  1  0  0  0  0
 23 21  1  0  0  0  0
 24 23  2  0  0  0  0
M  END
>  <MODEL>
2

>  <REMARK>
 VINA RESULT:      -8.8      2.886      5.192
  Name = 
  5 active torsions:
  status: ('A' for Active; 'I' for Inactive)
    1  A    between atoms: C_1  and  C_18
    2  A    between atoms: C_2  and  C_21
    3  A    between atoms: C_5  and  C_18
    4  A    between atoms: C_6  and  N_15
    5  A    between atoms: C_6  and  C_23
                            x       y       z     vdW  Elec       q    Type
                         _______ _______ _______ _____ _____    ______ ____

>  <TORSDO>
F 5

$$$$
=
 OpenBabel11052412513D

 25 27  0  0  1  0  0  0  0  0999 V2000
  190.2020  176.7600  144.5480 C   0  0  0  0  0  0  0  0  0  0  0  0
  189.1850  177.2120  145.3660 C   0  0  0  0  0  0  0  0  0  0  0  0
  191.3510  176.7340  145.2600 N   0  0  0  0  0  0  0  0  0  0  0  0
  191.1010  177.1520  146.4970 N   0  0  0  0  0  0  0  0  0  0  0  0
  189.0270  177.9300  147.6970 C   0  0  0  0  0  0  0  0  0  0  0  0
  189.5710  178.1430  148.8100 O   0  0  0  0  0  0  0  0  0  0  0  0
  187.7210  177.4330  145.1270 C   0  0  0  0  0  3  0  0  0  0  0  0
  187.6240  178.1630  147.5080 N   0  0  0  0  0  0  0  0  0  0  0  0
  187.0110  177.9630  146.3670 C   0  0  0  0  0  0  0  0  0  0  0  0
  189.7900  177.4410  146.5600 C   0  0  0  0  0  0  0  0  0  0  0  0
  190.1070  176.3540  143.1350 C   0  0  0  0  0  0  0  0  0  0  0  0
  190.2210  175.1360  142.8330 O   0  0  0  0  0  0  0  0  0  0  0  0
  189.8790  177.3680  142.0590 C   0  0  2  0  0  3  0  0  0  0  0  0
  189.0850  178.3290  139.5090 C   0  0  0  0  0  3  0  0  0  0  0  0
  188.3870  177.5020  141.7280 C   0  0  0  0  0  2  0  0  0  0  0  0
  188.1890  178.3520  140.5030 C   0  0  0  0  0  3  0  0  0  0  0  0
  190.3240  177.5370  139.6390 C   0  0  0  0  0  3  0  0  0  0  0  0
  190.6870  177.0460  140.8290 C   0  0  0  0  0  3  0  0  0  0  0  0
  185.5480  178.2110  146.2850 C   0  0  0  0  0  2  0  0  0  0  0  0
  185.1310  178.2150  144.8920 N   0  0  0  0  0  2  0  0  0  0  0  0
  183.8920  178.7910  144.4730 C   0  0  0  0  0  0  0  0  0  0  0  0
  183.1180  179.3150  145.3200 O   0  0  0  0  0  0  0  0  0  0  0  0
  183.5220  178.7690  143.0520 C   0  0  0  0  0  0  0  0  0  0  0  0
  184.5170  178.5560  142.0570 N   0  0  0  0  0  2  0  0  0  0  0  0
  182.2920  178.9440  142.6950 N   0  0  0  0  0  1  0  0  0  0  0  0
  1  3  2  0  0  0  0
  1  2  1  0  0  0  0
  2 10  1  0  0  0  0
  3  4  1  0  0  0  0
  4 10  2  0  0  0  0
  5  6  2  0  0  0  0
  7  2  2  0  0  0  0
  7  9  1  0  0  0  0
  8  5  1  0  0  0  0
  9  8  2  0  0  0  0
 10  5  1  0  0  0  0
 11  1  1  0  0  0  0
 12 11  2  0  0  0  0
 13 11  1  1  0  0  0
 14 17  1  0  0  0  0
 14 16  2  0  0  0  0
 15 13  1  0  0  0  0
 16 15  1  0  0  0  0
 17 18  2  0  0  0  0
 18 13  1  0  0  0  0
 19  9  1  0  0  0  0
 20 19  1  0  0  0  0
 21 20  1  0  0  0  0
 21 22  2  0  0  0  0
 23 21  1  0  0  0  0
 24 23  2  0  0  0  0
 25 23  1  0  0  0  0
M  END
>  <MODEL>
3

>  <REMARK>
 VINA RESULT:      -8.8      2.886      6.045
  Name = 
  5 active torsions:
  status: ('A' for Active; 'I' for Inactive)
    1  A    between atoms: C_1  and  C_18
    2  A    between atoms: C_2  and  C_21
    3  A    between atoms: C_5  and  C_18
    4  A    between atoms: C_6  and  N_15
    5  A    between atoms: C_6  and  C_23
                            x       y       z     vdW  Elec       q    Type
                         _______ _______ _______ _____ _____    ______ ____

>  <TORSDO>
F 5

$$$$
=
 OpenBabel11052412513D

 25 27  0  0  1  0  0  0  0  0999 V2000
  186.6060  178.0330  145.4690 C   0  0  0  0  0  0  0  0  0  0  0  0
  185.8490  178.2890  144.3430 C   0  0  0  0  0  0  0  0  0  0  0  0
  185.8240  178.1930  146.5610 N   0  0  0  0  0  2  0  0  0  0  0  0
  184.6030  178.5410  146.1700 N   0  0  0  0  0  0  0  0  0  0  0  0
  183.5280  178.9290  143.9240 C   0  0  0  0  0  0  0  0  0  0  0  0
  182.3810  179.2130  144.3560 O   0  0  0  0  0  0  0  0  0  0  0  0
  186.1760  178.2580  142.8790 C   0  0  0  0  0  2  0  0  0  0  0  0
  183.8010  178.9200  142.5160 N   0  0  0  0  0  0  0  0  0  0  0  0
  184.9790  178.6360  142.0160 C   0  0  0  0  0  0  0  0  0  0  0  0
  184.6190  178.5980  144.8270 C   0  0  0  0  0  0  0  0  0  0  0  0
  188.0240  177.6420  145.5310 C   0  0  0  0  0  0  0  0  0  0  0  0
  188.4970  177.1970  146.6110 O   0  0  0  0  0  0  0  0  0  0  0  0
  188.9080  177.7660  144.3300 C   0  0  2  0  0  3  0  0  0  0  0  0
  191.2390  177.3770  142.7570 C   0  0  0  0  0  3  0  0  0  0  0  0
  189.1750  176.3960  143.6920 C   0  0  0  0  0  2  0  0  0  0  0  0
  190.2340  176.5030  142.6290 C   0  0  0  0  0  3  0  0  0  0  0  0
  191.2750  178.3090  143.9010 C   0  0  0  0  0  3  0  0  0  0  0  0
  190.1950  178.4710  144.6730 C   0  0  0  0  0  3  0  0  0  0  0  0
  185.1500  178.6300  140.5390 C   0  0  0  0  0  2  0  0  0  0  0  0
  186.5660  178.6430  140.2120 N   0  0  0  0  0  2  0  0  0  0  0  0
  187.0510  178.2310  138.9320 C   0  0  0  0  0  0  0  0  0  0  0  0
  186.2460  177.8370  138.0450 O   0  0  0  0  0  0  0  0  0  0  0  0
  188.4930  178.2660  138.6540 C   0  0  0  0  0  0  0  0  0  0  0  0
  189.3460  177.2480  139.1690 N   0  0  0  0  0  1  0  0  0  0  0  0
  188.9980  179.2200  137.9430 N   0  0  0  0  0  2  0  0  0  0  0  0
  1 11  1  0  0  0  0
  1  3  1  0  0  0  0
  2 10  1  0  0  0  0
  2  1  2  0  0  0  0
  4  3  1  0  0  0  0
  5  6  2  0  0  0  0
  5 10  1  0  0  0  0
  7  2  1  0  0  0  0
  8  5  1  0  0  0  0
  9  8  2  0  0  0  0
  9  7  1  0  0  0  0
 10  4  2  0  0  0  0
 11 12  2  0  0  0  0
 13 18  1  0  0  0  0
 13 11  1  1  0  0  0
 14 17  1  0  0  0  0
 15 13  1  0  0  0  0
 16 14  2  0  0  0  0
 16 15  1  0  0  0  0
 17 18  2  0  0  0  0
 19  9  1  0  0  0  0
 20 19  1  0  0  0  0
 21 20  1  0  0  0  0
 22 21  2  0  0  0  0
 23 21  1  0  0  0  0
 23 24  1  0  0  0  0
 25 23  2  0  0  0  0
M  END
>  <MODEL>
4

>  <REMARK>
 VINA RESULT:      -8.5      2.941      5.416
  Name = 
  5 active torsions:
  status: ('A' for Active; 'I' for Inactive)
    1  A    between atoms: C_1  and  C_18
    2  A    between atoms: C_2  and  C_21
    3  A    between atoms: C_5  and  C_18
    4  A    between atoms: C_6  and  N_15
    5  A    between atoms: C_6  and  C_23
                            x       y       z     vdW  Elec       q    Type
                         _______ _______ _______ _____ _____    ______ ____

>  <TORSDO>
F 5

$$$$
=
 OpenBabel11052412513D

 25 27  0  0  1  0  0  0  0  0999 V2000
  185.2520  178.7320  144.6750 C   0  0  0  0  0  0  0  0  0  0  0  0
  186.4820  178.1690  144.9540 C   0  0  0  0  0  0  0  0  0  0  0  0
  184.6270  179.0040  145.8430 N   0  0  0  0  0  2  0  0  0  0  0  0
  185.4130  178.6350  146.8490 N   0  0  0  0  0  0  0  0  0  0  0  0
  187.7050  177.5970  146.9910 C   0  0  0  0  0  0  0  0  0  0  0  0
  187.7720  177.5590  148.2460 O   0  0  0  0  0  0  0  0  0  0  0  0
  187.5930  177.6850  144.0690 C   0  0  0  0  0  2  0  0  0  0  0  0
  188.7860  177.1150  146.1810 N   0  0  0  0  0  0  0  0  0  0  0  0
  188.7630  177.1280  144.8710 C   0  0  0  0  0  0  0  0  0  0  0  0
  186.5360  178.1310  146.3100 C   0  0  0  0  0  0  0  0  0  0  0  0
  184.6710  179.0170  143.3520 C   0  0  0  0  0  0  0  0  0  0  0  0
  185.3000  179.7530  142.5460 O   0  0  0  0  0  0  0  0  0  0  0  0
  183.3470  178.4450  142.9560 C   0  0  2  0  0  3  0  0  0  0  0  0
  180.6820  178.4730  141.9790 C   0  0  0  0  0  3  0  0  0  0  0  0
  183.0890  178.6270  141.4550 C   0  0  0  0  0  2  0  0  0  0  0  0
  181.6740  178.2520  141.1090 C   0  0  0  0  0  3  0  0  0  0  0  0
  180.9740  179.0070  143.3240 C   0  0  0  0  0  3  0  0  0  0  0  0
  182.2310  179.0360  143.7790 C   0  0  0  0  0  3  0  0  0  0  0  0
  189.9480  176.6270  144.1270 C   0  0  0  0  0  2  0  0  0  0  0  0
  189.6430  176.5710  142.7060 N   0  0  0  0  0  2  0  0  0  0  0  0
  190.5620  177.0370  141.7150 C   0  0  0  0  0  0  0  0  0  0  0  0
  191.6750  177.5190  142.0600 O   0  0  0  0  0  0  0  0  0  0  0  0
  190.2030  176.9540  140.2930 C   0  0  0  0  0  0  0  0  0  0  0  0
  189.3240  177.9160  139.7200 N   0  0  0  0  0  1  0  0  0  0  0  0
  190.6820  176.0080  139.5540 N   0  0  0  0  0  2  0  0  0  0  0  0
  1  2  2  0  0  0  0
  1  3  1  0  0  0  0
  2 10  1  0  0  0  0
  3  4  1  0  0  0  0
  5  6  2  0  0  0  0
  7  9  1  0  0  0  0
  7  2  1  0  0  0  0
  8  5  1  0  0  0  0
  9  8  2  0  0  0  0
 10  4  2  0  0  0  0
 10  5  1  0  0  0  0
 11  1  1  0  0  0  0
 12 11  2  0  0  0  0
 13 11  1  1  0  0  0
 13 18  1  0  0  0  0
 14 17  1  0  0  0  0
 15 13  1  0  0  0  0
 16 15  1  0  0  0  0
 16 14  2  0  0  0  0
 17 18  2  0  0  0  0
 19  9  1  0  0  0  0
 20 19  1  0  0  0  0
 21 22  2  0  0  0  0
 21 20  1  0  0  0  0
 23 21  1  0  0  0  0
 24 23  1  0  0  0  0
 25 23  2  0  0  0  0
M  END
>  <MODEL>
5

>  <REMARK>
 VINA RESULT:      -8.4      3.491      6.681
  Name = 
  5 active torsions:
  status: ('A' for Active; 'I' for Inactive)
    1  A    between atoms: C_1  and  C_18
    2  A    between atoms: C_2  and  C_21
    3  A    between atoms: C_5  and  C_18
    4  A    between atoms: C_6  and  N_15
    5  A    between atoms: C_6  and  C_23
                            x       y       z     vdW  Elec       q    Type
                         _______ _______ _______ _____ _____    ______ ____

>  <TORSDO>
F 5

$$$$
=
 OpenBabel11052412513D

 25 27  0  0  1  0  0  0  0  0999 V2000
  188.6860  177.7320  140.9060 C   0  0  0  0  0  0  0  0  0  0  0  0
  187.5450  178.0450  141.6180 C   0  0  0  0  0  0  0  0  0  0  0  0
  188.5040  178.0940  139.6160 N   0  0  0  0  0  0  0  0  0  0  0  0
  187.2930  178.6250  139.4840 N   0  0  0  0  0  0  0  0  0  0  0  0
  185.3910  179.0650  141.0770 C   0  0  0  0  0  0  0  0  0  0  0  0
  184.6100  179.5810  140.2360 O   0  0  0  0  0  0  0  0  0  0  0  0
  187.1830  177.8840  143.0650 C   0  0  0  0  0  3  0  0  0  0  0  0
  185.0010  178.9210  142.4500 N   0  0  0  0  0  0  0  0  0  0  0  0
  185.7740  178.3850  143.3620 C   0  0  0  0  0  0  0  0  0  0  0  0
  186.7130  178.5960  140.6960 C   0  0  0  0  0  0  0  0  0  0  0  0
  189.9220  177.1120  141.4130 C   0  0  0  0  0  0  0  0  0  0  0  0
  190.7890  176.7030  140.5950 O   0  0  0  0  0  0  0  0  0  0  0  0
  190.1600  176.9640  142.8830 C   0  0  2  0  0  3  0  0  0  0  0  0
  191.6800  176.7920  145.2730 C   0  0  0  0  0  3  0  0  0  0  0  0
  190.7910  178.2310  143.4740 C   0  0  0  0  0  2  0  0  0  0  0  0
  191.2270  177.9930  144.8950 C   0  0  0  0  0  3  0  0  0  0  0  0
  191.6760  175.6610  144.3260 C   0  0  0  0  0  3  0  0  0  0  0  0
  190.9950  175.7450  143.1780 C   0  0  0  0  0  3  0  0  0  0  0  0
  185.2840  178.3060  144.7630 C   0  0  0  0  0  2  0  0  0  0  0  0
  186.3480  177.8180  145.6260 N   0  0  0  0  0  2  0  0  0  0  0  0
  186.6000  178.3850  146.9130 C   0  0  0  0  0  0  0  0  0  0  0  0
  185.8940  179.3420  147.3340 O   0  0  0  0  0  0  0  0  0  0  0  0
  187.6870  177.8510  147.7440 C   0  0  0  0  0  0  0  0  0  0  0  0
  188.5760  176.8710  147.2170 N   0  0  0  0  0  2  0  0  0  0  0  0
  187.8440  178.2640  148.9580 N   0  0  0  0  0  1  0  0  0  0  0  0
  1 11  1  0  0  0  0
  1  2  1  0  0  0  0
  2  7  2  0  0  0  0
  3  1  2  0  0  0  0
  4  3  1  0  0  0  0
  4 10  2  0  0  0  0
  5  8  1  0  0  0  0
  6  5  2  0  0  0  0
  7  9  1  0  0  0  0
  8  9  2  0  0  0  0
  9 19  1  0  0  0  0
 10  5  1  0  0  0  0
 10  2  1  0  0  0  0
 12 11  2  0  0  0  0
 13 11  1  6  0  0  0
 13 18  1  0  0  0  0
 13 15  1  0  0  0  0
 15 16  1  0  0  0  0
 16 14  2  0  0  0  0
 17 14  1  0  0  0  0
 18 17  2  0  0  0  0
 19 20  1  0  0  0  0
 20 21  1  0  0  0  0
 21 22  2  0  0  0  0
 21 23  1  0  0  0  0
 23 25  1  0  0  0  0
 24 23  2  0  0  0  0
M  END
>  <MODEL>
6

>  <REMARK>
 VINA RESULT:      -8.3      2.788      6.381
  Name = 
  5 active torsions:
  status: ('A' for Active; 'I' for Inactive)
    1  A    between atoms: C_1  and  C_18
    2  A    between atoms: C_2  and  C_21
    3  A    between atoms: C_5  and  C_18
    4  A    between atoms: C_6  and  N_15
    5  A    between atoms: C_6  and  C_23
                            x       y       z     vdW  Elec       q    Type
                         _______ _______ _______ _____ _____    ______ ____

>  <TORSDO>
F 5

$$$$
=
 OpenBabel11052412513D

 25 27  0  0  1  0  0  0  0  0999 V2000
  187.0310  177.9460  145.7540 C   0  0  0  0  0  0  0  0  0  0  0  0
  186.1470  178.2120  144.7270 C   0  0  0  0  0  0  0  0  0  0  0  0
  186.4130  178.1940  146.9320 N   0  0  0  0  0  2  0  0  0  0  0  0
  185.1730  178.6050  146.6890 N   0  0  0  0  0  0  0  0  0  0  0  0
  183.8320  178.9830  144.5900 C   0  0  0  0  0  0  0  0  0  0  0  0
  182.7720  179.3540  145.1560 O   0  0  0  0  0  0  0  0  0  0  0  0
  186.2730  178.1090  143.2360 C   0  0  0  0  0  2  0  0  0  0  0  0
  183.9140  178.9080  143.1590 N   0  0  0  0  0  0  0  0  0  0  0  0
  184.9950  178.5330  142.5220 C   0  0  0  0  0  0  0  0  0  0  0  0
  185.0120  178.6150  145.3550 C   0  0  0  0  0  0  0  0  0  0  0  0
  188.4190  177.4680  145.6460 C   0  0  0  0  0  0  0  0  0  0  0  0
  188.9460  176.8720  146.6240 O   0  0  0  0  0  0  0  0  0  0  0  0
  189.2100  177.6800  144.3940 C   0  0  2  0  0  3  0  0  0  0  0  0
  191.4370  177.4620  142.6480 C   0  0  0  0  0  3  0  0  0  0  0  0
  189.4890  176.3520  143.6800 C   0  0  0  0  0  2  0  0  0  0  0  0
  190.4640  176.5490  142.5520 C   0  0  0  0  0  3  0  0  0  0  0  0
  191.5150  178.3480  143.8260 C   0  0  0  0  0  3  0  0  0  0  0  0
  190.4860  178.4290  144.6770 C   0  0  0  0  0  3  0  0  0  0  0  0
  184.9670  178.4650  141.0370 C   0  0  0  0  0  2  0  0  0  0  0  0
  183.6190  178.7300  140.5620 N   0  0  0  0  0  2  0  0  0  0  0  0
  183.3540  179.6720  139.5200 C   0  0  0  0  0  0  0  0  0  0  0  0
  184.3020  180.3060  138.9830 O   0  0  0  0  0  0  0  0  0  0  0  0
  181.9720  179.8990  139.0780 C   0  0  0  0  0  0  0  0  0  0  0  0
  181.6820  180.9290  138.1380 N   0  0  0  0  0  2  0  0  0  0  0  0
  181.0110  179.1690  139.5380 N   0  0  0  0  0  1  0  0  0  0  0  0
  1  3  1  0  0  0  0
  2 10  1  0  0  0  0
  2  1  2  0  0  0  0
  4  3  1  0  0  0  0
  5  6  2  0  0  0  0
  5 10  1  0  0  0  0
  7  2  1  0  0  0  0
  8  5  1  0  0  0  0
  9  8  2  0  0  0  0
  9  7  1  0  0  0  0
 10  4  2  0  0  0  0
 11  1  1  0  0  0  0
 11 12  2  0  0  0  0
 13 18  1  0  0  0  0
 13 11  1  1  0  0  0
 14 17  1  0  0  0  0
 15 13  1  0  0  0  0
 16 14  2  0  0  0  0
 16 15  1  0  0  0  0
 17 18  2  0  0  0  0
 19  9  1  0  0  0  0
 20 19  1  0  0  0  0
 21 20  1  0  0  0  0
 22 21  2  0  0  0  0
 23 21  1  0  0  0  0
 23 25  1  0  0  0  0
 24 23  2  0  0  0  0
M  END
>  <MODEL>
7

>  <REMARK>
 VINA RESULT:      -8.3      3.485      5.364
  Name = 
  5 active torsions:
  status: ('A' for Active; 'I' for Inactive)
    1  A    between atoms: C_1  and  C_18
    2  A    between atoms: C_2  and  C_21
    3  A    between atoms: C_5  and  C_18
    4  A    between atoms: C_6  and  N_15
    5  A    between atoms: C_6  and  C_23
                            x       y       z     vdW  Elec       q    Type
                         _______ _______ _______ _____ _____    ______ ____

>  <TORSDO>
F 5

$$$$
=
 OpenBabel11052412513D

 25 27  0  0  1  0  0  0  0  0999 V2000
  186.3880  178.3220  146.5500 C   0  0  0  0  0  0  0  0  0  0  0  0
  186.0670  178.3830  145.2080 C   0  0  0  0  0  0  0  0  0  0  0  0
  185.2720  178.5710  147.2730 N   0  0  0  0  0  2  0  0  0  0  0  0
  184.2590  178.7860  146.4410 N   0  0  0  0  0  0  0  0  0  0  0  0
  184.0280  178.8130  143.9320 C   0  0  0  0  0  0  0  0  0  0  0  0
  182.7990  179.0760  143.8990 O   0  0  0  0  0  0  0  0  0  0  0  0
  186.8850  178.1850  143.9660 C   0  0  0  0  0  2  0  0  0  0  0  0
  184.7760  178.6400  142.7190 N   0  0  0  0  0  0  0  0  0  0  0  0
  186.0580  178.3710  142.7000 C   0  0  0  0  0  0  0  0  0  0  0  0
  184.7410  178.6720  145.1910 C   0  0  0  0  0  0  0  0  0  0  0  0
  187.7020  178.0340  147.1500 C   0  0  0  0  0  0  0  0  0  0  0  0
  187.9080  178.3290  148.3570 O   0  0  0  0  0  0  0  0  0  0  0  0
  188.7910  177.3970  146.3450 C   0  0  2  0  0  3  0  0  0  0  0  0
  191.4290  177.0130  145.3720 C   0  0  0  0  0  3  0  0  0  0  0  0
  189.8490  176.7560  147.2520 C   0  0  0  0  0  2  0  0  0  0  0  0
  191.0420  176.3170  146.4460 C   0  0  0  0  0  3  0  0  0  0  0  0
  190.6400  178.1720  144.9100 C   0  0  0  0  0  3  0  0  0  0  0  0
  189.4110  178.3850  145.3910 C   0  0  0  0  0  3  0  0  0  0  0  0
  186.7330  178.1870  141.3880 C   0  0  0  0  0  2  0  0  0  0  0  0
  188.0310  177.5650  141.5910 N   0  0  0  0  0  2  0  0  0  0  0  0
  189.1060  177.7360  140.6650 C   0  0  0  0  0  0  0  0  0  0  0  0
  188.9470  178.4420  139.6320 O   0  0  0  0  0  0  0  0  0  0  0  0
  190.3980  177.0860  140.9200 C   0  0  0  0  0  0  0  0  0  0  0  0
  190.5160  176.1090  141.9500 N   0  0  0  0  0  1  0  0  0  0  0  0
  191.4360  177.3960  140.2150 N   0  0  0  0  0  2  0  0  0  0  0  0
  1 11  1  0  0  0  0
  1  3  1  0  0  0  0
  2  1  2  0  0  0  0
  4  3  1  0  0  0  0
  5 10  1  0  0  0  0
  6  5  2  0  0  0  0
  7  2  1  0  0  0  0
  8  5  1  0  0  0  0
  9  8  2  0  0  0  0
  9  7  1  0  0  0  0
 10  2  1  0  0  0  0
 10  4  2  0  0  0  0
 11 12  2  0  0  0  0
 13 11  1  1  0  0  0
 13 15  1  0  0  0  0
 14 16  2  0  0  0  0
 16 15  1  0  0  0  0
 17 14  1  0  0  0  0
 17 18  2  0  0  0  0
 18 13  1  0  0  0  0
 19 20  1  0  0  0  0
 19  9  1  0  0  0  0
 21 23  1  0  0  0  0
 21 20  1  0  0  0  0
 22 21  2  0  0  0  0
 23 24  1  0  0  0  0
 25 23  2  0  0  0  0
M  END
>  <MODEL>
8

>  <REMARK>
 VINA RESULT:      -8.2      3.218      5.641
  Name = 
  5 active torsions:
  status: ('A' for Active; 'I' for Inactive)
    1  A    between atoms: C_1  and  C_18
    2  A    between atoms: C_2  and  C_21
    3  A    between atoms: C_5  and  C_18
    4  A    between atoms: C_6  and  N_15
    5  A    between atoms: C_6  and  C_23
                            x       y       z     vdW  Elec       q    Type
                         _______ _______ _______ _____ _____    ______ ____

>  <TORSDO>
F 5

$$$$
=
 OpenBabel11052412513D

 25 27  0  0  1  0  0  0  0  0999 V2000
  190.4030  177.7420  142.4690 C   0  0  0  0  0  0  0  0  0  0  0  0
  189.3660  177.8920  141.5690 C   0  0  0  0  0  0  0  0  0  0  0  0
  191.4340  177.1310  141.8420 N   0  0  0  0  0  2  0  0  0  0  0  0
  191.0900  176.8890  140.5820 N   0  0  0  0  0  0  0  0  0  0  0  0
  189.0170  177.3280  139.2180 C   0  0  0  0  0  0  0  0  0  0  0  0
  189.4410  176.8340  138.1410 O   0  0  0  0  0  0  0  0  0  0  0  0
  188.0000  178.4990  141.6980 C   0  0  0  0  0  2  0  0  0  0  0  0
  187.7000  177.8900  139.3000 N   0  0  0  0  0  0  0  0  0  0  0  0
  187.2100  178.4110  140.3980 C   0  0  0  0  0  0  0  0  0  0  0  0
  189.8390  177.3510  140.4170 C   0  0  0  0  0  0  0  0  0  0  0  0
  190.4390  178.1610  143.8800 C   0  0  0  0  0  0  0  0  0  0  0  0
  191.0300  179.2300  144.1930 O   0  0  0  0  0  0  0  0  0  0  0  0
  189.7850  177.3370  144.9430 C   0  0  2  0  0  3  0  0  0  0  0  0
  188.7450  176.7530  147.5190 C   0  0  0  0  0  3  0  0  0  0  0  0
  188.4500  177.9510  145.3810 C   0  0  0  0  0  2  0  0  0  0  0  0
  187.9120  177.2440  146.5950 C   0  0  0  0  0  3  0  0  0  0  0  0
  190.2060  176.8210  147.3180 C   0  0  0  0  0  3  0  0  0  0  0  0
  190.7070  177.1340  146.1180 C   0  0  0  0  0  3  0  0  0  0  0  0
  185.8420  178.9910  140.3690 C   0  0  0  0  0  2  0  0  0  0  0  0
  185.3790  179.2170  141.7280 N   0  0  0  0  0  2  0  0  0  0  0  0
  184.2680  178.5050  142.2790 C   0  0  0  0  0  0  0  0  0  0  0  0
  183.6530  177.6520  141.5830 O   0  0  0  0  0  0  0  0  0  0  0  0
  183.8440  178.7720  143.6600 C   0  0  0  0  0  0  0  0  0  0  0  0
  182.4730  179.0200  143.9520 N   0  0  0  0  0  2  0  0  0  0  0  0
  184.7120  178.7860  144.6180 N   0  0  0  0  0  1  0  0  0  0  0  0
  1 11  1  0  0  0  0
  2  7  1  0  0  0  0
  2  1  2  0  0  0  0
  3  1  1  0  0  0  0
  4  3  1  0  0  0  0
  5  8  1  0  0  0  0
  5 10  1  0  0  0  0
  6  5  2  0  0  0  0
  8  9  2  0  0  0  0
  9  7  1  0  0  0  0
 10  4  2  0  0  0  0
 10  2  1  0  0  0  0
 11 12  2  0  0  0  0
 13 11  1  6  0  0  0
 13 15  1  0  0  0  0
 13 18  1  0  0  0  0
 15 16  1  0  0  0  0
 16 14  2  0  0  0  0
 17 14  1  0  0  0  0
 18 17  2  0  0  0  0
 19  9  1  0  0  0  0
 19 20  1  0  0  0  0
 20 21  1  0  0  0  0
 21 23  1  0  0  0  0
 22 21  2  0  0  0  0
 23 24  2  0  0  0  0
 23 25  1  0  0  0  0
M  END
>  <MODEL>
9

>  <REMARK>
 VINA RESULT:      -8.2      2.661      3.276
  Name = 
  5 active torsions:
  status: ('A' for Active; 'I' for Inactive)
    1  A    between atoms: C_1  and  C_18
    2  A    between atoms: C_2  and  C_21
    3  A    between atoms: C_5  and  C_18
    4  A    between atoms: C_6  and  N_15
    5  A    between atoms: C_6  and  C_23
                            x       y       z     vdW  Elec       q    Type
                         _______ _______ _______ _____ _____    ______ ____

>  <TORSDO>
F 5

$$$$
