=
 OpenBabel11052413043D

 31 34  0  0  1  0  0  0  0  0999 V2000
  189.0220  177.9290  141.4250 C   0  0  0  0  0  0  0  0  0  0  0  0
  186.7840  177.6560  144.5440 C   0  0  2  0  0  3  0  0  0  0  0  0
  187.8260  177.5600  145.6570 C   0  0  0  0  0  0  0  0  0  0  0  0
  189.9030  176.6060  146.5010 C   0  0  0  0  0  3  0  0  0  0  0  0
  187.2860  177.9430  143.1340 C   0  0  0  0  0  0  0  0  0  0  0  0
  188.0970  178.3540  140.4700 C   0  0  0  0  0  3  0  0  0  0  0  0
  188.9850  176.7920  145.4680 C   0  0  0  0  0  3  0  0  0  0  0  0
  184.4950  178.4260  143.8720 C   0  0  1  0  0  3  0  0  0  0  0  0
  190.3430  177.7110  141.0640 O   0  0  0  0  0  1  0  0  0  0  0  0
  186.2850  178.8210  147.2460 C   0  0  0  0  0  2  0  0  0  0  0  0
  189.6620  177.1630  147.7560 C   0  0  0  0  0  3  0  0  0  0  0  0
  184.9950  178.6190  142.5120 N   0  0  0  0  0  2  0  0  0  0  0  0
  185.6280  178.6150  144.8860 C   0  0  1  0  0  3  0  0  0  0  0  0
  188.6160  177.7180  142.7460 C   0  0  0  0  0  3  0  0  0  0  0  0
  188.2640  178.4220  149.2510 O   0  0  0  0  0  1  0  0  0  0  0  0
  186.3560  178.3560  142.1540 C   0  0  0  0  0  0  0  0  0  0  0  0
  186.7670  178.5680  140.8350 C   0  0  0  0  0  3  0  0  0  0  0  0
  185.1620  178.3940  146.3150 C   0  0  0  0  0  2  0  0  0  0  0  0
  187.5540  178.0670  146.9550 C   0  0  0  0  0  0  0  0  0  0  0  0
  188.4920  177.8900  147.9870 C   0  0  0  0  0  0  0  0  0  0  0  0
  183.3080  179.3560  144.1210 C   0  0  0  0  0  2  0  0  0  0  0  0
  181.9750  178.6380  143.9450 C   0  0  0  0  0  2  0  0  0  0  0  0
  181.1480  179.3130  142.8630 C   0  0  0  0  0  2  0  0  0  0  0  0
  181.4970  178.7460  141.4970 C   0  0  0  0  0  2  0  0  0  0  0  0
  180.4910  179.2010  140.4530 C   0  0  0  0  0  2  0  0  0  0  0  0
  180.9570  181.2860  138.8160 S   0  0  0  0  0  0  0  0  0  0  0  0
  181.2000  179.7240  139.2550 C   0  0  0  0  0  0  0  0  0  0  0  0
  183.6190  179.0690  138.6720 C   0  0  0  0  0  0  0  0  0  0  0  0
  184.1450  180.0830  139.2010 O   0  0  0  0  0  0  0  0  0  0  0  0
  184.6660  177.8300  137.9250 S   0  0  0  0  0  1  0  0  0  0  0  0
  182.1970  178.8980  138.6350 N   0  0  0  0  0  2  0  0  0  0  0  0
  1 14  1  0  0  0  0
  2  5  1  6  0  0  0
  2 13  1  0  0  0  0
  2  3  1  0  0  0  0
  3 19  1  0  0  0  0
  4 11  2  0  0  0  0
  6 17  1  0  0  0  0
  6  1  2  0  0  0  0
  7  3  2  0  0  0  0
  7  4  1  0  0  0  0
  8 21  1  1  0  0  0
  8 13  1  0  0  0  0
  9  1  1  0  0  0  0
 11 20  1  0  0  0  0
 12  8  1  0  0  0  0
 13 18  1  1  0  0  0
 14  5  2  0  0  0  0
 16 12  1  0  0  0  0
 16  5  1  0  0  0  0
 17 16  2  0  0  0  0
 18 10  1  0  0  0  0
 19 10  1  0  0  0  0
 19 20  2  0  0  0  0
 20 15  1  0  0  0  0
 22 21  1  0  0  0  0
 23 22  1  0  0  0  0
 24 23  1  0  0  0  0
 25 24  1  0  0  0  0
 26 27  2  0  0  0  0
 27 25  1  0  0  0  0
 28 29  2  0  0  0  0
 30 28  1  0  0  0  0
 31 28  1  0  0  0  0
 31 27  1  0  0  0  0
M  END
>  <MODEL>
1

>  <REMARK>
 VINA RESULT:      -9.4      0.000      0.000
  Name = 
  7 active torsions:
  status: ('A' for Active; 'I' for Inactive)
    1  A    between atoms: C_3  and  C_19
    2  A    between atoms: C_3  and  C_22
    3  A    between atoms: C_7  and  C_9
    4  A    between atoms: C_7  and  C_22
    5  A    between atoms: C_9  and  C_23
    6  A    between atoms: C_15  and  C_23
    7  A    between atoms: C_19  and  N_24
                            x       y       z     vdW  Elec       q    Type
                         _______ _______ _______ _____ _____    ______ ____

>  <TORSDO>
F 7

$$$$
=
 OpenBabel11052413043D

 31 34  0  0  1  0  0  0  0  0999 V2000
  188.9780  177.8710  140.4430 C   0  0  0  0  0  0  0  0  0  0  0  0
  188.1250  177.1100  144.1180 C   0  0  2  0  0  3  0  0  0  0  0  0
  189.5120  176.8650  144.7060 C   0  0  0  0  0  0  0  0  0  0  0  0
  191.7090  175.8270  144.5240 C   0  0  0  0  0  3  0  0  0  0  0  0
  188.0490  177.6080  142.6800 C   0  0  0  0  0  0  0  0  0  0  0  0
  187.7740  178.4190  139.9970 C   0  0  0  0  0  3  0  0  0  0  0  0
  190.4700  176.1500  143.9710 C   0  0  0  0  0  3  0  0  0  0  0  0
  185.7920  177.9370  144.5140 C   0  0  1  0  0  3  0  0  0  0  0  0
  190.0430  177.7280  139.5650 O   0  0  0  0  0  1  0  0  0  0  0  0
  188.7720  177.8560  146.9340 C   0  0  0  0  0  2  0  0  0  0  0  0
  192.0020  176.1890  145.8380 C   0  0  0  0  0  3  0  0  0  0  0  0
  185.7300  178.3360  143.1090 N   0  0  0  0  0  2  0  0  0  0  0  0
  187.2380  177.9910  145.0180 C   0  0  1  0  0  3  0  0  0  0  0  0
  189.1110  177.4620  141.7730 C   0  0  0  0  0  3  0  0  0  0  0  0
  191.3570  177.1940  147.9230 O   0  0  0  0  0  1  0  0  0  0  0  0
  186.8300  178.1480  142.2120 C   0  0  0  0  0  0  0  0  0  0  0  0
  186.7030  178.5580  140.8820 C   0  0  0  0  0  3  0  0  0  0  0  0
  187.3570  177.5550  146.4680 C   0  0  0  0  0  2  0  0  0  0  0  0
  189.7920  177.1710  146.0650 C   0  0  0  0  0  0  0  0  0  0  0  0
  191.0490  176.8570  146.6090 C   0  0  0  0  0  0  0  0  0  0  0  0
  184.8390  178.8030  145.3370 C   0  0  0  0  0  2  0  0  0  0  0  0
  183.7830  179.4740  144.4670 C   0  0  0  0  0  2  0  0  0  0  0  0
  182.4700  178.7140  144.5450 C   0  0  0  0  0  2  0  0  0  0  0  0
  181.6030  179.0250  143.3360 C   0  0  0  0  0  2  0  0  0  0  0  0
  180.1480  178.6890  143.6170 C   0  0  0  0  0  2  0  0  0  0  0  0
  179.1600  180.1110  141.5570 S   0  0  0  0  0  0  0  0  0  0  0  0
  179.3700  178.6900  142.3490 C   0  0  0  0  0  0  0  0  0  0  0  0
  179.7130  176.6380  140.8350 C   0  0  0  0  0  0  0  0  0  0  0  0
  180.7760  177.0580  140.3080 O   0  0  0  0  0  0  0  0  0  0  0  0
  179.0820  175.0330  140.3710 S   0  0  0  0  0  1  0  0  0  0  0  0
  178.9840  177.4290  141.7820 N   0  0  0  0  0  2  0  0  0  0  0  0
  1 14  1  0  0  0  0
  2  5  1  6  0  0  0
  2  3  1  0  0  0  0
  2 13  1  0  0  0  0
  3 19  1  0  0  0  0
  4 11  2  0  0  0  0
  6  1  2  0  0  0  0
  6 17  1  0  0  0  0
  7  4  1  0  0  0  0
  7  3  2  0  0  0  0
  8 13  1  0  0  0  0
  8 21  1  1  0  0  0
  9  1  1  0  0  0  0
 11 20  1  0  0  0  0
 12  8  1  0  0  0  0
 13 18  1  1  0  0  0
 14  5  2  0  0  0  0
 16  5  1  0  0  0  0
 16 12  1  0  0  0  0
 17 16  2  0  0  0  0
 18 10  1  0  0  0  0
 19 20  2  0  0  0  0
 19 10  1  0  0  0  0
 20 15  1  0  0  0  0
 22 23  1  0  0  0  0
 22 21  1  0  0  0  0
 24 25  1  0  0  0  0
 24 23  1  0  0  0  0
 26 27  2  0  0  0  0
 27 25  1  0  0  0  0
 28 31  1  0  0  0  0
 29 28  2  0  0  0  0
 30 28  1  0  0  0  0
 31 27  1  0  0  0  0
M  END
>  <MODEL>
2

>  <REMARK>
 VINA RESULT:      -9.3      2.355      2.849
  Name = 
  7 active torsions:
  status: ('A' for Active; 'I' for Inactive)
    1  A    between atoms: C_3  and  C_19
    2  A    between atoms: C_3  and  C_22
    3  A    between atoms: C_7  and  C_9
    4  A    between atoms: C_7  and  C_22
    5  A    between atoms: C_9  and  C_23
    6  A    between atoms: C_15  and  C_23
    7  A    between atoms: C_19  and  N_24
                            x       y       z     vdW  Elec       q    Type
                         _______ _______ _______ _____ _____    ______ ____

>  <TORSDO>
F 7

$$$$
=
 OpenBabel11052413043D

 31 34  0  0  1  0  0  0  0  0999 V2000
  190.4350  177.1200  146.4140 C   0  0  0  0  0  0  0  0  0  0  0  0
  187.7070  177.3330  143.7090 C   0  0  2  0  0  3  0  0  0  0  0  0
  186.5380  177.9130  144.5020 C   0  0  0  0  0  0  0  0  0  0  0  0
  185.1780  177.9150  146.5240 C   0  0  0  0  0  3  0  0  0  0  0  0
  189.0570  177.2440  144.4090 C   0  0  0  0  0  0  0  0  0  0  0  0
  191.5730  176.9210  145.6310 C   0  0  0  0  0  3  0  0  0  0  0  0
  186.2940  177.4760  145.8130 C   0  0  0  0  0  3  0  0  0  0  0  0
  188.8610  177.1660  141.4900 C   0  0  1  0  0  3  0  0  0  0  0  0
  190.5430  177.1630  147.7960 O   0  0  0  0  0  1  0  0  0  0  0  0
  185.7260  179.1700  142.4400 C   0  0  0  0  0  2  0  0  0  0  0  0
  184.2650  178.7800  145.9230 C   0  0  0  0  0  3  0  0  0  0  0  0
  190.1300  177.0100  142.1990 N   0  0  0  0  0  2  0  0  0  0  0  0
  187.8830  177.9950  142.3300 C   0  0  1  0  0  3  0  0  0  0  0  0
  189.1860  177.2730  145.8070 C   0  0  0  0  0  3  0  0  0  0  0  0
  183.5230  180.0410  144.0170 O   0  0  0  0  0  1  0  0  0  0  0  0
  190.2140  177.0240  143.6280 C   0  0  0  0  0  0  0  0  0  0  0  0
  191.4610  176.8740  144.2400 C   0  0  0  0  0  3  0  0  0  0  0  0
  186.5360  178.1590  141.6450 C   0  0  0  0  0  2  0  0  0  0  0  0
  185.5690  178.7400  143.8740 C   0  0  0  0  0  0  0  0  0  0  0  0
  184.4550  179.1910  144.6020 C   0  0  0  0  0  0  0  0  0  0  0  0
  189.1150  177.7620  140.1060 C   0  0  0  0  0  2  0  0  0  0  0  0
  190.5200  177.4550  139.6020 C   0  0  0  0  0  2  0  0  0  0  0  0
  190.5190  176.1790  138.7760 C   0  0  0  0  0  2  0  0  0  0  0  0
  191.5270  176.2800  137.6420 C   0  0  0  0  0  2  0  0  0  0  0  0
  192.9470  176.2680  138.1830 C   0  0  0  0  0  2  0  0  0  0  0  0
  192.8750  173.9730  136.7780 S   0  0  0  0  0  0  0  0  0  0  0  0
  193.7010  175.1210  137.6090 C   0  0  0  0  0  0  0  0  0  0  0  0
  196.0060  174.2720  138.3750 C   0  0  0  0  0  0  0  0  0  0  0  0
  195.5530  173.3980  139.1600 O   0  0  0  0  0  0  0  0  0  0  0  0
  197.7730  174.4360  138.1750 S   0  0  0  0  0  1  0  0  0  0  0  0
  195.1360  175.1540  137.6550 N   0  0  0  0  0  2  0  0  0  0  0  0
  1  9  1  0  0  0  0
  2  5  1  1  0  0  0
  2  3  1  0  0  0  0
  3  7  1  0  0  0  0
  5 14  2  0  0  0  0
  6  1  2  0  0  0  0
  7  4  2  0  0  0  0
  8 21  1  6  0  0  0
  8 12  1  0  0  0  0
  8 13  1  0  0  0  0
 10 19  1  0  0  0  0
 11  4  1  0  0  0  0
 12 16  1  0  0  0  0
 13 18  1  6  0  0  0
 13  2  1  0  0  0  0
 14  1  1  0  0  0  0
 15 20  1  0  0  0  0
 16 17  2  0  0  0  0
 16  5  1  0  0  0  0
 17  6  1  0  0  0  0
 18 10  1  0  0  0  0
 19  3  2  0  0  0  0
 19 20  1  0  0  0  0
 20 11  2  0  0  0  0
 22 21  1  0  0  0  0
 23 22  1  0  0  0  0
 24 25  1  0  0  0  0
 24 23  1  0  0  0  0
 26 27  2  0  0  0  0
 27 31  1  0  0  0  0
 27 25  1  0  0  0  0
 28 29  2  0  0  0  0
 30 28  1  0  0  0  0
 31 28  1  0  0  0  0
M  END
>  <MODEL>
3

>  <REMARK>
 VINA RESULT:      -9.2      4.854      8.258
  Name = 
  7 active torsions:
  status: ('A' for Active; 'I' for Inactive)
    1  A    between atoms: C_3  and  C_19
    2  A    between atoms: C_3  and  C_22
    3  A    between atoms: C_7  and  C_9
    4  A    between atoms: C_7  and  C_22
    5  A    between atoms: C_9  and  C_23
    6  A    between atoms: C_15  and  C_23
    7  A    between atoms: C_19  and  N_24
                            x       y       z     vdW  Elec       q    Type
                         _______ _______ _______ _____ _____    ______ ____

>  <TORSDO>
F 7

$$$$
=
 OpenBabel11052413043D

 31 34  0  0  1  0  0  0  0  0999 V2000
  190.4990  177.1100  146.3260 C   0  0  0  0  0  0  0  0  0  0  0  0
  187.7980  177.3990  143.6010 C   0  0  2  0  0  3  0  0  0  0  0  0
  186.6120  177.9260  144.4050 C   0  0  0  0  0  0  0  0  0  0  0  0
  185.2290  177.8170  146.4090 C   0  0  0  0  0  3  0  0  0  0  0  0
  189.1420  177.3010  144.3130 C   0  0  0  0  0  0  0  0  0  0  0  0
  191.6490  176.9640  145.5480 C   0  0  0  0  0  3  0  0  0  0  0  0
  186.3600  177.4270  145.6920 C   0  0  0  0  0  3  0  0  0  0  0  0
  188.9800  177.3500  141.3900 C   0  0  1  0  0  3  0  0  0  0  0  0
  190.5910  177.0940  147.7100 O   0  0  0  0  0  1  0  0  0  0  0  0
  185.8020  179.2600  142.3910 C   0  0  0  0  0  2  0  0  0  0  0  0
  184.3090  178.6930  145.8350 C   0  0  0  0  0  3  0  0  0  0  0  0
  190.2430  177.1820  142.1070 N   0  0  0  0  0  2  0  0  0  0  0  0
  187.9790  178.1250  142.2540 C   0  0  1  0  0  3  0  0  0  0  0  0
  189.2550  177.2710  145.7120 C   0  0  0  0  0  3  0  0  0  0  0  0
  183.5680  180.0260  143.9780 O   0  0  0  0  0  1  0  0  0  0  0  0
  190.3110  177.1340  143.5360 C   0  0  0  0  0  0  0  0  0  0  0  0
  191.5540  176.9770  144.1550 C   0  0  0  0  0  3  0  0  0  0  0  0
  186.6380  178.2970  141.5620 C   0  0  0  0  0  2  0  0  0  0  0  0
  185.6370  178.7640  143.8020 C   0  0  0  0  0  0  0  0  0  0  0  0
  184.5070  179.1650  144.5360 C   0  0  0  0  0  0  0  0  0  0  0  0
  189.2400  178.0100  140.0370 C   0  0  0  0  0  2  0  0  0  0  0  0
  189.7270  177.0080  138.9980 C   0  0  0  0  0  2  0  0  0  0  0  0
  188.9320  177.1510  137.7100 C   0  0  0  0  0  2  0  0  0  0  0  0
  187.4530  176.9150  137.9700 C   0  0  0  0  0  2  0  0  0  0  0  0
  186.6270  178.0910  137.4790 C   0  0  0  0  0  2  0  0  0  0  0  0
  184.7820  177.0120  135.8430 S   0  0  0  0  0  0  0  0  0  0  0  0
  185.2130  177.6740  137.2800 C   0  0  0  0  0  0  0  0  0  0  0  0
  183.9460  178.8480  139.1880 C   0  0  0  0  0  0  0  0  0  0  0  0
  184.4740  179.9760  139.0010 O   0  0  0  0  0  0  0  0  0  0  0  0
  182.7210  178.6580  140.4720 S   0  0  0  0  0  1  0  0  0  0  0  0
  184.3250  177.7070  138.4080 N   0  0  0  0  0  2  0  0  0  0  0  0
  1  9  1  0  0  0  0
  2  5  1  1  0  0  0
  2  3  1  0  0  0  0
  3  7  1  0  0  0  0
  5 14  2  0  0  0  0
  6  1  2  0  0  0  0
  7  4  2  0  0  0  0
  8 21  1  6  0  0  0
  8 12  1  0  0  0  0
  8 13  1  0  0  0  0
 10 19  1  0  0  0  0
 11  4  1  0  0  0  0
 12 16  1  0  0  0  0
 13 18  1  6  0  0  0
 13  2  1  0  0  0  0
 14  1  1  0  0  0  0
 15 20  1  0  0  0  0
 16 17  2  0  0  0  0
 16  5  1  0  0  0  0
 17  6  1  0  0  0  0
 18 10  1  0  0  0  0
 19  3  2  0  0  0  0
 19 20  1  0  0  0  0
 20 11  2  0  0  0  0
 22 21  1  0  0  0  0
 23 24  1  0  0  0  0
 23 22  1  0  0  0  0
 25 24  1  0  0  0  0
 26 27  2  0  0  0  0
 27 25  1  0  0  0  0
 27 31  1  0  0  0  0
 28 30  1  0  0  0  0
 29 28  2  0  0  0  0
 31 28  1  0  0  0  0
M  END
>  <MODEL>
4

>  <REMARK>
 VINA RESULT:      -9.1      2.393      5.335
  Name = 
  7 active torsions:
  status: ('A' for Active; 'I' for Inactive)
    1  A    between atoms: C_3  and  C_19
    2  A    between atoms: C_3  and  C_22
    3  A    between atoms: C_7  and  C_9
    4  A    between atoms: C_7  and  C_22
    5  A    between atoms: C_9  and  C_23
    6  A    between atoms: C_15  and  C_23
    7  A    between atoms: C_19  and  N_24
                            x       y       z     vdW  Elec       q    Type
                         _______ _______ _______ _____ _____    ______ ____

>  <TORSDO>
F 7

$$$$
=
 OpenBabel11052413043D

 31 34  0  0  1  0  0  0  0  0999 V2000
  189.0530  177.9640  140.3540 C   0  0  0  0  0  0  0  0  0  0  0  0
  188.1160  177.0970  143.9840 C   0  0  2  0  0  3  0  0  0  0  0  0
  189.4910  176.8520  144.6010 C   0  0  0  0  0  0  0  0  0  0  0  0
  191.7030  175.8420  144.4470 C   0  0  0  0  0  3  0  0  0  0  0  0
  188.0710  177.6330  142.5580 C   0  0  0  0  0  0  0  0  0  0  0  0
  187.8550  178.5110  139.8920 C   0  0  0  0  0  3  0  0  0  0  0  0
  190.4740  176.1660  143.8730 C   0  0  0  0  0  3  0  0  0  0  0  0
  185.7640  177.8890  144.3420 C   0  0  1  0  0  3  0  0  0  0  0  0
  190.1410  177.8560  139.5000 O   0  0  0  0  0  1  0  0  0  0  0  0
  188.6840  177.7760  146.8340 C   0  0  0  0  0  2  0  0  0  0  0  0
  191.9590  176.1730  145.7780 C   0  0  0  0  0  3  0  0  0  0  0  0
  185.7330  178.3240  142.9470 N   0  0  0  0  0  2  0  0  0  0  0  0
  187.1970  177.9460  144.8840 C   0  0  1  0  0  3  0  0  0  0  0  0
  189.1570  177.5220  141.6750 C   0  0  0  0  0  3  0  0  0  0  0  0
  191.2500  177.1150  147.8710 O   0  0  0  0  0  1  0  0  0  0  0  0
  186.8580  178.1720  142.0730 C   0  0  0  0  0  0  0  0  0  0  0  0
  186.7600  178.6150  140.7520 C   0  0  0  0  0  3  0  0  0  0  0  0
  187.2840  177.4720  146.3250 C   0  0  0  0  0  2  0  0  0  0  0  0
  189.7330  177.1250  145.9740 C   0  0  0  0  0  0  0  0  0  0  0  0
  190.9790  176.8100  146.5410 C   0  0  0  0  0  0  0  0  0  0  0  0
  184.7820  178.7240  145.1630 C   0  0  0  0  0  2  0  0  0  0  0  0
  183.8390  179.5290  144.2770 C   0  0  0  0  0  2  0  0  0  0  0  0
  182.4200  178.9970  144.3910 C   0  0  0  0  0  2  0  0  0  0  0  0
  181.6110  179.3730  143.1600 C   0  0  0  0  0  2  0  0  0  0  0  0
  182.1130  178.6230  141.9380 C   0  0  0  0  0  2  0  0  0  0  0  0
  179.9260  179.8700  140.9830 S   0  0  0  0  0  0  0  0  0  0  0  0
  181.1830  178.8320  140.7950 C   0  0  0  0  0  0  0  0  0  0  0  0
  182.4960  178.7180  138.5850 C   0  0  0  0  0  0  0  0  0  0  0  0
  183.1100  179.8030  138.7580 O   0  0  0  0  0  0  0  0  0  0  0  0
  182.8250  177.7510  137.1200 S   0  0  0  0  0  1  0  0  0  0  0  0
  181.5190  178.2540  139.5250 N   0  0  0  0  0  2  0  0  0  0  0  0
  1 14  1  0  0  0  0
  2  5  1  6  0  0  0
  2  3  1  0  0  0  0
  2 13  1  0  0  0  0
  3 19  1  0  0  0  0
  4 11  2  0  0  0  0
  6  1  2  0  0  0  0
  6 17  1  0  0  0  0
  7  4  1  0  0  0  0
  7  3  2  0  0  0  0
  8 13  1  0  0  0  0
  8 21  1  1  0  0  0
  9  1  1  0  0  0  0
 11 20  1  0  0  0  0
 12  8  1  0  0  0  0
 13 18  1  1  0  0  0
 14  5  2  0  0  0  0
 16  5  1  0  0  0  0
 16 12  1  0  0  0  0
 17 16  2  0  0  0  0
 18 10  1  0  0  0  0
 19 20  2  0  0  0  0
 19 10  1  0  0  0  0
 20 15  1  0  0  0  0
 22 23  1  0  0  0  0
 22 21  1  0  0  0  0
 24 23  1  0  0  0  0
 25 24  1  0  0  0  0
 27 26  2  0  0  0  0
 27 25  1  0  0  0  0
 28 29  2  0  0  0  0
 28 31  1  0  0  0  0
 30 28  1  0  0  0  0
 31 27  1  0  0  0  0
M  END
>  <MODEL>
5

>  <REMARK>
 VINA RESULT:      -9.0      1.437      1.997
  Name = 
  7 active torsions:
  status: ('A' for Active; 'I' for Inactive)
    1  A    between atoms: C_3  and  C_19
    2  A    between atoms: C_3  and  C_22
    3  A    between atoms: C_7  and  C_9
    4  A    between atoms: C_7  and  C_22
    5  A    between atoms: C_9  and  C_23
    6  A    between atoms: C_15  and  C_23
    7  A    between atoms: C_19  and  N_24
                            x       y       z     vdW  Elec       q    Type
                         _______ _______ _______ _____ _____    ______ ____

>  <TORSDO>
F 7

$$$$
=
 OpenBabel11052413043D

 31 34  0  0  1  0  0  0  0  0999 V2000
  188.8480  178.0090  141.3730 C   0  0  0  0  0  0  0  0  0  0  0  0
  186.6610  177.6040  144.5140 C   0  0  2  0  0  3  0  0  0  0  0  0
  187.7200  177.5310  145.6120 C   0  0  0  0  0  0  0  0  0  0  0  0
  189.8430  176.6450  146.4170 C   0  0  0  0  0  3  0  0  0  0  0  0
  187.1340  177.9300  143.1030 C   0  0  0  0  0  0  0  0  0  0  0  0
  187.8960  178.4120  140.4350 C   0  0  0  0  0  3  0  0  0  0  0  0
  188.9050  176.8110  145.3980 C   0  0  0  0  0  3  0  0  0  0  0  0
  184.3360  178.2950  143.8810 C   0  0  1  0  0  3  0  0  0  0  0  0
  190.1720  177.8480  140.9930 O   0  0  0  0  0  1  0  0  0  0  0  0
  186.1520  178.7080  147.2390 C   0  0  0  0  0  2  0  0  0  0  0  0
  189.5960  177.1740  147.6830 C   0  0  0  0  0  3  0  0  0  0  0  0
  184.8110  178.5270  142.5180 N   0  0  0  0  0  2  0  0  0  0  0  0
  185.4740  178.5130  144.8850 C   0  0  1  0  0  3  0  0  0  0  0  0
  188.4670  177.7630  142.6950 C   0  0  0  0  0  3  0  0  0  0  0  0
  188.1700  178.3560  149.2140 O   0  0  0  0  0  1  0  0  0  0  0  0
  186.1770  178.3220  142.1400 C   0  0  0  0  0  0  0  0  0  0  0  0
  186.5630  178.5690  140.8200 C   0  0  0  0  0  3  0  0  0  0  0  0
  185.0350  178.2520  146.3150 C   0  0  0  0  0  2  0  0  0  0  0  0
  187.4460  178.0080  146.9210 C   0  0  0  0  0  0  0  0  0  0  0  0
  188.4030  177.8510  147.9390 C   0  0  0  0  0  0  0  0  0  0  0  0
  183.1180  179.1750  144.1580 C   0  0  0  0  0  2  0  0  0  0  0  0
  181.8490  178.6010  143.5410 C   0  0  0  0  0  2  0  0  0  0  0  0
  180.8490  179.7100  143.2580 C   0  0  0  0  0  2  0  0  0  0  0  0
  180.4940  179.7410  141.7800 C   0  0  0  0  0  2  0  0  0  0  0  0
  180.8980  178.4420  141.1030 C   0  0  0  0  0  2  0  0  0  0  0  0
  178.9320  178.3050  139.2690 S   0  0  0  0  0  0  0  0  0  0  0  0
  179.6900  177.7290  140.6050 C   0  0  0  0  0  0  0  0  0  0  0  0
  179.6360  175.1600  140.7220 C   0  0  0  0  0  0  0  0  0  0  0  0
  180.1770  174.9810  139.5990 O   0  0  0  0  0  0  0  0  0  0  0  0
  179.2020  173.7430  141.7180 S   0  0  0  0  0  1  0  0  0  0  0  0
  179.3390  176.4740  141.2070 N   0  0  0  0  0  2  0  0  0  0  0  0
  1 14  1  0  0  0  0
  2  5  1  6  0  0  0
  2 13  1  0  0  0  0
  2  3  1  0  0  0  0
  3 19  1  0  0  0  0
  4 11  2  0  0  0  0
  6 17  1  0  0  0  0
  6  1  2  0  0  0  0
  7  3  2  0  0  0  0
  7  4  1  0  0  0  0
  8 21  1  1  0  0  0
  8 13  1  0  0  0  0
  9  1  1  0  0  0  0
 11 20  1  0  0  0  0
 12  8  1  0  0  0  0
 13 18  1  1  0  0  0
 14  5  2  0  0  0  0
 16 12  1  0  0  0  0
 16  5  1  0  0  0  0
 17 16  2  0  0  0  0
 18 10  1  0  0  0  0
 19 10  1  0  0  0  0
 19 20  2  0  0  0  0
 20 15  1  0  0  0  0
 22 21  1  0  0  0  0
 23 22  1  0  0  0  0
 24 23  1  0  0  0  0
 25 24  1  0  0  0  0
 26 27  2  0  0  0  0
 27 25  1  0  0  0  0
 27 31  1  0  0  0  0
 28 31  1  0  0  0  0
 28 30  1  0  0  0  0
 29 28  2  0  0  0  0
M  END
>  <MODEL>
6

>  <REMARK>
 VINA RESULT:      -8.9      2.273      2.440
  Name = 
  7 active torsions:
  status: ('A' for Active; 'I' for Inactive)
    1  A    between atoms: C_3  and  C_19
    2  A    between atoms: C_3  and  C_22
    3  A    between atoms: C_7  and  C_9
    4  A    between atoms: C_7  and  C_22
    5  A    between atoms: C_9  and  C_23
    6  A    between atoms: C_15  and  C_23
    7  A    between atoms: C_19  and  N_24
                            x       y       z     vdW  Elec       q    Type
                         _______ _______ _______ _____ _____    ______ ____

>  <TORSDO>
F 7

$$$$
=
 OpenBabel11052413043D

 31 34  0  0  1  0  0  0  0  0999 V2000
  185.5180  178.1900  145.1460 C   0  0  0  0  0  0  0  0  0  0  0  0
  189.1980  177.8540  144.0750 C   0  0  2  0  0  3  0  0  0  0  0  0
  189.8460  177.3630  145.3680 C   0  0  0  0  0  0  0  0  0  0  0  0
  190.0890  177.5430  147.7860 C   0  0  0  0  0  3  0  0  0  0  0  0
  187.6790  177.9580  144.0460 C   0  0  0  0  0  0  0  0  0  0  0  0
  184.8880  178.3030  143.9050 C   0  0  0  0  0  3  0  0  0  0  0  0
  189.4460  177.9000  146.6010 C   0  0  0  0  0  3  0  0  0  0  0  0
  189.2330  177.8290  141.5680 C   0  0  1  0  0  3  0  0  0  0  0  0
  184.7680  178.2450  146.3120 O   0  0  0  0  0  1  0  0  0  0  0  0
  191.5230  175.9810  144.0360 C   0  0  0  0  0  2  0  0  0  0  0  0
  191.1680  176.6600  147.7550 C   0  0  0  0  0  3  0  0  0  0  0  0
  187.7810  178.0030  141.5800 N   0  0  0  0  0  2  0  0  0  0  0  0
  189.6880  177.0880  142.8310 C   0  0  1  0  0  3  0  0  0  0  0  0
  186.9040  178.0260  145.2140 C   0  0  0  0  0  3  0  0  0  0  0  0
  192.7080  175.2840  146.5270 O   0  0  0  0  0  1  0  0  0  0  0  0
  187.0310  178.0910  142.7960 C   0  0  0  0  0  0  0  0  0  0  0  0
  185.6450  178.2520  142.7330 C   0  0  0  0  0  3  0  0  0  0  0  0
  191.1960  176.9110  142.8790 C   0  0  0  0  0  2  0  0  0  0  0  0
  190.9870  176.5180  145.3360 C   0  0  0  0  0  0  0  0  0  0  0  0
  191.6190  176.1500  146.5370 C   0  0  0  0  0  0  0  0  0  0  0  0
  189.6560  177.1280  140.2790 C   0  0  0  0  0  2  0  0  0  0  0  0
  188.9680  177.7210  139.0550 C   0  0  0  0  0  2  0  0  0  0  0  0
  188.9070  176.6980  137.9330 C   0  0  0  0  0  2  0  0  0  0  0  0
  187.5040  176.6270  137.3540 C   0  0  0  0  0  2  0  0  0  0  0  0
  186.6870  177.8360  137.7770 C   0  0  0  0  0  2  0  0  0  0  0  0
  184.8380  177.0750  135.9750 S   0  0  0  0  0  0  0  0  0  0  0  0
  185.2480  177.6120  137.4690 C   0  0  0  0  0  0  0  0  0  0  0  0
  183.9150  178.8830  139.2660 C   0  0  0  0  0  0  0  0  0  0  0  0
  184.4950  179.9860  139.0830 O   0  0  0  0  0  0  0  0  0  0  0  0
  182.6080  178.7730  140.4770 S   0  0  0  0  0  1  0  0  0  0  0  0
  184.2960  177.7080  138.5400 N   0  0  0  0  0  2  0  0  0  0  0  0
  1 14  1  0  0  0  0
  1  9  1  0  0  0  0
  2  5  1  1  0  0  0
  2  3  1  0  0  0  0
  3  7  1  0  0  0  0
  5 14  2  0  0  0  0
  6  1  2  0  0  0  0
  7  4  2  0  0  0  0
  8 21  1  6  0  0  0
  8 12  1  0  0  0  0
  8 13  1  0  0  0  0
 10 19  1  0  0  0  0
 11  4  1  0  0  0  0
 12 16  1  0  0  0  0
 13 18  1  1  0  0  0
 13  2  1  0  0  0  0
 15 20  1  0  0  0  0
 16  5  1  0  0  0  0
 17 16  2  0  0  0  0
 17  6  1  0  0  0  0
 18 10  1  0  0  0  0
 19  3  2  0  0  0  0
 19 20  1  0  0  0  0
 20 11  2  0  0  0  0
 22 21  1  0  0  0  0
 23 22  1  0  0  0  0
 24 25  1  0  0  0  0
 24 23  1  0  0  0  0
 26 27  2  0  0  0  0
 27 25  1  0  0  0  0
 27 31  1  0  0  0  0
 28 30  1  0  0  0  0
 29 28  2  0  0  0  0
 31 28  1  0  0  0  0
M  END
>  <MODEL>
7

>  <REMARK>
 VINA RESULT:      -8.9      2.426      5.015
  Name = 
  7 active torsions:
  status: ('A' for Active; 'I' for Inactive)
    1  A    between atoms: C_3  and  C_19
    2  A    between atoms: C_3  and  C_22
    3  A    between atoms: C_7  and  C_9
    4  A    between atoms: C_7  and  C_22
    5  A    between atoms: C_9  and  C_23
    6  A    between atoms: C_15  and  C_23
    7  A    between atoms: C_19  and  N_24
                            x       y       z     vdW  Elec       q    Type
                         _______ _______ _______ _____ _____    ______ ____

>  <TORSDO>
F 7

$$$$
=
 OpenBabel11052413043D

 31 34  0  0  1  0  0  0  0  0999 V2000
  191.4160  176.4770  146.6880 C   0  0  0  0  0  0  0  0  0  0  0  0
  189.0980  177.9830  144.0110 C   0  0  2  0  0  3  0  0  0  0  0  0
  189.8640  177.6590  142.7300 C   0  0  0  0  0  0  0  0  0  0  0  0
  191.9760  177.5870  141.5170 C   0  0  0  0  0  3  0  0  0  0  0  0
  189.6270  177.3970  145.3140 C   0  0  0  0  0  0  0  0  0  0  0  0
  190.5710  176.4680  147.7990 C   0  0  0  0  0  3  0  0  0  0  0  0
  191.2610  177.7810  142.6990 C   0  0  0  0  0  3  0  0  0  0  0  0
  186.8610  178.3280  145.0900 C   0  0  1  0  0  3  0  0  0  0  0  0
  192.7220  176.0250  146.8060 O   0  0  0  0  0  1  0  0  0  0  0  0
  187.6740  177.3800  141.4580 C   0  0  0  0  0  2  0  0  0  0  0  0
  191.2990  177.2980  140.3330 C   0  0  0  0  0  3  0  0  0  0  0  0
  187.4250  177.8290  146.3420 N   0  0  0  0  0  2  0  0  0  0  0  0
  187.5880  177.7020  143.8940 C   0  0  1  0  0  3  0  0  0  0  0  0
  190.9480  176.9450  145.4570 C   0  0  0  0  0  3  0  0  0  0  0  0
  189.2490  176.9470  139.1280 O   0  0  0  0  0  1  0  0  0  0  0  0
  188.7860  177.3990  146.4500 C   0  0  0  0  0  0  0  0  0  0  0  0
  189.2570  176.9270  147.6780 C   0  0  0  0  0  3  0  0  0  0  0  0
  187.0550  178.2160  142.5670 C   0  0  0  0  0  2  0  0  0  0  0  0
  189.1770  177.4310  141.5080 C   0  0  0  0  0  0  0  0  0  0  0  0
  189.9050  177.2210  140.3240 C   0  0  0  0  0  0  0  0  0  0  0  0
  185.3530  178.0810  145.0690 C   0  0  0  0  0  2  0  0  0  0  0  0
  184.5870  179.2800  144.5250 C   0  0  0  0  0  2  0  0  0  0  0  0
  183.0890  179.0430  144.6260 C   0  0  0  0  0  2  0  0  0  0  0  0
  182.4740  178.9330  143.2400 C   0  0  0  0  0  2  0  0  0  0  0  0
  183.5470  178.6740  142.1960 C   0  0  0  0  0  2  0  0  0  0  0  0
  181.3260  178.7110  140.6750 S   0  0  0  0  0  0  0  0  0  0  0  0
  182.9160  178.3670  140.8830 C   0  0  0  0  0  0  0  0  0  0  0  0
  184.6410  178.7530  139.0130 C   0  0  0  0  0  0  0  0  0  0  0  0
  184.6760  180.0050  139.1440 O   0  0  0  0  0  0  0  0  0  0  0  0
  185.6890  177.9720  137.7980 S   0  0  0  0  0  1  0  0  0  0  0  0
  183.7600  177.9440  139.8010 N   0  0  0  0  0  2  0  0  0  0  0  0
  1  9  1  0  0  0  0
  1  6  1  0  0  0  0
  2  3  1  6  0  0  0
  2  5  1  0  0  0  0
  4  7  2  0  0  0  0
  5 14  1  0  0  0  0
  5 16  2  0  0  0  0
  7  3  1  0  0  0  0
  8 21  1  6  0  0  0
  8 12  1  0  0  0  0
 10 19  1  0  0  0  0
 10 18  1  0  0  0  0
 11  4  1  0  0  0  0
 12 16  1  0  0  0  0
 13 18  1  6  0  0  0
 13  2  1  0  0  0  0
 13  8  1  0  0  0  0
 14  1  2  0  0  0  0
 15 20  1  0  0  0  0
 16 17  1  0  0  0  0
 17  6  2  0  0  0  0
 19  3  2  0  0  0  0
 20 11  2  0  0  0  0
 20 19  1  0  0  0  0
 22 23  1  0  0  0  0
 22 21  1  0  0  0  0
 24 23  1  0  0  0  0
 25 24  1  0  0  0  0
 26 27  2  0  0  0  0
 27 25  1  0  0  0  0
 28 29  2  0  0  0  0
 28 31  1  0  0  0  0
 30 28  1  0  0  0  0
 31 27  1  0  0  0  0
M  END
>  <MODEL>
8

>  <REMARK>
 VINA RESULT:      -8.8      2.015      4.809
  Name = 
  7 active torsions:
  status: ('A' for Active; 'I' for Inactive)
    1  A    between atoms: C_3  and  C_19
    2  A    between atoms: C_3  and  C_22
    3  A    between atoms: C_7  and  C_9
    4  A    between atoms: C_7  and  C_22
    5  A    between atoms: C_9  and  C_23
    6  A    between atoms: C_15  and  C_23
    7  A    between atoms: C_19  and  N_24
                            x       y       z     vdW  Elec       q    Type
                         _______ _______ _______ _____ _____    ______ ____

>  <TORSDO>
F 7

$$$$
=
 OpenBabel11052413043D

 31 34  0  0  1  0  0  0  0  0999 V2000
  185.1940  178.3160  145.6610 C   0  0  0  0  0  0  0  0  0  0  0  0
  188.7500  177.9640  144.2310 C   0  0  2  0  0  3  0  0  0  0  0  0
  189.5090  177.4170  145.4380 C   0  0  0  0  0  0  0  0  0  0  0  0
  189.9830  177.5060  147.8270 C   0  0  0  0  0  3  0  0  0  0  0  0
  187.2370  178.0920  144.3510 C   0  0  0  0  0  0  0  0  0  0  0  0
  184.4520  178.4820  144.4900 C   0  0  0  0  0  3  0  0  0  0  0  0
  189.2380  177.9150  146.7220 C   0  0  0  0  0  3  0  0  0  0  0  0
  188.5450  178.0300  141.7340 C   0  0  1  0  0  3  0  0  0  0  0  0
  184.5600  178.3390  146.8940 O   0  0  0  0  0  1  0  0  0  0  0  0
  191.0260  176.0610  143.9060 C   0  0  0  0  0  2  0  0  0  0  0  0
  191.0380  176.6090  147.6620 C   0  0  0  0  0  3  0  0  0  0  0  0
  187.1050  178.2250  141.8900 N   0  0  0  0  0  2  0  0  0  0  0  0
  189.1050  177.2370  142.9210 C   0  0  1  0  0  3  0  0  0  0  0  0
  186.5770  178.1290  145.5900 C   0  0  0  0  0  3  0  0  0  0  0  0
  192.4300  175.2560  146.2460 O   0  0  0  0  0  1  0  0  0  0  0  0
  186.4760  178.2790  143.1750 C   0  0  0  0  0  0  0  0  0  0  0  0
  185.0930  178.4630  143.2500 C   0  0  0  0  0  3  0  0  0  0  0  0
  190.6080  177.0360  142.8170 C   0  0  0  0  0  2  0  0  0  0  0  0
  190.6260  176.5580  145.2690 C   0  0  0  0  0  0  0  0  0  0  0  0
  191.3630  176.1360  146.3890 C   0  0  0  0  0  0  0  0  0  0  0  0
  188.8320  177.3700  140.3860 C   0  0  0  0  0  2  0  0  0  0  0  0
  188.7140  178.3580  139.2310 C   0  0  0  0  0  2  0  0  0  0  0  0
  187.5650  177.9690  138.3160 C   0  0  0  0  0  2  0  0  0  0  0  0
  187.8960  178.3140  136.8720 C   0  0  0  0  0  2  0  0  0  0  0  0
  189.3770  178.1160  136.5990 C   0  0  0  0  0  2  0  0  0  0  0  0
  188.4720  176.1030  135.0580 S   0  0  0  0  0  0  0  0  0  0  0  0
  189.6150  176.7590  136.0350 C   0  0  0  0  0  0  0  0  0  0  0  0
  191.3380  175.3650  137.3420 C   0  0  0  0  0  0  0  0  0  0  0  0
  190.6160  175.2120  138.3620 O   0  0  0  0  0  0  0  0  0  0  0  0
  192.9550  174.6100  137.2950 S   0  0  0  0  0  1  0  0  0  0  0  0
  190.9020  176.1530  136.2280 N   0  0  0  0  0  2  0  0  0  0  0  0
  1  9  1  0  0  0  0
  2  5  1  1  0  0  0
  2  3  1  0  0  0  0
  3  7  1  0  0  0  0
  5 14  2  0  0  0  0
  6  1  2  0  0  0  0
  7  4  2  0  0  0  0
  8 21  1  6  0  0  0
  8 12  1  0  0  0  0
  8 13  1  0  0  0  0
 10 19  1  0  0  0  0
 11  4  1  0  0  0  0
 12 16  1  0  0  0  0
 13 18  1  6  0  0  0
 13  2  1  0  0  0  0
 14  1  1  0  0  0  0
 15 20  1  0  0  0  0
 16 17  2  0  0  0  0
 16  5  1  0  0  0  0
 17  6  1  0  0  0  0
 18 10  1  0  0  0  0
 19  3  2  0  0  0  0
 19 20  1  0  0  0  0
 20 11  2  0  0  0  0
 22 21  1  0  0  0  0
 23 22  1  0  0  0  0
 24 23  1  0  0  0  0
 25 24  1  0  0  0  0
 26 27  2  0  0  0  0
 27 31  1  0  0  0  0
 27 25  1  0  0  0  0
 28 29  2  0  0  0  0
 30 28  1  0  0  0  0
 31 28  1  0  0  0  0
M  END
>  <MODEL>
9

>  <REMARK>
 VINA RESULT:      -8.8      3.594      6.213
  Name = 
  7 active torsions:
  status: ('A' for Active; 'I' for Inactive)
    1  A    between atoms: C_3  and  C_19
    2  A    between atoms: C_3  and  C_22
    3  A    between atoms: C_7  and  C_9
    4  A    between atoms: C_7  and  C_22
    5  A    between atoms: C_9  and  C_23
    6  A    between atoms: C_15  and  C_23
    7  A    between atoms: C_19  and  N_24
                            x       y       z     vdW  Elec       q    Type
                         _______ _______ _______ _____ _____    ______ ____

>  <TORSDO>
F 7

$$$$
