=
 OpenBabel11052415293D

 37 42  0  0  1  0  0  0  0  0999 V2000
  182.3990  179.4490  137.1090 O   0  0  0  0  0  0  0  0  0  0  0  0
  185.8400  177.8000  139.2070 C   0  0  1  0  0  3  0  0  0  0  0  0
  181.1610  179.1160  136.5230 C   0  0  1  0  0  3  0  0  0  0  0  0
  182.6380  177.8740  141.2900 C   0  0  0  0  0  2  0  0  0  0  0  0
  184.4880  178.3670  139.5990 C   0  0  2  0  0  3  0  0  0  0  0  0
  185.7630  177.5240  137.7020 C   0  0  1  0  0  3  0  0  0  0  0  0
  184.1490  177.9590  141.0360 C   0  0  1  0  0  3  0  0  0  0  0  0
  180.2120  178.8010  137.5150 O   0  0  0  0  0  0  0  0  0  0  0  0
  184.2830  177.3690  137.3810 C   0  0  2  0  0  3  0  0  0  0  0  0
  187.1090  178.5180  140.9170 C   0  0  0  0  0  2  0  0  0  0  0  0
  180.9690  178.3860  138.6100 C   0  0  2  0  0  0  0  0  0  0  0  0
  181.8830  179.1600  140.9410 C   0  0  0  0  0  2  0  0  0  0  0  0
  186.8710  178.6900  139.5470 O   0  0  0  0  0  0  0  0  0  0  0  0
  183.5000  177.7710  138.6250 C   0  0  2  0  0  3  0  0  0  0  0  0
  184.8730  178.7860  142.1300 C   0  0  2  0  0  3  0  0  0  0  0  0
  181.6030  179.5050  139.4530 C   0  0  1  0  0  3  0  0  0  0  0  0
  182.3870  178.7870  138.3360 C   0  0  1  0  0  0  0  0  0  0  0  0
  186.1960  179.4500  141.7130 C   0  0  0  0  0  2  0  0  0  0  0  0
  187.1050  176.7050  143.7660 N   0  0  0  0  0  1  0  0  0  0  0  0
  185.0680  178.0140  143.4440 C   0  0  2  0  0  3  0  0  0  0  0  0
  184.2070  178.5550  144.5910 C   0  0  0  0  0  2  0  0  0  0  0  0
  184.8820  179.1070  146.8360 O   0  0  0  0  0  0  0  0  0  0  0  0
  186.5140  178.4060  145.3110 N   0  0  0  0  0  2  0  0  0  0  0  0
  185.1880  178.7180  145.6790 C   0  0  0  0  0  0  0  0  0  0  0  0
  186.5320  178.0310  143.9100 C   0  0  1  0  0  3  0  0  0  0  0  0
  180.7300  176.9700  139.1370 C   0  0  0  0  0  2  0  0  0  0  0  0
  180.2710  176.0660  138.0090 C   0  0  0  0  0  1  0  0  0  0  0  0
  180.6880  181.4530  136.4540 O   0  0  0  0  0  1  0  0  0  0  0  0
  180.6540  180.2830  135.6970 C   0  0  0  0  0  2  0  0  0  0  0  0
  183.9510  175.9630  136.9800 C   0  0  0  0  0  0  0  0  0  0  0  0
  183.5640  175.7270  135.7270 C   0  0  0  0  0  2  0  0  0  0  0  0
  183.8110  174.8820  138.0130 C   0  0  0  0  0  2  0  0  0  0  0  0
  184.2490  173.5310  137.4700 C   0  0  0  0  0  2  0  0  0  0  0  0
  185.4120  173.1090  138.1130 O   0  0  0  0  0  1  0  0  0  0  0  0
  186.3240  178.6540  136.8460 C   0  0  0  0  0  2  0  0  0  0  0  0
  187.0830  178.0880  135.6610 C   0  0  0  0  0  2  0  0  0  0  0  0
  187.7000  176.7610  136.0460 C   0  0  0  0  0  1  0  0  0  0  0  0
  1 17  1  0  0  0  0
  2 13  1  6  0  0  0
  2  5  1  0  0  0  0
  3 29  1  1  0  0  0
  3  1  1  0  0  0  0
  3  8  1  0  0  0  0
  5  7  1  0  0  0  0
  6  2  1  0  0  0  0
  7  4  1  0  0  0  0
  7 15  1  0  0  0  0
  8 11  1  0  0  0  0
  9  6  1  0  0  0  0
  9 14  1  0  0  0  0
 10 18  1  0  0  0  0
 11 26  1  0  0  0  0
 11 16  1  0  0  0  0
 12  4  1  0  0  0  0
 13 10  1  0  0  0  0
 14  5  1  0  0  0  0
 15 20  1  0  0  0  0
 16 12  1  0  0  0  0
 17 11  1  0  0  0  0
 17 14  1  0  0  0  0
 17 16  1  0  0  0  0
 18 15  1  0  0  0  0
 19 25  1  0  0  0  0
 20 25  1  0  0  0  0
 20 21  1  0  0  0  0
 21 24  1  0  0  0  0
 23 24  1  0  0  0  0
 24 22  2  0  0  0  0
 25 23  1  0  0  0  0
 27 26  1  0  0  0  0
 29 28  1  0  0  0  0
 30  9  1  0  0  0  0
 30 32  1  0  0  0  0
 31 30  2  0  0  0  0
 33 32  1  0  0  0  0
 33 34  1  0  0  0  0
 35  6  1  0  0  0  0
 36 37  1  0  0  0  0
 36 35  1  0  0  0  0
M  END
>  <MODEL>
1

>  <REMARK>
 VINA RESULT:      -5.7      0.000      0.000
  Name = 
  8 active torsions:
  status: ('A' for Active; 'I' for Inactive)
    1  A    between atoms: C_3  and  C_32
    2  A    between atoms: C_5  and  C_23
    3  A    between atoms: C_6  and  C_31
    4  A    between atoms: C_9  and  C_13
    5  A    between atoms: C_9  and  C_16
    6  A    between atoms: C_11  and  C_26
    7  A    between atoms: C_20  and  C_21
    8  A    between atoms: C_21  and  C_32
                            x       y       z     vdW  Elec       q    Type
                         _______ _______ _______ _____ _____    ______ ____

>  <TORSDO>
F 8

$$$$
=
 OpenBabel11052415293D

 37 42  0  0  1  0  0  0  0  0999 V2000
  181.4540  176.0310  139.3570 O   0  0  0  0  0  0  0  0  0  0  0  0
  184.8130  178.7700  139.7710 C   0  0  1  0  0  3  0  0  0  0  0  0
  180.1930  175.8650  138.7510 C   0  0  1  0  0  3  0  0  0  0  0  0
  184.5300  177.1690  136.3140 C   0  0  0  0  0  2  0  0  0  0  0  0
  184.4210  177.6550  138.8190 C   0  0  2  0  0  3  0  0  0  0  0  0
  183.5430  179.1260  140.5520 C   0  0  1  0  0  3  0  0  0  0  0  0
  185.2540  177.7490  137.5370 C   0  0  1  0  0  3  0  0  0  0  0  0
  180.3330  175.6600  137.3630 O   0  0  0  0  0  0  0  0  0  0  0  0
  182.3780  178.6740  139.6820 C   0  0  2  0  0  3  0  0  0  0  0  0
  187.0420  178.4970  139.8450 C   0  0  0  0  0  2  0  0  0  0  0  0
  181.5530  176.2530  137.0390 C   0  0  2  0  0  0  0  0  0  0  0  0
  184.0640  175.7230  136.5060 C   0  0  0  0  0  2  0  0  0  0  0  0
  185.8700  178.3690  140.6030 O   0  0  0  0  0  0  0  0  0  0  0  0
  182.9560  177.8690  138.5250 C   0  0  2  0  0  3  0  0  0  0  0  0
  186.7000  177.2060  137.6640 C   0  0  2  0  0  3  0  0  0  0  0  0
  182.8090  175.4300  137.3740 C   0  0  1  0  0  3  0  0  0  0  0  0
  182.2680  176.5100  138.3310 C   0  0  1  0  0  0  0  0  0  0  0  0
  187.3000  177.2000  139.0810 C   0  0  0  0  0  2  0  0  0  0  0  0
  189.0950  179.6990  137.4640 N   0  0  0  0  0  1  0  0  0  0  0  0
  187.6840  177.8640  136.6850 C   0  0  2  0  0  3  0  0  0  0  0  0
  188.0250  176.9710  135.4870 C   0  0  0  0  0  2  0  0  0  0  0  0
  190.1960  176.4320  134.5940 O   0  0  0  0  0  0  0  0  0  0  0  0
  190.0690  177.7530  136.5220 N   0  0  0  0  0  2  0  0  0  0  0  0
  189.4990  177.0100  135.4660 C   0  0  0  0  0  0  0  0  0  0  0  0
  189.0030  178.2540  137.3680 C   0  0  1  0  0  3  0  0  0  0  0  0
  181.5380  177.3820  136.0090 C   0  0  0  0  0  2  0  0  0  0  0  0
  180.1860  178.0690  136.0100 C   0  0  0  0  0  1  0  0  0  0  0  0
  180.0000  174.4070  140.6290 O   0  0  0  0  0  1  0  0  0  0  0  0
  179.4800  174.6750  139.3630 C   0  0  0  0  0  2  0  0  0  0  0  0
  181.5890  179.8420  139.1700 C   0  0  0  0  0  0  0  0  0  0  0  0
  182.2430  180.9020  138.6980 C   0  0  0  0  0  2  0  0  0  0  0  0
  180.1090  179.9330  139.4100 C   0  0  0  0  0  2  0  0  0  0  0  0
  179.7520  181.1560  140.2410 C   0  0  0  0  0  2  0  0  0  0  0  0
  179.9120  180.8770  141.5980 O   0  0  0  0  0  1  0  0  0  0  0  0
  183.4380  178.4190  141.8990 C   0  0  0  0  0  2  0  0  0  0  0  0
  183.9820  179.3080  143.0010 C   0  0  0  0  0  2  0  0  0  0  0  0
  183.2630  179.0020  144.2960 C   0  0  0  0  0  1  0  0  0  0  0  0
  2  6  1  0  0  0  0
  2 13  1  1  0  0  0
  3  1  1  0  0  0  0
  3 29  1  1  0  0  0
  4 12  1  0  0  0  0
  4  7  1  0  0  0  0
  5  2  1  0  0  0  0
  6 35  1  0  0  0  0
  7 15  1  0  0  0  0
  7  5  1  0  0  0  0
  8  3  1  0  0  0  0
  9  6  1  0  0  0  0
 10 13  1  0  0  0  0
 11  8  1  0  0  0  0
 11 16  1  0  0  0  0
 11 17  1  0  0  0  0
 12 16  1  0  0  0  0
 14  5  1  0  0  0  0
 14  9  1  0  0  0  0
 15 18  1  0  0  0  0
 16 17  1  0  0  0  0
 17 14  1  0  0  0  0
 17  1  1  0  0  0  0
 18 10  1  0  0  0  0
 20 25  1  0  0  0  0
 20 15  1  0  0  0  0
 21 20  1  0  0  0  0
 22 24  2  0  0  0  0
 23 25  1  0  0  0  0
 24 21  1  0  0  0  0
 24 23  1  0  0  0  0
 25 19  1  0  0  0  0
 26 27  1  0  0  0  0
 26 11  1  0  0  0  0
 29 28  1  0  0  0  0
 30 32  1  0  0  0  0
 30  9  1  0  0  0  0
 31 30  2  0  0  0  0
 32 33  1  0  0  0  0
 33 34  1  0  0  0  0
 35 36  1  0  0  0  0
 36 37  1  0  0  0  0
M  END
>  <MODEL>
2

>  <REMARK>
 VINA RESULT:      -4.6      2.889      6.372
  Name = 
  8 active torsions:
  status: ('A' for Active; 'I' for Inactive)
    1  A    between atoms: C_3  and  C_32
    2  A    between atoms: C_5  and  C_23
    3  A    between atoms: C_6  and  C_31
    4  A    between atoms: C_9  and  C_13
    5  A    between atoms: C_9  and  C_16
    6  A    between atoms: C_11  and  C_26
    7  A    between atoms: C_20  and  C_21
    8  A    between atoms: C_21  and  C_32
                            x       y       z     vdW  Elec       q    Type
                         _______ _______ _______ _____ _____    ______ ____

>  <TORSDO>
F 8

$$$$
=
 OpenBabel11052415293D

 37 42  0  0  1  0  0  0  0  0999 V2000
  180.5370  179.8880  137.7230 O   0  0  0  0  0  0  0  0  0  0  0  0
  182.8080  176.4660  136.2770 C   0  0  1  0  0  3  0  0  0  0  0  0
  179.7360  180.3510  138.7860 C   0  0  1  0  0  3  0  0  0  0  0  0
  184.4020  178.2420  139.2610 C   0  0  0  0  0  2  0  0  0  0  0  0
  183.0910  177.6800  137.1420 C   0  0  2  0  0  3  0  0  0  0  0  0
  181.2820  176.3620  136.1790 C   0  0  1  0  0  3  0  0  0  0  0  0
  184.3820  177.4640  137.9380 C   0  0  1  0  0  3  0  0  0  0  0  0
  180.5220  180.5820  139.9340 O   0  0  0  0  0  0  0  0  0  0  0  0
  180.7350  177.0950  137.3970 C   0  0  2  0  0  3  0  0  0  0  0  0
  184.7720  176.2420  135.2090 C   0  0  0  0  0  2  0  0  0  0  0  0
  181.6310  179.7520  139.7760 C   0  0  2  0  0  0  0  0  0  0  0  0
  184.1610  179.7450  139.0930 C   0  0  0  0  0  2  0  0  0  0  0  0
  183.4280  176.5900  135.0240 O   0  0  0  0  0  0  0  0  0  0  0  0
  181.9040  177.8050  138.0670 C   0  0  2  0  0  3  0  0  0  0  0  0
  185.6850  177.6720  137.1240 C   0  0  2  0  0  3  0  0  0  0  0  0
  182.7240  180.2650  138.8210 C   0  0  1  0  0  3  0  0  0  0  0  0
  181.6280  179.2880  138.3510 C   0  0  1  0  0  0  0  0  0  0  0  0
  185.5710  177.4850  135.6010 C   0  0  0  0  0  2  0  0  0  0  0  0
  187.7080  174.9680  136.3620 N   0  0  0  0  0  1  0  0  0  0  0  0
  186.8720  176.8600  137.6610 C   0  0  2  0  0  3  0  0  0  0  0  0
  187.7090  177.6280  138.6900 C   0  0  0  0  0  2  0  0  0  0  0  0
  190.1000  177.9050  138.7660 O   0  0  0  0  0  0  0  0  0  0  0  0
  189.1590  176.7450  136.9630 N   0  0  0  0  0  2  0  0  0  0  0  0
  189.0820  177.4560  138.1800 C   0  0  0  0  0  0  0  0  0  0  0  0
  187.8150  176.4050  136.5370 C   0  0  1  0  0  3  0  0  0  0  0  0
  181.8850  178.7010  140.8560 C   0  0  0  0  0  2  0  0  0  0  0  0
  180.6120  178.4400  141.6370 C   0  0  0  0  0  1  0  0  0  0  0  0
  179.9820  182.6670  138.2690 O   0  0  0  0  0  1  0  0  0  0  0  0
  179.0450  181.6400  138.3860 C   0  0  0  0  0  2  0  0  0  0  0  0
  180.0710  176.1510  138.3540 C   0  0  0  0  0  0  0  0  0  0  0  0
  178.9310  176.5230  138.9350 C   0  0  0  0  0  2  0  0  0  0  0  0
  180.7870  174.9260  138.8470 C   0  0  0  0  0  2  0  0  0  0  0  0
  179.8390  173.7460  138.9900 C   0  0  0  0  0  2  0  0  0  0  0  0
  180.1490  172.7640  138.0500 O   0  0  0  0  0  1  0  0  0  0  0  0
  180.7060  177.0140  134.9270 C   0  0  0  0  0  2  0  0  0  0  0  0
  179.3700  177.6610  135.2400 C   0  0  0  0  0  2  0  0  0  0  0  0
  179.3100  179.0280  134.5970 C   0  0  0  0  0  1  0  0  0  0  0  0
  1 17  1  0  0  0  0
  1  3  1  0  0  0  0
  2 13  1  6  0  0  0
  2  5  1  0  0  0  0
  3 29  1  6  0  0  0
  3  8  1  0  0  0  0
  5  7  1  0  0  0  0
  5 14  1  0  0  0  0
  6  2  1  0  0  0  0
  6  9  1  0  0  0  0
  7  4  1  0  0  0  0
  9 14  1  0  0  0  0
  9 30  1  0  0  0  0
 10 18  1  0  0  0  0
 11  8  1  0  0  0  0
 11 26  1  0  0  0  0
 12  4  1  0  0  0  0
 13 10  1  0  0  0  0
 14 17  1  0  0  0  0
 15 20  1  0  0  0  0
 15  7  1  0  0  0  0
 16 12  1  0  0  0  0
 16 11  1  0  0  0  0
 17 16  1  0  0  0  0
 17 11  1  0  0  0  0
 18 15  1  0  0  0  0
 19 25  1  0  0  0  0
 20 21  1  0  0  0  0
 23 24  1  0  0  0  0
 24 21  1  0  0  0  0
 24 22  2  0  0  0  0
 25 23  1  0  0  0  0
 25 20  1  0  0  0  0
 26 27  1  0  0  0  0
 28 29  1  0  0  0  0
 30 32  1  0  0  0  0
 30 31  2  0  0  0  0
 32 33  1  0  0  0  0
 34 33  1  0  0  0  0
 35 36  1  0  0  0  0
 35  6  1  0  0  0  0
 37 36  1  0  0  0  0
M  END
>  <MODEL>
3

>  <REMARK>
 VINA RESULT:      -4.4      3.355      5.320
  Name = 
  8 active torsions:
  status: ('A' for Active; 'I' for Inactive)
    1  A    between atoms: C_3  and  C_32
    2  A    between atoms: C_5  and  C_23
    3  A    between atoms: C_6  and  C_31
    4  A    between atoms: C_9  and  C_13
    5  A    between atoms: C_9  and  C_16
    6  A    between atoms: C_11  and  C_26
    7  A    between atoms: C_20  and  C_21
    8  A    between atoms: C_21  and  C_32
                            x       y       z     vdW  Elec       q    Type
                         _______ _______ _______ _____ _____    ______ ____

>  <TORSDO>
F 8

$$$$
=
 OpenBabel11052415293D

 37 42  0  0  1  0  0  0  0  0999 V2000
  184.1620  180.2590  138.9190 O   0  0  0  0  0  0  0  0  0  0  0  0
  187.6970  177.7410  139.2740 C   0  0  1  0  0  3  0  0  0  0  0  0
  182.7610  180.2330  138.7680 C   0  0  1  0  0  3  0  0  0  0  0  0
  185.4280  177.6790  142.3480 C   0  0  0  0  0  2  0  0  0  0  0  0
  186.6870  178.3510  140.2290 C   0  0  2  0  0  3  0  0  0  0  0  0
  187.0820  177.8580  137.8760 C   0  0  1  0  0  3  0  0  0  0  0  0
  186.7600  177.6430  141.5860 C   0  0  1  0  0  3  0  0  0  0  0  0
  182.1430  179.7980  139.9580 O   0  0  0  0  0  0  0  0  0  0  0  0
  185.5780  177.9660  138.0890 C   0  0  2  0  0  3  0  0  0  0  0  0
  189.5690  177.8550  140.5120 C   0  0  0  0  0  2  0  0  0  0  0  0
  183.1160  179.0360  140.6040 C   0  0  2  0  0  0  0  0  0  0  0  0
  184.8730  179.0930  142.5470 C   0  0  0  0  0  2  0  0  0  0  0  0
  188.9380  178.3890  139.3800 O   0  0  0  0  0  0  0  0  0  0  0  0
  185.3380  178.1380  139.5840 C   0  0  2  0  0  3  0  0  0  0  0  0
  187.9500  178.0800  142.4790 C   0  0  2  0  0  3  0  0  0  0  0  0
  184.2000  179.8270  141.3560 C   0  0  1  0  0  3  0  0  0  0  0  0
  184.4180  179.3200  139.9170 C   0  0  1  0  0  0  0  0  0  0  0  0
  189.1700  178.6630  141.7470 C   0  0  0  0  0  2  0  0  0  0  0  0
  190.3400  175.6100  142.8990 N   0  0  0  0  0  1  0  0  0  0  0  0
  188.4030  176.9890  143.4610 C   0  0  2  0  0  3  0  0  0  0  0  0
  187.9060  177.2240  144.8910 C   0  0  0  0  0  2  0  0  0  0  0  0
  189.1670  177.1600  146.9420 O   0  0  0  0  0  0  0  0  0  0  0  0
  190.2990  176.8570  144.9160 N   0  0  0  0  0  2  0  0  0  0  0  0
  189.1390  177.0820  145.6870 C   0  0  0  0  0  0  0  0  0  0  0  0
  189.9330  176.8610  143.5130 C   0  0  1  0  0  3  0  0  0  0  0  0
  182.7850  177.5740  140.9010 C   0  0  0  0  0  2  0  0  0  0  0  0
  181.4070  177.2330  140.3670 C   0  0  0  0  0  1  0  0  0  0  0  0
  180.9630  181.5400  137.9030 O   0  0  0  0  0  1  0  0  0  0  0  0
  182.2560  181.6200  138.4200 C   0  0  0  0  0  2  0  0  0  0  0  0
  184.8610  176.7540  137.5750 C   0  0  0  0  0  0  0  0  0  0  0  0
  185.5660  175.6550  137.3110 C   0  0  0  0  0  2  0  0  0  0  0  0
  183.4300  176.8400  137.1260 C   0  0  0  0  0  2  0  0  0  0  0  0
  182.9300  175.5050  136.5990 C   0  0  0  0  0  2  0  0  0  0  0  0
  182.1910  175.6960  135.4320 O   0  0  0  0  0  1  0  0  0  0  0  0
  187.5470  179.0900  137.1070 C   0  0  0  0  0  2  0  0  0  0  0  0
  187.2270  178.9390  135.6320 C   0  0  0  0  0  2  0  0  0  0  0  0
  187.9490  177.7300  135.0800 C   0  0  0  0  0  1  0  0  0  0  0  0
  1 17  1  0  0  0  0
  2 13  1  6  0  0  0
  2  5  1  0  0  0  0
  3 29  1  1  0  0  0
  3  1  1  0  0  0  0
  3  8  1  0  0  0  0
  4 12  1  0  0  0  0
  5  7  1  0  0  0  0
  6  9  1  0  0  0  0
  6  2  1  0  0  0  0
  7  4  1  0  0  0  0
  7 15  1  0  0  0  0
  8 11  1  0  0  0  0
  9 14  1  0  0  0  0
 10 18  1  0  0  0  0
 11 26  1  0  0  0  0
 11 16  1  0  0  0  0
 13 10  1  0  0  0  0
 14 17  1  0  0  0  0
 14  5  1  0  0  0  0
 15 20  1  0  0  0  0
 16 12  1  0  0  0  0
 17 11  1  0  0  0  0
 17 16  1  0  0  0  0
 18 15  1  0  0  0  0
 19 25  1  0  0  0  0
 20 25  1  0  0  0  0
 20 21  1  0  0  0  0
 21 24  1  0  0  0  0
 23 24  1  0  0  0  0
 24 22  2  0  0  0  0
 25 23  1  0  0  0  0
 27 26  1  0  0  0  0
 28 29  1  0  0  0  0
 30  9  1  0  0  0  0
 31 30  2  0  0  0  0
 32 30  1  0  0  0  0
 33 32  1  0  0  0  0
 34 33  1  0  0  0  0
 35  6  1  0  0  0  0
 36 35  1  0  0  0  0
 37 36  1  0  0  0  0
M  END
>  <MODEL>
4

>  <REMARK>
 VINA RESULT:      -4.3      2.242      2.929
  Name = 
  8 active torsions:
  status: ('A' for Active; 'I' for Inactive)
    1  A    between atoms: C_3  and  C_32
    2  A    between atoms: C_5  and  C_23
    3  A    between atoms: C_6  and  C_31
    4  A    between atoms: C_9  and  C_13
    5  A    between atoms: C_9  and  C_16
    6  A    between atoms: C_11  and  C_26
    7  A    between atoms: C_20  and  C_21
    8  A    between atoms: C_21  and  C_32
                            x       y       z     vdW  Elec       q    Type
                         _______ _______ _______ _____ _____    ______ ____

>  <TORSDO>
F 8

$$$$
=
 OpenBabel11052415293D

 37 42  0  0  1  0  0  0  0  0999 V2000
  187.5400  174.4290  137.9250 O   0  0  0  0  0  0  0  0  0  0  0  0
  191.2040  176.7170  138.4690 C   0  0  1  0  0  3  0  0  0  0  0  0
  186.2870  174.4290  137.2800 C   0  0  1  0  0  3  0  0  0  0  0  0
  190.8290  175.1880  134.9880 C   0  0  0  0  0  2  0  0  0  0  0  0
  190.7050  175.6670  137.4940 C   0  0  2  0  0  3  0  0  0  0  0  0
  189.9660  177.2260  139.2150 C   0  0  1  0  0  3  0  0  0  0  0  0
  191.5820  175.6630  136.2380 C   0  0  1  0  0  3  0  0  0  0  0  0
  186.4440  174.2170  135.8950 O   0  0  0  0  0  0  0  0  0  0  0  0
  188.7810  176.9310  138.3060 C   0  0  2  0  0  3  0  0  0  0  0  0
  193.3780  176.1630  138.6070 C   0  0  0  0  0  2  0  0  0  0  0  0
  187.7390  174.6520  135.6140 C   0  0  2  0  0  0  0  0  0  0  0  0
  190.1770  173.8110  135.1510 C   0  0  0  0  0  2  0  0  0  0  0  0
  192.1760  176.1790  139.3280 O   0  0  0  0  0  0  0  0  0  0  0  0
  189.2880  176.0670  137.1580 C   0  0  2  0  0  3  0  0  0  0  0  0
  192.9430  174.9400  136.4040 C   0  0  2  0  0  3  0  0  0  0  0  0
  188.8700  173.6740  135.9780 C   0  0  1  0  0  3  0  0  0  0  0  0
  188.4400  174.8080  136.9300 C   0  0  1  0  0  0  0  0  0  0  0  0
  193.4930  174.8480  137.8370 C   0  0  0  0  0  2  0  0  0  0  0  0
  194.8460  177.7590  135.7520 N   0  0  0  0  0  1  0  0  0  0  0  0
  194.0320  175.4740  135.4610 C   0  0  2  0  0  3  0  0  0  0  0  0
  194.8330  174.3610  134.7770 C   0  0  0  0  0  2  0  0  0  0  0  0
  197.2240  174.1350  134.5940 O   0  0  0  0  0  0  0  0  0  0  0  0
  196.3540  175.9290  135.8200 N   0  0  0  0  0  2  0  0  0  0  0  0
  196.2280  174.7660  135.0310 C   0  0  0  0  0  0  0  0  0  0  0  0
  195.0290  176.3870  136.1910 C   0  0  1  0  0  3  0  0  0  0  0  0
  187.8980  175.7810  134.5960 C   0  0  0  0  0  2  0  0  0  0  0  0
  186.6770  176.6780  134.6190 C   0  0  0  0  0  1  0  0  0  0  0  0
  184.0800  173.5520  137.5020 O   0  0  0  0  0  1  0  0  0  0  0  0
  185.4110  173.3340  137.8570 C   0  0  0  0  0  2  0  0  0  0  0  0
  188.1620  178.1930  137.7830 C   0  0  0  0  0  0  0  0  0  0  0  0
  188.9570  179.2130  137.4620 C   0  0  0  0  0  2  0  0  0  0  0  0
  186.6770  178.4070  137.8530 C   0  0  0  0  0  2  0  0  0  0  0  0
  186.1640  178.2900  139.2800 C   0  0  0  0  0  2  0  0  0  0  0  0
  185.5690  179.4880  139.6760 O   0  0  0  0  0  1  0  0  0  0  0  0
  189.7310  176.5290  140.5510 C   0  0  0  0  0  2  0  0  0  0  0  0
  189.7730  177.5380  141.6830 C   0  0  0  0  0  2  0  0  0  0  0  0
  188.6690  177.2340  142.6700 C   0  0  0  0  0  1  0  0  0  0  0  0
  2  6  1  0  0  0  0
  2 13  1  1  0  0  0
  3 29  1  1  0  0  0
  3  1  1  0  0  0  0
  4 12  1  0  0  0  0
  4  7  1  0  0  0  0
  5  2  1  0  0  0  0
  6 35  1  0  0  0  0
  7 15  1  0  0  0  0
  7  5  1  0  0  0  0
  8  3  1  0  0  0  0
  9  6  1  0  0  0  0
 10 13  1  0  0  0  0
 11  8  1  0  0  0  0
 11 16  1  0  0  0  0
 11 17  1  0  0  0  0
 12 16  1  0  0  0  0
 14  5  1  0  0  0  0
 14  9  1  0  0  0  0
 15 18  1  0  0  0  0
 16 17  1  0  0  0  0
 17 14  1  0  0  0  0
 17  1  1  0  0  0  0
 18 10  1  0  0  0  0
 19 25  1  0  0  0  0
 20 25  1  0  0  0  0
 20 15  1  0  0  0  0
 21 24  1  0  0  0  0
 21 20  1  0  0  0  0
 22 24  2  0  0  0  0
 23 25  1  0  0  0  0
 24 23  1  0  0  0  0
 26 27  1  0  0  0  0
 26 11  1  0  0  0  0
 28 29  1  0  0  0  0
 30 32  1  0  0  0  0
 30  9  1  0  0  0  0
 31 30  2  0  0  0  0
 32 33  1  0  0  0  0
 33 34  1  0  0  0  0
 35 36  1  0  0  0  0
 36 37  1  0  0  0  0
M  END
>  <MODEL>
5

>  <REMARK>
 VINA RESULT:      -4.1      5.185      9.192
  Name = 
  8 active torsions:
  status: ('A' for Active; 'I' for Inactive)
    1  A    between atoms: C_3  and  C_32
    2  A    between atoms: C_5  and  C_23
    3  A    between atoms: C_6  and  C_31
    4  A    between atoms: C_9  and  C_13
    5  A    between atoms: C_9  and  C_16
    6  A    between atoms: C_11  and  C_26
    7  A    between atoms: C_20  and  C_21
    8  A    between atoms: C_21  and  C_32
                            x       y       z     vdW  Elec       q    Type
                         _______ _______ _______ _____ _____    ______ ____

>  <TORSDO>
F 8

$$$$
=
 OpenBabel11052415293D

 37 42  0  0  1  0  0  0  0  0999 V2000
  179.7530  176.7210  139.6770 O   0  0  0  0  0  0  0  0  0  0  0  0
  181.5430  179.1100  136.5060 C   0  0  1  0  0  3  0  0  0  0  0  0
  179.9470  176.2530  140.9910 C   0  0  1  0  0  3  0  0  0  0  0  0
  180.3040  181.1570  139.4840 C   0  0  0  0  0  2  0  0  0  0  0  0
  180.6270  179.3700  137.6880 C   0  0  2  0  0  3  0  0  0  0  0  0
  182.1460  177.7200  136.7350 C   0  0  1  0  0  3  0  0  0  0  0  0
  180.6010  180.8680  138.0060 C   0  0  1  0  0  3  0  0  0  0  0  0
  179.8110  177.3060  141.9170 O   0  0  0  0  0  0  0  0  0  0  0  0
  182.0570  177.4690  138.2340 C   0  0  2  0  0  3  0  0  0  0  0  0
  180.7220  180.5720  135.0090 C   0  0  0  0  0  2  0  0  0  0  0  0
  180.1040  178.4580  141.1890 C   0  0  2  0  0  0  0  0  0  0  0  0
  179.0090  180.5130  139.9870 C   0  0  0  0  0  2  0  0  0  0  0  0
  180.8350  179.2050  135.2970 O   0  0  0  0  0  0  0  0  0  0  0  0
  181.2170  178.5870  138.8370 C   0  0  2  0  0  3  0  0  0  0  0  0
  179.7110  181.7140  137.0610 C   0  0  2  0  0  3  0  0  0  0  0  0
  178.9760  178.9910  140.2890 C   0  0  1  0  0  3  0  0  0  0  0  0
  180.0870  178.0740  139.7400 C   0  0  1  0  0  0  0  0  0  0  0  0
  179.4580  181.1280  135.6610 C   0  0  0  0  0  2  0  0  0  0  0  0
  180.1310  184.2570  134.7490 N   0  0  0  0  0  1  0  0  0  0  0  0
  180.1710  183.1740  136.9390 C   0  0  2  0  0  3  0  0  0  0  0  0
  180.1230  183.9330  138.2690 C   0  0  0  0  0  2  0  0  0  0  0  0
  179.1610  186.0930  138.7270 O   0  0  0  0  0  0  0  0  0  0  0  0
  178.9430  185.1970  136.5750 N   0  0  0  0  0  2  0  0  0  0  0  0
  179.3870  185.1590  137.9140 C   0  0  0  0  0  0  0  0  0  0  0  0
  179.3290  183.9600  135.9220 C   0  0  1  0  0  3  0  0  0  0  0  0
  181.2710  179.3200  141.6720 C   0  0  0  0  0  2  0  0  0  0  0  0
  181.4480  179.1640  143.1690 C   0  0  0  0  0  1  0  0  0  0  0  0
  179.4090  174.3530  142.3290 O   0  0  0  0  0  1  0  0  0  0  0  0
  178.9310  175.1730  141.3080 C   0  0  0  0  0  2  0  0  0  0  0  0
  183.4160  177.4300  138.8660 C   0  0  0  0  0  0  0  0  0  0  0  0
  183.5930  178.0250  140.0450 C   0  0  0  0  0  2  0  0  0  0  0  0
  184.6120  176.9600  138.0880 C   0  0  0  0  0  2  0  0  0  0  0  0
  185.7190  178.0030  138.0810 C   0  0  0  0  0  2  0  0  0  0  0  0
  186.3280  178.0470  136.8270 O   0  0  0  0  0  1  0  0  0  0  0  0
  181.3950  176.6040  136.0160 C   0  0  0  0  0  2  0  0  0  0  0  0
  182.3240  175.8750  135.0640 C   0  0  0  0  0  2  0  0  0  0  0  0
  183.4190  176.8160  134.6100 C   0  0  0  0  0  1  0  0  0  0  0  0
  1 17  1  0  0  0  0
  1  3  1  0  0  0  0
  2 13  1  6  0  0  0
  2  6  1  0  0  0  0
  2  5  1  0  0  0  0
  3 29  1  1  0  0  0
  3  8  1  0  0  0  0
  4 12  1  0  0  0  0
  5  7  1  0  0  0  0
  5 14  1  0  0  0  0
  6  9  1  0  0  0  0
  7  4  1  0  0  0  0
  9 14  1  0  0  0  0
  9 30  1  0  0  0  0
 10 13  1  0  0  0  0
 10 18  1  0  0  0  0
 11 26  1  0  0  0  0
 11  8  1  0  0  0  0
 12 16  1  0  0  0  0
 14 17  1  0  0  0  0
 15  7  1  0  0  0  0
 16 11  1  0  0  0  0
 17 16  1  0  0  0  0
 17 11  1  0  0  0  0
 18 15  1  0  0  0  0
 19 25  1  0  0  0  0
 20 15  1  0  0  0  0
 20 21  1  0  0  0  0
 23 24  1  0  0  0  0
 24 21  1  0  0  0  0
 24 22  2  0  0  0  0
 25 23  1  0  0  0  0
 25 20  1  0  0  0  0
 26 27  1  0  0  0  0
 29 28  1  0  0  0  0
 30 31  2  0  0  0  0
 32 30  1  0  0  0  0
 33 32  1  0  0  0  0
 34 33  1  0  0  0  0
 35  6  1  0  0  0  0
 36 35  1  0  0  0  0
 37 36  1  0  0  0  0
M  END
>  <MODEL>
6

>  <REMARK>
 VINA RESULT:      -3.9      4.154      7.065
  Name = 
  8 active torsions:
  status: ('A' for Active; 'I' for Inactive)
    1  A    between atoms: C_3  and  C_32
    2  A    between atoms: C_5  and  C_23
    3  A    between atoms: C_6  and  C_31
    4  A    between atoms: C_9  and  C_13
    5  A    between atoms: C_9  and  C_16
    6  A    between atoms: C_11  and  C_26
    7  A    between atoms: C_20  and  C_21
    8  A    between atoms: C_21  and  C_32
                            x       y       z     vdW  Elec       q    Type
                         _______ _______ _______ _____ _____    ______ ____

>  <TORSDO>
F 8

$$$$
=
 OpenBabel11052415293D

 37 42  0  0  1  0  0  0  0  0999 V2000
  180.9640  175.7950  139.2360 O   0  0  0  0  0  0  0  0  0  0  0  0
  184.3560  178.2750  138.0970 C   0  0  1  0  0  3  0  0  0  0  0  0
  179.6410  175.4540  138.8910 C   0  0  1  0  0  3  0  0  0  0  0  0
  183.6740  175.3780  135.7010 C   0  0  0  0  0  2  0  0  0  0  0  0
  183.8550  176.8840  137.7570 C   0  0  2  0  0  3  0  0  0  0  0  0
  183.1850  178.9930  138.7770 C   0  0  1  0  0  3  0  0  0  0  0  0
  184.5350  176.3830  136.4790 C   0  0  1  0  0  3  0  0  0  0  0  0
  179.6210  174.6740  137.7180 O   0  0  0  0  0  0  0  0  0  0  0  0
  181.9270  178.2760  138.3070 C   0  0  2  0  0  3  0  0  0  0  0  0
  186.5790  177.9450  138.0520 C   0  0  0  0  0  2  0  0  0  0  0  0
  180.7980  175.0100  137.0490 C   0  0  2  0  0  0  0  0  0  0  0  0
  183.2290  174.1750  136.5380 C   0  0  0  0  0  2  0  0  0  0  0  0
  185.5010  178.2090  138.9070 O   0  0  0  0  0  0  0  0  0  0  0  0
  182.3660  177.0280  137.5510 C   0  0  2  0  0  3  0  0  0  0  0  0
  185.9850  175.8720  136.6770 C   0  0  2  0  0  3  0  0  0  0  0  0
  182.0820  174.3430  137.5720 C   0  0  1  0  0  3  0  0  0  0  0  0
  181.6570  175.7530  138.0270 C   0  0  1  0  0  0  0  0  0  0  0  0
  186.7440  176.4340  137.8910 C   0  0  0  0  0  2  0  0  0  0  0  0
  187.4380  178.2260  134.5950 N   0  0  0  0  0  1  0  0  0  0  0  0
  186.8520  176.0010  135.4150 C   0  0  2  0  0  3  0  0  0  0  0  0
  187.6610  174.7350  135.1100 C   0  0  0  0  0  2  0  0  0  0  0  0
  190.0060  174.5470  134.5970 O   0  0  0  0  0  0  0  0  0  0  0  0
  189.1360  176.6550  135.1220 N   0  0  0  0  0  2  0  0  0  0  0  0
  189.0230  175.2640  134.9140 C   0  0  0  0  0  0  0  0  0  0  0  0
  187.8390  177.1740  135.5120 C   0  0  1  0  0  3  0  0  0  0  0  0
  180.6680  175.5960  135.6430 C   0  0  0  0  0  2  0  0  0  0  0  0
  179.4940  174.9630  134.9220 C   0  0  0  0  0  1  0  0  0  0  0  0
  179.1690  175.3530  141.2280 O   0  0  0  0  0  1  0  0  0  0  0  0
  179.0000  174.6730  140.0220 C   0  0  0  0  0  2  0  0  0  0  0  0
  181.0880  179.1560  137.4300 C   0  0  0  0  0  0  0  0  0  0  0  0
  181.0870  178.9400  136.1160 C   0  0  0  0  0  2  0  0  0  0  0  0
  180.4600  180.4080  137.9740 C   0  0  0  0  0  2  0  0  0  0  0  0
  181.0370  181.6520  137.3180 C   0  0  0  0  0  2  0  0  0  0  0  0
  180.5660  182.7960  137.9610 O   0  0  0  0  0  1  0  0  0  0  0  0
  183.2340  178.9290  140.2990 C   0  0  0  0  0  2  0  0  0  0  0  0
  181.9710  178.2840  140.8370 C   0  0  0  0  0  2  0  0  0  0  0  0
  181.7480  178.7280  142.2660 C   0  0  0  0  0  1  0  0  0  0  0  0
  2  6  1  0  0  0  0
  2 13  1  1  0  0  0
  3  1  1  0  0  0  0
  3 29  1  1  0  0  0
  4  7  1  0  0  0  0
  4 12  1  0  0  0  0
  5  2  1  0  0  0  0
  6 35  1  0  0  0  0
  7 15  1  0  0  0  0
  7  5  1  0  0  0  0
  8  3  1  0  0  0  0
  9  6  1  0  0  0  0
 10 13  1  0  0  0  0
 11 16  1  0  0  0  0
 11  8  1  0  0  0  0
 11 17  1  0  0  0  0
 12 16  1  0  0  0  0
 14  5  1  0  0  0  0
 14 17  1  0  0  0  0
 14  9  1  0  0  0  0
 15 18  1  0  0  0  0
 16 17  1  0  0  0  0
 17  1  1  0  0  0  0
 18 10  1  0  0  0  0
 19 25  1  0  0  0  0
 20 25  1  0  0  0  0
 20 15  1  0  0  0  0
 21 20  1  0  0  0  0
 22 24  2  0  0  0  0
 23 25  1  0  0  0  0
 24 21  1  0  0  0  0
 24 23  1  0  0  0  0
 26 11  1  0  0  0  0
 27 26  1  0  0  0  0
 29 28  1  0  0  0  0
 30 32  1  0  0  0  0
 30  9  1  0  0  0  0
 31 30  2  0  0  0  0
 33 34  1  0  0  0  0
 33 32  1  0  0  0  0
 35 36  1  0  0  0  0
 36 37  1  0  0  0  0
M  END
>  <MODEL>
7

>  <REMARK>
 VINA RESULT:      -3.7      3.481      6.758
  Name = 
  8 active torsions:
  status: ('A' for Active; 'I' for Inactive)
    1  A    between atoms: C_3  and  C_32
    2  A    between atoms: C_5  and  C_23
    3  A    between atoms: C_6  and  C_31
    4  A    between atoms: C_9  and  C_13
    5  A    between atoms: C_9  and  C_16
    6  A    between atoms: C_11  and  C_26
    7  A    between atoms: C_20  and  C_21
    8  A    between atoms: C_21  and  C_32
                            x       y       z     vdW  Elec       q    Type
                         _______ _______ _______ _____ _____    ______ ____

>  <TORSDO>
F 8

$$$$
=
 OpenBabel11052415293D

 37 42  0  0  1  0  0  0  0  0999 V2000
  188.9250  176.1230  139.1360 O   0  0  0  0  0  0  0  0  0  0  0  0
  185.4610  174.7780  136.8660 C   0  0  1  0  0  3  0  0  0  0  0  0
  190.0900  176.9120  139.0660 C   0  0  1  0  0  3  0  0  0  0  0  0
  185.3480  178.4720  137.8330 C   0  0  0  0  0  2  0  0  0  0  0  0
  185.7920  175.9580  137.7610 C   0  0  2  0  0  3  0  0  0  0  0  0
  186.8010  174.1230  136.5150 C   0  0  1  0  0  3  0  0  0  0  0  0
  184.7720  177.0790  137.5420 C   0  0  1  0  0  3  0  0  0  0  0  0
  189.7600  178.2820  139.0510 O   0  0  0  0  0  0  0  0  0  0  0  0
  187.8550  175.2080  136.6930 C   0  0  2  0  0  3  0  0  0  0  0  0
  183.2960  174.4560  137.3780 C   0  0  0  0  0  2  0  0  0  0  0  0
  188.4620  178.3280  138.5430 C   0  0  2  0  0  0  0  0  0  0  0  0
  185.9500  178.6070  139.2350 C   0  0  0  0  0  2  0  0  0  0  0  0
  184.5750  173.8980  137.5080 O   0  0  0  0  0  0  0  0  0  0  0  0
  187.1750  176.4030  137.3510 C   0  0  2  0  0  3  0  0  0  0  0  0
  183.4080  176.8580  138.2460 C   0  0  2  0  0  3  0  0  0  0  0  0
  187.3390  177.9810  139.5350 C   0  0  1  0  0  3  0  0  0  0  0  0
  187.9310  176.9270  138.5790 C   0  0  1  0  0  0  0  0  0  0  0  0
  183.0300  175.3990  138.5500 C   0  0  0  0  0  2  0  0  0  0  0  0
  180.4360  176.2190  136.5870 N   0  0  0  0  0  1  0  0  0  0  0  0
  182.2400  177.5640  137.5400 C   0  0  2  0  0  3  0  0  0  0  0  0
  182.0870  179.0320  137.9530 C   0  0  0  0  0  2  0  0  0  0  0  0
  180.0930  180.1900  138.6480 O   0  0  0  0  0  0  0  0  0  0  0  0
  179.9620  177.8970  138.1960 N   0  0  0  0  0  2  0  0  0  0  0  0
  180.6560  179.1220  138.2940 C   0  0  0  0  0  0  0  0  0  0  0  0
  180.9000  176.8620  137.8040 C   0  0  1  0  0  3  0  0  0  0  0  0
  188.2340  179.1320  137.2630 C   0  0  0  0  0  2  0  0  0  0  0  0
  189.4300  178.9920  136.3410 C   0  0  0  0  0  1  0  0  0  0  0  0
  190.1950  176.3690  141.3870 O   0  0  0  0  0  1  0  0  0  0  0  0
  190.9780  176.6240  140.2610 C   0  0  0  0  0  2  0  0  0  0  0  0
  188.4640  175.6030  135.3810 C   0  0  0  0  0  0  0  0  0  0  0  0
  187.8000  176.4480  134.5940 C   0  0  0  0  0  2  0  0  0  0  0  0
  189.6650  174.8790  134.8440 C   0  0  0  0  0  2  0  0  0  0  0  0
  190.7200  174.6730  135.9190 C   0  0  0  0  0  2  0  0  0  0  0  0
  191.4770  175.8340  136.0770 O   0  0  0  0  0  1  0  0  0  0  0  0
  187.1620  172.9510  137.4210 C   0  0  0  0  0  2  0  0  0  0  0  0
  187.9170  171.8950  136.6370 C   0  0  0  0  0  2  0  0  0  0  0  0
  187.1160  171.5080  135.4130 C   0  0  0  0  0  1  0  0  0  0  0  0
  2 13  1  1  0  0  0
  2  5  1  0  0  0  0
  3  1  1  0  0  0  0
  3 29  1  1  0  0  0
  4 12  1  0  0  0  0
  6  9  1  0  0  0  0
  6  2  1  0  0  0  0
  6 35  1  0  0  0  0
  7  5  1  0  0  0  0
  7  4  1  0  0  0  0
  7 15  1  0  0  0  0
  8  3  1  0  0  0  0
  9 14  1  0  0  0  0
 10 13  1  0  0  0  0
 10 18  1  0  0  0  0
 11 17  1  0  0  0  0
 11  8  1  0  0  0  0
 11 16  1  0  0  0  0
 12 16  1  0  0  0  0
 14  5  1  0  0  0  0
 14 17  1  0  0  0  0
 15 18  1  0  0  0  0
 17  1  1  0  0  0  0
 17 16  1  0  0  0  0
 19 25  1  0  0  0  0
 20 25  1  0  0  0  0
 20 21  1  0  0  0  0
 20 15  1  0  0  0  0
 21 24  1  0  0  0  0
 23 24  1  0  0  0  0
 24 22  2  0  0  0  0
 25 23  1  0  0  0  0
 26 11  1  0  0  0  0
 27 26  1  0  0  0  0
 29 28  1  0  0  0  0
 30  9  1  0  0  0  0
 31 30  2  0  0  0  0
 32 30  1  0  0  0  0
 32 33  1  0  0  0  0
 33 34  1  0  0  0  0
 36 35  1  0  0  0  0
 37 36  1  0  0  0  0
M  END
>  <MODEL>
8

>  <REMARK>
 VINA RESULT:      -3.5      3.562      7.112
  Name = 
  8 active torsions:
  status: ('A' for Active; 'I' for Inactive)
    1  A    between atoms: C_3  and  C_32
    2  A    between atoms: C_5  and  C_23
    3  A    between atoms: C_6  and  C_31
    4  A    between atoms: C_9  and  C_13
    5  A    between atoms: C_9  and  C_16
    6  A    between atoms: C_11  and  C_26
    7  A    between atoms: C_20  and  C_21
    8  A    between atoms: C_21  and  C_32
                            x       y       z     vdW  Elec       q    Type
                         _______ _______ _______ _____ _____    ______ ____

>  <TORSDO>
F 8

$$$$
=
 OpenBabel11052415293D

 37 42  0  0  1  0  0  0  0  0999 V2000
  188.4560  176.3060  139.0120 O   0  0  0  0  0  0  0  0  0  0  0  0
  184.7370  174.9730  137.1820 C   0  0  1  0  0  3  0  0  0  0  0  0
  189.6190  177.0690  138.7910 C   0  0  1  0  0  3  0  0  0  0  0  0
  184.7970  178.6930  138.0490 C   0  0  0  0  0  2  0  0  0  0  0  0
  185.1860  176.1690  138.0000 C   0  0  2  0  0  3  0  0  0  0  0  0
  186.0180  174.2820  136.7030 C   0  0  1  0  0  3  0  0  0  0  0  0
  184.1670  177.3050  137.8640 C   0  0  1  0  0  3  0  0  0  0  0  0
  189.3130  178.4450  138.7740 O   0  0  0  0  0  0  0  0  0  0  0  0
  187.1030  175.3490  136.7310 C   0  0  2  0  0  3  0  0  0  0  0  0
  182.6380  174.7090  137.9400 C   0  0  0  0  0  2  0  0  0  0  0  0
  187.9680  178.5040  138.4120 C   0  0  2  0  0  0  0  0  0  0  0  0
  185.5540  178.8530  139.3700 C   0  0  0  0  0  2  0  0  0  0  0  0
  183.9130  174.1280  137.9430 O   0  0  0  0  0  0  0  0  0  0  0  0
  186.5230  176.5750  137.4260 C   0  0  2  0  0  3  0  0  0  0  0  0
  182.8870  177.1310  138.7210 C   0  0  2  0  0  3  0  0  0  0  0  0
  186.9570  178.2070  139.5330 C   0  0  1  0  0  3  0  0  0  0  0  0
  187.4200  177.1160  138.5470 C   0  0  1  0  0  0  0  0  0  0  0  0
  182.5200  175.6880  139.1060 C   0  0  0  0  0  2  0  0  0  0  0  0
  180.3950  179.3950  139.5270 N   0  0  0  0  0  1  0  0  0  0  0  0
  181.6600  177.8410  138.1300 C   0  0  2  0  0  3  0  0  0  0  0  0
  181.6680  177.8800  136.5980 C   0  0  0  0  0  2  0  0  0  0  0  0
  181.2940  179.7650  135.1470 O   0  0  0  0  0  0  0  0  0  0  0  0
  181.3140  180.1140  137.4620 N   0  0  0  0  0  2  0  0  0  0  0  0
  181.4110  179.3030  136.3100 C   0  0  0  0  0  0  0  0  0  0  0  0
  181.5330  179.2870  138.6330 C   0  0  1  0  0  3  0  0  0  0  0  0
  187.6120  179.2780  137.1430 C   0  0  0  0  0  2  0  0  0  0  0  0
  188.6630  179.0400  136.0760 C   0  0  0  0  0  1  0  0  0  0  0  0
  190.0340  176.9640  141.1380 O   0  0  0  0  0  1  0  0  0  0  0  0
  190.6300  176.7960  139.8880 C   0  0  0  0  0  2  0  0  0  0  0  0
  187.5690  175.6970  135.3490 C   0  0  0  0  0  0  0  0  0  0  0  0
  186.8080  176.4890  134.5960 C   0  0  0  0  0  2  0  0  0  0  0  0
  188.7310  174.9770  134.7260 C   0  0  0  0  0  2  0  0  0  0  0  0
  189.8840  174.8270  135.7060 C   0  0  0  0  0  2  0  0  0  0  0  0
  190.7960  175.8690  135.5360 O   0  0  0  0  0  1  0  0  0  0  0  0
  186.4570  173.1270  137.5960 C   0  0  0  0  0  2  0  0  0  0  0  0
  187.3420  172.1700  136.8200 C   0  0  0  0  0  2  0  0  0  0  0  0
  186.6760  171.8220  135.5070 C   0  0  0  0  0  1  0  0  0  0  0  0
  2 13  1  1  0  0  0
  2  5  1  0  0  0  0
  3  1  1  0  0  0  0
  3 29  1  1  0  0  0
  4 12  1  0  0  0  0
  6  9  1  0  0  0  0
  6  2  1  0  0  0  0
  6 35  1  0  0  0  0
  7  5  1  0  0  0  0
  7  4  1  0  0  0  0
  7 15  1  0  0  0  0
  8  3  1  0  0  0  0
  9 14  1  0  0  0  0
 10 13  1  0  0  0  0
 10 18  1  0  0  0  0
 11 17  1  0  0  0  0
 11  8  1  0  0  0  0
 11 16  1  0  0  0  0
 12 16  1  0  0  0  0
 14  5  1  0  0  0  0
 14 17  1  0  0  0  0
 15 18  1  0  0  0  0
 17  1  1  0  0  0  0
 17 16  1  0  0  0  0
 20 25  1  0  0  0  0
 20 15  1  0  0  0  0
 21 20  1  0  0  0  0
 22 24  2  0  0  0  0
 23 25  1  0  0  0  0
 24 21  1  0  0  0  0
 24 23  1  0  0  0  0
 25 19  1  0  0  0  0
 26 11  1  0  0  0  0
 27 26  1  0  0  0  0
 29 28  1  0  0  0  0
 30  9  1  0  0  0  0
 31 30  2  0  0  0  0
 32 30  1  0  0  0  0
 32 33  1  0  0  0  0
 34 33  1  0  0  0  0
 36 35  1  0  0  0  0
 37 36  1  0  0  0  0
M  END
>  <MODEL>
9

>  <REMARK>
 VINA RESULT:      -3.4      3.324      6.907
  Name = 
  8 active torsions:
  status: ('A' for Active; 'I' for Inactive)
    1  A    between atoms: C_3  and  C_32
    2  A    between atoms: C_5  and  C_23
    3  A    between atoms: C_6  and  C_31
    4  A    between atoms: C_9  and  C_13
    5  A    between atoms: C_9  and  C_16
    6  A    between atoms: C_11  and  C_26
    7  A    between atoms: C_20  and  C_21
    8  A    between atoms: C_21  and  C_32
                            x       y       z     vdW  Elec       q    Type
                         _______ _______ _______ _____ _____    ______ ____

>  <TORSDO>
F 8

$$$$
