=
 OpenBabel11052412443D

 25 28  0  0  1  0  0  0  0  0999 V2000
  188.2890  177.6530  144.3860 C   0  0  0  0  0  0  0  0  0  0  0  0
  187.0220  177.9160  145.0730 N   0  0  0  0  0  0  0  0  0  0  0  0
  188.0070  177.7420  147.3040 C   0  0  0  0  0  3  0  0  0  0  0  0
  185.8340  178.2700  144.5600 C   0  0  0  0  0  0  0  0  0  0  0  0
  183.2470  179.0590  143.9690 C   0  0  0  0  0  3  0  0  0  0  0  0
  189.1600  177.4190  146.7990 N   0  0  0  0  0  0  0  0  0  0  0  0
  184.9460  178.5310  145.5740 C   0  0  0  0  0  0  0  0  0  0  0  0
  183.6360  178.9290  145.3140 C   0  0  0  0  0  3  0  0  0  0  0  0
  190.5700  176.8470  144.9230 C   0  0  2  0  0  3  0  0  0  0  0  0
  191.9010  176.5330  146.0260 Cl  0  0  0  0  0  0  0  0  0  0  0  0
  188.1120  176.2900  143.1910 S   0  0  0  0  0  0  0  0  0  0  0  0
  184.1630  178.7980  142.9280 C   0  0  0  0  0  3  0  0  0  0  0  0
  186.8760  177.9870  146.4110 C   0  0  0  0  0  0  0  0  0  0  0  0
  185.5880  178.3620  146.7900 C   0  0  0  0  0  3  0  0  0  0  0  0
  190.8060  176.6380  143.4810 C   0  0  0  0  0  3  0  0  0  0  0  0
  185.4800  178.4010  143.2170 C   0  0  0  0  0  3  0  0  0  0  0  0
  189.8120  176.4800  142.6010 C   0  0  0  0  0  0  0  0  0  0  0  0
  189.3830  177.2860  145.3790 C   0  0  0  0  0  0  0  0  0  0  0  0
  190.1430  176.4200  141.2080 N   0  0  0  0  0  2  0  0  0  0  0  0
  189.6690  177.2830  140.1680 C   0  0  0  0  0  0  0  0  0  0  0  0
  188.9370  178.2750  140.4210 O   0  0  0  0  0  0  0  0  0  0  0  0
  190.0410  176.9920  138.7550 C   0  0  0  0  0  2  0  0  0  0  0  0
  191.3080  176.2100  138.7090 C   0  0  0  0  0  0  0  0  0  0  0  0
  191.2830  174.8670  138.3600 O   0  0  0  0  0  0  0  0  0  0  0  0
  192.4060  176.7750  138.9540 O   0  0  0  0  0  1  0  0  0  0  0  0
  1  2  1  0  0  0  0
  1 18  2  0  0  0  0
  2 13  1  0  0  0  0
  4  2  1  0  0  0  0
  4  7  1  0  0  0  0
  5  8  1  0  0  0  0
  6  3  2  0  0  0  0
  7 14  1  0  0  0  0
  8  7  2  0  0  0  0
  9 18  1  0  0  0  0
  9 10  1  6  0  0  0
 11  1  1  0  0  0  0
 12 16  1  0  0  0  0
 12  5  2  0  0  0  0
 13 14  2  0  0  0  0
 13  3  1  0  0  0  0
 15  9  1  0  0  0  0
 16  4  2  0  0  0  0
 17 11  1  0  0  0  0
 17 15  2  0  0  0  0
 18  6  1  0  0  0  0
 19 17  1  0  0  0  0
 20 21  2  0  0  0  0
 20 19  1  0  0  0  0
 22 20  1  0  0  0  0
 23 22  1  0  0  0  0
 23 25  1  0  0  0  0
 24 23  2  0  0  0  0
M  END
>  <MODEL>
1

>  <REMARK>
 VINA RESULT:     -10.0      0.000      0.000
  Name = 
  3 active torsions:
  status: ('A' for Active; 'I' for Inactive)
    1  A    between atoms: C_2  and  C_21
    2  A    between atoms: N_6  and  C_23
    3  A    between atoms: C_15  and  C_21
                            x       y       z     vdW  Elec       q    Type
                         _______ _______ _______ _____ _____    ______ ____

>  <TORSDO>
F 3

$$$$
=
 OpenBabel11052412443D

 25 28  0  0  1  0  0  0  0  0999 V2000
  185.7250  177.9450  143.9860 C   0  0  0  0  0  0  0  0  0  0  0  0
  186.7000  177.9770  145.0780 N   0  0  0  0  0  0  0  0  0  0  0  0
  185.0490  178.6490  146.7510 C   0  0  0  0  0  3  0  0  0  0  0  0
  187.9880  177.5990  145.0810 C   0  0  0  0  0  0  0  0  0  0  0  0
  190.6210  176.8980  145.5690 C   0  0  0  0  0  3  0  0  0  0  0  0
  184.1240  178.7330  145.8430 N   0  0  0  0  0  0  0  0  0  0  0  0
  188.4990  177.6880  146.3520 C   0  0  0  0  0  0  0  0  0  0  0  0
  189.8190  177.3440  146.6350 C   0  0  0  0  0  3  0  0  0  0  0  0
  183.3990  178.6740  143.5400 C   0  0  2  0  0  3  0  0  0  0  0  0
  181.7860  179.1560  144.0410 Cl  0  0  0  0  0  0  0  0  0  0  0  0
  186.2880  178.9550  142.5790 S   0  0  0  0  0  0  0  0  0  0  0  0
  190.0920  176.7990  144.2640 C   0  0  0  0  0  3  0  0  0  0  0  0
  186.4060  178.2720  146.3600 C   0  0  0  0  0  0  0  0  0  0  0  0
  187.5000  178.1170  147.2100 C   0  0  0  0  0  3  0  0  0  0  0  0
  183.6430  178.4760  142.0970 C   0  0  0  0  0  3  0  0  0  0  0  0
  188.7550  177.1490  144.0060 C   0  0  0  0  0  3  0  0  0  0  0  0
  184.8680  178.4780  141.5640 C   0  0  0  0  0  0  0  0  0  0  0  0
  184.3710  178.4690  144.4460 C   0  0  0  0  0  0  0  0  0  0  0  0
  185.0050  178.1430  140.1780 N   0  0  0  0  0  2  0  0  0  0  0  0
  184.7360  178.9880  139.0530 C   0  0  0  0  0  0  0  0  0  0  0  0
  184.4120  180.1960  139.2020 O   0  0  0  0  0  0  0  0  0  0  0  0
  184.8320  178.4230  137.6780 C   0  0  0  0  0  2  0  0  0  0  0  0
  186.2400  178.0370  137.3800 C   0  0  0  0  0  0  0  0  0  0  0  0
  186.5880  176.6960  137.2900 O   0  0  0  0  0  1  0  0  0  0  0  0
  187.1070  178.9260  137.1770 O   0  0  0  0  0  0  0  0  0  0  0  0
  1 18  2  0  0  0  0
  1  2  1  0  0  0  0
  2  4  1  0  0  0  0
  2 13  1  0  0  0  0
  4  7  1  0  0  0  0
  5  8  1  0  0  0  0
  6  3  2  0  0  0  0
  7  8  2  0  0  0  0
  7 14  1  0  0  0  0
  9 10  1  1  0  0  0
  9 18  1  0  0  0  0
 11  1  1  0  0  0  0
 12  5  2  0  0  0  0
 13  3  1  0  0  0  0
 13 14  2  0  0  0  0
 15  9  1  0  0  0  0
 16 12  1  0  0  0  0
 16  4  2  0  0  0  0
 17 15  2  0  0  0  0
 17 11  1  0  0  0  0
 18  6  1  0  0  0  0
 19 17  1  0  0  0  0
 20 21  2  0  0  0  0
 20 19  1  0  0  0  0
 22 20  1  0  0  0  0
 23 22  1  0  0  0  0
 24 23  1  0  0  0  0
 25 23  2  0  0  0  0
M  END
>  <MODEL>
2

>  <REMARK>
 VINA RESULT:      -8.7      3.559      5.398
  Name = 
  3 active torsions:
  status: ('A' for Active; 'I' for Inactive)
    1  A    between atoms: C_2  and  C_21
    2  A    between atoms: N_6  and  C_23
    3  A    between atoms: C_15  and  C_21
                            x       y       z     vdW  Elec       q    Type
                         _______ _______ _______ _____ _____    ______ ____

>  <TORSDO>
F 3

$$$$
=
 OpenBabel11052412443D

 25 28  0  0  1  0  0  0  0  0999 V2000
  185.3850  178.1650  142.9210 C   0  0  0  0  0  0  0  0  0  0  0  0
  185.6460  178.2630  144.3580 N   0  0  0  0  0  0  0  0  0  0  0  0
  183.3310  178.8280  144.9060 C   0  0  0  0  0  3  0  0  0  0  0  0
  186.7620  177.9720  145.0420 C   0  0  0  0  0  0  0  0  0  0  0  0
  188.7920  177.4480  146.8510 C   0  0  0  0  0  3  0  0  0  0  0  0
  183.0100  178.8480  143.6470 N   0  0  0  0  0  0  0  0  0  0  0  0
  186.5320  178.0970  146.3900 C   0  0  0  0  0  0  0  0  0  0  0  0
  187.5300  177.8420  147.3290 C   0  0  0  0  0  3  0  0  0  0  0  0
  183.5930  178.7370  141.3070 C   0  0  2  0  0  3  0  0  0  0  0  0
  181.9310  179.1120  140.8790 Cl  0  0  0  0  0  0  0  0  0  0  0  0
  186.5400  179.2070  141.9750 S   0  0  0  0  0  0  0  0  0  0  0  0
  189.0250  177.3120  145.4660 C   0  0  0  0  0  3  0  0  0  0  0  0
  184.7110  178.5410  145.2900 C   0  0  0  0  0  0  0  0  0  0  0  0
  185.2100  178.4610  146.5890 C   0  0  0  0  0  3  0  0  0  0  0  0
  184.5630  178.5530  140.2080 C   0  0  0  0  0  3  0  0  0  0  0  0
  188.0010  177.5710  144.5390 C   0  0  0  0  0  3  0  0  0  0  0  0
  185.8840  178.6350  140.3880 C   0  0  0  0  0  0  0  0  0  0  0  0
  183.9630  178.5990  142.5920 C   0  0  0  0  0  0  0  0  0  0  0  0
  186.7400  178.3070  139.2880 N   0  0  0  0  0  2  0  0  0  0  0  0
  188.0620  177.7560  139.3530 C   0  0  0  0  0  0  0  0  0  0  0  0
  188.5800  177.4210  140.4510 O   0  0  0  0  0  0  0  0  0  0  0  0
  188.8420  177.5850  138.0960 C   0  0  0  0  0  2  0  0  0  0  0  0
  188.5390  178.6940  137.1490 C   0  0  0  0  0  0  0  0  0  0  0  0
  187.7400  178.4610  136.0380 O   0  0  0  0  0  0  0  0  0  0  0  0
  188.9800  179.8510  137.3730 O   0  0  0  0  0  1  0  0  0  0  0  0
  1  2  1  0  0  0  0
  2  4  1  0  0  0  0
  2 13  1  0  0  0  0
  3 13  1  0  0  0  0
  4  7  1  0  0  0  0
  5  8  1  0  0  0  0
  6  3  2  0  0  0  0
  7 14  1  0  0  0  0
  7  8  2  0  0  0  0
  9 10  1  6  0  0  0
  9 18  1  0  0  0  0
 11  1  1  0  0  0  0
 12  5  2  0  0  0  0
 13 14  2  0  0  0  0
 15 17  2  0  0  0  0
 15  9  1  0  0  0  0
 16  4  2  0  0  0  0
 16 12  1  0  0  0  0
 17 11  1  0  0  0  0
 18  1  2  0  0  0  0
 18  6  1  0  0  0  0
 19 20  1  0  0  0  0
 19 17  1  0  0  0  0
 20 21  2  0  0  0  0
 22 20  1  0  0  0  0
 23 25  1  0  0  0  0
 23 22  1  0  0  0  0
 24 23  2  0  0  0  0
M  END
>  <MODEL>
3

>  <REMARK>
 VINA RESULT:      -8.7      3.213      5.019
  Name = 
  3 active torsions:
  status: ('A' for Active; 'I' for Inactive)
    1  A    between atoms: C_2  and  C_21
    2  A    between atoms: N_6  and  C_23
    3  A    between atoms: C_15  and  C_21
                            x       y       z     vdW  Elec       q    Type
                         _______ _______ _______ _____ _____    ______ ____

>  <TORSDO>
F 3

$$$$
=
 OpenBabel11052412443D

 25 28  0  0  1  0  0  0  0  0999 V2000
  187.9070  177.5890  143.3970 C   0  0  0  0  0  0  0  0  0  0  0  0
  188.3400  177.5480  144.7950 N   0  0  0  0  0  0  0  0  0  0  0  0
  186.1480  178.1950  145.6640 C   0  0  0  0  0  3  0  0  0  0  0  0
  189.5070  177.1350  145.3120 C   0  0  0  0  0  0  0  0  0  0  0  0
  191.6940  176.3410  146.8130 C   0  0  0  0  0  3  0  0  0  0  0  0
  185.6850  178.3430  144.4590 N   0  0  0  0  0  0  0  0  0  0  0  0
  189.4440  177.1560  146.6840 C   0  0  0  0  0  0  0  0  0  0  0  0
  190.5260  176.7640  147.4710 C   0  0  0  0  0  3  0  0  0  0  0  0
  185.9820  178.4000  142.0630 C   0  0  2  0  0  3  0  0  0  0  0  0
  184.3100  178.9060  141.8730 Cl  0  0  0  0  0  0  0  0  0  0  0  0
  189.0110  178.6410  142.4020 S   0  0  0  0  0  0  0  0  0  0  0  0
  191.7540  176.3120  145.4030 C   0  0  0  0  0  3  0  0  0  0  0  0
  187.5420  177.7970  145.8520 C   0  0  0  0  0  0  0  0  0  0  0  0
  188.1820  177.5770  147.0710 C   0  0  0  0  0  3  0  0  0  0  0  0
  186.8010  178.2560  140.8440 C   0  0  0  0  0  3  0  0  0  0  0  0
  190.6480  176.7090  144.6320 C   0  0  0  0  0  3  0  0  0  0  0  0
  188.1370  178.2460  140.8670 C   0  0  0  0  0  0  0  0  0  0  0  0
  186.4880  178.1310  143.2790 C   0  0  0  0  0  0  0  0  0  0  0  0
  188.8350  177.9660  139.6480 N   0  0  0  0  0  2  0  0  0  0  0  0
  189.9120  177.0390  139.4600 C   0  0  0  0  0  0  0  0  0  0  0  0
  190.3050  176.2930  140.3940 O   0  0  0  0  0  0  0  0  0  0  0  0
  190.5860  176.9670  138.1340 C   0  0  0  0  0  2  0  0  0  0  0  0
  191.6810  175.9570  138.1700 C   0  0  0  0  0  0  0  0  0  0  0  0
  191.3890  174.6090  138.0120 O   0  0  0  0  0  0  0  0  0  0  0  0
  192.8750  176.3290  138.3120 O   0  0  0  0  0  1  0  0  0  0  0  0
  1  2  1  0  0  0  0
  2  4  1  0  0  0  0
  2 13  1  0  0  0  0
  3 13  1  0  0  0  0
  4  7  1  0  0  0  0
  5  8  1  0  0  0  0
  6  3  2  0  0  0  0
  7 14  1  0  0  0  0
  7  8  2  0  0  0  0
  9 10  1  6  0  0  0
  9 18  1  0  0  0  0
 11  1  1  0  0  0  0
 12  5  2  0  0  0  0
 13 14  2  0  0  0  0
 15 17  2  0  0  0  0
 15  9  1  0  0  0  0
 16  4  2  0  0  0  0
 16 12  1  0  0  0  0
 17 11  1  0  0  0  0
 18  1  2  0  0  0  0
 18  6  1  0  0  0  0
 19 17  1  0  0  0  0
 20 19  1  0  0  0  0
 20 21  2  0  0  0  0
 22 23  1  0  0  0  0
 22 20  1  0  0  0  0
 23 25  1  0  0  0  0
 24 23  2  0  0  0  0
M  END
>  <MODEL>
4

>  <REMARK>
 VINA RESULT:      -8.6      2.415      4.482
  Name = 
  3 active torsions:
  status: ('A' for Active; 'I' for Inactive)
    1  A    between atoms: C_2  and  C_21
    2  A    between atoms: N_6  and  C_23
    3  A    between atoms: C_15  and  C_21
                            x       y       z     vdW  Elec       q    Type
                         _______ _______ _______ _____ _____    ______ ____

>  <TORSDO>
F 3

$$$$
=
 OpenBabel11052412443D

 25 28  0  0  1  0  0  0  0  0999 V2000
  187.4900  177.6440  143.7270 C   0  0  0  0  0  0  0  0  0  0  0  0
  188.1380  177.5160  145.0330 N   0  0  0  0  0  0  0  0  0  0  0  0
  186.0910  177.9970  146.2800 C   0  0  0  0  0  3  0  0  0  0  0  0
  189.3850  177.1170  145.3300 C   0  0  0  0  0  0  0  0  0  0  0  0
  191.8040  176.3090  146.4050 C   0  0  0  0  0  3  0  0  0  0  0  0
  185.4390  178.2150  145.1770 N   0  0  0  0  0  0  0  0  0  0  0  0
  189.5370  177.0310  146.6910 C   0  0  0  0  0  0  0  0  0  0  0  0
  190.7410  176.6290  147.2680 C   0  0  0  0  0  3  0  0  0  0  0  0
  185.3550  178.4680  142.7760 C   0  0  2  0  0  3  0  0  0  0  0  0
  183.6590  178.9130  142.8880 Cl  0  0  0  0  0  0  0  0  0  0  0  0
  188.3910  178.8170  142.6640 S   0  0  0  0  0  0  0  0  0  0  0  0
  191.6430  176.3890  145.0060 C   0  0  0  0  0  3  0  0  0  0  0  0
  187.5080  177.6480  146.2180 C   0  0  0  0  0  0  0  0  0  0  0  0
  188.3390  177.3650  147.3010 C   0  0  0  0  0  3  0  0  0  0  0  0
  185.9770  178.4540  141.4370 C   0  0  0  0  0  3  0  0  0  0  0  0
  190.4180  176.7950  144.4490 C   0  0  0  0  0  3  0  0  0  0  0  0
  187.3000  178.5010  141.2540 C   0  0  0  0  0  0  0  0  0  0  0  0
  186.0540  178.1300  143.8740 C   0  0  0  0  0  0  0  0  0  0  0  0
  187.8060  178.3460  139.9230 N   0  0  0  0  0  2  0  0  0  0  0  0
  188.9300  177.5580  139.5120 C   0  0  0  0  0  0  0  0  0  0  0  0
  189.5560  176.8310  140.3260 O   0  0  0  0  0  0  0  0  0  0  0  0
  189.3730  177.6090  138.0900 C   0  0  0  0  0  2  0  0  0  0  0  0
  188.6020  178.6460  137.3500 C   0  0  0  0  0  0  0  0  0  0  0  0
  187.4540  178.2930  136.6520 O   0  0  0  0  0  0  0  0  0  0  0  0
  188.9720  179.8490  137.3820 O   0  0  0  0  0  1  0  0  0  0  0  0
  1 18  2  0  0  0  0
  1  2  1  0  0  0  0
  2  4  1  0  0  0  0
  2 13  1  0  0  0  0
  4  7  1  0  0  0  0
  5  8  1  0  0  0  0
  6  3  2  0  0  0  0
  7  8  2  0  0  0  0
  7 14  1  0  0  0  0
  9 10  1  6  0  0  0
  9 18  1  0  0  0  0
 11  1  1  0  0  0  0
 12  5  2  0  0  0  0
 13  3  1  0  0  0  0
 13 14  2  0  0  0  0
 15  9  1  0  0  0  0
 16 12  1  0  0  0  0
 16  4  2  0  0  0  0
 17 15  2  0  0  0  0
 17 11  1  0  0  0  0
 18  6  1  0  0  0  0
 19 17  1  0  0  0  0
 20 19  1  0  0  0  0
 20 21  2  0  0  0  0
 22 20  1  0  0  0  0
 23 25  1  0  0  0  0
 23 22  1  0  0  0  0
 24 23  2  0  0  0  0
M  END
>  <MODEL>
5

>  <REMARK>
 VINA RESULT:      -8.6      2.620      4.813
  Name = 
  3 active torsions:
  status: ('A' for Active; 'I' for Inactive)
    1  A    between atoms: C_2  and  C_21
    2  A    between atoms: N_6  and  C_23
    3  A    between atoms: C_15  and  C_21
                            x       y       z     vdW  Elec       q    Type
                         _______ _______ _______ _____ _____    ______ ____

>  <TORSDO>
F 3

$$$$
=
 OpenBabel11052412443D

 25 28  0  0  1  0  0  0  0  0999 V2000
  186.4990  178.0450  142.9190 C   0  0  0  0  0  0  0  0  0  0  0  0
  186.4600  178.2610  144.3670 N   0  0  0  0  0  0  0  0  0  0  0  0
  184.2240  179.2500  144.3250 C   0  0  0  0  0  3  0  0  0  0  0  0
  187.3330  177.8720  145.3090 C   0  0  0  0  0  0  0  0  0  0  0  0
  188.7980  177.2340  147.5700 C   0  0  0  0  0  3  0  0  0  0  0  0
  184.1890  179.1800  143.0280 N   0  0  0  0  0  0  0  0  0  0  0  0
  186.8460  178.1830  146.5550 C   0  0  0  0  0  0  0  0  0  0  0  0
  187.5560  177.8780  147.7140 C   0  0  0  0  0  3  0  0  0  0  0  0
  185.2290  178.7130  140.8990 C   0  0  2  0  0  3  0  0  0  0  0  0
  183.7940  179.3020  140.0740 Cl  0  0  0  0  0  0  0  0  0  0  0  0
  188.0000  178.7750  142.1910 S   0  0  0  0  0  0  0  0  0  0  0  0
  189.2930  176.9070  146.2890 C   0  0  0  0  0  3  0  0  0  0  0  0
  185.4150  178.7890  145.0360 C   0  0  0  0  0  0  0  0  0  0  0  0
  185.6010  178.7760  146.4170 C   0  0  0  0  0  3  0  0  0  0  0  0
  186.3610  178.2530  140.0690 C   0  0  0  0  0  3  0  0  0  0  0  0
  188.5550  177.2230  145.1350 C   0  0  0  0  0  3  0  0  0  0  0  0
  187.6050  178.1410  140.5420 C   0  0  0  0  0  0  0  0  0  0  0  0
  185.2840  178.6630  142.2410 C   0  0  0  0  0  0  0  0  0  0  0  0
  188.6030  177.5570  139.6950 N   0  0  0  0  0  2  0  0  0  0  0  0
  189.2560  178.1720  138.5780 C   0  0  0  0  0  0  0  0  0  0  0  0
  189.0510  179.3770  138.2790 O   0  0  0  0  0  0  0  0  0  0  0  0
  190.1910  177.3640  137.7470 C   0  0  0  0  0  2  0  0  0  0  0  0
  191.0550  176.5200  138.6190 C   0  0  0  0  0  0  0  0  0  0  0  0
  191.9790  177.1150  139.4670 O   0  0  0  0  0  1  0  0  0  0  0  0
  190.9240  175.2680  138.6120 O   0  0  0  0  0  0  0  0  0  0  0  0
  1  2  1  0  0  0  0
  2 13  1  0  0  0  0
  2  4  1  0  0  0  0
  3 13  1  0  0  0  0
  4  7  1  0  0  0  0
  5  8  1  0  0  0  0
  6  3  2  0  0  0  0
  7  8  2  0  0  0  0
  9 10  1  6  0  0  0
  9 18  1  0  0  0  0
 11  1  1  0  0  0  0
 12  5  2  0  0  0  0
 13 14  2  0  0  0  0
 14  7  1  0  0  0  0
 15 17  2  0  0  0  0
 15  9  1  0  0  0  0
 16  4  2  0  0  0  0
 16 12  1  0  0  0  0
 17 11  1  0  0  0  0
 18  1  2  0  0  0  0
 18  6  1  0  0  0  0
 19 17  1  0  0  0  0
 20 19  1  0  0  0  0
 21 20  2  0  0  0  0
 22 20  1  0  0  0  0
 22 23  1  0  0  0  0
 23 24  1  0  0  0  0
 25 23  2  0  0  0  0
M  END
>  <MODEL>
6

>  <REMARK>
 VINA RESULT:      -8.6      2.665      4.373
  Name = 
  3 active torsions:
  status: ('A' for Active; 'I' for Inactive)
    1  A    between atoms: C_2  and  C_21
    2  A    between atoms: N_6  and  C_23
    3  A    between atoms: C_15  and  C_21
                            x       y       z     vdW  Elec       q    Type
                         _______ _______ _______ _____ _____    ______ ____

>  <TORSDO>
F 3

$$$$
=
 OpenBabel11052412443D

 25 28  0  0  1  0  0  0  0  0999 V2000
  188.8420  177.4100  143.6410 C   0  0  0  0  0  0  0  0  0  0  0  0
  187.4960  177.9840  143.5680 N   0  0  0  0  0  0  0  0  0  0  0  0
  187.5840  178.2980  141.1450 C   0  0  0  0  0  3  0  0  0  0  0  0
  186.5690  178.1030  144.5300 C   0  0  0  0  0  0  0  0  0  0  0  0
  184.3620  178.4990  146.1530 C   0  0  0  0  0  3  0  0  0  0  0  0
  188.8140  177.8800  141.1090 N   0  0  0  0  0  0  0  0  0  0  0  0
  185.4020  178.5930  143.9970 C   0  0  0  0  0  0  0  0  0  0  0  0
  184.2720  178.8060  144.7840 C   0  0  0  0  0  3  0  0  0  0  0  0
  190.8430  177.1580  142.2010 C   0  0  2  0  0  3  0  0  0  0  0  0
  191.6560  177.1060  140.6450 Cl  0  0  0  0  0  0  0  0  0  0  0  0
  189.8610  178.2900  144.8670 S   0  0  0  0  0  0  0  0  0  0  0  0
  185.5590  177.9870  146.6980 C   0  0  0  0  0  3  0  0  0  0  0  0
  186.8900  178.3740  142.4290 C   0  0  0  0  0  0  0  0  0  0  0  0
  185.5720  178.7770  142.6350 C   0  0  0  0  0  3  0  0  0  0  0  0
  191.6290  176.8100  143.4020 C   0  0  0  0  0  3  0  0  0  0  0  0
  186.6840  177.7790  145.8820 C   0  0  0  0  0  3  0  0  0  0  0  0
  191.2560  177.1610  144.6360 C   0  0  0  0  0  0  0  0  0  0  0  0
  189.5410  177.4820  142.2900 C   0  0  0  0  0  0  0  0  0  0  0  0
  192.0160  176.6590  145.7420 N   0  0  0  0  0  2  0  0  0  0  0  0
  191.5120  176.2060  147.0050 C   0  0  0  0  0  0  0  0  0  0  0  0
  190.2760  176.1360  147.2310 O   0  0  0  0  0  0  0  0  0  0  0  0
  192.4720  175.8210  148.0760 C   0  0  0  0  0  2  0  0  0  0  0  0
  192.7710  176.9950  148.9440 C   0  0  0  0  0  0  0  0  0  0  0  0
  193.9450  177.0310  149.6840 O   0  0  0  0  0  1  0  0  0  0  0  0
  191.9740  177.9680  148.9810 O   0  0  0  0  0  0  0  0  0  0  0  0
  1 11  1  0  0  0  0
  2  1  1  0  0  0  0
  2  4  1  0  0  0  0
  3 13  1  0  0  0  0
  4 16  1  0  0  0  0
  5 12  1  0  0  0  0
  6  3  2  0  0  0  0
  6 18  1  0  0  0  0
  7  4  2  0  0  0  0
  7  8  1  0  0  0  0
  8  5  2  0  0  0  0
  9 10  1  6  0  0  0
  9 18  1  0  0  0  0
  9 15  1  0  0  0  0
 13 14  2  0  0  0  0
 13  2  1  0  0  0  0
 14  7  1  0  0  0  0
 15 17  2  0  0  0  0
 16 12  2  0  0  0  0
 17 11  1  0  0  0  0
 17 19  1  0  0  0  0
 18  1  2  0  0  0  0
 19 20  1  0  0  0  0
 20 21  2  0  0  0  0
 20 22  1  0  0  0  0
 22 23  1  0  0  0  0
 23 25  2  0  0  0  0
 23 24  1  0  0  0  0
M  END
>  <MODEL>
7

>  <REMARK>
 VINA RESULT:      -8.3      3.806      5.585
  Name = 
  3 active torsions:
  status: ('A' for Active; 'I' for Inactive)
    1  A    between atoms: C_2  and  C_21
    2  A    between atoms: N_6  and  C_23
    3  A    between atoms: C_15  and  C_21
                            x       y       z     vdW  Elec       q    Type
                         _______ _______ _______ _____ _____    ______ ____

>  <TORSDO>
F 3

$$$$
=
 OpenBabel11052412443D

 25 28  0  0  1  0  0  0  0  0999 V2000
  187.2180  178.2360  142.4470 C   0  0  0  0  0  0  0  0  0  0  0  0
  187.5300  178.0720  141.0260 N   0  0  0  0  0  0  0  0  0  0  0  0
  185.3300  178.8390  140.2860 C   0  0  0  0  0  3  0  0  0  0  0  0
  188.6960  177.7560  140.4410 C   0  0  0  0  0  0  0  0  0  0  0  0
  190.8670  177.2000  138.8160 C   0  0  0  0  0  3  0  0  0  0  0  0
  184.9230  178.9410  141.5160 N   0  0  0  0  0  0  0  0  0  0  0  0
  188.5680  177.8260  139.0760 C   0  0  0  0  0  0  0  0  0  0  0  0
  189.6390  177.5520  138.2270 C   0  0  0  0  0  3  0  0  0  0  0  0
  185.2430  178.6330  143.8900 C   0  0  2  0  0  3  0  0  0  0  0  0
  183.5970  179.1760  144.1780 Cl  0  0  0  0  0  0  0  0  0  0  0  0
  187.5570  176.7030  143.3710 S   0  0  0  0  0  0  0  0  0  0  0  0
  190.9980  177.1370  140.2200 C   0  0  0  0  0  3  0  0  0  0  0  0
  186.6860  178.3680  140.0170 C   0  0  0  0  0  0  0  0  0  0  0  0
  187.2790  178.2240  138.7630 C   0  0  0  0  0  3  0  0  0  0  0  0
  186.0510  178.2330  145.0590 C   0  0  0  0  0  3  0  0  0  0  0  0
  189.9030  177.4210  141.0540 C   0  0  0  0  0  3  0  0  0  0  0  0
  187.1450  177.4720  144.9560 C   0  0  0  0  0  0  0  0  0  0  0  0
  185.7550  178.6060  142.6470 C   0  0  0  0  0  0  0  0  0  0  0  0
  187.9320  177.2530  146.1330 N   0  0  0  0  0  2  0  0  0  0  0  0
  189.2960  177.6360  146.3450 C   0  0  0  0  0  0  0  0  0  0  0  0
  189.9300  178.3080  145.4900 O   0  0  0  0  0  0  0  0  0  0  0  0
  189.9820  177.2220  147.6000 C   0  0  0  0  0  2  0  0  0  0  0  0
  191.3520  176.7240  147.2960 C   0  0  0  0  0  0  0  0  0  0  0  0
  191.6090  176.0890  146.0880 O   0  0  0  0  0  0  0  0  0  0  0  0
  192.2850  176.9060  148.1210 O   0  0  0  0  0  1  0  0  0  0  0  0
  1 18  2  0  0  0  0
  1 11  1  0  0  0  0
  2  1  1  0  0  0  0
  3  6  2  0  0  0  0
  4  2  1  0  0  0  0
  4 16  1  0  0  0  0
  5 12  1  0  0  0  0
  6 18  1  0  0  0  0
  7  4  2  0  0  0  0
  8  5  2  0  0  0  0
  8  7  1  0  0  0  0
  9 10  1  1  0  0  0
  9 15  1  0  0  0  0
 11 17  1  0  0  0  0
 12 16  2  0  0  0  0
 13  3  1  0  0  0  0
 13  2  1  0  0  0  0
 14  7  1  0  0  0  0
 14 13  2  0  0  0  0
 17 15  2  0  0  0  0
 17 19  1  0  0  0  0
 18  9  1  0  0  0  0
 19 20  1  0  0  0  0
 20 22  1  0  0  0  0
 21 20  2  0  0  0  0
 23 22  1  0  0  0  0
 23 25  1  0  0  0  0
 24 23  2  0  0  0  0
M  END
>  <MODEL>
8

>  <REMARK>
 VINA RESULT:      -8.2      3.498      6.766
  Name = 
  3 active torsions:
  status: ('A' for Active; 'I' for Inactive)
    1  A    between atoms: C_2  and  C_21
    2  A    between atoms: N_6  and  C_23
    3  A    between atoms: C_15  and  C_21
                            x       y       z     vdW  Elec       q    Type
                         _______ _______ _______ _____ _____    ______ ____

>  <TORSDO>
F 3

$$$$
=
 OpenBabel11052412443D

 25 28  0  0  1  0  0  0  0  0999 V2000
  189.4940  177.8700  143.1260 C   0  0  0  0  0  0  0  0  0  0  0  0
  189.3350  177.5970  144.5550 N   0  0  0  0  0  0  0  0  0  0  0  0
  191.6800  176.9790  144.8660 C   0  0  0  0  0  3  0  0  0  0  0  0
  188.2700  177.7990  145.3470 C   0  0  0  0  0  0  0  0  0  0  0  0
  186.3750  178.0910  147.3440 C   0  0  0  0  0  3  0  0  0  0  0  0
  191.9110  177.1130  143.5950 N   0  0  0  0  0  0  0  0  0  0  0  0
  188.5940  177.5120  146.6500 C   0  0  0  0  0  0  0  0  0  0  0  0
  187.6660  177.6460  147.6810 C   0  0  0  0  0  3  0  0  0  0  0  0
  191.1650  177.5060  141.3320 C   0  0  2  0  0  3  0  0  0  0  0  0
  192.7910  177.1910  140.7460 Cl  0  0  0  0  0  0  0  0  0  0  0  0
  188.2700  176.9460  142.1440 S   0  0  0  0  0  0  0  0  0  0  0  0
  186.0460  178.3940  146.0050 C   0  0  0  0  0  3  0  0  0  0  0  0
  190.3310  177.2120  145.3780 C   0  0  0  0  0  0  0  0  0  0  0  0
  189.9250  177.1310  146.7090 C   0  0  0  0  0  3  0  0  0  0  0  0
  190.1210  177.8180  140.3350 C   0  0  0  0  0  3  0  0  0  0  0  0
  187.0020  178.2520  144.9840 C   0  0  0  0  0  3  0  0  0  0  0  0
  188.8160  177.7100  140.5960 C   0  0  0  0  0  0  0  0  0  0  0  0
  190.8880  177.4850  142.6470 C   0  0  0  0  0  0  0  0  0  0  0  0
  187.8860  178.1650  139.6070 N   0  0  0  0  0  2  0  0  0  0  0  0
  187.6090  177.5620  138.3370 C   0  0  0  0  0  0  0  0  0  0  0  0
  188.1370  176.4710  137.9990 O   0  0  0  0  0  0  0  0  0  0  0  0
  186.6840  178.2480  137.3920 C   0  0  0  0  0  2  0  0  0  0  0  0
  185.3100  178.3030  137.9670 C   0  0  0  0  0  0  0  0  0  0  0  0
  184.9320  179.3770  138.7610 O   0  0  0  0  0  1  0  0  0  0  0  0
  184.4830  177.3910  137.7070 O   0  0  0  0  0  0  0  0  0  0  0  0
  1  2  1  0  0  0  0
  2  4  1  0  0  0  0
  2 13  1  0  0  0  0
  3 13  1  0  0  0  0
  4  7  1  0  0  0  0
  5  8  1  0  0  0  0
  6  3  2  0  0  0  0
  7 14  1  0  0  0  0
  7  8  2  0  0  0  0
  9 10  1  1  0  0  0
  9 18  1  0  0  0  0
 11  1  1  0  0  0  0
 12  5  2  0  0  0  0
 13 14  2  0  0  0  0
 15 17  2  0  0  0  0
 15  9  1  0  0  0  0
 16  4  2  0  0  0  0
 16 12  1  0  0  0  0
 17 11  1  0  0  0  0
 18  1  2  0  0  0  0
 18  6  1  0  0  0  0
 19 17  1  0  0  0  0
 20 19  1  0  0  0  0
 21 20  2  0  0  0  0
 22 23  1  0  0  0  0
 22 20  1  0  0  0  0
 23 24  1  0  0  0  0
 25 23  2  0  0  0  0
M  END
>  <MODEL>
9

>  <REMARK>
 VINA RESULT:      -8.2      2.664      4.237
  Name = 
  3 active torsions:
  status: ('A' for Active; 'I' for Inactive)
    1  A    between atoms: C_2  and  C_21
    2  A    between atoms: N_6  and  C_23
    3  A    between atoms: C_15  and  C_21
                            x       y       z     vdW  Elec       q    Type
                         _______ _______ _______ _____ _____    ______ ____

>  <TORSDO>
F 3

$$$$
