=
 OpenBabel11052417033D

 32 36  0  0  1  0  0  0  0  0999 V2000
  183.4790  178.6960  143.7150 C   0  0  0  0  0  0  0  0  0  0  0  0
  188.0710  177.3260  142.5220 C   0  0  1  0  0  3  0  0  0  0  0  0
  189.4190  177.0630  140.4270 C   0  0  0  0  0  0  0  0  0  0  0  0
  190.7120  176.9290  139.7390 C   0  0  0  0  0  0  0  0  0  0  0  0
  186.0220  178.2700  142.4950 C   0  0  1  0  0  3  0  0  0  0  0  0
  186.8120  177.3960  144.7240 C   0  0  0  0  0  2  0  0  0  0  0  0
  193.2040  176.7760  138.4710 C   0  0  0  0  0  3  0  0  0  0  0  0
  184.5130  178.3520  144.5020 C   0  0  0  0  0  3  0  0  0  0  0  0
  188.1460  177.3700  144.0380 C   0  0  0  0  0  0  0  0  0  0  0  0
  189.3050  177.5160  144.7040 C   0  0  0  0  0  0  0  0  0  0  0  0
  190.5800  176.9270  142.6600 C   0  0  2  0  0  3  0  0  0  0  0  0
  192.0300  176.7040  137.7150 C   0  0  0  0  0  3  0  0  0  0  0  0
  183.6580  179.0420  142.2510 C   0  0  0  0  0  2  0  0  0  0  0  0
  185.9340  178.4340  144.0250 C   0  0  2  0  0  3  0  0  0  0  0  0
  190.7860  176.7840  138.3470 C   0  0  0  0  0  3  0  0  0  0  0  0
  185.1130  179.3070  141.8540 C   0  0  0  0  0  2  0  0  0  0  0  0
  190.5890  177.7310  143.9630 C   0  0  1  0  0  3  0  0  0  0  0  0
  191.8200  177.1390  141.9110 N   0  0  0  0  0  2  0  0  0  0  0  0
  187.3520  178.4490  142.0630 O   0  0  0  0  0  0  0  0  0  0  0  0
  188.3480  177.0440  139.7590 O   0  0  0  0  0  0  0  0  0  0  0  0
  193.1340  176.9200  139.8590 C   0  0  0  0  0  3  0  0  0  0  0  0
  189.3820  177.2350  141.8580 N   0  0  0  0  0  0  0  0  0  0  0  0
  191.8890  176.9870  140.4940 C   0  0  0  0  0  0  0  0  0  0  0  0
  189.3680  177.5980  147.3020 N   0  0  0  0  0  0  0  0  0  0  0  0
  189.3390  177.5610  146.1460 C   0  0  0  0  0  0  0  0  0  0  0  0
  192.0170  179.7270  144.4360 C   0  0  0  0  0  1  0  0  0  0  0  0
  190.7810  179.2260  143.7140 C   0  0  0  0  0  2  0  0  0  0  0  0
  182.0970  178.6100  144.2660 C   0  0  0  0  0  2  0  0  0  0  0  0
  179.7440  178.4790  143.3940 C   0  0  0  0  0  0  0  0  0  0  0  0
  181.1310  178.7460  143.1890 N   0  0  0  0  0  2  0  0  0  0  0  0
  178.9370  178.6020  142.4360 O   0  0  0  0  0  0  0  0  0  0  0  0
  179.2780  178.0840  144.6410 O   0  0  0  0  0  1  0  0  0  0  0  0
  1 28  1  0  0  0  0
  1  8  2  0  0  0  0
  2 19  1  6  0  0  0
  2  9  1  0  0  0  0
  3 22  1  0  0  0  0
  4  3  1  0  0  0  0
  4 23  1  0  0  0  0
  5 16  1  6  0  0  0
  5 14  1  0  0  0  0
  7 21  1  0  0  0  0
  9 10  2  0  0  0  0
  9  6  1  0  0  0  0
 10 25  1  0  0  0  0
 11 18  1  6  0  0  0
 11 17  1  0  0  0  0
 12 15  1  0  0  0  0
 12  7  2  0  0  0  0
 13  1  1  0  0  0  0
 14  8  1  1  0  0  0
 14  6  1  0  0  0  0
 15  4  2  0  0  0  0
 16 13  1  0  0  0  0
 17 27  1  6  0  0  0
 17 10  1  0  0  0  0
 19  5  1  0  0  0  0
 20  3  2  0  0  0  0
 21 23  2  0  0  0  0
 22  2  1  0  0  0  0
 22 11  1  0  0  0  0
 23 18  1  0  0  0  0
 25 24  3  0  0  0  0
 27 26  1  0  0  0  0
 29 32  1  0  0  0  0
 30 29  1  0  0  0  0
 30 28  1  0  0  0  0
 31 29  2  0  0  0  0
M  END
>  <MODEL>
1

>  <REMARK>
 VINA RESULT:      -9.3      0.000      0.000
  Name = 
  4 active torsions:
  status: ('A' for Active; 'I' for Inactive)
    1  A    between atoms: C_2  and  C_24
    2  A    between atoms: N_10  and  C_24
    3  A    between atoms: C_13  and  C_15
    4  A    between atoms: C_25  and  C_26
                            x       y       z     vdW  Elec       q    Type
                         _______ _______ _______ _____ _____    ______ ____

>  <TORSDO>
F 4

$$$$
=
 OpenBabel11052417033D

 32 36  0  0  1  0  0  0  0  0999 V2000
  188.3260  177.5100  144.5320 C   0  0  0  0  0  0  0  0  0  0  0  0
  189.8100  177.4430  139.8220 C   0  0  1  0  0  3  0  0  0  0  0  0
  191.8180  176.6600  138.5450 C   0  0  0  0  0  0  0  0  0  0  0  0
  192.4720  176.2850  137.2830 C   0  0  0  0  0  0  0  0  0  0  0  0
  189.5460  176.9660  142.0120 C   0  0  1  0  0  3  0  0  0  0  0  0
  187.7710  178.4220  140.9710 C   0  0  0  0  0  2  0  0  0  0  0  0
  193.6400  175.4840  134.8660 C   0  0  0  0  0  3  0  0  0  0  0  0
  187.6910  177.9110  143.4170 C   0  0  0  0  0  3  0  0  0  0  0  0
  188.3830  177.9400  139.6880 C   0  0  0  0  0  0  0  0  0  0  0  0
  187.6770  177.8280  138.5490 C   0  0  0  0  0  0  0  0  0  0  0  0
  189.7600  177.3750  137.2790 C   0  0  2  0  0  3  0  0  0  0  0  0
  194.4020  175.5000  136.0380 C   0  0  0  0  0  3  0  0  0  0  0  0
  189.5560  176.6270  144.4870 C   0  0  0  0  0  2  0  0  0  0  0  0
  188.0650  177.3900  142.0590 C   0  0  2  0  0  3  0  0  0  0  0  0
  193.8180  175.8960  137.2460 C   0  0  0  0  0  3  0  0  0  0  0  0
  189.7880  175.9620  143.1270 C   0  0  0  0  0  2  0  0  0  0  0  0
  188.2520  177.1150  137.3630 C   0  0  1  0  0  3  0  0  0  0  0  0
  190.3450  176.6710  136.1370 N   0  0  0  0  0  2  0  0  0  0  0  0
  189.8460  176.3900  140.7600 O   0  0  0  0  0  0  0  0  0  0  0  0
  192.4760  176.6410  139.6220 O   0  0  0  0  0  0  0  0  0  0  0  0
  192.2970  175.8710  134.8990 C   0  0  0  0  0  3  0  0  0  0  0  0
  190.4260  177.0330  138.5490 N   0  0  0  0  0  0  0  0  0  0  0  0
  191.7160  176.2800  136.1040 C   0  0  0  0  0  0  0  0  0  0  0  0
  185.2290  178.6870  138.3850 N   0  0  0  0  0  0  0  0  0  0  0  0
  186.3190  178.3040  138.4580 C   0  0  0  0  0  0  0  0  0  0  0  0
  186.9440  175.2200  136.3910 C   0  0  0  0  0  1  0  0  0  0  0  0
  187.9320  175.6250  137.4680 C   0  0  0  0  0  2  0  0  0  0  0  0
  187.8830  178.0540  145.8460 C   0  0  0  0  0  2  0  0  0  0  0  0
  185.6260  178.6300  146.7900 C   0  0  0  0  0  0  0  0  0  0  0  0
  186.4760  177.7530  146.0520 N   0  0  0  0  0  2  0  0  0  0  0  0
  184.4150  178.3330  146.9530 O   0  0  0  0  0  0  0  0  0  0  0  0
  186.1260  179.8080  147.3310 O   0  0  0  0  0  1  0  0  0  0  0  0
  1 28  1  0  0  0  0
  2  9  1  6  0  0  0
  2 19  1  0  0  0  0
  3 22  1  0  0  0  0
  3 20  2  0  0  0  0
  4  3  1  0  0  0  0
  5 14  1  0  0  0  0
  5 16  1  1  0  0  0
  7 21  2  0  0  0  0
  7 12  1  0  0  0  0
  8  1  2  0  0  0  0
  9  6  1  0  0  0  0
 10  9  2  0  0  0  0
 11 18  1  6  0  0  0
 11 17  1  0  0  0  0
 11 22  1  0  0  0  0
 12 15  2  0  0  0  0
 13  1  1  0  0  0  0
 14  6  1  6  0  0  0
 14  8  1  0  0  0  0
 15  4  1  0  0  0  0
 16 13  1  0  0  0  0
 17 27  1  1  0  0  0
 17 10  1  0  0  0  0
 19  5  1  0  0  0  0
 21 23  1  0  0  0  0
 22  2  1  0  0  0  0
 23 18  1  0  0  0  0
 23  4  2  0  0  0  0
 24 25  3  0  0  0  0
 25 10  1  0  0  0  0
 26 27  1  0  0  0  0
 28 30  1  0  0  0  0
 29 31  2  0  0  0  0
 29 32  1  0  0  0  0
 30 29  1  0  0  0  0
M  END
>  <MODEL>
2

>  <REMARK>
 VINA RESULT:      -8.4      3.257      5.729
  Name = 
  4 active torsions:
  status: ('A' for Active; 'I' for Inactive)
    1  A    between atoms: C_2  and  C_24
    2  A    between atoms: N_10  and  C_24
    3  A    between atoms: C_13  and  C_15
    4  A    between atoms: C_25  and  C_26
                            x       y       z     vdW  Elec       q    Type
                         _______ _______ _______ _____ _____    ______ ____

>  <TORSDO>
F 4

$$$$
=
 OpenBabel11052417033D

 32 36  0  0  1  0  0  0  0  0999 V2000
  185.9480  178.5340  146.0360 C   0  0  0  0  0  0  0  0  0  0  0  0
  184.9580  178.6490  141.2000 C   0  0  1  0  0  3  0  0  0  0  0  0
  186.2250  178.3280  139.0620 C   0  0  0  0  0  0  0  0  0  0  0  0
  186.2580  178.0740  137.6140 C   0  0  0  0  0  0  0  0  0  0  0  0
  185.8960  178.2060  143.2030 C   0  0  1  0  0  3  0  0  0  0  0  0
  183.5590  179.1480  143.2560 C   0  0  0  0  0  2  0  0  0  0  0  0
  186.2710  177.4880  134.8750 C   0  0  0  0  0  3  0  0  0  0  0  0
  184.7830  178.7270  145.3950 C   0  0  0  0  0  3  0  0  0  0  0  0
  183.5710  178.7800  141.8010 C   0  0  0  0  0  0  0  0  0  0  0  0
  182.4530  178.4560  141.1280 C   0  0  0  0  0  0  0  0  0  0  0  0
  183.7100  178.4730  138.9890 C   0  0  2  0  0  3  0  0  0  0  0  0
  187.4750  177.7330  135.5420 C   0  0  0  0  0  3  0  0  0  0  0  0
  187.1710  177.9750  145.3400 C   0  0  0  0  0  2  0  0  0  0  0  0
  184.5680  178.2600  143.9830 C   0  0  2  0  0  3  0  0  0  0  0  0
  187.4690  178.0220  136.9100 C   0  0  0  0  0  3  0  0  0  0  0  0
  186.8680  177.3340  143.9820 C   0  0  0  0  0  2  0  0  0  0  0  0
  182.5340  177.8590  139.7560 C   0  0  1  0  0  3  0  0  0  0  0  0
  183.8190  177.8880  137.6520 N   0  0  0  0  0  2  0  0  0  0  0  0
  185.6820  177.6730  141.9160 O   0  0  0  0  0  0  0  0  0  0  0  0
  187.3030  178.5100  139.6920 O   0  0  0  0  0  0  0  0  0  0  0  0
  185.0610  177.5390  135.5730 C   0  0  0  0  0  3  0  0  0  0  0  0
  184.9620  178.3510  139.7570 N   0  0  0  0  0  0  0  0  0  0  0  0
  185.0540  177.8410  136.9400 C   0  0  0  0  0  0  0  0  0  0  0  0
  180.1040  178.6880  142.2180 N   0  0  0  0  0  0  0  0  0  0  0  0
  181.1500  178.5850  141.7330 C   0  0  0  0  0  0  0  0  0  0  0  0
  181.3520  175.6730  139.4870 C   0  0  0  0  0  1  0  0  0  0  0  0
  182.6570  176.3410  139.8750 C   0  0  0  0  0  2  0  0  0  0  0  0
  186.0790  179.0050  147.4440 C   0  0  0  0  0  2  0  0  0  0  0  0
  188.2260  178.1930  148.4660 C   0  0  0  0  0  0  0  0  0  0  0  0
  187.4820  179.1920  147.7700 N   0  0  0  0  0  2  0  0  0  0  0  0
  189.4380  178.3930  148.7360 O   0  0  0  0  0  0  0  0  0  0  0  0
  187.6220  177.0020  148.8480 O   0  0  0  0  0  1  0  0  0  0  0  0
  1 28  1  0  0  0  0
  2  9  1  1  0  0  0
  2 19  1  0  0  0  0
  3 20  2  0  0  0  0
  3 22  1  0  0  0  0
  4  3  1  0  0  0  0
  5 16  1  1  0  0  0
  5 14  1  0  0  0  0
  7 12  2  0  0  0  0
  7 21  1  0  0  0  0
  8  1  2  0  0  0  0
  9  6  1  0  0  0  0
 10 25  1  0  0  0  0
 10  9  2  0  0  0  0
 11 18  1  6  0  0  0
 11 17  1  0  0  0  0
 11 22  1  0  0  0  0
 12 15  1  0  0  0  0
 13  1  1  0  0  0  0
 14  6  1  6  0  0  0
 14  8  1  0  0  0  0
 15  4  2  0  0  0  0
 16 13  1  0  0  0  0
 17 27  1  1  0  0  0
 17 10  1  0  0  0  0
 19  5  1  0  0  0  0
 21 23  2  0  0  0  0
 22  2  1  0  0  0  0
 23  4  1  0  0  0  0
 23 18  1  0  0  0  0
 25 24  3  0  0  0  0
 26 27  1  0  0  0  0
 28 30  1  0  0  0  0
 29 31  2  0  0  0  0
 29 32  1  0  0  0  0
 30 29  1  0  0  0  0
M  END
>  <MODEL>
3

>  <REMARK>
 VINA RESULT:      -7.8      3.848      7.030
  Name = 
  4 active torsions:
  status: ('A' for Active; 'I' for Inactive)
    1  A    between atoms: C_2  and  C_24
    2  A    between atoms: N_10  and  C_24
    3  A    between atoms: C_13  and  C_15
    4  A    between atoms: C_25  and  C_26
                            x       y       z     vdW  Elec       q    Type
                         _______ _______ _______ _____ _____    ______ ____

>  <TORSDO>
F 4

$$$$
=
 OpenBabel11052417033D

 32 36  0  0  1  0  0  0  0  0999 V2000
  193.1780  175.6950  137.1470 C   0  0  0  0  0  0  0  0  0  0  0  0
  189.3590  177.8010  139.4630 C   0  0  1  0  0  3  0  0  0  0  0  0
  186.9260  178.1880  139.0060 C   0  0  0  0  0  0  0  0  0  0  0  0
  185.5680  178.5160  139.4660 C   0  0  0  0  0  0  0  0  0  0  0  0
  190.6190  176.5040  138.1140 C   0  0  1  0  0  3  0  0  0  0  0  0
  191.8270  177.6240  140.0220 C   0  0  0  0  0  2  0  0  0  0  0  0
  182.9850  179.0460  140.4100 C   0  0  0  0  0  3  0  0  0  0  0  0
  193.1070  176.2600  138.3640 C   0  0  0  0  0  3  0  0  0  0  0  0
  190.4340  177.8530  140.5320 C   0  0  0  0  0  0  0  0  0  0  0  0
  190.1520  177.9530  141.8430 C   0  0  0  0  0  0  0  0  0  0  0  0
  187.8310  178.6510  141.3120 C   0  0  2  0  0  3  0  0  0  0  0  0
  183.2050  178.8650  139.0410 C   0  0  0  0  0  3  0  0  0  0  0  0
  191.9410  175.3090  136.3620 C   0  0  0  0  0  2  0  0  0  0  0  0
  191.8040  176.4090  139.0950 C   0  0  2  0  0  3  0  0  0  0  0  0
  184.4940  178.5970  138.5700 C   0  0  0  0  0  3  0  0  0  0  0  0
  190.6600  175.2880  137.2030 C   0  0  0  0  0  2  0  0  0  0  0  0
  188.7320  177.9320  142.3210 C   0  0  1  0  0  3  0  0  0  0  0  0
  186.4350  178.6250  141.7520 N   0  0  0  0  0  2  0  0  0  0  0  0
  189.4020  176.5440  138.8240 O   0  0  0  0  0  0  0  0  0  0  0  0
  187.1390  177.9800  137.7790 O   0  0  0  0  0  0  0  0  0  0  0  0
  184.0540  178.9660  141.3070 C   0  0  0  0  0  3  0  0  0  0  0  0
  188.0030  178.0900  139.9590 N   0  0  0  0  0  0  0  0  0  0  0  0
  185.3460  178.7110  140.8350 C   0  0  0  0  0  0  0  0  0  0  0  0
  192.0390  178.0230  143.6300 N   0  0  0  0  0  0  0  0  0  0  0  0
  191.1990  177.9920  142.8340 C   0  0  0  0  0  0  0  0  0  0  0  0
  187.6800  176.3280  143.9240 C   0  0  0  0  0  1  0  0  0  0  0  0
  188.2990  176.4850  142.5480 C   0  0  0  0  0  2  0  0  0  0  0  0
  194.5100  175.5610  136.4930 C   0  0  0  0  0  2  0  0  0  0  0  0
  196.0950  177.1520  135.3670 C   0  0  0  0  0  0  0  0  0  0  0  0
  194.7660  176.7230  135.6600 N   0  0  0  0  0  2  0  0  0  0  0  0
  196.2790  178.1670  134.6460 O   0  0  0  0  0  0  0  0  0  0  0  0
  197.1890  176.4580  135.8710 O   0  0  0  0  0  1  0  0  0  0  0  0
  1  8  2  0  0  0  0
  2 19  1  1  0  0  0
  2 22  1  0  0  0  0
  2  9  1  0  0  0  0
  3  4  1  0  0  0  0
  3 22  1  0  0  0  0
  4 23  1  0  0  0  0
  5 16  1  6  0  0  0
  5 19  1  0  0  0  0
  5 14  1  0  0  0  0
  6  9  1  0  0  0  0
  7 21  1  0  0  0  0
  9 10  2  0  0  0  0
 10 17  1  0  0  0  0
 10 25  1  0  0  0  0
 11 18  1  1  0  0  0
 11 17  1  0  0  0  0
 12  7  2  0  0  0  0
 13  1  1  0  0  0  0
 13 16  1  0  0  0  0
 14  8  1  6  0  0  0
 14  6  1  0  0  0  0
 15 12  1  0  0  0  0
 15  4  2  0  0  0  0
 17 27  1  6  0  0  0
 20  3  2  0  0  0  0
 22 11  1  0  0  0  0
 23 21  2  0  0  0  0
 23 18  1  0  0  0  0
 25 24  3  0  0  0  0
 27 26  1  0  0  0  0
 28  1  1  0  0  0  0
 29 30  1  0  0  0  0
 29 32  1  0  0  0  0
 30 28  1  0  0  0  0
 31 29  2  0  0  0  0
M  END
>  <MODEL>
4

>  <REMARK>
 VINA RESULT:      -7.1      3.452      9.322
  Name = 
  4 active torsions:
  status: ('A' for Active; 'I' for Inactive)
    1  A    between atoms: C_2  and  C_24
    2  A    between atoms: N_10  and  C_24
    3  A    between atoms: C_13  and  C_15
    4  A    between atoms: C_25  and  C_26
                            x       y       z     vdW  Elec       q    Type
                         _______ _______ _______ _____ _____    ______ ____

>  <TORSDO>
F 4

$$$$
=
 OpenBabel11052417033D

 32 36  0  0  1  0  0  0  0  0999 V2000
  193.2550  175.5820  137.1660 C   0  0  0  0  0  0  0  0  0  0  0  0
  189.4130  177.7520  139.3820 C   0  0  1  0  0  3  0  0  0  0  0  0
  186.9910  178.1480  138.8790 C   0  0  0  0  0  0  0  0  0  0  0  0
  185.6280  178.4910  139.3120 C   0  0  0  0  0  0  0  0  0  0  0  0
  190.6870  176.4250  138.0770 C   0  0  1  0  0  3  0  0  0  0  0  0
  191.8700  177.5690  139.9850 C   0  0  0  0  0  2  0  0  0  0  0  0
  183.0330  179.0540  140.2040 C   0  0  0  0  0  3  0  0  0  0  0  0
  193.1690  176.1690  138.3720 C   0  0  0  0  0  3  0  0  0  0  0  0
  190.4710  177.8160  140.4690 C   0  0  0  0  0  0  0  0  0  0  0  0
  190.1680  177.9410  141.7720 C   0  0  0  0  0  0  0  0  0  0  0  0
  187.8620  178.6440  141.1920 C   0  0  2  0  0  3  0  0  0  0  0  0
  183.2740  178.8480  138.8420 C   0  0  0  0  0  3  0  0  0  0  0  0
  192.0290  175.1900  136.3680 C   0  0  0  0  0  2  0  0  0  0  0  0
  191.8550  176.3390  139.0790 C   0  0  2  0  0  3  0  0  0  0  0  0
  184.5690  178.5640  138.3970 C   0  0  0  0  0  3  0  0  0  0  0  0
  190.7350  175.1930  137.1880 C   0  0  0  0  0  2  0  0  0  0  0  0
  188.7410  177.9370  142.2280 C   0  0  1  0  0  3  0  0  0  0  0  0
  186.4580  178.6340  141.6090 N   0  0  0  0  0  2  0  0  0  0  0  0
  189.4590  176.4840  138.7670 O   0  0  0  0  0  0  0  0  0  0  0  0
  187.2220  177.9160  137.6600 O   0  0  0  0  0  0  0  0  0  0  0  0
  184.0870  178.9830  141.1200 C   0  0  0  0  0  3  0  0  0  0  0  0
  188.0510  178.0590  139.8520 N   0  0  0  0  0  0  0  0  0  0  0  0
  185.3850  178.7110  140.6730 C   0  0  0  0  0  0  0  0  0  0  0  0
  192.0270  178.0300  143.5890 N   0  0  0  0  0  0  0  0  0  0  0  0
  191.2000  177.9900  142.7800 C   0  0  0  0  0  0  0  0  0  0  0  0
  187.7730  176.3390  143.8880 C   0  0  0  0  0  1  0  0  0  0  0  0
  188.2950  176.4970  142.4730 C   0  0  0  0  0  2  0  0  0  0  0  0
  194.5970  175.4290  136.5370 C   0  0  0  0  0  2  0  0  0  0  0  0
  196.8910  174.8410  137.3780 C   0  0  0  0  0  0  0  0  0  0  0  0
  195.4730  174.6850  137.4260 N   0  0  0  0  0  2  0  0  0  0  0  0
  197.6180  174.1760  138.1600 O   0  0  0  0  0  1  0  0  0  0  0  0
  197.4740  175.7200  136.4740 O   0  0  0  0  0  0  0  0  0  0  0  0
  1  8  2  0  0  0  0
  2 19  1  1  0  0  0
  2 22  1  0  0  0  0
  2  9  1  0  0  0  0
  3  4  1  0  0  0  0
  3 22  1  0  0  0  0
  4 23  1  0  0  0  0
  5 16  1  6  0  0  0
  5 19  1  0  0  0  0
  5 14  1  0  0  0  0
  6  9  1  0  0  0  0
  7 21  1  0  0  0  0
  9 10  2  0  0  0  0
 10 17  1  0  0  0  0
 10 25  1  0  0  0  0
 11 18  1  1  0  0  0
 11 17  1  0  0  0  0
 12  7  2  0  0  0  0
 13  1  1  0  0  0  0
 13 16  1  0  0  0  0
 14  8  1  6  0  0  0
 14  6  1  0  0  0  0
 15 12  1  0  0  0  0
 15  4  2  0  0  0  0
 17 27  1  6  0  0  0
 20  3  2  0  0  0  0
 22 11  1  0  0  0  0
 23 21  2  0  0  0  0
 23 18  1  0  0  0  0
 25 24  3  0  0  0  0
 27 26  1  0  0  0  0
 28  1  1  0  0  0  0
 28 30  1  0  0  0  0
 29 30  1  0  0  0  0
 29 31  1  0  0  0  0
 32 29  2  0  0  0  0
M  END
>  <MODEL>
5

>  <REMARK>
 VINA RESULT:      -7.1      3.516      9.416
  Name = 
  4 active torsions:
  status: ('A' for Active; 'I' for Inactive)
    1  A    between atoms: C_2  and  C_24
    2  A    between atoms: N_10  and  C_24
    3  A    between atoms: C_13  and  C_15
    4  A    between atoms: C_25  and  C_26
                            x       y       z     vdW  Elec       q    Type
                         _______ _______ _______ _____ _____    ______ ____

>  <TORSDO>
F 4

$$$$
=
 OpenBabel11052417033D

 32 36  0  0  1  0  0  0  0  0999 V2000
  182.3580  178.6300  139.4100 C   0  0  0  0  0  0  0  0  0  0  0  0
  186.1110  178.7150  142.6180 C   0  0  1  0  0  3  0  0  0  0  0  0
  186.4080  178.5020  145.0970 C   0  0  0  0  0  0  0  0  0  0  0  0
  187.2570  178.2620  146.2730 C   0  0  0  0  0  0  0  0  0  0  0  0
  184.1200  178.3230  141.6320 C   0  0  1  0  0  3  0  0  0  0  0  0
  185.9770  179.0980  140.1140 C   0  0  0  0  0  2  0  0  0  0  0  0
  188.8990  177.7020  148.4720 C   0  0  0  0  0  3  0  0  0  0  0  0
  183.6790  178.7460  139.1950 C   0  0  0  0  0  3  0  0  0  0  0  0
  186.8420  178.7440  141.2880 C   0  0  0  0  0  0  0  0  0  0  0  0
  188.1200  178.3490  141.1520 C   0  0  0  0  0  0  0  0  0  0  0  0
  188.4420  178.4720  143.6090 C   0  0  2  0  0  3  0  0  0  0  0  0
  187.5530  178.0240  148.6700 C   0  0  0  0  0  3  0  0  0  0  0  0
  181.7930  178.1640  140.7360 C   0  0  0  0  0  2  0  0  0  0  0  0
  184.6910  178.2780  140.2010 C   0  0  2  0  0  3  0  0  0  0  0  0
  186.7320  178.3010  147.5720 C   0  0  0  0  0  3  0  0  0  0  0  0
  182.8330  177.5140  141.6540 C   0  0  0  0  0  2  0  0  0  0  0  0
  188.8670  177.7700  142.3150 C   0  0  1  0  0  3  0  0  0  0  0  0
  189.1480  177.9070  144.7600 N   0  0  0  0  0  2  0  0  0  0  0  0
  185.0520  177.7870  142.5430 O   0  0  0  0  0  0  0  0  0  0  0  0
  185.1810  178.7530  145.2500 O   0  0  0  0  0  0  0  0  0  0  0  0
  189.4260  177.6630  147.1780 C   0  0  0  0  0  3  0  0  0  0  0  0
  186.9780  178.4310  143.7740 N   0  0  0  0  0  0  0  0  0  0  0  0
  188.6090  177.9520  146.0800 C   0  0  0  0  0  0  0  0  0  0  0  0
  189.3130  178.4080  138.8430 N   0  0  0  0  0  0  0  0  0  0  0  0
  188.7820  178.3820  139.8710 C   0  0  0  0  0  0  0  0  0  0  0  0
  189.8650  175.5440  142.8570 C   0  0  0  0  0  1  0  0  0  0  0  0
  188.6220  176.2640  142.3710 C   0  0  0  0  0  2  0  0  0  0  0  0
  181.4150  179.0970  138.3550 C   0  0  0  0  0  2  0  0  0  0  0  0
  181.2400  181.5990  138.5140 C   0  0  0  0  0  0  0  0  0  0  0  0
  181.7940  180.4290  137.9140 N   0  0  0  0  0  2  0  0  0  0  0  0
  181.5880  182.7350  138.1010 O   0  0  0  0  0  0  0  0  0  0  0  0
  180.3210  181.4930  139.5500 O   0  0  0  0  0  1  0  0  0  0  0  0
  1 13  1  0  0  0  0
  2  9  1  6  0  0  0
  2 22  1  0  0  0  0
  3 20  2  0  0  0  0
  3  4  1  0  0  0  0
  4 15  1  0  0  0  0
  5 16  1  6  0  0  0
  5 19  1  0  0  0  0
  6 14  1  0  0  0  0
  6  9  1  0  0  0  0
  7 12  1  0  0  0  0
  8  1  2  0  0  0  0
 10  9  2  0  0  0  0
 10 17  1  0  0  0  0
 11 22  1  0  0  0  0
 11 18  1  1  0  0  0
 13 16  1  0  0  0  0
 14  8  1  6  0  0  0
 14  5  1  0  0  0  0
 15 12  2  0  0  0  0
 17 27  1  1  0  0  0
 17 11  1  0  0  0  0
 18 23  1  0  0  0  0
 19  2  1  0  0  0  0
 21  7  2  0  0  0  0
 22  3  1  0  0  0  0
 23  4  2  0  0  0  0
 23 21  1  0  0  0  0
 24 25  3  0  0  0  0
 25 10  1  0  0  0  0
 27 26  1  0  0  0  0
 28  1  1  0  0  0  0
 29 32  1  0  0  0  0
 30 28  1  0  0  0  0
 30 29  1  0  0  0  0
 31 29  2  0  0  0  0
M  END
>  <MODEL>
6

>  <REMARK>
 VINA RESULT:      -6.9      3.079      5.947
  Name = 
  4 active torsions:
  status: ('A' for Active; 'I' for Inactive)
    1  A    between atoms: C_2  and  C_24
    2  A    between atoms: N_10  and  C_24
    3  A    between atoms: C_13  and  C_15
    4  A    between atoms: C_25  and  C_26
                            x       y       z     vdW  Elec       q    Type
                         _______ _______ _______ _____ _____    ______ ____

>  <TORSDO>
F 4

$$$$
=
 OpenBabel11052417033D

 32 36  0  0  1  0  0  0  0  0999 V2000
  187.7290  177.7910  146.0560 C   0  0  0  0  0  0  0  0  0  0  0  0
  186.2090  178.5430  141.4190 C   0  0  1  0  0  3  0  0  0  0  0  0
  187.1470  178.2560  139.1130 C   0  0  0  0  0  0  0  0  0  0  0  0
  186.9690  178.1480  137.6580 C   0  0  0  0  0  0  0  0  0  0  0  0
  187.2930  177.7640  143.2380 C   0  0  1  0  0  3  0  0  0  0  0  0
  185.1590  179.0320  143.6760 C   0  0  0  0  0  2  0  0  0  0  0  0
  186.5650  177.8490  134.9020 C   0  0  0  0  0  3  0  0  0  0  0  0
  186.5430  178.2190  145.5920 C   0  0  0  0  0  3  0  0  0  0  0  0
  184.9410  178.8170  142.2070 C   0  0  0  0  0  0  0  0  0  0  0  0
  183.7140  178.7330  141.6630 C   0  0  0  0  0  0  0  0  0  0  0  0
  184.6970  178.7800  139.3860 C   0  0  2  0  0  3  0  0  0  0  0  0
  187.8620  177.8430  135.4230 C   0  0  0  0  0  3  0  0  0  0  0  0
  188.7570  177.1300  145.1610 C   0  0  0  0  0  2  0  0  0  0  0  0
  186.0920  177.9360  144.1880 C   0  0  2  0  0  3  0  0  0  0  0  0
  188.0640  177.9880  136.7990 C   0  0  0  0  0  3  0  0  0  0  0  0
  188.1970  176.6830  143.8070 C   0  0  0  0  0  2  0  0  0  0  0  0
  183.5370  178.2730  140.2480 C   0  0  1  0  0  3  0  0  0  0  0  0
  184.5520  178.3250  138.0020 N   0  0  0  0  0  2  0  0  0  0  0  0
  186.8460  177.4020  141.9510 O   0  0  0  0  0  0  0  0  0  0  0  0
  188.3070  178.2110  139.6080 O   0  0  0  0  0  0  0  0  0  0  0  0
  185.4690  178.0080  135.7560 C   0  0  0  0  0  3  0  0  0  0  0  0
  185.9950  178.3960  139.9690 N   0  0  0  0  0  0  0  0  0  0  0  0
  185.6710  178.1670  137.1320 C   0  0  0  0  0  0  0  0  0  0  0  0
  181.5780  179.2010  143.0690 N   0  0  0  0  0  0  0  0  0  0  0  0
  182.5290  178.9920  142.4430 C   0  0  0  0  0  0  0  0  0  0  0  0
  182.0320  176.3260  139.8080 C   0  0  0  0  0  1  0  0  0  0  0  0
  183.4280  176.7500  140.2250 C   0  0  0  0  0  2  0  0  0  0  0  0
  188.0980  178.0920  147.4680 C   0  0  0  0  0  2  0  0  0  0  0  0
  190.3840  177.0770  147.7100 C   0  0  0  0  0  0  0  0  0  0  0  0
  189.5410  178.2210  147.5810 N   0  0  0  0  0  2  0  0  0  0  0  0
  191.6290  177.2270  147.8120 O   0  0  0  0  0  1  0  0  0  0  0  0
  189.8410  175.7980  147.7260 O   0  0  0  0  0  0  0  0  0  0  0  0
  1 28  1  0  0  0  0
  2 19  1  1  0  0  0
  2  9  1  0  0  0  0
  3 20  2  0  0  0  0
  3 22  1  0  0  0  0
  4  3  1  0  0  0  0
  5 16  1  1  0  0  0
  5 14  1  0  0  0  0
  7 12  2  0  0  0  0
  7 21  1  0  0  0  0
  8  1  2  0  0  0  0
  9  6  1  0  0  0  0
 10  9  2  0  0  0  0
 10 25  1  0  0  0  0
 11 18  1  6  0  0  0
 11 22  1  0  0  0  0
 11 17  1  0  0  0  0
 12 15  1  0  0  0  0
 13  1  1  0  0  0  0
 14  6  1  6  0  0  0
 14  8  1  0  0  0  0
 15  4  2  0  0  0  0
 16 13  1  0  0  0  0
 17 27  1  1  0  0  0
 17 10  1  0  0  0  0
 19  5  1  0  0  0  0
 21 23  2  0  0  0  0
 22  2  1  0  0  0  0
 23  4  1  0  0  0  0
 23 18  1  0  0  0  0
 25 24  3  0  0  0  0
 26 27  1  0  0  0  0
 28 30  1  0  0  0  0
 29 32  2  0  0  0  0
 29 31  1  0  0  0  0
 30 29  1  0  0  0  0
M  END
>  <MODEL>
7

>  <REMARK>
 VINA RESULT:      -6.7      3.522      6.958
  Name = 
  4 active torsions:
  status: ('A' for Active; 'I' for Inactive)
    1  A    between atoms: C_2  and  C_24
    2  A    between atoms: N_10  and  C_24
    3  A    between atoms: C_13  and  C_15
    4  A    between atoms: C_25  and  C_26
                            x       y       z     vdW  Elec       q    Type
                         _______ _______ _______ _____ _____    ______ ____

>  <TORSDO>
F 4

$$$$
=
 OpenBabel11052417033D

 32 36  0  0  1  0  0  0  0  0999 V2000
  189.0770  177.6030  135.6980 C   0  0  0  0  0  0  0  0  0  0  0  0
  185.5960  177.7420  139.1980 C   0  0  1  0  0  3  0  0  0  0  0  0
  185.4980  178.1340  141.6710 C   0  0  0  0  0  0  0  0  0  0  0  0
  184.7450  178.4560  142.8920 C   0  0  0  0  0  0  0  0  0  0  0  0
  187.4980  178.0670  138.0270 C   0  0  1  0  0  3  0  0  0  0  0  0
  185.5300  177.1790  136.7250 C   0  0  0  0  0  2  0  0  0  0  0  0
  183.2830  179.1700  145.1710 C   0  0  0  0  0  3  0  0  0  0  0  0
  187.7440  177.4690  135.5990 C   0  0  0  0  0  3  0  0  0  0  0  0
  184.7610  177.6150  137.9370 C   0  0  0  0  0  0  0  0  0  0  0  0
  183.4730  177.9970  137.8770 C   0  0  0  0  0  0  0  0  0  0  0  0
  183.3510  178.0520  140.3540 C   0  0  2  0  0  3  0  0  0  0  0  0
  184.6430  178.8660  145.2810 C   0  0  0  0  0  3  0  0  0  0  0  0
  189.7440  178.1660  136.9360 C   0  0  0  0  0  2  0  0  0  0  0  0
  186.8130  178.0070  136.6480 C   0  0  2  0  0  3  0  0  0  0  0  0
  185.3740  178.5130  144.1430 C   0  0  0  0  0  3  0  0  0  0  0  0
  188.7760  178.8780  137.8870 C   0  0  0  0  0  2  0  0  0  0  0  0
  182.8170  178.6570  139.0520 C   0  0  1  0  0  3  0  0  0  0  0  0
  182.7360  178.6970  141.5160 N   0  0  0  0  0  2  0  0  0  0  0  0
  186.6380  178.6660  138.9710 O   0  0  0  0  0  0  0  0  0  0  0  0
  186.7360  177.8970  141.7410 O   0  0  0  0  0  0  0  0  0  0  0  0
  182.6520  179.1150  143.9240 C   0  0  0  0  0  3  0  0  0  0  0  0
  184.8240  178.1070  140.3970 N   0  0  0  0  0  0  0  0  0  0  0  0
  183.3800  178.7480  142.7870 C   0  0  0  0  0  0  0  0  0  0  0  0
  182.0970  177.7690  135.6830 N   0  0  0  0  0  0  0  0  0  0  0  0
  182.7100  177.8700  136.6600 C   0  0  0  0  0  0  0  0  0  0  0  0
  181.7890  180.8770  138.5420 C   0  0  0  0  0  1  0  0  0  0  0  0
  183.0540  180.1640  138.9790 C   0  0  0  0  0  2  0  0  0  0  0  0
  189.9360  177.0630  134.6060 C   0  0  0  0  0  2  0  0  0  0  0  0
  191.3490  175.1330  135.3740 C   0  0  0  0  0  0  0  0  0  0  0  0
  190.1430  175.6390  134.8050 N   0  0  0  0  0  2  0  0  0  0  0  0
  191.4960  173.8930  135.5250 O   0  0  0  0  0  0  0  0  0  0  0  0
  192.3640  175.9990  135.7620 O   0  0  0  0  0  1  0  0  0  0  0  0
  1 13  1  0  0  0  0
  2  9  1  6  0  0  0
  2 22  1  0  0  0  0
  3 20  2  0  0  0  0
  3  4  1  0  0  0  0
  4 15  1  0  0  0  0
  5 16  1  6  0  0  0
  5 19  1  0  0  0  0
  6  9  1  0  0  0  0
  7 12  1  0  0  0  0
  8  1  2  0  0  0  0
 10  9  2  0  0  0  0
 10 17  1  0  0  0  0
 11 22  1  0  0  0  0
 11 18  1  1  0  0  0
 13 16  1  0  0  0  0
 14  8  1  6  0  0  0
 14  6  1  0  0  0  0
 14  5  1  0  0  0  0
 15 12  2  0  0  0  0
 17 27  1  1  0  0  0
 17 11  1  0  0  0  0
 18 23  1  0  0  0  0
 19  2  1  0  0  0  0
 21  7  2  0  0  0  0
 22  3  1  0  0  0  0
 23  4  2  0  0  0  0
 23 21  1  0  0  0  0
 24 25  3  0  0  0  0
 25 10  1  0  0  0  0
 26 27  1  0  0  0  0
 28 30  1  0  0  0  0
 28  1  1  0  0  0  0
 29 31  2  0  0  0  0
 29 32  1  0  0  0  0
 30 29  1  0  0  0  0
M  END
>  <MODEL>
8

>  <REMARK>
 VINA RESULT:      -6.6      4.245      9.697
  Name = 
  4 active torsions:
  status: ('A' for Active; 'I' for Inactive)
    1  A    between atoms: C_2  and  C_24
    2  A    between atoms: N_10  and  C_24
    3  A    between atoms: C_13  and  C_15
    4  A    between atoms: C_25  and  C_26
                            x       y       z     vdW  Elec       q    Type
                         _______ _______ _______ _____ _____    ______ ____

>  <TORSDO>
F 4

$$$$
