=
 OpenBabel11052417023D

 32 38  0  0  1  0  0  0  0  0999 V2000
  185.7510  179.0550  141.2740 C   0  0  2  0  0  3  0  0  0  0  0  0
  184.0050  179.7370  144.6330 C   0  0  0  0  0  3  0  0  0  0  0  0
  182.8940  179.0310  144.3730 C   0  0  0  0  0  3  0  0  0  0  0  0
  185.2050  178.0730  138.8390 C   0  0  1  0  0  3  0  0  0  0  0  0
  183.9750  177.7810  137.9980 C   0  0  0  0  0  0  0  0  0  0  0  0
  181.7440  177.3580  137.5530 N   0  0  0  0  0  0  0  0  0  0  0  0
  185.0450  180.0030  143.5690 C   0  0  0  0  0  2  0  0  0  0  0  0
  184.9100  179.0500  142.4690 N   0  0  0  0  0  0  0  0  0  0  0  0
  183.6400  177.9070  140.7870 C   0  0  1  0  0  3  0  0  0  0  0  0
  182.2680  177.0330  136.2380 C   0  0  0  0  0  2  0  0  0  0  0  0
  184.0860  177.2620  136.2890 S   0  0  0  0  0  0  0  0  0  0  0  0
  182.6670  178.4190  143.0490 C   0  0  0  0  0  3  0  0  0  0  0  0
  183.6480  178.4730  142.1500 C   0  0  0  0  0  0  0  0  0  0  0  0
  182.3990  178.1120  139.9290 C   0  0  0  0  0  2  0  0  0  0  0  0
  186.0450  178.9540  138.1570 O   0  0  0  0  0  1  0  0  0  0  0  0
  180.3270  177.2660  137.8610 C   0  0  0  0  0  1  0  0  0  0  0  0
  184.7600  178.7090  140.1530 C   0  0  1  0  0  3  0  0  0  0  0  0
  182.7330  177.7360  138.4960 C   0  0  0  0  0  0  0  0  0  0  0  0
  188.6800  177.1240  142.8460 C   0  0  2  0  0  3  0  0  0  0  0  0
  188.3850  178.6490  140.5390 S   0  0  0  0  0  0  0  0  0  0  0  0
  190.3190  176.9660  141.1280 O   0  0  0  0  0  0  0  0  0  0  0  0
  186.9000  178.0400  141.3910 C   0  0  1  0  0  3  0  0  0  0  0  0
  189.3090  177.5110  141.5450 C   0  0  0  0  0  0  0  0  0  0  0  0
  187.2770  177.7110  142.8370 C   0  0  0  0  0  2  0  0  0  0  0  0
  190.6440  176.7820  144.3700 C   0  0  0  0  0  2  0  0  0  0  0  0
  189.4280  176.4640  145.1360 N   0  0  0  0  0  0  0  0  0  0  0  0
  189.4170  177.5440  144.1340 C   0  0  2  0  0  3  0  0  0  0  0  0
  189.5700  177.1040  146.4300 C   0  0  0  0  0  2  0  0  0  0  0  0
  188.2280  177.6360  148.5680 C   0  0  1  0  0  3  0  0  0  0  0  0
  188.3530  176.7930  147.2930 C   0  0  1  0  0  3  0  0  0  0  0  0
  189.3320  178.6680  148.7700 C   0  0  0  0  0  1  0  0  0  0  0  0
  187.4290  177.9930  147.3300 C   0  0  0  0  0  2  0  0  0  0  0  0
  1 22  1  0  0  0  0
  1  8  1  1  0  0  0
  3  2  2  0  0  0  0
  4 15  1  6  0  0  0
  4 17  1  0  0  0  0
  5 18  2  0  0  0  0
  5  4  1  0  0  0  0
  6 16  1  0  0  0  0
  6 18  1  0  0  0  0
  7  2  1  0  0  0  0
  8  7  1  0  0  0  0
  9 14  1  6  0  0  0
  9 13  1  0  0  0  0
 10 11  1  0  0  0  0
 10  6  1  0  0  0  0
 11  5  1  0  0  0  0
 12  3  1  0  0  0  0
 13  8  1  0  0  0  0
 13 12  2  0  0  0  0
 17  9  1  0  0  0  0
 17  1  1  0  0  0  0
 18 14  1  0  0  0  0
 19 27  1  0  0  0  0
 20 22  1  0  0  0  0
 20 23  1  0  0  0  0
 21 23  2  0  0  0  0
 22 24  1  0  0  0  0
 23 19  1  0  0  0  0
 24 19  1  0  0  0  0
 25 26  1  0  0  0  0
 26 28  1  0  0  0  0
 27 25  1  0  0  0  0
 27 26  1  0  0  0  0
 28 30  1  0  0  0  0
 29 31  1  0  0  0  0
 30 32  1  0  0  0  0
 30 29  1  0  0  0  0
 32 29  1  0  0  0  0
M  END
>  <MODEL>
1

>  <REMARK>
 VINA RESULT:      -8.1      0.000      0.000
  Name = 
  4 active torsions:
  status: ('A' for Active; 'I' for Inactive)
    1  A    between atoms: C_3  and  C_14
    2  A    between atoms: C_8  and  C_23
    3  A    between atoms: C_10  and  C_24
    4  A    between atoms: N_19  and  C_24
                            x       y       z     vdW  Elec       q    Type
                         _______ _______ _______ _____ _____    ______ ____

>  <TORSDO>
F 4

$$$$
=
 OpenBabel11052417023D

 32 38  0  0  1  0  0  0  0  0999 V2000
  190.6420  177.4570  139.6580 C   0  0  2  0  0  3  0  0  0  0  0  0
  187.1040  178.0840  138.2870 C   0  0  0  0  0  3  0  0  0  0  0  0
  187.0960  177.0650  137.4140 C   0  0  0  0  0  3  0  0  0  0  0  0
  192.8410  176.0290  139.0900 C   0  0  1  0  0  3  0  0  0  0  0  0
  193.4190  175.2880  137.8980 C   0  0  0  0  0  0  0  0  0  0  0  0
  193.4200  174.1960  135.8580 N   0  0  0  0  0  0  0  0  0  0  0  0
  188.3560  178.4800  139.0360 C   0  0  0  0  0  2  0  0  0  0  0  0
  189.3220  177.3830  139.0370 N   0  0  0  0  0  0  0  0  0  0  0  0
  190.6390  175.7040  137.9430 C   0  0  1  0  0  3  0  0  0  0  0  0
  194.7710  173.8510  136.2610 C   0  0  0  0  0  2  0  0  0  0  0  0
  195.0660  174.5870  137.9140 S   0  0  0  0  0  0  0  0  0  0  0  0
  188.2970  176.2340  137.1950 C   0  0  0  0  0  3  0  0  0  0  0  0
  189.3570  176.4360  137.9750 C   0  0  0  0  0  0  0  0  0  0  0  0
  191.2780  175.4290  136.5880 C   0  0  0  0  0  2  0  0  0  0  0  0
  193.7400  177.0070  139.5200 O   0  0  0  0  0  1  0  0  0  0  0  0
  192.8570  173.7540  134.5940 C   0  0  0  0  0  1  0  0  0  0  0  0
  191.5330  176.6920  138.6670 C   0  0  1  0  0  3  0  0  0  0  0  0
  192.7070  174.9660  136.8120 C   0  0  0  0  0  0  0  0  0  0  0  0
  189.5270  176.7760  143.2730 C   0  0  2  0  0  3  0  0  0  0  0  0
  191.9150  177.5960  142.1080 S   0  0  0  0  0  0  0  0  0  0  0  0
  191.5390  176.6600  144.5370 O   0  0  0  0  0  0  0  0  0  0  0  0
  190.6390  176.8320  141.0630 C   0  0  1  0  0  3  0  0  0  0  0  0
  190.9880  177.0030  143.5040 C   0  0  0  0  0  0  0  0  0  0  0  0
  189.2930  176.9570  141.7810 C   0  0  0  0  0  2  0  0  0  0  0  0
  188.4160  177.2580  145.4710 C   0  0  0  0  0  2  0  0  0  0  0  0
  187.3600  176.9020  144.5090 N   0  0  0  0  0  0  0  0  0  0  0  0
  188.5450  177.6590  144.0700 C   0  0  2  0  0  3  0  0  0  0  0  0
  186.2940  177.8710  144.6820 C   0  0  0  0  0  2  0  0  0  0  0  0
  184.0340  178.4990  143.6080 C   0  0  1  0  0  3  0  0  0  0  0  0
  185.4470  177.9340  143.4160 C   0  0  1  0  0  3  0  0  0  0  0  0
  183.6980  178.9260  145.0320 C   0  0  0  0  0  1  0  0  0  0  0  0
  185.1460  179.3780  143.0710 C   0  0  0  0  0  2  0  0  0  0  0  0
  1  8  1  6  0  0  0
  1 22  1  0  0  0  0
  2  7  1  0  0  0  0
  3  2  2  0  0  0  0
  4 15  1  6  0  0  0
  5 11  1  0  0  0  0
  5  4  1  0  0  0  0
  6 10  1  0  0  0  0
  6 18  1  0  0  0  0
  7  8  1  0  0  0  0
  9 14  1  6  0  0  0
  9 13  1  0  0  0  0
  9 17  1  0  0  0  0
 10 11  1  0  0  0  0
 12  3  1  0  0  0  0
 12 13  2  0  0  0  0
 13  8  1  0  0  0  0
 14 18  1  0  0  0  0
 16  6  1  0  0  0  0
 17  4  1  0  0  0  0
 17  1  1  0  0  0  0
 18  5  2  0  0  0  0
 19 23  1  0  0  0  0
 19 27  1  0  0  0  0
 20 23  1  0  0  0  0
 22 24  1  0  0  0  0
 22 20  1  0  0  0  0
 23 21  2  0  0  0  0
 24 19  1  0  0  0  0
 26 28  1  0  0  0  0
 26 25  1  0  0  0  0
 27 26  1  0  0  0  0
 27 25  1  0  0  0  0
 29 31  1  0  0  0  0
 30 29  1  0  0  0  0
 30 28  1  0  0  0  0
 32 30  1  0  0  0  0
 32 29  1  0  0  0  0
M  END
>  <MODEL>
2

>  <REMARK>
 VINA RESULT:      -7.8      4.464      7.370
  Name = 
  4 active torsions:
  status: ('A' for Active; 'I' for Inactive)
    1  A    between atoms: C_3  and  C_14
    2  A    between atoms: C_8  and  C_23
    3  A    between atoms: C_10  and  C_24
    4  A    between atoms: N_19  and  C_24
                            x       y       z     vdW  Elec       q    Type
                         _______ _______ _______ _____ _____    ______ ____

>  <TORSDO>
F 4

$$$$
=
 OpenBabel11052417023D

 32 38  0  0  1  0  0  0  0  0999 V2000
  188.9290  178.3580  141.8010 C   0  0  2  0  0  3  0  0  0  0  0  0
  191.9340  177.5940  144.0780 C   0  0  0  0  0  3  0  0  0  0  0  0
  191.2270  177.0820  145.0960 C   0  0  0  0  0  3  0  0  0  0  0  0
  186.2530  178.4990  141.9130 C   0  0  1  0  0  3  0  0  0  0  0  0
  185.1790  178.6080  142.9820 C   0  0  0  0  0  0  0  0  0  0  0  0
  184.2430  178.4480  145.0920 N   0  0  0  0  0  0  0  0  0  0  0  0
  191.2620  178.2660  142.9010 C   0  0  0  0  0  2  0  0  0  0  0  0
  189.8590  177.8660  142.8150 N   0  0  0  0  0  0  0  0  0  0  0  0
  187.6720  177.5560  143.7480 C   0  0  1  0  0  3  0  0  0  0  0  0
  183.0170  178.6980  144.3560 C   0  0  0  0  0  2  0  0  0  0  0  0
  183.4530  178.8540  142.5820 S   0  0  0  0  0  0  0  0  0  0  0  0
  189.7510  177.0870  145.0840 C   0  0  0  0  0  3  0  0  0  0  0  0
  189.1290  177.4970  143.9800 C   0  0  0  0  0  0  0  0  0  0  0  0
  186.7890  178.1230  144.8520 C   0  0  0  0  0  2  0  0  0  0  0  0
  186.1470  179.5710  141.0260 O   0  0  0  0  0  1  0  0  0  0  0  0
  184.2520  178.2590  146.5320 C   0  0  0  0  0  1  0  0  0  0  0  0
  187.6210  178.5320  142.5890 C   0  0  1  0  0  3  0  0  0  0  0  0
  185.4050  178.3790  144.2810 C   0  0  0  0  0  0  0  0  0  0  0  0
  189.9920  176.1340  138.8520 C   0  0  2  0  0  3  0  0  0  0  0  0
  188.1630  178.2080  139.1500 S   0  0  0  0  0  0  0  0  0  0  0  0
  188.3240  176.4650  137.1870 O   0  0  0  0  0  0  0  0  0  0  0  0
  188.7960  177.3690  140.6320 C   0  0  1  0  0  3  0  0  0  0  0  0
  188.8500  176.8620  138.2140 C   0  0  0  0  0  0  0  0  0  0  0  0
  190.1110  176.6770  140.2670 C   0  0  0  0  0  2  0  0  0  0  0  0
  191.3400  175.6460  136.7920 C   0  0  0  0  0  2  0  0  0  0  0  0
  191.9280  174.8760  137.9010 N   0  0  0  0  0  0  0  0  0  0  0  0
  191.3590  176.2130  138.1410 C   0  0  2  0  0  3  0  0  0  0  0  0
  193.3660  175.0500  137.8130 C   0  0  0  0  0  2  0  0  0  0  0  0
  195.3530  173.6140  137.0120 C   0  0  1  0  0  3  0  0  0  0  0  0
  194.0490  173.6870  137.8160 C   0  0  1  0  0  3  0  0  0  0  0  0
  195.7760  174.9180  136.3470 C   0  0  0  0  0  1  0  0  0  0  0  0
  195.3880  173.7850  138.5180 C   0  0  0  0  0  2  0  0  0  0  0  0
  1 17  1  0  0  0  0
  1  8  1  1  0  0  0
  2  3  2  0  0  0  0
  4 15  1  6  0  0  0
  4 17  1  0  0  0  0
  4  5  1  0  0  0  0
  5 18  2  0  0  0  0
  6 16  1  0  0  0  0
  7  2  1  0  0  0  0
  8  7  1  0  0  0  0
  8 13  1  0  0  0  0
  9 13  1  0  0  0  0
  9 14  1  1  0  0  0
 10  6  1  0  0  0  0
 11  5  1  0  0  0  0
 11 10  1  0  0  0  0
 12  3  1  0  0  0  0
 13 12  2  0  0  0  0
 17  9  1  0  0  0  0
 18 14  1  0  0  0  0
 18  6  1  0  0  0  0
 19 24  1  0  0  0  0
 20 22  1  0  0  0  0
 21 23  2  0  0  0  0
 22  1  1  0  0  0  0
 23 19  1  0  0  0  0
 23 20  1  0  0  0  0
 24 22  1  0  0  0  0
 25 26  1  0  0  0  0
 25 27  1  0  0  0  0
 26 27  1  0  0  0  0
 27 19  1  0  0  0  0
 28 30  1  0  0  0  0
 28 26  1  0  0  0  0
 29 30  1  0  0  0  0
 29 32  1  0  0  0  0
 30 32  1  0  0  0  0
 31 29  1  0  0  0  0
M  END
>  <MODEL>
3

>  <REMARK>
 VINA RESULT:      -7.6      4.052      7.452
  Name = 
  4 active torsions:
  status: ('A' for Active; 'I' for Inactive)
    1  A    between atoms: C_3  and  C_14
    2  A    between atoms: C_8  and  C_23
    3  A    between atoms: C_10  and  C_24
    4  A    between atoms: N_19  and  C_24
                            x       y       z     vdW  Elec       q    Type
                         _______ _______ _______ _____ _____    ______ ____

>  <TORSDO>
F 4

$$$$
=
 OpenBabel11052417023D

 32 38  0  0  1  0  0  0  0  0999 V2000
  188.1610  178.5780  141.3850 C   0  0  2  0  0  3  0  0  0  0  0  0
  190.4420  178.0840  144.4430 C   0  0  0  0  0  3  0  0  0  0  0  0
  189.4920  177.6170  145.2680 C   0  0  0  0  0  3  0  0  0  0  0  0
  185.5550  178.6260  140.7550 C   0  0  1  0  0  3  0  0  0  0  0  0
  184.2280  178.7680  141.4800 C   0  0  0  0  0  0  0  0  0  0  0  0
  182.7530  178.7180  143.2620 N   0  0  0  0  0  0  0  0  0  0  0  0
  190.1050  178.6480  143.0810 C   0  0  0  0  0  2  0  0  0  0  0  0
  188.7860  178.1910  142.6470 N   0  0  0  0  0  0  0  0  0  0  0  0
  186.4330  177.8650  142.9720 C   0  0  1  0  0  3  0  0  0  0  0  0
  181.7710  178.8710  142.2040 C   0  0  0  0  0  2  0  0  0  0  0  0
  182.6730  178.9210  140.6080 S   0  0  0  0  0  0  0  0  0  0  0  0
  188.0750  177.5660  144.8540 C   0  0  0  0  0  3  0  0  0  0  0  0
  187.7720  177.8760  143.5950 C   0  0  0  0  0  0  0  0  0  0  0  0
  185.2720  178.4730  143.7480 C   0  0  0  0  0  2  0  0  0  0  0  0
  185.6770  179.6300  139.7930 O   0  0  0  0  0  1  0  0  0  0  0  0
  182.3710  178.6290  144.6610 C   0  0  0  0  0  1  0  0  0  0  0  0
  186.6850  178.7560  141.7720 C   0  0  1  0  0  3  0  0  0  0  0  0
  184.0930  178.6370  142.8050 C   0  0  0  0  0  0  0  0  0  0  0  0
  190.0140  176.3590  138.8510 C   0  0  2  0  0  3  0  0  0  0  0  0
  187.8860  178.1400  138.6690 S   0  0  0  0  0  0  0  0  0  0  0  0
  188.6230  176.3190  136.9200 O   0  0  0  0  0  0  0  0  0  0  0  0
  188.3700  177.5060  140.3020 C   0  0  1  0  0  3  0  0  0  0  0  0
  188.9060  176.8590  137.9780 C   0  0  0  0  0  0  0  0  0  0  0  0
  189.8130  177.0040  140.2140 C   0  0  0  0  0  2  0  0  0  0  0  0
  191.6530  176.2530  136.9550 C   0  0  0  0  0  2  0  0  0  0  0  0
  192.1330  175.3420  138.0070 N   0  0  0  0  0  0  0  0  0  0  0  0
  191.4570  176.6010  138.3620 C   0  0  2  0  0  3  0  0  0  0  0  0
  193.5560  175.5840  138.1520 C   0  0  0  0  0  2  0  0  0  0  0  0
  195.5420  174.0520  137.5480 C   0  0  1  0  0  3  0  0  0  0  0  0
  194.3170  174.8360  137.0620 C   0  0  1  0  0  3  0  0  0  0  0  0
  195.8040  174.1270  139.0480 C   0  0  0  0  0  1  0  0  0  0  0  0
  194.2250  173.3430  137.3040 C   0  0  0  0  0  2  0  0  0  0  0  0
  1 17  1  0  0  0  0
  1  8  1  1  0  0  0
  2  3  2  0  0  0  0
  4 15  1  6  0  0  0
  4  5  1  0  0  0  0
  4 17  1  0  0  0  0
  5 18  2  0  0  0  0
  6 16  1  0  0  0  0
  7  2  1  0  0  0  0
  8  7  1  0  0  0  0
  8 13  1  0  0  0  0
  9 13  1  0  0  0  0
  9 14  1  1  0  0  0
 10  6  1  0  0  0  0
 11  5  1  0  0  0  0
 11 10  1  0  0  0  0
 12  3  1  0  0  0  0
 13 12  2  0  0  0  0
 17  9  1  0  0  0  0
 18  6  1  0  0  0  0
 18 14  1  0  0  0  0
 19 24  1  0  0  0  0
 20 22  1  0  0  0  0
 21 23  2  0  0  0  0
 22  1  1  0  0  0  0
 23 20  1  0  0  0  0
 23 19  1  0  0  0  0
 24 22  1  0  0  0  0
 25 26  1  0  0  0  0
 25 27  1  0  0  0  0
 26 28  1  0  0  0  0
 26 27  1  0  0  0  0
 27 19  1  0  0  0  0
 29 31  1  0  0  0  0
 30 32  1  0  0  0  0
 30 29  1  0  0  0  0
 30 28  1  0  0  0  0
 32 29  1  0  0  0  0
M  END
>  <MODEL>
4

>  <REMARK>
 VINA RESULT:      -7.3      3.879      6.611
  Name = 
  4 active torsions:
  status: ('A' for Active; 'I' for Inactive)
    1  A    between atoms: C_3  and  C_14
    2  A    between atoms: C_8  and  C_23
    3  A    between atoms: C_10  and  C_24
    4  A    between atoms: N_19  and  C_24
                            x       y       z     vdW  Elec       q    Type
                         _______ _______ _______ _____ _____    ______ ____

>  <TORSDO>
F 4

$$$$
=
 OpenBabel11052417023D

 32 38  0  0  1  0  0  0  0  0999 V2000
  185.7180  179.2300  142.2760 C   0  0  2  0  0  3  0  0  0  0  0  0
  185.2770  179.2500  146.0970 C   0  0  0  0  0  3  0  0  0  0  0  0
  184.0880  178.6280  146.1160 C   0  0  0  0  0  3  0  0  0  0  0  0
  184.2990  178.7660  140.0480 C   0  0  1  0  0  3  0  0  0  0  0  0
  182.8370  178.6670  139.6500 C   0  0  0  0  0  0  0  0  0  0  0  0
  180.5600  178.3770  139.9410 N   0  0  0  0  0  0  0  0  0  0  0  0
  185.9140  179.7080  144.8040 C   0  0  0  0  0  2  0  0  0  0  0  0
  185.3340  178.9980  143.6660 N   0  0  0  0  0  0  0  0  0  0  0  0
  183.4780  178.2350  142.3530 C   0  0  1  0  0  3  0  0  0  0  0  0
  180.5780  178.3150  138.4910 C   0  0  0  0  0  2  0  0  0  0  0  0
  182.3180  178.5010  137.9460 S   0  0  0  0  0  0  0  0  0  0  0  0
  183.3750  178.2980  144.8660 C   0  0  0  0  0  3  0  0  0  0  0  0
  183.9950  178.5170  143.7080 C   0  0  0  0  0  0  0  0  0  0  0  0
  182.0410  178.6280  142.0350 C   0  0  0  0  0  2  0  0  0  0  0  0
  184.9300  179.7530  139.2900 O   0  0  0  0  0  1  0  0  0  0  0  0
  179.3290  178.2470  140.7020 C   0  0  0  0  0  1  0  0  0  0  0  0
  184.3800  179.1320  141.5270 C   0  0  1  0  0  3  0  0  0  0  0  0
  181.8380  178.5430  140.5320 C   0  0  0  0  0  0  0  0  0  0  0  0
  188.9160  177.0970  142.2680 C   0  0  2  0  0  3  0  0  0  0  0  0
  187.7770  178.8800  140.4640 S   0  0  0  0  0  0  0  0  0  0  0  0
  189.6760  177.1170  140.0130 O   0  0  0  0  0  0  0  0  0  0  0  0
  186.7490  178.1940  141.7970 C   0  0  1  0  0  3  0  0  0  0  0  0
  188.9670  177.6230  140.8680 C   0  0  0  0  0  0  0  0  0  0  0  0
  187.6750  177.6970  142.9090 C   0  0  0  0  0  2  0  0  0  0  0  0
  191.2810  176.4880  142.8450 C   0  0  0  0  0  2  0  0  0  0  0  0
  190.4490  176.2040  144.0260 N   0  0  0  0  0  0  0  0  0  0  0  0
  190.1470  177.3570  143.1610 C   0  0  2  0  0  3  0  0  0  0  0  0
  191.1630  176.7270  145.1750 C   0  0  0  0  0  2  0  0  0  0  0  0
  190.9710  176.0160  147.6470 C   0  0  1  0  0  3  0  0  0  0  0  0
  190.2850  176.6210  146.4170 C   0  0  1  0  0  3  0  0  0  0  0  0
  192.4310  175.6270  147.4460 C   0  0  0  0  0  1  0  0  0  0  0  0
  190.8300  177.5190  147.5090 C   0  0  0  0  0  2  0  0  0  0  0  0
  1  8  1  1  0  0  0
  2  3  2  0  0  0  0
  4 15  1  6  0  0  0
  4 17  1  0  0  0  0
  5  4  1  0  0  0  0
  5 18  2  0  0  0  0
  6 18  1  0  0  0  0
  6 16  1  0  0  0  0
  7  2  1  0  0  0  0
  8 13  1  0  0  0  0
  8  7  1  0  0  0  0
  9 14  1  1  0  0  0
  9 13  1  0  0  0  0
 10  6  1  0  0  0  0
 11 10  1  0  0  0  0
 11  5  1  0  0  0  0
 12  3  1  0  0  0  0
 13 12  2  0  0  0  0
 17  1  1  0  0  0  0
 17  9  1  0  0  0  0
 18 14  1  0  0  0  0
 19 24  1  0  0  0  0
 19 27  1  0  0  0  0
 20 23  1  0  0  0  0
 20 22  1  0  0  0  0
 21 23  2  0  0  0  0
 22  1  1  0  0  0  0
 22 24  1  0  0  0  0
 23 19  1  0  0  0  0
 25 27  1  0  0  0  0
 25 26  1  0  0  0  0
 26 28  1  0  0  0  0
 27 26  1  0  0  0  0
 28 30  1  0  0  0  0
 30 32  1  0  0  0  0
 30 29  1  0  0  0  0
 31 29  1  0  0  0  0
 32 29  1  0  0  0  0
M  END
>  <MODEL>
5

>  <REMARK>
 VINA RESULT:      -6.8      1.641      2.117
  Name = 
  4 active torsions:
  status: ('A' for Active; 'I' for Inactive)
    1  A    between atoms: C_3  and  C_14
    2  A    between atoms: C_8  and  C_23
    3  A    between atoms: C_10  and  C_24
    4  A    between atoms: N_19  and  C_24
                            x       y       z     vdW  Elec       q    Type
                         _______ _______ _______ _____ _____    ______ ____

>  <TORSDO>
F 4

$$$$
=
 OpenBabel11052417023D

 32 38  0  0  1  0  0  0  0  0999 V2000
  187.8840  178.2950  139.9380 C   0  0  2  0  0  3  0  0  0  0  0  0
  191.5360  177.2640  140.5680 C   0  0  0  0  0  3  0  0  0  0  0  0
  191.3340  176.7210  141.7790 C   0  0  0  0  0  3  0  0  0  0  0  0
  185.5640  178.5450  141.2600 C   0  0  1  0  0  3  0  0  0  0  0  0
  185.1000  178.6350  142.7030 C   0  0  0  0  0  0  0  0  0  0  0  0
  185.2110  178.3860  145.0010 N   0  0  0  0  0  0  0  0  0  0  0  0
  190.4500  178.0350  139.8520 C   0  0  0  0  0  2  0  0  0  0  0  0
  189.1370  177.7020  140.3990 N   0  0  0  0  0  0  0  0  0  0  0  0
  187.5930  177.4310  142.2140 C   0  0  1  0  0  3  0  0  0  0  0  0
  183.8040  178.7340  144.9120 C   0  0  0  0  0  2  0  0  0  0  0  0
  183.4000  178.9790  143.1410 S   0  0  0  0  0  0  0  0  0  0  0  0
  190.0150  176.7910  142.4400 C   0  0  0  0  0  3  0  0  0  0  0  0
  188.9900  177.2950  141.7550 C   0  0  0  0  0  0  0  0  0  0  0  0
  187.3450  177.9670  143.6170 C   0  0  0  0  0  2  0  0  0  0  0  0
  185.1400  179.6730  140.5560 O   0  0  0  0  0  1  0  0  0  0  0  0
  185.8580  178.1090  146.2720 C   0  0  0  0  0  1  0  0  0  0  0  0
  187.0890  178.4770  141.2390 C   0  0  1  0  0  3  0  0  0  0  0  0
  185.8730  178.3170  143.7480 C   0  0  0  0  0  0  0  0  0  0  0  0
  187.4090  176.0530  136.8520 C   0  0  2  0  0  3  0  0  0  0  0  0
  186.1760  178.3720  137.7650 S   0  0  0  0  0  0  0  0  0  0  0  0
  185.3180  176.7050  135.9210 O   0  0  0  0  0  0  0  0  0  0  0  0
  187.1710  177.3860  138.9230 C   0  0  1  0  0  3  0  0  0  0  0  0
  186.2440  176.9750  136.6690 C   0  0  0  0  0  0  0  0  0  0  0  0
  188.1300  176.5140  138.1090 C   0  0  0  0  0  2  0  0  0  0  0  0
  187.9750  175.0180  134.6370 C   0  0  0  0  0  2  0  0  0  0  0  0
  189.0110  174.6050  135.5980 N   0  0  0  0  0  0  0  0  0  0  0  0
  188.4090  175.9460  135.6820 C   0  0  2  0  0  3  0  0  0  0  0  0
  190.2890  174.7690  134.9300 C   0  0  0  0  0  2  0  0  0  0  0  0
  192.2660  174.6000  136.5780 C   0  0  1  0  0  3  0  0  0  0  0  0
  191.3330  173.8800  135.5960 C   0  0  1  0  0  3  0  0  0  0  0  0
  191.9970  176.0900  136.7490 C   0  0  0  0  0  1  0  0  0  0  0  0
  191.0750  173.8140  137.0880 C   0  0  0  0  0  2  0  0  0  0  0  0
  1  8  1  1  0  0  0
  1 17  1  0  0  0  0
  2  3  2  0  0  0  0
  3 12  1  0  0  0  0
  4 15  1  6  0  0  0
  4  5  1  0  0  0  0
  5 11  1  0  0  0  0
  5 18  2  0  0  0  0
  6 16  1  0  0  0  0
  7  8  1  0  0  0  0
  7  2  1  0  0  0  0
  8 13  1  0  0  0  0
  9 14  1  1  0  0  0
 10  6  1  0  0  0  0
 11 10  1  0  0  0  0
 13  9  1  0  0  0  0
 13 12  2  0  0  0  0
 14 18  1  0  0  0  0
 17  4  1  0  0  0  0
 17  9  1  0  0  0  0
 18  6  1  0  0  0  0
 19 24  1  0  0  0  0
 20 22  1  0  0  0  0
 21 23  2  0  0  0  0
 22  1  1  0  0  0  0
 23 19  1  0  0  0  0
 23 20  1  0  0  0  0
 24 22  1  0  0  0  0
 25 26  1  0  0  0  0
 25 27  1  0  0  0  0
 26 27  1  0  0  0  0
 27 19  1  0  0  0  0
 28 30  1  0  0  0  0
 28 26  1  0  0  0  0
 29 31  1  0  0  0  0
 29 32  1  0  0  0  0
 30 29  1  0  0  0  0
 30 32  1  0  0  0  0
M  END
>  <MODEL>
6

>  <REMARK>
 VINA RESULT:      -6.8      3.935      7.836
  Name = 
  4 active torsions:
  status: ('A' for Active; 'I' for Inactive)
    1  A    between atoms: C_3  and  C_14
    2  A    between atoms: C_8  and  C_23
    3  A    between atoms: C_10  and  C_24
    4  A    between atoms: N_19  and  C_24
                            x       y       z     vdW  Elec       q    Type
                         _______ _______ _______ _____ _____    ______ ____

>  <TORSDO>
F 4

$$$$
=
 OpenBabel11052417023D

 32 38  0  0  1  0  0  0  0  0999 V2000
  182.1920  178.9640  140.3440 C   0  0  2  0  0  3  0  0  0  0  0  0
  179.0890  176.7580  140.8920 C   0  0  0  0  0  3  0  0  0  0  0  0
  179.6450  175.6080  140.4820 C   0  0  0  0  0  3  0  0  0  0  0  0
  184.5940  178.8690  139.1540 C   0  0  1  0  0  3  0  0  0  0  0  0
  185.2920  178.0230  138.1030 C   0  0  0  0  0  0  0  0  0  0  0  0
  185.6900  176.1750  136.7680 N   0  0  0  0  0  0  0  0  0  0  0  0
  179.7980  178.0840  140.7340 C   0  0  0  0  0  2  0  0  0  0  0  0
  181.2330  177.8810  140.5480 N   0  0  0  0  0  0  0  0  0  0  0  0
  183.1170  176.8710  139.4610 C   0  0  1  0  0  3  0  0  0  0  0  0
  186.9270  176.8820  136.4920 C   0  0  0  0  0  2  0  0  0  0  0  0
  186.9110  178.4370  137.4630 S   0  0  0  0  0  0  0  0  0  0  0  0
  181.0100  175.5740  139.9190 C   0  0  0  0  0  3  0  0  0  0  0  0
  181.7320  176.6930  139.9430 C   0  0  0  0  0  0  0  0  0  0  0  0
  183.4950  176.2650  138.1160 C   0  0  0  0  0  2  0  0  0  0  0  0
  184.5900  180.2060  138.7570 O   0  0  0  0  0  1  0  0  0  0  0  0
  185.3860  174.8880  136.1660 C   0  0  0  0  0  1  0  0  0  0  0  0
  183.1570  178.3780  139.3010 C   0  0  1  0  0  3  0  0  0  0  0  0
  184.8360  176.8350  137.6880 C   0  0  0  0  0  0  0  0  0  0  0  0
  184.7030  178.7870  143.2490 C   0  0  2  0  0  3  0  0  0  0  0  0
  181.9270  178.7870  143.0900 S   0  0  0  0  0  0  0  0  0  0  0  0
  183.4240  179.2200  145.2080 O   0  0  0  0  0  0  0  0  0  0  0  0
  182.8940  179.3480  141.6570 C   0  0  1  0  0  3  0  0  0  0  0  0
  183.4320  178.9070  144.0290 C   0  0  0  0  0  0  0  0  0  0  0  0
  184.3090  178.7790  141.7800 C   0  0  0  0  0  2  0  0  0  0  0  0
  186.2350  177.6460  144.8760 C   0  0  0  0  0  2  0  0  0  0  0  0
  187.0210  177.9580  143.6700 N   0  0  0  0  0  0  0  0  0  0  0  0
  185.6040  177.5730  143.5580 C   0  0  2  0  0  3  0  0  0  0  0  0
  187.7960  176.7710  143.3590 C   0  0  0  0  0  2  0  0  0  0  0  0
  190.3590  176.5180  143.5040 C   0  0  1  0  0  3  0  0  0  0  0  0
  189.0320  176.7180  144.2480 C   0  0  1  0  0  3  0  0  0  0  0  0
  190.2390  176.4190  141.9880 C   0  0  0  0  0  1  0  0  0  0  0  0
  189.9300  177.9020  143.9500 C   0  0  0  0  0  2  0  0  0  0  0  0
  1  8  1  1  0  0  0
  1 22  1  0  0  0  0
  3  2  2  0  0  0  0
  4 15  1  6  0  0  0
  4 17  1  0  0  0  0
  5  4  1  0  0  0  0
  6 18  1  0  0  0  0
  7  2  1  0  0  0  0
  8  7  1  0  0  0  0
  9 14  1  6  0  0  0
  9 13  1  0  0  0  0
 10  6  1  0  0  0  0
 10 11  1  0  0  0  0
 11  5  1  0  0  0  0
 12 13  2  0  0  0  0
 12  3  1  0  0  0  0
 13  8  1  0  0  0  0
 16  6  1  0  0  0  0
 17  9  1  0  0  0  0
 17  1  1  0  0  0  0
 18  5  2  0  0  0  0
 18 14  1  0  0  0  0
 19 27  1  0  0  0  0
 19 23  1  0  0  0  0
 20 23  1  0  0  0  0
 22 24  1  0  0  0  0
 22 20  1  0  0  0  0
 23 21  2  0  0  0  0
 24 19  1  0  0  0  0
 26 25  1  0  0  0  0
 27 26  1  0  0  0  0
 27 25  1  0  0  0  0
 28 26  1  0  0  0  0
 28 30  1  0  0  0  0
 29 32  1  0  0  0  0
 29 30  1  0  0  0  0
 31 29  1  0  0  0  0
 32 30  1  0  0  0  0
M  END
>  <MODEL>
7

>  <REMARK>
 VINA RESULT:      -6.6      2.762      4.597
  Name = 
  4 active torsions:
  status: ('A' for Active; 'I' for Inactive)
    1  A    between atoms: C_3  and  C_14
    2  A    between atoms: C_8  and  C_23
    3  A    between atoms: C_10  and  C_24
    4  A    between atoms: N_19  and  C_24
                            x       y       z     vdW  Elec       q    Type
                         _______ _______ _______ _____ _____    ______ ____

>  <TORSDO>
F 4

$$$$
=
 OpenBabel11052417023D

 32 38  0  0  1  0  0  0  0  0999 V2000
  187.4470  177.1650  142.4720 C   0  0  2  0  0  3  0  0  0  0  0  0
  183.9020  178.6260  142.7720 C   0  0  0  0  0  3  0  0  0  0  0  0
  184.1050  179.2830  143.9240 C   0  0  0  0  0  3  0  0  0  0  0  0
  189.6630  176.8360  143.9470 C   0  0  1  0  0  3  0  0  0  0  0  0
  190.0480  176.8680  145.4150 C   0  0  0  0  0  0  0  0  0  0  0  0
  189.8580  177.3910  147.6610 N   0  0  0  0  0  0  0  0  0  0  0  0
  184.9310  177.6720  142.2090 C   0  0  0  0  0  2  0  0  0  0  0  0
  186.2460  177.9310  142.7920 N   0  0  0  0  0  0  0  0  0  0  0  0
  187.7230  178.2540  144.6520 C   0  0  1  0  0  3  0  0  0  0  0  0
  191.2220  176.8960  147.6940 C   0  0  0  0  0  2  0  0  0  0  0  0
  191.6800  176.4070  145.9870 S   0  0  0  0  0  0  0  0  0  0  0  0
  185.3760  179.1570  144.6640 C   0  0  0  0  0  3  0  0  0  0  0  0
  186.3720  178.4760  144.1000 C   0  0  0  0  0  0  0  0  0  0  0  0
  187.8480  177.8610  146.1180 C   0  0  0  0  0  2  0  0  0  0  0  0
  189.9960  175.5970  143.3980 O   0  0  0  0  0  1  0  0  0  0  0  0
  189.1860  177.8780  148.8540 C   0  0  0  0  0  1  0  0  0  0  0  0
  188.1580  177.0550  143.8300 C   0  0  1  0  0  3  0  0  0  0  0  0
  189.2660  177.3820  146.3730 C   0  0  0  0  0  0  0  0  0  0  0  0
  188.4200  178.6250  139.0520 C   0  0  2  0  0  3  0  0  0  0  0  0
  189.5740  176.7530  140.7550 S   0  0  0  0  0  0  0  0  0  0  0  0
  190.6960  178.0060  138.7330 O   0  0  0  0  0  0  0  0  0  0  0  0
  188.3000  177.8730  141.4070 C   0  0  1  0  0  3  0  0  0  0  0  0
  189.6520  177.8250  139.3390 C   0  0  0  0  0  0  0  0  0  0  0  0
  187.4820  178.4070  140.2290 C   0  0  0  0  0  2  0  0  0  0  0  0
  186.3050  177.8800  137.9270 C   0  0  0  0  0  2  0  0  0  0  0  0
  187.3520  176.9000  137.5950 N   0  0  0  0  0  0  0  0  0  0  0  0
  187.6830  178.3290  137.7300 C   0  0  2  0  0  3  0  0  0  0  0  0
  187.2410  176.6360  136.1720 C   0  0  0  0  0  2  0  0  0  0  0  0
  189.2640  175.3660  135.1980 C   0  0  1  0  0  3  0  0  0  0  0  0
  187.8770  175.2890  135.8500 C   0  0  1  0  0  3  0  0  0  0  0  0
  189.8000  176.7770  134.9870 C   0  0  0  0  0  1  0  0  0  0  0  0
  189.1280  175.0990  136.6840 C   0  0  0  0  0  2  0  0  0  0  0  0
  1  8  1  1  0  0  0
  1 17  1  0  0  0  0
  2  3  2  0  0  0  0
  3 12  1  0  0  0  0
  4 15  1  1  0  0  0
  4  5  1  0  0  0  0
  5 11  1  0  0  0  0
  5 18  2  0  0  0  0
  6 10  1  0  0  0  0
  6 16  1  0  0  0  0
  7  2  1  0  0  0  0
  7  8  1  0  0  0  0
  8 13  1  0  0  0  0
  9 14  1  1  0  0  0
 11 10  1  0  0  0  0
 13  9  1  0  0  0  0
 13 12  2  0  0  0  0
 14 18  1  0  0  0  0
 17  4  1  0  0  0  0
 17  9  1  0  0  0  0
 18  6  1  0  0  0  0
 19 23  1  0  0  0  0
 19 24  1  0  0  0  0
 20 22  1  0  0  0  0
 21 23  2  0  0  0  0
 22  1  1  0  0  0  0
 23 20  1  0  0  0  0
 24 22  1  0  0  0  0
 26 27  1  0  0  0  0
 26 25  1  0  0  0  0
 27 25  1  0  0  0  0
 27 19  1  0  0  0  0
 28 26  1  0  0  0  0
 29 30  1  0  0  0  0
 29 32  1  0  0  0  0
 30 28  1  0  0  0  0
 30 32  1  0  0  0  0
 31 29  1  0  0  0  0
M  END
>  <MODEL>
8

>  <REMARK>
 VINA RESULT:      -6.6      3.041      8.222
  Name = 
  4 active torsions:
  status: ('A' for Active; 'I' for Inactive)
    1  A    between atoms: C_3  and  C_14
    2  A    between atoms: C_8  and  C_23
    3  A    between atoms: C_10  and  C_24
    4  A    between atoms: N_19  and  C_24
                            x       y       z     vdW  Elec       q    Type
                         _______ _______ _______ _____ _____    ______ ____

>  <TORSDO>
F 4

$$$$
=
 OpenBabel11052417023D

 32 38  0  0  1  0  0  0  0  0999 V2000
  186.8890  178.8010  140.4700 C   0  0  2  0  0  3  0  0  0  0  0  0
  190.1810  177.7390  138.7870 C   0  0  0  0  0  3  0  0  0  0  0  0
  190.6010  176.9290  139.7710 C   0  0  0  0  0  3  0  0  0  0  0  0
  185.6750  178.6870  142.8590 C   0  0  1  0  0  3  0  0  0  0  0  0
  186.0660  178.4330  144.3040 C   0  0  0  0  0  0  0  0  0  0  0  0
  187.3600  177.6680  146.0630 N   0  0  0  0  0  0  0  0  0  0  0  0
  188.9690  178.6280  138.9510 C   0  0  0  0  0  2  0  0  0  0  0  0
  188.1240  178.1480  140.0430 N   0  0  0  0  0  0  0  0  0  0  0  0
  187.7700  177.4320  142.3040 C   0  0  1  0  0  3  0  0  0  0  0  0
  186.1690  177.9930  146.8280 C   0  0  0  0  0  2  0  0  0  0  0  0
  184.9100  178.6280  145.6560 S   0  0  0  0  0  0  0  0  0  0  0  0
  189.8550  176.8150  141.0400 C   0  0  0  0  0  3  0  0  0  0  0  0
  188.6820  177.4380  141.1430 C   0  0  0  0  0  0  0  0  0  0  0  0
  188.3670  177.6270  143.6910 C   0  0  0  0  0  2  0  0  0  0  0  0
  185.0620  179.9360  142.7480 O   0  0  0  0  0  1  0  0  0  0  0  0
  188.5520  177.1230  146.6900 C   0  0  0  0  0  1  0  0  0  0  0  0
  186.9360  178.6610  141.9990 C   0  0  1  0  0  3  0  0  0  0  0  0
  187.2390  177.9030  144.6700 C   0  0  0  0  0  0  0  0  0  0  0  0
  184.6830  177.1340  137.8000 C   0  0  2  0  0  3  0  0  0  0  0  0
  184.3950  179.3730  139.4240 S   0  0  0  0  0  0  0  0  0  0  0  0
  182.5270  178.1040  138.0750 O   0  0  0  0  0  0  0  0  0  0  0  0
  185.6540  178.1310  139.8460 C   0  0  1  0  0  3  0  0  0  0  0  0
  183.7250  178.1690  138.3010 C   0  0  0  0  0  0  0  0  0  0  0  0
  185.9710  177.3220  138.5860 C   0  0  0  0  0  2  0  0  0  0  0  0
  184.0880  176.2660  135.5220 C   0  0  0  0  0  2  0  0  0  0  0  0
  185.4560  175.8140  135.8260 N   0  0  0  0  0  0  0  0  0  0  0  0
  184.9860  177.1310  136.2880 C   0  0  2  0  0  3  0  0  0  0  0  0
  186.2480  176.0540  134.6350 C   0  0  0  0  0  2  0  0  0  0  0  0
  188.7960  176.0140  135.0400 C   0  0  1  0  0  3  0  0  0  0  0  0
  187.5260  175.2250  134.6940 C   0  0  1  0  0  3  0  0  0  0  0  0
  188.5830  177.5030  135.2880 C   0  0  0  0  0  1  0  0  0  0  0  0
  188.0700  175.2200  136.1080 C   0  0  0  0  0  2  0  0  0  0  0  0
  1  8  1  6  0  0  0
  1 17  1  0  0  0  0
  2  7  1  0  0  0  0
  2  3  2  0  0  0  0
  3 12  1  0  0  0  0
  4 15  1  1  0  0  0
  4  5  1  0  0  0  0
  5 18  2  0  0  0  0
  5 11  1  0  0  0  0
  6 16  1  0  0  0  0
  6 10  1  0  0  0  0
  7  8  1  0  0  0  0
  8 13  1  0  0  0  0
  9 14  1  1  0  0  0
 11 10  1  0  0  0  0
 12 13  2  0  0  0  0
 13  9  1  0  0  0  0
 14 18  1  0  0  0  0
 17  9  1  0  0  0  0
 17  4  1  0  0  0  0
 18  6  1  0  0  0  0
 19 23  1  0  0  0  0
 19 24  1  0  0  0  0
 20 22  1  0  0  0  0
 21 23  2  0  0  0  0
 22  1  1  0  0  0  0
 23 20  1  0  0  0  0
 24 22  1  0  0  0  0
 25 26  1  0  0  0  0
 25 27  1  0  0  0  0
 26 27  1  0  0  0  0
 27 19  1  0  0  0  0
 28 30  1  0  0  0  0
 28 26  1  0  0  0  0
 29 31  1  0  0  0  0
 29 32  1  0  0  0  0
 30 29  1  0  0  0  0
 30 32  1  0  0  0  0
M  END
>  <MODEL>
9

>  <REMARK>
 VINA RESULT:      -6.6      3.126      8.501
  Name = 
  4 active torsions:
  status: ('A' for Active; 'I' for Inactive)
    1  A    between atoms: C_3  and  C_14
    2  A    between atoms: C_8  and  C_23
    3  A    between atoms: C_10  and  C_24
    4  A    between atoms: N_19  and  C_24
                            x       y       z     vdW  Elec       q    Type
                         _______ _______ _______ _____ _____    ______ ____

>  <TORSDO>
F 4

$$$$
