=
 OpenBabel11052414353D

 32 37  0  0  1  0  0  0  0  0999 V2000
  189.5770  177.1540  143.2250 C   0  0  0  0  0  0  0  0  0  0  0  0
  187.7510  177.5780  144.8010 C   0  0  0  0  0  0  0  0  0  0  0  0
  190.8840  176.6950  143.0010 C   0  0  0  0  0  3  0  0  0  0  0  0
  189.0730  177.1700  144.5500 C   0  0  0  0  0  0  0  0  0  0  0  0
  187.2600  177.6220  146.1240 C   0  0  0  0  0  0  0  0  0  0  0  0
  183.3530  178.9510  143.1990 C   0  0  0  0  0  3  0  0  0  0  0  0
  186.9020  177.9220  143.7210 C   0  0  0  0  0  0  0  0  0  0  0  0
  183.7500  178.6330  145.5660 C   0  0  0  0  0  3  0  0  0  0  0  0
  185.0780  178.2890  145.3030 C   0  0  0  0  0  0  0  0  0  0  0  0
  189.8780  176.7220  145.6120 C   0  0  0  0  0  0  0  0  0  0  0  0
  185.9290  177.9750  146.3610 C   0  0  0  0  0  3  0  0  0  0  0  0
  189.3710  176.6960  146.9150 O   0  0  0  0  0  0  0  0  0  0  0  0
  191.1760  176.2690  145.3650 C   0  0  0  0  0  3  0  0  0  0  0  0
  187.4170  177.9080  142.4170 C   0  0  0  0  0  3  0  0  0  0  0  0
  188.7440  177.5520  142.1560 C   0  0  0  0  0  0  0  0  0  0  0  0
  185.5600  178.2740  143.9710 C   0  0  0  0  0  0  0  0  0  0  0  0
  188.1790  177.3910  147.2960 C   0  0  1  0  0  3  0  0  0  0  0  0
  191.6790  176.2600  144.0640 C   0  0  0  0  0  3  0  0  0  0  0  0
  182.8880  178.9630  144.5160 C   0  0  0  0  0  3  0  0  0  0  0  0
  184.6810  178.6100  142.9270 C   0  0  0  0  0  3  0  0  0  0  0  0
  188.9100  178.1380  138.4070 C   0  0  0  0  0  0  0  0  0  0  0  0
  188.1730  178.6900  137.4130 F   0  0  0  0  0  0  0  0  0  0  0  0
  189.2110  177.5710  140.7530 C   0  0  0  0  0  0  0  0  0  0  0  0
  190.1440  177.5550  138.1080 C   0  0  0  0  0  3  0  0  0  0  0  0
  190.4420  176.9790  140.4360 C   0  0  0  0  0  3  0  0  0  0  0  0
  188.4340  178.1410  139.7240 C   0  0  0  0  0  0  0  0  0  0  0  0
  187.1870  178.6910  139.9990 O   0  0  0  0  0  1  0  0  0  0  0  0
  190.9150  176.9680  139.1230 C   0  0  0  0  0  0  0  0  0  0  0  0
  192.7420  176.3840  137.5610 C   0  0  0  0  0  1  0  0  0  0  0  0
  192.1500  176.3720  138.8520 O   0  0  0  0  0  0  0  0  0  0  0  0
  188.5490  178.7240  147.9290 C   0  0  0  0  0  2  0  0  0  0  0  0
  189.6240  178.5510  148.8000 O   0  0  0  0  0  1  0  0  0  0  0  0
  1  4  1  0  0  0  0
  2  5  1  0  0  0  0
  3  1  2  0  0  0  0
  3 18  1  0  0  0  0
  4  2  1  0  0  0  0
  4 10  2  0  0  0  0
  5 11  2  0  0  0  0
  5 17  1  0  0  0  0
  6 19  1  0  0  0  0
  7 16  1  0  0  0  0
  7  2  2  0  0  0  0
  9  8  1  0  0  0  0
  9 11  1  0  0  0  0
 10 12  1  0  0  0  0
 12 17  1  0  0  0  0
 13 10  1  0  0  0  0
 14  7  1  0  0  0  0
 15 14  2  0  0  0  0
 15  1  1  0  0  0  0
 16  9  2  0  0  0  0
 17 31  1  6  0  0  0
 18 13  2  0  0  0  0
 19  8  2  0  0  0  0
 20  6  2  0  0  0  0
 20 16  1  0  0  0  0
 21 26  1  0  0  0  0
 22 21  1  0  0  0  0
 23 15  1  0  0  0  0
 24 21  2  0  0  0  0
 24 28  1  0  0  0  0
 25 23  1  0  0  0  0
 26 27  1  0  0  0  0
 26 23  2  0  0  0  0
 28 25  2  0  0  0  0
 29 30  1  0  0  0  0
 30 28  1  0  0  0  0
 31 32  1  0  0  0  0
M  END
>  <MODEL>
1

>  <REMARK>
 VINA RESULT:     -12.1      0.000      0.000
  Name = 
  3 active torsions:
  status: ('A' for Active; 'I' for Inactive)
    1  A    between atoms: C_13  and  C_29
    2  A    between atoms: O_15  and  C_26
    3  A    between atoms: C_16  and  C_27
                            x       y       z     vdW  Elec       q    Type
                         _______ _______ _______ _____ _____    ______ ____

>  <TORSDO>
F 3

$$$$
=
 OpenBabel11052414353D

 32 37  0  0  1  0  0  0  0  0999 V2000
  190.0360  176.8280  144.0980 C   0  0  0  0  0  0  0  0  0  0  0  0
  187.9540  177.4280  145.2400 C   0  0  0  0  0  0  0  0  0  0  0  0
  191.3360  176.3020  144.1730 C   0  0  0  0  0  3  0  0  0  0  0  0
  189.2760  176.9510  145.2880 C   0  0  0  0  0  0  0  0  0  0  0  0
  187.2090  177.5790  146.4290 C   0  0  0  0  0  0  0  0  0  0  0  0
  184.0510  178.8710  142.6960 C   0  0  0  0  0  3  0  0  0  0  0  0
  187.3610  177.7350  143.9910 C   0  0  0  0  0  0  0  0  0  0  0  0
  183.9430  178.6940  145.1070 C   0  0  0  0  0  3  0  0  0  0  0  0
  185.2770  178.2790  145.1420 C   0  0  0  0  0  0  0  0  0  0  0  0
  189.8250  176.5410  146.5160 C   0  0  0  0  0  0  0  0  0  0  0  0
  185.8790  178.0010  146.3680 C   0  0  0  0  0  3  0  0  0  0  0  0
  189.0640  176.6210  147.6870 O   0  0  0  0  0  0  0  0  0  0  0  0
  191.1200  176.0210  146.5660 C   0  0  0  0  0  3  0  0  0  0  0  0
  188.1270  177.6140  142.8230 C   0  0  0  0  0  3  0  0  0  0  0  0
  189.4590  177.1890  142.8600 C   0  0  0  0  0  0  0  0  0  0  0  0
  186.0170  178.1570  143.9400 C   0  0  0  0  0  0  0  0  0  0  0  0
  187.8580  177.3880  147.7750 C   0  0  1  0  0  3  0  0  0  0  0  0
  191.8750  175.9060  145.3990 C   0  0  0  0  0  3  0  0  0  0  0  0
  183.3310  178.9890  143.8860 C   0  0  0  0  0  3  0  0  0  0  0  0
  185.3860  178.4590  142.7210 C   0  0  0  0  0  3  0  0  0  0  0  0
  192.1880  177.4710  140.2340 C   0  0  0  0  0  0  0  0  0  0  0  0
  193.4600  177.9240  140.1080 F   0  0  0  0  0  0  0  0  0  0  0  0
  190.2000  177.0960  141.5840 C   0  0  0  0  0  0  0  0  0  0  0  0
  191.5430  176.9110  139.1290 C   0  0  0  0  0  3  0  0  0  0  0  0
  189.5610  176.5470  140.4630 C   0  0  0  0  0  3  0  0  0  0  0  0
  191.5200  177.5760  141.4600 C   0  0  0  0  0  0  0  0  0  0  0  0
  192.1630  178.1710  142.5410 O   0  0  0  0  0  1  0  0  0  0  0  0
  190.2240  176.4480  139.2380 C   0  0  0  0  0  0  0  0  0  0  0  0
  188.3030  176.3800  137.6810 C   0  0  0  0  0  1  0  0  0  0  0  0
  189.5510  175.8890  138.1480 O   0  0  0  0  0  0  0  0  0  0  0  0
  188.1630  178.7430  148.3950 C   0  0  0  0  0  2  0  0  0  0  0  0
  189.4310  178.7230  148.9770 O   0  0  0  0  0  1  0  0  0  0  0  0
  1  3  2  0  0  0  0
  1  4  1  0  0  0  0
  2  4  1  0  0  0  0
  2  5  1  0  0  0  0
  3 18  1  0  0  0  0
  4 10  2  0  0  0  0
  5 17  1  0  0  0  0
  6 20  2  0  0  0  0
  6 19  1  0  0  0  0
  7  2  2  0  0  0  0
  8  9  1  0  0  0  0
  9 11  1  0  0  0  0
 10 13  1  0  0  0  0
 10 12  1  0  0  0  0
 11  5  2  0  0  0  0
 12 17  1  0  0  0  0
 14 15  2  0  0  0  0
 14  7  1  0  0  0  0
 15  1  1  0  0  0  0
 16  7  1  0  0  0  0
 16  9  2  0  0  0  0
 17 31  1  6  0  0  0
 18 13  2  0  0  0  0
 19  8  2  0  0  0  0
 20 16  1  0  0  0  0
 21 26  1  0  0  0  0
 22 21  1  0  0  0  0
 23 15  1  0  0  0  0
 24 28  1  0  0  0  0
 24 21  2  0  0  0  0
 25 23  1  0  0  0  0
 26 23  2  0  0  0  0
 26 27  1  0  0  0  0
 28 25  2  0  0  0  0
 29 30  1  0  0  0  0
 30 28  1  0  0  0  0
 31 32  1  0  0  0  0
M  END
>  <MODEL>
2

>  <REMARK>
 VINA RESULT:     -11.3      1.653      2.115
  Name = 
  3 active torsions:
  status: ('A' for Active; 'I' for Inactive)
    1  A    between atoms: C_13  and  C_29
    2  A    between atoms: O_15  and  C_26
    3  A    between atoms: C_16  and  C_27
                            x       y       z     vdW  Elec       q    Type
                         _______ _______ _______ _____ _____    ______ ____

>  <TORSDO>
F 3

$$$$
=
 OpenBabel11052414353D

 32 37  0  0  1  0  0  0  0  0999 V2000
  187.6830  177.9940  142.5060 C   0  0  0  0  0  0  0  0  0  0  0  0
  185.5010  178.4230  141.4810 C   0  0  0  0  0  0  0  0  0  0  0  0
  189.0740  177.8730  142.3580 C   0  0  0  0  0  3  0  0  0  0  0  0
  186.8910  178.2470  141.3590 C   0  0  0  0  0  0  0  0  0  0  0  0
  184.7080  178.6440  140.3350 C   0  0  0  0  0  0  0  0  0  0  0  0
  181.5050  178.8770  144.2420 C   0  0  0  0  0  3  0  0  0  0  0  0
  184.8980  178.4010  142.7630 C   0  0  0  0  0  0  0  0  0  0  0  0
  181.3660  179.1180  141.8370 C   0  0  0  0  0  3  0  0  0  0  0  0
  182.7380  178.8810  141.7280 C   0  0  0  0  0  0  0  0  0  0  0  0
  187.5020  178.3800  140.1000 C   0  0  1  0  0  3  0  0  0  0  0  0
  183.3370  178.8730  140.4690 C   0  0  0  0  0  3  0  0  0  0  0  0
  186.7280  178.6710  138.9710 O   0  0  0  0  0  0  0  0  0  0  0  0
  188.8870  178.2560  139.9760 C   0  0  0  0  0  3  0  0  0  0  0  0
  185.6940  178.1440  143.8880 C   0  0  0  0  0  3  0  0  0  0  0  0
  187.0700  177.9180  143.7760 C   0  0  0  0  0  0  0  0  0  0  0  0
  183.5130  178.6360  142.8880 C   0  0  0  0  0  0  0  0  0  0  0  0
  185.3030  178.5390  138.9540 C   0  0  0  0  0  0  0  0  0  0  0  0
  189.6710  177.9980  141.1010 C   0  0  0  0  0  3  0  0  0  0  0  0
  180.7500  179.1160  143.0910 C   0  0  0  0  0  3  0  0  0  0  0  0
  182.8780  178.6370  144.1420 C   0  0  0  0  0  3  0  0  0  0  0  0
  188.0230  177.5460  147.4330 C   0  0  0  0  0  0  0  0  0  0  0  0
  187.4790  177.6990  148.6660 F   0  0  0  0  0  0  0  0  0  0  0  0
  187.8370  177.6450  145.0110 C   0  0  0  0  0  0  0  0  0  0  0  0
  189.3520  177.1300  147.3140 C   0  0  0  0  0  3  0  0  0  0  0  0
  189.1750  177.2380  144.9060 C   0  0  0  0  0  3  0  0  0  0  0  0
  187.2650  177.8130  146.2880 C   0  0  0  0  0  0  0  0  0  0  0  0
  185.9550  178.2630  146.4250 O   0  0  0  0  0  1  0  0  0  0  0  0
  189.9350  176.9770  146.0480 C   0  0  0  0  0  0  0  0  0  0  0  0
  192.0250  176.0230  146.9660 C   0  0  0  0  0  1  0  0  0  0  0  0
  191.2640  176.5690  145.8980 O   0  0  0  0  0  0  0  0  0  0  0  0
  184.9260  177.2010  138.3330 C   0  0  0  0  0  2  0  0  0  0  0  0
  185.7340  176.9500  137.2240 O   0  0  0  0  0  1  0  0  0  0  0  0
  1 15  1  0  0  0  0
  2  7  1  0  0  0  0
  3  1  2  0  0  0  0
  4  2  2  0  0  0  0
  4  1  1  0  0  0  0
  5 11  1  0  0  0  0
  5  2  1  0  0  0  0
  7 16  2  0  0  0  0
  7 14  1  0  0  0  0
  8 19  2  0  0  0  0
  9  8  1  0  0  0  0
  9 16  1  0  0  0  0
 10 13  1  1  0  0  0
 10  4  1  0  0  0  0
 11  9  2  0  0  0  0
 12 10  1  0  0  0  0
 13 18  2  0  0  0  0
 15 14  2  0  0  0  0
 15 23  1  0  0  0  0
 16 20  1  0  0  0  0
 17 12  1  0  0  0  0
 17  5  2  0  0  0  0
 18  3  1  0  0  0  0
 19  6  1  0  0  0  0
 20  6  2  0  0  0  0
 21 22  1  0  0  0  0
 23 26  1  0  0  0  0
 24 21  1  0  0  0  0
 25 23  2  0  0  0  0
 25 28  1  0  0  0  0
 26 27  1  0  0  0  0
 26 21  2  0  0  0  0
 28 24  2  0  0  0  0
 30 28  1  0  0  0  0
 30 29  1  0  0  0  0
 31 17  1  0  0  0  0
 32 31  1  0  0  0  0
M  END
>  <MODEL>
3

>  <REMARK>
 VINA RESULT:     -10.9      2.809      6.425
  Name = 
  3 active torsions:
  status: ('A' for Active; 'I' for Inactive)
    1  A    between atoms: C_13  and  C_29
    2  A    between atoms: O_15  and  C_26
    3  A    between atoms: C_16  and  C_27
                            x       y       z     vdW  Elec       q    Type
                         _______ _______ _______ _____ _____    ______ ____

>  <TORSDO>
F 3

$$$$
=
 OpenBabel11052414353D

 32 37  0  0  1  0  0  0  0  0999 V2000
  186.4370  178.2420  145.0610 C   0  0  0  0  0  0  0  0  0  0  0  0
  188.8060  177.7730  144.6550 C   0  0  0  0  0  0  0  0  0  0  0  0
  185.4140  178.5420  145.9740 C   0  0  0  0  0  3  0  0  0  0  0  0
  187.7500  178.0260  145.5480 C   0  0  0  0  0  0  0  0  0  0  0  0
  190.1070  177.5280  145.1430 C   0  0  0  0  0  0  0  0  0  0  0  0
  190.5260  177.4170  140.1040 C   0  0  0  0  0  3  0  0  0  0  0  0
  188.5670  177.7860  143.2590 C   0  0  0  0  0  0  0  0  0  0  0  0
  192.0140  177.1770  141.9980 C   0  0  0  0  0  3  0  0  0  0  0  0
  190.9420  177.3710  142.8720 C   0  0  0  0  0  0  0  0  0  0  0  0
  188.0110  178.1230  146.9260 C   0  0  0  0  0  0  0  0  0  0  0  0
  191.1620  177.3320  144.2490 C   0  0  0  0  0  3  0  0  0  0  0  0
  189.3130  177.9530  147.4080 O   0  0  0  0  0  0  0  0  0  0  0  0
  186.9770  178.4230  147.8160 C   0  0  0  0  0  3  0  0  0  0  0  0
  187.2610  177.9950  142.7920 C   0  0  0  0  0  3  0  0  0  0  0  0
  186.1920  178.1990  143.6700 C   0  0  0  0  0  0  0  0  0  0  0  0
  189.6390  177.5900  142.3640 C   0  0  0  0  0  0  0  0  0  0  0  0
  190.3600  177.3760  146.6210 C   0  0  1  0  0  3  0  0  0  0  0  0
  185.6810  178.6270  147.3420 C   0  0  0  0  0  3  0  0  0  0  0  0
  191.8070  177.2010  140.6160 C   0  0  0  0  0  3  0  0  0  0  0  0
  189.4470  177.6100  140.9710 C   0  0  0  0  0  3  0  0  0  0  0  0
  183.3610  178.7910  141.2090 C   0  0  0  0  0  0  0  0  0  0  0  0
  183.1660  178.9750  139.8800 F   0  0  0  0  0  0  0  0  0  0  0  0
  184.8440  178.4030  143.0960 C   0  0  0  0  0  0  0  0  0  0  0  0
  182.2640  178.8050  142.0740 C   0  0  0  0  0  3  0  0  0  0  0  0
  183.7360  178.4310  143.9540 C   0  0  0  0  0  3  0  0  0  0  0  0
  184.6520  178.6010  141.7140 C   0  0  0  0  0  0  0  0  0  0  0  0
  185.7380  178.6280  140.8440 O   0  0  0  0  0  1  0  0  0  0  0  0
  182.4470  178.6280  143.4540 C   0  0  0  0  0  0  0  0  0  0  0  0
  180.0280  178.4320  143.9290 C   0  0  0  0  0  1  0  0  0  0  0  0
  181.3700  178.6430  144.3430 O   0  0  0  0  0  0  0  0  0  0  0  0
  190.5020  175.9010  146.9690 C   0  0  0  0  0  2  0  0  0  0  0  0
  191.8170  175.6280  147.3450 O   0  0  0  0  0  1  0  0  0  0  0  0
  1  4  1  0  0  0  0
  1  3  2  0  0  0  0
  2  5  1  0  0  0  0
  2  4  1  0  0  0  0
  3 18  1  0  0  0  0
  4 10  2  0  0  0  0
  5 17  1  0  0  0  0
  6 19  2  0  0  0  0
  6 20  1  0  0  0  0
  7  2  2  0  0  0  0
  8  9  2  0  0  0  0
  9 11  1  0  0  0  0
 10 12  1  0  0  0  0
 10 13  1  0  0  0  0
 11  5  2  0  0  0  0
 14  7  1  0  0  0  0
 14 15  2  0  0  0  0
 15  1  1  0  0  0  0
 16  9  1  0  0  0  0
 16  7  1  0  0  0  0
 17 31  1  6  0  0  0
 17 12  1  0  0  0  0
 18 13  2  0  0  0  0
 19  8  1  0  0  0  0
 20 16  2  0  0  0  0
 21 26  2  0  0  0  0
 21 24  1  0  0  0  0
 22 21  1  0  0  0  0
 23 15  1  0  0  0  0
 23 25  2  0  0  0  0
 24 28  2  0  0  0  0
 26 23  1  0  0  0  0
 27 26  1  0  0  0  0
 28 25  1  0  0  0  0
 28 30  1  0  0  0  0
 29 30  1  0  0  0  0
 31 32  1  0  0  0  0
M  END
>  <MODEL>
4

>  <REMARK>
 VINA RESULT:     -10.9      2.079      6.319
  Name = 
  3 active torsions:
  status: ('A' for Active; 'I' for Inactive)
    1  A    between atoms: C_13  and  C_29
    2  A    between atoms: O_15  and  C_26
    3  A    between atoms: C_16  and  C_27
                            x       y       z     vdW  Elec       q    Type
                         _______ _______ _______ _____ _____    ______ ____

>  <TORSDO>
F 3

$$$$
=
 OpenBabel11052414353D

 32 37  0  0  1  0  0  0  0  0999 V2000
  182.8390  178.6620  139.6980 C   0  0  0  0  0  0  0  0  0  0  0  0
  182.8580  178.8280  142.1420 C   0  0  0  0  0  0  0  0  0  0  0  0
  182.1610  178.8760  138.4880 C   0  0  0  0  0  3  0  0  0  0  0  0
  182.1880  178.9840  140.9150 C   0  0  0  0  0  0  0  0  0  0  0  0
  182.1990  179.1210  143.3540 C   0  0  0  0  0  0  0  0  0  0  0  0
  186.9010  177.8000  144.6700 C   0  0  0  0  0  3  0  0  0  0  0  0
  184.2070  178.3970  142.1570 C   0  0  0  0  0  0  0  0  0  0  0  0
  184.8940  178.5280  145.8120 C   0  0  0  0  0  3  0  0  0  0  0  0
  184.2250  178.6190  144.5890 C   0  0  0  0  0  0  0  0  0  0  0  0
  180.8880  179.5180  140.8950 C   0  0  0  0  0  0  0  0  0  0  0  0
  182.8890  179.0160  144.5650 C   0  0  0  0  0  3  0  0  0  0  0  0
  180.2570  179.8780  142.0910 O   0  0  0  0  0  0  0  0  0  0  0  0
  180.2330  179.7230  139.6780 C   0  0  0  0  0  3  0  0  0  0  0  0
  184.8360  178.0750  140.9460 C   0  0  0  0  0  3  0  0  0  0  0  0
  184.1660  178.1790  139.7220 C   0  0  0  0  0  0  0  0  0  0  0  0
  184.8950  178.2970  143.3840 C   0  0  0  0  0  0  0  0  0  0  0  0
  180.7290  179.4500  143.3730 C   0  0  1  0  0  3  0  0  0  0  0  0
  180.8660  179.3980  138.4780 C   0  0  0  0  0  3  0  0  0  0  0  0
  186.2300  178.1190  145.8530 C   0  0  0  0  0  3  0  0  0  0  0  0
  186.2390  177.8870  143.4430 C   0  0  0  0  0  3  0  0  0  0  0  0
  185.2620  176.3640  136.5710 C   0  0  0  0  0  0  0  0  0  0  0  0
  184.9230  175.2790  135.8310 F   0  0  0  0  0  0  0  0  0  0  0  0
  184.8980  177.8120  138.4900 C   0  0  0  0  0  0  0  0  0  0  0  0
  186.3410  177.1580  136.1760 C   0  0  0  0  0  3  0  0  0  0  0  0
  185.9900  178.5940  138.0880 C   0  0  0  0  0  3  0  0  0  0  0  0
  184.5440  176.6790  137.7310 C   0  0  0  0  0  0  0  0  0  0  0  0
  183.4960  175.8550  138.1320 O   0  0  0  0  0  1  0  0  0  0  0  0
  186.7120  178.2770  136.9360 C   0  0  0  0  0  0  0  0  0  0  0  0
  189.0580  179.0150  137.2070 C   0  0  0  0  0  1  0  0  0  0  0  0
  187.7910  179.0860  136.5690 O   0  0  0  0  0  0  0  0  0  0  0  0
  179.9360  178.2330  143.8250 C   0  0  0  0  0  2  0  0  0  0  0  0
  178.9410  178.6230  144.7220 O   0  0  0  0  0  1  0  0  0  0  0  0
  1 15  2  0  0  0  0
  1  4  1  0  0  0  0
  2  7  1  0  0  0  0
  2  5  1  0  0  0  0
  3  1  1  0  0  0  0
  4  2  2  0  0  0  0
  5 17  1  0  0  0  0
  5 11  2  0  0  0  0
  6 19  1  0  0  0  0
  7 16  1  0  0  0  0
  8 19  2  0  0  0  0
  9  8  1  0  0  0  0
 10  4  1  0  0  0  0
 10 12  1  0  0  0  0
 11  9  1  0  0  0  0
 12 17  1  0  0  0  0
 13 10  2  0  0  0  0
 14  7  2  0  0  0  0
 15 14  1  0  0  0  0
 16 20  1  0  0  0  0
 16  9  2  0  0  0  0
 17 31  1  6  0  0  0
 18  3  2  0  0  0  0
 18 13  1  0  0  0  0
 20  6  2  0  0  0  0
 21 26  1  0  0  0  0
 22 21  1  0  0  0  0
 23 15  1  0  0  0  0
 24 21  2  0  0  0  0
 24 28  1  0  0  0  0
 25 23  1  0  0  0  0
 26 27  1  0  0  0  0
 26 23  2  0  0  0  0
 28 25  2  0  0  0  0
 30 28  1  0  0  0  0
 30 29  1  0  0  0  0
 31 32  1  0  0  0  0
M  END
>  <MODEL>
5

>  <REMARK>
 VINA RESULT:     -10.5      4.012      6.785
  Name = 
  3 active torsions:
  status: ('A' for Active; 'I' for Inactive)
    1  A    between atoms: C_13  and  C_29
    2  A    between atoms: O_15  and  C_26
    3  A    between atoms: C_16  and  C_27
                            x       y       z     vdW  Elec       q    Type
                         _______ _______ _______ _____ _____    ______ ____

>  <TORSDO>
F 3

$$$$
=
 OpenBabel11052414353D

 32 37  0  0  1  0  0  0  0  0999 V2000
  189.4110  177.6730  142.6130 C   0  0  0  0  0  0  0  0  0  0  0  0
  187.5790  178.0940  141.0430 C   0  0  0  0  0  0  0  0  0  0  0  0
  190.7860  177.4940  142.8310 C   0  0  0  0  0  3  0  0  0  0  0  0
  188.9440  177.8630  141.2890 C   0  0  0  0  0  0  0  0  0  0  0  0
  187.1110  178.2530  139.7210 C   0  0  0  0  0  0  0  0  0  0  0  0
  183.0480  178.8900  142.6640 C   0  0  0  0  0  3  0  0  0  0  0  0
  186.6740  178.1900  142.1280 C   0  0  0  0  0  0  0  0  0  0  0  0
  183.5280  178.9500  140.2920 C   0  0  0  0  0  3  0  0  0  0  0  0
  184.8700  178.6610  140.5510 C   0  0  0  0  0  0  0  0  0  0  0  0
  189.8570  177.8790  140.2200 C   0  0  1  0  0  3  0  0  0  0  0  0
  185.7640  178.5360  139.4880 C   0  0  0  0  0  3  0  0  0  0  0  0
  189.4070  178.1080  138.9150 O   0  0  0  0  0  0  0  0  0  0  0  0
  191.2210  177.6990  140.4600 C   0  0  0  0  0  3  0  0  0  0  0  0
  187.1490  177.9930  143.4330 C   0  0  0  0  0  3  0  0  0  0  0  0
  188.4960  177.7140  143.6890 C   0  0  0  0  0  0  0  0  0  0  0  0
  185.3160  178.4800  141.8830 C   0  0  0  0  0  0  0  0  0  0  0  0
  188.0270  178.0220  138.5460 C   0  0  0  0  0  0  0  0  0  0  0  0
  191.6840  177.5030  141.7610 C   0  0  0  0  0  3  0  0  0  0  0  0
  182.6180  179.0660  141.3470 C   0  0  0  0  0  3  0  0  0  0  0  0
  184.3880  178.5970  142.9320 C   0  0  0  0  0  3  0  0  0  0  0  0
  188.4350  177.4330  147.4750 C   0  0  0  0  0  0  0  0  0  0  0  0
  187.5620  177.5390  148.5070 F   0  0  0  0  0  0  0  0  0  0  0  0
  188.9140  177.5110  145.0930 C   0  0  0  0  0  0  0  0  0  0  0  0
  189.7750  177.1350  147.7350 C   0  0  0  0  0  3  0  0  0  0  0  0
  190.2580  177.2240  145.3680 C   0  0  0  0  0  3  0  0  0  0  0  0
  188.0010  177.6310  146.1590 C   0  0  0  0  0  0  0  0  0  0  0  0
  186.6710  177.9640  145.9210 O   0  0  0  0  0  1  0  0  0  0  0  0
  190.6950  177.0330  146.6810 C   0  0  0  0  0  0  0  0  0  0  0  0
  192.4680  175.6290  147.6830 C   0  0  0  0  0  1  0  0  0  0  0  0
  192.0420  176.7430  146.9110 O   0  0  0  0  0  0  0  0  0  0  0  0
  187.7490  176.6540  137.9400 C   0  0  0  0  0  2  0  0  0  0  0  0
  187.1370  176.8040  136.6950 O   0  0  0  0  0  1  0  0  0  0  0  0
  1  3  2  0  0  0  0
  1 15  1  0  0  0  0
  2  4  2  0  0  0  0
  2  7  1  0  0  0  0
  4  1  1  0  0  0  0
  5  2  1  0  0  0  0
  6 20  2  0  0  0  0
  7 14  1  0  0  0  0
  8  9  1  0  0  0  0
  8 19  2  0  0  0  0
  9 16  1  0  0  0  0
 10 13  1  1  0  0  0
 10  4  1  0  0  0  0
 11  5  1  0  0  0  0
 11  9  2  0  0  0  0
 12 10  1  0  0  0  0
 13 18  2  0  0  0  0
 14 15  2  0  0  0  0
 15 23  1  0  0  0  0
 16  7  2  0  0  0  0
 16 20  1  0  0  0  0
 17 12  1  0  0  0  0
 17  5  2  0  0  0  0
 18  3  1  0  0  0  0
 19  6  1  0  0  0  0
 21 24  1  0  0  0  0
 21 22  1  0  0  0  0
 23 25  2  0  0  0  0
 23 26  1  0  0  0  0
 25 28  1  0  0  0  0
 26 21  2  0  0  0  0
 27 26  1  0  0  0  0
 28 30  1  0  0  0  0
 28 24  2  0  0  0  0
 30 29  1  0  0  0  0
 31 17  1  0  0  0  0
 32 31  1  0  0  0  0
M  END
>  <MODEL>
6

>  <REMARK>
 VINA RESULT:     -10.5      2.639      6.378
  Name = 
  3 active torsions:
  status: ('A' for Active; 'I' for Inactive)
    1  A    between atoms: C_13  and  C_29
    2  A    between atoms: O_15  and  C_26
    3  A    between atoms: C_16  and  C_27
                            x       y       z     vdW  Elec       q    Type
                         _______ _______ _______ _____ _____    ______ ____

>  <TORSDO>
F 3

$$$$
=
 OpenBabel11052414353D

 32 37  0  0  0  0  0  0  0  0999 V2000
  184.6240  178.3480  143.0340 C   0  0  0  0  0  0  0  0  0  0  0  0
  187.0140  178.0960  143.5040 C   0  0  0  0  0  0  0  0  0  0  0  0
  183.3350  178.6440  143.5040 C   0  0  0  0  0  3  0  0  0  0  0  0
  185.7040  178.3400  143.9520 C   0  0  0  0  0  0  0  0  0  0  0  0
  188.0840  178.0580  144.4230 C   0  0  0  0  0  0  0  0  0  0  0  0
  190.1970  177.3710  139.8800 C   0  0  0  0  0  3  0  0  0  0  0  0
  187.2630  177.9100  142.1230 C   0  0  0  0  0  0  0  0  0  0  0  0
  190.9650  177.5320  142.1700 C   0  0  0  0  0  3  0  0  0  0  0  0
  189.6500  177.7130  142.6040 C   0  0  0  0  0  0  0  0  0  0  0  0
  185.4740  178.6340  145.3070 C   0  0  0  0  0  0  0  0  0  0  0  0
  189.3900  177.8690  143.9650 C   0  0  0  0  0  3  0  0  0  0  0  0
  186.5420  178.6690  146.2100 O   0  0  0  0  0  0  0  0  0  0  0  0
  184.1830  178.9260  145.7520 C   0  0  0  0  0  3  0  0  0  0  0  0
  186.1850  177.9140  141.2270 C   0  0  0  0  0  2  0  0  0  0  0  0
  184.8700  178.1070  141.6640 C   0  0  0  0  0  0  0  0  0  0  0  0
  188.5860  177.7240  141.6700 C   0  0  0  0  0  0  0  0  0  0  0  0
  187.8290  178.1180  145.9070 C   0  0  0  0  0  0  0  0  0  0  0  0
  183.1150  178.9270  144.8540 C   0  0  0  0  0  3  0  0  0  0  0  0
  191.2390  177.3620  140.8100 C   0  0  0  0  0  3  0  0  0  0  0  0
  188.8780  177.5500  140.3060 C   0  0  0  0  0  3  0  0  0  0  0  0
  182.6450  179.0340  138.7300 C   0  0  0  0  0  0  0  0  0  0  0  0
  182.5420  179.9860  137.7690 F   0  0  0  0  0  0  0  0  0  0  0  0
  183.7880  178.0890  140.6560 C   0  0  0  0  0  0  0  0  0  0  0  0
  181.6990  178.0080  138.7870 C   0  0  0  0  0  3  0  0  0  0  0  0
  182.8240  177.0710  140.7090 C   0  0  0  0  0  3  0  0  0  0  0  0
  183.6840  179.0860  139.6660 C   0  0  0  0  0  0  0  0  0  0  0  0
  184.5960  180.1360  139.6180 O   0  0  0  0  0  1  0  0  0  0  0  0
  181.7830  177.0220  139.7810 C   0  0  0  0  0  0  0  0  0  0  0  0
  179.6300  176.1100  140.5900 C   0  0  0  0  0  1  0  0  0  0  0  0
  180.8470  175.9880  139.8670 O   0  0  0  0  0  0  0  0  0  0  0  0
  187.9340  176.7220  146.5040 C   0  0  0  0  0  2  0  0  0  0  0  0
  188.9810  176.6790  147.4250 O   0  0  0  0  0  1  0  0  0  0  0  0
  1  3  1  0  0  0  0
  1  4  1  0  0  0  0
  2  4  2  0  0  0  0
  2  5  1  0  0  0  0
  3 18  2  0  0  0  0
  4 10  1  0  0  0  0
  5 17  2  0  0  0  0
  6 20  2  0  0  0  0
  6 19  1  0  0  0  0
  7  2  1  0  0  0  0
  8  9  1  0  0  0  0
  9 11  2  0  0  0  0
 10 13  2  0  0  0  0
 10 12  1  0  0  0  0
 11  5  1  0  0  0  0
 14 15  1  0  0  0  0
 14  7  1  0  0  0  0
 15  1  2  0  0  0  0
 16  7  2  0  0  0  0
 16  9  1  0  0  0  0
 17 12  1  0  0  0  0
 17 31  1  0  0  0  0
 18 13  1  0  0  0  0
 19  8  2  0  0  0  0
 20 16  1  0  0  0  0
 21 24  2  0  0  0  0
 21 26  1  0  0  0  0
 22 21  1  0  0  0  0
 23 25  1  0  0  0  0
 23 15  1  0  0  0  0
 24 28  1  0  0  0  0
 26 23  2  0  0  0  0
 27 26  1  0  0  0  0
 28 30  1  0  0  0  0
 28 25  2  0  0  0  0
 30 29  1  0  0  0  0
 31 32  1  0  0  0  0
M  END
>  <MODEL>
7

>  <REMARK>
 VINA RESULT:     -10.4      2.707      6.306
  Name = 
  3 active torsions:
  status: ('A' for Active; 'I' for Inactive)
    1  A    between atoms: C_13  and  C_29
    2  A    between atoms: O_15  and  C_26
    3  A    between atoms: C_16  and  C_27
                            x       y       z     vdW  Elec       q    Type
                         _______ _______ _______ _____ _____    ______ ____

>  <TORSDO>
F 3

$$$$
=
 OpenBabel11052414353D

 32 37  0  0  1  0  0  0  0  0999 V2000
  189.2780  177.6520  142.8660 C   0  0  0  0  0  0  0  0  0  0  0  0
  188.2200  177.9000  140.6720 C   0  0  0  0  0  0  0  0  0  0  0  0
  190.4480  177.4590  143.6170 C   0  0  0  0  0  3  0  0  0  0  0  0
  189.3650  177.6600  141.4520 C   0  0  0  0  0  0  0  0  0  0  0  0
  188.3010  177.8780  139.2630 C   0  0  0  0  0  0  0  0  0  0  0  0
  183.5030  179.0880  140.3080 C   0  0  0  0  0  3  0  0  0  0  0  0
  186.9850  178.1880  141.3030 C   0  0  0  0  0  0  0  0  0  0  0  0
  184.8450  178.7790  138.3170 C   0  0  0  0  0  3  0  0  0  0  0  0
  185.9580  178.4840  139.1070 C   0  0  0  0  0  0  0  0  0  0  0  0
  190.6110  177.4850  140.8240 C   0  0  0  0  0  0  0  0  0  0  0  0
  187.1720  178.1710  138.4950 C   0  0  0  0  0  3  0  0  0  0  0  0
  190.7080  177.5340  139.4300 O   0  0  0  0  0  0  0  0  0  0  0  0
  191.7620  177.2950  141.5920 C   0  0  0  0  0  3  0  0  0  0  0  0
  186.9130  178.1710  142.7030 C   0  0  0  0  0  3  0  0  0  0  0  0
  188.0330  177.8850  143.4910 C   0  0  0  0  0  0  0  0  0  0  0  0
  185.8520  178.4860  140.5190 C   0  0  0  0  0  0  0  0  0  0  0  0
  189.5670  177.4430  138.5710 C   0  0  1  0  0  3  0  0  0  0  0  0
  191.6800  177.2770  142.9850 C   0  0  0  0  0  3  0  0  0  0  0  0
  183.6190  179.0820  138.9160 C   0  0  0  0  0  3  0  0  0  0  0  0
  184.6110  178.7910  141.1060 C   0  0  0  0  0  3  0  0  0  0  0  0
  186.5440  178.2340  146.9670 C   0  0  0  0  0  0  0  0  0  0  0  0
  185.3780  178.5860  147.5630 F   0  0  0  0  0  0  0  0  0  0  0  0
  187.8710  177.8780  144.9610 C   0  0  0  0  0  0  0  0  0  0  0  0
  187.6360  177.8630  147.7560 C   0  0  0  0  0  3  0  0  0  0  0  0
  188.9630  177.5200  145.7650 C   0  0  0  0  0  3  0  0  0  0  0  0
  186.6580  178.2520  145.5720 C   0  0  0  0  0  0  0  0  0  0  0  0
  185.5730  178.6600  144.8030 O   0  0  0  0  0  1  0  0  0  0  0  0
  188.8530  177.5070  147.1570 C   0  0  0  0  0  0  0  0  0  0  0  0
  191.1600  176.6340  147.3430 C   0  0  0  0  0  1  0  0  0  0  0  0
  189.9640  177.1380  147.9210 O   0  0  0  0  0  0  0  0  0  0  0  0
  189.4170  176.0110  138.0780 C   0  0  0  0  0  2  0  0  0  0  0  0
  190.5840  175.2940  138.3430 O   0  0  0  0  0  1  0  0  0  0  0  0
  1 15  1  0  0  0  0
  1  3  2  0  0  0  0
  2  7  1  0  0  0  0
  2  4  1  0  0  0  0
  4  1  1  0  0  0  0
  5  2  2  0  0  0  0
  6 20  2  0  0  0  0
  7 14  1  0  0  0  0
  8 19  2  0  0  0  0
  8  9  1  0  0  0  0
  9 16  1  0  0  0  0
 10  4  2  0  0  0  0
 10 13  1  0  0  0  0
 11  9  2  0  0  0  0
 11  5  1  0  0  0  0
 12 10  1  0  0  0  0
 13 18  2  0  0  0  0
 14 15  2  0  0  0  0
 15 23  1  0  0  0  0
 16 20  1  0  0  0  0
 16  7  2  0  0  0  0
 17 31  1  1  0  0  0
 17  5  1  0  0  0  0
 17 12  1  0  0  0  0
 18  3  1  0  0  0  0
 19  6  1  0  0  0  0
 21 22  1  0  0  0  0
 21 24  1  0  0  0  0
 23 26  1  0  0  0  0
 23 25  2  0  0  0  0
 25 28  1  0  0  0  0
 26 21  2  0  0  0  0
 27 26  1  0  0  0  0
 28 24  2  0  0  0  0
 28 30  1  0  0  0  0
 29 30  1  0  0  0  0
 31 32  1  0  0  0  0
M  END
>  <MODEL>
8

>  <REMARK>
 VINA RESULT:     -10.4      2.661      6.520
  Name = 
  3 active torsions:
  status: ('A' for Active; 'I' for Inactive)
    1  A    between atoms: C_13  and  C_29
    2  A    between atoms: O_15  and  C_26
    3  A    between atoms: C_16  and  C_27
                            x       y       z     vdW  Elec       q    Type
                         _______ _______ _______ _____ _____    ______ ____

>  <TORSDO>
F 3

$$$$
=
 OpenBabel11052414353D

 32 37  0  0  0  0  0  0  0  0999 V2000
  189.5080  177.1800  143.3800 C   0  0  0  0  0  0  0  0  0  0  0  0
  187.6280  177.6160  144.8890 C   0  0  0  0  0  0  0  0  0  0  0  0
  190.8290  176.7360  143.2080 C   0  0  0  0  0  3  0  0  0  0  0  0
  188.9640  177.2230  144.6880 C   0  0  0  0  0  0  0  0  0  0  0  0
  187.0960  177.6880  146.1940 C   0  0  0  0  0  0  0  0  0  0  0  0
  183.2610  178.8740  143.1180 C   0  0  0  0  0  3  0  0  0  0  0  0
  186.8080  177.9180  143.7740 C   0  0  0  0  0  0  0  0  0  0  0  0
  183.5900  178.6270  145.5030 C   0  0  0  0  0  3  0  0  0  0  0  0
  184.9300  178.2970  145.2900 C   0  0  0  0  0  0  0  0  0  0  0  0
  189.7420  176.8170  145.7860 C   0  0  0  0  0  0  0  0  0  0  0  0
  185.7540  178.0260  146.3810 C   0  0  0  0  0  3  0  0  0  0  0  0
  189.1960  176.8180  147.0740 O   0  0  0  0  0  0  0  0  0  0  0  0
  191.0540  176.3790  145.5910 C   0  0  0  0  0  3  0  0  0  0  0  0
  187.3620  177.8770  142.4870 C   0  0  0  0  0  2  0  0  0  0  0  0
  188.7020  177.5360  142.2760 C   0  0  0  0  0  0  0  0  0  0  0  0
  185.4530  178.2550  143.9740 C   0  0  0  0  0  0  0  0  0  0  0  0
  187.9820  177.5030  147.3990 C   0  0  0  0  0  0  0  0  0  0  0  0
  191.5970  176.3430  144.3060 C   0  0  0  0  0  3  0  0  0  0  0  0
  182.7560  178.9140  144.4190 C   0  0  0  0  0  3  0  0  0  0  0  0
  184.6010  178.5480  142.8950 C   0  0  0  0  0  3  0  0  0  0  0  0
  190.6300  176.6070  139.1380 C   0  0  0  0  0  0  0  0  0  0  0  0
  191.5480  175.7030  138.7170 F   0  0  0  0  0  0  0  0  0  0  0  0
  189.2110  177.5240  140.8880 C   0  0  0  0  0  0  0  0  0  0  0  0
  190.1520  177.5710  138.2460 C   0  0  0  0  0  3  0  0  0  0  0  0
  188.7500  178.4930  139.9850 C   0  0  0  0  0  3  0  0  0  0  0  0
  190.1710  176.5850  140.4610 C   0  0  0  0  0  0  0  0  0  0  0  0
  190.6850  175.6430  141.3470 O   0  0  0  0  0  1  0  0  0  0  0  0
  189.2110  178.5210  138.6670 C   0  0  0  0  0  0  0  0  0  0  0  0
  187.8400  179.2030  136.7240 C   0  0  0  0  0  1  0  0  0  0  0  0
  188.7200  179.5000  137.7990 O   0  0  0  0  0  0  0  0  0  0  0  0
  188.3130  178.8590  148.0060 C   0  0  0  0  0  2  0  0  0  0  0  0
  189.4240  178.7440  148.8420 O   0  0  0  0  0  1  0  0  0  0  0  0
  1  4  1  0  0  0  0
  2  5  1  0  0  0  0
  3  1  1  0  0  0  0
  3 18  2  0  0  0  0
  4  2  2  0  0  0  0
  4 10  1  0  0  0  0
  5 11  1  0  0  0  0
  5 17  2  0  0  0  0
  6 19  1  0  0  0  0
  7 16  2  0  0  0  0
  7  2  1  0  0  0  0
  9  8  1  0  0  0  0
  9 11  2  0  0  0  0
 10 12  1  0  0  0  0
 12 17  1  0  0  0  0
 13 10  2  0  0  0  0
 14  7  1  0  0  0  0
 15 14  1  0  0  0  0
 15  1  2  0  0  0  0
 16  9  1  0  0  0  0
 17 31  1  0  0  0  0
 18 13  1  0  0  0  0
 19  8  2  0  0  0  0
 20  6  2  0  0  0  0
 20 16  1  0  0  0  0
 21 26  1  0  0  0  0
 22 21  1  0  0  0  0
 23 15  1  0  0  0  0
 24 28  1  0  0  0  0
 24 21  2  0  0  0  0
 25 23  1  0  0  0  0
 26 23  2  0  0  0  0
 26 27  1  0  0  0  0
 28 25  2  0  0  0  0
 29 30  1  0  0  0  0
 30 28  1  0  0  0  0
 31 32  1  0  0  0  0
M  END
>  <MODEL>
9

>  <REMARK>
 VINA RESULT:     -10.4      1.221      1.971
  Name = 
  3 active torsions:
  status: ('A' for Active; 'I' for Inactive)
    1  A    between atoms: C_13  and  C_29
    2  A    between atoms: O_15  and  C_26
    3  A    between atoms: C_16  and  C_27
                            x       y       z     vdW  Elec       q    Type
                         _______ _______ _______ _____ _____    ______ ____

>  <TORSDO>
F 3

$$$$
