=
 OpenBabel11052413283D

 28 32  0  0  1  0  0  0  0  0999 V2000
  189.0520  177.9130  143.6680 C   0  0  1  0  0  3  0  0  0  0  0  0
  187.6750  178.3680  138.6810 C   0  0  0  0  0  2  0  0  0  0  0  0
  193.1410  176.8620  141.0280 F   0  0  0  0  0  0  0  0  0  0  0  0
  189.6310  177.4480  137.5080 C   0  0  2  0  0  3  0  0  0  0  0  0
  189.6140  177.4270  140.0210 C   0  0  0  0  0  0  0  0  0  0  0  0
  187.5000  177.6060  136.2500 C   0  0  0  0  0  0  0  0  0  0  0  0
  188.7770  177.3160  138.7690 C   0  0  1  0  0  3  0  0  0  0  0  0
  191.7540  176.8770  138.6510 C   0  0  0  0  0  2  0  0  0  0  0  0
  188.7950  177.2670  136.2760 C   0  0  0  0  0  3  0  0  0  0  0  0
  191.2160  177.4330  142.4440 C   0  0  1  0  0  3  0  0  0  0  0  0
  189.0140  177.6200  141.1960 C   0  0  0  0  0  3  0  0  0  0  0  0
  190.7820  176.4590  137.5510 C   0  0  0  0  0  2  0  0  0  0  0  0
  191.0530  179.3290  144.1670 C   0  0  0  0  0  2  0  0  0  0  0  0
  191.8110  177.1340  141.0930 C   0  0  0  0  0  0  0  0  0  0  0  0
  191.9070  178.6400  143.0920 C   0  0  0  0  0  2  0  0  0  0  0  0
  186.7940  177.4650  135.0630 O   0  0  0  0  0  1  0  0  0  0  0  0
  186.7610  178.0680  137.4850 C   0  0  0  0  0  2  0  0  0  0  0  0
  191.0710  177.1190  139.9750 C   0  0  0  0  0  0  0  0  0  0  0  0
  190.0090  178.3900  144.7660 C   0  0  0  0  0  2  0  0  0  0  0  0
  189.7580  177.6140  142.4200 N   0  0  0  0  0  0  0  0  0  0  0  0
  188.1660  176.7480  144.1410 C   0  0  0  0  0  2  0  0  0  0  0  0
  186.7140  177.0880  144.5040 C   0  0  2  0  0  3  0  0  0  0  0  0
  184.4890  178.6640  145.2750 C   0  0  0  0  0  0  0  0  0  0  0  0
  186.0130  177.9820  143.4730 C   0  0  0  0  0  2  0  0  0  0  0  0
  186.5850  177.6330  145.9040 C   0  0  0  0  0  3  0  0  0  0  0  0
  185.5210  178.3490  146.2700 C   0  0  0  0  0  3  0  0  0  0  0  0
  183.4070  179.1980  145.6290 O   0  0  0  0  0  0  0  0  0  0  0  0
  184.7110  178.3500  143.9310 O   0  0  0  0  0  0  0  0  0  0  0  0
  1 21  1  1  0  0  0
  1 19  1  0  0  0  0
  3 14  1  0  0  0  0
  4  9  1  6  0  0  0
  4 12  1  0  0  0  0
  4  7  1  0  0  0  0
  5 11  2  0  0  0  0
  6  9  2  0  0  0  0
  6 17  1  0  0  0  0
  7  2  1  1  0  0  0
  7  5  1  0  0  0  0
  8 18  1  0  0  0  0
 10 15  1  6  0  0  0
 11 20  1  0  0  0  0
 12  8  1  0  0  0  0
 13 19  1  0  0  0  0
 14 10  1  0  0  0  0
 15 13  1  0  0  0  0
 16  6  1  0  0  0  0
 17  2  1  0  0  0  0
 18  5  1  0  0  0  0
 18 14  2  0  0  0  0
 20 10  1  0  0  0  0
 20  1  1  0  0  0  0
 22 21  1  6  0  0  0
 22 25  1  0  0  0  0
 23 27  2  0  0  0  0
 23 26  1  0  0  0  0
 24 28  1  0  0  0  0
 24 22  1  0  0  0  0
 25 26  2  0  0  0  0
 28 23  1  0  0  0  0
M  END
>  <MODEL>
1

>  <REMARK>
 VINA RESULT:      -9.5      0.000      0.000
  Name = 
  2 active torsions:
  status: ('A' for Active; 'I' for Inactive)
    1  A    between atoms: C_1  and  C_2
    2  A    between atoms: C_2  and  C_3
                            x       y       z     vdW  Elec       q    Type
                         _______ _______ _______ _____ _____    ______ ____

>  <TORSDO>
F 2

$$$$
=
 OpenBabel11052413283D

 28 32  0  0  1  0  0  0  0  0999 V2000
  191.0910  176.7230  144.4620 C   0  0  1  0  0  3  0  0  0  0  0  0
  185.9900  177.4110  143.7640 C   0  0  0  0  0  2  0  0  0  0  0  0
  189.2780  178.0500  148.9060 F   0  0  0  0  0  0  0  0  0  0  0  0
  185.3000  178.4340  145.8920 C   0  0  2  0  0  3  0  0  0  0  0  0
  187.7360  177.9290  145.5330 C   0  0  0  0  0  0  0  0  0  0  0  0
  183.7790  178.6750  143.9480 C   0  0  0  0  0  0  0  0  0  0  0  0
  186.4420  178.3510  144.8790 C   0  0  1  0  0  3  0  0  0  0  0  0
  186.7980  178.6200  147.8560 C   0  0  0  0  0  2  0  0  0  0  0  0
  184.0410  178.9200  145.2380 C   0  0  0  0  0  3  0  0  0  0  0  0
  190.2830  177.3160  146.7880 C   0  0  1  0  0  3  0  0  0  0  0  0
  188.7560  177.5300  144.7720 C   0  0  0  0  0  3  0  0  0  0  0  0
  185.7010  179.3190  147.0580 C   0  0  0  0  0  2  0  0  0  0  0  0
  191.5210  175.1130  146.3270 C   0  0  0  0  0  2  0  0  0  0  0  0
  189.1150  177.8540  147.5710 C   0  0  0  0  0  0  0  0  0  0  0  0
  190.7360  175.9590  147.3430 C   0  0  0  0  0  2  0  0  0  0  0  0
  182.5710  179.1050  143.4160 O   0  0  0  0  0  1  0  0  0  0  0  0
  184.7820  178.0110  143.0330 C   0  0  0  0  0  2  0  0  0  0  0  0
  187.9420  178.1480  146.9910 C   0  0  0  0  0  0  0  0  0  0  0  0
  192.1720  175.9690  145.2430 C   0  0  0  0  0  2  0  0  0  0  0  0
  190.0360  177.2340  145.3410 N   0  0  0  0  0  0  0  0  0  0  0  0
  191.6890  177.8160  143.5590 C   0  0  0  0  0  2  0  0  0  0  0  0
  191.3060  177.7690  142.0730 C   0  0  2  0  0  3  0  0  0  0  0  0
  191.1160  176.7670  139.4290 C   0  0  0  0  0  0  0  0  0  0  0  0
  190.2730  176.6850  141.7350 C   0  0  0  0  0  2  0  0  0  0  0  0
  192.5120  177.7000  141.1710 C   0  0  0  0  0  3  0  0  0  0  0  0
  192.4110  177.2560  139.9180 C   0  0  0  0  0  3  0  0  0  0  0  0
  190.9590  176.4940  138.2120 O   0  0  0  0  0  0  0  0  0  0  0  0
  190.0530  176.6250  140.3260 O   0  0  0  0  0  0  0  0  0  0  0  0
  1 21  1  1  0  0  0
  1 19  1  0  0  0  0
  1 20  1  0  0  0  0
  4  9  1  6  0  0  0
  4 12  1  0  0  0  0
  5 18  1  0  0  0  0
  6  9  2  0  0  0  0
  7  2  1  6  0  0  0
  7  5  1  0  0  0  0
  7  4  1  0  0  0  0
 10 15  1  1  0  0  0
 10 14  1  0  0  0  0
 11 20  1  0  0  0  0
 11  5  2  0  0  0  0
 12  8  1  0  0  0  0
 13 15  1  0  0  0  0
 14  3  1  0  0  0  0
 16  6  1  0  0  0  0
 17  2  1  0  0  0  0
 17  6  1  0  0  0  0
 18 14  2  0  0  0  0
 18  8  1  0  0  0  0
 19 13  1  0  0  0  0
 20 10  1  0  0  0  0
 22 21  1  1  0  0  0
 23 26  1  0  0  0  0
 23 28  1  0  0  0  0
 24 22  1  0  0  0  0
 25 22  1  0  0  0  0
 26 25  2  0  0  0  0
 27 23  2  0  0  0  0
 28 24  1  0  0  0  0
M  END
>  <MODEL>
2

>  <REMARK>
 VINA RESULT:      -9.3      2.944      7.298
  Name = 
  2 active torsions:
  status: ('A' for Active; 'I' for Inactive)
    1  A    between atoms: C_1  and  C_2
    2  A    between atoms: C_2  and  C_3
                            x       y       z     vdW  Elec       q    Type
                         _______ _______ _______ _____ _____    ______ ____

>  <TORSDO>
F 2

$$$$
=
 OpenBabel11052413283D

 28 32  0  0  1  0  0  0  0  0999 V2000
  188.4000  177.0640  138.3200 C   0  0  1  0  0  3  0  0  0  0  0  0
  187.5110  176.8230  143.4320 C   0  0  0  0  0  2  0  0  0  0  0  0
  192.8600  177.4740  140.4970 F   0  0  0  0  0  0  0  0  0  0  0  0
  189.6990  177.4320  144.3770 C   0  0  2  0  0  3  0  0  0  0  0  0
  189.4170  177.4570  141.8790 C   0  0  0  0  0  0  0  0  0  0  0  0
  187.7150  177.6010  145.8550 C   0  0  0  0  0  0  0  0  0  0  0  0
  188.7450  177.6940  143.2110 C   0  0  1  0  0  3  0  0  0  0  0  0
  191.7490  177.6710  143.0070 C   0  0  0  0  0  2  0  0  0  0  0  0
  189.0370  177.7370  145.6870 C   0  0  0  0  0  3  0  0  0  0  0  0
  190.7310  177.2060  139.3010 C   0  0  1  0  0  3  0  0  0  0  0  0
  188.6720  177.3580  140.7770 C   0  0  0  0  0  3  0  0  0  0  0  0
  190.9750  178.2320  144.1960 C   0  0  0  0  0  2  0  0  0  0  0  0
  190.0970  175.3580  137.6350 C   0  0  0  0  0  2  0  0  0  0  0  0
  191.5050  177.4100  140.5760 C   0  0  0  0  0  0  0  0  0  0  0  0
  191.1560  175.9080  138.6030 C   0  0  0  0  0  2  0  0  0  0  0  0
  187.1700  177.8480  147.1080 O   0  0  0  0  0  1  0  0  0  0  0  0
  186.7870  177.2590  144.7130 C   0  0  0  0  0  2  0  0  0  0  0  0
  190.8990  177.5370  141.7660 C   0  0  0  0  0  0  0  0  0  0  0  0
  189.1500  176.4470  137.1350 C   0  0  0  0  0  2  0  0  0  0  0  0
  189.2730  177.2510  139.4820 N   0  0  0  0  0  0  0  0  0  0  0  0
  187.6570  178.3520  137.9250 C   0  0  0  0  0  2  0  0  0  0  0  0
  186.1270  178.2640  137.8320 C   0  0  2  0  0  3  0  0  0  0  0  0
  183.5120  177.2680  138.2720 C   0  0  0  0  0  0  0  0  0  0  0  0
  185.4100  178.5490  139.1580 C   0  0  0  0  0  2  0  0  0  0  0  0
  185.6630  176.9740  137.2060 C   0  0  0  0  0  3  0  0  0  0  0  0
  184.4210  176.5250  137.3920 C   0  0  0  0  0  3  0  0  0  0  0  0
  182.2950  176.9550  138.3380 O   0  0  0  0  0  0  0  0  0  0  0  0
  184.0050  178.3390  139.0240 O   0  0  0  0  0  0  0  0  0  0  0  0
  1 21  1  6  0  0  0
  1 20  1  0  0  0  0
  2 17  1  0  0  0  0
  3 14  1  0  0  0  0
  4 12  1  6  0  0  0
  4  9  1  0  0  0  0
  5  7  1  0  0  0  0
  6 16  1  0  0  0  0
  7  2  1  1  0  0  0
  7  4  1  0  0  0  0
  8 12  1  0  0  0  0
  9  6  2  0  0  0  0
 10 15  1  1  0  0  0
 10 20  1  0  0  0  0
 10 14  1  0  0  0  0
 11  5  2  0  0  0  0
 13 15  1  0  0  0  0
 14 18  2  0  0  0  0
 17  6  1  0  0  0  0
 18  5  1  0  0  0  0
 18  8  1  0  0  0  0
 19 13  1  0  0  0  0
 19  1  1  0  0  0  0
 20 11  1  0  0  0  0
 22 21  1  1  0  0  0
 22 24  1  0  0  0  0
 23 27  2  0  0  0  0
 23 28  1  0  0  0  0
 25 26  2  0  0  0  0
 25 22  1  0  0  0  0
 26 23  1  0  0  0  0
 28 24  1  0  0  0  0
M  END
>  <MODEL>
3

>  <REMARK>
 VINA RESULT:      -9.1      2.113      6.407
  Name = 
  2 active torsions:
  status: ('A' for Active; 'I' for Inactive)
    1  A    between atoms: C_1  and  C_2
    2  A    between atoms: C_2  and  C_3
                            x       y       z     vdW  Elec       q    Type
                         _______ _______ _______ _____ _____    ______ ____

>  <TORSDO>
F 2

$$$$
=
 OpenBabel11052413283D

 28 32  0  0  1  0  0  0  0  0999 V2000
  188.7330  177.4440  141.2490 C   0  0  1  0  0  3  0  0  0  0  0  0
  183.5540  177.8110  141.4170 C   0  0  0  0  0  2  0  0  0  0  0  0
  187.5800  178.2160  146.0310 F   0  0  0  0  0  0  0  0  0  0  0  0
  183.1550  178.5790  143.7190 C   0  0  2  0  0  3  0  0  0  0  0  0
  185.5270  178.2920  142.9400 C   0  0  0  0  0  0  0  0  0  0  0  0
  181.3300  178.8830  142.0680 C   0  0  0  0  0  0  0  0  0  0  0  0
  184.1220  178.6750  142.5400 C   0  0  1  0  0  3  0  0  0  0  0  0
  184.9350  178.6940  145.4390 C   0  0  0  0  0  2  0  0  0  0  0  0
  181.7810  179.0270  143.3210 C   0  0  0  0  0  3  0  0  0  0  0  0
  188.2740  177.7570  143.7190 C   0  0  1  0  0  3  0  0  0  0  0  0
  186.4340  178.0420  141.9950 C   0  0  0  0  0  3  0  0  0  0  0  0
  183.6840  179.3790  144.8950 C   0  0  0  0  0  2  0  0  0  0  0  0
  189.5500  175.7060  142.8500 C   0  0  0  0  0  2  0  0  0  0  0  0
  187.2170  178.1320  144.7240 C   0  0  0  0  0  0  0  0  0  0  0  0
  188.8900  176.3930  144.0560 C   0  0  0  0  0  2  0  0  0  0  0  0
  180.0290  179.2700  141.7750 O   0  0  0  0  0  1  0  0  0  0  0  0
  182.2110  178.3830  140.9450 C   0  0  0  0  0  2  0  0  0  0  0  0
  185.9510  178.3900  144.3640 C   0  0  0  0  0  0  0  0  0  0  0  0
  189.9670  176.7040  141.7730 C   0  0  0  0  0  2  0  0  0  0  0  0
  187.8040  177.7920  142.3270 N   0  0  0  0  0  0  0  0  0  0  0  0
  189.1120  178.6570  140.3810 C   0  0  0  0  0  2  0  0  0  0  0  0
  188.9600  178.4950  138.8630 C   0  0  2  0  0  3  0  0  0  0  0  0
  188.6140  177.1890  136.3720 C   0  0  0  0  0  0  0  0  0  0  0  0
  187.5650  178.0260  138.4290 C   0  0  0  0  0  2  0  0  0  0  0  0
  190.0520  177.6460  138.2640 C   0  0  0  0  0  3  0  0  0  0  0  0
  189.8960  177.0590  137.0770 C   0  0  0  0  0  3  0  0  0  0  0  0
  188.4960  176.7800  135.1890 O   0  0  0  0  0  0  0  0  0  0  0  0
  187.5310  177.7880  137.0220 O   0  0  0  0  0  0  0  0  0  0  0  0
  1 21  1  1  0  0  0
  1 19  1  0  0  0  0
  1 20  1  0  0  0  0
  4  9  1  6  0  0  0
  4 12  1  0  0  0  0
  5 18  1  0  0  0  0
  6  9  2  0  0  0  0
  7  2  1  6  0  0  0
  7  5  1  0  0  0  0
  7  4  1  0  0  0  0
 10 15  1  1  0  0  0
 10 14  1  0  0  0  0
 11 20  1  0  0  0  0
 11  5  2  0  0  0  0
 12  8  1  0  0  0  0
 13 15  1  0  0  0  0
 14  3  1  0  0  0  0
 16  6  1  0  0  0  0
 17  2  1  0  0  0  0
 17  6  1  0  0  0  0
 18 14  2  0  0  0  0
 18  8  1  0  0  0  0
 19 13  1  0  0  0  0
 20 10  1  0  0  0  0
 22 21  1  1  0  0  0
 23 28  1  0  0  0  0
 23 26  1  0  0  0  0
 24 22  1  0  0  0  0
 25 22  1  0  0  0  0
 26 25  2  0  0  0  0
 27 23  2  0  0  0  0
 28 24  1  0  0  0  0
M  END
>  <MODEL>
4

>  <REMARK>
 VINA RESULT:      -9.1      2.587      7.195
  Name = 
  2 active torsions:
  status: ('A' for Active; 'I' for Inactive)
    1  A    between atoms: C_1  and  C_2
    2  A    between atoms: C_2  and  C_3
                            x       y       z     vdW  Elec       q    Type
                         _______ _______ _______ _____ _____    ______ ____

>  <TORSDO>
F 2

$$$$
=
 OpenBabel11052413283D

 28 32  0  0  1  0  0  0  0  0999 V2000
  184.2900  178.8180  142.5960 C   0  0  1  0  0  3  0  0  0  0  0  0
  188.8850  178.4050  140.2090 C   0  0  0  0  0  2  0  0  0  0  0  0
  187.4230  176.9560  145.9900 F   0  0  0  0  0  0  0  0  0  0  0  0
  190.2110  177.1230  141.8360 C   0  0  2  0  0  3  0  0  0  0  0  0
  187.7960  177.5910  142.3530 C   0  0  0  0  0  0  0  0  0  0  0  0
  191.0210  177.2030  139.4940 C   0  0  0  0  0  0  0  0  0  0  0  0
  188.8050  177.3060  141.2650 C   0  0  1  0  0  3  0  0  0  0  0  0
  189.4250  176.6190  144.1310 C   0  0  0  0  0  2  0  0  0  0  0  0
  191.1860  176.7750  140.7520 C   0  0  0  0  0  3  0  0  0  0  0  0
  185.7980  177.9400  144.4320 C   0  0  1  0  0  3  0  0  0  0  0  0
  186.5900  178.0550  142.0240 C   0  0  0  0  0  3  0  0  0  0  0  0
  190.1970  176.0750  142.9320 C   0  0  0  0  0  2  0  0  0  0  0  0
  184.5050  180.1410  144.7080 C   0  0  0  0  0  2  0  0  0  0  0  0
  187.1500  177.3390  144.7150 C   0  0  0  0  0  0  0  0  0  0  0  0
  185.5650  179.1910  145.2890 C   0  0  0  0  0  2  0  0  0  0  0  0
  191.9880  176.8910  138.5470 O   0  0  0  0  0  1  0  0  0  0  0  0
  189.7850  177.9520  139.0510 C   0  0  0  0  0  2  0  0  0  0  0  0
  188.0690  177.1670  143.7540 C   0  0  0  0  0  0  0  0  0  0  0  0
  183.5290  179.4200  143.7810 C   0  0  0  0  0  2  0  0  0  0  0  0
  185.5660  178.2270  143.0090 N   0  0  0  0  0  0  0  0  0  0  0  0
  183.4200  177.8390  141.7890 C   0  0  0  0  0  2  0  0  0  0  0  0
  182.8370  178.3630  140.4690 C   0  0  2  0  0  3  0  0  0  0  0  0
  181.7840  180.2170  138.6030 C   0  0  0  0  0  0  0  0  0  0  0  0
  183.7790  179.3050  139.7080 C   0  0  0  0  0  2  0  0  0  0  0  0
  181.4630  178.9590  140.6450 C   0  0  0  0  0  3  0  0  0  0  0  0
  180.9600  179.8080  139.7480 C   0  0  0  0  0  3  0  0  0  0  0  0
  181.2800  180.8880  137.6660 O   0  0  0  0  0  0  0  0  0  0  0  0
  183.1290  179.8400  138.5550 O   0  0  0  0  0  0  0  0  0  0  0  0
  1 21  1  1  0  0  0
  1 20  1  0  0  0  0
  1 19  1  0  0  0  0
  4  9  1  6  0  0  0
  4 12  1  0  0  0  0
  5 18  1  0  0  0  0
  6  9  2  0  0  0  0
  7  2  1  6  0  0  0
  7  4  1  0  0  0  0
  7  5  1  0  0  0  0
 10 14  1  0  0  0  0
 10 15  1  1  0  0  0
 11  5  2  0  0  0  0
 11 20  1  0  0  0  0
 12  8  1  0  0  0  0
 13 15  1  0  0  0  0
 14  3  1  0  0  0  0
 16  6  1  0  0  0  0
 17  6  1  0  0  0  0
 17  2  1  0  0  0  0
 18  8  1  0  0  0  0
 18 14  2  0  0  0  0
 19 13  1  0  0  0  0
 20 10  1  0  0  0  0
 22 25  1  0  0  0  0
 22 21  1  1  0  0  0
 23 26  1  0  0  0  0
 24 22  1  0  0  0  0
 26 25  2  0  0  0  0
 27 23  2  0  0  0  0
 28 23  1  0  0  0  0
 28 24  1  0  0  0  0
M  END
>  <MODEL>
5

>  <REMARK>
 VINA RESULT:      -8.3      3.638      5.663
  Name = 
  2 active torsions:
  status: ('A' for Active; 'I' for Inactive)
    1  A    between atoms: C_1  and  C_2
    2  A    between atoms: C_2  and  C_3
                            x       y       z     vdW  Elec       q    Type
                         _______ _______ _______ _____ _____    ______ ____

>  <TORSDO>
F 2

$$$$
=
 OpenBabel11052413283D

 28 32  0  0  1  0  0  0  0  0999 V2000
  185.6930  178.8980  145.7940 C   0  0  1  0  0  3  0  0  0  0  0  0
  188.5590  178.6570  141.4690 C   0  0  0  0  0  2  0  0  0  0  0  0
  189.6650  176.1260  146.9480 F   0  0  0  0  0  0  0  0  0  0  0  0
  190.2440  176.9620  142.0470 C   0  0  2  0  0  3  0  0  0  0  0  0
  188.4440  177.4900  143.7200 C   0  0  0  0  0  0  0  0  0  0  0  0
  189.9020  177.4770  139.6460 C   0  0  0  0  0  0  0  0  0  0  0  0
  188.7850  177.3680  142.2540 C   0  0  1  0  0  3  0  0  0  0  0  0
  190.5150  176.0420  144.3320 C   0  0  0  0  0  2  0  0  0  0  0  0
  190.5460  176.7790  140.5900 C   0  0  0  0  0  3  0  0  0  0  0  0
  187.7000  177.5390  146.5270 C   0  0  1  0  0  3  0  0  0  0  0  0
  187.3170  178.1040  144.0830 C   0  0  0  0  0  3  0  0  0  0  0  0
  190.5550  175.7080  142.8430 C   0  0  0  0  0  2  0  0  0  0  0  0
  187.0620  179.7220  147.7180 C   0  0  0  0  0  2  0  0  0  0  0  0
  188.9100  176.7910  146.0340 C   0  0  0  0  0  0  0  0  0  0  0  0
  188.0940  178.5930  147.5700 C   0  0  0  0  0  2  0  0  0  0  0  0
  190.2650  177.3010  138.3170 O   0  0  0  0  0  1  0  0  0  0  0  0
  188.7440  178.3940  139.9680 C   0  0  0  0  0  2  0  0  0  0  0  0
  189.2490  176.7580  144.7370 C   0  0  0  0  0  0  0  0  0  0  0  0
  185.6660  179.2910  147.2740 C   0  0  0  0  0  2  0  0  0  0  0  0
  186.8980  178.1390  145.4510 N   0  0  0  0  0  0  0  0  0  0  0  0
  184.4000  178.1830  145.3630 C   0  0  0  0  0  2  0  0  0  0  0  0
  183.6000  178.8310  144.2250 C   0  0  2  0  0  3  0  0  0  0  0  0
  181.9630  179.0020  141.9190 C   0  0  0  0  0  0  0  0  0  0  0  0
  182.0840  178.6280  144.3430 C   0  0  0  0  0  2  0  0  0  0  0  0
  184.1170  178.4390  142.8650 C   0  0  0  0  0  3  0  0  0  0  0  0
  183.3530  178.5500  141.7780 C   0  0  0  0  0  3  0  0  0  0  0  0
  181.2750  179.2650  140.8990 O   0  0  0  0  0  0  0  0  0  0  0  0
  181.4170  179.1550  143.1960 O   0  0  0  0  0  0  0  0  0  0  0  0
  1 21  1  1  0  0  0
  1 19  1  0  0  0  0
  4  9  1  6  0  0  0
  4  7  1  0  0  0  0
  4 12  1  0  0  0  0
  5 11  2  0  0  0  0
  5 18  1  0  0  0  0
  6 17  1  0  0  0  0
  6  9  2  0  0  0  0
  7  2  1  6  0  0  0
  7  5  1  0  0  0  0
  8 18  1  0  0  0  0
 10 15  1  1  0  0  0
 11 20  1  0  0  0  0
 12  8  1  0  0  0  0
 14 10  1  0  0  0  0
 14  3  1  0  0  0  0
 15 13  1  0  0  0  0
 16  6  1  0  0  0  0
 17  2  1  0  0  0  0
 18 14  2  0  0  0  0
 19 13  1  0  0  0  0
 20  1  1  0  0  0  0
 20 10  1  0  0  0  0
 22 24  1  0  0  0  0
 22 21  1  1  0  0  0
 23 28  1  0  0  0  0
 25 22  1  0  0  0  0
 26 23  1  0  0  0  0
 26 25  2  0  0  0  0
 27 23  2  0  0  0  0
 28 24  1  0  0  0  0
M  END
>  <MODEL>
6

>  <REMARK>
 VINA RESULT:      -8.2      2.688      4.660
  Name = 
  2 active torsions:
  status: ('A' for Active; 'I' for Inactive)
    1  A    between atoms: C_1  and  C_2
    2  A    between atoms: C_2  and  C_3
                            x       y       z     vdW  Elec       q    Type
                         _______ _______ _______ _____ _____    ______ ____

>  <TORSDO>
F 2

$$$$
=
 OpenBabel11052413283D

 28 32  0  0  1  0  0  0  0  0999 V2000
  190.2750  176.9480  138.1640 C   0  0  1  0  0  3  0  0  0  0  0  0
  191.1020  177.5230  143.2600 C   0  0  0  0  0  2  0  0  0  0  0  0
  185.9180  178.3950  140.0930 F   0  0  0  0  0  0  0  0  0  0  0  0
  188.8230  177.8380  144.1310 C   0  0  2  0  0  3  0  0  0  0  0  0
  189.1230  177.3950  141.6750 C   0  0  0  0  0  0  0  0  0  0  0  0
  190.5940  177.1840  145.7390 C   0  0  0  0  0  0  0  0  0  0  0  0
  189.6440  177.1140  143.0650 C   0  0  1  0  0  3  0  0  0  0  0  0
  186.8440  178.1510  142.6740 C   0  0  0  0  0  2  0  0  0  0  0  0
  189.3120  177.4940  145.5060 C   0  0  0  0  0  3  0  0  0  0  0  0
  188.0260  177.7510  139.0090 C   0  0  1  0  0  3  0  0  0  0  0  0
  189.8740  177.0870  140.6180 C   0  0  0  0  0  3  0  0  0  0  0  0
  187.3500  177.5140  143.9650 C   0  0  0  0  0  2  0  0  0  0  0  0
  189.3000  179.0320  137.1840 C   0  0  0  0  0  2  0  0  0  0  0  0
  187.2070  177.9950  140.2490 C   0  0  0  0  0  0  0  0  0  0  0  0
  188.0980  179.0150  138.1420 C   0  0  0  0  0  2  0  0  0  0  0  0
  190.9950  176.9270  147.0430 O   0  0  0  0  0  1  0  0  0  0  0  0
  191.6040  177.0330  144.6240 C   0  0  0  0  0  2  0  0  0  0  0  0
  187.7090  177.8200  141.4810 C   0  0  0  0  0  0  0  0  0  0  0  0
  189.8110  177.6280  136.8720 C   0  0  0  0  0  2  0  0  0  0  0  0
  189.3720  177.2270  139.2840 N   0  0  0  0  0  0  0  0  0  0  0  0
  190.5250  175.4430  137.9660 C   0  0  0  0  0  2  0  0  0  0  0  0
  191.9890  174.9830  137.9480 C   0  0  2  0  0  3  0  0  0  0  0  0
  194.6340  174.6420  136.9910 C   0  0  0  0  0  0  0  0  0  0  0  0
  192.9990  176.1320  138.0590 C   0  0  0  0  0  2  0  0  0  0  0  0
  192.2910  174.0760  136.7830 C   0  0  0  0  0  3  0  0  0  0  0  0
  193.5420  173.8960  136.3550 C   0  0  0  0  0  3  0  0  0  0  0  0
  195.8310  174.3740  136.7160 O   0  0  0  0  0  0  0  0  0  0  0  0
  194.3330  175.6430  137.9200 O   0  0  0  0  0  0  0  0  0  0  0  0
  1 21  1  6  0  0  0
  1 20  1  0  0  0  0
  2 17  1  0  0  0  0
  3 14  1  0  0  0  0
  4 12  1  1  0  0  0
  4  9  1  0  0  0  0
  5  7  1  0  0  0  0
  6 16  1  0  0  0  0
  7  2  1  6  0  0  0
  7  4  1  0  0  0  0
  8 12  1  0  0  0  0
  9  6  2  0  0  0  0
 10 15  1  1  0  0  0
 10 20  1  0  0  0  0
 10 14  1  0  0  0  0
 11  5  2  0  0  0  0
 13 15  1  0  0  0  0
 14 18  2  0  0  0  0
 17  6  1  0  0  0  0
 18  5  1  0  0  0  0
 18  8  1  0  0  0  0
 19 13  1  0  0  0  0
 19  1  1  0  0  0  0
 20 11  1  0  0  0  0
 22 21  1  6  0  0  0
 22 24  1  0  0  0  0
 23 28  1  0  0  0  0
 25 22  1  0  0  0  0
 26 25  2  0  0  0  0
 26 23  1  0  0  0  0
 27 23  2  0  0  0  0
 28 24  1  0  0  0  0
M  END
>  <MODEL>
7

>  <REMARK>
 VINA RESULT:      -7.8      3.542      8.504
  Name = 
  2 active torsions:
  status: ('A' for Active; 'I' for Inactive)
    1  A    between atoms: C_1  and  C_2
    2  A    between atoms: C_2  and  C_3
                            x       y       z     vdW  Elec       q    Type
                         _______ _______ _______ _____ _____    ______ ____

>  <TORSDO>
F 2

$$$$
=
 OpenBabel11052413283D

 28 32  0  0  1  0  0  0  0  0999 V2000
  183.0560  177.7670  139.0300 C   0  0  1  0  0  3  0  0  0  0  0  0
  186.7760  178.1890  142.6310 C   0  0  0  0  0  2  0  0  0  0  0  0
  180.8010  179.5000  143.1180 F   0  0  0  0  0  0  0  0  0  0  0  0
  185.4840  178.6570  144.6710 C   0  0  2  0  0  3  0  0  0  0  0  0
  184.2400  178.2370  142.5280 C   0  0  0  0  0  0  0  0  0  0  0  0
  187.8110  177.8440  144.9400 C   0  0  0  0  0  0  0  0  0  0  0  0
  185.4610  177.8930  143.3480 C   0  0  1  0  0  3  0  0  0  0  0  0
  183.0550  179.1420  144.6570 C   0  0  0  0  0  2  0  0  0  0  0  0
  186.6660  178.2530  145.5000 C   0  0  0  0  0  3  0  0  0  0  0  0
  181.8070  178.7200  141.0170 C   0  0  1  0  0  3  0  0  0  0  0  0
  184.1960  177.8920  141.2410 C   0  0  0  0  0  3  0  0  0  0  0  0
  184.1800  178.4470  145.4180 C   0  0  0  0  0  2  0  0  0  0  0  0
  181.8400  179.9360  138.7550 C   0  0  0  0  0  2  0  0  0  0  0  0
  181.9000  179.0030  142.4930 C   0  0  0  0  0  0  0  0  0  0  0  0
  181.4400  179.9910  140.2380 C   0  0  0  0  0  2  0  0  0  0  0  0
  188.8870  177.5350  145.7610 O   0  0  0  0  0  1  0  0  0  0  0  0
  187.9520  177.6380  143.4490 C   0  0  0  0  0  2  0  0  0  0  0  0
  183.0200  178.7690  143.1940 C   0  0  0  0  0  0  0  0  0  0  0  0
  181.9670  178.5030  138.2430 C   0  0  0  0  0  2  0  0  0  0  0  0
  183.0130  178.0930  140.4580 N   0  0  0  0  0  0  0  0  0  0  0  0
  183.0330  176.2510  138.7680 C   0  0  0  0  0  2  0  0  0  0  0  0
  183.8050  175.7520  137.5390 C   0  0  2  0  0  3  0  0  0  0  0  0
  185.9770  174.7650  136.0110 C   0  0  0  0  0  0  0  0  0  0  0  0
  184.1760  174.2650  137.6050 C   0  0  0  0  0  2  0  0  0  0  0  0
  184.9960  176.6180  137.2180 C   0  0  0  0  0  3  0  0  0  0  0  0
  186.0020  176.1580  136.4730 C   0  0  0  0  0  3  0  0  0  0  0  0
  186.8290  174.3560  135.1810 O   0  0  0  0  0  0  0  0  0  0  0  0
  184.9870  173.9010  136.4870 O   0  0  0  0  0  0  0  0  0  0  0  0
  1 21  1  1  0  0  0
  1 20  1  0  0  0  0
  2 17  1  0  0  0  0
  4 12  1  1  0  0  0
  4  9  1  0  0  0  0
  5 18  1  0  0  0  0
  5  7  1  0  0  0  0
  6  9  2  0  0  0  0
  6 16  1  0  0  0  0
  7  2  1  6  0  0  0
  7  4  1  0  0  0  0
  8 12  1  0  0  0  0
 10 15  1  6  0  0  0
 10 14  1  0  0  0  0
 11  5  2  0  0  0  0
 13 15  1  0  0  0  0
 14  3  1  0  0  0  0
 14 18  2  0  0  0  0
 17  6  1  0  0  0  0
 18  8  1  0  0  0  0
 19 13  1  0  0  0  0
 19  1  1  0  0  0  0
 20 10  1  0  0  0  0
 20 11  1  0  0  0  0
 22 24  1  0  0  0  0
 22 21  1  1  0  0  0
 23 26  1  0  0  0  0
 23 28  1  0  0  0  0
 25 22  1  0  0  0  0
 26 25  2  0  0  0  0
 27 23  2  0  0  0  0
 28 24  1  0  0  0  0
M  END
>  <MODEL>
8

>  <REMARK>
 VINA RESULT:      -7.8      4.302      9.025
  Name = 
  2 active torsions:
  status: ('A' for Active; 'I' for Inactive)
    1  A    between atoms: C_1  and  C_2
    2  A    between atoms: C_2  and  C_3
                            x       y       z     vdW  Elec       q    Type
                         _______ _______ _______ _____ _____    ______ ____

>  <TORSDO>
F 2

$$$$
=
 OpenBabel11052413283D

 28 32  0  0  1  0  0  0  0  0999 V2000
  189.4190  178.0290  144.3740 C   0  0  1  0  0  3  0  0  0  0  0  0
  186.1150  179.0190  140.4900 C   0  0  0  0  0  2  0  0  0  0  0  0
  191.8100  176.7520  140.1970 F   0  0  0  0  0  0  0  0  0  0  0  0
  187.2430  177.9880  138.5630 C   0  0  2  0  0  3  0  0  0  0  0  0
  188.2990  177.7710  140.8330 C   0  0  0  0  0  0  0  0  0  0  0  0
  184.8200  178.4740  138.3580 C   0  0  0  0  0  0  0  0  0  0  0  0
  187.0010  177.8500  140.0660 C   0  0  1  0  0  3  0  0  0  0  0  0
  189.5560  177.1030  138.6580 C   0  0  0  0  0  2  0  0  0  0  0  0
  185.9460  177.9960  137.8120 C   0  0  0  0  0  3  0  0  0  0  0  0
  190.7690  177.4140  142.3210 C   0  0  1  0  0  3  0  0  0  0  0  0
  188.2900  177.9360  142.1570 C   0  0  0  0  0  3  0  0  0  0  0  0
  188.1610  176.8800  138.0790 C   0  0  0  0  0  2  0  0  0  0  0  0
  191.6080  179.1770  143.9890 C   0  0  0  0  0  2  0  0  0  0  0  0
  190.6840  177.1600  140.8390 C   0  0  0  0  0  0  0  0  0  0  0  0
  191.8220  178.4860  142.6340 C   0  0  0  0  0  2  0  0  0  0  0  0
  183.6630  178.5030  137.5920 O   0  0  0  0  0  1  0  0  0  0  0  0
  184.7480  178.9140  139.8020 C   0  0  0  0  0  2  0  0  0  0  0  0
  189.5420  177.3130  140.1530 C   0  0  0  0  0  0  0  0  0  0  0  0
  190.8060  178.3110  144.9590 C   0  0  0  0  0  2  0  0  0  0  0  0
  189.4770  177.7530  142.9360 N   0  0  0  0  0  0  0  0  0  0  0  0
  188.6750  176.9330  145.1560 C   0  0  0  0  0  2  0  0  0  0  0  0
  187.1900  177.1830  145.4540 C   0  0  2  0  0  3  0  0  0  0  0  0
  184.7720  178.6250  145.7700 C   0  0  0  0  0  0  0  0  0  0  0  0
  186.3750  177.5940  144.2210 C   0  0  0  0  0  2  0  0  0  0  0  0
  186.9890  178.1340  146.6060 C   0  0  0  0  0  3  0  0  0  0  0  0
  185.8370  178.7870  146.7670 C   0  0  0  0  0  3  0  0  0  0  0  0
  183.6280  179.1020  145.9810 O   0  0  0  0  0  0  0  0  0  0  0  0
  185.0350  177.9200  144.5920 O   0  0  0  0  0  0  0  0  0  0  0  0
  1 19  1  0  0  0  0
  1 21  1  1  0  0  0
  3 14  1  0  0  0  0
  4  9  1  6  0  0  0
  4  7  1  0  0  0  0
  5 11  2  0  0  0  0
  6 17  1  0  0  0  0
  7  2  1  1  0  0  0
  7  5  1  0  0  0  0
  8 18  1  0  0  0  0
  9  6  2  0  0  0  0
 10 15  1  6  0  0  0
 10 20  1  0  0  0  0
 11 20  1  0  0  0  0
 12  4  1  0  0  0  0
 12  8  1  0  0  0  0
 13 19  1  0  0  0  0
 14 10  1  0  0  0  0
 15 13  1  0  0  0  0
 16  6  1  0  0  0  0
 17  2  1  0  0  0  0
 18  5  1  0  0  0  0
 18 14  2  0  0  0  0
 20  1  1  0  0  0  0
 22 21  1  6  0  0  0
 22 25  1  0  0  0  0
 23 27  2  0  0  0  0
 23 26  1  0  0  0  0
 24 28  1  0  0  0  0
 24 22  1  0  0  0  0
 25 26  2  0  0  0  0
 28 23  1  0  0  0  0
M  END
>  <MODEL>
9

>  <REMARK>
 VINA RESULT:      -7.7      1.427      1.891
  Name = 
  2 active torsions:
  status: ('A' for Active; 'I' for Inactive)
    1  A    between atoms: C_1  and  C_2
    2  A    between atoms: C_2  and  C_3
                            x       y       z     vdW  Elec       q    Type
                         _______ _______ _______ _____ _____    ______ ____

>  <TORSDO>
F 2

$$$$
