=
 OpenBabel11052413193D

 31 32  0  0  1  0  0  0  0  0999 V2000
  184.8630  178.5410  144.4070 C   0  0  0  0  0  0  0  0  0  0  0  0
  187.8660  176.5210  143.2970 C   0  0  0  0  0  2  0  0  0  0  0  0
  186.8160  177.5960  143.3260 C   0  0  0  0  0  0  0  0  0  0  0  0
  184.7460  179.4800  143.3800 C   0  0  0  0  0  3  0  0  0  0  0  0
  188.5410  177.3420  141.0510 C   0  0  2  0  0  3  0  0  0  0  0  0
  183.9770  178.5430  145.4310 F   0  0  0  0  0  0  0  0  0  0  0  0
  187.6690  178.5980  141.1400 C   0  0  0  0  0  2  0  0  0  0  0  0
  189.0620  176.8950  142.4190 C   0  0  1  0  0  3  0  0  0  0  0  0
  185.8940  177.5980  144.3770 C   0  0  0  0  0  3  0  0  0  0  0  0
  186.6810  178.5280  142.2720 C   0  0  0  0  0  0  0  0  0  0  0  0
  185.6540  179.4740  142.3180 C   0  0  0  0  0  3  0  0  0  0  0  0
  189.8060  177.9080  143.0350 O   0  0  0  0  0  0  0  0  0  0  0  0
  190.8180  177.2410  143.7340 C   0  0  0  0  0  2  0  0  0  0  0  0
  190.9560  177.8230  145.1310 C   0  0  0  0  0  2  0  0  0  0  0  0
  189.5930  178.0520  145.7820 C   0  0  0  0  0  2  0  0  0  0  0  0
  190.2590  176.2770  147.2520 O   0  0  0  0  0  1  0  0  0  0  0  0
  189.8480  178.4080  148.2470 C   0  0  0  0  0  1  0  0  0  0  0  0
  189.4500  177.4130  147.1650 C   0  0  1  0  0  0  0  0  0  0  0  0
  187.9850  177.0160  147.3420 C   0  0  0  0  0  2  0  0  0  0  0  0
  187.0900  178.2150  147.6310 C   0  0  0  0  0  1  0  0  0  0  0  0
  189.6220  177.4220  139.9700 C   0  0  0  0  0  2  0  0  0  0  0  0
  189.1170  177.0990  138.5640 C   0  0  2  0  0  3  0  0  0  0  0  0
  189.9940  176.0250  137.9260 C   0  0  0  0  0  2  0  0  0  0  0  0
  190.8660  175.4770  138.8720 O   0  0  0  0  0  1  0  0  0  0  0  0
  189.0840  178.3530  137.7000 C   0  0  0  0  0  2  0  0  0  0  0  0
  187.7870  178.4310  136.9100 C   0  0  0  0  0  2  0  0  0  0  0  0
  185.4220  176.9460  137.4860 O   0  0  0  0  0  0  0  0  0  0  0  0
  186.7110  178.8690  137.7840 N   0  0  0  0  0  2  0  0  0  0  0  0
  185.5450  178.0830  138.0150 C   0  0  0  0  0  0  0  0  0  0  0  0
  184.6310  180.0000  139.0320 O   0  0  0  0  0  1  0  0  0  0  0  0
  184.4520  178.6280  138.8630 C   0  0  0  0  0  2  0  0  0  0  0  0
  1  6  1  0  0  0  0
  2  3  1  0  0  0  0
  3  9  2  0  0  0  0
  4  1  2  0  0  0  0
  5 21  1  6  0  0  0
  5  7  1  0  0  0  0
  5  8  1  0  0  0  0
  7 10  1  0  0  0  0
  8 12  1  1  0  0  0
  8  2  1  0  0  0  0
  9  1  1  0  0  0  0
 10 11  2  0  0  0  0
 10  3  1  0  0  0  0
 11  4  1  0  0  0  0
 12 13  1  0  0  0  0
 13 14  1  0  0  0  0
 14 15  1  0  0  0  0
 15 18  1  0  0  0  0
 18 16  1  0  0  0  0
 18 19  1  0  0  0  0
 18 17  1  1  0  0  0
 19 20  1  0  0  0  0
 22 25  1  6  0  0  0
 22 21  1  0  0  0  0
 23 22  1  0  0  0  0
 23 24  1  0  0  0  0
 26 25  1  0  0  0  0
 26 28  1  0  0  0  0
 27 29  2  0  0  0  0
 28 29  1  0  0  0  0
 29 31  1  0  0  0  0
 31 30  1  0  0  0  0
M  END
>  <MODEL>
1

>  <REMARK>
 VINA RESULT:      -7.5      0.000      0.000
  Name = 
  13 active torsions:
  status: ('A' for Active; 'I' for Inactive)
    1  A    between atoms: C_3  and  C_9
    2  A    between atoms: O_5  and  C_14
    3  A    between atoms: O_5  and  C_21
    4  A    between atoms: C_6  and  C_7
    5  A    between atoms: C_6  and  N_19
    6  A    between atoms: C_7  and  C_9
    7  A    between atoms: C_9  and  C_23
    8  A    between atoms: C_10  and  C_14
    9  A    between atoms: C_10  and  C_18
   10  A    between atoms: C_11  and  C_24
   11  A    between atoms: C_15  and  C_23
   12  A    between atoms: C_17  and  C_31
   13  A    between atoms: C_18  and  C_31
                            x       y       z     vdW  Elec       q    Type
                         _______ _______ _______ _____ _____    ______ ____

>  <TORSDO>
F 13

$$$$
=
 OpenBabel11052413193D

 31 32  0  0  1  0  0  0  0  0999 V2000
  187.4440  177.7930  147.2020 C   0  0  0  0  0  0  0  0  0  0  0  0
  186.6340  176.9960  143.5910 C   0  0  0  0  0  2  0  0  0  0  0  0
  186.6060  177.6770  144.9300 C   0  0  0  0  0  0  0  0  0  0  0  0
  186.5230  178.8010  147.4930 C   0  0  0  0  0  3  0  0  0  0  0  0
  184.6380  178.3300  142.9520 C   0  0  2  0  0  3  0  0  0  0  0  0
  188.3000  177.3610  148.1580 F   0  0  0  0  0  0  0  0  0  0  0  0
  184.7190  179.2260  144.1910 C   0  0  0  0  0  2  0  0  0  0  0  0
  186.0150  177.8530  142.4850 C   0  0  1  0  0  3  0  0  0  0  0  0
  187.4830  177.2290  145.9230 C   0  0  0  0  0  3  0  0  0  0  0  0
  185.6550  178.6780  145.2320 C   0  0  0  0  0  0  0  0  0  0  0  0
  185.6330  179.2430  146.5100 C   0  0  0  0  0  3  0  0  0  0  0  0
  186.8560  178.9340  142.1950 O   0  0  0  0  0  0  0  0  0  0  0  0
  187.4130  178.6370  140.9470 C   0  0  0  0  0  2  0  0  0  0  0  0
  188.9280  178.5980  141.0480 C   0  0  0  0  0  2  0  0  0  0  0  0
  189.4400  177.1790  141.2880 C   0  0  0  0  0  2  0  0  0  0  0  0
  190.5040  175.8010  142.9360 O   0  0  0  0  0  1  0  0  0  0  0  0
  191.8880  177.3630  141.7780 C   0  0  0  0  0  1  0  0  0  0  0  0
  190.5150  177.0790  142.3710 C   0  0  1  0  0  0  0  0  0  0  0  0
  190.1900  178.1180  143.4430 C   0  0  0  0  0  2  0  0  0  0  0  0
  191.4280  178.5630  144.2130 C   0  0  0  0  0  1  0  0  0  0  0  0
  183.7680  178.9090  141.8320 C   0  0  0  0  0  2  0  0  0  0  0  0
  183.5200  177.9400  140.6770 C   0  0  2  0  0  3  0  0  0  0  0  0
  184.1460  178.4820  139.3950 C   0  0  0  0  0  2  0  0  0  0  0  0
  184.4700  179.8350  139.5400 O   0  0  0  0  0  1  0  0  0  0  0  0
  182.0290  177.6950  140.4880 C   0  0  0  0  0  2  0  0  0  0  0  0
  181.2240  178.9210  140.8910 C   0  0  0  0  0  2  0  0  0  0  0  0
  179.9670  180.8390  142.5850 O   0  0  0  0  0  0  0  0  0  0  0  0
  180.4140  178.6100  142.0560 N   0  0  0  0  0  2  0  0  0  0  0  0
  179.8280  179.6210  142.8730 C   0  0  0  0  0  0  0  0  0  0  0  0
  179.4600  177.9500  144.4920 O   0  0  0  0  0  1  0  0  0  0  0  0
  179.0730  179.2290  144.0920 C   0  0  0  0  0  2  0  0  0  0  0  0
  1  4  1  0  0  0  0
  1  6  1  0  0  0  0
  2  3  1  0  0  0  0
  3 10  2  0  0  0  0
  3  9  1  0  0  0  0
  5 21  1  6  0  0  0
  5  7  1  0  0  0  0
  7 10  1  0  0  0  0
  8 12  1  1  0  0  0
  8  5  1  0  0  0  0
  8  2  1  0  0  0  0
  9  1  2  0  0  0  0
 10 11  1  0  0  0  0
 11  4  2  0  0  0  0
 13 14  1  0  0  0  0
 13 12  1  0  0  0  0
 14 15  1  0  0  0  0
 15 18  1  0  0  0  0
 18 17  1  6  0  0  0
 18 16  1  0  0  0  0
 18 19  1  0  0  0  0
 19 20  1  0  0  0  0
 22 23  1  6  0  0  0
 22 21  1  0  0  0  0
 23 24  1  0  0  0  0
 25 22  1  0  0  0  0
 25 26  1  0  0  0  0
 26 28  1  0  0  0  0
 27 29  2  0  0  0  0
 28 29  1  0  0  0  0
 29 31  1  0  0  0  0
 31 30  1  0  0  0  0
M  END
>  <MODEL>
2

>  <REMARK>
 VINA RESULT:      -7.4      3.177      5.582
  Name = 
  13 active torsions:
  status: ('A' for Active; 'I' for Inactive)
    1  A    between atoms: C_3  and  C_9
    2  A    between atoms: O_5  and  C_14
    3  A    between atoms: O_5  and  C_21
    4  A    between atoms: C_6  and  C_7
    5  A    between atoms: C_6  and  N_19
    6  A    between atoms: C_7  and  C_9
    7  A    between atoms: C_9  and  C_23
    8  A    between atoms: C_10  and  C_14
    9  A    between atoms: C_10  and  C_18
   10  A    between atoms: C_11  and  C_24
   11  A    between atoms: C_15  and  C_23
   12  A    between atoms: C_17  and  C_31
   13  A    between atoms: C_18  and  C_31
                            x       y       z     vdW  Elec       q    Type
                         _______ _______ _______ _____ _____    ______ ____

>  <TORSDO>
F 13

$$$$
=
 OpenBabel11052413193D

 31 32  0  0  1  0  0  0  0  0999 V2000
  191.0720  176.9130  147.2100 C   0  0  0  0  0  0  0  0  0  0  0  0
  189.2820  176.2160  143.9480 C   0  0  0  0  0  2  0  0  0  0  0  0
  189.5660  176.7720  145.3150 C   0  0  0  0  0  0  0  0  0  0  0  0
  190.1190  177.6530  147.9140 C   0  0  0  0  0  3  0  0  0  0  0  0
  186.9640  177.0880  144.1560 C   0  0  2  0  0  3  0  0  0  0  0  0
  192.2640  176.6250  147.7830 F   0  0  0  0  0  0  0  0  0  0  0  0
  187.2740  177.8850  145.4260 C   0  0  0  0  0  2  0  0  0  0  0  0
  188.1740  176.9830  143.2230 C   0  0  1  0  0  3  0  0  0  0  0  0
  190.7930  176.4700  145.9140 C   0  0  0  0  0  3  0  0  0  0  0  0
  188.5910  177.4960  146.0370 C   0  0  0  0  0  0  0  0  0  0  0  0
  188.8840  177.9450  147.3280 C   0  0  0  0  0  3  0  0  0  0  0  0
  188.6380  178.2500  142.8500 O   0  0  0  0  0  0  0  0  0  0  0  0
  189.5360  178.0130  141.8040 C   0  0  0  0  0  2  0  0  0  0  0  0
  188.7810  177.8460  140.4960 C   0  0  0  0  0  2  0  0  0  0  0  0
  189.6600  178.1800  139.2920 C   0  0  0  0  0  2  0  0  0  0  0  0
  188.8800  179.4030  137.3830 O   0  0  0  0  0  1  0  0  0  0  0  0
  189.6330  177.1700  137.0020 C   0  0  0  0  0  1  0  0  0  0  0  0
  188.9250  178.1270  137.9520 C   0  0  1  0  0  0  0  0  0  0  0  0
  187.5050  177.6330  138.2200 C   0  0  0  0  0  2  0  0  0  0  0  0
  186.4740  178.3220  137.3350 C   0  0  0  0  0  1  0  0  0  0  0  0
  185.6750  177.5270  143.4550 C   0  0  0  0  0  2  0  0  0  0  0  0
  185.2040  178.9270  143.8470 C   0  0  2  0  0  3  0  0  0  0  0  0
  183.8460  178.8480  144.5390 C   0  0  0  0  0  2  0  0  0  0  0  0
  184.0060  178.7750  145.9270 O   0  0  0  0  0  1  0  0  0  0  0  0
  185.1360  179.8350  142.6260 C   0  0  0  0  0  2  0  0  0  0  0  0
  185.5730  179.0900  141.3740 C   0  0  0  0  0  2  0  0  0  0  0  0
  183.2200  177.7980  140.4150 O   0  0  0  0  0  0  0  0  0  0  0  0
  184.7730  179.5310  140.2430 N   0  0  0  0  0  2  0  0  0  0  0  0
  183.6160  178.8250  139.8040 C   0  0  0  0  0  0  0  0  0  0  0  0
  181.8000  180.0760  138.9750 O   0  0  0  0  0  1  0  0  0  0  0  0
  182.8900  179.2930  138.5940 C   0  0  0  0  0  2  0  0  0  0  0  0
  1  6  1  0  0  0  0
  1  4  1  0  0  0  0
  2  3  1  0  0  0  0
  3  9  1  0  0  0  0
  3 10  2  0  0  0  0
  5 21  1  6  0  0  0
  5  7  1  0  0  0  0
  7 10  1  0  0  0  0
  8 12  1  1  0  0  0
  8  2  1  0  0  0  0
  8  5  1  0  0  0  0
  9  1  2  0  0  0  0
 10 11  1  0  0  0  0
 11  4  2  0  0  0  0
 13 12  1  0  0  0  0
 14 13  1  0  0  0  0
 15 14  1  0  0  0  0
 16 18  1  0  0  0  0
 18 17  1  6  0  0  0
 18 19  1  0  0  0  0
 18 15  1  0  0  0  0
 20 19  1  0  0  0  0
 21 22  1  0  0  0  0
 22 25  1  6  0  0  0
 22 23  1  0  0  0  0
 23 24  1  0  0  0  0
 26 25  1  0  0  0  0
 28 26  1  0  0  0  0
 29 28  1  0  0  0  0
 29 27  2  0  0  0  0
 31 30  1  0  0  0  0
 31 29  1  0  0  0  0
M  END
>  <MODEL>
3

>  <REMARK>
 VINA RESULT:      -6.9      2.555      6.431
  Name = 
  13 active torsions:
  status: ('A' for Active; 'I' for Inactive)
    1  A    between atoms: C_3  and  C_9
    2  A    between atoms: O_5  and  C_14
    3  A    between atoms: O_5  and  C_21
    4  A    between atoms: C_6  and  C_7
    5  A    between atoms: C_6  and  N_19
    6  A    between atoms: C_7  and  C_9
    7  A    between atoms: C_9  and  C_23
    8  A    between atoms: C_10  and  C_14
    9  A    between atoms: C_10  and  C_18
   10  A    between atoms: C_11  and  C_24
   11  A    between atoms: C_15  and  C_23
   12  A    between atoms: C_17  and  C_31
   13  A    between atoms: C_18  and  C_31
                            x       y       z     vdW  Elec       q    Type
                         _______ _______ _______ _____ _____    ______ ____

>  <TORSDO>
F 13

$$$$
=
 OpenBabel11052413193D

 31 32  0  0  1  0  0  0  0  0999 V2000
  187.1870  178.0730  147.1830 C   0  0  0  0  0  0  0  0  0  0  0  0
  186.6490  177.0490  143.5790 C   0  0  0  0  0  2  0  0  0  0  0  0
  186.4980  177.7930  144.8750 C   0  0  0  0  0  0  0  0  0  0  0  0
  186.1910  179.0350  147.3650 C   0  0  0  0  0  3  0  0  0  0  0  0
  184.6190  178.2220  142.7550 C   0  0  2  0  0  3  0  0  0  0  0  0
  188.0070  177.7440  148.2080 F   0  0  0  0  0  0  0  0  0  0  0  0
  184.5700  179.1820  143.9460 C   0  0  0  0  0  2  0  0  0  0  0  0
  186.0480  177.8090  142.3940 C   0  0  1  0  0  3  0  0  0  0  0  0
  187.3370  177.4510  145.9400 C   0  0  0  0  0  3  0  0  0  0  0  0
  185.4720  178.7450  145.0680 C   0  0  0  0  0  0  0  0  0  0  0  0
  185.3380  179.3710  146.3100 C   0  0  0  0  0  3  0  0  0  0  0  0
  186.8390  178.9250  142.0960 O   0  0  0  0  0  0  0  0  0  0  0  0
  187.5810  178.5550  140.9700 C   0  0  0  0  0  2  0  0  0  0  0  0
  189.0550  178.4620  141.3250 C   0  0  0  0  0  2  0  0  0  0  0  0
  189.4490  177.0400  141.7210 C   0  0  0  0  0  2  0  0  0  0  0  0
  190.7670  175.6670  143.1790 O   0  0  0  0  0  1  0  0  0  0  0  0
  191.9150  177.3830  141.9820 C   0  0  0  0  0  1  0  0  0  0  0  0
  190.6320  176.9680  142.6880 C   0  0  1  0  0  0  0  0  0  0  0  0
  190.3450  177.9260  143.8430 C   0  0  0  0  0  2  0  0  0  0  0  0
  191.3860  179.0340  143.9500 C   0  0  0  0  0  1  0  0  0  0  0  0
  183.7860  178.6880  141.5570 C   0  0  0  0  0  2  0  0  0  0  0  0
  183.9570  177.8240  140.3090 C   0  0  2  0  0  3  0  0  0  0  0  0
  184.4410  178.6790  139.1410 C   0  0  0  0  0  2  0  0  0  0  0  0
  184.5210  180.0240  139.5160 O   0  0  0  0  0  1  0  0  0  0  0  0
  182.6540  177.1180  139.9580 C   0  0  0  0  0  2  0  0  0  0  0  0
  182.6150  176.7590  138.4810 C   0  0  0  0  0  2  0  0  0  0  0  0
  184.9180  175.7510  137.1370 O   0  0  0  0  0  0  0  0  0  0  0  0
  182.9420  175.3530  138.3130 N   0  0  0  0  0  2  0  0  0  0  0  0
  184.1030  174.9160  137.6120 C   0  0  0  0  0  0  0  0  0  0  0  0
  185.4210  173.0510  138.1880 O   0  0  0  0  0  1  0  0  0  0  0  0
  184.3350  173.4610  137.4170 C   0  0  0  0  0  2  0  0  0  0  0  0
  1  4  1  0  0  0  0
  1  6  1  0  0  0  0
  2  3  1  0  0  0  0
  3 10  2  0  0  0  0
  3  9  1  0  0  0  0
  5 21  1  6  0  0  0
  5  7  1  0  0  0  0
  7 10  1  0  0  0  0
  8 12  1  1  0  0  0
  8  5  1  0  0  0  0
  8  2  1  0  0  0  0
  9  1  2  0  0  0  0
 10 11  1  0  0  0  0
 11  4  2  0  0  0  0
 13 14  1  0  0  0  0
 13 12  1  0  0  0  0
 14 15  1  0  0  0  0
 15 18  1  0  0  0  0
 18 17  1  6  0  0  0
 18 16  1  0  0  0  0
 18 19  1  0  0  0  0
 19 20  1  0  0  0  0
 22 23  1  6  0  0  0
 22 21  1  0  0  0  0
 23 24  1  0  0  0  0
 25 22  1  0  0  0  0
 26 25  1  0  0  0  0
 27 29  2  0  0  0  0
 28 26  1  0  0  0  0
 29 28  1  0  0  0  0
 31 29  1  0  0  0  0
 31 30  1  0  0  0  0
M  END
>  <MODEL>
4

>  <REMARK>
 VINA RESULT:      -6.9      2.467      4.775
  Name = 
  13 active torsions:
  status: ('A' for Active; 'I' for Inactive)
    1  A    between atoms: C_3  and  C_9
    2  A    between atoms: O_5  and  C_14
    3  A    between atoms: O_5  and  C_21
    4  A    between atoms: C_6  and  C_7
    5  A    between atoms: C_6  and  N_19
    6  A    between atoms: C_7  and  C_9
    7  A    between atoms: C_9  and  C_23
    8  A    between atoms: C_10  and  C_14
    9  A    between atoms: C_10  and  C_18
   10  A    between atoms: C_11  and  C_24
   11  A    between atoms: C_15  and  C_23
   12  A    between atoms: C_17  and  C_31
   13  A    between atoms: C_18  and  C_31
                            x       y       z     vdW  Elec       q    Type
                         _______ _______ _______ _____ _____    ______ ____

>  <TORSDO>
F 13

$$$$
=
 OpenBabel11052413193D

 31 32  0  0  1  0  0  0  0  0999 V2000
  191.6890  176.5470  146.6870 C   0  0  0  0  0  0  0  0  0  0  0  0
  189.7290  178.4420  144.0610 C   0  0  0  0  0  2  0  0  0  0  0  0
  190.5220  177.3480  144.7200 C   0  0  0  0  0  0  0  0  0  0  0  0
  192.1140  175.4200  145.9790 C   0  0  0  0  0  3  0  0  0  0  0  0
  189.9810  177.2270  141.9070 C   0  0  2  0  0  3  0  0  0  0  0  0
  192.0430  176.7050  147.9840 F   0  0  0  0  0  0  0  0  0  0  0  0
  190.5650  175.9760  142.5690 C   0  0  0  0  0  2  0  0  0  0  0  0
  188.9870  177.9570  142.8140 C   0  0  1  0  0  3  0  0  0  0  0  0
  190.8970  177.5100  146.0560 C   0  0  0  0  0  3  0  0  0  0  0  0
  190.9750  176.2220  143.9950 C   0  0  0  0  0  0  0  0  0  0  0  0
  191.7550  175.2580  144.6380 C   0  0  0  0  0  3  0  0  0  0  0  0
  187.9290  177.1190  143.1860 O   0  0  0  0  0  0  0  0  0  0  0  0
  186.7710  177.8620  142.9370 C   0  0  0  0  0  2  0  0  0  0  0  0
  185.8060  177.7300  144.1040 C   0  0  0  0  0  2  0  0  0  0  0  0
  185.7860  178.9940  144.9620 C   0  0  0  0  0  2  0  0  0  0  0  0
  186.0060  179.9410  147.1530 O   0  0  0  0  0  1  0  0  0  0  0  0
  184.7150  177.9420  146.9650 C   0  0  0  0  0  1  0  0  0  0  0  0
  185.9180  178.7300  146.4620 C   0  0  1  0  0  0  0  0  0  0  0  0
  187.1940  177.9190  146.6810 C   0  0  0  0  0  2  0  0  0  0  0  0
  187.7630  178.0990  148.0830 C   0  0  0  0  0  1  0  0  0  0  0  0
  189.4650  176.9850  140.4860 C   0  0  0  0  0  2  0  0  0  0  0  0
  190.2220  177.7630  139.4110 C   0  0  2  0  0  3  0  0  0  0  0  0
  189.2510  178.6110  138.5950 C   0  0  0  0  0  2  0  0  0  0  0  0
  187.9670  178.5550  139.1460 O   0  0  0  0  0  1  0  0  0  0  0  0
  191.0030  176.8170  138.5090 C   0  0  0  0  0  2  0  0  0  0  0  0
  192.4560  176.7260  138.9510 C   0  0  0  0  0  2  0  0  0  0  0  0
  193.4020  174.3330  137.7240 O   0  0  0  0  0  0  0  0  0  0  0  0
  193.3170  176.6650  137.7820 N   0  0  0  0  0  2  0  0  0  0  0  0
  193.7700  175.4310  137.2290 C   0  0  0  0  0  0  0  0  0  0  0  0
  196.0140  175.6090  136.5370 O   0  0  0  0  0  1  0  0  0  0  0  0
  194.7080  175.4480  136.0760 C   0  0  0  0  0  2  0  0  0  0  0  0
  1  6  1  0  0  0  0
  2  3  1  0  0  0  0
  3  9  2  0  0  0  0
  4  1  2  0  0  0  0
  5 21  1  6  0  0  0
  5  7  1  0  0  0  0
  5  8  1  0  0  0  0
  7 10  1  0  0  0  0
  8 12  1  1  0  0  0
  8  2  1  0  0  0  0
  9  1  1  0  0  0  0
 10 11  2  0  0  0  0
 10  3  1  0  0  0  0
 11  4  1  0  0  0  0
 13 12  1  0  0  0  0
 13 14  1  0  0  0  0
 14 15  1  0  0  0  0
 15 18  1  0  0  0  0
 18 19  1  0  0  0  0
 18 17  1  1  0  0  0
 18 16  1  0  0  0  0
 19 20  1  0  0  0  0
 22 25  1  6  0  0  0
 22 21  1  0  0  0  0
 23 24  1  0  0  0  0
 23 22  1  0  0  0  0
 25 26  1  0  0  0  0
 28 26  1  0  0  0  0
 29 27  2  0  0  0  0
 29 28  1  0  0  0  0
 31 30  1  0  0  0  0
 31 29  1  0  0  0  0
M  END
>  <MODEL>
5

>  <REMARK>
 VINA RESULT:      -6.8      3.143      5.811
  Name = 
  13 active torsions:
  status: ('A' for Active; 'I' for Inactive)
    1  A    between atoms: C_3  and  C_9
    2  A    between atoms: O_5  and  C_14
    3  A    between atoms: O_5  and  C_21
    4  A    between atoms: C_6  and  C_7
    5  A    between atoms: C_6  and  N_19
    6  A    between atoms: C_7  and  C_9
    7  A    between atoms: C_9  and  C_23
    8  A    between atoms: C_10  and  C_14
    9  A    between atoms: C_10  and  C_18
   10  A    between atoms: C_11  and  C_24
   11  A    between atoms: C_15  and  C_23
   12  A    between atoms: C_17  and  C_31
   13  A    between atoms: C_18  and  C_31
                            x       y       z     vdW  Elec       q    Type
                         _______ _______ _______ _____ _____    ______ ____

>  <TORSDO>
F 13

$$$$
=
 OpenBabel11052413193D

 31 32  0  0  1  0  0  0  0  0999 V2000
  192.0780  176.0230  146.7200 C   0  0  0  0  0  0  0  0  0  0  0  0
  189.7890  178.1890  144.6220 C   0  0  0  0  0  2  0  0  0  0  0  0
  190.6670  177.0400  145.0310 C   0  0  0  0  0  0  0  0  0  0  0  0
  192.4210  175.0070  145.8250 C   0  0  0  0  0  3  0  0  0  0  0  0
  189.7800  177.2660  142.3150 C   0  0  2  0  0  3  0  0  0  0  0  0
  192.5910  176.0240  147.9730 F   0  0  0  0  0  0  0  0  0  0  0  0
  190.4530  175.9550  142.7320 C   0  0  0  0  0  2  0  0  0  0  0  0
  188.9010  177.8490  143.4240 C   0  0  1  0  0  3  0  0  0  0  0  0
  191.2060  177.0400  146.3210 C   0  0  0  0  0  3  0  0  0  0  0  0
  191.0360  176.0270  144.1160 C   0  0  0  0  0  0  0  0  0  0  0  0
  191.8990  175.0090  144.5280 C   0  0  0  0  0  3  0  0  0  0  0  0
  187.9050  176.9440  143.8120 O   0  0  0  0  0  0  0  0  0  0  0  0
  187.3960  177.4550  145.0100 C   0  0  0  0  0  2  0  0  0  0  0  0
  186.0410  178.0990  144.7680 C   0  0  0  0  0  2  0  0  0  0  0  0
  185.5110  177.7840  143.3700 C   0  0  0  0  0  2  0  0  0  0  0  0
  185.3840  179.8010  142.0800 O   0  0  0  0  0  1  0  0  0  0  0  0
  183.5770  178.2590  141.8540 C   0  0  0  0  0  1  0  0  0  0  0  0
  184.6120  178.8750  142.7850 C   0  0  1  0  0  0  0  0  0  0  0  0
  183.9100  179.5700  143.9500 C   0  0  0  0  0  2  0  0  0  0  0  0
  182.5200  179.0030  144.2120 C   0  0  0  0  0  1  0  0  0  0  0  0
  189.0920  177.1950  140.9490 C   0  0  0  0  0  2  0  0  0  0  0  0
  190.0150  177.5110  139.7730 C   0  0  2  0  0  3  0  0  0  0  0  0
  189.4230  178.6370  138.9300 C   0  0  0  0  0  2  0  0  0  0  0  0
  188.0260  178.5850  138.9520 O   0  0  0  0  0  1  0  0  0  0  0  0
  190.2560  176.2700  138.9250 C   0  0  0  0  0  2  0  0  0  0  0  0
  191.3540  176.5180  137.9030 C   0  0  0  0  0  2  0  0  0  0  0  0
  194.0440  176.7480  136.9880 O   0  0  0  0  0  0  0  0  0  0  0  0
  192.3740  175.4900  138.0240 N   0  0  0  0  0  2  0  0  0  0  0  0
  193.6980  175.6640  137.5270 C   0  0  0  0  0  0  0  0  0  0  0  0
  195.9200  174.9650  137.1810 O   0  0  0  0  0  1  0  0  0  0  0  0
  194.6670  174.5410  137.6210 C   0  0  0  0  0  2  0  0  0  0  0  0
  1  6  1  0  0  0  0
  2  3  1  0  0  0  0
  3  9  2  0  0  0  0
  4  1  2  0  0  0  0
  5 21  1  6  0  0  0
  5  7  1  0  0  0  0
  5  8  1  0  0  0  0
  7 10  1  0  0  0  0
  8 12  1  1  0  0  0
  8  2  1  0  0  0  0
  9  1  1  0  0  0  0
 10 11  2  0  0  0  0
 10  3  1  0  0  0  0
 11  4  1  0  0  0  0
 12 13  1  0  0  0  0
 14 13  1  0  0  0  0
 15 14  1  0  0  0  0
 16 18  1  0  0  0  0
 18 17  1  6  0  0  0
 18 15  1  0  0  0  0
 18 19  1  0  0  0  0
 19 20  1  0  0  0  0
 22 25  1  6  0  0  0
 22 21  1  0  0  0  0
 23 24  1  0  0  0  0
 23 22  1  0  0  0  0
 26 28  1  0  0  0  0
 26 25  1  0  0  0  0
 27 29  2  0  0  0  0
 29 31  1  0  0  0  0
 29 28  1  0  0  0  0
 30 31  1  0  0  0  0
M  END
>  <MODEL>
6

>  <REMARK>
 VINA RESULT:      -6.6      3.097      6.360
  Name = 
  13 active torsions:
  status: ('A' for Active; 'I' for Inactive)
    1  A    between atoms: C_3  and  C_9
    2  A    between atoms: O_5  and  C_14
    3  A    between atoms: O_5  and  C_21
    4  A    between atoms: C_6  and  C_7
    5  A    between atoms: C_6  and  N_19
    6  A    between atoms: C_7  and  C_9
    7  A    between atoms: C_9  and  C_23
    8  A    between atoms: C_10  and  C_14
    9  A    between atoms: C_10  and  C_18
   10  A    between atoms: C_11  and  C_24
   11  A    between atoms: C_15  and  C_23
   12  A    between atoms: C_17  and  C_31
   13  A    between atoms: C_18  and  C_31
                            x       y       z     vdW  Elec       q    Type
                         _______ _______ _______ _____ _____    ______ ____

>  <TORSDO>
F 13

$$$$
=
 OpenBabel11052413193D

 31 32  0  0  1  0  0  0  0  0999 V2000
  185.5800  178.3870  146.4190 C   0  0  0  0  0  0  0  0  0  0  0  0
  185.0870  179.6590  142.8880 C   0  0  0  0  0  2  0  0  0  0  0  0
  185.6000  178.8380  144.0370 C   0  0  0  0  0  0  0  0  0  0  0  0
  186.6000  177.4470  146.2510 C   0  0  0  0  0  3  0  0  0  0  0  0
  186.8240  178.6070  141.4560 C   0  0  2  0  0  3  0  0  0  0  0  0
  185.0710  178.6230  147.6510 F   0  0  0  0  0  0  0  0  0  0  0  0
  187.2120  177.5740  142.5170 C   0  0  0  0  0  2  0  0  0  0  0  0
  185.3450  178.9970  141.5330 C   0  0  1  0  0  3  0  0  0  0  0  0
  185.0840  179.0830  145.3130 C   0  0  0  0  0  3  0  0  0  0  0  0
  186.6510  177.9080  143.8710 C   0  0  0  0  0  0  0  0  0  0  0  0
  187.1310  177.2080  144.9810 C   0  0  0  0  0  3  0  0  0  0  0  0
  184.5170  177.8780  141.3860 O   0  0  0  0  0  0  0  0  0  0  0  0
  183.7250  178.1570  140.2680 C   0  0  0  0  0  2  0  0  0  0  0  0
  182.2720  177.8240  140.5630 C   0  0  0  0  0  2  0  0  0  0  0  0
  181.3860  179.0670  140.4940 C   0  0  0  0  0  2  0  0  0  0  0  0
  180.0560  180.6000  141.7710 O   0  0  0  0  0  1  0  0  0  0  0  0
  179.3270  178.3280  141.7100 C   0  0  0  0  0  1  0  0  0  0  0  0
  180.5150  179.2800  141.7330 C   0  0  1  0  0  0  0  0  0  0  0  0
  181.3780  179.0000  142.9610 C   0  0  0  0  0  2  0  0  0  0  0  0
  180.6010  178.3010  144.0690 C   0  0  0  0  0  1  0  0  0  0  0  0
  187.2990  178.2460  140.0460 C   0  0  0  0  0  2  0  0  0  0  0  0
  188.7960  178.4540  139.8240 C   0  0  2  0  0  3  0  0  0  0  0  0
  189.0550  178.9210  138.3940 C   0  0  0  0  0  2  0  0  0  0  0  0
  187.8580  178.9850  137.6740 O   0  0  0  0  0  1  0  0  0  0  0  0
  189.5690  177.1760  140.1230 C   0  0  0  0  0  2  0  0  0  0  0  0
  190.7540  177.4620  141.0320 C   0  0  0  0  0  2  0  0  0  0  0  0
  191.6670  178.4590  143.5420 O   0  0  0  0  0  0  0  0  0  0  0  0
  190.5480  176.8170  142.3180 N   0  0  0  0  0  2  0  0  0  0  0  0
  191.0490  177.3620  143.5360 C   0  0  0  0  0  0  0  0  0  0  0  0
  190.5960  177.5000  145.8430 O   0  0  0  0  0  1  0  0  0  0  0  0
  190.8630  176.6090  144.8040 C   0  0  0  0  0  2  0  0  0  0  0  0
  1  6  1  0  0  0  0
  2  3  1  0  0  0  0
  3  9  1  0  0  0  0
  4  1  1  0  0  0  0
  5 21  1  6  0  0  0
  5  8  1  0  0  0  0
  5  7  1  0  0  0  0
  7 10  1  0  0  0  0
  8 12  1  1  0  0  0
  8  2  1  0  0  0  0
  9  1  2  0  0  0  0
 10  3  2  0  0  0  0
 10 11  1  0  0  0  0
 11  4  2  0  0  0  0
 13 14  1  0  0  0  0
 13 12  1  0  0  0  0
 15 14  1  0  0  0  0
 15 18  1  0  0  0  0
 18 17  1  6  0  0  0
 18 16  1  0  0  0  0
 18 19  1  0  0  0  0
 19 20  1  0  0  0  0
 22 23  1  6  0  0  0
 22 21  1  0  0  0  0
 22 25  1  0  0  0  0
 24 23  1  0  0  0  0
 25 26  1  0  0  0  0
 26 28  1  0  0  0  0
 28 29  1  0  0  0  0
 29 27  2  0  0  0  0
 29 31  1  0  0  0  0
 31 30  1  0  0  0  0
M  END
>  <MODEL>
7

>  <REMARK>
 VINA RESULT:      -6.6      2.733      6.590
  Name = 
  13 active torsions:
  status: ('A' for Active; 'I' for Inactive)
    1  A    between atoms: C_3  and  C_9
    2  A    between atoms: O_5  and  C_14
    3  A    between atoms: O_5  and  C_21
    4  A    between atoms: C_6  and  C_7
    5  A    between atoms: C_6  and  N_19
    6  A    between atoms: C_7  and  C_9
    7  A    between atoms: C_9  and  C_23
    8  A    between atoms: C_10  and  C_14
    9  A    between atoms: C_10  and  C_18
   10  A    between atoms: C_11  and  C_24
   11  A    between atoms: C_15  and  C_23
   12  A    between atoms: C_17  and  C_31
   13  A    between atoms: C_18  and  C_31
                            x       y       z     vdW  Elec       q    Type
                         _______ _______ _______ _____ _____    ______ ____

>  <TORSDO>
F 13

$$$$
=
 OpenBabel11052413193D

 31 32  0  0  1  0  0  0  0  0999 V2000
  187.4020  177.6500  147.0600 C   0  0  0  0  0  0  0  0  0  0  0  0
  186.8920  177.0340  143.3600 C   0  0  0  0  0  2  0  0  0  0  0  0
  186.7380  177.6350  144.7290 C   0  0  0  0  0  0  0  0  0  0  0  0
  186.4210  178.6040  147.3360 C   0  0  0  0  0  3  0  0  0  0  0  0
  184.8940  178.3290  142.6470 C   0  0  2  0  0  3  0  0  0  0  0  0
  188.2030  177.1940  148.0530 F   0  0  0  0  0  0  0  0  0  0  0  0
  184.8470  179.1540  143.9360 C   0  0  0  0  0  2  0  0  0  0  0  0
  186.3200  177.9310  142.2600 C   0  0  1  0  0  3  0  0  0  0  0  0
  187.5570  177.1630  145.7590 C   0  0  0  0  0  3  0  0  0  0  0  0
  185.7260  178.5810  145.0130 C   0  0  0  0  0  0  0  0  0  0  0  0
  185.5880  179.0700  146.3150 C   0  0  0  0  0  3  0  0  0  0  0  0
  187.1350  179.0580  142.0940 O   0  0  0  0  0  0  0  0  0  0  0  0
  188.3390  178.5640  141.5810 C   0  0  0  0  0  2  0  0  0  0  0  0
  188.2410  178.4180  140.0720 C   0  0  0  0  0  2  0  0  0  0  0  0
  188.9110  177.1330  139.5870 C   0  0  0  0  0  2  0  0  0  0  0  0
  189.4010  178.5480  137.7140 O   0  0  0  0  0  1  0  0  0  0  0  0
  190.9900  176.8410  138.2240 C   0  0  0  0  0  1  0  0  0  0  0  0
  189.5210  177.2390  138.1880 C   0  0  1  0  0  0  0  0  0  0  0  0
  188.7500  176.2880  137.2740 C   0  0  0  0  0  2  0  0  0  0  0  0
  189.6610  175.5660  136.2880 C   0  0  0  0  0  1  0  0  0  0  0  0
  184.0850  178.9390  141.4990 C   0  0  0  0  0  2  0  0  0  0  0  0
  183.9490  178.0250  140.2820 C   0  0  2  0  0  3  0  0  0  0  0  0
  183.9510  178.8530  139.0010 C   0  0  0  0  0  2  0  0  0  0  0  0
  184.5390  180.1020  139.2230 O   0  0  0  0  0  1  0  0  0  0  0  0
  182.6850  177.1820  140.3790 C   0  0  0  0  0  2  0  0  0  0  0  0
  181.5400  177.8360  139.6200 C   0  0  0  0  0  2  0  0  0  0  0  0
  180.9380  180.6220  139.6020 O   0  0  0  0  0  0  0  0  0  0  0  0
  180.6580  178.5110  140.5580 N   0  0  0  0  0  2  0  0  0  0  0  0
  180.4150  179.9150  140.5030 C   0  0  0  0  0  0  0  0  0  0  0  0
  180.2260  180.5440  142.7650 O   0  0  0  0  0  1  0  0  0  0  0  0
  179.5590  180.5480  141.5400 C   0  0  0  0  0  2  0  0  0  0  0  0
  1  4  1  0  0  0  0
  1  6  1  0  0  0  0
  2  3  1  0  0  0  0
  3 10  2  0  0  0  0
  3  9  1  0  0  0  0
  5 21  1  6  0  0  0
  5  7  1  0  0  0  0
  7 10  1  0  0  0  0
  8 12  1  1  0  0  0
  8  5  1  0  0  0  0
  8  2  1  0  0  0  0
  9  1  2  0  0  0  0
 10 11  1  0  0  0  0
 11  4  2  0  0  0  0
 13 12  1  0  0  0  0
 14 13  1  0  0  0  0
 15 14  1  0  0  0  0
 16 18  1  0  0  0  0
 18 17  1  1  0  0  0
 18 15  1  0  0  0  0
 19 18  1  0  0  0  0
 20 19  1  0  0  0  0
 22 23  1  6  0  0  0
 22 25  1  0  0  0  0
 22 21  1  0  0  0  0
 23 24  1  0  0  0  0
 26 25  1  0  0  0  0
 26 28  1  0  0  0  0
 27 29  2  0  0  0  0
 29 28  1  0  0  0  0
 29 31  1  0  0  0  0
 31 30  1  0  0  0  0
M  END
>  <MODEL>
8

>  <REMARK>
 VINA RESULT:      -6.5      2.786      6.252
  Name = 
  13 active torsions:
  status: ('A' for Active; 'I' for Inactive)
    1  A    between atoms: C_3  and  C_9
    2  A    between atoms: O_5  and  C_14
    3  A    between atoms: O_5  and  C_21
    4  A    between atoms: C_6  and  C_7
    5  A    between atoms: C_6  and  N_19
    6  A    between atoms: C_7  and  C_9
    7  A    between atoms: C_9  and  C_23
    8  A    between atoms: C_10  and  C_14
    9  A    between atoms: C_10  and  C_18
   10  A    between atoms: C_11  and  C_24
   11  A    between atoms: C_15  and  C_23
   12  A    between atoms: C_17  and  C_31
   13  A    between atoms: C_18  and  C_31
                            x       y       z     vdW  Elec       q    Type
                         _______ _______ _______ _____ _____    ______ ____

>  <TORSDO>
F 13

$$$$
=
 OpenBabel11052413193D

 31 32  0  0  1  0  0  0  0  0999 V2000
  187.7010  177.9490  147.1910 C   0  0  0  0  0  0  0  0  0  0  0  0
  186.3760  177.0900  143.7510 C   0  0  0  0  0  2  0  0  0  0  0  0
  186.5120  177.7660  145.0860 C   0  0  0  0  0  0  0  0  0  0  0  0
  186.7600  178.8760  147.6440 C   0  0  0  0  0  3  0  0  0  0  0  0
  184.1970  178.2530  143.4680 C   0  0  2  0  0  3  0  0  0  0  0  0
  188.7360  177.5890  147.9870 F   0  0  0  0  0  0  0  0  0  0  0  0
  184.4070  179.1510  144.6900 C   0  0  0  0  0  2  0  0  0  0  0  0
  185.5140  177.8940  142.7740 C   0  0  1  0  0  3  0  0  0  0  0  0
  187.5750  177.3920  145.9150 C   0  0  0  0  0  3  0  0  0  0  0  0
  185.5440  178.6820  145.5550 C   0  0  0  0  0  0  0  0  0  0  0  0
  185.6870  179.2420  146.8280 C   0  0  0  0  0  3  0  0  0  0  0  0
  186.2020  179.0420  142.3660 O   0  0  0  0  0  0  0  0  0  0  0  0
  186.9880  178.6300  141.2850 C   0  0  0  0  0  2  0  0  0  0  0  0
  188.4600  178.6910  141.6580 C   0  0  0  0  0  2  0  0  0  0  0  0
  189.1950  177.4140  141.2540 C   0  0  0  0  0  2  0  0  0  0  0  0
  190.3640  175.7080  142.4670 O   0  0  0  0  0  1  0  0  0  0  0  0
  191.6910  177.4110  141.4490 C   0  0  0  0  0  1  0  0  0  0  0  0
  190.3840  177.0690  142.1520 C   0  0  1  0  0  0  0  0  0  0  0  0
  190.2540  177.8950  143.4310 C   0  0  0  0  0  2  0  0  0  0  0  0
  191.0530  177.3050  144.5870 C   0  0  0  0  0  1  0  0  0  0  0  0
  183.1100  178.7580  142.5160 C   0  0  0  0  0  2  0  0  0  0  0  0
  181.8670  179.2950  143.2240 C   0  0  2  0  0  3  0  0  0  0  0  0
  181.3270  178.2520  144.1990 C   0  0  0  0  0  2  0  0  0  0  0  0
  179.9740  178.0000  143.9500 O   0  0  0  0  0  1  0  0  0  0  0  0
  180.7990  179.6940  142.2140 C   0  0  0  0  0  2  0  0  0  0  0  0
  181.1490  179.1770  140.8270 C   0  0  0  0  0  2  0  0  0  0  0  0
  182.7200  180.3010  138.7300 O   0  0  0  0  0  0  0  0  0  0  0  0
  180.6670  180.1130  139.8240 N   0  0  0  0  0  2  0  0  0  0  0  0
  181.5130  180.6520  138.8120 C   0  0  0  0  0  0  0  0  0  0  0  0
  179.9980  182.4290  138.5060 O   0  0  0  0  0  1  0  0  0  0  0  0
  180.9680  181.6600  137.8650 C   0  0  0  0  0  2  0  0  0  0  0  0
  1  4  1  0  0  0  0
  1  6  1  0  0  0  0
  2  3  1  0  0  0  0
  3 10  2  0  0  0  0
  3  9  1  0  0  0  0
  5 21  1  6  0  0  0
  5  7  1  0  0  0  0
  7 10  1  0  0  0  0
  8 12  1  1  0  0  0
  8  5  1  0  0  0  0
  8  2  1  0  0  0  0
  9  1  2  0  0  0  0
 10 11  1  0  0  0  0
 11  4  2  0  0  0  0
 13 14  1  0  0  0  0
 13 12  1  0  0  0  0
 15 14  1  0  0  0  0
 15 18  1  0  0  0  0
 18 17  1  6  0  0  0
 18 16  1  0  0  0  0
 18 19  1  0  0  0  0
 19 20  1  0  0  0  0
 21 22  1  0  0  0  0
 22 25  1  6  0  0  0
 22 23  1  0  0  0  0
 24 23  1  0  0  0  0
 26 25  1  0  0  0  0
 27 29  2  0  0  0  0
 28 26  1  0  0  0  0
 29 28  1  0  0  0  0
 31 30  1  0  0  0  0
 31 29  1  0  0  0  0
M  END
>  <MODEL>
9

>  <REMARK>
 VINA RESULT:      -6.4      3.066      5.920
  Name = 
  13 active torsions:
  status: ('A' for Active; 'I' for Inactive)
    1  A    between atoms: C_3  and  C_9
    2  A    between atoms: O_5  and  C_14
    3  A    between atoms: O_5  and  C_21
    4  A    between atoms: C_6  and  C_7
    5  A    between atoms: C_6  and  N_19
    6  A    between atoms: C_7  and  C_9
    7  A    between atoms: C_9  and  C_23
    8  A    between atoms: C_10  and  C_14
    9  A    between atoms: C_10  and  C_18
   10  A    between atoms: C_11  and  C_24
   11  A    between atoms: C_15  and  C_23
   12  A    between atoms: C_17  and  C_31
   13  A    between atoms: C_18  and  C_31
                            x       y       z     vdW  Elec       q    Type
                         _______ _______ _______ _____ _____    ______ ____

>  <TORSDO>
F 13

$$$$
