=
 OpenBabel11052413463D

 27 30  0  0  1  0  0  0  0  0999 V2000
  187.7130  177.8650  143.0630 C   0  0  2  0  0  3  0  0  0  0  0  0
  186.2430  178.1240  142.8770 C   0  0  0  0  0  0  0  0  0  0  0  0
  185.7670  178.6430  145.3230 C   0  0  0  0  0  1  0  0  0  0  0  0
  181.9010  178.4920  141.1070 C   0  0  0  0  0  3  0  0  0  0  0  0
  181.1980  178.8250  142.2580 C   0  0  0  0  0  3  0  0  0  0  0  0
  185.5520  178.0050  141.6830 C   0  0  0  0  0  3  0  0  0  0  0  0
  182.9330  178.8900  144.0940 C   0  0  0  0  0  0  0  0  0  0  0  0
  183.0370  179.1240  145.4260 F   0  0  0  0  0  0  0  0  0  0  0  0
  184.0870  178.5670  143.3730 C   0  0  0  0  0  0  0  0  0  0  0  0
  181.6520  178.9980  143.5620 C   0  0  0  0  0  3  0  0  0  0  0  0
  184.2240  178.2770  141.9470 C   0  0  0  0  0  0  0  0  0  0  0  0
  185.3670  178.4540  143.8960 C   0  0  0  0  0  0  0  0  0  0  0  0
  183.2570  178.2440  140.9600 C   0  0  0  0  0  3  0  0  0  0  0  0
  189.7060  177.8360  139.1900 C   0  0  0  0  0  3  0  0  0  0  0  0
  188.5700  178.0590  141.8020 C   0  0  2  0  0  3  0  0  0  0  0  0
  187.7690  178.5610  140.5960 C   0  0  0  0  0  2  0  0  0  0  0  0
  188.5740  178.5440  139.3220 C   0  0  0  0  0  3  0  0  0  0  0  0
  190.3270  177.0820  140.3370 C   0  0  0  0  0  2  0  0  0  0  0  0
  189.3180  176.7790  141.4410 C   0  0  0  0  0  2  0  0  0  0  0  0
  188.0410  176.6560  143.9590 C   0  0  0  0  0  2  0  0  0  0  0  0
  191.7290  176.7170  146.6600 C   0  0  0  0  0  3  0  0  0  0  0  0
  190.5780  176.3630  147.5410 C   0  0  0  0  0  2  0  0  0  0  0  0
  189.1520  176.8780  144.9360 C   0  0  0  0  0  0  0  0  0  0  0  0
  191.6410  176.7710  145.3320 C   0  0  0  0  0  3  0  0  0  0  0  0
  189.4450  177.3210  147.3820 C   0  0  0  0  0  3  0  0  0  0  0  0
  188.8020  177.5050  146.2290 C   0  0  0  0  0  3  0  0  0  0  0  0
  190.4030  176.5850  144.5500 C   0  0  0  0  0  3  0  0  0  0  0  0
  1 20  1  6  0  0  0
  2  1  1  0  0  0  0
  2 12  1  0  0  0  0
  4  5  2  0  0  0  0
  5 10  1  0  0  0  0
  6 11  1  0  0  0  0
  6  2  2  0  0  0  0
  7  8  1  0  0  0  0
  9 12  2  0  0  0  0
  9  7  1  0  0  0  0
 10  7  2  0  0  0  0
 11  9  1  0  0  0  0
 12  3  1  0  0  0  0
 13  4  1  0  0  0  0
 13 11  2  0  0  0  0
 14 17  2  0  0  0  0
 14 18  1  0  0  0  0
 15  1  1  1  0  0  0
 16 15  1  0  0  0  0
 17 16  1  0  0  0  0
 18 19  1  0  0  0  0
 19 15  1  0  0  0  0
 20 23  1  0  0  0  0
 21 22  1  0  0  0  0
 23 26  1  0  0  0  0
 24 21  2  0  0  0  0
 25 22  1  0  0  0  0
 26 25  2  0  0  0  0
 27 23  2  0  0  0  0
 27 24  1  0  0  0  0
M  END
>  <MODEL>
1

>  <REMARK>
 VINA RESULT:     -10.3      0.000      0.000
  Name = 
  4 active torsions:
  status: ('A' for Active; 'I' for Inactive)
    1  A    between atoms: C_1  and  C_15
    2  A    between atoms: C_1  and  C_18
    3  A    between atoms: C_2  and  C_15
    4  A    between atoms: C_9  and  C_15
                            x       y       z     vdW  Elec       q    Type
                         _______ _______ _______ _____ _____    ______ ____

>  <TORSDO>
F 4

$$$$
=
 OpenBabel11052413463D

 27 30  0  0  1  0  0  0  0  0999 V2000
  188.3990  177.9180  142.3030 C   0  0  2  0  0  3  0  0  0  0  0  0
  188.3770  177.8840  140.7990 C   0  0  0  0  0  0  0  0  0  0  0  0
  186.0000  178.7610  140.5600 C   0  0  0  0  0  1  0  0  0  0  0  0
  189.4420  177.1730  136.2740 C   0  0  0  0  0  3  0  0  0  0  0  0
  188.2570  177.5900  135.6780 C   0  0  0  0  0  3  0  0  0  0  0  0
  189.4070  177.4300  139.9930 C   0  0  0  0  0  3  0  0  0  0  0  0
  186.7670  178.2900  137.5950 C   0  0  0  0  0  0  0  0  0  0  0  0
  185.5250  178.7820  137.8280 F   0  0  0  0  0  0  0  0  0  0  0  0
  187.6090  178.0390  138.6830 C   0  0  0  0  0  0  0  0  0  0  0  0
  187.0910  178.0780  136.2590 C   0  0  0  0  0  3  0  0  0  0  0  0
  188.9730  177.5150  138.6840 C   0  0  0  0  0  0  0  0  0  0  0  0
  187.2930  178.2450  140.0200 C   0  0  0  0  0  0  0  0  0  0  0  0
  189.7690  177.1360  137.6200 C   0  0  0  0  0  3  0  0  0  0  0  0
  191.9710  177.6200  144.7770 C   0  0  0  0  0  3  0  0  0  0  0  0
  189.7950  177.8050  142.9340 C   0  0  2  0  0  3  0  0  0  0  0  0
  190.0070  176.5000  143.7100 C   0  0  0  0  0  2  0  0  0  0  0  0
  191.2930  176.4980  144.4950 C   0  0  0  0  0  3  0  0  0  0  0  0
  191.5630  178.9690  144.2430 C   0  0  0  0  0  2  0  0  0  0  0  0
  190.0930  179.0030  143.8310 C   0  0  0  0  0  2  0  0  0  0  0  0
  187.2550  177.1370  142.9760 C   0  0  0  0  0  2  0  0  0  0  0  0
  185.4340  178.5650  146.9190 C   0  0  0  0  0  3  0  0  0  0  0  0
  184.3050  178.4910  145.9470 C   0  0  0  0  0  2  0  0  0  0  0  0
  186.6340  177.8180  144.1550 C   0  0  0  0  0  0  0  0  0  0  0  0
  186.6500  178.0850  146.6630 C   0  0  0  0  0  3  0  0  0  0  0  0
  184.6210  179.2100  144.6780 C   0  0  0  0  0  3  0  0  0  0  0  0
  185.6320  178.8710  143.8790 C   0  0  0  0  0  3  0  0  0  0  0  0
  187.0860  177.5040  145.3780 C   0  0  0  0  0  3  0  0  0  0  0  0
  1 20  1  1  0  0  0
  2  1  1  0  0  0  0
  4 13  1  0  0  0  0
  5 10  1  0  0  0  0
  5  4  2  0  0  0  0
  6  2  2  0  0  0  0
  7  8  1  0  0  0  0
  7  9  1  0  0  0  0
  9 11  1  0  0  0  0
  9 12  2  0  0  0  0
 10  7  2  0  0  0  0
 11  6  1  0  0  0  0
 12  3  1  0  0  0  0
 12  2  1  0  0  0  0
 13 11  2  0  0  0  0
 15  1  1  1  0  0  0
 15 16  1  0  0  0  0
 15 19  1  0  0  0  0
 16 17  1  0  0  0  0
 17 14  2  0  0  0  0
 18 14  1  0  0  0  0
 19 18  1  0  0  0  0
 20 23  1  0  0  0  0
 22 21  1  0  0  0  0
 23 27  2  0  0  0  0
 24 21  2  0  0  0  0
 25 22  1  0  0  0  0
 26 23  1  0  0  0  0
 26 25  2  0  0  0  0
 27 24  1  0  0  0  0
M  END
>  <MODEL>
2

>  <REMARK>
 VINA RESULT:     -10.1      2.544      5.755
  Name = 
  4 active torsions:
  status: ('A' for Active; 'I' for Inactive)
    1  A    between atoms: C_1  and  C_15
    2  A    between atoms: C_1  and  C_18
    3  A    between atoms: C_2  and  C_15
    4  A    between atoms: C_9  and  C_15
                            x       y       z     vdW  Elec       q    Type
                         _______ _______ _______ _____ _____    ______ ____

>  <TORSDO>
F 4

$$$$
=
 OpenBabel11052413463D

 27 30  0  0  1  0  0  0  0  0999 V2000
  186.5260  178.1290  143.3850 C   0  0  2  0  0  3  0  0  0  0  0  0
  185.1800  178.2450  142.7230 C   0  0  0  0  0  0  0  0  0  0  0  0
  183.9700  179.1540  144.7690 C   0  0  0  0  0  1  0  0  0  0  0  0
  181.5870  177.9840  139.7000 C   0  0  0  0  0  3  0  0  0  0  0  0
  180.5600  178.4650  140.5030 C   0  0  0  0  0  3  0  0  0  0  0  0
  184.8910  177.8680  141.4220 C   0  0  0  0  0  3  0  0  0  0  0  0
  181.6470  178.9770  142.7260 C   0  0  0  0  0  0  0  0  0  0  0  0
  181.3340  179.4510  143.9580 F   0  0  0  0  0  0  0  0  0  0  0  0
  182.9710  178.6150  142.4570 C   0  0  0  0  0  0  0  0  0  0  0  0
  180.5900  178.8980  141.8250 C   0  0  0  0  0  3  0  0  0  0  0  0
  183.5430  178.0870  141.2210 C   0  0  0  0  0  0  0  0  0  0  0  0
  184.0300  178.6880  143.3510 C   0  0  0  0  0  0  0  0  0  0  0  0
  182.9260  177.8110  140.0150 C   0  0  0  0  0  3  0  0  0  0  0  0
  189.5420  177.6400  140.2800 C   0  0  0  0  0  3  0  0  0  0  0  0
  187.7260  178.1570  142.4250 C   0  0  2  0  0  3  0  0  0  0  0  0
  187.3600  178.6200  141.0100 C   0  0  0  0  0  2  0  0  0  0  0  0
  188.4940  178.4400  140.0340 C   0  0  0  0  0  3  0  0  0  0  0  0
  189.7300  176.9360  141.5990 C   0  0  0  0  0  2  0  0  0  0  0  0
  188.4200  176.7990  142.3700 C   0  0  0  0  0  2  0  0  0  0  0  0
  186.5790  177.1250  144.5510 C   0  0  0  0  0  2  0  0  0  0  0  0
  189.4010  177.8070  148.0830 C   0  0  0  0  0  3  0  0  0  0  0  0
  188.0390  177.6460  148.6690 C   0  0  0  0  0  2  0  0  0  0  0  0
  187.3960  177.5650  145.7250 C   0  0  0  0  0  0  0  0  0  0  0  0
  189.6780  177.5670  146.8020 C   0  0  0  0  0  3  0  0  0  0  0  0
  187.0430  178.5360  148.0050 C   0  0  0  0  0  3  0  0  0  0  0  0
  186.7450  178.4580  146.7080 C   0  0  0  0  0  3  0  0  0  0  0  0
  188.6880  177.2050  145.7690 C   0  0  0  0  0  3  0  0  0  0  0  0
  1 20  1  6  0  0  0
  2 12  1  0  0  0  0
  2  1  1  0  0  0  0
  4 13  1  0  0  0  0
  4  5  2  0  0  0  0
  5 10  1  0  0  0  0
  6  2  2  0  0  0  0
  7  8  1  0  0  0  0
  9  7  1  0  0  0  0
  9 12  2  0  0  0  0
 10  7  2  0  0  0  0
 11  6  1  0  0  0  0
 11  9  1  0  0  0  0
 12  3  1  0  0  0  0
 13 11  2  0  0  0  0
 14 18  1  0  0  0  0
 15  1  1  1  0  0  0
 16 15  1  0  0  0  0
 17 14  2  0  0  0  0
 17 16  1  0  0  0  0
 18 19  1  0  0  0  0
 19 15  1  0  0  0  0
 20 23  1  0  0  0  0
 21 22  1  0  0  0  0
 23 27  2  0  0  0  0
 23 26  1  0  0  0  0
 24 21  2  0  0  0  0
 25 22  1  0  0  0  0
 26 25  2  0  0  0  0
 27 24  1  0  0  0  0
M  END
>  <MODEL>
3

>  <REMARK>
 VINA RESULT:     -10.0      1.290      1.811
  Name = 
  4 active torsions:
  status: ('A' for Active; 'I' for Inactive)
    1  A    between atoms: C_1  and  C_15
    2  A    between atoms: C_1  and  C_18
    3  A    between atoms: C_2  and  C_15
    4  A    between atoms: C_9  and  C_15
                            x       y       z     vdW  Elec       q    Type
                         _______ _______ _______ _____ _____    ______ ____

>  <TORSDO>
F 4

$$$$
=
 OpenBabel11052413463D

 27 30  0  0  1  0  0  0  0  0999 V2000
  188.3890  177.8680  142.2850 C   0  0  2  0  0  3  0  0  0  0  0  0
  188.3820  177.8220  140.7810 C   0  0  0  0  0  0  0  0  0  0  0  0
  190.8130  177.1040  140.5400 C   0  0  0  0  0  1  0  0  0  0  0  0
  187.1940  178.2110  136.2470 C   0  0  0  0  0  3  0  0  0  0  0  0
  188.3960  177.8480  135.6510 C   0  0  0  0  0  3  0  0  0  0  0  0
  187.3100  178.1580  139.9730 C   0  0  0  0  0  3  0  0  0  0  0  0
  189.9640  177.3590  137.5710 C   0  0  0  0  0  0  0  0  0  0  0  0
  191.2420  176.9690  137.8030 F   0  0  0  0  0  0  0  0  0  0  0  0
  189.1240  177.6080  138.6610 C   0  0  0  0  0  0  0  0  0  0  0  0
  189.6040  177.4760  136.2320 C   0  0  0  0  0  3  0  0  0  0  0  0
  187.7260  178.0330  138.6630 C   0  0  0  0  0  0  0  0  0  0  0  0
  189.4770  177.4980  140.0000 C   0  0  0  0  0  0  0  0  0  0  0  0
  186.8870  178.2970  137.5960 C   0  0  0  0  0  3  0  0  0  0  0  0
  191.9380  177.6050  144.7960 C   0  0  0  0  0  3  0  0  0  0  0  0
  189.7770  177.7410  142.9320 C   0  0  2  0  0  3  0  0  0  0  0  0
  189.9230  176.4960  143.8140 C   0  0  0  0  0  2  0  0  0  0  0  0
  191.2070  176.4970  144.6040 C   0  0  0  0  0  3  0  0  0  0  0  0
  191.5960  178.9230  144.1490 C   0  0  0  0  0  2  0  0  0  0  0  0
  190.1310  178.9940  143.7280 C   0  0  0  0  0  2  0  0  0  0  0  0
  187.2280  177.1080  142.9520 C   0  0  0  0  0  2  0  0  0  0  0  0
  185.1360  178.7650  146.6640 C   0  0  0  0  0  3  0  0  0  0  0  0
  184.0780  178.6300  145.6210 C   0  0  0  0  0  2  0  0  0  0  0  0
  186.5260  177.8570  144.0410 C   0  0  0  0  0  0  0  0  0  0  0  0
  186.3660  178.2730  146.5240 C   0  0  0  0  0  3  0  0  0  0  0  0
  184.4840  179.2720  144.3360 C   0  0  0  0  0  3  0  0  0  0  0  0
  185.5480  178.8890  143.6330 C   0  0  0  0  0  3  0  0  0  0  0  0
  186.8900  177.6170  145.3100 C   0  0  0  0  0  3  0  0  0  0  0  0
  1 20  1  1  0  0  0
  2  1  1  0  0  0  0
  4 13  1  0  0  0  0
  5 10  1  0  0  0  0
  5  4  2  0  0  0  0
  6  2  2  0  0  0  0
  7  8  1  0  0  0  0
  7  9  1  0  0  0  0
  9 11  1  0  0  0  0
  9 12  2  0  0  0  0
 10  7  2  0  0  0  0
 11  6  1  0  0  0  0
 12  3  1  0  0  0  0
 12  2  1  0  0  0  0
 13 11  2  0  0  0  0
 15  1  1  1  0  0  0
 15 19  1  0  0  0  0
 15 16  1  0  0  0  0
 16 17  1  0  0  0  0
 17 14  2  0  0  0  0
 18 14  1  0  0  0  0
 19 18  1  0  0  0  0
 20 23  1  0  0  0  0
 22 21  1  0  0  0  0
 23 27  2  0  0  0  0
 24 21  2  0  0  0  0
 25 22  1  0  0  0  0
 26 23  1  0  0  0  0
 26 25  2  0  0  0  0
 27 24  1  0  0  0  0
M  END
>  <MODEL>
4

>  <REMARK>
 VINA RESULT:      -9.8      2.999      6.169
  Name = 
  4 active torsions:
  status: ('A' for Active; 'I' for Inactive)
    1  A    between atoms: C_1  and  C_15
    2  A    between atoms: C_1  and  C_18
    3  A    between atoms: C_2  and  C_15
    4  A    between atoms: C_9  and  C_15
                            x       y       z     vdW  Elec       q    Type
                         _______ _______ _______ _____ _____    ______ ____

>  <TORSDO>
F 4

$$$$
=
 OpenBabel11052413463D

 27 30  0  0  1  0  0  0  0  0999 V2000
  187.4820  177.9830  143.8010 C   0  0  2  0  0  3  0  0  0  0  0  0
  186.4170  178.2820  142.7820 C   0  0  0  0  0  0  0  0  0  0  0  0
  184.4860  178.3230  144.4410 C   0  0  0  0  0  1  0  0  0  0  0  0
  184.0640  179.0140  138.7760 C   0  0  0  0  0  3  0  0  0  0  0  0
  182.7700  179.1230  139.2710 C   0  0  0  0  0  3  0  0  0  0  0  0
  186.6220  178.4010  141.4180 C   0  0  0  0  0  3  0  0  0  0  0  0
  182.9950  178.8210  141.7700 C   0  0  0  0  0  0  0  0  0  0  0  0
  182.2330  178.7940  142.8920 F   0  0  0  0  0  0  0  0  0  0  0  0
  184.3760  178.6360  141.8860 C   0  0  0  0  0  0  0  0  0  0  0  0
  182.3070  179.0390  140.5810 C   0  0  0  0  0  3  0  0  0  0  0  0
  185.3900  178.6250  140.8340 C   0  0  0  0  0  0  0  0  0  0  0  0
  185.0700  178.4160  143.0690 C   0  0  0  0  0  0  0  0  0  0  0  0
  185.2430  178.7900  139.4700 C   0  0  0  0  0  3  0  0  0  0  0  0
  191.6730  177.2420  142.8730 C   0  0  0  0  0  3  0  0  0  0  0  0
  188.9030  177.8440  143.2310 C   0  0  2  0  0  3  0  0  0  0  0  0
  189.3270  176.3880  143.0090 C   0  0  0  0  0  2  0  0  0  0  0  0
  190.7860  176.2600  142.6550 C   0  0  0  0  0  3  0  0  0  0  0  0
  191.2680  178.5980  143.3920 C   0  0  0  0  0  2  0  0  0  0  0  0
  189.9230  178.5590  144.1120 C   0  0  0  0  0  2  0  0  0  0  0  0
  187.0590  176.9840  144.8930 C   0  0  0  0  0  2  0  0  0  0  0  0
  188.5450  178.4920  148.9450 C   0  0  0  0  0  3  0  0  0  0  0  0
  189.7620  178.3040  148.1040 C   0  0  0  0  0  2  0  0  0  0  0  0
  187.6310  177.2530  146.2490 C   0  0  0  0  0  0  0  0  0  0  0  0
  187.3050  178.4210  148.4620 C   0  0  0  0  0  3  0  0  0  0  0  0
  189.7940  176.9530  147.4720 C   0  0  0  0  0  3  0  0  0  0  0  0
  188.8610  176.5220  146.6240 C   0  0  0  0  0  3  0  0  0  0  0  0
  186.9500  178.0620  147.0750 C   0  0  0  0  0  3  0  0  0  0  0  0
  1 20  1  6  0  0  0
  2 12  1  0  0  0  0
  2  1  1  0  0  0  0
  4  5  2  0  0  0  0
  4 13  1  0  0  0  0
  5 10  1  0  0  0  0
  6  2  2  0  0  0  0
  7  9  1  0  0  0  0
  7  8  1  0  0  0  0
  9 12  2  0  0  0  0
 10  7  2  0  0  0  0
 11  6  1  0  0  0  0
 11  9  1  0  0  0  0
 12  3  1  0  0  0  0
 13 11  2  0  0  0  0
 14 18  1  0  0  0  0
 15  1  1  1  0  0  0
 15 19  1  0  0  0  0
 16 15  1  0  0  0  0
 17 14  2  0  0  0  0
 17 16  1  0  0  0  0
 18 19  1  0  0  0  0
 20 23  1  0  0  0  0
 22 21  1  0  0  0  0
 23 26  1  0  0  0  0
 23 27  2  0  0  0  0
 24 21  2  0  0  0  0
 25 22  1  0  0  0  0
 26 25  2  0  0  0  0
 27 24  1  0  0  0  0
M  END
>  <MODEL>
5

>  <REMARK>
 VINA RESULT:      -9.8      1.769      2.858
  Name = 
  4 active torsions:
  status: ('A' for Active; 'I' for Inactive)
    1  A    between atoms: C_1  and  C_15
    2  A    between atoms: C_1  and  C_18
    3  A    between atoms: C_2  and  C_15
    4  A    between atoms: C_9  and  C_15
                            x       y       z     vdW  Elec       q    Type
                         _______ _______ _______ _____ _____    ______ ____

>  <TORSDO>
F 4

$$$$
=
 OpenBabel11052413463D

 27 30  0  0  1  0  0  0  0  0999 V2000
  189.6030  177.1240  140.7190 C   0  0  2  0  0  3  0  0  0  0  0  0
  189.7470  177.0190  142.2130 C   0  0  0  0  0  0  0  0  0  0  0  0
  187.3200  177.5770  142.7410 C   0  0  0  0  0  1  0  0  0  0  0  0
  191.4520  176.5870  146.5740 C   0  0  0  0  0  3  0  0  0  0  0  0
  190.2990  176.8360  147.3100 C   0  0  0  0  0  3  0  0  0  0  0  0
  190.9260  176.7510  142.8870 C   0  0  0  0  0  3  0  0  0  0  0  0
  188.4980  177.2600  145.5890 C   0  0  0  0  0  0  0  0  0  0  0  0
  187.1770  177.5580  145.5110 F   0  0  0  0  0  0  0  0  0  0  0  0
  189.2280  177.1090  144.4070 C   0  0  0  0  0  0  0  0  0  0  0  0
  189.0100  177.1290  146.8760 C   0  0  0  0  0  3  0  0  0  0  0  0
  190.6450  176.7920  144.2390 C   0  0  0  0  0  0  0  0  0  0  0  0
  188.7260  177.2410  143.1190 C   0  0  0  0  0  0  0  0  0  0  0  0
  191.6150  176.5670  145.1980 C   0  0  0  0  0  3  0  0  0  0  0  0
  192.5920  175.7320  137.8720 C   0  0  0  0  0  3  0  0  0  0  0  0
  190.7210  176.4470  139.9100 C   0  0  2  0  0  3  0  0  0  0  0  0
  191.9150  177.3680  139.6390 C   0  0  0  0  0  2  0  0  0  0  0  0
  192.9010  176.7640  138.6710 C   0  0  0  0  0  3  0  0  0  0  0  0
  191.2660  175.0190  137.9470 C   0  0  0  0  0  2  0  0  0  0  0  0
  190.1860  175.8790  138.5990 C   0  0  0  0  0  2  0  0  0  0  0  0
  189.1000  178.4910  140.2200 C   0  0  0  0  0  2  0  0  0  0  0  0
  186.5480  177.7570  136.4990 C   0  0  0  0  0  3  0  0  0  0  0  0
  187.9580  177.4990  136.0880 C   0  0  0  0  0  2  0  0  0  0  0  0
  188.3630  178.4550  138.9180 C   0  0  0  0  0  0  0  0  0  0  0  0
  186.1780  177.9450  137.7650 C   0  0  0  0  0  3  0  0  0  0  0  0
  188.8600  178.6240  136.4710 C   0  0  0  0  0  3  0  0  0  0  0  0
  189.0550  179.0060  137.7330 C   0  0  0  0  0  3  0  0  0  0  0  0
  187.0950  178.0170  138.9190 C   0  0  0  0  0  3  0  0  0  0  0  0
  1 20  1  1  0  0  0
  1  2  1  0  0  0  0
  2  6  2  0  0  0  0
  2 12  1  0  0  0  0
  3 12  1  0  0  0  0
  4  5  2  0  0  0  0
  6 11  1  0  0  0  0
  7 10  2  0  0  0  0
  8  7  1  0  0  0  0
  9  7  1  0  0  0  0
 10  5  1  0  0  0  0
 11  9  1  0  0  0  0
 11 13  2  0  0  0  0
 12  9  2  0  0  0  0
 13  4  1  0  0  0  0
 14 18  1  0  0  0  0
 14 17  2  0  0  0  0
 15  1  1  6  0  0  0
 16 15  1  0  0  0  0
 17 16  1  0  0  0  0
 18 19  1  0  0  0  0
 19 15  1  0  0  0  0
 21 24  2  0  0  0  0
 22 25  1  0  0  0  0
 22 21  1  0  0  0  0
 23 27  2  0  0  0  0
 23 20  1  0  0  0  0
 24 27  1  0  0  0  0
 25 26  2  0  0  0  0
 26 23  1  0  0  0  0
M  END
>  <MODEL>
6

>  <REMARK>
 VINA RESULT:      -9.6      2.859      7.081
  Name = 
  4 active torsions:
  status: ('A' for Active; 'I' for Inactive)
    1  A    between atoms: C_1  and  C_15
    2  A    between atoms: C_1  and  C_18
    3  A    between atoms: C_2  and  C_15
    4  A    between atoms: C_9  and  C_15
                            x       y       z     vdW  Elec       q    Type
                         _______ _______ _______ _____ _____    ______ ____

>  <TORSDO>
F 4

$$$$
=
 OpenBabel11052413463D

 27 30  0  0  1  0  0  0  0  0999 V2000
  183.2810  178.6260  141.0550 C   0  0  2  0  0  3  0  0  0  0  0  0
  184.2680  178.3860  142.1640 C   0  0  0  0  0  0  0  0  0  0  0  0
  182.6790  179.0030  144.0540 C   0  0  0  0  0  1  0  0  0  0  0  0
  188.1710  177.5030  144.6350 C   0  0  0  0  0  3  0  0  0  0  0  0
  187.7010  177.7380  145.9220 C   0  0  0  0  0  3  0  0  0  0  0  0
  185.5890  178.0090  141.9930 C   0  0  0  0  0  3  0  0  0  0  0  0
  185.2770  178.3880  145.6280 C   0  0  0  0  0  0  0  0  0  0  0  0
  184.1950  178.7500  146.3630 F   0  0  0  0  0  0  0  0  0  0  0  0
  185.1530  178.3090  144.2380 C   0  0  0  0  0  0  0  0  0  0  0  0
  186.4350  178.1240  146.3520 C   0  0  0  0  0  3  0  0  0  0  0  0
  186.1640  177.9460  143.2480 C   0  0  0  0  0  0  0  0  0  0  0  0
  184.0020  178.5740  143.5080 C   0  0  0  0  0  0  0  0  0  0  0  0
  187.4890  177.5950  143.4320 C   0  0  0  0  0  3  0  0  0  0  0  0
  180.0070  175.9500  140.0100 C   0  0  0  0  0  3  0  0  0  0  0  0
  182.1690  177.5720  140.9370 C   0  0  2  0  0  3  0  0  0  0  0  0
  182.4330  176.5310  139.8430 C   0  0  0  0  0  2  0  0  0  0  0  0
  181.2450  175.6380  139.5980 C   0  0  0  0  0  3  0  0  0  0  0  0
  179.7150  177.1700  140.8460 C   0  0  0  0  0  2  0  0  0  0  0  0
  180.8080  178.2280  140.7200 C   0  0  0  0  0  2  0  0  0  0  0  0
  183.9040  179.1430  139.7450 C   0  0  0  0  0  2  0  0  0  0  0  0
  180.5460  180.9060  137.1920 C   0  0  0  0  0  3  0  0  0  0  0  0
  180.3190  179.4320  137.2100 C   0  0  0  0  0  2  0  0  0  0  0  0
  182.9200  179.6180  138.7230 C   0  0  0  0  0  0  0  0  0  0  0  0
  181.4400  181.5170  137.9690 C   0  0  0  0  0  3  0  0  0  0  0  0
  181.5550  178.6790  136.8470 C   0  0  0  0  0  3  0  0  0  0  0  0
  182.6840  178.7450  137.5520 C   0  0  0  0  0  3  0  0  0  0  0  0
  182.3860  180.8390  138.8770 C   0  0  0  0  0  3  0  0  0  0  0  0
  1 20  1  6  0  0  0
  1  2  1  0  0  0  0
  2 12  1  0  0  0  0
  4  5  2  0  0  0  0
  5 10  1  0  0  0  0
  6  2  2  0  0  0  0
  6 11  1  0  0  0  0
  7 10  2  0  0  0  0
  7  8  1  0  0  0  0
  9  7  1  0  0  0  0
 11 13  2  0  0  0  0
 11  9  1  0  0  0  0
 12  3  1  0  0  0  0
 12  9  2  0  0  0  0
 13  4  1  0  0  0  0
 14 18  1  0  0  0  0
 15  1  1  6  0  0  0
 16 15  1  0  0  0  0
 17 16  1  0  0  0  0
 17 14  2  0  0  0  0
 19 18  1  0  0  0  0
 19 15  1  0  0  0  0
 21 22  1  0  0  0  0
 21 24  2  0  0  0  0
 23 27  2  0  0  0  0
 23 20  1  0  0  0  0
 24 27  1  0  0  0  0
 25 22  1  0  0  0  0
 25 26  2  0  0  0  0
 26 23  1  0  0  0  0
M  END
>  <MODEL>
7

>  <REMARK>
 VINA RESULT:      -9.5      2.402      8.196
  Name = 
  4 active torsions:
  status: ('A' for Active; 'I' for Inactive)
    1  A    between atoms: C_1  and  C_15
    2  A    between atoms: C_1  and  C_18
    3  A    between atoms: C_2  and  C_15
    4  A    between atoms: C_9  and  C_15
                            x       y       z     vdW  Elec       q    Type
                         _______ _______ _______ _____ _____    ______ ____

>  <TORSDO>
F 4

$$$$
=
 OpenBabel11052413463D

 27 30  0  0  1  0  0  0  0  0999 V2000
  188.3060  177.7420  142.1030 C   0  0  2  0  0  3  0  0  0  0  0  0
  186.9000  178.0680  142.5250 C   0  0  0  0  0  0  0  0  0  0  0  0
  187.3360  177.8780  145.0260 C   0  0  0  0  0  1  0  0  0  0  0  0
  182.2900  178.9990  142.5710 C   0  0  0  0  0  3  0  0  0  0  0  0
  182.0570  179.0020  143.9410 C   0  0  0  0  0  3  0  0  0  0  0  0
  185.8400  178.3060  141.6670 C   0  0  0  0  0  3  0  0  0  0  0  0
  184.3030  178.5130  144.9910 C   0  0  0  0  0  0  0  0  0  0  0  0
  184.8750  178.3570  146.2110 F   0  0  0  0  0  0  0  0  0  0  0  0
  185.1020  178.3890  143.8500 C   0  0  0  0  0  0  0  0  0  0  0  0
  182.9400  178.7900  144.9960 C   0  0  0  0  0  3  0  0  0  0  0  0
  184.7180  178.5130  142.4450 C   0  0  0  0  0  0  0  0  0  0  0  0
  186.4620  178.1100  143.8360 C   0  0  0  0  0  0  0  0  0  0  0  0
  183.4790  178.7800  141.8930 C   0  0  0  0  0  3  0  0  0  0  0  0
  191.6800  177.1980  144.8040 C   0  0  0  0  0  3  0  0  0  0  0  0
  189.3070  177.5730  143.2560 C   0  0  2  0  0  3  0  0  0  0  0  0
  190.3270  178.7140  143.3460 C   0  0  0  0  0  2  0  0  0  0  0  0
  191.4230  178.4300  144.3410 C   0  0  0  0  0  3  0  0  0  0  0  0
  190.8260  176.0070  144.4520 C   0  0  0  0  0  2  0  0  0  0  0  0
  190.0270  176.2310  143.1710 C   0  0  0  0  0  2  0  0  0  0  0  0
  188.7910  178.5010  140.8540 C   0  0  0  0  0  2  0  0  0  0  0  0
  190.7200  176.1630  137.4320 C   0  0  0  0  0  3  0  0  0  0  0  0
  189.7800  177.1280  136.7920 C   0  0  0  0  0  2  0  0  0  0  0  0
  189.2050  177.6320  139.7080 C   0  0  0  0  0  0  0  0  0  0  0  0
  191.0320  176.1960  138.7260 C   0  0  0  0  0  3  0  0  0  0  0  0
  188.4190  177.0600  137.4020 C   0  0  0  0  0  3  0  0  0  0  0  0
  188.1810  177.3250  138.6860 C   0  0  0  0  0  3  0  0  0  0  0  0
  190.4400  177.1100  139.7230 C   0  0  0  0  0  3  0  0  0  0  0  0
  1 20  1  6  0  0  0
  1  2  1  0  0  0  0
  2 12  1  0  0  0  0
  4  5  2  0  0  0  0
  5 10  1  0  0  0  0
  6 11  1  0  0  0  0
  6  2  2  0  0  0  0
  7 10  2  0  0  0  0
  7  8  1  0  0  0  0
  9  7  1  0  0  0  0
 11  9  1  0  0  0  0
 12  9  2  0  0  0  0
 12  3  1  0  0  0  0
 13 11  2  0  0  0  0
 13  4  1  0  0  0  0
 15  1  1  6  0  0  0
 15 16  1  0  0  0  0
 16 17  1  0  0  0  0
 17 14  2  0  0  0  0
 18 14  1  0  0  0  0
 19 15  1  0  0  0  0
 19 18  1  0  0  0  0
 21 24  2  0  0  0  0
 22 25  1  0  0  0  0
 22 21  1  0  0  0  0
 23 27  2  0  0  0  0
 23 20  1  0  0  0  0
 24 27  1  0  0  0  0
 25 26  2  0  0  0  0
 26 23  1  0  0  0  0
M  END
>  <MODEL>
8

>  <REMARK>
 VINA RESULT:      -9.5      1.465      4.737
  Name = 
  4 active torsions:
  status: ('A' for Active; 'I' for Inactive)
    1  A    between atoms: C_1  and  C_15
    2  A    between atoms: C_1  and  C_18
    3  A    between atoms: C_2  and  C_15
    4  A    between atoms: C_9  and  C_15
                            x       y       z     vdW  Elec       q    Type
                         _______ _______ _______ _____ _____    ______ ____

>  <TORSDO>
F 4

$$$$
=
 OpenBabel11052413463D

 27 30  0  0  1  0  0  0  0  0999 V2000
  186.8520  177.8910  142.2580 C   0  0  2  0  0  3  0  0  0  0  0  0
  187.2460  177.8590  143.7100 C   0  0  0  0  0  0  0  0  0  0  0  0
  184.9410  178.4550  144.6110 C   0  0  0  0  0  1  0  0  0  0  0  0
  189.6630  177.6340  147.7380 C   0  0  0  0  0  3  0  0  0  0  0  0
  188.6500  177.9250  148.6440 C   0  0  0  0  0  3  0  0  0  0  0  0
  188.5230  177.6190  144.1880 C   0  0  0  0  0  3  0  0  0  0  0  0
  186.5830  178.2730  147.2320 C   0  0  0  0  0  0  0  0  0  0  0  0
  185.2670  178.5730  147.3630 F   0  0  0  0  0  0  0  0  0  0  0  0
  187.1040  178.0600  145.9520 C   0  0  0  0  0  0  0  0  0  0  0  0
  187.3050  178.2030  148.4200 C   0  0  0  0  0  3  0  0  0  0  0  0
  188.4740  177.7290  145.5640 C   0  0  0  0  0  0  0  0  0  0  0  0
  186.3920  178.1310  144.7630 C   0  0  0  0  0  0  0  0  0  0  0  0
  189.5910  177.5460  146.3560 C   0  0  0  0  0  3  0  0  0  0  0  0
  190.4290  177.2680  139.8520 C   0  0  0  0  0  3  0  0  0  0  0  0
  187.9600  177.4830  141.2760 C   0  0  2  0  0  3  0  0  0  0  0  0
  189.1580  176.8120  141.9570 C   0  0  0  0  0  2  0  0  0  0  0  0
  190.3190  176.6120  141.0170 C   0  0  0  0  0  3  0  0  0  0  0  0
  189.3490  178.1820  139.3330 C   0  0  0  0  0  2  0  0  0  0  0  0
  188.4280  178.6750  140.4460 C   0  0  0  0  0  2  0  0  0  0  0  0
  185.9640  179.0860  141.8630 C   0  0  0  0  0  2  0  0  0  0  0  0
  182.3410  177.5300  139.5490 C   0  0  0  0  0  3  0  0  0  0  0  0
  183.5380  177.1520  138.7430 C   0  0  0  0  0  2  0  0  0  0  0  0
  184.8290  178.7530  140.9480 C   0  0  0  0  0  0  0  0  0  0  0  0
  182.4190  178.0230  140.7840 C   0  0  0  0  0  3  0  0  0  0  0  0
  184.4400  178.3180  138.5140 C   0  0  0  0  0  3  0  0  0  0  0  0
  185.0320  178.9880  139.5020 C   0  0  0  0  0  3  0  0  0  0  0  0
  183.6700  178.3530  141.4940 C   0  0  0  0  0  3  0  0  0  0  0  0
  1 20  1  6  0  0  0
  1  2  1  0  0  0  0
  2  6  2  0  0  0  0
  2 12  1  0  0  0  0
  3 12  1  0  0  0  0
  4  5  2  0  0  0  0
  6 11  1  0  0  0  0
  7  8  1  0  0  0  0
  7 10  2  0  0  0  0
  9  7  1  0  0  0  0
 10  5  1  0  0  0  0
 11  9  1  0  0  0  0
 11 13  2  0  0  0  0
 12  9  2  0  0  0  0
 13  4  1  0  0  0  0
 14 17  2  0  0  0  0
 15 16  1  0  0  0  0
 15  1  1  1  0  0  0
 17 16  1  0  0  0  0
 18 14  1  0  0  0  0
 18 19  1  0  0  0  0
 19 15  1  0  0  0  0
 21 24  2  0  0  0  0
 22 21  1  0  0  0  0
 23 27  2  0  0  0  0
 23 20  1  0  0  0  0
 24 27  1  0  0  0  0
 25 22  1  0  0  0  0
 25 26  2  0  0  0  0
 26 23  1  0  0  0  0
M  END
>  <MODEL>
9

>  <REMARK>
 VINA RESULT:      -9.5      1.498      6.406
  Name = 
  4 active torsions:
  status: ('A' for Active; 'I' for Inactive)
    1  A    between atoms: C_1  and  C_15
    2  A    between atoms: C_1  and  C_18
    3  A    between atoms: C_2  and  C_15
    4  A    between atoms: C_9  and  C_15
                            x       y       z     vdW  Elec       q    Type
                         _______ _______ _______ _____ _____    ______ ____

>  <TORSDO>
F 4

$$$$
