=
 OpenBabel11052414403D

 32 36  0  0  1  0  0  0  0  0999 V2000
  187.8510  177.5690  142.2730 C   0  0  1  0  0  3  0  0  0  0  0  0
  185.4980  178.3520  142.7920 C   0  0  1  0  0  3  0  0  0  0  0  0
  189.1920  177.5930  142.6800 O   0  0  0  0  0  0  0  0  0  0  0  0
  186.9640  178.3300  143.2840 C   0  0  1  0  0  3  0  0  0  0  0  0
  184.5940  179.0970  143.7820 C   0  0  1  0  0  3  0  0  0  0  0  0
  185.3840  178.9340  141.3720 C   0  0  1  0  0  3  0  0  0  0  0  0
  184.6710  178.4280  145.1510 C   0  0  1  0  0  3  0  0  0  0  0  0
  187.0380  177.7090  144.7030 C   0  0  1  0  0  3  0  0  0  0  0  0
  184.9560  180.4470  143.8680 O   0  0  0  0  0  1  0  0  0  0  0  0
  188.4460  177.8090  145.2840 C   0  0  0  0  0  2  0  0  0  0  0  0
  189.3360  176.6340  144.8820 C   0  0  0  0  0  2  0  0  0  0  0  0
  186.2760  178.1550  140.4030 C   0  0  0  0  0  2  0  0  0  0  0  0
  186.1040  178.4380  145.6670 C   0  0  0  0  0  2  0  0  0  0  0  0
  187.7260  178.1760  140.8630 C   0  0  2  0  0  3  0  0  0  0  0  0
  183.8390  179.0860  146.0570 O   0  0  0  0  0  1  0  0  0  0  0  0
  189.3700  176.3940  143.3740 C   0  0  0  0  0  2  0  0  0  0  0  0
  189.4670  178.0780  137.4440 C   0  0  0  0  0  0  0  0  0  0  0  0
  189.2760  178.6710  136.2390 F   0  0  0  0  0  0  0  0  0  0  0  0
  188.5960  177.4760  139.8060 C   0  0  2  0  0  3  0  0  0  0  0  0
  190.6750  177.6040  137.7540 C   0  0  0  0  0  3  0  0  0  0  0  0
  190.0890  177.4880  140.1780 C   0  0  0  0  0  2  0  0  0  0  0  0
  188.3560  178.0040  138.4110 C   0  0  0  0  0  0  0  0  0  0  0  0
  187.1950  178.3350  138.0500 O   0  0  0  0  0  0  0  0  0  0  0  0
  190.9440  176.8960  139.0550 C   0  0  1  0  0  3  0  0  0  0  0  0
  191.4910  175.1090  137.8670 C   0  0  0  0  0  1  0  0  0  0  0  0
  190.6730  175.5320  138.9160 O   0  0  0  0  0  0  0  0  0  0  0  0
  182.9010  177.3600  139.5830 N   0  0  0  0  0  0  0  0  0  0  0  0
  184.1910  180.5160  139.0050 O   0  0  0  0  0  0  0  0  0  0  0  0
  183.8100  179.4120  139.4750 C   0  0  0  0  0  0  0  0  0  0  0  0
  183.9190  178.9950  140.8960 C   0  0  1  0  0  3  0  0  0  0  0  0
  183.1920  178.4050  138.7020 N   0  0  0  0  0  2  0  0  0  0  0  0
  183.2790  177.6370  140.7930 C   0  0  0  0  0  3  0  0  0  0  0  0
  1  3  1  1  0  0  0
  1  4  1  0  0  0  0
  2  4  1  0  0  0  0
  2  5  1  0  0  0  0
  3 16  1  0  0  0  0
  4  8  1  0  0  0  0
  5  9  1  0  0  0  0
  5  7  1  0  0  0  0
  6  2  1  0  0  0  0
  7 13  1  0  0  0  0
  7 15  1  0  0  0  0
  8 10  1  0  0  0  0
  8 13  1  0  0  0  0
 11 10  1  0  0  0  0
 12 14  1  0  0  0  0
 12  6  1  0  0  0  0
 14  1  1  0  0  0  0
 16 11  1  0  0  0  0
 17 20  2  0  0  0  0
 17 22  1  0  0  0  0
 18 17  1  0  0  0  0
 19 21  1  0  0  0  0
 19 14  1  0  0  0  0
 20 24  1  0  0  0  0
 22 19  1  0  0  0  0
 23 22  2  0  0  0  0
 24 21  1  0  0  0  0
 25 26  1  0  0  0  0
 26 24  1  0  0  0  0
 27 32  2  0  0  0  0
 28 29  2  0  0  0  0
 29 30  1  0  0  0  0
 30  6  1  0  0  0  0
 31 29  1  0  0  0  0
 31 27  1  0  0  0  0
 32 30  1  0  0  0  0
M  END
>  <MODEL>
1

>  <REMARK>
 VINA RESULT:      -9.5      0.000      0.000
  Name = 
  3 active torsions:
  status: ('A' for Active; 'I' for Inactive)
    1  A    between atoms: C_10  and  C_28
    2  A    between atoms: O_15  and  C_26
    3  A    between atoms: C_16  and  C_27
                            x       y       z     vdW  Elec       q    Type
                         _______ _______ _______ _____ _____    ______ ____

>  <TORSDO>
F 3

$$$$
=
 OpenBabel11052414403D

 32 36  0  0  1  0  0  0  0  0999 V2000
  186.2250  178.3810  143.6970 C   0  0  1  0  0  3  0  0  0  0  0  0
  188.6390  178.0470  143.0020 C   0  0  1  0  0  3  0  0  0  0  0  0
  185.2160  177.9910  144.5870 O   0  0  0  0  0  0  0  0  0  0  0  0
  187.5500  177.6580  144.0300 C   0  0  1  0  0  3  0  0  0  0  0  0
  189.9680  177.3470  143.3140 C   0  0  1  0  0  3  0  0  0  0  0  0
  188.1810  177.7770  141.5590 C   0  0  1  0  0  3  0  0  0  0  0  0
  190.4260  177.7170  144.7210 C   0  0  1  0  0  3  0  0  0  0  0  0
  188.0390  177.9740  145.4660 C   0  0  1  0  0  3  0  0  0  0  0  0
  189.8420  175.9590  143.1820 O   0  0  0  0  0  1  0  0  0  0  0  0
  187.0560  177.4630  146.5160 C   0  0  0  0  0  2  0  0  0  0  0  0
  185.9490  178.4700  146.8280 C   0  0  0  0  0  2  0  0  0  0  0  0
  186.8690  178.5090  141.2700 C   0  0  0  0  0  2  0  0  0  0  0  0
  189.3810  177.3000  145.7470 C   0  0  0  0  0  2  0  0  0  0  0  0
  185.7850  178.0870  142.2510 C   0  0  2  0  0  3  0  0  0  0  0  0
  191.6430  177.1010  145.0090 O   0  0  0  0  0  1  0  0  0  0  0  0
  185.2240  178.9720  145.5810 C   0  0  0  0  0  2  0  0  0  0  0  0
  183.1050  179.0210  139.6660 C   0  0  0  0  0  0  0  0  0  0  0  0
  183.0710  179.1900  138.3210 F   0  0  0  0  0  0  0  0  0  0  0  0
  184.4620  178.7640  141.8560 C   0  0  2  0  0  3  0  0  0  0  0  0
  181.9740  178.7510  140.3200 C   0  0  0  0  0  3  0  0  0  0  0  0
  183.2340  177.9670  142.3270 C   0  0  0  0  0  2  0  0  0  0  0  0
  184.3920  179.0920  140.3820 C   0  0  0  0  0  0  0  0  0  0  0  0
  185.4240  179.4790  139.7710 O   0  0  0  0  0  0  0  0  0  0  0  0
  181.9350  178.5950  141.8160 C   0  0  1  0  0  3  0  0  0  0  0  0
  180.4120  179.8290  142.8470 C   0  0  0  0  0  1  0  0  0  0  0  0
  181.7400  179.8430  142.4160 O   0  0  0  0  0  0  0  0  0  0  0  0
  188.9170  178.3300  138.2430 N   0  0  0  0  0  0  0  0  0  0  0  0
  190.3030  175.9210  140.3000 O   0  0  0  0  0  0  0  0  0  0  0  0
  189.7500  176.9310  139.7900 C   0  0  0  0  0  0  0  0  0  0  0  0
  189.2800  178.1260  140.5360 C   0  0  1  0  0  3  0  0  0  0  0  0
  189.5170  177.0790  138.4060 N   0  0  0  0  0  2  0  0  0  0  0  0
  188.7670  178.9390  139.3780 C   0  0  0  0  0  3  0  0  0  0  0  0
  1  4  1  0  0  0  0
  1  3  1  1  0  0  0
  2  5  1  0  0  0  0
  2  4  1  0  0  0  0
  3 16  1  0  0  0  0
  4  8  1  0  0  0  0
  5  7  1  0  0  0  0
  6  2  1  0  0  0  0
  7 15  1  0  0  0  0
  7 13  1  0  0  0  0
  8 13  1  0  0  0  0
  8 10  1  0  0  0  0
  9  5  1  0  0  0  0
 10 11  1  0  0  0  0
 12  6  1  0  0  0  0
 12 14  1  0  0  0  0
 14  1  1  0  0  0  0
 16 11  1  0  0  0  0
 17 20  2  0  0  0  0
 17 22  1  0  0  0  0
 18 17  1  0  0  0  0
 19 14  1  0  0  0  0
 19 21  1  0  0  0  0
 20 24  1  0  0  0  0
 22 19  1  0  0  0  0
 23 22  2  0  0  0  0
 24 21  1  0  0  0  0
 24 26  1  0  0  0  0
 26 25  1  0  0  0  0
 27 31  1  0  0  0  0
 27 32  2  0  0  0  0
 29 28  2  0  0  0  0
 29 30  1  0  0  0  0
 30  6  1  0  0  0  0
 31 29  1  0  0  0  0
 32 30  1  0  0  0  0
M  END
>  <MODEL>
2

>  <REMARK>
 VINA RESULT:      -9.3      2.521      6.092
  Name = 
  3 active torsions:
  status: ('A' for Active; 'I' for Inactive)
    1  A    between atoms: C_10  and  C_28
    2  A    between atoms: O_15  and  C_26
    3  A    between atoms: C_16  and  C_27
                            x       y       z     vdW  Elec       q    Type
                         _______ _______ _______ _____ _____    ______ ____

>  <TORSDO>
F 3

$$$$
=
 OpenBabel11052414403D

 32 36  0  0  1  0  0  0  0  0999 V2000
  186.6000  178.1870  142.6510 C   0  0  1  0  0  3  0  0  0  0  0  0
  185.8180  178.1950  140.2410 C   0  0  1  0  0  3  0  0  0  0  0  0
  186.4130  178.7360  143.9270 O   0  0  0  0  0  0  0  0  0  0  0  0
  185.5610  178.7580  141.6590 C   0  0  1  0  0  3  0  0  0  0  0  0
  184.7950  178.7420  139.2370 C   0  0  1  0  0  3  0  0  0  0  0  0
  187.2620  178.4560  139.7790 C   0  0  1  0  0  3  0  0  0  0  0  0
  183.3840  178.3800  139.6910 C   0  0  1  0  0  3  0  0  0  0  0  0
  184.1070  178.4480  142.0980 C   0  0  1  0  0  3  0  0  0  0  0  0
  184.9310  180.1280  139.0930 O   0  0  0  0  0  1  0  0  0  0  0  0
  183.7700  179.1190  143.4270 C   0  0  0  0  0  2  0  0  0  0  0  0
  184.1620  178.2690  144.6350 C   0  0  0  0  0  2  0  0  0  0  0  0
  188.2570  177.8760  140.7860 C   0  0  0  0  0  2  0  0  0  0  0  0
  183.1040  178.9660  141.0690 C   0  0  0  0  0  2  0  0  0  0  0  0
  188.0360  178.4690  142.1700 C   0  0  2  0  0  3  0  0  0  0  0  0
  182.4460  178.8570  138.7760 O   0  0  0  0  0  1  0  0  0  0  0  0
  185.6160  177.8050  144.5970 C   0  0  0  0  0  2  0  0  0  0  0  0
  190.4840  175.7480  143.3240 C   0  0  0  0  0  0  0  0  0  0  0  0
  190.5560  174.3980  143.2180 F   0  0  0  0  0  0  0  0  0  0  0  0
  189.1230  177.9410  143.1200 C   0  0  2  0  0  3  0  0  0  0  0  0
  191.6000  176.4460  143.5470 C   0  0  0  0  0  3  0  0  0  0  0  0
  190.4980  178.5730  142.8440 C   0  0  0  0  0  2  0  0  0  0  0  0
  189.1890  176.4310  143.1470 C   0  0  0  0  0  0  0  0  0  0  0  0
  188.1320  175.7490  143.0710 O   0  0  0  0  0  0  0  0  0  0  0  0
  191.5840  177.9410  143.7180 C   0  0  1  0  0  3  0  0  0  0  0  0
  191.6800  177.0990  145.7640 C   0  0  0  0  0  1  0  0  0  0  0  0
  191.3630  178.2620  145.0610 O   0  0  0  0  0  0  0  0  0  0  0  0
  189.0930  176.3140  137.8040 N   0  0  0  0  0  0  0  0  0  0  0  0
  188.8950  179.7530  137.5030 O   0  0  0  0  0  0  0  0  0  0  0  0
  188.7200  178.5280  137.7360 C   0  0  0  0  0  0  0  0  0  0  0  0
  187.5070  177.9320  138.3500 C   0  0  1  0  0  3  0  0  0  0  0  0
  189.6650  177.5280  137.4170 N   0  0  0  0  0  2  0  0  0  0  0  0
  187.9150  176.4830  138.3180 C   0  0  0  0  0  3  0  0  0  0  0  0
  1  3  1  1  0  0  0
  2  4  1  0  0  0  0
  3 16  1  0  0  0  0
  4  8  1  0  0  0  0
  4  1  1  0  0  0  0
  5  7  1  0  0  0  0
  5  2  1  0  0  0  0
  6  2  1  0  0  0  0
  6 12  1  0  0  0  0
  7 13  1  0  0  0  0
  8 10  1  0  0  0  0
  9  5  1  0  0  0  0
 10 11  1  0  0  0  0
 12 14  1  0  0  0  0
 13  8  1  0  0  0  0
 14  1  1  0  0  0  0
 14 19  1  0  0  0  0
 15  7  1  0  0  0  0
 16 11  1  0  0  0  0
 17 20  2  0  0  0  0
 18 17  1  0  0  0  0
 19 22  1  0  0  0  0
 20 24  1  0  0  0  0
 21 19  1  0  0  0  0
 21 24  1  0  0  0  0
 22 17  1  0  0  0  0
 23 22  2  0  0  0  0
 24 26  1  0  0  0  0
 26 25  1  0  0  0  0
 27 32  2  0  0  0  0
 28 29  2  0  0  0  0
 29 30  1  0  0  0  0
 30  6  1  0  0  0  0
 31 29  1  0  0  0  0
 31 27  1  0  0  0  0
 32 30  1  0  0  0  0
M  END
>  <MODEL>
3

>  <REMARK>
 VINA RESULT:      -9.1      2.836      5.109
  Name = 
  3 active torsions:
  status: ('A' for Active; 'I' for Inactive)
    1  A    between atoms: C_10  and  C_28
    2  A    between atoms: O_15  and  C_26
    3  A    between atoms: C_16  and  C_27
                            x       y       z     vdW  Elec       q    Type
                         _______ _______ _______ _____ _____    ______ ____

>  <TORSDO>
F 3

$$$$
=
 OpenBabel11052414403D

 32 36  0  0  1  0  0  0  0  0999 V2000
  189.3040  177.9580  142.0020 C   0  0  1  0  0  3  0  0  0  0  0  0
  190.1700  177.5080  139.6640 C   0  0  1  0  0  3  0  0  0  0  0  0
  189.4180  177.6270  143.3590 O   0  0  0  0  0  0  0  0  0  0  0  0
  190.3480  177.1840  141.1660 C   0  0  1  0  0  3  0  0  0  0  0  0
  191.2000  176.7560  138.8110 C   0  0  1  0  0  3  0  0  0  0  0  0
  188.7330  177.2330  139.1900 C   0  0  1  0  0  3  0  0  0  0  0  0
  192.6100  177.1300  139.2590 C   0  0  1  0  0  3  0  0  0  0  0  0
  191.7990  177.5030  141.6090 C   0  0  1  0  0  3  0  0  0  0  0  0
  191.0020  175.3730  138.8970 O   0  0  0  0  0  1  0  0  0  0  0  0
  192.0560  177.0530  143.0450 C   0  0  0  0  0  2  0  0  0  0  0  0
  191.6630  178.1130  144.0750 C   0  0  0  0  0  2  0  0  0  0  0  0
  187.7310  178.0170  140.0410 C   0  0  0  0  0  2  0  0  0  0  0  0
  192.8110  176.7760  140.7270 C   0  0  0  0  0  2  0  0  0  0  0  0
  187.8740  177.6590  141.5130 C   0  0  2  0  0  3  0  0  0  0  0  0
  193.5560  176.4660  138.4790 O   0  0  0  0  0  1  0  0  0  0  0  0
  190.2350  178.6240  143.8970 C   0  0  0  0  0  2  0  0  0  0  0  0
  184.2750  178.9230  141.9410 C   0  0  0  0  0  0  0  0  0  0  0  0
  183.2590  179.2600  141.1090 F   0  0  0  0  0  0  0  0  0  0  0  0
  186.7810  178.3860  142.3130 C   0  0  2  0  0  3  0  0  0  0  0  0
  184.0010  178.5770  143.2010 C   0  0  0  0  0  3  0  0  0  0  0  0
  186.2540  177.5410  143.4850 C   0  0  0  0  0  2  0  0  0  0  0  0
  185.6610  178.8980  141.4370 C   0  0  0  0  0  0  0  0  0  0  0  0
  185.9130  179.3550  140.2890 O   0  0  0  0  0  0  0  0  0  0  0  0
  185.0850  178.2340  144.1870 C   0  0  1  0  0  3  0  0  0  0  0  0
  185.6800  179.0370  146.1640 C   0  0  0  0  0  1  0  0  0  0  0  0
  185.5310  179.3970  144.8230 O   0  0  0  0  0  0  0  0  0  0  0  0
  187.4600  179.3780  136.8180 N   0  0  0  0  0  0  0  0  0  0  0  0
  186.6830  176.0320  137.2190 O   0  0  0  0  0  0  0  0  0  0  0  0
  187.2020  177.1790  137.2000 C   0  0  0  0  0  0  0  0  0  0  0  0
  188.5640  177.5170  137.6830 C   0  0  1  0  0  3  0  0  0  0  0  0
  186.5550  178.3220  136.6830 N   0  0  0  0  0  2  0  0  0  0  0  0
  188.5720  178.9870  137.3590 C   0  0  0  0  0  3  0  0  0  0  0  0
  1  3  1  1  0  0  0
  2  4  1  0  0  0  0
  3 16  1  0  0  0  0
  4  8  1  0  0  0  0
  4  1  1  0  0  0  0
  5  9  1  0  0  0  0
  5  7  1  0  0  0  0
  5  2  1  0  0  0  0
  6  2  1  0  0  0  0
  6 12  1  0  0  0  0
  7 13  1  0  0  0  0
  8 10  1  0  0  0  0
 10 11  1  0  0  0  0
 12 14  1  0  0  0  0
 13  8  1  0  0  0  0
 14  1  1  0  0  0  0
 14 19  1  0  0  0  0
 15  7  1  0  0  0  0
 16 11  1  0  0  0  0
 17 20  2  0  0  0  0
 18 17  1  0  0  0  0
 19 21  1  0  0  0  0
 20 24  1  0  0  0  0
 21 24  1  0  0  0  0
 22 17  1  0  0  0  0
 22 19  1  0  0  0  0
 23 22  2  0  0  0  0
 24 26  1  0  0  0  0
 26 25  1  0  0  0  0
 27 32  2  0  0  0  0
 29 28  2  0  0  0  0
 29 30  1  0  0  0  0
 30  6  1  0  0  0  0
 31 27  1  0  0  0  0
 31 29  1  0  0  0  0
 32 30  1  0  0  0  0
M  END
>  <MODEL>
4

>  <REMARK>
 VINA RESULT:      -9.1      2.350      6.389
  Name = 
  3 active torsions:
  status: ('A' for Active; 'I' for Inactive)
    1  A    between atoms: C_10  and  C_28
    2  A    between atoms: O_15  and  C_26
    3  A    between atoms: C_16  and  C_27
                            x       y       z     vdW  Elec       q    Type
                         _______ _______ _______ _____ _____    ______ ____

>  <TORSDO>
F 3

$$$$
=
 OpenBabel11052414403D

 32 36  0  0  1  0  0  0  0  0999 V2000
  186.9550  178.3420  141.5590 C   0  0  1  0  0  3  0  0  0  0  0  0
  187.3250  178.5370  144.0590 C   0  0  1  0  0  3  0  0  0  0  0  0
  186.0950  177.8850  140.5520 O   0  0  0  0  0  0  0  0  0  0  0  0
  186.3390  178.0880  142.9540 C   0  0  1  0  0  3  0  0  0  0  0  0
  186.7340  178.3010  145.4540 C   0  0  1  0  0  3  0  0  0  0  0  0
  188.6990  177.8620  143.9020 C   0  0  1  0  0  3  0  0  0  0  0  0
  185.4190  179.0620  145.5920 C   0  0  1  0  0  3  0  0  0  0  0  0
  184.9800  178.8120  143.1290 C   0  0  1  0  0  3  0  0  0  0  0  0
  186.5440  176.9340  145.6890 O   0  0  0  0  0  1  0  0  0  0  0  0
  183.9350  178.2820  142.1520 C   0  0  0  0  0  2  0  0  0  0  0  0
  183.9740  178.9940  140.8000 C   0  0  0  0  0  2  0  0  0  0  0  0
  189.2730  178.1380  142.5110 C   0  0  0  0  0  2  0  0  0  0  0  0
  184.4250  178.5980  144.5360 C   0  0  0  0  0  2  0  0  0  0  0  0
  188.3250  177.6500  141.4260 C   0  0  2  0  0  3  0  0  0  0  0  0
  184.8820  178.8690  146.8640 O   0  0  0  0  0  1  0  0  0  0  0  0
  185.3660  179.0150  140.1720 C   0  0  0  0  0  2  0  0  0  0  0  0
  191.0220  176.8190  138.8250 C   0  0  0  0  0  0  0  0  0  0  0  0
  192.2810  176.3160  138.8590 F   0  0  0  0  0  0  0  0  0  0  0  0
  188.9890  177.8490  140.0540 C   0  0  2  0  0  3  0  0  0  0  0  0
  190.3120  176.7290  137.6990 C   0  0  0  0  0  3  0  0  0  0  0  0
  188.1840  177.2010  138.9150 C   0  0  0  0  0  2  0  0  0  0  0  0
  190.4370  177.4170  140.0400 C   0  0  0  0  0  0  0  0  0  0  0  0
  191.1660  177.6130  141.0490 O   0  0  0  0  0  0  0  0  0  0  0  0
  188.9270  177.3050  137.5810 C   0  0  1  0  0  3  0  0  0  0  0  0
  187.7400  178.9330  136.6610 C   0  0  0  0  0  1  0  0  0  0  0  0
  189.0030  178.6430  137.1810 O   0  0  0  0  0  0  0  0  0  0  0  0
  191.9860  178.0560  144.9020 N   0  0  0  0  0  0  0  0  0  0  0  0
  189.4380  176.3270  146.4760 O   0  0  0  0  0  0  0  0  0  0  0  0
  190.1580  177.1100  145.8020 C   0  0  0  0  0  0  0  0  0  0  0  0
  189.6690  178.2770  145.0260 C   0  0  1  0  0  3  0  0  0  0  0  0
  191.5620  176.9970  145.7100 N   0  0  0  0  0  2  0  0  0  0  0  0
  190.9890  178.7830  144.5050 C   0  0  0  0  0  3  0  0  0  0  0  0
  1  3  1  6  0  0  0
  1  4  1  0  0  0  0
  2  5  1  0  0  0  0
  4  8  1  0  0  0  0
  4  2  1  0  0  0  0
  5  7  1  0  0  0  0
  5  9  1  0  0  0  0
  6  2  1  0  0  0  0
  6 30  1  0  0  0  0
  7 15  1  0  0  0  0
  8 13  1  0  0  0  0
 10  8  1  0  0  0  0
 11 10  1  0  0  0  0
 12  6  1  0  0  0  0
 13  7  1  0  0  0  0
 14  1  1  0  0  0  0
 14 12  1  0  0  0  0
 16  3  1  0  0  0  0
 16 11  1  0  0  0  0
 17 18  1  0  0  0  0
 17 22  1  0  0  0  0
 19 14  1  0  0  0  0
 20 17  2  0  0  0  0
 21 19  1  0  0  0  0
 22 19  1  0  0  0  0
 22 23  2  0  0  0  0
 24 20  1  0  0  0  0
 24 21  1  0  0  0  0
 25 26  1  0  0  0  0
 26 24  1  0  0  0  0
 27 31  1  0  0  0  0
 29 28  2  0  0  0  0
 30 29  1  0  0  0  0
 31 29  1  0  0  0  0
 32 27  2  0  0  0  0
 32 30  1  0  0  0  0
M  END
>  <MODEL>
5

>  <REMARK>
 VINA RESULT:      -9.1      3.192      5.223
  Name = 
  3 active torsions:
  status: ('A' for Active; 'I' for Inactive)
    1  A    between atoms: C_10  and  C_28
    2  A    between atoms: O_15  and  C_26
    3  A    between atoms: C_16  and  C_27
                            x       y       z     vdW  Elec       q    Type
                         _______ _______ _______ _____ _____    ______ ____

>  <TORSDO>
F 3

$$$$
=
 OpenBabel11052414403D

 32 36  0  0  1  0  0  0  0  0999 V2000
  189.6330  176.9080  143.6200 C   0  0  1  0  0  3  0  0  0  0  0  0
  187.7300  177.3220  145.2410 C   0  0  1  0  0  3  0  0  0  0  0  0
  191.0130  177.0270  143.4050 O   0  0  0  0  0  0  0  0  0  0  0  0
  189.2620  177.3980  145.0380 C   0  0  1  0  0  3  0  0  0  0  0  0
  187.3350  177.7980  146.6450 C   0  0  1  0  0  3  0  0  0  0  0  0
  186.9730  178.0950  144.1470 C   0  0  1  0  0  3  0  0  0  0  0  0
  188.0400  176.9440  147.6950 C   0  0  1  0  0  3  0  0  0  0  0  0
  189.9840  176.5840  146.1420 C   0  0  1  0  0  3  0  0  0  0  0  0
  187.6450  179.1530  146.8170 O   0  0  0  0  0  1  0  0  0  0  0  0
  191.4980  176.7600  146.0650 C   0  0  0  0  0  2  0  0  0  0  0  0
  192.1600  175.7710  145.1060 C   0  0  0  0  0  2  0  0  0  0  0  0
  187.3680  177.5800  142.7610 C   0  0  0  0  0  2  0  0  0  0  0  0
  189.5510  177.0450  147.5320 C   0  0  0  0  0  2  0  0  0  0  0  0
  188.8690  177.7020  142.5440 C   0  0  2  0  0  3  0  0  0  0  0  0
  187.6750  177.3560  148.9760 O   0  0  0  0  0  1  0  0  0  0  0  0
  191.5270  175.7660  143.7160 C   0  0  0  0  0  2  0  0  0  0  0  0
  189.1850  178.4340  138.7900 C   0  0  0  0  0  0  0  0  0  0  0  0
  188.6200  179.3080  137.9200 F   0  0  0  0  0  0  0  0  0  0  0  0
  189.2030  177.2760  141.1050 C   0  0  2  0  0  3  0  0  0  0  0  0
  190.3650  177.8870  138.4920 C   0  0  0  0  0  3  0  0  0  0  0  0
  190.7180  177.1810  140.8610 C   0  0  0  0  0  2  0  0  0  0  0  0
  188.5150  178.1350  140.0690 C   0  0  0  0  0  0  0  0  0  0  0  0
  187.3440  178.5550  140.2720 O   0  0  0  0  0  0  0  0  0  0  0  0
  191.0250  176.8770  139.3920 C   0  0  1  0  0  3  0  0  0  0  0  0
  191.1260  175.3310  137.8090 C   0  0  0  0  0  1  0  0  0  0  0  0
  190.5810  175.5920  139.0680 O   0  0  0  0  0  0  0  0  0  0  0  0
  183.8820  178.9040  142.8680 N   0  0  0  0  0  0  0  0  0  0  0  0
  185.2270  179.9690  145.8700 O   0  0  0  0  0  0  0  0  0  0  0  0
  184.9130  179.3680  144.8090 C   0  0  0  0  0  0  0  0  0  0  0  0
  185.4480  178.0550  144.3710 C   0  0  1  0  0  3  0  0  0  0  0  0
  183.9690  179.8610  143.8820 N   0  0  0  0  0  2  0  0  0  0  0  0
  184.6710  177.8990  143.0910 C   0  0  0  0  0  3  0  0  0  0  0  0
  1  3  1  6  0  0  0
  1  4  1  0  0  0  0
  2  5  1  0  0  0  0
  3 16  1  0  0  0  0
  4  2  1  0  0  0  0
  4  8  1  0  0  0  0
  5  9  1  0  0  0  0
  5  7  1  0  0  0  0
  6 30  1  0  0  0  0
  6  2  1  0  0  0  0
  7 15  1  0  0  0  0
  8 13  1  0  0  0  0
 10  8  1  0  0  0  0
 11 10  1  0  0  0  0
 12  6  1  0  0  0  0
 13  7  1  0  0  0  0
 14 12  1  0  0  0  0
 14  1  1  0  0  0  0
 16 11  1  0  0  0  0
 17 22  1  0  0  0  0
 18 17  1  0  0  0  0
 19 14  1  0  0  0  0
 20 17  2  0  0  0  0
 20 24  1  0  0  0  0
 21 19  1  0  0  0  0
 22 23  2  0  0  0  0
 22 19  1  0  0  0  0
 24 21  1  0  0  0  0
 25 26  1  0  0  0  0
 26 24  1  0  0  0  0
 27 32  2  0  0  0  0
 27 31  1  0  0  0  0
 29 28  2  0  0  0  0
 30 29  1  0  0  0  0
 31 29  1  0  0  0  0
 32 30  1  0  0  0  0
M  END
>  <MODEL>
6

>  <REMARK>
 VINA RESULT:      -9.0      2.149      3.311
  Name = 
  3 active torsions:
  status: ('A' for Active; 'I' for Inactive)
    1  A    between atoms: C_10  and  C_28
    2  A    between atoms: O_15  and  C_26
    3  A    between atoms: C_16  and  C_27
                            x       y       z     vdW  Elec       q    Type
                         _______ _______ _______ _____ _____    ______ ____

>  <TORSDO>
F 3

$$$$
=
 OpenBabel11052414403D

 32 36  0  0  1  0  0  0  0  0999 V2000
  187.6930  177.9050  141.3330 C   0  0  1  0  0  3  0  0  0  0  0  0
  188.2130  177.6070  138.8710 C   0  0  1  0  0  3  0  0  0  0  0  0
  186.9680  178.6430  142.2790 O   0  0  0  0  0  0  0  0  0  0  0  0
  187.3600  178.3830  139.9020 C   0  0  1  0  0  3  0  0  0  0  0  0
  187.8970  178.0590  137.4400 C   0  0  1  0  0  3  0  0  0  0  0  0
  189.7160  177.7160  139.1810 C   0  0  1  0  0  3  0  0  0  0  0  0
  186.4140  177.8470  137.1500 C   0  0  1  0  0  3  0  0  0  0  0  0
  185.8540  178.2220  139.5710 C   0  0  1  0  0  3  0  0  0  0  0  0
  188.2530  179.3990  137.2510 O   0  0  0  0  0  1  0  0  0  0  0  0
  184.9880  179.0980  140.4740 C   0  0  0  0  0  2  0  0  0  0  0  0
  184.6240  178.4110  141.7900 C   0  0  0  0  0  2  0  0  0  0  0  0
  190.0040  177.2340  140.6040 C   0  0  0  0  0  2  0  0  0  0  0  0
  185.5630  178.6410  138.1320 C   0  0  0  0  0  2  0  0  0  0  0  0
  189.2010  178.0320  141.6200 C   0  0  2  0  0  3  0  0  0  0  0  0
  186.1180  178.2380  135.8440 O   0  0  0  0  0  1  0  0  0  0  0  0
  185.8370  177.8650  142.5390 C   0  0  0  0  0  2  0  0  0  0  0  0
  191.4520  176.0790  144.0380 C   0  0  0  0  0  0  0  0  0  0  0  0
  192.2390  174.9770  143.9570 F   0  0  0  0  0  0  0  0  0  0  0  0
  189.6020  177.5880  143.0360 C   0  0  2  0  0  3  0  0  0  0  0  0
  191.6790  176.9750  145.0010 C   0  0  0  0  0  3  0  0  0  0  0  0
  190.3200  178.7020  143.8180 C   0  0  0  0  0  2  0  0  0  0  0  0
  190.3890  176.2970  143.0400 C   0  0  0  0  0  0  0  0  0  0  0  0
  190.1040  175.3800  142.2240 O   0  0  0  0  0  0  0  0  0  0  0  0
  190.8170  178.1960  145.1740 C   0  0  1  0  0  3  0  0  0  0  0  0
  190.2650  177.1210  147.0300 C   0  0  0  0  0  1  0  0  0  0  0  0
  189.7290  177.8940  145.9990 O   0  0  0  0  0  0  0  0  0  0  0  0
  190.7450  174.6580  137.9840 N   0  0  0  0  0  0  0  0  0  0  0  0
  192.7590  177.1960  139.1910 O   0  0  0  0  0  0  0  0  0  0  0  0
  191.8480  176.4790  138.7010 C   0  0  0  0  0  0  0  0  0  0  0  0
  190.5710  176.9770  138.1310 C   0  0  1  0  0  3  0  0  0  0  0  0
  191.9280  175.0720  138.6010 N   0  0  0  0  0  2  0  0  0  0  0  0
  189.9720  175.6620  137.7080 C   0  0  0  0  0  3  0  0  0  0  0  0
  1 14  1  0  0  0  0
  1  3  1  1  0  0  0
  2  6  1  0  0  0  0
  2  4  1  0  0  0  0
  3 16  1  0  0  0  0
  4  1  1  0  0  0  0
  5  2  1  0  0  0  0
  6 12  1  0  0  0  0
  7  5  1  0  0  0  0
  7 13  1  0  0  0  0
  8  4  1  0  0  0  0
  8 10  1  0  0  0  0
  9  5  1  0  0  0  0
 10 11  1  0  0  0  0
 11 16  1  0  0  0  0
 12 14  1  0  0  0  0
 13  8  1  0  0  0  0
 14 19  1  0  0  0  0
 15  7  1  0  0  0  0
 17 20  2  0  0  0  0
 18 17  1  0  0  0  0
 19 22  1  0  0  0  0
 19 21  1  0  0  0  0
 20 24  1  0  0  0  0
 21 24  1  0  0  0  0
 22 17  1  0  0  0  0
 23 22  2  0  0  0  0
 24 26  1  0  0  0  0
 26 25  1  0  0  0  0
 27 31  1  0  0  0  0
 29 28  2  0  0  0  0
 30 29  1  0  0  0  0
 30  6  1  0  0  0  0
 31 29  1  0  0  0  0
 32 27  2  0  0  0  0
 32 30  1  0  0  0  0
M  END
>  <MODEL>
7

>  <REMARK>
 VINA RESULT:      -8.7      3.334      6.698
  Name = 
  3 active torsions:
  status: ('A' for Active; 'I' for Inactive)
    1  A    between atoms: C_10  and  C_28
    2  A    between atoms: O_15  and  C_26
    3  A    between atoms: C_16  and  C_27
                            x       y       z     vdW  Elec       q    Type
                         _______ _______ _______ _____ _____    ______ ____

>  <TORSDO>
F 3

$$$$
=
 OpenBabel11052414403D

 32 36  0  0  1  0  0  0  0  0999 V2000
  186.0250  178.6160  143.5500 C   0  0  1  0  0  3  0  0  0  0  0  0
  187.8900  178.1650  145.2050 C   0  0  1  0  0  3  0  0  0  0  0  0
  184.6650  178.4340  143.2650 O   0  0  0  0  0  0  0  0  0  0  0  0
  186.3750  178.0160  144.9310 C   0  0  1  0  0  3  0  0  0  0  0  0
  188.2630  177.5820  146.5740 C   0  0  1  0  0  3  0  0  0  0  0  0
  188.7350  177.5490  144.0770 C   0  0  1  0  0  3  0  0  0  0  0  0
  187.4660  178.2870  147.6670 C   0  0  1  0  0  3  0  0  0  0  0  0
  185.5610  178.6750  146.0730 C   0  0  1  0  0  3  0  0  0  0  0  0
  188.0350  176.2010  146.6060 O   0  0  0  0  0  1  0  0  0  0  0  0
  184.0650  178.4150  145.9160 C   0  0  0  0  0  2  0  0  0  0  0  0
  183.3760  179.4490  145.0250 C   0  0  0  0  0  2  0  0  0  0  0  0
  188.3590  178.1680  142.7290 C   0  0  0  0  0  2  0  0  0  0  0  0
  185.9720  178.1110  147.4320 C   0  0  0  0  0  2  0  0  0  0  0  0
  186.8780  177.9770  142.4380 C   0  0  2  0  0  3  0  0  0  0  0  0
  187.8100  177.7770  148.9190 O   0  0  0  0  0  1  0  0  0  0  0  0
  184.0580  179.6250  143.6700 C   0  0  0  0  0  2  0  0  0  0  0  0
  187.3930  177.9890  138.6350 C   0  0  0  0  0  0  0  0  0  0  0  0
  188.3930  177.6370  137.7890 F   0  0  0  0  0  0  0  0  0  0  0  0
  186.5710  178.5170  141.0320 C   0  0  2  0  0  3  0  0  0  0  0  0
  186.1400  178.0440  138.1790 C   0  0  0  0  0  3  0  0  0  0  0  0
  185.2170  178.0190  140.4980 C   0  0  0  0  0  2  0  0  0  0  0  0
  187.6930  178.2640  140.0520 C   0  0  0  0  0  0  0  0  0  0  0  0
  188.8930  178.3390  140.4310 O   0  0  0  0  0  0  0  0  0  0  0  0
  184.9920  178.4700  139.0530 C   0  0  1  0  0  3  0  0  0  0  0  0
  183.4710  180.0770  138.9600 C   0  0  0  0  0  1  0  0  0  0  0  0
  184.8490  179.8600  139.0020 O   0  0  0  0  0  0  0  0  0  0  0  0
  191.7570  178.8090  143.0180 N   0  0  0  0  0  0  0  0  0  0  0  0
  190.9630  175.4830  143.5290 O   0  0  0  0  0  0  0  0  0  0  0  0
  191.0470  176.7390  143.5250 C   0  0  0  0  0  0  0  0  0  0  0  0
  190.2450  177.6600  144.3690 C   0  0  1  0  0  3  0  0  0  0  0  0
  191.9530  177.4590  142.7160 N   0  0  0  0  0  2  0  0  0  0  0  0
  190.8350  178.9690  143.9150 C   0  0  0  0  0  3  0  0  0  0  0  0
  1  3  1  6  0  0  0
  1  4  1  0  0  0  0
  2  5  1  0  0  0  0
  3 16  1  0  0  0  0
  4  2  1  0  0  0  0
  4  8  1  0  0  0  0
  5  9  1  0  0  0  0
  5  7  1  0  0  0  0
  6 30  1  0  0  0  0
  6  2  1  0  0  0  0
  7 15  1  0  0  0  0
  8 13  1  0  0  0  0
 10  8  1  0  0  0  0
 11 10  1  0  0  0  0
 12  6  1  0  0  0  0
 13  7  1  0  0  0  0
 14 12  1  0  0  0  0
 14  1  1  0  0  0  0
 16 11  1  0  0  0  0
 17 22  1  0  0  0  0
 18 17  1  0  0  0  0
 19 14  1  0  0  0  0
 20 17  2  0  0  0  0
 20 24  1  0  0  0  0
 21 19  1  0  0  0  0
 22 23  2  0  0  0  0
 22 19  1  0  0  0  0
 24 21  1  0  0  0  0
 25 26  1  0  0  0  0
 26 24  1  0  0  0  0
 27 32  2  0  0  0  0
 29 28  2  0  0  0  0
 29 30  1  0  0  0  0
 31 27  1  0  0  0  0
 31 29  1  0  0  0  0
 32 30  1  0  0  0  0
M  END
>  <MODEL>
8

>  <REMARK>
 VINA RESULT:      -8.7      3.141      5.632
  Name = 
  3 active torsions:
  status: ('A' for Active; 'I' for Inactive)
    1  A    between atoms: C_10  and  C_28
    2  A    between atoms: O_15  and  C_26
    3  A    between atoms: C_16  and  C_27
                            x       y       z     vdW  Elec       q    Type
                         _______ _______ _______ _____ _____    ______ ____

>  <TORSDO>
F 3

$$$$
=
 OpenBabel11052414403D

 32 36  0  0  1  0  0  0  0  0999 V2000
  188.2790  178.0690  142.0070 C   0  0  1  0  0  3  0  0  0  0  0  0
  187.5850  178.2690  139.5780 C   0  0  1  0  0  3  0  0  0  0  0  0
  189.1060  177.4010  142.9200 O   0  0  0  0  0  0  0  0  0  0  0  0
  188.5470  177.5710  140.5690 C   0  0  1  0  0  3  0  0  0  0  0  0
  187.8350  177.7960  138.1400 C   0  0  1  0  0  3  0  0  0  0  0  0
  186.1140  178.0830  139.9880 C   0  0  1  0  0  3  0  0  0  0  0  0
  189.2810  178.0840  137.7480 C   0  0  1  0  0  3  0  0  0  0  0  0
  190.0170  177.8080  140.1360 C   0  0  1  0  0  3  0  0  0  0  0  0
  187.5470  176.4330  138.0070 O   0  0  0  0  0  1  0  0  0  0  0  0
  190.9890  177.0090  141.0000 C   0  0  0  0  0  2  0  0  0  0  0  0
  191.3960  177.7520  142.2730 C   0  0  0  0  0  2  0  0  0  0  0  0
  185.8910  178.5870  141.4160 C   0  0  0  0  0  2  0  0  0  0  0  0
  190.2390  177.3670  138.6910 C   0  0  0  0  0  2  0  0  0  0  0  0
  186.8030  177.8640  142.3950 C   0  0  2  0  0  3  0  0  0  0  0  0
  189.5150  177.6750  136.4360 O   0  0  0  0  0  1  0  0  0  0  0  0
  190.2030  178.2490  143.0870 C   0  0  0  0  0  2  0  0  0  0  0  0
  184.2920  178.7820  145.1490 C   0  0  0  0  0  0  0  0  0  0  0  0
  183.0150  179.2380  145.1860 F   0  0  0  0  0  0  0  0  0  0  0  0
  186.4680  178.3250  143.8240 C   0  0  2  0  0  3  0  0  0  0  0  0
  184.7890  178.1440  146.2110 C   0  0  0  0  0  3  0  0  0  0  0  0
  186.6670  177.2060  144.8600 C   0  0  0  0  0  2  0  0  0  0  0  0
  185.0980  178.9540  143.9270 C   0  0  0  0  0  0  0  0  0  0  0  0
  184.6600  179.6730  142.9890 O   0  0  0  0  0  0  0  0  0  0  0  0
  186.2100  177.6510  146.2510 C   0  0  1  0  0  3  0  0  0  0  0  0
  187.6970  178.1030  147.8300 C   0  0  0  0  0  1  0  0  0  0  0  0
  187.0490  178.6630  146.7280 O   0  0  0  0  0  0  0  0  0  0  0  0
  182.9570  179.3520  139.4720 N   0  0  0  0  0  0  0  0  0  0  0  0
  184.4530  176.7510  137.7530 O   0  0  0  0  0  0  0  0  0  0  0  0
  184.1700  177.7750  138.4290 C   0  0  0  0  0  0  0  0  0  0  0  0
  185.1520  178.7420  138.9800 C   0  0  1  0  0  3  0  0  0  0  0  0
  182.8500  178.1650  138.7420 N   0  0  0  0  0  2  0  0  0  0  0  0
  184.1940  179.7070  139.6270 C   0  0  0  0  0  3  0  0  0  0  0  0
  1 14  1  0  0  0  0
  1  3  1  1  0  0  0
  2  6  1  0  0  0  0
  2  4  1  0  0  0  0
  3 16  1  0  0  0  0
  4  1  1  0  0  0  0
  5  2  1  0  0  0  0
  6 12  1  0  0  0  0
  7  5  1  0  0  0  0
  7 13  1  0  0  0  0
  8  4  1  0  0  0  0
  8 10  1  0  0  0  0
  9  5  1  0  0  0  0
 10 11  1  0  0  0  0
 11 16  1  0  0  0  0
 12 14  1  0  0  0  0
 13  8  1  0  0  0  0
 14 19  1  0  0  0  0
 15  7  1  0  0  0  0
 17 18  1  0  0  0  0
 17 20  2  0  0  0  0
 19 22  1  0  0  0  0
 19 21  1  0  0  0  0
 20 24  1  0  0  0  0
 21 24  1  0  0  0  0
 22 17  1  0  0  0  0
 23 22  2  0  0  0  0
 24 26  1  0  0  0  0
 26 25  1  0  0  0  0
 27 32  2  0  0  0  0
 28 29  2  0  0  0  0
 29 31  1  0  0  0  0
 29 30  1  0  0  0  0
 30 32  1  0  0  0  0
 30  6  1  0  0  0  0
 31 27  1  0  0  0  0
M  END
>  <MODEL>
9

>  <REMARK>
 VINA RESULT:      -8.7      2.528      6.214
  Name = 
  3 active torsions:
  status: ('A' for Active; 'I' for Inactive)
    1  A    between atoms: C_10  and  C_28
    2  A    between atoms: O_15  and  C_26
    3  A    between atoms: C_16  and  C_27
                            x       y       z     vdW  Elec       q    Type
                         _______ _______ _______ _____ _____    ______ ____

>  <TORSDO>
F 3

$$$$
