=
 OpenBabel11052414343D

 32 38  0  0  1  0  0  0  0  0999 V2000
  185.2940  178.0490  143.4230 C   0  0  1  0  0  3  0  0  0  0  0  0
  185.1160  179.3040  141.2240 C   0  0  2  0  0  3  0  0  0  0  0  0
  184.6900  179.1450  144.1900 N   0  0  0  0  0  0  0  0  0  0  0  0
  184.7330  178.0370  142.0410 C   0  0  2  0  0  3  0  0  0  0  0  0
  184.8660  179.0350  139.7520 C   0  0  1  0  0  3  0  0  0  0  0  0
  186.3210  179.0490  140.3270 C   0  0  2  0  0  3  0  0  0  0  0  0
  183.2460  177.8660  142.0480 C   0  0  2  0  0  3  0  0  0  0  0  0
  182.7590  177.8950  140.5760 C   0  0  0  0  0  2  0  0  0  0  0  0
  182.6780  178.9320  142.8840 N   0  0  0  0  0  2  0  0  0  0  0  0
  187.5380  178.5820  142.3330 O   0  0  0  0  0  0  0  0  0  0  0  0
  186.8470  177.9310  143.3940 C   0  0  1  0  0  3  0  0  0  0  0  0
  187.1750  178.0060  141.0850 C   0  0  2  0  0  3  0  0  0  0  0  0
  183.9550  177.7900  139.5730 C   0  0  1  0  0  3  0  0  0  0  0  0
  183.4540  179.5200  143.9600 C   0  0  0  0  0  3  0  0  0  0  0  0
  189.4350  177.8600  146.2610 C   0  0  2  0  0  3  0  0  0  0  0  0
  188.0990  177.8050  149.2160 N   0  0  0  0  0  2  0  0  0  0  0  0
  190.3240  176.9710  147.0910 C   0  0  0  0  0  2  0  0  0  0  0  0
  186.7430  178.3130  147.2620 C   0  0  0  0  0  2  0  0  0  0  0  0
  187.5000  178.1680  144.7600 C   0  0  1  0  0  3  0  0  0  0  0  0
  188.8210  176.7890  147.1490 C   0  0  1  0  0  3  0  0  0  0  0  0
  186.4770  177.7500  145.8450 C   0  0  0  0  0  2  0  0  0  0  0  0
  188.8890  177.4750  144.9090 C   0  0  1  0  0  3  0  0  0  0  0  0
  189.8670  177.9420  143.8460 C   0  0  0  0  0  1  0  0  0  0  0  0
  187.9050  177.6390  147.9600 C   0  0  0  0  0  0  0  0  0  0  0  0
  188.4250  177.9190  138.9260 C   0  0  0  0  0  3  0  0  0  0  0  0
  190.6700  177.0230  138.7940 C   0  0  0  0  0  3  0  0  0  0  0  0
  189.5110  177.0710  140.9180 C   0  0  0  0  0  3  0  0  0  0  0  0
  190.6470  176.7560  140.1660 C   0  0  0  0  0  3  0  0  0  0  0  0
  189.5610  177.6050  138.1740 C   0  0  0  0  0  3  0  0  0  0  0  0
  188.3940  177.6510  140.2990 C   0  0  0  0  0  0  0  0  0  0  0  0
  183.4700  177.7500  138.2660 O   0  0  0  0  0  0  0  0  0  0  0  0
  184.5570  177.3330  137.4970 C   0  0  0  0  0  1  0  0  0  0  0  0
  1  3  1  6  0  0  0
  2  4  1  0  0  0  0
  4  7  1  0  0  0  0
  4  1  1  0  0  0  0
  5  6  1  0  0  0  0
  5  2  1  0  0  0  0
  6 12  1  0  0  0  0
  6  2  1  0  0  0  0
  7  9  1  0  0  0  0
  8  7  1  0  0  0  0
  9 14  1  0  0  0  0
 10 11  1  0  0  0  0
 11  1  1  0  0  0  0
 11 19  1  0  0  0  0
 12 10  1  0  0  0  0
 13  5  1  0  0  0  0
 13  8  1  0  0  0  0
 14  3  2  0  0  0  0
 15 17  1  0  0  0  0
 15 20  1  0  0  0  0
 17 20  1  0  0  0  0
 18 24  1  0  0  0  0
 19 22  1  0  0  0  0
 19 21  1  0  0  0  0
 20 24  1  0  0  0  0
 21 18  1  0  0  0  0
 22 15  1  0  0  0  0
 23 22  1  0  0  0  0
 24 16  2  0  0  0  0
 25 30  1  0  0  0  0
 26 28  2  0  0  0  0
 28 27  1  0  0  0  0
 29 26  1  0  0  0  0
 29 25  2  0  0  0  0
 30 27  2  0  0  0  0
 30 12  1  0  0  0  0
 31 13  1  0  0  0  0
 32 31  1  0  0  0  0
M  END
>  <MODEL>
1

>  <REMARK>
 VINA RESULT:      -9.2      0.000      0.000
  Name = 
  3 active torsions:
  status: ('A' for Active; 'I' for Inactive)
    1  A    between atoms: O_13  and  C_29
    2  A    between atoms: C_16  and  C_27
    3  A    between atoms: C_28  and  C_32
                            x       y       z     vdW  Elec       q    Type
                         _______ _______ _______ _____ _____    ______ ____

>  <TORSDO>
F 3

$$$$
=
 OpenBabel11052414343D

 32 38  0  0  1  0  0  0  0  0999 V2000
  185.6860  178.7230  141.5220 C   0  0  1  0  0  3  0  0  0  0  0  0
  185.6020  177.5160  143.7530 C   0  0  2  0  0  3  0  0  0  0  0  0
  184.5820  177.9340  140.9620 N   0  0  0  0  0  0  0  0  0  0  0  0
  185.5000  178.8700  142.9940 C   0  0  2  0  0  3  0  0  0  0  0  0
  185.8090  177.7930  145.2310 C   0  0  1  0  0  3  0  0  0  0  0  0
  186.9950  177.3040  144.3350 C   0  0  2  0  0  3  0  0  0  0  0  0
  184.2030  179.5420  143.3250 C   0  0  2  0  0  3  0  0  0  0  0  0
  184.0910  179.6200  144.8700 C   0  0  0  0  0  2  0  0  0  0  0  0
  183.1270  178.7710  142.6900 N   0  0  0  0  0  2  0  0  0  0  0  0
  187.7970  177.4070  142.0840 O   0  0  0  0  0  0  0  0  0  0  0  0
  187.1470  178.2990  141.1850 C   0  0  1  0  0  3  0  0  0  0  0  0
  187.9550  178.0200  143.3560 C   0  0  2  0  0  3  0  0  0  0  0  0
  185.4490  179.2670  145.5630 C   0  0  1  0  0  3  0  0  0  0  0  0
  183.3820  177.9970  141.4880 C   0  0  0  0  0  3  0  0  0  0  0  0
  188.8230  177.7590  137.7470 C   0  0  2  0  0  3  0  0  0  0  0  0
  186.7870  178.0870  135.2430 N   0  0  0  0  0  2  0  0  0  0  0  0
  189.6260  178.4180  136.6560 C   0  0  0  0  0  2  0  0  0  0  0  0
  185.9290  177.9150  137.5120 C   0  0  0  0  0  2  0  0  0  0  0  0
  187.3420  177.9090  139.7160 C   0  0  1  0  0  3  0  0  0  0  0  0
  188.2380  178.9330  136.9770 C   0  0  1  0  0  3  0  0  0  0  0  0
  186.1800  178.5370  138.9080 C   0  0  0  0  0  2  0  0  0  0  0  0
  188.7550  178.2700  139.1650 C   0  0  1  0  0  3  0  0  0  0  0  0
  189.8590  177.6050  139.9670 C   0  0  0  0  0  1  0  0  0  0  0  0
  186.9780  178.3040  136.4920 C   0  0  0  0  0  0  0  0  0  0  0  0
  189.7350  176.8200  144.6280 C   0  0  0  0  0  3  0  0  0  0  0  0
  192.0150  177.6330  144.6970 C   0  0  0  0  0  3  0  0  0  0  0  0
  190.3340  178.8500  143.4510 C   0  0  0  0  0  3  0  0  0  0  0  0
  191.6550  178.7160  143.8890 C   0  0  0  0  0  3  0  0  0  0  0  0
  191.0560  176.6850  145.0660 C   0  0  0  0  0  3  0  0  0  0  0  0
  189.3680  177.9030  143.8230 C   0  0  0  0  0  0  0  0  0  0  0  0
  185.3240  179.4170  146.9440 O   0  0  0  0  0  0  0  0  0  0  0  0
  186.3780  178.6740  147.4780 C   0  0  0  0  0  1  0  0  0  0  0  0
  1  3  1  1  0  0  0
  1  4  1  0  0  0  0
  2  6  1  0  0  0  0
  2  5  1  0  0  0  0
  3 14  2  0  0  0  0
  4  7  1  0  0  0  0
  4  2  1  0  0  0  0
  5 13  1  0  0  0  0
  6  5  1  0  0  0  0
  7  8  1  0  0  0  0
  8 13  1  0  0  0  0
  9  7  1  0  0  0  0
 10 12  1  0  0  0  0
 11  1  1  0  0  0  0
 11 10  1  0  0  0  0
 12 30  1  0  0  0  0
 12  6  1  0  0  0  0
 13 31  1  0  0  0  0
 14  9  1  0  0  0  0
 15 22  1  0  0  0  0
 16 24  2  0  0  0  0
 17 20  1  0  0  0  0
 17 15  1  0  0  0  0
 18 21  1  0  0  0  0
 19 11  1  0  0  0  0
 20 15  1  0  0  0  0
 21 19  1  0  0  0  0
 22 19  1  0  0  0  0
 22 23  1  0  0  0  0
 24 20  1  0  0  0  0
 24 18  1  0  0  0  0
 25 29  1  0  0  0  0
 26 29  2  0  0  0  0
 27 30  1  0  0  0  0
 27 28  2  0  0  0  0
 28 26  1  0  0  0  0
 30 25  2  0  0  0  0
 31 32  1  0  0  0  0
M  END
>  <MODEL>
2

>  <REMARK>
 VINA RESULT:      -9.0      2.272      6.527
  Name = 
  3 active torsions:
  status: ('A' for Active; 'I' for Inactive)
    1  A    between atoms: O_13  and  C_29
    2  A    between atoms: C_16  and  C_27
    3  A    between atoms: C_28  and  C_32
                            x       y       z     vdW  Elec       q    Type
                         _______ _______ _______ _____ _____    ______ ____

>  <TORSDO>
F 3

$$$$
=
 OpenBabel11052414343D

 32 38  0  0  1  0  0  0  0  0999 V2000
  183.5960  177.8780  141.5350 C   0  0  1  0  0  3  0  0  0  0  0  0
  183.1420  179.0530  139.3320 C   0  0  2  0  0  3  0  0  0  0  0  0
  182.7270  178.7880  142.2920 N   0  0  0  0  0  0  0  0  0  0  0  0
  183.0760  177.7290  140.1450 C   0  0  2  0  0  3  0  0  0  0  0  0
  182.9890  178.7330  137.8560 C   0  0  1  0  0  3  0  0  0  0  0  0
  184.3870  179.1080  138.4520 C   0  0  2  0  0  3  0  0  0  0  0  0
  181.6780  177.1930  140.1310 C   0  0  2  0  0  3  0  0  0  0  0  0
  181.2210  177.1030  138.6520 C   0  0  0  0  0  2  0  0  0  0  0  0
  180.8510  178.0820  140.9560 N   0  0  0  0  0  2  0  0  0  0  0  0
  185.6510  178.9560  140.4770 O   0  0  0  0  0  0  0  0  0  0  0  0
  185.1300  178.1510  141.5300 C   0  0  1  0  0  3  0  0  0  0  0  0
  185.4620  178.3100  139.2260 C   0  0  2  0  0  3  0  0  0  0  0  0
  182.4210  177.3000  137.6660 C   0  0  1  0  0  3  0  0  0  0  0  0
  181.4400  178.8440  142.0420 C   0  0  0  0  0  3  0  0  0  0  0  0
  187.3280  178.1660  144.7060 C   0  0  2  0  0  3  0  0  0  0  0  0
  185.7330  179.0630  147.3850 N   0  0  0  0  0  2  0  0  0  0  0  0
  187.8880  177.3150  145.8160 C   0  0  0  0  0  2  0  0  0  0  0  0
  184.7410  179.4020  145.1900 C   0  0  0  0  0  2  0  0  0  0  0  0
  185.6820  178.5410  142.9050 C   0  0  1  0  0  3  0  0  0  0  0  0
  186.3880  177.4800  145.6850 C   0  0  1  0  0  3  0  0  0  0  0  0
  184.4860  178.6070  143.8860 C   0  0  0  0  0  2  0  0  0  0  0  0
  186.8400  177.6160  143.3890 C   0  0  1  0  0  3  0  0  0  0  0  0
  188.0020  177.6100  142.4120 C   0  0  0  0  0  1  0  0  0  0  0  0
  185.6300  178.6660  146.1700 C   0  0  0  0  0  0  0  0  0  0  0  0
  186.7020  178.2700  137.0600 C   0  0  0  0  0  3  0  0  0  0  0  0
  189.1220  178.2230  136.9820 C   0  0  0  0  0  3  0  0  0  0  0  0
  187.9810  178.2520  139.1170 C   0  0  0  0  0  3  0  0  0  0  0  0
  189.1680  178.2270  138.3800 C   0  0  0  0  0  3  0  0  0  0  0  0
  187.8900  178.2450  136.3230 C   0  0  0  0  0  3  0  0  0  0  0  0
  186.7420  178.2700  138.4580 C   0  0  0  0  0  0  0  0  0  0  0  0
  181.9800  177.1430  136.3520 O   0  0  0  0  0  0  0  0  0  0  0  0
  181.3170  178.3360  136.0560 C   0  0  0  0  0  1  0  0  0  0  0  0
  1  3  1  6  0  0  0
  2  4  1  0  0  0  0
  4  1  1  0  0  0  0
  5  6  1  0  0  0  0
  5  2  1  0  0  0  0
  6 12  1  0  0  0  0
  6  2  1  0  0  0  0
  7  4  1  0  0  0  0
  7  9  1  0  0  0  0
  8  7  1  0  0  0  0
  9 14  1  0  0  0  0
 10 11  1  0  0  0  0
 11  1  1  0  0  0  0
 11 19  1  0  0  0  0
 12 10  1  0  0  0  0
 13  5  1  0  0  0  0
 13  8  1  0  0  0  0
 14  3  2  0  0  0  0
 15 20  1  0  0  0  0
 15 17  1  0  0  0  0
 18 24  1  0  0  0  0
 19 22  1  0  0  0  0
 19 21  1  0  0  0  0
 20 17  1  0  0  0  0
 20 24  1  0  0  0  0
 21 18  1  0  0  0  0
 22 15  1  0  0  0  0
 23 22  1  0  0  0  0
 24 16  2  0  0  0  0
 25 30  1  0  0  0  0
 26 28  2  0  0  0  0
 28 27  1  0  0  0  0
 29 26  1  0  0  0  0
 29 25  2  0  0  0  0
 30 27  2  0  0  0  0
 30 12  1  0  0  0  0
 31 13  1  0  0  0  0
 32 31  1  0  0  0  0
M  END
>  <MODEL>
3

>  <REMARK>
 VINA RESULT:      -8.7      1.800      2.736
  Name = 
  3 active torsions:
  status: ('A' for Active; 'I' for Inactive)
    1  A    between atoms: O_13  and  C_29
    2  A    between atoms: C_16  and  C_27
    3  A    between atoms: C_28  and  C_32
                            x       y       z     vdW  Elec       q    Type
                         _______ _______ _______ _____ _____    ______ ____

>  <TORSDO>
F 3

$$$$
=
 OpenBabel11052414343D

 32 38  0  0  1  0  0  0  0  0999 V2000
  186.3100  178.5810  141.7810 C   0  0  1  0  0  3  0  0  0  0  0  0
  185.7330  177.4420  143.9740 C   0  0  2  0  0  3  0  0  0  0  0  0
  185.1540  178.0040  141.0840 N   0  0  0  0  0  0  0  0  0  0  0  0
  185.9790  178.7810  143.2210 C   0  0  2  0  0  3  0  0  0  0  0  0
  185.8080  177.6960  145.4680 C   0  0  1  0  0  3  0  0  0  0  0  0
  186.9820  176.9820  144.7190 C   0  0  2  0  0  3  0  0  0  0  0  0
  184.8000  179.6870  143.3980 C   0  0  2  0  0  3  0  0  0  0  0  0
  184.5190  179.8070  144.9190 C   0  0  0  0  0  2  0  0  0  0  0  0
  183.6830  179.1220  142.6300 N   0  0  0  0  0  2  0  0  0  0  0  0
  188.0550  176.9020  142.5820 O   0  0  0  0  0  0  0  0  0  0  0  0
  187.6960  177.8870  141.6190 C   0  0  1  0  0  3  0  0  0  0  0  0
  188.1690  177.4930  143.8700 C   0  0  2  0  0  3  0  0  0  0  0  0
  185.6930  179.2160  145.7680 C   0  0  1  0  0  3  0  0  0  0  0  0
  183.9320  178.2970  141.4620 C   0  0  0  0  0  3  0  0  0  0  0  0
  189.6470  176.9140  138.4310 C   0  0  2  0  0  3  0  0  0  0  0  0
  188.1260  177.7170  135.6810 N   0  0  0  0  0  2  0  0  0  0  0  0
  190.7320  177.3420  137.4770 C   0  0  0  0  0  2  0  0  0  0  0  0
  186.9440  177.7850  137.8060 C   0  0  0  0  0  2  0  0  0  0  0  0
  187.9910  177.4470  140.1810 C   0  0  1  0  0  3  0  0  0  0  0  0
  189.4850  178.1890  137.6180 C   0  0  1  0  0  3  0  0  0  0  0  0
  187.1450  178.3370  139.2380 C   0  0  0  0  0  2  0  0  0  0  0  0
  189.5110  177.4390  139.8380 C   0  0  1  0  0  3  0  0  0  0  0  0
  190.2930  176.5270  140.7680 C   0  0  0  0  0  1  0  0  0  0  0  0
  188.1880  177.8910  136.9500 C   0  0  0  0  0  0  0  0  0  0  0  0
  189.6410  177.3150  145.8780 C   0  0  0  0  0  3  0  0  0  0  0  0
  191.8820  176.4110  145.7340 C   0  0  0  0  0  3  0  0  0  0  0  0
  190.5100  176.5630  143.7460 C   0  0  0  0  0  3  0  0  0  0  0  0
  191.7150  176.2100  144.3600 C   0  0  0  0  0  3  0  0  0  0  0  0
  190.8460  176.9620  146.4920 C   0  0  0  0  0  3  0  0  0  0  0  0
  189.4690  177.1210  144.5030 C   0  0  0  0  0  0  0  0  0  0  0  0
  185.4330  179.4060  147.1250 O   0  0  0  0  0  0  0  0  0  0  0  0
  186.4880  178.7710  147.7810 C   0  0  0  0  0  1  0  0  0  0  0  0
  1  3  1  1  0  0  0
  1  4  1  0  0  0  0
  2  6  1  0  0  0  0
  2  5  1  0  0  0  0
  3 14  2  0  0  0  0
  4  7  1  0  0  0  0
  4  2  1  0  0  0  0
  5 13  1  0  0  0  0
  6  5  1  0  0  0  0
  7  8  1  0  0  0  0
  8 13  1  0  0  0  0
  9  7  1  0  0  0  0
 10 12  1  0  0  0  0
 11  1  1  0  0  0  0
 11 10  1  0  0  0  0
 12 30  1  0  0  0  0
 12  6  1  0  0  0  0
 13 31  1  0  0  0  0
 14  9  1  0  0  0  0
 15 22  1  0  0  0  0
 16 24  2  0  0  0  0
 17 20  1  0  0  0  0
 17 15  1  0  0  0  0
 18 21  1  0  0  0  0
 19 11  1  0  0  0  0
 20 15  1  0  0  0  0
 21 19  1  0  0  0  0
 22 19  1  0  0  0  0
 22 23  1  0  0  0  0
 24 20  1  0  0  0  0
 24 18  1  0  0  0  0
 25 29  1  0  0  0  0
 26 29  2  0  0  0  0
 27 28  2  0  0  0  0
 27 30  1  0  0  0  0
 28 26  1  0  0  0  0
 30 25  2  0  0  0  0
 31 32  1  0  0  0  0
M  END
>  <MODEL>
4

>  <REMARK>
 VINA RESULT:      -8.6      2.314      6.503
  Name = 
  3 active torsions:
  status: ('A' for Active; 'I' for Inactive)
    1  A    between atoms: O_13  and  C_29
    2  A    between atoms: C_16  and  C_27
    3  A    between atoms: C_28  and  C_32
                            x       y       z     vdW  Elec       q    Type
                         _______ _______ _______ _____ _____    ______ ____

>  <TORSDO>
F 3

$$$$
=
 OpenBabel11052414343D

 32 38  0  0  1  0  0  0  0  0999 V2000
  183.8990  178.0600  141.9910 C   0  0  1  0  0  3  0  0  0  0  0  0
  183.3870  179.3610  139.8720 C   0  0  2  0  0  3  0  0  0  0  0  0
  183.1860  179.0170  142.8460 N   0  0  0  0  0  0  0  0  0  0  0  0
  183.2580  178.0170  140.6450 C   0  0  2  0  0  3  0  0  0  0  0  0
  183.0850  179.1170  138.4050 C   0  0  1  0  0  3  0  0  0  0  0  0
  184.5560  179.3340  138.8940 C   0  0  2  0  0  3  0  0  0  0  0  0
  181.8170  177.6160  140.7300 C   0  0  2  0  0  3  0  0  0  0  0  0
  181.2360  177.6300  139.2920 C   0  0  0  0  0  2  0  0  0  0  0  0
  181.1490  178.5450  141.6500 N   0  0  0  0  0  2  0  0  0  0  0  0
  185.9580  178.9820  140.8000 O   0  0  0  0  0  0  0  0  0  0  0  0
  185.4470  178.1880  141.8660 C   0  0  1  0  0  3  0  0  0  0  0  0
  185.6070  178.4080  139.5480 C   0  0  2  0  0  3  0  0  0  0  0  0
  182.3670  177.7530  138.2170 C   0  0  1  0  0  3  0  0  0  0  0  0
  181.8940  179.2040  142.7080 C   0  0  0  0  0  3  0  0  0  0  0  0
  188.0280  178.0350  144.7350 C   0  0  2  0  0  3  0  0  0  0  0  0
  186.7320  178.4930  147.6740 N   0  0  0  0  0  2  0  0  0  0  0  0
  188.7830  177.1160  145.6590 C   0  0  0  0  0  2  0  0  0  0  0  0
  185.4450  178.9890  145.6700 C   0  0  0  0  0  2  0  0  0  0  0  0
  186.1430  178.4680  143.2020 C   0  0  1  0  0  3  0  0  0  0  0  0
  187.2710  177.1680  145.7300 C   0  0  1  0  0  3  0  0  0  0  0  0
  185.0810  178.3250  144.3200 C   0  0  0  0  0  2  0  0  0  0  0  0
  187.4140  177.5950  143.4300 C   0  0  1  0  0  3  0  0  0  0  0  0
  188.4390  177.7940  142.3270 C   0  0  0  0  0  1  0  0  0  0  0  0
  186.5020  178.2260  146.4410 C   0  0  0  0  0  0  0  0  0  0  0  0
  188.0820  178.2520  139.2620 C   0  0  0  0  0  3  0  0  0  0  0  0
  189.0950  178.0110  137.0750 C   0  0  0  0  0  3  0  0  0  0  0  0
  186.6880  178.1650  137.2830 C   0  0  0  0  0  3  0  0  0  0  0  0
  187.8280  178.0340  136.4840 C   0  0  0  0  0  3  0  0  0  0  0  0
  189.2220  178.1200  138.4630 C   0  0  0  0  0  3  0  0  0  0  0  0
  186.8120  178.2790  138.6760 C   0  0  0  0  0  0  0  0  0  0  0  0
  181.8090  177.6920  136.9400 O   0  0  0  0  0  0  0  0  0  0  0  0
  181.1850  178.9280  136.7660 C   0  0  0  0  0  1  0  0  0  0  0  0
  1  3  1  1  0  0  0
  2  4  1  0  0  0  0
  4  7  1  0  0  0  0
  4  1  1  0  0  0  0
  5  6  1  0  0  0  0
  5  2  1  0  0  0  0
  6 12  1  0  0  0  0
  6  2  1  0  0  0  0
  7  9  1  0  0  0  0
  8  7  1  0  0  0  0
  9 14  1  0  0  0  0
 10 11  1  0  0  0  0
 11  1  1  0  0  0  0
 11 19  1  0  0  0  0
 12 10  1  0  0  0  0
 13  5  1  0  0  0  0
 13  8  1  0  0  0  0
 14  3  2  0  0  0  0
 15 17  1  0  0  0  0
 15 20  1  0  0  0  0
 17 20  1  0  0  0  0
 18 24  1  0  0  0  0
 19 22  1  0  0  0  0
 19 21  1  0  0  0  0
 20 24  1  0  0  0  0
 21 18  1  0  0  0  0
 22 15  1  0  0  0  0
 23 22  1  0  0  0  0
 24 16  2  0  0  0  0
 26 29  1  0  0  0  0
 27 30  2  0  0  0  0
 28 26  2  0  0  0  0
 28 27  1  0  0  0  0
 29 25  2  0  0  0  0
 30 25  1  0  0  0  0
 30 12  1  0  0  0  0
 31 13  1  0  0  0  0
 32 31  1  0  0  0  0
M  END
>  <MODEL>
5

>  <REMARK>
 VINA RESULT:      -8.6      1.609      2.400
  Name = 
  3 active torsions:
  status: ('A' for Active; 'I' for Inactive)
    1  A    between atoms: O_13  and  C_29
    2  A    between atoms: C_16  and  C_27
    3  A    between atoms: C_28  and  C_32
                            x       y       z     vdW  Elec       q    Type
                         _______ _______ _______ _____ _____    ______ ____

>  <TORSDO>
F 3

$$$$
=
 OpenBabel11052414343D

 32 38  0  0  1  0  0  0  0  0999 V2000
  189.7260  177.0040  141.3510 C   0  0  1  0  0  3  0  0  0  0  0  0
  189.7470  178.3240  143.5190 C   0  0  2  0  0  3  0  0  0  0  0  0
  190.9310  177.6690  140.8410 N   0  0  0  0  0  0  0  0  0  0  0  0
  189.7900  176.9250  142.8390 C   0  0  2  0  0  3  0  0  0  0  0  0
  189.4090  178.1470  144.9880 C   0  0  1  0  0  3  0  0  0  0  0  0
  188.3380  178.6790  143.9800 C   0  0  2  0  0  3  0  0  0  0  0  0
  190.9970  176.1710  143.3030 C   0  0  2  0  0  3  0  0  0  0  0  0
  190.9880  176.1700  144.8540 C   0  0  0  0  0  2  0  0  0  0  0  0
  192.1790  176.8160  142.7160 N   0  0  0  0  0  2  0  0  0  0  0  0
  187.6980  178.5150  141.6800 O   0  0  0  0  0  0  0  0  0  0  0  0
  188.3350  177.5250  140.8800 C   0  0  1  0  0  3  0  0  0  0  0  0
  187.3960  177.9890  142.9650 C   0  0  2  0  0  3  0  0  0  0  0  0
  189.6170  176.6700  145.4210 C   0  0  1  0  0  3  0  0  0  0  0  0
  192.0800  177.5400  141.4620 C   0  0  0  0  0  3  0  0  0  0  0  0
  186.9430  178.1580  137.3330 C   0  0  2  0  0  3  0  0  0  0  0  0
  188.9670  177.2590  134.9630 N   0  0  0  0  0  2  0  0  0  0  0  0
  186.0670  177.6030  136.2410 C   0  0  0  0  0  2  0  0  0  0  0  0
  189.7510  177.4080  137.2610 C   0  0  0  0  0  2  0  0  0  0  0  0
  188.2820  177.8470  139.3830 C   0  0  1  0  0  3  0  0  0  0  0  0
  187.3070  176.8420  136.6640 C   0  0  1  0  0  3  0  0  0  0  0  0
  189.3230  176.9450  138.6750 C   0  0  0  0  0  2  0  0  0  0  0  0
  186.8490  177.7410  138.7800 C   0  0  1  0  0  3  0  0  0  0  0  0
  185.8720  178.6670  139.4830 C   0  0  0  0  0  1  0  0  0  0  0  0
  188.6870  177.1700  136.2110 C   0  0  0  0  0  0  0  0  0  0  0  0
  185.6160  178.4590  144.6510 C   0  0  0  0  0  3  0  0  0  0  0  0
  183.3020  178.7560  144.0050 C   0  0  0  0  0  3  0  0  0  0  0  0
  184.9770  178.2950  142.3200 C   0  0  0  0  0  3  0  0  0  0  0  0
  183.6470  178.5480  142.6660 C   0  0  0  0  0  3  0  0  0  0  0  0
  184.2860  178.7120  144.9970 C   0  0  0  0  0  3  0  0  0  0  0  0
  185.9670  178.2460  143.3140 C   0  0  0  0  0  0  0  0  0  0  0  0
  189.6270  176.5880  146.8130 O   0  0  0  0  0  0  0  0  0  0  0  0
  190.9790  176.5900  147.1590 C   0  0  0  0  0  1  0  0  0  0  0  0
  1  3  1  1  0  0  0
  1  4  1  0  0  0  0
  2  6  1  0  0  0  0
  2  5  1  0  0  0  0
  3 14  2  0  0  0  0
  4  7  1  0  0  0  0
  4  2  1  0  0  0  0
  5 13  1  0  0  0  0
  6  5  1  0  0  0  0
  7  8  1  0  0  0  0
  8 13  1  0  0  0  0
  9  7  1  0  0  0  0
 10 12  1  0  0  0  0
 11  1  1  0  0  0  0
 11 10  1  0  0  0  0
 12 30  1  0  0  0  0
 12  6  1  0  0  0  0
 13 31  1  0  0  0  0
 14  9  1  0  0  0  0
 15 22  1  0  0  0  0
 16 24  2  0  0  0  0
 17 20  1  0  0  0  0
 17 15  1  0  0  0  0
 18 21  1  0  0  0  0
 19 11  1  0  0  0  0
 20 15  1  0  0  0  0
 21 19  1  0  0  0  0
 22 19  1  0  0  0  0
 22 23  1  0  0  0  0
 24 20  1  0  0  0  0
 24 18  1  0  0  0  0
 25 29  1  0  0  0  0
 26 29  2  0  0  0  0
 27 28  2  0  0  0  0
 27 30  1  0  0  0  0
 28 26  1  0  0  0  0
 30 25  2  0  0  0  0
 31 32  1  0  0  0  0
M  END
>  <MODEL>
6

>  <REMARK>
 VINA RESULT:      -8.6      3.069      8.126
  Name = 
  3 active torsions:
  status: ('A' for Active; 'I' for Inactive)
    1  A    between atoms: O_13  and  C_29
    2  A    between atoms: C_16  and  C_27
    3  A    between atoms: C_28  and  C_32
                            x       y       z     vdW  Elec       q    Type
                         _______ _______ _______ _____ _____    ______ ____

>  <TORSDO>
F 3

$$$$
=
 OpenBabel11052414343D

 32 38  0  0  1  0  0  0  0  0999 V2000
  186.6440  177.8090  138.7380 C   0  0  1  0  0  3  0  0  0  0  0  0
  189.1010  178.4110  138.9350 C   0  0  2  0  0  3  0  0  0  0  0  0
  186.4000  178.8080  137.6900 N   0  0  0  0  0  0  0  0  0  0  0  0
  188.0450  177.3090  138.6370 C   0  0  2  0  0  3  0  0  0  0  0  0
  190.4390  177.7490  139.2100 C   0  0  1  0  0  3  0  0  0  0  0  0
  189.5860  178.3450  140.3790 C   0  0  2  0  0  3  0  0  0  0  0  0
  188.3180  176.6910  137.3000 C   0  0  2  0  0  3  0  0  0  0  0  0
  189.8000  176.2310  137.2850 C   0  0  0  0  0  2  0  0  0  0  0  0
  187.9950  177.6890  136.2730 N   0  0  0  0  0  2  0  0  0  0  0  0
  187.3150  178.7490  141.0120 O   0  0  0  0  0  0  0  0  0  0  0  0
  186.2880  178.1750  140.2090 C   0  0  1  0  0  3  0  0  0  0  0  0
  188.3760  177.8200  141.1870 C   0  0  2  0  0  3  0  0  0  0  0  0
  190.4300  176.2770  138.7170 C   0  0  1  0  0  3  0  0  0  0  0  0
  187.0040  178.7180  136.5280 C   0  0  0  0  0  3  0  0  0  0  0  0
  182.7980  179.1800  141.5270 C   0  0  2  0  0  3  0  0  0  0  0  0
  180.7970  180.2560  139.2120 N   0  0  0  0  0  2  0  0  0  0  0  0
  181.4330  178.6660  141.9010 C   0  0  0  0  0  2  0  0  0  0  0  0
  183.1720  179.9940  138.7610 C   0  0  0  0  0  2  0  0  0  0  0  0
  184.9490  178.9080  140.3460 C   0  0  1  0  0  3  0  0  0  0  0  0
  181.9170  178.5290  140.4720 C   0  0  1  0  0  3  0  0  0  0  0  0
  184.2890  178.9380  138.9460 C   0  0  0  0  0  2  0  0  0  0  0  0
  184.0320  178.3150  141.4590 C   0  0  1  0  0  3  0  0  0  0  0  0
  184.7090  178.3380  142.8180 C   0  0  0  0  0  1  0  0  0  0  0  0
  181.8850  179.6270  139.4670 C   0  0  0  0  0  0  0  0  0  0  0  0
  189.9170  178.2530  143.1030 C   0  0  0  0  0  3  0  0  0  0  0  0
  189.4010  177.4930  145.3440 C   0  0  0  0  0  3  0  0  0  0  0  0
  187.8680  177.0330  143.5280 C   0  0  0  0  0  3  0  0  0  0  0  0
  188.2070  176.9330  144.8810 C   0  0  0  0  0  3  0  0  0  0  0  0
  190.2560  178.1530  144.4560 C   0  0  0  0  0  3  0  0  0  0  0  0
  188.7250  177.6910  142.6340 C   0  0  0  0  0  0  0  0  0  0  0  0
  191.7370  175.7910  138.6700 O   0  0  0  0  0  0  0  0  0  0  0  0
  192.2770  176.3410  137.5060 C   0  0  0  0  0  1  0  0  0  0  0  0
  1  3  1  6  0  0  0
  1 11  1  0  0  0  0
  2  5  1  0  0  0  0
  2  6  1  0  0  0  0
  4  1  1  0  0  0  0
  4  2  1  0  0  0  0
  5  6  1  0  0  0  0
  6 12  1  0  0  0  0
  7  4  1  0  0  0  0
  8  7  1  0  0  0  0
  8 13  1  0  0  0  0
  9 14  1  0  0  0  0
  9  7  1  0  0  0  0
 10 12  1  0  0  0  0
 11 19  1  0  0  0  0
 11 10  1  0  0  0  0
 12 30  1  0  0  0  0
 13  5  1  0  0  0  0
 14  3  2  0  0  0  0
 15 17  1  0  0  0  0
 16 24  2  0  0  0  0
 18 21  1  0  0  0  0
 18 24  1  0  0  0  0
 19 22  1  0  0  0  0
 20 15  1  0  0  0  0
 20 17  1  0  0  0  0
 21 19  1  0  0  0  0
 22 15  1  0  0  0  0
 22 23  1  0  0  0  0
 24 20  1  0  0  0  0
 25 29  1  0  0  0  0
 27 28  2  0  0  0  0
 28 26  1  0  0  0  0
 29 26  2  0  0  0  0
 30 25  2  0  0  0  0
 30 27  1  0  0  0  0
 31 13  1  0  0  0  0
 32 31  1  0  0  0  0
M  END
>  <MODEL>
7

>  <REMARK>
 VINA RESULT:      -8.3      2.984      6.913
  Name = 
  3 active torsions:
  status: ('A' for Active; 'I' for Inactive)
    1  A    between atoms: O_13  and  C_29
    2  A    between atoms: C_16  and  C_27
    3  A    between atoms: C_28  and  C_32
                            x       y       z     vdW  Elec       q    Type
                         _______ _______ _______ _____ _____    ______ ____

>  <TORSDO>
F 3

$$$$
=
 OpenBabel11052414343D

 32 38  0  0  1  0  0  0  0  0999 V2000
  187.2240  177.7470  141.6890 C   0  0  1  0  0  3  0  0  0  0  0  0
  189.4660  178.5370  142.5770 C   0  0  2  0  0  3  0  0  0  0  0  0
  187.2400  178.6990  140.5720 N   0  0  0  0  0  0  0  0  0  0  0  0
  188.6210  177.3510  142.0300 C   0  0  2  0  0  3  0  0  0  0  0  0
  190.7010  177.9840  143.2650 C   0  0  1  0  0  3  0  0  0  0  0  0
  189.5020  178.5410  144.1010 C   0  0  2  0  0  3  0  0  0  0  0  0
  189.3200  176.7240  140.8630 C   0  0  2  0  0  3  0  0  0  0  0  0
  190.7650  176.3770  141.3080 C   0  0  0  0  0  2  0  0  0  0  0  0
  189.2540  177.6700  139.7420 N   0  0  0  0  0  2  0  0  0  0  0  0
  187.1240  178.7880  144.0150 O   0  0  0  0  0  0  0  0  0  0  0  0
  186.4220  178.1200  142.9710 C   0  0  1  0  0  3  0  0  0  0  0  0
  188.1430  177.9470  144.5380 C   0  0  2  0  0  3  0  0  0  0  0  0
  190.9350  176.5040  142.8580 C   0  0  1  0  0  3  0  0  0  0  0  0
  188.1670  178.6280  139.6460 C   0  0  0  0  0  3  0  0  0  0  0  0
  182.7940  179.3590  143.4450 C   0  0  2  0  0  3  0  0  0  0  0  0
  181.0110  179.2210  140.7390 N   0  0  0  0  0  2  0  0  0  0  0  0
  181.4110  178.9630  143.8910 C   0  0  0  0  0  2  0  0  0  0  0  0
  183.4260  178.9480  140.6360 C   0  0  0  0  0  2  0  0  0  0  0  0
  185.0590  178.7530  142.6730 C   0  0  1  0  0  3  0  0  0  0  0  0
  182.0400  178.2670  142.7020 C   0  0  1  0  0  3  0  0  0  0  0  0
  184.5430  178.1450  141.3460 C   0  0  0  0  0  2  0  0  0  0  0  0
  184.0490  178.6280  143.8540 C   0  0  1  0  0  3  0  0  0  0  0  0
  184.5850  179.2690  145.1220 C   0  0  0  0  0  1  0  0  0  0  0  0
  182.0830  178.8320  141.3260 C   0  0  0  0  0  0  0  0  0  0  0  0
  189.1590  177.4410  146.7610 C   0  0  0  0  0  3  0  0  0  0  0  0
  187.9290  177.7610  148.8220 C   0  0  0  0  0  3  0  0  0  0  0  0
  186.8810  178.2630  146.6990 C   0  0  0  0  0  3  0  0  0  0  0  0
  186.8200  178.2030  148.0940 C   0  0  0  0  0  3  0  0  0  0  0  0
  189.0980  177.3810  148.1560 C   0  0  0  0  0  3  0  0  0  0  0  0
  188.0510  177.8780  146.0270 C   0  0  0  0  0  0  0  0  0  0  0  0
  192.2250  176.1170  143.2220 O   0  0  0  0  0  0  0  0  0  0  0  0
  192.0480  175.3060  144.3430 C   0  0  0  0  0  1  0  0  0  0  0  0
  1  3  1  6  0  0  0
  1  4  1  0  0  0  0
  1 11  1  0  0  0  0
  2  5  1  0  0  0  0
  2  6  1  0  0  0  0
  4  2  1  0  0  0  0
  5  6  1  0  0  0  0
  6 12  1  0  0  0  0
  7  8  1  0  0  0  0
  7  4  1  0  0  0  0
  8 13  1  0  0  0  0
  9  7  1  0  0  0  0
 10 12  1  0  0  0  0
 11 10  1  0  0  0  0
 12 30  1  0  0  0  0
 13 31  1  0  0  0  0
 13  5  1  0  0  0  0
 14  9  1  0  0  0  0
 14  3  2  0  0  0  0
 15 22  1  0  0  0  0
 15 17  1  0  0  0  0
 16 24  2  0  0  0  0
 18 24  1  0  0  0  0
 18 21  1  0  0  0  0
 19 11  1  0  0  0  0
 19 22  1  0  0  0  0
 20 15  1  0  0  0  0
 20 17  1  0  0  0  0
 21 19  1  0  0  0  0
 22 23  1  0  0  0  0
 24 20  1  0  0  0  0
 25 29  1  0  0  0  0
 27 28  2  0  0  0  0
 28 26  1  0  0  0  0
 29 26  2  0  0  0  0
 30 27  1  0  0  0  0
 30 25  2  0  0  0  0
 31 32  1  0  0  0  0
M  END
>  <MODEL>
8

>  <REMARK>
 VINA RESULT:      -8.3      2.553      7.112
  Name = 
  3 active torsions:
  status: ('A' for Active; 'I' for Inactive)
    1  A    between atoms: O_13  and  C_29
    2  A    between atoms: C_16  and  C_27
    3  A    between atoms: C_28  and  C_32
                            x       y       z     vdW  Elec       q    Type
                         _______ _______ _______ _____ _____    ______ ____

>  <TORSDO>
F 3

$$$$
=
 OpenBabel11052414343D

 32 38  0  0  1  0  0  0  0  0999 V2000
  189.4030  177.7460  142.8800 C   0  0  1  0  0  3  0  0  0  0  0  0
  190.4360  176.3190  141.0540 C   0  0  2  0  0  3  0  0  0  0  0  0
  189.4950  176.6750  143.8810 N   0  0  0  0  0  0  0  0  0  0  0  0
  190.5230  177.6180  141.9050 C   0  0  2  0  0  3  0  0  0  0  0  0
  191.3450  176.4590  139.8460 C   0  0  1  0  0  3  0  0  0  0  0  0
  189.7920  176.5810  139.6970 C   0  0  2  0  0  3  0  0  0  0  0  0
  191.8570  177.6960  142.5800 C   0  0  2  0  0  3  0  0  0  0  0  0
  192.9490  177.5240  141.4920 C   0  0  0  0  0  2  0  0  0  0  0  0
  191.8900  176.6620  143.6230 N   0  0  0  0  0  2  0  0  0  0  0  0
  187.8510  177.2730  140.9130 O   0  0  0  0  0  0  0  0  0  0  0  0
  188.0460  177.9580  142.1450 C   0  0  1  0  0  3  0  0  0  0  0  0
  188.7860  177.7290  139.9440 C   0  0  2  0  0  3  0  0  0  0  0  0
  192.3470  177.6280  140.0520 C   0  0  1  0  0  3  0  0  0  0  0  0
  190.6640  176.2070  144.2520 C   0  0  0  0  0  3  0  0  0  0  0  0
  184.5310  178.5760  143.6240 C   0  0  2  0  0  3  0  0  0  0  0  0
  184.4270  178.3590  146.8590 N   0  0  0  0  0  2  0  0  0  0  0  0
  183.5550  179.6340  144.0700 C   0  0  0  0  0  2  0  0  0  0  0  0
  186.3760  177.5730  145.6350 C   0  0  0  0  0  2  0  0  0  0  0  0
  186.8310  177.8670  143.0740 C   0  0  1  0  0  3  0  0  0  0  0  0
  184.8860  179.4970  144.7810 C   0  0  1  0  0  3  0  0  0  0  0  0
  187.3360  178.0640  144.5240 C   0  0  0  0  0  2  0  0  0  0  0  0
  185.6750  178.8350  142.6760 C   0  0  1  0  0  3  0  0  0  0  0  0
  185.1910  178.5800  141.2590 C   0  0  0  0  0  1  0  0  0  0  0  0
  185.1770  178.4780  145.8260 C   0  0  0  0  0  0  0  0  0  0  0  0
  188.8250  178.6660  137.6310 C   0  0  0  0  0  3  0  0  0  0  0  0
  186.8220  178.7850  136.2750 C   0  0  0  0  0  3  0  0  0  0  0  0
  186.7130  177.8730  138.5140 C   0  0  0  0  0  3  0  0  0  0  0  0
  186.0820  178.2170  137.3150 C   0  0  0  0  0  3  0  0  0  0  0  0
  188.1930  179.0090  136.4320 C   0  0  0  0  0  3  0  0  0  0  0  0
  188.0880  178.1000  138.6770 C   0  0  0  0  0  0  0  0  0  0  0  0
  193.3690  177.5380  139.1070 O   0  0  0  0  0  0  0  0  0  0  0  0
  193.0380  176.4260  138.3320 C   0  0  0  0  0  1  0  0  0  0  0  0
  1  3  1  6  0  0  0
  2  4  1  0  0  0  0
  3 14  2  0  0  0  0
  4  7  1  0  0  0  0
  4  1  1  0  0  0  0
  5 13  1  0  0  0  0
  5  2  1  0  0  0  0
  6  5  1  0  0  0  0
  6 12  1  0  0  0  0
  6  2  1  0  0  0  0
  7  9  1  0  0  0  0
  8  7  1  0  0  0  0
  9 14  1  0  0  0  0
 10 11  1  0  0  0  0
 11  1  1  0  0  0  0
 11 19  1  0  0  0  0
 12 10  1  0  0  0  0
 13  8  1  0  0  0  0
 15 17  1  0  0  0  0
 15 20  1  0  0  0  0
 17 20  1  0  0  0  0
 18 24  1  0  0  0  0
 19 21  1  0  0  0  0
 20 24  1  0  0  0  0
 21 18  1  0  0  0  0
 22 19  1  0  0  0  0
 22 15  1  0  0  0  0
 23 22  1  0  0  0  0
 24 16  2  0  0  0  0
 25 30  1  0  0  0  0
 26 29  1  0  0  0  0
 26 28  2  0  0  0  0
 27 30  2  0  0  0  0
 28 27  1  0  0  0  0
 29 25  2  0  0  0  0
 30 12  1  0  0  0  0
 31 13  1  0  0  0  0
 32 31  1  0  0  0  0
M  END
>  <MODEL>
9

>  <REMARK>
 VINA RESULT:      -7.9      2.504      5.762
  Name = 
  3 active torsions:
  status: ('A' for Active; 'I' for Inactive)
    1  A    between atoms: O_13  and  C_29
    2  A    between atoms: C_16  and  C_27
    3  A    between atoms: C_28  and  C_32
                            x       y       z     vdW  Elec       q    Type
                         _______ _______ _______ _____ _____    ______ ____

>  <TORSDO>
F 3

$$$$
