=
 OpenBabel11052412393D

 25 28  0  0  1  0  0  0  0  0999 V2000
  187.2250  178.1980  145.8100 C   0  0  0  0  0  0  0  0  0  0  0  0
  188.5080  177.7370  145.4890 C   0  0  0  0  0  0  0  0  0  0  0  0
  187.6160  177.8460  148.1750 C   0  0  0  0  0  3  0  0  0  0  0  0
  186.1820  178.7770  144.9150 C   0  0  2  0  0  3  0  0  0  0  0  0
  183.4700  178.8740  144.1800 C   0  0  0  0  0  3  0  0  0  0  0  0
  188.8980  177.3610  147.8770 C   0  0  0  0  0  3  0  0  0  0  0  0
  185.0820  178.9940  145.9170 C   0  0  0  0  0  0  0  0  0  0  0  0
  183.8330  179.0490  145.5620 N   0  0  0  0  0  0  0  0  0  0  0  0
  190.6500  176.8310  146.2380 C   0  0  0  0  0  0  0  0  0  0  0  0
  191.5880  176.3620  147.2990 C   0  0  0  0  0  1  0  0  0  0  0  0
  188.9600  177.7020  144.1660 C   0  0  0  0  0  3  0  0  0  0  0  0
  184.3420  178.3200  143.3230 C   0  0  0  0  0  3  0  0  0  0  0  0
  186.8030  178.2670  147.1260 C   0  0  0  0  0  0  0  0  0  0  0  0
  185.4840  178.7730  147.2660 N   0  0  0  0  0  2  0  0  0  0  0  0
  191.0810  176.8010  144.9070 C   0  0  0  0  0  3  0  0  0  0  0  0
  185.6740  177.8250  143.8300 C   0  0  0  0  0  2  0  0  0  0  0  0
  190.2410  177.2290  143.8760 C   0  0  0  0  0  0  0  0  0  0  0  0
  189.3570  177.3020  146.5430 C   0  0  0  0  0  0  0  0  0  0  0  0
  190.7250  177.2140  142.4700 C   0  0  0  0  0  2  0  0  0  0  0  0
  189.7170  176.6010  141.6070 N   0  0  0  0  0  2  0  0  0  0  0  0
  189.8100  177.1290  140.2430 C   0  0  2  0  0  3  0  0  0  0  0  0
  191.1760  177.5160  139.9140 N   0  0  0  0  0  1  0  0  0  0  0  0
  188.8460  178.2510  140.0050 C   0  0  0  0  0  0  0  0  0  0  0  0
  188.9580  179.0150  138.8500 O   0  0  0  0  0  0  0  0  0  0  0  0
  187.9150  178.4850  140.8200 O   0  0  0  0  0  1  0  0  0  0  0  0
  1 13  1  0  0  0  0
  2  1  2  0  0  0  0
  2 18  1  0  0  0  0
  4 16  1  6  0  0  0
  4  1  1  0  0  0  0
  4  7  1  0  0  0  0
  5  8  1  0  0  0  0
  6  3  1  0  0  0  0
  7 14  1  0  0  0  0
  8  7  2  0  0  0  0
  9 18  1  0  0  0  0
  9 10  1  0  0  0  0
 11  2  1  0  0  0  0
 12 16  1  0  0  0  0
 12  5  2  0  0  0  0
 13 14  1  0  0  0  0
 13  3  2  0  0  0  0
 15  9  2  0  0  0  0
 17 11  2  0  0  0  0
 17 15  1  0  0  0  0
 18  6  2  0  0  0  0
 19 17  1  0  0  0  0
 20 19  1  0  0  0  0
 21 22  1  1  0  0  0
 21 20  1  0  0  0  0
 23 21  1  0  0  0  0
 23 25  1  0  0  0  0
 24 23  2  0  0  0  0
M  END
>  <MODEL>
1

>  <REMARK>
 VINA RESULT:     -10.6      0.000      0.000
  Name = 
  4 active torsions:
  status: ('A' for Active; 'I' for Inactive)
    1  A    between atoms: C_2  and  C_21
    2  A    between atoms: C_6  and  N_15
    3  A    between atoms: C_6  and  C_23
    4  A    between atoms: N_15  and  C_21
                            x       y       z     vdW  Elec       q    Type
                         _______ _______ _______ _____ _____    ______ ____

>  <TORSDO>
F 4

$$$$
=
 OpenBabel11052412393D

 25 28  0  0  1  0  0  0  0  0999 V2000
  187.3180  178.1470  145.8520 C   0  0  0  0  0  0  0  0  0  0  0  0
  188.6020  177.6920  145.5270 C   0  0  0  0  0  0  0  0  0  0  0  0
  187.7020  177.7560  148.2120 C   0  0  0  0  0  3  0  0  0  0  0  0
  186.2780  178.7390  144.9630 C   0  0  2  0  0  3  0  0  0  0  0  0
  183.5680  178.8450  144.2220 C   0  0  0  0  0  3  0  0  0  0  0  0
  188.9860  177.2780  147.9100 C   0  0  0  0  0  3  0  0  0  0  0  0
  185.1750  178.9390  145.9650 C   0  0  0  0  0  0  0  0  0  0  0  0
  183.9270  178.9980  145.6080 N   0  0  0  0  0  0  0  0  0  0  0  0
  190.7430  176.7750  146.2680 C   0  0  0  0  0  0  0  0  0  0  0  0
  191.6780  176.2910  147.3240 C   0  0  0  0  0  1  0  0  0  0  0  0
  189.0590  177.6790  144.2050 C   0  0  0  0  0  3  0  0  0  0  0  0
  184.4420  178.3060  143.3580 C   0  0  0  0  0  3  0  0  0  0  0  0
  186.8920  178.1930  147.1680 C   0  0  0  0  0  0  0  0  0  0  0  0
  185.5720  178.6960  147.3120 N   0  0  0  0  0  2  0  0  0  0  0  0
  191.1790  176.7680  144.9380 C   0  0  0  0  0  3  0  0  0  0  0  0
  185.7740  177.8040  143.8610 C   0  0  0  0  0  2  0  0  0  0  0  0
  190.3410  177.2120  143.9110 C   0  0  0  0  0  0  0  0  0  0  0  0
  189.4490  177.2410  146.5770 C   0  0  0  0  0  0  0  0  0  0  0  0
  190.8290  177.2200  142.5070 C   0  0  0  0  0  2  0  0  0  0  0  0
  189.7190  176.9550  141.5960 N   0  0  0  0  0  2  0  0  0  0  0  0
  189.9790  177.5330  140.2750 C   0  0  2  0  0  3  0  0  0  0  0  0
  188.7400  177.7740  139.5460 N   0  0  0  0  0  1  0  0  0  0  0  0
  190.9370  176.7050  139.4740 C   0  0  0  0  0  0  0  0  0  0  0  0
  192.2850  177.0380  139.4610 O   0  0  0  0  0  1  0  0  0  0  0  0
  190.5400  175.6890  138.8440 O   0  0  0  0  0  0  0  0  0  0  0  0
  1 13  1  0  0  0  0
  2  1  2  0  0  0  0
  2 18  1  0  0  0  0
  4 16  1  6  0  0  0
  4  1  1  0  0  0  0
  4  7  1  0  0  0  0
  5  8  1  0  0  0  0
  6  3  1  0  0  0  0
  7 14  1  0  0  0  0
  8  7  2  0  0  0  0
  9 18  1  0  0  0  0
  9 10  1  0  0  0  0
 11  2  1  0  0  0  0
 12 16  1  0  0  0  0
 12  5  2  0  0  0  0
 13 14  1  0  0  0  0
 13  3  2  0  0  0  0
 15  9  2  0  0  0  0
 17 11  2  0  0  0  0
 17 15  1  0  0  0  0
 18  6  2  0  0  0  0
 19 17  1  0  0  0  0
 20 19  1  0  0  0  0
 21 22  1  6  0  0  0
 21 20  1  0  0  0  0
 23 21  1  0  0  0  0
 24 23  1  0  0  0  0
 25 23  2  0  0  0  0
M  END
>  <MODEL>
2

>  <REMARK>
 VINA RESULT:     -10.2      1.263      1.381
  Name = 
  4 active torsions:
  status: ('A' for Active; 'I' for Inactive)
    1  A    between atoms: C_2  and  C_21
    2  A    between atoms: C_6  and  N_15
    3  A    between atoms: C_6  and  C_23
    4  A    between atoms: N_15  and  C_21
                            x       y       z     vdW  Elec       q    Type
                         _______ _______ _______ _____ _____    ______ ____

>  <TORSDO>
F 4

$$$$
=
 OpenBabel11052412393D

 25 28  0  0  1  0  0  0  0  0999 V2000
  189.1610  177.1060  144.0010 C   0  0  0  0  0  0  0  0  0  0  0  0
  188.2950  177.5060  145.0270 C   0  0  0  0  0  0  0  0  0  0  0  0
  190.9670  176.7410  145.5760 C   0  0  0  0  0  3  0  0  0  0  0  0
  188.8750  176.9090  142.5510 C   0  0  2  0  0  3  0  0  0  0  0  0
  189.7030  177.2970  139.8930 C   0  0  0  0  0  3  0  0  0  0  0  0
  190.1250  177.1570  146.6170 C   0  0  0  0  0  3  0  0  0  0  0  0
  190.2490  176.5340  142.0710 C   0  0  0  0  0  0  0  0  0  0  0  0
  190.6150  176.7070  140.8370 N   0  0  0  0  0  0  0  0  0  0  0  0
  187.9330  177.9450  147.4030 C   0  0  0  0  0  0  0  0  0  0  0  0
  188.3930  178.0000  148.8210 C   0  0  0  0  0  1  0  0  0  0  0  0
  186.9690  177.8640  144.7630 C   0  0  0  0  0  3  0  0  0  0  0  0
  188.6320  177.9770  140.3310 C   0  0  0  0  0  3  0  0  0  0  0  0
  190.4600  176.7160  144.2790 C   0  0  0  0  0  0  0  0  0  0  0  0
  191.1880  176.3270  143.1240 N   0  0  0  0  0  2  0  0  0  0  0  0
  186.6120  178.3010  147.1170 C   0  0  0  0  0  3  0  0  0  0  0  0
  188.4280  178.1730  141.8130 C   0  0  0  0  0  2  0  0  0  0  0  0
  186.1320  178.2660  145.8040 C   0  0  0  0  0  0  0  0  0  0  0  0
  188.7900  177.5400  146.3590 C   0  0  0  0  0  0  0  0  0  0  0  0
  184.7170  178.6250  145.5220 C   0  0  0  0  0  2  0  0  0  0  0  0
  184.6680  179.7480  144.5890 N   0  0  0  0  0  2  0  0  0  0  0  0
  183.7080  179.4890  143.5130 C   0  0  2  0  0  3  0  0  0  0  0  0
  182.6100  178.6470  143.9700 N   0  0  0  0  0  1  0  0  0  0  0  0
  184.3670  178.9220  142.2920 C   0  0  0  0  0  0  0  0  0  0  0  0
  185.3890  179.6300  141.6750 O   0  0  0  0  0  0  0  0  0  0  0  0
  184.0290  177.7950  141.8440 O   0  0  0  0  0  1  0  0  0  0  0  0
  1 13  2  0  0  0  0
  1  2  1  0  0  0  0
  2 18  1  0  0  0  0
  3  6  2  0  0  0  0
  4 16  1  6  0  0  0
  4  1  1  0  0  0  0
  5 12  2  0  0  0  0
  5  8  1  0  0  0  0
  7  4  1  0  0  0  0
  7 14  1  0  0  0  0
  8  7  2  0  0  0  0
  9 10  1  0  0  0  0
 11  2  2  0  0  0  0
 11 17  1  0  0  0  0
 12 16  1  0  0  0  0
 13  3  1  0  0  0  0
 14 13  1  0  0  0  0
 15  9  1  0  0  0  0
 17 15  2  0  0  0  0
 18  6  1  0  0  0  0
 18  9  2  0  0  0  0
 19 17  1  0  0  0  0
 20 19  1  0  0  0  0
 21 22  1  1  0  0  0
 21 20  1  0  0  0  0
 23 21  1  0  0  0  0
 24 23  2  0  0  0  0
 25 23  1  0  0  0  0
M  END
>  <MODEL>
3

>  <REMARK>
 VINA RESULT:     -10.0      1.556      5.387
  Name = 
  4 active torsions:
  status: ('A' for Active; 'I' for Inactive)
    1  A    between atoms: C_2  and  C_21
    2  A    between atoms: C_6  and  N_15
    3  A    between atoms: C_6  and  C_23
    4  A    between atoms: N_15  and  C_21
                            x       y       z     vdW  Elec       q    Type
                         _______ _______ _______ _____ _____    ______ ____

>  <TORSDO>
F 4

$$$$
=
 OpenBabel11052412393D

 25 28  0  0  1  0  0  0  0  0999 V2000
  187.6720  177.5690  145.4910 C   0  0  0  0  0  0  0  0  0  0  0  0
  186.7980  177.9860  144.4800 C   0  0  0  0  0  0  0  0  0  0  0  0
  186.0430  178.0910  147.2080 C   0  0  0  0  0  3  0  0  0  0  0  0
  189.0190  176.9410  145.3710 C   0  0  2  0  0  3  0  0  0  0  0  0
  191.6780  176.8300  146.2790 C   0  0  0  0  0  3  0  0  0  0  0  0
  185.1580  178.5330  146.2130 C   0  0  0  0  0  3  0  0  0  0  0  0
  189.3700  176.8160  146.8280 C   0  0  0  0  0  0  0  0  0  0  0  0
  190.6030  176.7530  147.2340 N   0  0  0  0  0  0  0  0  0  0  0  0
  184.6290  178.9140  143.8440 C   0  0  0  0  0  0  0  0  0  0  0  0
  183.2730  179.4460  144.1680 C   0  0  0  0  0  1  0  0  0  0  0  0
  187.1590  177.9160  143.1300 C   0  0  0  0  0  3  0  0  0  0  0  0
  191.4470  177.3060  145.0450 C   0  0  0  0  0  3  0  0  0  0  0  0
  187.2890  177.6060  146.8210 C   0  0  0  0  0  0  0  0  0  0  0  0
  188.2930  177.1310  147.7070 N   0  0  0  0  0  2  0  0  0  0  0  0
  185.0110  178.8370  142.5000 C   0  0  0  0  0  3  0  0  0  0  0  0
  190.0720  177.8170  144.6890 C   0  0  0  0  0  2  0  0  0  0  0  0
  186.2700  178.3460  142.1440 C   0  0  0  0  0  0  0  0  0  0  0  0
  185.5190  178.4860  144.8490 C   0  0  0  0  0  0  0  0  0  0  0  0
  186.6500  178.2490  140.7090 C   0  0  0  0  0  2  0  0  0  0  0  0
  188.0280  178.7010  140.5310 N   0  0  0  0  0  2  0  0  0  0  0  0
  188.8150  177.6990  139.8090 C   0  0  2  0  0  3  0  0  0  0  0  0
  189.8740  177.1500  140.6470 N   0  0  0  0  0  1  0  0  0  0  0  0
  189.3550  178.2280  138.5160 C   0  0  0  0  0  0  0  0  0  0  0  0
  190.1630  177.4180  137.7290 O   0  0  0  0  0  0  0  0  0  0  0  0
  189.0530  179.3840  138.1170 O   0  0  0  0  0  1  0  0  0  0  0  0
  1 13  1  0  0  0  0
  2 18  1  0  0  0  0
  2  1  2  0  0  0  0
  4 16  1  6  0  0  0
  4  1  1  0  0  0  0
  4  7  1  0  0  0  0
  5  8  1  0  0  0  0
  6  3  1  0  0  0  0
  7  8  2  0  0  0  0
  7 14  1  0  0  0  0
  9 10  1  0  0  0  0
  9 18  1  0  0  0  0
 11  2  1  0  0  0  0
 12  5  2  0  0  0  0
 13  3  2  0  0  0  0
 13 14  1  0  0  0  0
 15  9  2  0  0  0  0
 16 12  1  0  0  0  0
 17 15  1  0  0  0  0
 17 11  2  0  0  0  0
 18  6  2  0  0  0  0
 19 17  1  0  0  0  0
 20 19  1  0  0  0  0
 21 20  1  0  0  0  0
 21 22  1  1  0  0  0
 23 21  1  0  0  0  0
 24 23  2  0  0  0  0
 25 23  1  0  0  0  0
M  END
>  <MODEL>
4

>  <REMARK>
 VINA RESULT:      -9.8      1.803      4.703
  Name = 
  4 active torsions:
  status: ('A' for Active; 'I' for Inactive)
    1  A    between atoms: C_2  and  C_21
    2  A    between atoms: C_6  and  N_15
    3  A    between atoms: C_6  and  C_23
    4  A    between atoms: N_15  and  C_21
                            x       y       z     vdW  Elec       q    Type
                         _______ _______ _______ _____ _____    ______ ____

>  <TORSDO>
F 4

$$$$
=
 OpenBabel11052412393D

 25 28  0  0  1  0  0  0  0  0999 V2000
  185.5720  178.4890  144.5400 C   0  0  0  0  0  0  0  0  0  0  0  0
  186.9160  178.1000  144.5840 C   0  0  0  0  0  0  0  0  0  0  0  0
  185.3740  178.3220  146.9500 C   0  0  0  0  0  3  0  0  0  0  0  0
  184.7590  178.9330  143.3720 C   0  0  2  0  0  3  0  0  0  0  0  0
  182.3170  178.7900  141.9860 C   0  0  0  0  0  3  0  0  0  0  0  0
  186.7130  177.9100  147.0170 C   0  0  0  0  0  3  0  0  0  0  0  0
  183.4330  179.1370  144.0510 C   0  0  0  0  0  0  0  0  0  0  0  0
  182.3120  179.0800  143.3960 N   0  0  0  0  0  0  0  0  0  0  0  0
  188.8460  177.3980  145.9090 C   0  0  0  0  0  0  0  0  0  0  0  0
  189.5100  177.0680  147.2030 C   0  0  0  0  0  1  0  0  0  0  0  0
  187.6880  178.0100  143.4210 C   0  0  0  0  0  3  0  0  0  0  0  0
  183.4030  178.2440  141.4180 C   0  0  0  0  0  3  0  0  0  0  0  0
  184.8300  178.6140  145.7020 C   0  0  0  0  0  0  0  0  0  0  0  0
  183.4930  179.0340  145.4710 N   0  0  0  0  0  2  0  0  0  0  0  0
  189.5990  177.3120  144.7330 C   0  0  0  0  0  3  0  0  0  0  0  0
  184.5890  177.8780  142.2760 C   0  0  0  0  0  2  0  0  0  0  0  0
  189.0230  177.6110  143.4950 C   0  0  0  0  0  0  0  0  0  0  0  0
  187.4960  177.7960  145.8470 C   0  0  0  0  0  0  0  0  0  0  0  0
  189.8450  177.5380  142.2570 C   0  0  0  0  0  2  0  0  0  0  0  0
  189.1680  176.7080  141.2630 N   0  0  0  0  0  2  0  0  0  0  0  0
  189.4650  177.1750  139.9070 C   0  0  2  0  0  3  0  0  0  0  0  0
  190.8770  177.5030  139.7540 N   0  0  0  0  0  1  0  0  0  0  0  0
  188.5870  178.3180  139.4980 C   0  0  0  0  0  0  0  0  0  0  0  0
  189.0560  179.2460  138.5770 O   0  0  0  0  0  0  0  0  0  0  0  0
  187.4170  178.4250  139.9500 O   0  0  0  0  0  1  0  0  0  0  0  0
  1  2  2  0  0  0  0
  1 13  1  0  0  0  0
  2 18  1  0  0  0  0
  3  6  1  0  0  0  0
  4 16  1  6  0  0  0
  4  7  1  0  0  0  0
  4  1  1  0  0  0  0
  5  8  1  0  0  0  0
  7 14  1  0  0  0  0
  8  7  2  0  0  0  0
  9 10  1  0  0  0  0
 11 17  2  0  0  0  0
 11  2  1  0  0  0  0
 12  5  2  0  0  0  0
 12 16  1  0  0  0  0
 13  3  2  0  0  0  0
 14 13  1  0  0  0  0
 15  9  2  0  0  0  0
 17 15  1  0  0  0  0
 18  9  1  0  0  0  0
 18  6  2  0  0  0  0
 19 17  1  0  0  0  0
 20 19  1  0  0  0  0
 21 22  1  1  0  0  0
 21 20  1  0  0  0  0
 23 21  1  0  0  0  0
 23 25  1  0  0  0  0
 24 23  2  0  0  0  0
M  END
>  <MODEL>
5

>  <REMARK>
 VINA RESULT:      -9.8      1.121      1.877
  Name = 
  4 active torsions:
  status: ('A' for Active; 'I' for Inactive)
    1  A    between atoms: C_2  and  C_21
    2  A    between atoms: C_6  and  N_15
    3  A    between atoms: C_6  and  C_23
    4  A    between atoms: N_15  and  C_21
                            x       y       z     vdW  Elec       q    Type
                         _______ _______ _______ _____ _____    ______ ____

>  <TORSDO>
F 4

$$$$
=
 OpenBabel11052412393D

 25 28  0  0  1  0  0  0  0  0999 V2000
  187.7290  177.5640  145.4600 C   0  0  0  0  0  0  0  0  0  0  0  0
  186.9130  177.9940  144.4070 C   0  0  0  0  0  0  0  0  0  0  0  0
  186.0290  178.1200  147.0950 C   0  0  0  0  0  3  0  0  0  0  0  0
  189.0690  176.9110  145.4060 C   0  0  2  0  0  3  0  0  0  0  0  0
  191.6780  176.7540  146.4400 C   0  0  0  0  0  3  0  0  0  0  0  0
  185.2010  178.5750  146.0590 C   0  0  0  0  0  3  0  0  0  0  0  0
  189.3470  176.7830  146.8780 C   0  0  0  0  0  0  0  0  0  0  0  0
  190.5570  176.6990  147.3420 N   0  0  0  0  0  0  0  0  0  0  0  0
  184.7940  178.9600  143.6660 C   0  0  0  0  0  0  0  0  0  0  0  0
  183.4340  179.5180  143.9240 C   0  0  0  0  0  1  0  0  0  0  0  0
  187.3360  177.9140  143.0760 C   0  0  0  0  0  3  0  0  0  0  0  0
  191.5150  177.2300  145.1960 C   0  0  0  0  0  3  0  0  0  0  0  0
  187.2840  177.6110  146.7700 C   0  0  0  0  0  0  0  0  0  0  0  0
  188.2350  177.1200  147.7030 N   0  0  0  0  0  2  0  0  0  0  0  0
  185.2390  178.8740  142.3430 C   0  0  0  0  0  3  0  0  0  0  0  0
  190.1690  177.7660  144.7730 C   0  0  0  0  0  2  0  0  0  0  0  0
  186.5040  178.3590  142.0480 C   0  0  0  0  0  0  0  0  0  0  0  0
  185.6270  178.5180  144.7140 C   0  0  0  0  0  0  0  0  0  0  0  0
  186.9500  178.2520  140.6340 C   0  0  0  0  0  2  0  0  0  0  0  0
  188.3050  178.7820  140.5010 N   0  0  0  0  0  2  0  0  0  0  0  0
  189.0710  178.0150  139.5160 C   0  0  2  0  0  3  0  0  0  0  0  0
  188.1910  177.2930  138.6040 N   0  0  0  0  0  1  0  0  0  0  0  0
  190.0660  177.0990  140.1610 C   0  0  0  0  0  0  0  0  0  0  0  0
  190.5480  176.0050  139.4540 O   0  0  0  0  0  0  0  0  0  0  0  0
  190.4980  177.3320  141.3200 O   0  0  0  0  0  1  0  0  0  0  0  0
  1 13  1  0  0  0  0
  2 18  1  0  0  0  0
  2  1  2  0  0  0  0
  4 16  1  6  0  0  0
  4  1  1  0  0  0  0
  4  7  1  0  0  0  0
  5  8  1  0  0  0  0
  6  3  1  0  0  0  0
  7  8  2  0  0  0  0
  7 14  1  0  0  0  0
  9 10  1  0  0  0  0
  9 18  1  0  0  0  0
 11  2  1  0  0  0  0
 12  5  2  0  0  0  0
 13  3  2  0  0  0  0
 13 14  1  0  0  0  0
 15  9  2  0  0  0  0
 16 12  1  0  0  0  0
 17 15  1  0  0  0  0
 17 11  2  0  0  0  0
 18  6  2  0  0  0  0
 19 17  1  0  0  0  0
 20 19  1  0  0  0  0
 21 22  1  1  0  0  0
 21 23  1  0  0  0  0
 21 20  1  0  0  0  0
 23 25  1  0  0  0  0
 24 23  2  0  0  0  0
M  END
>  <MODEL>
6

>  <REMARK>
 VINA RESULT:      -9.7      2.025      4.750
  Name = 
  4 active torsions:
  status: ('A' for Active; 'I' for Inactive)
    1  A    between atoms: C_2  and  C_21
    2  A    between atoms: C_6  and  N_15
    3  A    between atoms: C_6  and  C_23
    4  A    between atoms: N_15  and  C_21
                            x       y       z     vdW  Elec       q    Type
                         _______ _______ _______ _____ _____    ______ ____

>  <TORSDO>
F 4

$$$$
=
 OpenBabel11052412393D

 25 28  0  0  1  0  0  0  0  0999 V2000
  185.2120  178.5350  144.0770 C   0  0  0  0  0  0  0  0  0  0  0  0
  186.5400  178.1510  143.8550 C   0  0  0  0  0  0  0  0  0  0  0  0
  185.4640  178.2730  146.4730 C   0  0  0  0  0  3  0  0  0  0  0  0
  184.1960  179.0190  143.0980 C   0  0  2  0  0  3  0  0  0  0  0  0
  181.5400  178.9160  142.1850 C   0  0  0  0  0  3  0  0  0  0  0  0
  186.7920  177.8660  146.2750 C   0  0  0  0  0  3  0  0  0  0  0  0
  183.0200  179.1890  144.0190 C   0  0  0  0  0  0  0  0  0  0  0  0
  181.7970  179.1520  143.5820 N   0  0  0  0  0  0  0  0  0  0  0  0
  188.6810  177.4090  144.7710 C   0  0  0  0  0  0  0  0  0  0  0  0
  189.5730  177.0330  145.9050 C   0  0  0  0  0  1  0  0  0  0  0  0
  187.0820  178.1100  142.5670 C   0  0  0  0  0  3  0  0  0  0  0  0
  182.5010  178.3980  141.4040 C   0  0  0  0  0  3  0  0  0  0  0  0
  184.6980  178.6100  145.3600 C   0  0  0  0  0  0  0  0  0  0  0  0
  183.3430  179.0320  145.3980 N   0  0  0  0  0  2  0  0  0  0  0  0
  189.2020  177.3720  143.4730 C   0  0  0  0  0  3  0  0  0  0  0  0
  183.8250  178.0060  142.0120 C   0  0  0  0  0  2  0  0  0  0  0  0
  188.4070  177.7160  142.3760 C   0  0  0  0  0  0  0  0  0  0  0  0
  187.3430  177.8020  144.9760 C   0  0  0  0  0  0  0  0  0  0  0  0
  188.9850  177.6950  141.0060 C   0  0  0  0  0  2  0  0  0  0  0  0
  188.2060  178.5650  140.1280 N   0  0  0  0  0  2  0  0  0  0  0  0
  188.4250  178.2170  138.7220 C   0  0  2  0  0  3  0  0  0  0  0  0
  189.1110  179.2870  138.0090 N   0  0  0  0  0  1  0  0  0  0  0  0
  187.1550  177.8220  138.0320 C   0  0  0  0  0  0  0  0  0  0  0  0
  187.0080  176.5260  137.5560 O   0  0  0  0  0  0  0  0  0  0  0  0
  186.2050  178.6410  137.9140 O   0  0  0  0  0  1  0  0  0  0  0  0
  1 13  1  0  0  0  0
  2  1  2  0  0  0  0
  2 18  1  0  0  0  0
  4 16  1  6  0  0  0
  4  7  1  0  0  0  0
  4  1  1  0  0  0  0
  5  8  1  0  0  0  0
  6  3  1  0  0  0  0
  7 14  1  0  0  0  0
  8  7  2  0  0  0  0
  9 18  1  0  0  0  0
  9 10  1  0  0  0  0
 11  2  1  0  0  0  0
 12 16  1  0  0  0  0
 12  5  2  0  0  0  0
 13 14  1  0  0  0  0
 13  3  2  0  0  0  0
 15  9  2  0  0  0  0
 17 11  2  0  0  0  0
 17 15  1  0  0  0  0
 18  6  2  0  0  0  0
 19 17  1  0  0  0  0
 20 19  1  0  0  0  0
 21 22  1  6  0  0  0
 21 20  1  0  0  0  0
 23 21  1  0  0  0  0
 24 23  2  0  0  0  0
 25 23  1  0  0  0  0
M  END
>  <MODEL>
7

>  <REMARK>
 VINA RESULT:      -9.5      1.890      2.737
  Name = 
  4 active torsions:
  status: ('A' for Active; 'I' for Inactive)
    1  A    between atoms: C_2  and  C_21
    2  A    between atoms: C_6  and  N_15
    3  A    between atoms: C_6  and  C_23
    4  A    between atoms: N_15  and  C_21
                            x       y       z     vdW  Elec       q    Type
                         _______ _______ _______ _____ _____    ______ ____

>  <TORSDO>
F 4

$$$$
=
 OpenBabel11052412393D

 25 28  0  0  1  0  0  0  0  0999 V2000
  187.4810  177.6690  145.3360 C   0  0  0  0  0  0  0  0  0  0  0  0
  186.5400  178.0820  144.3850 C   0  0  0  0  0  0  0  0  0  0  0  0
  185.9300  178.0800  147.1520 C   0  0  0  0  0  3  0  0  0  0  0  0
  188.8410  177.0940  145.1250 C   0  0  2  0  0  3  0  0  0  0  0  0
  191.5470  177.0540  145.8860 C   0  0  0  0  0  3  0  0  0  0  0  0
  184.9780  178.5180  146.2200 C   0  0  0  0  0  3  0  0  0  0  0  0
  189.2740  176.9390  146.5560 C   0  0  0  0  0  0  0  0  0  0  0  0
  190.5290  176.9100  146.8930 N   0  0  0  0  0  0  0  0  0  0  0  0
  184.3080  178.9480  143.8950 C   0  0  0  0  0  0  0  0  0  0  0  0
  182.9540  179.4210  144.3070 C   0  0  0  0  0  1  0  0  0  0  0  0
  186.8290  178.0650  143.0170 C   0  0  0  0  0  3  0  0  0  0  0  0
  191.2330  177.5560  144.6810 C   0  0  0  0  0  3  0  0  0  0  0  0
  187.1700  177.6520  146.6840 C   0  0  0  0  0  0  0  0  0  0  0  0
  188.2360  177.1890  147.5000 N   0  0  0  0  0  2  0  0  0  0  0  0
  184.6190  178.9260  142.5320 C   0  0  0  0  0  3  0  0  0  0  0  0
  189.8240  178.0280  144.4150 C   0  0  0  0  0  2  0  0  0  0  0  0
  185.8730  178.4920  142.0940 C   0  0  0  0  0  0  0  0  0  0  0  0
  185.2660  178.5240  144.8380 C   0  0  0  0  0  0  0  0  0  0  0  0
  186.1780  178.4500  140.6390 C   0  0  0  0  0  2  0  0  0  0  0  0
  185.2580  179.3260  139.9160 N   0  0  0  0  0  2  0  0  0  0  0  0
  184.7850  178.6830  138.6880 C   0  0  2  0  0  3  0  0  0  0  0  0
  183.8160  177.6320  138.9750 N   0  0  0  0  0  1  0  0  0  0  0  0
  185.9140  178.1750  137.8440 C   0  0  0  0  0  0  0  0  0  0  0  0
  185.9450  176.8360  137.4760 O   0  0  0  0  0  1  0  0  0  0  0  0
  186.8140  178.9550  137.4350 O   0  0  0  0  0  0  0  0  0  0  0  0
  1 13  1  0  0  0  0
  2 18  1  0  0  0  0
  2  1  2  0  0  0  0
  4 16  1  6  0  0  0
  4  1  1  0  0  0  0
  4  7  1  0  0  0  0
  5  8  1  0  0  0  0
  6  3  1  0  0  0  0
  7  8  2  0  0  0  0
  7 14  1  0  0  0  0
  9 10  1  0  0  0  0
  9 18  1  0  0  0  0
 11  2  1  0  0  0  0
 12  5  2  0  0  0  0
 13  3  2  0  0  0  0
 13 14  1  0  0  0  0
 15  9  2  0  0  0  0
 16 12  1  0  0  0  0
 17 15  1  0  0  0  0
 17 11  2  0  0  0  0
 18  6  2  0  0  0  0
 19 17  1  0  0  0  0
 20 19  1  0  0  0  0
 21 22  1  1  0  0  0
 21 20  1  0  0  0  0
 23 21  1  0  0  0  0
 24 23  1  0  0  0  0
 25 23  2  0  0  0  0
M  END
>  <MODEL>
8

>  <REMARK>
 VINA RESULT:      -9.5      2.748      5.257
  Name = 
  4 active torsions:
  status: ('A' for Active; 'I' for Inactive)
    1  A    between atoms: C_2  and  C_21
    2  A    between atoms: C_6  and  N_15
    3  A    between atoms: C_6  and  C_23
    4  A    between atoms: N_15  and  C_21
                            x       y       z     vdW  Elec       q    Type
                         _______ _______ _______ _____ _____    ______ ____

>  <TORSDO>
F 4

$$$$
=
 OpenBabel11052412393D

 25 28  0  0  1  0  0  0  0  0999 V2000
  187.2110  178.2750  142.1980 C   0  0  0  0  0  0  0  0  0  0  0  0
  186.5390  178.2820  143.4270 C   0  0  0  0  0  0  0  0  0  0  0  0
  185.1870  178.8820  141.0110 C   0  0  0  0  0  3  0  0  0  0  0  0
  188.6630  178.0760  141.9210 C   0  0  2  0  0  3  0  0  0  0  0  0
  190.6300  176.8530  140.3280 C   0  0  0  0  0  3  0  0  0  0  0  0
  184.4880  178.8750  142.2270 C   0  0  0  0  0  3  0  0  0  0  0  0
  188.6440  178.1480  140.4190 C   0  0  0  0  0  0  0  0  0  0  0  0
  189.5670  177.5890  139.6950 N   0  0  0  0  0  0  0  0  0  0  0  0
  184.4550  178.5860  144.6670 C   0  0  0  0  0  0  0  0  0  0  0  0
  182.9970  178.8920  144.7460 C   0  0  0  0  0  1  0  0  0  0  0  0
  187.2070  178.0070  144.6250 C   0  0  0  0  0  3  0  0  0  0  0  0
  190.4990  176.4460  141.6000 C   0  0  0  0  0  3  0  0  0  0  0  0
  186.5480  178.5880  141.0240 C   0  0  0  0  0  0  0  0  0  0  0  0
  187.3870  178.5480  139.8790 N   0  0  0  0  0  2  0  0  0  0  0  0
  185.1420  178.3050  145.8530 C   0  0  0  0  0  3  0  0  0  0  0  0
  189.2080  176.7080  142.3370 C   0  0  0  0  0  2  0  0  0  0  0  0
  186.5090  178.0120  145.8330 C   0  0  0  0  0  0  0  0  0  0  0  0
  185.1480  178.5790  143.4400 C   0  0  0  0  0  0  0  0  0  0  0  0
  187.2280  177.7410  147.1060 C   0  0  0  0  0  2  0  0  0  0  0  0
  188.3180  176.7990  146.8670 N   0  0  0  0  0  2  0  0  0  0  0  0
  189.4680  177.1050  147.7210 C   0  0  2  0  0  3  0  0  0  0  0  0
  189.2930  178.3770  148.4120 N   0  0  0  0  0  1  0  0  0  0  0  0
  190.7610  177.0620  146.9660 C   0  0  0  0  0  0  0  0  0  0  0  0
  190.7660  177.3200  145.6010 O   0  0  0  0  0  0  0  0  0  0  0  0
  191.8470  176.8310  147.5610 O   0  0  0  0  0  1  0  0  0  0  0  0
  1  2  1  0  0  0  0
  2 18  2  0  0  0  0
  2 11  1  0  0  0  0
  3 13  1  0  0  0  0
  3  6  2  0  0  0  0
  4  1  1  0  0  0  0
  4 16  1  6  0  0  0
  5 12  2  0  0  0  0
  6 18  1  0  0  0  0
  7  4  1  0  0  0  0
  8  5  1  0  0  0  0
  8  7  2  0  0  0  0
  9 10  1  0  0  0  0
  9 15  2  0  0  0  0
 11 17  2  0  0  0  0
 12 16  1  0  0  0  0
 13  1  2  0  0  0  0
 14  7  1  0  0  0  0
 14 13  1  0  0  0  0
 17 15  1  0  0  0  0
 17 19  1  0  0  0  0
 18  9  1  0  0  0  0
 20 19  1  0  0  0  0
 20 21  1  0  0  0  0
 21 22  1  6  0  0  0
 23 25  1  0  0  0  0
 23 21  1  0  0  0  0
 24 23  2  0  0  0  0
M  END
>  <MODEL>
9

>  <REMARK>
 VINA RESULT:      -9.4      2.644      6.552
  Name = 
  4 active torsions:
  status: ('A' for Active; 'I' for Inactive)
    1  A    between atoms: C_2  and  C_21
    2  A    between atoms: C_6  and  N_15
    3  A    between atoms: C_6  and  C_23
    4  A    between atoms: N_15  and  C_21
                            x       y       z     vdW  Elec       q    Type
                         _______ _______ _______ _____ _____    ______ ____

>  <TORSDO>
F 4

$$$$
