=
 OpenBabel11052414073D

 34 40  0  0  1  0  0  0  0  0999 V2000
  185.0760  178.5590  143.0550 C   0  0  0  0  0  0  0  0  0  0  0  0
  185.5000  178.7930  140.5960 C   0  0  0  0  0  0  0  0  0  0  0  0
  187.3380  178.2630  142.1400 N   0  0  0  0  0  0  0  0  0  0  0  0
  189.5740  177.7130  141.2110 C   0  0  0  0  0  0  0  0  0  0  0  0
  183.2380  178.9060  141.4630 C   0  0  0  0  0  3  0  0  0  0  0  0
  184.0540  178.9730  140.4040 C   0  0  0  0  0  3  0  0  0  0  0  0
  187.6850  178.2520  139.7640 C   0  0  0  0  0  0  0  0  0  0  0  0
  186.0610  178.9620  141.9880 C   0  0  2  0  0  3  0  0  0  0  0  0
  188.5590  178.0050  138.5960 C   0  0  0  0  0  0  0  0  0  0  0  0
  190.5170  177.6430  140.0460 C   0  0  0  0  0  2  0  0  0  0  0  0
  183.7590  178.6140  142.8190 C   0  0  0  0  0  3  0  0  0  0  0  0
  187.8440  177.9380  143.4500 C   0  0  0  0  0  0  0  0  0  0  0  0
  185.5850  178.2050  144.3890 C   0  0  0  0  0  3  0  0  0  0  0  0
  186.2820  178.5280  139.5900 N   0  0  0  0  0  0  0  0  0  0  0  0
  189.9940  177.4870  142.4210 N   0  0  0  0  0  0  0  0  0  0  0  0
  189.1480  177.5740  143.5910 C   0  0  0  0  0  0  0  0  0  0  0  0
  189.8160  177.6980  138.7550 N   0  0  0  0  0  0  0  0  0  0  0  0
  188.1830  178.1050  140.9980 C   0  0  0  0  0  0  0  0  0  0  0  0
  186.8800  177.9310  144.5780 C   0  0  0  0  0  3  0  0  0  0  0  0
  189.7550  177.2290  147.3350 C   0  0  0  0  0  0  0  0  0  0  0  0
  191.0300  176.6590  147.3450 C   0  0  0  0  0  3  0  0  0  0  0  0
  189.7670  177.2370  144.9000 C   0  0  0  0  0  0  0  0  0  0  0  0
  191.6810  176.3860  146.1390 C   0  0  0  0  0  3  0  0  0  0  0  0
  189.1310  177.5220  146.1200 C   0  0  0  0  0  3  0  0  0  0  0  0
  191.0540  176.6790  144.9240 C   0  0  0  0  0  3  0  0  0  0  0  0
  189.1100  177.5070  148.5320 O   0  0  0  0  0  1  0  0  0  0  0  0
  187.9850  178.0190  137.2180 C   0  0  0  0  0  2  0  0  0  0  0  0
  189.2770  177.4580  134.5940 C   0  0  0  0  0  1  0  0  0  0  0  0
  188.0750  176.6860  136.6230 N   0  0  0  0  0  0  0  0  0  0  0  0
  188.0460  176.7610  135.1500 C   0  0  1  0  0  3  0  0  0  0  0  0
  185.5350  177.0500  135.4590 C   0  0  0  0  0  2  0  0  0  0  0  0
  185.7500  175.7510  136.2230 C   0  0  0  0  0  2  0  0  0  0  0  0
  186.9690  175.8660  137.1550 C   0  0  0  0  0  2  0  0  0  0  0  0
  186.7550  177.3870  134.5980 C   0  0  0  0  0  2  0  0  0  0  0  0
  1 13  1  0  0  0  0
  3 12  1  0  0  0  0
  4 15  2  0  0  0  0
  5 11  1  0  0  0  0
  6  2  1  0  0  0  0
  6  5  2  0  0  0  0
  7 18  2  0  0  0  0
  8  2  1  6  0  0  0
  8  3  1  0  0  0  0
  8  1  1  0  0  0  0
  9 17  2  0  0  0  0
  9  7  1  0  0  0  0
 10  4  1  0  0  0  0
 11  1  2  0  0  0  0
 12 16  2  0  0  0  0
 12 19  1  0  0  0  0
 13 19  2  0  0  0  0
 14  7  1  0  0  0  0
 14  2  2  0  0  0  0
 15 16  1  0  0  0  0
 16 22  1  0  0  0  0
 17 10  1  0  0  0  0
 18  4  1  0  0  0  0
 18  3  1  0  0  0  0
 20 21  1  0  0  0  0
 20 26  1  0  0  0  0
 22 25  2  0  0  0  0
 22 24  1  0  0  0  0
 23 21  2  0  0  0  0
 24 20  2  0  0  0  0
 25 23  1  0  0  0  0
 27  9  1  0  0  0  0
 29 33  1  0  0  0  0
 29 27  1  0  0  0  0
 30 28  1  1  0  0  0
 30 29  1  0  0  0  0
 31 32  1  0  0  0  0
 32 33  1  0  0  0  0
 34 30  1  0  0  0  0
 34 31  1  0  0  0  0
M  END
>  <MODEL>
1

>  <REMARK>
 VINA RESULT:     -10.9      0.000      0.000
  Name = 
  3 active torsions:
  status: ('A' for Active; 'I' for Inactive)
    1  A    between atoms: C_3  and  N_13
    2  A    between atoms: C_3  and  C_17
    3  A    between atoms: C_12  and  C_28
                            x       y       z     vdW  Elec       q    Type
                         _______ _______ _______ _____ _____    ______ ____

>  <TORSDO>
F 3

$$$$
=
 OpenBabel11052414073D

 34 40  0  0  1  0  0  0  0  0999 V2000
  184.6440  178.5930  142.1280 C   0  0  0  0  0  0  0  0  0  0  0  0
  185.8210  178.5980  139.9150 C   0  0  0  0  0  0  0  0  0  0  0  0
  187.0820  178.3010  142.0040 N   0  0  0  0  0  0  0  0  0  0  0  0
  189.5010  177.7550  141.8860 C   0  0  0  0  0  0  0  0  0  0  0  0
  183.4000  178.7020  140.0130 C   0  0  0  0  0  3  0  0  0  0  0  0
  184.5080  178.6980  139.2620 C   0  0  0  0  0  3  0  0  0  0  0  0
  188.1610  178.0680  139.8720 C   0  0  0  0  0  0  0  0  0  0  0  0
  185.9130  178.9280  141.3860 C   0  0  2  0  0  3  0  0  0  0  0  0
  189.3600  177.7420  139.0700 C   0  0  0  0  0  0  0  0  0  0  0  0
  190.7640  177.6090  141.0900 C   0  0  0  0  0  2  0  0  0  0  0  0
  183.4690  178.5690  141.4870 C   0  0  0  0  0  3  0  0  0  0  0  0
  187.1520  178.1300  143.4340 C   0  0  0  0  0  0  0  0  0  0  0  0
  184.7100  178.3940  143.5840 C   0  0  0  0  0  3  0  0  0  0  0  0
  186.8830  178.2670  139.2390 N   0  0  0  0  0  0  0  0  0  0  0  0
  189.5200  177.6680  143.1830 N   0  0  0  0  0  0  0  0  0  0  0  0
  188.3480  177.8360  144.0140 C   0  0  0  0  0  0  0  0  0  0  0  0
  190.5060  177.5050  139.6460 N   0  0  0  0  0  0  0  0  0  0  0  0
  188.2450  178.0660  141.2080 C   0  0  0  0  0  0  0  0  0  0  0  0
  185.8810  178.1950  144.1970 C   0  0  0  0  0  3  0  0  0  0  0  0
  189.8810  177.0870  147.4190 C   0  0  0  0  0  0  0  0  0  0  0  0
  188.7690  177.2440  148.2500 C   0  0  0  0  0  3  0  0  0  0  0  0
  188.5240  177.6570  145.4790 C   0  0  0  0  0  0  0  0  0  0  0  0
  187.5340  177.5970  147.7010 C   0  0  0  0  0  3  0  0  0  0  0  0
  189.7570  177.2850  146.0410 C   0  0  0  0  0  3  0  0  0  0  0  0
  187.4120  177.7970  146.3230 C   0  0  0  0  0  3  0  0  0  0  0  0
  191.1080  176.7300  147.9610 O   0  0  0  0  0  1  0  0  0  0  0  0
  189.2510  177.5950  137.5880 C   0  0  0  0  0  2  0  0  0  0  0  0
  191.6200  176.1400  136.5210 C   0  0  0  0  0  1  0  0  0  0  0  0
  189.2400  176.1780  137.2240 N   0  0  0  0  0  0  0  0  0  0  0  0
  190.1740  175.9120  136.1130 C   0  0  1  0  0  3  0  0  0  0  0  0
  188.3190  176.8630  134.6510 C   0  0  0  0  0  2  0  0  0  0  0  0
  187.5510  175.7660  135.3760 C   0  0  0  0  0  2  0  0  0  0  0  0
  187.8560  175.7990  136.8830 C   0  0  0  0  0  2  0  0  0  0  0  0
  189.8290  176.6830  134.8300 C   0  0  0  0  0  2  0  0  0  0  0  0
  1 13  1  0  0  0  0
  3 12  1  0  0  0  0
  4 15  2  0  0  0  0
  5 11  1  0  0  0  0
  6  2  1  0  0  0  0
  6  5  2  0  0  0  0
  7 18  2  0  0  0  0
  8  2  1  6  0  0  0
  8  3  1  0  0  0  0
  8  1  1  0  0  0  0
  9 17  2  0  0  0  0
  9  7  1  0  0  0  0
 10  4  1  0  0  0  0
 11  1  2  0  0  0  0
 12 16  2  0  0  0  0
 12 19  1  0  0  0  0
 13 19  2  0  0  0  0
 14  7  1  0  0  0  0
 14  2  2  0  0  0  0
 15 16  1  0  0  0  0
 16 22  1  0  0  0  0
 17 10  1  0  0  0  0
 18  4  1  0  0  0  0
 18  3  1  0  0  0  0
 20 26  1  0  0  0  0
 20 21  1  0  0  0  0
 22 24  1  0  0  0  0
 22 25  2  0  0  0  0
 23 21  2  0  0  0  0
 24 20  2  0  0  0  0
 25 23  1  0  0  0  0
 27  9  1  0  0  0  0
 29 27  1  0  0  0  0
 30 28  1  1  0  0  0
 30 29  1  0  0  0  0
 31 34  1  0  0  0  0
 31 32  1  0  0  0  0
 32 33  1  0  0  0  0
 33 29  1  0  0  0  0
 34 30  1  0  0  0  0
M  END
>  <MODEL>
2

>  <REMARK>
 VINA RESULT:     -10.4      1.230      1.823
  Name = 
  3 active torsions:
  status: ('A' for Active; 'I' for Inactive)
    1  A    between atoms: C_3  and  N_13
    2  A    between atoms: C_3  and  C_17
    3  A    between atoms: C_12  and  C_28
                            x       y       z     vdW  Elec       q    Type
                         _______ _______ _______ _____ _____    ______ ____

>  <TORSDO>
F 3

$$$$
=
 OpenBabel11052414073D

 34 40  0  0  1  0  0  0  0  0999 V2000
  184.9340  178.4140  140.7700 C   0  0  0  0  0  0  0  0  0  0  0  0
  186.6140  178.2190  138.9200 C   0  0  0  0  0  0  0  0  0  0  0  0
  187.3190  178.0930  141.2720 N   0  0  0  0  0  0  0  0  0  0  0  0
  189.6770  177.5190  141.7960 C   0  0  0  0  0  0  0  0  0  0  0  0
  184.2460  178.3520  138.4120 C   0  0  0  0  0  3  0  0  0  0  0  0
  185.5040  178.2730  137.9590 C   0  0  0  0  0  3  0  0  0  0  0  0
  188.8780  177.6690  139.4960 C   0  0  0  0  0  0  0  0  0  0  0  0
  186.3550  178.6740  140.3370 C   0  0  2  0  0  3  0  0  0  0  0  0
  190.2260  177.2650  139.0420 C   0  0  0  0  0  0  0  0  0  0  0  0
  191.0910  177.2940  141.3480 C   0  0  0  0  0  3  0  0  0  0  0  0
  183.9500  178.3450  139.8650 C   0  0  0  0  0  3  0  0  0  0  0  0
  187.0330  178.0450  142.6840 C   0  0  0  0  0  0  0  0  0  0  0  0
  184.6370  178.3420  142.2090 C   0  0  0  0  0  3  0  0  0  0  0  0
  187.7990  177.8220  138.5540 N   0  0  0  0  0  0  0  0  0  0  0  0
  189.3770  177.5440  143.0610 N   0  0  0  0  0  0  0  0  0  0  0  0
  188.0430  177.7930  143.5620 C   0  0  0  0  0  0  0  0  0  0  0  0
  191.1900  177.0680  139.8990 N   0  0  0  0  0  0  0  0  0  0  0  0
  188.6340  177.7800  140.8070 C   0  0  1  0  0  3  0  0  0  0  0  0
  185.6170  178.1870  143.1040 C   0  0  0  0  0  3  0  0  0  0  0  0
  186.5920  178.2660  147.0520 C   0  0  0  0  0  0  0  0  0  0  0  0
  187.5940  177.6880  147.8350 C   0  0  0  0  0  3  0  0  0  0  0  0
  187.8510  177.7390  145.0350 C   0  0  0  0  0  0  0  0  0  0  0  0
  188.7280  177.1450  147.2260 C   0  0  0  0  0  3  0  0  0  0  0  0
  186.7240  178.2970  145.6610 C   0  0  0  0  0  3  0  0  0  0  0  0
  188.8580  177.1760  145.8350 C   0  0  0  0  0  3  0  0  0  0  0  0
  185.4670  178.8120  147.6540 O   0  0  0  0  0  1  0  0  0  0  0  0
  190.4770  176.9910  137.5960 C   0  0  0  0  0  2  0  0  0  0  0  0
  193.2500  176.1540  136.9030 C   0  0  0  0  0  1  0  0  0  0  0  0
  190.8850  175.5980  137.4110 N   0  0  0  0  0  0  0  0  0  0  0  0
  191.9700  175.4930  136.4170 C   0  0  1  0  0  3  0  0  0  0  0  0
  190.0980  175.7410  134.7100 C   0  0  0  0  0  2  0  0  0  0  0  0
  189.5780  174.5520  135.5050 C   0  0  0  0  0  2  0  0  0  0  0  0
  189.6980  174.8170  137.0160 C   0  0  0  0  0  2  0  0  0  0  0  0
  191.5720  176.0070  135.0250 C   0  0  0  0  0  2  0  0  0  0  0  0
  1 13  1  0  0  0  0
  3 12  1  0  0  0  0
  4 15  2  0  0  0  0
  5 11  1  0  0  0  0
  6  5  2  0  0  0  0
  6  2  1  0  0  0  0
  8  2  1  6  0  0  0
  8  1  1  0  0  0  0
  8  3  1  0  0  0  0
  9  7  2  0  0  0  0
  9 17  1  0  0  0  0
 10  4  1  0  0  0  0
 11  1  2  0  0  0  0
 12 19  1  0  0  0  0
 12 16  2  0  0  0  0
 13 19  2  0  0  0  0
 14  2  2  0  0  0  0
 14  7  1  0  0  0  0
 15 16  1  0  0  0  0
 16 22  1  0  0  0  0
 17 10  2  0  0  0  0
 18  7  1  6  0  0  0
 18  3  1  0  0  0  0
 18  4  1  0  0  0  0
 20 26  1  0  0  0  0
 20 21  1  0  0  0  0
 22 24  1  0  0  0  0
 22 25  2  0  0  0  0
 23 21  2  0  0  0  0
 24 20  2  0  0  0  0
 25 23  1  0  0  0  0
 27  9  1  0  0  0  0
 29 27  1  0  0  0  0
 30 28  1  1  0  0  0
 30 29  1  0  0  0  0
 31 34  1  0  0  0  0
 31 32  1  0  0  0  0
 32 33  1  0  0  0  0
 33 29  1  0  0  0  0
 34 30  1  0  0  0  0
M  END
>  <MODEL>
3

>  <REMARK>
 VINA RESULT:     -10.0      2.009      2.812
  Name = 
  3 active torsions:
  status: ('A' for Active; 'I' for Inactive)
    1  A    between atoms: C_3  and  N_13
    2  A    between atoms: C_3  and  C_17
    3  A    between atoms: C_12  and  C_28
                            x       y       z     vdW  Elec       q    Type
                         _______ _______ _______ _____ _____    ______ ____

>  <TORSDO>
F 3

$$$$
=
 OpenBabel11052414073D

 34 40  0  0  1  0  0  0  0  0999 V2000
  188.2430  177.8110  138.2100 C   0  0  0  0  0  0  0  0  0  0  0  0
  189.3280  177.5180  140.4500 C   0  0  0  0  0  0  0  0  0  0  0  0
  186.9880  178.2530  140.2770 N   0  0  0  0  0  0  0  0  0  0  0  0
  185.6320  178.4600  142.3460 C   0  0  0  0  0  0  0  0  0  0  0  0
  190.5160  176.9040  138.4270 C   0  0  0  0  0  3  0  0  0  0  0  0
  190.5240  177.0150  139.7620 C   0  0  0  0  0  3  0  0  0  0  0  0
  187.9610  177.7390  142.4110 C   0  0  0  0  0  0  0  0  0  0  0  0
  188.3060  178.2810  139.6410 C   0  0  2  0  0  3  0  0  0  0  0  0
  187.8290  177.5710  143.8740 C   0  0  0  0  0  0  0  0  0  0  0  0
  185.5380  178.4760  143.8430 C   0  0  0  0  0  3  0  0  0  0  0  0
  189.3100  177.2410  137.6350 C   0  0  0  0  0  3  0  0  0  0  0  0
  185.8000  178.5420  139.5140 C   0  0  0  0  0  0  0  0  0  0  0  0
  187.0260  178.0820  137.4300 C   0  0  0  0  0  3  0  0  0  0  0  0
  189.1670  177.3420  141.7300 N   0  0  0  0  0  0  0  0  0  0  0  0
  184.6040  178.7710  141.6120 N   0  0  0  0  0  0  0  0  0  0  0  0
  184.6360  178.8120  140.1670 C   0  0  0  0  0  0  0  0  0  0  0  0
  186.7170  177.8760  144.4840 N   0  0  0  0  0  0  0  0  0  0  0  0
  186.9070  178.1580  141.7010 C   0  0  1  0  0  3  0  0  0  0  0  0
  185.8890  178.4400  138.0360 C   0  0  0  0  0  3  0  0  0  0  0  0
  181.8370  180.7250  138.4300 C   0  0  0  0  0  0  0  0  0  0  0  0
  180.9000  179.7070  138.2410 C   0  0  0  0  0  3  0  0  0  0  0  0
  183.3640  179.1380  139.4700 C   0  0  0  0  0  0  0  0  0  0  0  0
  181.1840  178.4090  138.6720 C   0  0  0  0  0  3  0  0  0  0  0  0
  183.0590  180.4430  139.0470 C   0  0  0  0  0  3  0  0  0  0  0  0
  182.4070  178.1290  139.2880 C   0  0  0  0  0  3  0  0  0  0  0  0
  181.5550  182.0170  138.0090 O   0  0  0  0  0  1  0  0  0  0  0  0
  188.9430  176.9660  144.6610 C   0  0  0  0  0  2  0  0  0  0  0  0
  191.5190  178.1950  143.8070 C   0  0  0  0  0  1  0  0  0  0  0  0
  189.6430  178.0020  145.4210 N   0  0  0  0  0  0  0  0  0  0  0  0
  191.1030  177.8970  145.2380 C   0  0  1  0  0  3  0  0  0  0  0  0
  190.9300  176.0040  146.9330 C   0  0  0  0  0  2  0  0  0  0  0  0
  190.2670  177.1270  147.7190 C   0  0  0  0  0  2  0  0  0  0  0  0
  189.2540  177.8780  146.8390 C   0  0  0  0  0  2  0  0  0  0  0  0
  191.6800  176.5560  145.7180 C   0  0  0  0  0  2  0  0  0  0  0  0
  2 14  2  0  0  0  0
  3 18  1  0  0  0  0
  4 10  1  0  0  0  0
  5  6  2  0  0  0  0
  6  2  1  0  0  0  0
  7  9  2  0  0  0  0
  8  1  1  6  0  0  0
  8  3  1  0  0  0  0
  8  2  1  0  0  0  0
  9 17  1  0  0  0  0
  9 27  1  0  0  0  0
 10 17  2  0  0  0  0
 11  1  2  0  0  0  0
 11  5  1  0  0  0  0
 12 16  2  0  0  0  0
 12  3  1  0  0  0  0
 13 19  2  0  0  0  0
 13  1  1  0  0  0  0
 14  7  1  0  0  0  0
 15  4  2  0  0  0  0
 16 15  1  0  0  0  0
 18  4  1  6  0  0  0
 18  7  1  0  0  0  0
 19 12  1  0  0  0  0
 20 24  1  0  0  0  0
 21 20  2  0  0  0  0
 21 23  1  0  0  0  0
 22 16  1  0  0  0  0
 23 25  2  0  0  0  0
 24 22  2  0  0  0  0
 25 22  1  0  0  0  0
 26 20  1  0  0  0  0
 27 29  1  0  0  0  0
 29 33  1  0  0  0  0
 30 28  1  6  0  0  0
 30 29  1  0  0  0  0
 30 34  1  0  0  0  0
 31 32  1  0  0  0  0
 33 32  1  0  0  0  0
 34 31  1  0  0  0  0
M  END
>  <MODEL>
4

>  <REMARK>
 VINA RESULT:      -9.9      2.917      8.512
  Name = 
  3 active torsions:
  status: ('A' for Active; 'I' for Inactive)
    1  A    between atoms: C_3  and  N_13
    2  A    between atoms: C_3  and  C_17
    3  A    between atoms: C_12  and  C_28
                            x       y       z     vdW  Elec       q    Type
                         _______ _______ _______ _____ _____    ______ ____

>  <TORSDO>
F 3

$$$$
=
 OpenBabel11052414073D

 34 40  0  0  1  0  0  0  0  0999 V2000
  184.3800  178.6280  144.4480 C   0  0  0  0  0  0  0  0  0  0  0  0
  183.8940  178.9290  142.0080 C   0  0  0  0  0  0  0  0  0  0  0  0
  186.1690  178.4010  142.7780 N   0  0  0  0  0  0  0  0  0  0  0  0
  187.9300  177.9200  141.0960 C   0  0  0  0  0  0  0  0  0  0  0  0
  182.0900  178.9740  143.6290 C   0  0  0  0  0  3  0  0  0  0  0  0
  182.4740  179.0830  142.3510 C   0  0  0  0  0  3  0  0  0  0  0  0
  185.6430  178.4530  140.4350 C   0  0  0  0  0  0  0  0  0  0  0  0
  184.9140  179.0760  143.1120 C   0  0  2  0  0  3  0  0  0  0  0  0
  186.0440  178.2510  139.0260 C   0  0  0  0  0  0  0  0  0  0  0  0
  188.3950  177.8960  139.6690 C   0  0  0  0  0  2  0  0  0  0  0  0
  183.0660  178.6610  144.7000 C   0  0  0  0  0  3  0  0  0  0  0  0
  187.1130  178.0560  143.8100 C   0  0  0  0  0  0  0  0  0  0  0  0
  185.3370  178.2530  145.5010 C   0  0  0  0  0  3  0  0  0  0  0  0
  184.2680  178.7030  140.7820 N   0  0  0  0  0  0  0  0  0  0  0  0
  188.7570  177.6730  142.0680 N   0  0  0  0  0  0  0  0  0  0  0  0
  188.3860  177.7150  143.4650 C   0  0  0  0  0  0  0  0  0  0  0  0
  187.2780  177.9660  138.7160 N   0  0  0  0  0  0  0  0  0  0  0  0
  186.5510  178.2870  141.4050 C   0  0  0  0  0  0  0  0  0  0  0  0
  186.6160  178.0020  145.2070 C   0  0  0  0  0  3  0  0  0  0  0  0
  190.2890  177.2810  146.7360 C   0  0  0  0  0  0  0  0  0  0  0  0
  191.4950  176.7540  146.2710 C   0  0  0  0  0  3  0  0  0  0  0  0
  189.4350  177.3610  144.4570 C   0  0  0  0  0  0  0  0  0  0  0  0
  191.6810  176.5380  144.9040 C   0  0  0  0  0  3  0  0  0  0  0  0
  189.2680  177.5890  145.8330 C   0  0  0  0  0  3  0  0  0  0  0  0
  190.6580  176.8450  144.0020 C   0  0  0  0  0  3  0  0  0  0  0  0
  190.1040  177.5030  148.0930 O   0  0  0  0  0  1  0  0  0  0  0  0
  185.0150  178.2860  137.9450 C   0  0  0  0  0  2  0  0  0  0  0  0
  185.8950  177.1310  135.3440 C   0  0  0  0  0  1  0  0  0  0  0  0
  184.6990  176.9250  137.5090 N   0  0  0  0  0  0  0  0  0  0  0  0
  184.5720  176.8570  136.0400 C   0  0  1  0  0  3  0  0  0  0  0  0
  182.2620  177.8510  136.4390 C   0  0  0  0  0  2  0  0  0  0  0  0
  182.1850  176.6260  137.3400 C   0  0  0  0  0  2  0  0  0  0  0  0
  183.4610  176.4970  138.1890 C   0  0  0  0  0  2  0  0  0  0  0  0
  183.4540  177.7520  135.4840 C   0  0  0  0  0  2  0  0  0  0  0  0
  1 11  2  0  0  0  0
  1 13  1  0  0  0  0
  2  6  1  0  0  0  0
  3  8  1  0  0  0  0
  3 12  1  0  0  0  0
  4 18  1  0  0  0  0
  4 15  2  0  0  0  0
  5 11  1  0  0  0  0
  6  5  2  0  0  0  0
  7 14  1  0  0  0  0
  7 18  2  0  0  0  0
  8  2  1  6  0  0  0
  8  1  1  0  0  0  0
  9  7  1  0  0  0  0
 10  4  1  0  0  0  0
 12 19  1  0  0  0  0
 14  2  2  0  0  0  0
 15 16  1  0  0  0  0
 16 12  2  0  0  0  0
 16 22  1  0  0  0  0
 17  9  2  0  0  0  0
 17 10  1  0  0  0  0
 18  3  1  0  0  0  0
 19 13  2  0  0  0  0
 20 26  1  0  0  0  0
 21 20  1  0  0  0  0
 22 24  1  0  0  0  0
 23 21  2  0  0  0  0
 24 20  2  0  0  0  0
 25 22  2  0  0  0  0
 25 23  1  0  0  0  0
 27  9  1  0  0  0  0
 29 27  1  0  0  0  0
 29 33  1  0  0  0  0
 30 28  1  6  0  0  0
 30 29  1  0  0  0  0
 31 32  1  0  0  0  0
 32 33  1  0  0  0  0
 34 30  1  0  0  0  0
 34 31  1  0  0  0  0
M  END
>  <MODEL>
5

>  <REMARK>
 VINA RESULT:      -9.6      1.665      2.246
  Name = 
  3 active torsions:
  status: ('A' for Active; 'I' for Inactive)
    1  A    between atoms: C_3  and  N_13
    2  A    between atoms: C_3  and  C_17
    3  A    between atoms: C_12  and  C_28
                            x       y       z     vdW  Elec       q    Type
                         _______ _______ _______ _____ _____    ______ ____

>  <TORSDO>
F 3

$$$$
=
 OpenBabel11052414073D

 34 40  0  0  1  0  0  0  0  0999 V2000
  184.4870  178.6340  144.6570 C   0  0  0  0  0  0  0  0  0  0  0  0
  183.6560  179.0170  142.3240 C   0  0  0  0  0  0  0  0  0  0  0  0
  186.0240  178.5050  142.7430 N   0  0  0  0  0  0  0  0  0  0  0  0
  187.5350  178.1230  140.8110 C   0  0  0  0  0  0  0  0  0  0  0  0
  182.0990  178.9660  144.1840 C   0  0  0  0  0  3  0  0  0  0  0  0
  182.2960  179.1310  142.8700 C   0  0  0  0  0  3  0  0  0  0  0  0
  185.1700  178.6360  140.5020 C   0  0  0  0  0  0  0  0  0  0  0  0
  184.8200  179.1430  143.2780 C   0  0  2  0  0  3  0  0  0  0  0  0
  185.3700  178.4960  139.0430 C   0  0  0  0  0  0  0  0  0  0  0  0
  187.7930  178.1630  139.3340 C   0  0  0  0  0  2  0  0  0  0  0  0
  183.2210  178.6320  145.0930 C   0  0  0  0  0  3  0  0  0  0  0  0
  187.1090  178.1400  143.6170 C   0  0  0  0  0  0  0  0  0  0  0  0
  185.5880  178.2380  145.5490 C   0  0  0  0  0  3  0  0  0  0  0  0
  183.8550  178.8460  141.0490 N   0  0  0  0  0  0  0  0  0  0  0  0
  188.4960  177.8560  141.6460 N   0  0  0  0  0  0  0  0  0  0  0  0
  188.3250  177.8380  143.0830 C   0  0  0  0  0  0  0  0  0  0  0  0
  186.5520  178.2470  138.5510 N   0  0  0  0  0  0  0  0  0  0  0  0
  186.2080  178.4520  141.3260 C   0  0  0  0  0  0  0  0  0  0  0  0
  186.8170  178.0240  145.0670 C   0  0  0  0  0  3  0  0  0  0  0  0
  191.3840  175.9990  144.4130 C   0  0  0  0  0  0  0  0  0  0  0  0
  191.6810  176.7640  145.5430 C   0  0  0  0  0  3  0  0  0  0  0  0
  189.5090  177.4670  143.9010 C   0  0  0  0  0  0  0  0  0  0  0  0
  190.8920  177.8720  145.8620 C   0  0  0  0  0  3  0  0  0  0  0  0
  190.3000  176.3450  143.6010 C   0  0  0  0  0  3  0  0  0  0  0  0
  189.8090  178.2170  145.0480 C   0  0  0  0  0  3  0  0  0  0  0  0
  192.1630  174.8950  144.0970 O   0  0  0  0  0  1  0  0  0  0  0  0
  184.1980  178.5510  138.1210 C   0  0  0  0  0  2  0  0  0  0  0  0
  184.8150  177.1220  135.5810 C   0  0  0  0  0  1  0  0  0  0  0  0
  183.7350  177.1970  137.8140 N   0  0  0  0  0  0  0  0  0  0  0  0
  183.5170  177.0290  136.3650 C   0  0  1  0  0  3  0  0  0  0  0  0
  181.3330  178.2640  136.8000 C   0  0  0  0  0  2  0  0  0  0  0  0
  181.1990  177.1250  137.8010 C   0  0  0  0  0  2  0  0  0  0  0  0
  182.5070  176.9420  138.5910 C   0  0  0  0  0  2  0  0  0  0  0  0
  182.4530  177.9800  135.7960 C   0  0  0  0  0  2  0  0  0  0  0  0
  1 11  2  0  0  0  0
  1 13  1  0  0  0  0
  2  6  1  0  0  0  0
  3  8  1  0  0  0  0
  3 12  1  0  0  0  0
  4 18  1  0  0  0  0
  4 15  2  0  0  0  0
  5 11  1  0  0  0  0
  6  5  2  0  0  0  0
  7 14  1  0  0  0  0
  7 18  2  0  0  0  0
  8  2  1  6  0  0  0
  8  1  1  0  0  0  0
  9  7  1  0  0  0  0
 10  4  1  0  0  0  0
 12 19  1  0  0  0  0
 14  2  2  0  0  0  0
 15 16  1  0  0  0  0
 16 12  2  0  0  0  0
 16 22  1  0  0  0  0
 17  9  2  0  0  0  0
 17 10  1  0  0  0  0
 18  3  1  0  0  0  0
 19 13  2  0  0  0  0
 20 21  1  0  0  0  0
 21 23  2  0  0  0  0
 22 25  2  0  0  0  0
 24 22  1  0  0  0  0
 24 20  2  0  0  0  0
 25 23  1  0  0  0  0
 26 20  1  0  0  0  0
 27  9  1  0  0  0  0
 29 27  1  0  0  0  0
 29 33  1  0  0  0  0
 30 28  1  6  0  0  0
 30 29  1  0  0  0  0
 31 32  1  0  0  0  0
 32 33  1  0  0  0  0
 34 30  1  0  0  0  0
 34 31  1  0  0  0  0
M  END
>  <MODEL>
6

>  <REMARK>
 VINA RESULT:      -9.6      2.168      3.141
  Name = 
  3 active torsions:
  status: ('A' for Active; 'I' for Inactive)
    1  A    between atoms: C_3  and  N_13
    2  A    between atoms: C_3  and  C_17
    3  A    between atoms: C_12  and  C_28
                            x       y       z     vdW  Elec       q    Type
                         _______ _______ _______ _____ _____    ______ ____

>  <TORSDO>
F 3

$$$$
=
 OpenBabel11052414073D

 34 40  0  0  1  0  0  0  0  0999 V2000
  185.7950  178.1810  145.9510 C   0  0  0  0  0  0  0  0  0  0  0  0
  187.7530  177.8050  144.4330 C   0  0  0  0  0  0  0  0  0  0  0  0
  185.5100  178.2090  143.5100 N   0  0  0  0  0  0  0  0  0  0  0  0
  185.2470  178.4920  141.0580 C   0  0  0  0  0  0  0  0  0  0  0  0
  188.0780  177.9570  146.8310 C   0  0  0  0  0  3  0  0  0  0  0  0
  188.6170  177.7650  145.6200 C   0  0  0  0  0  3  0  0  0  0  0  0
  187.4290  178.0880  142.0710 C   0  0  0  0  0  0  0  0  0  0  0  0
  186.2650  177.6380  144.6260 C   0  0  2  0  0  3  0  0  0  0  0  0
  188.0320  178.1990  140.7250 C   0  0  0  0  0  0  0  0  0  0  0  0
  185.8160  178.4190  139.6710 C   0  0  0  0  0  2  0  0  0  0  0  0
  186.6340  178.2500  146.9920 C   0  0  0  0  0  3  0  0  0  0  0  0
  184.1140  178.5340  143.6590 C   0  0  0  0  0  0  0  0  0  0  0  0
  184.3760  178.5360  146.1060 C   0  0  0  0  0  3  0  0  0  0  0  0
  188.2580  177.9490  143.2410 N   0  0  0  0  0  0  0  0  0  0  0  0
  183.9810  178.7240  141.2440 N   0  0  0  0  0  0  0  0  0  0  0  0
  183.3610  178.7700  142.5500 C   0  0  0  0  0  0  0  0  0  0  0  0
  187.2860  178.3830  139.6710 N   0  0  0  0  0  0  0  0  0  0  0  0
  186.1060  178.2340  142.2110 C   0  0  0  0  0  0  0  0  0  0  0  0
  183.5860  178.6850  145.0380 C   0  0  0  0  0  3  0  0  0  0  0  0
  179.7250  178.9800  143.6670 C   0  0  0  0  0  0  0  0  0  0  0  0
  179.1570  179.6630  142.5900 C   0  0  0  0  0  3  0  0  0  0  0  0
  181.9110  179.0960  142.6000 C   0  0  0  0  0  0  0  0  0  0  0  0
  179.9560  180.0540  141.5130 C   0  0  0  0  0  3  0  0  0  0  0  0
  181.0930  178.6930  143.6690 C   0  0  0  0  0  3  0  0  0  0  0  0
  181.3240  179.7670  141.5160 C   0  0  0  0  0  3  0  0  0  0  0  0
  178.9320  178.5850  144.7360 O   0  0  0  0  0  1  0  0  0  0  0  0
  189.5160  178.1860  140.5690 C   0  0  0  0  0  2  0  0  0  0  0  0
  191.2910  177.1830  142.7400 C   0  0  0  0  0  1  0  0  0  0  0  0
  190.0180  176.8140  140.6420 N   0  0  0  0  0  0  0  0  0  0  0  0
  191.3480  176.7700  141.2780 C   0  0  1  0  0  3  0  0  0  0  0  0
  192.1910  177.5370  139.0010 C   0  0  0  0  0  2  0  0  0  0  0  0
  191.4210  176.2880  138.5940 C   0  0  0  0  0  2  0  0  0  0  0  0
  190.0420  176.2570  139.2760 C   0  0  0  0  0  2  0  0  0  0  0  0
  192.4140  177.5720  140.5150 C   0  0  0  0  0  2  0  0  0  0  0  0
  1 13  1  0  0  0  0
  1 11  2  0  0  0  0
  2  6  1  0  0  0  0
  3 12  1  0  0  0  0
  3  8  1  0  0  0  0
  4 15  2  0  0  0  0
  4 18  1  0  0  0  0
  5 11  1  0  0  0  0
  6  5  2  0  0  0  0
  7 18  2  0  0  0  0
  7 14  1  0  0  0  0
  8  2  1  6  0  0  0
  8  1  1  0  0  0  0
  9  7  1  0  0  0  0
 10 17  1  0  0  0  0
 10  4  1  0  0  0  0
 12 19  1  0  0  0  0
 14  2  2  0  0  0  0
 15 16  1  0  0  0  0
 16 22  1  0  0  0  0
 16 12  2  0  0  0  0
 17  9  2  0  0  0  0
 18  3  1  0  0  0  0
 19 13  2  0  0  0  0
 20 24  1  0  0  0  0
 20 26  1  0  0  0  0
 21 20  2  0  0  0  0
 22 24  2  0  0  0  0
 23 25  2  0  0  0  0
 23 21  1  0  0  0  0
 25 22  1  0  0  0  0
 27 29  1  0  0  0  0
 27  9  1  0  0  0  0
 29 30  1  0  0  0  0
 30 28  1  1  0  0  0
 31 34  1  0  0  0  0
 32 31  1  0  0  0  0
 32 33  1  0  0  0  0
 33 29  1  0  0  0  0
 34 30  1  0  0  0  0
M  END
>  <MODEL>
7

>  <REMARK>
 VINA RESULT:      -9.5      3.114      6.707
  Name = 
  3 active torsions:
  status: ('A' for Active; 'I' for Inactive)
    1  A    between atoms: C_3  and  N_13
    2  A    between atoms: C_3  and  C_17
    3  A    between atoms: C_12  and  C_28
                            x       y       z     vdW  Elec       q    Type
                         _______ _______ _______ _____ _____    ______ ____

>  <TORSDO>
F 3

$$$$
=
 OpenBabel11052414073D

 34 40  0  0  1  0  0  0  0  0999 V2000
  189.5820  177.7120  140.1350 C   0  0  0  0  0  0  0  0  0  0  0  0
  187.3140  178.1600  139.1690 C   0  0  0  0  0  0  0  0  0  0  0  0
  187.6080  177.8680  141.5920 N   0  0  0  0  0  0  0  0  0  0  0  0
  185.6780  178.2700  143.1000 C   0  0  0  0  0  0  0  0  0  0  0  0
  189.2770  178.1900  137.7450 C   0  0  0  0  0  3  0  0  0  0  0  0
  187.9470  178.3030  137.8510 C   0  0  0  0  0  3  0  0  0  0  0  0
  185.4880  178.5340  140.6820 C   0  0  0  0  0  0  0  0  0  0  0  0
  188.0980  177.4830  140.2670 C   0  0  2  0  0  3  0  0  0  0  0  0
  184.0870  178.9650  140.8770 C   0  0  0  0  0  0  0  0  0  0  0  0
  184.2120  178.5220  143.2970 C   0  0  0  0  0  3  0  0  0  0  0  0
  190.1260  177.9630  138.9380 C   0  0  0  0  0  3  0  0  0  0  0  0
  188.4340  177.6880  142.7590 C   0  0  0  0  0  0  0  0  0  0  0  0
  190.4300  177.5520  141.3270 C   0  0  0  0  0  3  0  0  0  0  0  0
  186.0970  178.5750  139.3770 N   0  0  0  0  0  0  0  0  0  0  0  0
  186.4550  178.0440  144.1170 N   0  0  0  0  0  0  0  0  0  0  0  0
  187.8680  177.7580  143.9960 C   0  0  0  0  0  0  0  0  0  0  0  0
  183.5530  178.9840  142.0660 N   0  0  0  0  0  0  0  0  0  0  0  0
  186.2300  178.2120  141.7490 C   0  0  1  0  0  3  0  0  0  0  0  0
  189.8940  177.5240  142.5510 C   0  0  0  0  0  3  0  0  0  0  0  0
  190.6720  177.0110  146.4620 C   0  0  0  0  0  0  0  0  0  0  0  0
  189.9960  177.1370  147.6770 C   0  0  0  0  0  3  0  0  0  0  0  0
  188.6320  177.5700  145.2570 C   0  0  0  0  0  0  0  0  0  0  0  0
  188.6390  177.4690  147.6880 C   0  0  0  0  0  3  0  0  0  0  0  0
  189.9920  177.2190  145.2590 C   0  0  0  0  0  3  0  0  0  0  0  0
  187.9600  177.6780  146.4850 C   0  0  0  0  0  3  0  0  0  0  0  0
  192.0190  176.6760  146.4480 O   0  0  0  0  0  1  0  0  0  0  0  0
  183.2930  179.4680  139.7180 C   0  0  0  0  0  2  0  0  0  0  0  0
  182.7700  176.9480  138.2190 C   0  0  0  0  0  1  0  0  0  0  0  0
  181.9910  178.8010  139.6730 N   0  0  0  0  0  0  0  0  0  0  0  0
  181.7980  178.1040  138.3880 C   0  0  1  0  0  3  0  0  0  0  0  0
  181.2510  180.4230  137.4920 C   0  0  0  0  0  2  0  0  0  0  0  0
  180.2570  180.3410  138.6430 C   0  0  0  0  0  2  0  0  0  0  0  0
  180.9450  179.8140  139.9140 C   0  0  0  0  0  2  0  0  0  0  0  0
  181.8340  179.0440  137.1740 C   0  0  0  0  0  2  0  0  0  0  0  0
  1  8  1  0  0  0  0
  1 13  1  0  0  0  0
  2 14  2  0  0  0  0
  3 18  1  0  0  0  0
  3 12  1  0  0  0  0
  4 10  1  0  0  0  0
  4 15  2  0  0  0  0
  5  6  2  0  0  0  0
  5 11  1  0  0  0  0
  6  2  1  0  0  0  0
  7  9  2  0  0  0  0
  8  2  1  6  0  0  0
  8  3  1  0  0  0  0
  9 17  1  0  0  0  0
 11  1  2  0  0  0  0
 12 16  2  0  0  0  0
 13 19  2  0  0  0  0
 14  7  1  0  0  0  0
 16 15  1  0  0  0  0
 16 22  1  0  0  0  0
 17 10  2  0  0  0  0
 18  7  1  1  0  0  0
 18  4  1  0  0  0  0
 19 12  1  0  0  0  0
 20 21  1  0  0  0  0
 21 23  2  0  0  0  0
 22 24  1  0  0  0  0
 22 25  2  0  0  0  0
 24 20  2  0  0  0  0
 25 23  1  0  0  0  0
 26 20  1  0  0  0  0
 27  9  1  0  0  0  0
 29 27  1  0  0  0  0
 29 33  1  0  0  0  0
 30 28  1  6  0  0  0
 30 29  1  0  0  0  0
 31 32  1  0  0  0  0
 32 33  1  0  0  0  0
 34 31  1  0  0  0  0
 34 30  1  0  0  0  0
M  END
>  <MODEL>
8

>  <REMARK>
 VINA RESULT:      -9.4      2.103      4.897
  Name = 
  3 active torsions:
  status: ('A' for Active; 'I' for Inactive)
    1  A    between atoms: C_3  and  N_13
    2  A    between atoms: C_3  and  C_17
    3  A    between atoms: C_12  and  C_28
                            x       y       z     vdW  Elec       q    Type
                         _______ _______ _______ _____ _____    ______ ____

>  <TORSDO>
F 3

$$$$
=
 OpenBabel11052414073D

 34 40  0  0  1  0  0  0  0  0999 V2000
  182.3450  178.9880  143.0210 C   0  0  0  0  0  0  0  0  0  0  0  0
  184.7940  178.5220  143.2770 C   0  0  0  0  0  0  0  0  0  0  0  0
  183.7760  178.6820  141.0450 N   0  0  0  0  0  0  0  0  0  0  0  0
  185.2430  178.6280  139.0430 C   0  0  0  0  0  0  0  0  0  0  0  0
  183.4300  179.0030  145.2240 C   0  0  0  0  0  3  0  0  0  0  0  0
  184.6320  178.6830  144.7290 C   0  0  0  0  0  3  0  0  0  0  0  0
  186.1550  178.4770  141.3010 C   0  0  0  0  0  0  0  0  0  0  0  0
  183.5560  178.3020  142.4410 C   0  0  2  0  0  3  0  0  0  0  0  0
  187.5100  178.4420  140.7100 C   0  0  0  0  0  0  0  0  0  0  0  0
  186.5910  178.4050  138.4240 C   0  0  0  0  0  2  0  0  0  0  0  0
  182.2690  179.2370  144.3340 C   0  0  0  0  0  3  0  0  0  0  0  0
  182.6590  178.9490  140.1740 C   0  0  0  0  0  0  0  0  0  0  0  0
  181.2100  179.2840  142.1330 C   0  0  0  0  0  3  0  0  0  0  0  0
  185.9750  178.5350  142.7290 N   0  0  0  0  0  0  0  0  0  0  0  0
  184.1930  178.8140  138.2990 N   0  0  0  0  0  0  0  0  0  0  0  0
  182.8590  178.9980  138.8280 C   0  0  0  0  0  0  0  0  0  0  0  0
  187.6760  178.4480  139.4160 N   0  0  0  0  0  0  0  0  0  0  0  0
  185.0900  178.5690  140.4950 C   0  0  0  0  0  0  0  0  0  0  0  0
  181.3510  179.2500  140.8040 C   0  0  0  0  0  3  0  0  0  0  0  0
  180.2690  180.7490  136.6520 C   0  0  0  0  0  0  0  0  0  0  0  0
  179.6430  179.6530  136.0540 C   0  0  0  0  0  3  0  0  0  0  0  0
  181.7700  179.2500  137.8480 C   0  0  0  0  0  0  0  0  0  0  0  0
  180.0680  178.3570  136.3550 C   0  0  0  0  0  3  0  0  0  0  0  0
  181.3220  180.5470  137.5490 C   0  0  0  0  0  3  0  0  0  0  0  0
  181.1220  178.1570  137.2520 C   0  0  0  0  0  3  0  0  0  0  0  0
  179.8450  182.0370  136.3590 O   0  0  0  0  0  1  0  0  0  0  0  0
  188.7120  178.4890  141.5940 C   0  0  0  0  0  2  0  0  0  0  0  0
  188.0690  176.3780  143.5940 C   0  0  0  0  0  1  0  0  0  0  0  0
  189.3590  177.1770  141.6310 N   0  0  0  0  0  0  0  0  0  0  0  0
  189.4430  176.6680  143.0130 C   0  0  1  0  0  3  0  0  0  0  0  0
  191.4220  178.2570  143.2180 C   0  0  0  0  0  2  0  0  0  0  0  0
  191.8540  177.4470  142.0030 C   0  0  0  0  0  2  0  0  0  0  0  0
  190.6910  177.3010  141.0080 C   0  0  0  0  0  2  0  0  0  0  0  0
  190.2630  177.5730  143.9460 C   0  0  0  0  0  2  0  0  0  0  0  0
  1 11  2  0  0  0  0
  2  6  1  0  0  0  0
  3  8  1  0  0  0  0
  4 18  1  0  0  0  0
  6  5  2  0  0  0  0
  7 14  1  0  0  0  0
  8  1  1  1  0  0  0
  8  2  1  0  0  0  0
  9  7  1  0  0  0  0
  9 27  1  0  0  0  0
 10  4  1  0  0  0  0
 10 17  1  0  0  0  0
 11  5  1  0  0  0  0
 12 19  1  0  0  0  0
 12  3  1  0  0  0  0
 13  1  1  0  0  0  0
 14  2  2  0  0  0  0
 15 16  1  0  0  0  0
 15  4  2  0  0  0  0
 16 12  2  0  0  0  0
 17  9  2  0  0  0  0
 18  3  1  0  0  0  0
 18  7  2  0  0  0  0
 19 13  2  0  0  0  0
 20 24  1  0  0  0  0
 21 23  1  0  0  0  0
 21 20  2  0  0  0  0
 22 16  1  0  0  0  0
 23 25  2  0  0  0  0
 24 22  2  0  0  0  0
 25 22  1  0  0  0  0
 26 20  1  0  0  0  0
 27 29  1  0  0  0  0
 29 30  1  0  0  0  0
 30 28  1  1  0  0  0
 30 34  1  0  0  0  0
 31 34  1  0  0  0  0
 32 31  1  0  0  0  0
 33 29  1  0  0  0  0
 33 32  1  0  0  0  0
M  END
>  <MODEL>
9

>  <REMARK>
 VINA RESULT:      -9.3      3.761      8.168
  Name = 
  3 active torsions:
  status: ('A' for Active; 'I' for Inactive)
    1  A    between atoms: C_3  and  N_13
    2  A    between atoms: C_3  and  C_17
    3  A    between atoms: C_12  and  C_28
                            x       y       z     vdW  Elec       q    Type
                         _______ _______ _______ _____ _____    ______ ____

>  <TORSDO>
F 3

$$$$
