=
 OpenBabel11052415093D

 55 63  0  0  1  0  0  0  0  0999 V2000
  182.5560  178.7990  140.9780 C   0  0  0  0  0  3  0  0  0  0  0  0
  183.2820  178.8580  143.6870 C   0  0  0  0  0  0  0  0  0  0  0  0
  184.2610  178.7160  142.7020 C   0  0  0  0  0  3  0  0  0  0  0  0
  181.5710  178.9380  141.9630 C   0  0  0  0  0  3  0  0  0  0  0  0
  183.9030  178.6820  141.3470 C   0  0  0  0  0  0  0  0  0  0  0  0
  181.9340  178.9670  143.3160 C   0  0  0  0  0  3  0  0  0  0  0  0
  184.9600  178.5880  140.3020 C   0  0  0  0  0  2  0  0  0  0  0  0
  184.3850  179.0370  138.9660 C   0  0  0  0  0  2  0  0  0  0  0  0
  181.6720  175.4130  136.9210 C   0  0  0  0  0  2  0  0  0  0  0  0
  187.1800  178.7450  136.6630 C   0  0  0  0  0  2  0  0  0  0  0  0
  182.8790  173.3190  136.3930 N   0  0  0  0  0  2  0  0  0  0  0  0
  184.1220  175.5210  136.3510 C   0  0  1  0  0  3  0  0  0  0  0  0
  184.1540  174.0170  136.6380 C   0  0  0  0  0  2  0  0  0  0  0  0
  181.7760  174.2040  135.9930 C   0  0  0  0  0  2  0  0  0  0  0  0
  182.9470  176.1350  136.9810 N   0  0  0  0  0  0  0  0  0  0  0  0
  185.4560  177.2030  137.5220 C   0  0  0  0  0  0  0  0  0  0  0  0
  187.8380  177.0560  138.2510 C   0  0  0  0  0  2  0  0  0  0  0  0
  185.3700  176.1290  136.7940 N   0  0  0  0  0  0  0  0  0  0  0  0
  189.0590  177.4370  137.4350 C   0  0  1  0  0  3  0  0  0  0  0  0
  183.0200  177.4010  137.6670 C   0  0  0  0  0  0  0  0  0  0  0  0
  188.7020  178.6980  136.6640 C   0  0  0  0  0  2  0  0  0  0  0  0
  184.2350  177.8840  138.0130 C   0  0  0  0  0  0  0  0  0  0  0  0
  186.7390  177.8150  137.6860 N   0  0  0  0  0  0  0  0  0  0  0  0
  181.1260  178.5480  136.6460 C   0  0  1  0  0  3  0  0  0  0  0  0
  180.6440  180.3170  138.4370 C   0  0  0  0  0  1  0  0  0  0  0  0
  181.7180  178.1180  137.9800 C   0  0  2  0  0  3  0  0  0  0  0  0
  179.6130  178.3880  136.6670 C   0  0  0  0  0  1  0  0  0  0  0  0
  181.6870  179.5930  137.6030 C   0  0  1  0  0  3  0  0  0  0  0  0
  191.1050  176.5380  138.6840 C   0  0  0  0  0  0  0  0  0  0  0  0
  190.8730  175.2320  138.2680 O   0  0  0  0  0  0  0  0  0  0  0  0
  190.2470  177.6100  138.2670 N   0  0  0  0  0  2  0  0  0  0  0  0
  192.1330  176.8030  139.3650 O   0  0  0  0  0  1  0  0  0  0  0  0
  183.6860  178.8970  145.1240 C   0  0  0  0  0  2  0  0  0  0  0  0
  185.5460  179.4250  146.6970 C   0  0  0  0  0  2  0  0  0  0  0  0
  185.9290  178.2090  145.8790 C   0  0  1  0  0  3  0  0  0  0  0  0
  185.1370  179.3310  145.2430 C   0  0  1  0  0  3  0  0  0  0  0  0
  187.2590  178.3190  145.4520 O   0  0  0  0  0  0  0  0  0  0  0  0
  191.7900  176.3440  146.8550 C   0  0  0  0  0  0  0  0  0  0  0  0
  191.5190  177.9970  142.6630 C   0  0  0  0  0  1  0  0  0  0  0  0
  190.2250  177.5680  145.3860 C   0  0  2  0  0  0  0  0  0  0  0  0
  189.0080  178.2460  147.5580 C   0  0  0  0  0  1  0  0  0  0  0  0
  188.2450  176.4760  144.2950 C   0  0  0  0  0  2  0  0  0  0  0  0
  189.7220  176.7980  144.1480 C   0  0  2  0  0  0  0  0  0  0  0  0
  189.1580  177.1900  146.4510 C   0  0  1  0  0  0  0  0  0  0  0  0
  190.6590  175.9340  147.7320 C   0  0  0  0  0  2  0  0  0  0  0  0
  187.8440  177.0560  145.6530 C   0  0  1  0  0  3  0  0  0  0  0  0
  190.5020  175.6960  143.4040 C   0  0  1  0  0  3  0  0  0  0  0  0
  192.9590  175.9500  147.1000 O   0  0  0  0  0  0  0  0  0  0  0  0
  190.2990  177.0790  142.7590 C   0  0  2  0  0  0  0  0  0  0  0  0
  189.4430  175.9140  147.0110 O   0  0  0  0  0  0  0  0  0  0  0  0
  190.1820  178.9430  145.1230 O   0  0  0  0  0  1  0  0  0  0  0  0
  191.8140  175.5270  143.8580 O   0  0  0  0  0  1  0  0  0  0  0  0
  191.5520  177.2110  145.7880 O   0  0  0  0  0  0  0  0  0  0  0  0
  189.3130  177.1000  141.6080 C   0  0  0  0  0  2  0  0  0  0  0  0
  188.8230  178.3940  141.4130 O   0  0  0  0  0  1  0  0  0  0  0  0
  1  5  2  0  0  0  0
  1  4  1  0  0  0  0
  2 33  1  0  0  0  0
  3  2  2  0  0  0  0
  4  6  2  0  0  0  0
  5  3  1  0  0  0  0
  6  2  1  0  0  0  0
  7  5  1  0  0  0  0
  8  7  1  0  0  0  0
  9 15  1  0  0  0  0
 10 21  1  0  0  0  0
 10 23  1  0  0  0  0
 11 13  1  0  0  0  0
 12 13  1  1  0  0  0
 12 18  1  0  0  0  0
 12 15  1  0  0  0  0
 14 11  1  0  0  0  0
 14  9  1  0  0  0  0
 15 20  1  0  0  0  0
 16 23  1  0  0  0  0
 16 22  1  0  0  0  0
 18 16  2  0  0  0  0
 19 17  1  0  0  0  0
 19 31  1  1  0  0  0
 20 22  2  0  0  0  0
 21 19  1  0  0  0  0
 22  8  1  0  0  0  0
 23 17  1  0  0  0  0
 24 27  1  1  0  0  0
 24 28  1  0  0  0  0
 24 26  1  0  0  0  0
 26 20  1  6  0  0  0
 28 26  1  0  0  0  0
 28 25  1  1  0  0  0
 29 32  1  0  0  0  0
 30 29  2  0  0  0  0
 31 29  1  0  0  0  0
 35 37  1  6  0  0  0
 35 34  1  0  0  0  0
 36 33  1  1  0  0  0
 36 35  1  0  0  0  0
 36 34  1  0  0  0  0
 38 48  2  0  0  0  0
 38 45  1  0  0  0  0
 40 51  1  6  0  0  0
 40 53  1  0  0  0  0
 40 44  1  0  0  0  0
 42 46  1  0  0  0  0
 43 42  1  6  0  0  0
 43 40  1  0  0  0  0
 44 50  1  0  0  0  0
 44 41  1  1  0  0  0
 46 37  1  6  0  0  0
 46 44  1  0  0  0  0
 47 52  1  1  0  0  0
 47 43  1  0  0  0  0
 49 39  1  6  0  0  0
 49 47  1  0  0  0  0
 49 43  1  0  0  0  0
 50 45  1  0  0  0  0
 53 38  1  0  0  0  0
 54 49  1  0  0  0  0
 55 54  1  0  0  0  0
M  END
>  <MODEL>
1

>  <REMARK>
 VINA RESULT:     -10.4      0.000      0.000
  Name = 
  10 active torsions:
  status: ('A' for Active; 'I' for Inactive)
    1  A    between atoms: C_2  and  C_28
    2  A    between atoms: C_2  and  C_44
    3  A    between atoms: O_8  and  C_22
    4  A    between atoms: O_8  and  C_43
    5  A    between atoms: C_11  and  C_38
    6  A    between atoms: C_19  and  C_45
    7  A    between atoms: C_27  and  C_54
    8  A    between atoms: C_28  and  C_49
    9  A    between atoms: N_32  and  C_39
   10  A    between atoms: C_51  and  C_54
                            x       y       z     vdW  Elec       q    Type
                         _______ _______ _______ _____ _____    ______ ____

>  <TORSDO>
F 10

$$$$
=
 OpenBabel11052415093D

 55 63  0  0  1  0  0  0  0  0999 V2000
  183.2440  178.5990  138.1410 C   0  0  0  0  0  3  0  0  0  0  0  0
  183.7220  178.1550  140.8680 C   0  0  0  0  0  0  0  0  0  0  0  0
  183.3080  177.1030  140.0490 C   0  0  0  0  0  3  0  0  0  0  0  0
  183.6560  179.6570  138.9600 C   0  0  0  0  0  3  0  0  0  0  0  0
  183.0640  177.3210  138.6860 C   0  0  0  0  0  0  0  0  0  0  0  0
  183.8940  179.4350  140.3220 C   0  0  0  0  0  3  0  0  0  0  0  0
  182.6770  176.1810  137.8090 C   0  0  0  0  0  2  0  0  0  0  0  0
  183.3290  174.9060  138.3280 C   0  0  0  0  0  2  0  0  0  0  0  0
  183.2130  170.5790  135.8930 C   0  0  0  0  0  2  0  0  0  0  0  0
  185.2320  176.6960  135.8040 C   0  0  0  0  0  2  0  0  0  0  0  0
  185.3580  169.8250  134.9160 N   0  0  0  0  0  2  0  0  0  0  0  0
  184.9010  172.2990  135.1660 C   0  0  1  0  0  3  0  0  0  0  0  0
  185.9240  171.1600  135.1810 C   0  0  0  0  0  2  0  0  0  0  0  0
  183.8960  169.8110  134.7620 C   0  0  0  0  0  2  0  0  0  0  0  0
  183.7330  171.9470  135.9810 N   0  0  0  0  0  0  0  0  0  0  0  0
  185.0480  174.3380  136.5090 C   0  0  0  0  0  0  0  0  0  0  0  0
  187.0680  175.7130  137.0160 C   0  0  0  0  0  2  0  0  0  0  0  0
  185.5370  173.5320  135.6120 N   0  0  0  0  0  0  0  0  0  0  0  0
  187.6110  176.8630  136.1890 C   0  0  1  0  0  3  0  0  0  0  0  0
  183.1060  172.8930  136.8710 C   0  0  0  0  0  0  0  0  0  0  0  0
  186.4130  177.6490  135.6810 C   0  0  0  0  0  2  0  0  0  0  0  0
  183.7790  174.0180  137.2030 C   0  0  0  0  0  0  0  0  0  0  0  0
  185.6610  175.6200  136.6790 N   0  0  0  0  0  0  0  0  0  0  0  0
  180.7860  172.5510  136.2040 C   0  0  1  0  0  3  0  0  0  0  0  0
  179.5760  173.4900  138.2590 C   0  0  0  0  0  1  0  0  0  0  0  0
  181.7220  172.5630  137.4030 C   0  0  2  0  0  3  0  0  0  0  0  0
  179.7620  171.4340  136.3470 C   0  0  0  0  0  1  0  0  0  0  0  0
  180.6870  173.6670  137.2380 C   0  0  1  0  0  3  0  0  0  0  0  0
  188.1920  178.4400  138.1210 C   0  0  0  0  0  0  0  0  0  0  0  0
  186.9090  178.3750  138.6530 O   0  0  0  0  0  0  0  0  0  0  0  0
  188.5430  177.6950  136.9460 N   0  0  0  0  0  2  0  0  0  0  0  0
  189.0870  179.0920  138.7260 O   0  0  0  0  0  1  0  0  0  0  0  0
  183.9830  177.9000  142.3170 C   0  0  0  0  0  2  0  0  0  0  0  0
  184.9120  179.4780  144.0080 C   0  0  0  0  0  2  0  0  0  0  0  0
  185.6400  178.1540  144.1240 C   0  0  1  0  0  3  0  0  0  0  0  0
  185.2140  178.6690  142.7640 C   0  0  1  0  0  3  0  0  0  0  0  0
  187.0170  178.3770  144.2600 O   0  0  0  0  0  0  0  0  0  0  0  0
  191.2600  176.7690  146.6700 C   0  0  0  0  0  0  0  0  0  0  0  0
  191.6780  177.7480  142.2840 C   0  0  0  0  0  1  0  0  0  0  0  0
  189.9550  177.7080  144.7940 C   0  0  2  0  0  0  0  0  0  0  0  0
  188.3960  178.6780  146.6070 C   0  0  0  0  0  1  0  0  0  0  0  0
  188.1850  176.4050  143.5810 C   0  0  0  0  0  2  0  0  0  0  0  0
  189.6650  176.7430  143.6270 C   0  0  2  0  0  0  0  0  0  0  0  0
  188.7280  177.4690  145.7180 C   0  0  1  0  0  0  0  0  0  0  0  0
  190.0010  176.4680  147.4060 C   0  0  0  0  0  2  0  0  0  0  0  0
  187.5630  177.1760  144.7480 C   0  0  1  0  0  3  0  0  0  0  0  0
  190.5590  175.5610  143.2010 C   0  0  1  0  0  3  0  0  0  0  0  0
  192.3740  176.4500  147.1600 O   0  0  0  0  0  0  0  0  0  0  0  0
  190.4620  176.8220  142.3230 C   0  0  2  0  0  0  0  0  0  0  0  0
  188.9200  176.3020  146.5090 O   0  0  0  0  0  0  0  0  0  0  0  0
  189.9520  179.0240  144.3160 O   0  0  0  0  0  1  0  0  0  0  0  0
  191.7780  175.5010  143.8820 O   0  0  0  0  0  1  0  0  0  0  0  0
  191.1980  177.4540  145.4570 O   0  0  0  0  0  0  0  0  0  0  0  0
  189.6780  176.6380  141.0380 C   0  0  0  0  0  2  0  0  0  0  0  0
  190.5170  176.1780  140.0210 O   0  0  0  0  0  1  0  0  0  0  0  0
  1  5  2  0  0  0  0
  1  4  1  0  0  0  0
  2 33  1  0  0  0  0
  3  2  2  0  0  0  0
  4  6  2  0  0  0  0
  5  3  1  0  0  0  0
  6  2  1  0  0  0  0
  7  8  1  0  0  0  0
  7  5  1  0  0  0  0
  9 15  1  0  0  0  0
 10 23  1  0  0  0  0
 11 13  1  0  0  0  0
 12 13  1  1  0  0  0
 12 18  1  0  0  0  0
 12 15  1  0  0  0  0
 14 11  1  0  0  0  0
 14  9  1  0  0  0  0
 15 20  1  0  0  0  0
 16 23  1  0  0  0  0
 16 22  1  0  0  0  0
 18 16  2  0  0  0  0
 19 31  1  1  0  0  0
 19 17  1  0  0  0  0
 20 22  2  0  0  0  0
 21 10  1  0  0  0  0
 21 19  1  0  0  0  0
 22  8  1  0  0  0  0
 23 17  1  0  0  0  0
 24 27  1  1  0  0  0
 24 28  1  0  0  0  0
 24 26  1  0  0  0  0
 26 20  1  6  0  0  0
 28 26  1  0  0  0  0
 28 25  1  1  0  0  0
 29 30  2  0  0  0  0
 29 32  1  0  0  0  0
 31 29  1  0  0  0  0
 34 35  1  0  0  0  0
 35 37  1  6  0  0  0
 36 33  1  1  0  0  0
 36 34  1  0  0  0  0
 36 35  1  0  0  0  0
 38 48  2  0  0  0  0
 38 45  1  0  0  0  0
 40 51  1  6  0  0  0
 40 53  1  0  0  0  0
 40 44  1  0  0  0  0
 42 46  1  0  0  0  0
 43 42  1  6  0  0  0
 43 40  1  0  0  0  0
 44 50  1  0  0  0  0
 44 41  1  1  0  0  0
 46 37  1  6  0  0  0
 46 44  1  0  0  0  0
 47 43  1  0  0  0  0
 47 52  1  1  0  0  0
 49 39  1  6  0  0  0
 49 47  1  0  0  0  0
 49 43  1  0  0  0  0
 50 45  1  0  0  0  0
 53 38  1  0  0  0  0
 54 49  1  0  0  0  0
 55 54  1  0  0  0  0
M  END
>  <MODEL>
2

>  <REMARK>
 VINA RESULT:      -9.0      1.892      3.323
  Name = 
  10 active torsions:
  status: ('A' for Active; 'I' for Inactive)
    1  A    between atoms: C_2  and  C_28
    2  A    between atoms: C_2  and  C_44
    3  A    between atoms: O_8  and  C_22
    4  A    between atoms: O_8  and  C_43
    5  A    between atoms: C_11  and  C_38
    6  A    between atoms: C_19  and  C_45
    7  A    between atoms: C_27  and  C_54
    8  A    between atoms: C_28  and  C_49
    9  A    between atoms: N_32  and  C_39
   10  A    between atoms: C_51  and  C_54
                            x       y       z     vdW  Elec       q    Type
                         _______ _______ _______ _____ _____    ______ ____

>  <TORSDO>
F 10

$$$$
=
 OpenBabel11052415093D

 55 63  0  0  1  0  0  0  0  0999 V2000
  187.1620  177.8160  143.2310 C   0  0  0  0  0  3  0  0  0  0  0  0
  184.6080  178.8570  142.7190 C   0  0  0  0  0  0  0  0  0  0  0  0
  185.6120  178.9550  141.7530 C   0  0  0  0  0  3  0  0  0  0  0  0
  186.1590  177.7190  144.2030 C   0  0  0  0  0  3  0  0  0  0  0  0
  186.8910  178.4390  142.0060 C   0  0  0  0  0  0  0  0  0  0  0  0
  184.8840  178.2400  143.9470 C   0  0  0  0  0  3  0  0  0  0  0  0
  187.9370  178.4970  140.9480 C   0  0  0  0  0  2  0  0  0  0  0  0
  188.5280  177.1080  140.7500 C   0  0  0  0  0  2  0  0  0  0  0  0
  191.7860  176.4030  137.0670 C   0  0  0  0  0  2  0  0  0  0  0  0
  190.7950  178.9700  142.8920 C   0  0  0  0  0  2  0  0  0  0  0  0
  194.0470  175.6610  137.7450 N   0  0  0  0  0  2  0  0  0  0  0  0
  192.6770  177.0910  139.3180 C   0  0  1  0  0  3  0  0  0  0  0  0
  193.7040  175.9690  139.1460 C   0  0  0  0  0  2  0  0  0  0  0  0
  193.2810  176.4330  136.7560 C   0  0  0  0  0  2  0  0  0  0  0  0
  191.5280  176.8710  138.4320 N   0  0  0  0  0  0  0  0  0  0  0  0
  191.0600  177.2460  141.1470 C   0  0  0  0  0  0  0  0  0  0  0  0
  191.4070  176.7390  143.5660 C   0  0  0  0  0  2  0  0  0  0  0  0
  192.2880  177.1840  140.7190 N   0  0  0  0  0  0  0  0  0  0  0  0
  191.8920  177.7030  144.6310 C   0  0  1  0  0  3  0  0  0  0  0  0
  190.1710  177.0810  138.8730 C   0  0  0  0  0  0  0  0  0  0  0  0
  191.2390  179.0460  144.3470 C   0  0  0  0  0  2  0  0  0  0  0  0
  189.9240  177.1740  140.1980 C   0  0  0  0  0  0  0  0  0  0  0  0
  190.8340  177.5670  142.5230 N   0  0  0  0  0  0  0  0  0  0  0  0
  189.6340  178.0390  136.6950 C   0  0  1  0  0  3  0  0  0  0  0  0
  187.1230  178.4580  136.9870 C   0  0  0  0  0  1  0  0  0  0  0  0
  189.0840  177.1670  137.8150 C   0  0  2  0  0  3  0  0  0  0  0  0
  189.1950  177.4980  135.3430 C   0  0  0  0  0  1  0  0  0  0  0  0
  188.5140  178.5610  137.5880 C   0  0  1  0  0  3  0  0  0  0  0  0
  190.2910  177.0400  146.5160 C   0  0  0  0  0  0  0  0  0  0  0  0
  189.1640  177.2790  145.7380 O   0  0  0  0  0  0  0  0  0  0  0  0
  191.6100  177.2210  145.9810 N   0  0  0  0  0  2  0  0  0  0  0  0
  190.1580  176.5740  147.6810 O   0  0  0  0  0  1  0  0  0  0  0  0
  183.2510  179.4080  142.4270 C   0  0  0  0  0  2  0  0  0  0  0  0
  180.9930  178.9320  143.3700 C   0  0  0  0  0  2  0  0  0  0  0  0
  180.9570  178.6970  141.8740 C   0  0  1  0  0  3  0  0  0  0  0  0
  182.1970  178.3410  142.6670 C   0  0  1  0  0  3  0  0  0  0  0  0
  180.2650  177.5110  141.5930 O   0  0  0  0  0  0  0  0  0  0  0  0
  180.4230  175.2450  136.9850 C   0  0  0  0  0  0  0  0  0  0  0  0
  184.0120  177.7280  138.1370 C   0  0  0  0  0  1  0  0  0  0  0  0
  181.3290  176.5090  138.9050 C   0  0  2  0  0  0  0  0  0  0  0  0
  179.6780  175.1460  140.3450 C   0  0  0  0  0  1  0  0  0  0  0  0
  180.4700  178.7710  139.5740 C   0  0  0  0  0  2  0  0  0  0  0  0
  181.4700  178.0300  138.7030 C   0  0  2  0  0  0  0  0  0  0  0  0
  179.8870  176.3950  139.4740 C   0  0  1  0  0  0  0  0  0  0  0  0
  179.0560  175.3170  137.5730 C   0  0  0  0  0  2  0  0  0  0  0  0
  179.7010  177.6760  140.3160 C   0  0  1  0  0  3  0  0  0  0  0  0
  181.7200  178.7330  137.3530 C   0  0  1  0  0  3  0  0  0  0  0  0
  180.6060  174.6940  135.8700 O   0  0  0  0  0  0  0  0  0  0  0  0
  182.8330  178.6630  138.4140 C   0  0  2  0  0  0  0  0  0  0  0  0
  178.9310  176.4410  138.4230 O   0  0  0  0  0  0  0  0  0  0  0  0
  182.2620  176.0820  139.8580 O   0  0  0  0  0  1  0  0  0  0  0  0
  181.9620  177.8530  136.2940 O   0  0  0  0  0  1  0  0  0  0  0  0
  181.5060  175.7480  137.7050 O   0  0  0  0  0  0  0  0  0  0  0  0
  183.1290  179.9790  139.1060 C   0  0  0  0  0  2  0  0  0  0  0  0
  184.4580  180.3530  138.8890 O   0  0  0  0  0  1  0  0  0  0  0  0
  1  4  1  0  0  0  0
  2  6  1  0  0  0  0
  3  5  1  0  0  0  0
  3  2  2  0  0  0  0
  5  1  2  0  0  0  0
  6  4  2  0  0  0  0
  7  5  1  0  0  0  0
  8  7  1  0  0  0  0
  9 15  1  0  0  0  0
 10 21  1  0  0  0  0
 11 13  1  0  0  0  0
 12 13  1  1  0  0  0
 12 18  1  0  0  0  0
 14  9  1  0  0  0  0
 14 11  1  0  0  0  0
 15 20  1  0  0  0  0
 15 12  1  0  0  0  0
 16 23  1  0  0  0  0
 17 19  1  0  0  0  0
 18 16  2  0  0  0  0
 19 31  1  1  0  0  0
 20 22  2  0  0  0  0
 21 19  1  0  0  0  0
 22  8  1  0  0  0  0
 22 16  1  0  0  0  0
 23 10  1  0  0  0  0
 23 17  1  0  0  0  0
 24 27  1  6  0  0  0
 24 28  1  0  0  0  0
 24 26  1  0  0  0  0
 26 20  1  1  0  0  0
 28 25  1  6  0  0  0
 28 26  1  0  0  0  0
 29 32  1  0  0  0  0
 30 29  2  0  0  0  0
 31 29  1  0  0  0  0
 33  2  1  0  0  0  0
 35 37  1  1  0  0  0
 35 36  1  0  0  0  0
 35 34  1  0  0  0  0
 36 33  1  6  0  0  0
 36 34  1  0  0  0  0
 38 45  1  0  0  0  0
 38 53  1  0  0  0  0
 40 44  1  0  0  0  0
 40 51  1  1  0  0  0
 42 46  1  0  0  0  0
 43 40  1  0  0  0  0
 43 42  1  1  0  0  0
 44 46  1  0  0  0  0
 44 41  1  1  0  0  0
 45 50  1  0  0  0  0
 46 37  1  1  0  0  0
 47 52  1  6  0  0  0
 47 49  1  0  0  0  0
 47 43  1  0  0  0  0
 48 38  2  0  0  0  0
 49 39  1  6  0  0  0
 49 43  1  0  0  0  0
 49 54  1  0  0  0  0
 50 44  1  0  0  0  0
 53 40  1  0  0  0  0
 55 54  1  0  0  0  0
M  END
>  <MODEL>
3

>  <REMARK>
 VINA RESULT:      -8.8      3.716      8.893
  Name = 
  10 active torsions:
  status: ('A' for Active; 'I' for Inactive)
    1  A    between atoms: C_2  and  C_28
    2  A    between atoms: C_2  and  C_44
    3  A    between atoms: O_8  and  C_22
    4  A    between atoms: O_8  and  C_43
    5  A    between atoms: C_11  and  C_38
    6  A    between atoms: C_19  and  C_45
    7  A    between atoms: C_27  and  C_54
    8  A    between atoms: C_28  and  C_49
    9  A    between atoms: N_32  and  C_39
   10  A    between atoms: C_51  and  C_54
                            x       y       z     vdW  Elec       q    Type
                         _______ _______ _______ _____ _____    ______ ____

>  <TORSDO>
F 10

$$$$
=
 OpenBabel11052415093D

 55 63  0  0  1  0  0  0  0  0999 V2000
  185.1130  178.5030  140.0280 C   0  0  0  0  0  3  0  0  0  0  0  0
  184.3120  178.9810  142.6730 C   0  0  0  0  0  0  0  0  0  0  0  0
  183.4160  178.4220  141.7590 C   0  0  0  0  0  3  0  0  0  0  0  0
  186.0130  179.0660  140.9400 C   0  0  0  0  0  3  0  0  0  0  0  0
  183.8110  178.1850  140.4350 C   0  0  0  0  0  0  0  0  0  0  0  0
  185.6130  179.3050  142.2610 C   0  0  0  0  0  3  0  0  0  0  0  0
  182.8660  177.5360  139.4840 C   0  0  0  0  0  2  0  0  0  0  0  0
  183.0380  178.1570  138.1050 C   0  0  0  0  0  2  0  0  0  0  0  0
  179.2500  176.0720  135.6610 C   0  0  0  0  0  2  0  0  0  0  0  0
  185.6100  177.0930  135.7700 C   0  0  0  0  0  2  0  0  0  0  0  0
  179.6050  173.7500  134.8840 N   0  0  0  0  0  2  0  0  0  0  0  0
  181.5820  175.3120  135.0950 C   0  0  1  0  0  3  0  0  0  0  0  0
  181.0380  173.8850  135.2030 C   0  0  0  0  0  2  0  0  0  0  0  0
  178.9310  175.0240  134.5970 C   0  0  0  0  0  2  0  0  0  0  0  0
  180.6990  176.2490  135.7990 N   0  0  0  0  0  0  0  0  0  0  0  0
  183.4010  176.2280  136.4500 C   0  0  0  0  0  0  0  0  0  0  0  0
  185.5250  175.1150  137.1440 C   0  0  0  0  0  2  0  0  0  0  0  0
  182.9490  175.3530  135.6000 N   0  0  0  0  0  0  0  0  0  0  0  0
  186.8310  175.0980  136.3720 C   0  0  1  0  0  3  0  0  0  0  0  0
  181.2130  177.3100  136.6290 C   0  0  0  0  0  0  0  0  0  0  0  0
  187.0030  176.4770  135.7570 C   0  0  0  0  0  2  0  0  0  0  0  0
  182.5050  177.2600  137.0240 C   0  0  0  0  0  0  0  0  0  0  0  0
  184.8130  176.2900  136.6780 N   0  0  0  0  0  0  0  0  0  0  0  0
  180.4010  179.5160  135.9800 C   0  0  1  0  0  3  0  0  0  0  0  0
  180.0170  180.5590  138.2890 C   0  0  0  0  0  1  0  0  0  0  0  0
  180.2630  178.4250  137.0310 C   0  0  2  0  0  3  0  0  0  0  0  0
  179.0440  180.1360  135.6830 C   0  0  0  0  0  1  0  0  0  0  0  0
  180.9320  179.7450  137.3910 C   0  0  1  0  0  3  0  0  0  0  0  0
  189.1460  174.0650  136.7290 C   0  0  0  0  0  0  0  0  0  0  0  0
  189.3090  173.7890  135.3770 O   0  0  0  0  0  0  0  0  0  0  0  0
  187.9630  174.7170  137.2130 N   0  0  0  0  0  2  0  0  0  0  0  0
  190.0860  173.8210  137.5350 O   0  0  0  0  0  1  0  0  0  0  0  0
  183.8730  179.2200  144.0800 C   0  0  0  0  0  2  0  0  0  0  0  0
  184.9330  178.5730  146.2420 C   0  0  0  0  0  2  0  0  0  0  0  0
  185.7920  178.0590  145.1040 C   0  0  1  0  0  3  0  0  0  0  0  0
  185.0860  179.3930  144.9780 C   0  0  1  0  0  3  0  0  0  0  0  0
  187.1440  178.3060  145.3760 O   0  0  0  0  0  0  0  0  0  0  0  0
  191.6810  176.3900  146.8390 C   0  0  0  0  0  0  0  0  0  0  0  0
  191.4240  177.9740  142.6200 C   0  0  0  0  0  1  0  0  0  0  0  0
  190.1160  177.5780  145.3410 C   0  0  2  0  0  0  0  0  0  0  0  0
  188.8800  178.2800  147.4940 C   0  0  0  0  0  1  0  0  0  0  0  0
  188.1520  176.4530  144.2540 C   0  0  0  0  0  2  0  0  0  0  0  0
  189.6270  176.7850  144.1120 C   0  0  2  0  0  0  0  0  0  0  0  0
  189.0450  177.2080  146.4050 C   0  0  1  0  0  0  0  0  0  0  0  0
  190.5460  175.9840  147.7150 C   0  0  0  0  0  2  0  0  0  0  0  0
  187.7370  177.0510  145.6000 C   0  0  1  0  0  3  0  0  0  0  0  0
  190.4200  175.6770  143.3900 C   0  0  1  0  0  3  0  0  0  0  0  0
  192.8510  176.0080  147.0970 O   0  0  0  0  0  0  0  0  0  0  0  0
  190.2110  177.0480  142.7230 C   0  0  2  0  0  0  0  0  0  0  0  0
  189.3350  175.9430  146.9860 O   0  0  0  0  0  0  0  0  0  0  0  0
  190.0630  178.9480  145.0560 O   0  0  0  0  0  1  0  0  0  0  0  0
  191.7300  175.5260  143.8550 O   0  0  0  0  0  1  0  0  0  0  0  0
  191.4420  177.2370  145.7570 O   0  0  0  0  0  0  0  0  0  0  0  0
  189.2320  177.0430  141.5650 C   0  0  0  0  0  2  0  0  0  0  0  0
  189.8000  177.6600  140.4470 O   0  0  0  0  0  1  0  0  0  0  0  0
  1  5  2  0  0  0  0
  1  4  1  0  0  0  0
  2 33  1  0  0  0  0
  3  2  2  0  0  0  0
  4  6  2  0  0  0  0
  5  3  1  0  0  0  0
  6  2  1  0  0  0  0
  7  5  1  0  0  0  0
  8  7  1  0  0  0  0
  9 15  1  0  0  0  0
 10 23  1  0  0  0  0
 11 13  1  0  0  0  0
 12 13  1  1  0  0  0
 12 18  1  0  0  0  0
 12 15  1  0  0  0  0
 14 11  1  0  0  0  0
 14  9  1  0  0  0  0
 15 20  1  0  0  0  0
 16 23  1  0  0  0  0
 16 22  1  0  0  0  0
 18 16  2  0  0  0  0
 19 17  1  0  0  0  0
 19 31  1  1  0  0  0
 20 22  2  0  0  0  0
 21 10  1  0  0  0  0
 21 19  1  0  0  0  0
 22  8  1  0  0  0  0
 23 17  1  0  0  0  0
 24 27  1  1  0  0  0
 24 26  1  0  0  0  0
 24 28  1  0  0  0  0
 26 20  1  6  0  0  0
 26 28  1  0  0  0  0
 28 25  1  1  0  0  0
 29 31  1  0  0  0  0
 29 32  1  0  0  0  0
 30 29  2  0  0  0  0
 35 37  1  1  0  0  0
 35 34  1  0  0  0  0
 36 33  1  6  0  0  0
 36 35  1  0  0  0  0
 36 34  1  0  0  0  0
 38 48  2  0  0  0  0
 38 45  1  0  0  0  0
 40 51  1  6  0  0  0
 40 53  1  0  0  0  0
 40 44  1  0  0  0  0
 42 46  1  0  0  0  0
 43 42  1  6  0  0  0
 43 40  1  0  0  0  0
 44 50  1  0  0  0  0
 44 41  1  1  0  0  0
 46 37  1  6  0  0  0
 46 44  1  0  0  0  0
 47 52  1  1  0  0  0
 47 43  1  0  0  0  0
 49 39  1  6  0  0  0
 49 47  1  0  0  0  0
 49 43  1  0  0  0  0
 50 45  1  0  0  0  0
 53 38  1  0  0  0  0
 54 49  1  0  0  0  0
 55 54  1  0  0  0  0
M  END
>  <MODEL>
4

>  <REMARK>
 VINA RESULT:      -8.4      1.512      2.159
  Name = 
  10 active torsions:
  status: ('A' for Active; 'I' for Inactive)
    1  A    between atoms: C_2  and  C_28
    2  A    between atoms: C_2  and  C_44
    3  A    between atoms: O_8  and  C_22
    4  A    between atoms: O_8  and  C_43
    5  A    between atoms: C_11  and  C_38
    6  A    between atoms: C_19  and  C_45
    7  A    between atoms: C_27  and  C_54
    8  A    between atoms: C_28  and  C_49
    9  A    between atoms: N_32  and  C_39
   10  A    between atoms: C_51  and  C_54
                            x       y       z     vdW  Elec       q    Type
                         _______ _______ _______ _____ _____    ______ ____

>  <TORSDO>
F 10

$$$$
=
 OpenBabel11052415093D

 55 63  0  0  1  0  0  0  0  0999 V2000
  180.9670  177.4990  140.6720 C   0  0  0  0  0  3  0  0  0  0  0  0
  183.6080  178.4170  140.8940 C   0  0  0  0  0  0  0  0  0  0  0  0
  183.3450  177.1740  140.3160 C   0  0  0  0  0  3  0  0  0  0  0  0
  181.2280  178.7440  141.2550 C   0  0  0  0  0  3  0  0  0  0  0  0
  182.0270  176.7090  140.2060 C   0  0  0  0  0  0  0  0  0  0  0  0
  182.5470  179.2020  141.3670 C   0  0  0  0  0  3  0  0  0  0  0  0
  181.7520  175.4080  139.5350 C   0  0  0  0  0  2  0  0  0  0  0  0
  181.5540  175.6440  138.0440 C   0  0  0  0  0  2  0  0  0  0  0  0
  186.3480  174.9850  136.9240 C   0  0  0  0  0  2  0  0  0  0  0  0
  181.0450  178.4750  135.8270 C   0  0  0  0  0  2  0  0  0  0  0  0
  187.7410  177.0290  136.8700 N   0  0  0  0  0  2  0  0  0  0  0  0
  185.2810  177.1800  136.3070 C   0  0  1  0  0  3  0  0  0  0  0  0
  186.5130  177.8430  136.9290 C   0  0  0  0  0  2  0  0  0  0  0  0
  187.5480  175.6900  136.2950 C   0  0  0  0  0  2  0  0  0  0  0  0
  185.1380  175.8050  136.7980 N   0  0  0  0  0  0  0  0  0  0  0  0
  182.9740  177.5330  137.0420 C   0  0  0  0  0  0  0  0  0  0  0  0
  181.8840  179.6640  137.7480 C   0  0  0  0  0  2  0  0  0  0  0  0
  184.1010  177.9910  136.5790 N   0  0  0  0  0  0  0  0  0  0  0  0
  181.1800  180.6610  136.8470 C   0  0  1  0  0  3  0  0  0  0  0  0
  183.8600  175.2550  137.1750 C   0  0  0  0  0  0  0  0  0  0  0  0
  180.4050  179.8580  135.8150 C   0  0  0  0  0  2  0  0  0  0  0  0
  182.8240  176.0980  137.3830 C   0  0  0  0  0  0  0  0  0  0  0  0
  181.8350  178.3980  137.0420 N   0  0  0  0  0  0  0  0  0  0  0  0
  184.0040  173.1440  135.9630 C   0  0  1  0  0  3  0  0  0  0  0  0
  182.2400  171.7740  137.2190 C   0  0  0  0  0  1  0  0  0  0  0  0
  183.7520  173.7480  137.3360 C   0  0  2  0  0  3  0  0  0  0  0  0
  184.8160  171.8640  136.0920 C   0  0  0  0  0  1  0  0  0  0  0  0
  182.6070  173.0970  136.5720 C   0  0  1  0  0  3  0  0  0  0  0  0
  180.3450  183.0020  137.4610 C   0  0  0  0  0  0  0  0  0  0  0  0
  181.1800  183.6190  136.5370 O   0  0  0  0  0  0  0  0  0  0  0  0
  180.3230  181.5740  137.6000 N   0  0  0  0  0  2  0  0  0  0  0  0
  179.5300  183.6970  138.1270 O   0  0  0  0  0  1  0  0  0  0  0  0
  185.0190  178.8960  140.9970 C   0  0  0  0  0  2  0  0  0  0  0  0
  184.5710  178.2530  143.3630 C   0  0  0  0  0  2  0  0  0  0  0  0
  186.0080  177.9100  143.0280 C   0  0  1  0  0  3  0  0  0  0  0  0
  185.3730  179.1570  142.4510 C   0  0  1  0  0  3  0  0  0  0  0  0
  186.8500  178.2970  144.0790 O   0  0  0  0  0  0  0  0  0  0  0  0
  191.0000  176.8290  146.7290 C   0  0  0  0  0  0  0  0  0  0  0  0
  191.6420  177.8650  142.3830 C   0  0  0  0  0  1  0  0  0  0  0  0
  189.7740  177.7350  144.7850 C   0  0  2  0  0  0  0  0  0  0  0  0
  188.0730  178.6290  146.5070 C   0  0  0  0  0  1  0  0  0  0  0  0
  188.1310  176.3780  143.4570 C   0  0  0  0  0  2  0  0  0  0  0  0
  189.5910  176.7710  143.5960 C   0  0  2  0  0  0  0  0  0  0  0  0
  188.5040  177.4410  145.6310 C   0  0  1  0  0  0  0  0  0  0  0  0
  189.7110  176.4730  147.3850 C   0  0  0  0  0  2  0  0  0  0  0  0
  187.4120  177.1140  144.5910 C   0  0  1  0  0  3  0  0  0  0  0  0
  190.5540  175.6280  143.2160 C   0  0  1  0  0  3  0  0  0  0  0  0
  192.0930  176.5480  147.2830 O   0  0  0  0  0  0  0  0  0  0  0  0
  190.4620  176.8930  142.3430 C   0  0  2  0  0  0  0  0  0  0  0  0
  188.6930  176.2750  146.4240 O   0  0  0  0  0  0  0  0  0  0  0  0
  189.7490  179.0550  144.3160 O   0  0  0  0  0  1  0  0  0  0  0  0
  191.7320  175.6080  143.9690 O   0  0  0  0  0  1  0  0  0  0  0  0
  190.9840  177.5230  145.5190 O   0  0  0  0  0  0  0  0  0  0  0  0
  189.7640  176.6910  141.0110 C   0  0  0  0  0  2  0  0  0  0  0  0
  190.5990  177.0850  139.9630 O   0  0  0  0  0  1  0  0  0  0  0  0
  1  4  1  0  0  0  0
  2 33  1  0  0  0  0
  2  6  1  0  0  0  0
  3  2  2  0  0  0  0
  4  6  2  0  0  0  0
  5  3  1  0  0  0  0
  5  1  2  0  0  0  0
  7  5  1  0  0  0  0
  8  7  1  0  0  0  0
 10 23  1  0  0  0  0
 11 13  1  0  0  0  0
 12 18  1  0  0  0  0
 12 15  1  0  0  0  0
 12 13  1  1  0  0  0
 14 11  1  0  0  0  0
 14  9  1  0  0  0  0
 15  9  1  0  0  0  0
 15 20  1  0  0  0  0
 16 23  1  0  0  0  0
 16 22  1  0  0  0  0
 18 16  2  0  0  0  0
 19 31  1  1  0  0  0
 19 17  1  0  0  0  0
 20 22  2  0  0  0  0
 21 10  1  0  0  0  0
 21 19  1  0  0  0  0
 22  8  1  0  0  0  0
 23 17  1  0  0  0  0
 24 27  1  1  0  0  0
 24 28  1  0  0  0  0
 24 26  1  0  0  0  0
 26 20  1  6  0  0  0
 28 25  1  1  0  0  0
 28 26  1  0  0  0  0
 29 31  1  0  0  0  0
 29 32  1  0  0  0  0
 30 29  2  0  0  0  0
 35 34  1  0  0  0  0
 35 37  1  1  0  0  0
 36 33  1  6  0  0  0
 36 35  1  0  0  0  0
 36 34  1  0  0  0  0
 38 48  2  0  0  0  0
 38 45  1  0  0  0  0
 40 51  1  6  0  0  0
 40 53  1  0  0  0  0
 40 44  1  0  0  0  0
 42 46  1  0  0  0  0
 43 42  1  6  0  0  0
 43 40  1  0  0  0  0
 44 50  1  0  0  0  0
 44 41  1  1  0  0  0
 46 37  1  6  0  0  0
 46 44  1  0  0  0  0
 47 43  1  0  0  0  0
 47 52  1  1  0  0  0
 49 39  1  1  0  0  0
 49 47  1  0  0  0  0
 49 43  1  0  0  0  0
 50 45  1  0  0  0  0
 53 38  1  0  0  0  0
 54 49  1  0  0  0  0
 55 54  1  0  0  0  0
M  END
>  <MODEL>
5

>  <REMARK>
 VINA RESULT:      -8.1      2.629      5.126
  Name = 
  10 active torsions:
  status: ('A' for Active; 'I' for Inactive)
    1  A    between atoms: C_2  and  C_28
    2  A    between atoms: C_2  and  C_44
    3  A    between atoms: O_8  and  C_22
    4  A    between atoms: O_8  and  C_43
    5  A    between atoms: C_11  and  C_38
    6  A    between atoms: C_19  and  C_45
    7  A    between atoms: C_27  and  C_54
    8  A    between atoms: C_28  and  C_49
    9  A    between atoms: N_32  and  C_39
   10  A    between atoms: C_51  and  C_54
                            x       y       z     vdW  Elec       q    Type
                         _______ _______ _______ _____ _____    ______ ____

>  <TORSDO>
F 10

$$$$
=
 OpenBabel11052415093D

 55 63  0  0  1  0  0  0  0  0999 V2000
  185.0450  178.4710  139.6620 C   0  0  0  0  0  3  0  0  0  0  0  0
  184.2970  178.7810  142.3470 C   0  0  0  0  0  0  0  0  0  0  0  0
  183.3910  178.2580  141.4230 C   0  0  0  0  0  3  0  0  0  0  0  0
  185.9560  178.9980  140.5850 C   0  0  0  0  0  3  0  0  0  0  0  0
  183.7580  178.1050  140.0790 C   0  0  0  0  0  0  0  0  0  0  0  0
  185.5820  179.1530  141.9260 C   0  0  0  0  0  3  0  0  0  0  0  0
  182.8040  177.4940  139.1130 C   0  0  0  0  0  2  0  0  0  0  0  0
  182.7980  175.9830  139.3020 C   0  0  0  0  0  2  0  0  0  0  0  0
  179.5300  172.9680  137.0870 C   0  0  0  0  0  2  0  0  0  0  0  0
  184.3680  177.1350  136.2350 C   0  0  0  0  0  2  0  0  0  0  0  0
  180.4330  171.5080  135.3060 N   0  0  0  0  0  2  0  0  0  0  0  0
  181.5110  173.7530  135.7470 C   0  0  1  0  0  3  0  0  0  0  0  0
  181.6830  172.2900  135.3280 C   0  0  0  0  0  2  0  0  0  0  0  0
  179.2520  172.2490  135.7690 C   0  0  0  0  0  2  0  0  0  0  0  0
  180.7010  173.8420  136.9680 N   0  0  0  0  0  0  0  0  0  0  0  0
  183.1890  175.0820  136.9290 C   0  0  0  0  0  0  0  0  0  0  0  0
  185.6580  175.1280  136.5730 C   0  0  0  0  0  2  0  0  0  0  0  0
  182.8200  174.3730  135.9030 N   0  0  0  0  0  0  0  0  0  0  0  0
  186.4160  176.0190  135.6070 C   0  0  1  0  0  3  0  0  0  0  0  0
  181.0380  174.7390  138.0460 C   0  0  0  0  0  0  0  0  0  0  0  0
  185.7500  177.3850  135.6450 C   0  0  0  0  0  2  0  0  0  0  0  0
  182.2780  175.2760  138.0820 C   0  0  0  0  0  0  0  0  0  0  0  0
  184.4130  175.8190  136.8440 N   0  0  0  0  0  0  0  0  0  0  0  0
  180.6530  175.8310  140.1920 C   0  0  1  0  0  3  0  0  0  0  0  0
  178.9320  174.2330  141.2160 C   0  0  0  0  0  1  0  0  0  0  0  0
  179.9780  175.0170  139.0980 C   0  0  2  0  0  3  0  0  0  0  0  0
  179.7020  176.8940  140.7210 C   0  0  0  0  0  1  0  0  0  0  0  0
  180.2400  174.3890  140.4600 C   0  0  1  0  0  3  0  0  0  0  0  0
  188.3720  176.4530  137.2020 C   0  0  0  0  0  0  0  0  0  0  0  0
  187.5290  176.7350  138.2710 O   0  0  0  0  0  1  0  0  0  0  0  0
  187.8420  176.0850  135.9200 N   0  0  0  0  0  2  0  0  0  0  0  0
  189.6210  176.4340  137.3790 O   0  0  0  0  0  0  0  0  0  0  0  0
  183.8870  178.9300  143.7760 C   0  0  0  0  0  2  0  0  0  0  0  0
  184.8450  179.0040  146.0760 C   0  0  0  0  0  2  0  0  0  0  0  0
  185.6970  178.0890  145.2220 C   0  0  1  0  0  3  0  0  0  0  0  0
  185.0850  179.3350  144.6180 C   0  0  1  0  0  3  0  0  0  0  0  0
  187.0550  178.3420  145.4580 O   0  0  0  0  0  0  0  0  0  0  0  0
  191.6320  176.4460  146.8210 C   0  0  0  0  0  0  0  0  0  0  0  0
  191.2810  178.0440  142.6150 C   0  0  0  0  0  1  0  0  0  0  0  0
  190.0300  177.6300  145.3600 C   0  0  2  0  0  0  0  0  0  0  0  0
  188.8340  178.3180  147.5400 C   0  0  0  0  0  1  0  0  0  0  0  0
  188.0510  176.4980  144.3090 C   0  0  0  0  0  2  0  0  0  0  0  0
  189.5210  176.8390  144.1390 C   0  0  2  0  0  0  0  0  0  0  0  0
  188.9830  177.2510  146.4440 C   0  0  1  0  0  0  0  0  0  0  0  0
  190.5180  176.0310  147.7190 C   0  0  0  0  0  2  0  0  0  0  0  0
  187.6600  177.0890  145.6660 C   0  0  1  0  0  3  0  0  0  0  0  0
  190.3050  175.7380  143.3970 C   0  0  1  0  0  3  0  0  0  0  0  0
  192.8090  176.0700  147.0550 O   0  0  0  0  0  0  0  0  0  0  0  0
  190.0750  177.1110  142.7380 C   0  0  2  0  0  0  0  0  0  0  0  0
  189.2920  175.9850  147.0150 O   0  0  0  0  0  0  0  0  0  0  0  0
  189.9640  179.0010  145.0820 O   0  0  0  0  0  1  0  0  0  0  0  0
  191.6250  175.5930  143.8340 O   0  0  0  0  0  1  0  0  0  0  0  0
  191.3660  177.2960  145.7480 O   0  0  0  0  0  0  0  0  0  0  0  0
  189.0730  177.1050  141.6000 C   0  0  0  0  0  2  0  0  0  0  0  0
  189.4620  178.0070  140.6070 O   0  0  0  0  0  1  0  0  0  0  0  0
  1  5  2  0  0  0  0
  1  4  1  0  0  0  0
  2 33  1  0  0  0  0
  3  2  2  0  0  0  0
  4  6  2  0  0  0  0
  5  3  1  0  0  0  0
  6  2  1  0  0  0  0
  7  8  1  0  0  0  0
  7  5  1  0  0  0  0
 10 23  1  0  0  0  0
 11 13  1  0  0  0  0
 11 14  1  0  0  0  0
 12 13  1  1  0  0  0
 12 18  1  0  0  0  0
 12 15  1  0  0  0  0
 14  9  1  0  0  0  0
 15  9  1  0  0  0  0
 15 20  1  0  0  0  0
 16 22  1  0  0  0  0
 17 23  1  0  0  0  0
 18 16  2  0  0  0  0
 19 21  1  0  0  0  0
 19 31  1  1  0  0  0
 19 17  1  0  0  0  0
 20 22  2  0  0  0  0
 21 10  1  0  0  0  0
 22  8  1  0  0  0  0
 23 16  1  0  0  0  0
 24 28  1  0  0  0  0
 24 27  1  1  0  0  0
 26 20  1  6  0  0  0
 26 24  1  0  0  0  0
 26 28  1  0  0  0  0
 28 25  1  1  0  0  0
 29 32  2  0  0  0  0
 29 30  1  0  0  0  0
 31 29  1  0  0  0  0
 35 37  1  1  0  0  0
 35 34  1  0  0  0  0
 36 33  1  6  0  0  0
 36 35  1  0  0  0  0
 36 34  1  0  0  0  0
 38 48  2  0  0  0  0
 38 45  1  0  0  0  0
 40 51  1  6  0  0  0
 40 53  1  0  0  0  0
 40 44  1  0  0  0  0
 42 46  1  0  0  0  0
 43 42  1  1  0  0  0
 43 40  1  0  0  0  0
 44 50  1  0  0  0  0
 44 41  1  1  0  0  0
 46 37  1  6  0  0  0
 46 44  1  0  0  0  0
 47 52  1  1  0  0  0
 47 43  1  0  0  0  0
 49 39  1  6  0  0  0
 49 47  1  0  0  0  0
 49 43  1  0  0  0  0
 50 45  1  0  0  0  0
 53 38  1  0  0  0  0
 54 49  1  0  0  0  0
 55 54  1  0  0  0  0
M  END
>  <MODEL>
6

>  <REMARK>
 VINA RESULT:      -7.7      1.784      2.771
  Name = 
  10 active torsions:
  status: ('A' for Active; 'I' for Inactive)
    1  A    between atoms: C_2  and  C_28
    2  A    between atoms: C_2  and  C_44
    3  A    between atoms: O_8  and  C_22
    4  A    between atoms: O_8  and  C_43
    5  A    between atoms: C_11  and  C_38
    6  A    between atoms: C_19  and  C_45
    7  A    between atoms: C_27  and  C_54
    8  A    between atoms: C_28  and  C_49
    9  A    between atoms: N_32  and  C_39
   10  A    between atoms: C_51  and  C_54
                            x       y       z     vdW  Elec       q    Type
                         _______ _______ _______ _____ _____    ______ ____

>  <TORSDO>
F 10

$$$$
=
 OpenBabel11052415093D

 55 63  0  0  1  0  0  0  0  0999 V2000
  190.4100  176.9840  139.8670 C   0  0  0  0  0  3  0  0  0  0  0  0
  189.0950  176.6530  137.4120 C   0  0  0  0  0  0  0  0  0  0  0  0
  188.4410  177.2720  138.4790 C   0  0  0  0  0  3  0  0  0  0  0  0
  191.0670  176.3600  138.8000 C   0  0  0  0  0  3  0  0  0  0  0  0
  189.0930  177.4360  139.7090 C   0  0  0  0  0  0  0  0  0  0  0  0
  190.4100  176.1940  137.5740 C   0  0  0  0  0  3  0  0  0  0  0  0
  188.4080  178.1480  140.8230 C   0  0  0  0  0  2  0  0  0  0  0  0
  187.9060  177.1290  141.8370 C   0  0  0  0  0  2  0  0  0  0  0  0
  187.8110  178.2290  146.6800 C   0  0  0  0  0  2  0  0  0  0  0  0
  185.2330  179.4010  140.8930 C   0  0  0  0  0  2  0  0  0  0  0  0
  185.5720  178.3190  147.7290 N   0  0  0  0  0  2  0  0  0  0  0  0
  185.8260  178.8890  145.2790 C   0  0  1  0  0  3  0  0  0  0  0  0
  184.9640  178.2770  146.3860 C   0  0  0  0  0  2  0  0  0  0  0  0
  186.9350  178.8680  147.7560 C   0  0  0  0  0  2  0  0  0  0  0  0
  187.1980  178.3720  145.3560 N   0  0  0  0  0  0  0  0  0  0  0  0
  185.8330  178.1640  142.9430 C   0  0  0  0  0  0  0  0  0  0  0  0
  183.8910  177.5010  141.5230 C   0  0  0  0  0  2  0  0  0  0  0  0
  185.2090  178.6340  143.9830 N   0  0  0  0  0  0  0  0  0  0  0  0
  183.0360  178.4210  140.6730 C   0  0  1  0  0  3  0  0  0  0  0  0
  187.9380  177.9870  144.1800 C   0  0  0  0  0  0  0  0  0  0  0  0
  183.9710  179.4400  140.0410 C   0  0  0  0  0  2  0  0  0  0  0  0
  187.2670  177.7970  143.0210 C   0  0  0  0  0  0  0  0  0  0  0  0
  185.1610  178.1830  141.6790 N   0  0  0  0  0  0  0  0  0  0  0  0
  189.7370  176.3660  143.8930 C   0  0  1  0  0  3  0  0  0  0  0  0
  191.2920  177.0650  145.8060 C   0  0  0  0  0  1  0  0  0  0  0  0
  189.4390  177.7980  144.3130 C   0  0  2  0  0  3  0  0  0  0  0  0
  191.0390  176.3070  143.1080 C   0  0  0  0  0  1  0  0  0  0  0  0
  189.8710  176.7750  145.3550 C   0  0  1  0  0  3  0  0  0  0  0  0
  180.8870  177.2980  139.8500 C   0  0  0  0  0  0  0  0  0  0  0  0
  180.1810  177.6490  140.9950 O   0  0  0  0  0  1  0  0  0  0  0  0
  182.2570  177.6870  139.6780 N   0  0  0  0  0  2  0  0  0  0  0  0
  180.2940  176.7060  138.9070 O   0  0  0  0  0  0  0  0  0  0  0  0
  188.3840  176.4930  136.1080 C   0  0  0  0  0  2  0  0  0  0  0  0
  187.0900  178.1550  134.7750 C   0  0  0  0  0  2  0  0  0  0  0  0
  186.2420  176.9130  134.9620 C   0  0  1  0  0  3  0  0  0  0  0  0
  187.1540  177.3840  136.0760 C   0  0  1  0  0  3  0  0  0  0  0  0
  184.9290  177.2760  135.2930 O   0  0  0  0  0  0  0  0  0  0  0  0
  181.2130  174.0810  136.8350 C   0  0  0  0  0  0  0  0  0  0  0  0
  185.4300  172.9980  138.0270 C   0  0  0  0  0  1  0  0  0  0  0  0
  183.5120  174.9810  136.7380 C   0  0  2  0  0  0  0  0  0  0  0  0
  182.3990  177.2750  136.3390 C   0  0  0  0  0  1  0  0  0  0  0  0
  184.8890  174.9780  134.6390 C   0  0  0  0  0  2  0  0  0  0  0  0
  184.5120  174.1840  135.8770 C   0  0  2  0  0  0  0  0  0  0  0  0
  182.9230  175.9780  135.7010 C   0  0  1  0  0  0  0  0  0  0  0  0
  180.7990  174.9990  135.7370 C   0  0  0  0  0  2  0  0  0  0  0  0
  184.0970  176.2830  134.7460 C   0  0  1  0  0  3  0  0  0  0  0  0
  184.4530  172.6650  135.6160 C   0  0  1  0  0  3  0  0  0  0  0  0
  180.3920  173.2630  137.3220 O   0  0  0  0  0  0  0  0  0  0  0  0
  185.5450  173.2590  136.5240 C   0  0  2  0  0  0  0  0  0  0  0  0
  181.9050  175.3520  134.9300 O   0  0  0  0  0  0  0  0  0  0  0  0
  184.2120  175.6750  137.7340 O   0  0  0  0  0  1  0  0  0  0  0  0
  183.4710  172.0020  136.3580 O   0  0  0  0  0  1  0  0  0  0  0  0
  182.5050  174.1710  137.3530 O   0  0  0  0  0  0  0  0  0  0  0  0
  186.9350  173.2670  135.9180 C   0  0  0  0  0  2  0  0  0  0  0  0
  187.8850  172.9210  136.8810 O   0  0  0  0  0  1  0  0  0  0  0  0
  2  6  2  0  0  0  0
  2  3  1  0  0  0  0
  3  5  2  0  0  0  0
  4  1  2  0  0  0  0
  5  1  1  0  0  0  0
  5  7  1  0  0  0  0
  6  4  1  0  0  0  0
  7  8  1  0  0  0  0
  8 22  1  0  0  0  0
  9 14  1  0  0  0  0
 10 23  1  0  0  0  0
 11 14  1  0  0  0  0
 12 15  1  0  0  0  0
 12 13  1  1  0  0  0
 13 11  1  0  0  0  0
 15  9  1  0  0  0  0
 16 22  1  0  0  0  0
 16 18  2  0  0  0  0
 17 23  1  0  0  0  0
 18 12  1  0  0  0  0
 19 31  1  6  0  0  0
 19 17  1  0  0  0  0
 20 15  1  0  0  0  0
 21 19  1  0  0  0  0
 21 10  1  0  0  0  0
 22 20  2  0  0  0  0
 23 16  1  0  0  0  0
 24 27  1  6  0  0  0
 24 26  1  0  0  0  0
 24 28  1  0  0  0  0
 26 20  1  1  0  0  0
 26 28  1  0  0  0  0
 28 25  1  6  0  0  0
 29 30  1  0  0  0  0
 31 29  1  0  0  0  0
 32 29  2  0  0  0  0
 33  2  1  0  0  0  0
 34 35  1  0  0  0  0
 34 36  1  0  0  0  0
 35 37  1  1  0  0  0
 35 36  1  0  0  0  0
 36 33  1  6  0  0  0
 38 48  2  0  0  0  0
 38 53  1  0  0  0  0
 40 53  1  0  0  0  0
 40 51  1  1  0  0  0
 42 46  1  0  0  0  0
 43 42  1  6  0  0  0
 43 49  1  0  0  0  0
 43 40  1  0  0  0  0
 44 41  1  1  0  0  0
 44 40  1  0  0  0  0
 45 38  1  0  0  0  0
 46 37  1  1  0  0  0
 46 44  1  0  0  0  0
 47 43  1  0  0  0  0
 47 52  1  1  0  0  0
 47 49  1  0  0  0  0
 49 39  1  1  0  0  0
 50 44  1  0  0  0  0
 50 45  1  0  0  0  0
 54 49  1  0  0  0  0
 54 55  1  0  0  0  0
M  END
>  <MODEL>
7

>  <REMARK>
 VINA RESULT:      -7.5      4.135     10.292
  Name = 
  10 active torsions:
  status: ('A' for Active; 'I' for Inactive)
    1  A    between atoms: C_2  and  C_28
    2  A    between atoms: C_2  and  C_44
    3  A    between atoms: O_8  and  C_22
    4  A    between atoms: O_8  and  C_43
    5  A    between atoms: C_11  and  C_38
    6  A    between atoms: C_19  and  C_45
    7  A    between atoms: C_27  and  C_54
    8  A    between atoms: C_28  and  C_49
    9  A    between atoms: N_32  and  C_39
   10  A    between atoms: C_51  and  C_54
                            x       y       z     vdW  Elec       q    Type
                         _______ _______ _______ _____ _____    ______ ____

>  <TORSDO>
F 10

$$$$
