=
 OpenBabel11052413523D

 27 31  0  0  1  0  0  0  0  0999 V2000
  185.5490  178.6280  141.6020 N   0  0  0  0  0  2  0  0  0  0  0  0
  185.5100  178.6900  144.1150 C   0  0  0  0  0  0  0  0  0  0  0  0
  187.2510  177.1140  143.4290 N   0  0  0  0  0  2  0  0  0  0  0  0
  186.9670  178.7470  148.0160 C   0  0  0  0  0  3  0  0  0  0  0  0
  188.5050  177.9660  149.6600 F   0  0  0  0  0  0  0  0  0  0  0  0
  184.9750  179.4840  145.0880 N   0  0  0  0  0  0  0  0  0  0  0  0
  188.6480  177.0980  147.4450 C   0  0  0  0  0  3  0  0  0  0  0  0
  191.1930  177.2240  140.0090 Cl  0  0  0  0  0  0  0  0  0  0  0  0
  188.1750  177.0640  146.1300 C   0  0  0  0  0  3  0  0  0  0  0  0
  189.5420  177.5590  140.4850 C   0  0  0  0  0  0  0  0  0  0  0  0
  187.0900  177.8700  145.7510 C   0  0  0  0  0  0  0  0  0  0  0  0
  184.8540  178.6060  142.8310 N   0  0  0  0  0  0  0  0  0  0  0  0
  188.0440  177.9360  148.3870 C   0  0  0  0  0  0  0  0  0  0  0  0
  186.4900  178.7150  146.7020 C   0  0  0  0  0  0  0  0  0  0  0  0
  186.9260  178.3370  141.3240 C   0  0  0  0  0  0  0  0  0  0  0  0
  186.6010  177.8730  144.4380 C   0  0  0  0  0  0  0  0  0  0  0  0
  188.9840  176.9350  141.7310 C   0  0  0  0  0  2  0  0  0  0  0  0
  185.4520  179.5040  146.3340 N   0  0  0  0  0  0  0  0  0  0  0  0
  188.7570  178.2900  139.6900 C   0  0  0  0  0  3  0  0  0  0  0  0
  187.3690  178.5880  140.0860 C   0  0  0  0  0  3  0  0  0  0  0  0
  187.9090  177.8300  142.3580 C   0  0  2  0  0  3  0  0  0  0  0  0
  180.6040  178.6510  142.6200 C   0  0  0  0  0  3  0  0  0  0  0  0
  183.4120  178.6430  142.7660 C   0  0  0  0  0  0  0  0  0  0  0  0
  182.6350  178.6710  143.9370 C   0  0  0  0  0  3  0  0  0  0  0  0
  181.2390  178.6790  143.8640 C   0  0  0  0  0  3  0  0  0  0  0  0
  181.3640  178.6110  141.4490 C   0  0  0  0  0  3  0  0  0  0  0  0
  182.7600  178.6030  141.5220 C   0  0  0  0  0  3  0  0  0  0  0  0
  1 12  1  0  0  0  0
  2 16  2  0  0  0  0
  2  6  1  0  0  0  0
  3 16  1  0  0  0  0
  4 13  1  0  0  0  0
  6 18  2  0  0  0  0
  7 13  2  0  0  0  0
  8 10  1  0  0  0  0
  9  7  1  0  0  0  0
 10 17  1  0  0  0  0
 11  9  2  0  0  0  0
 11 14  1  0  0  0  0
 12  2  1  0  0  0  0
 13  5  1  0  0  0  0
 14  4  2  0  0  0  0
 15  1  1  0  0  0  0
 15 21  1  0  0  0  0
 16 11  1  0  0  0  0
 18 14  1  0  0  0  0
 19 20  1  0  0  0  0
 19 10  2  0  0  0  0
 20 15  2  0  0  0  0
 21 17  1  6  0  0  0
 21  3  1  0  0  0  0
 22 25  1  0  0  0  0
 23 12  1  0  0  0  0
 23 24  1  0  0  0  0
 25 24  2  0  0  0  0
 26 27  1  0  0  0  0
 26 22  2  0  0  0  0
 27 23  2  0  0  0  0
M  END
>  <MODEL>
1

>  <REMARK>
 VINA RESULT:     -10.1      0.000      0.000
  Name = 
  1 active torsions:
  status: ('A' for Active; 'I' for Inactive)
    1  A    between atoms: C_9  and  N_15
                            x       y       z     vdW  Elec       q    Type
                         _______ _______ _______ _____ _____    ______ ____

>  <TORSDO>
F 1

$$$$
=
 OpenBabel11052413523D

 27 31  0  0  1  0  0  0  0  0999 V2000
  186.5030  178.5520  139.8490 N   0  0  0  0  0  2  0  0  0  0  0  0
  185.6990  178.7170  142.2250 C   0  0  0  0  0  0  0  0  0  0  0  0
  187.5760  177.1490  142.1740 N   0  0  0  0  0  2  0  0  0  0  0  0
  185.8950  178.9640  146.3780 C   0  0  0  0  0  3  0  0  0  0  0  0
  186.8630  178.2820  148.4460 F   0  0  0  0  0  0  0  0  0  0  0  0
  184.8870  179.5390  142.9510 N   0  0  0  0  0  0  0  0  0  0  0  0
  187.6800  177.3260  146.4210 C   0  0  0  0  0  3  0  0  0  0  0  0
  192.3730  177.1950  140.1160 Cl  0  0  0  0  0  0  0  0  0  0  0  0
  187.6310  177.2280  145.0280 C   0  0  0  0  0  3  0  0  0  0  0  0
  190.6530  177.5170  140.0510 C   0  0  0  0  0  0  0  0  0  0  0  0
  186.7090  177.9960  144.3000 C   0  0  0  0  0  0  0  0  0  0  0  0
  185.4660  178.5670  140.8070 N   0  0  0  0  0  0  0  0  0  0  0  0
  186.8130  178.1910  147.0950 C   0  0  0  0  0  0  0  0  0  0  0  0
  185.8420  178.8690  144.9840 C   0  0  0  0  0  0  0  0  0  0  0  0
  187.9010  178.2760  140.0170 C   0  0  0  0  0  0  0  0  0  0  0  0
  186.6440  177.9360  142.9020 C   0  0  0  0  0  0  0  0  0  0  0  0
  189.7450  176.9330  141.0950 C   0  0  0  0  0  2  0  0  0  0  0  0
  184.9610  179.6200  144.2810 N   0  0  0  0  0  0  0  0  0  0  0  0
  190.1440  178.1980  139.0220 C   0  0  0  0  0  3  0  0  0  0  0  0
  188.6990  178.4850  138.9620 C   0  0  0  0  0  3  0  0  0  0  0  0
  188.5240  177.8320  141.3230 C   0  0  2  0  0  3  0  0  0  0  0  0
  181.5000  178.5650  139.2660 C   0  0  0  0  0  3  0  0  0  0  0  0
  184.1130  178.5720  140.3050 C   0  0  0  0  0  0  0  0  0  0  0  0
  183.2030  177.5610  140.6620 C   0  0  0  0  0  3  0  0  0  0  0  0
  181.9030  177.5610  140.1490 C   0  0  0  0  0  3  0  0  0  0  0  0
  182.3970  179.5690  138.8940 C   0  0  0  0  0  3  0  0  0  0  0  0
  183.6970  179.5700  139.4070 C   0  0  0  0  0  3  0  0  0  0  0  0
  1 15  1  0  0  0  0
  1 12  1  0  0  0  0
  2 16  2  0  0  0  0
  2  6  1  0  0  0  0
  3 16  1  0  0  0  0
  4 13  1  0  0  0  0
  6 18  2  0  0  0  0
  7 13  2  0  0  0  0
  9  7  1  0  0  0  0
 10  8  1  0  0  0  0
 10 17  1  0  0  0  0
 11 14  1  0  0  0  0
 11  9  2  0  0  0  0
 12  2  1  0  0  0  0
 13  5  1  0  0  0  0
 14  4  2  0  0  0  0
 15 21  1  0  0  0  0
 16 11  1  0  0  0  0
 18 14  1  0  0  0  0
 19 10  2  0  0  0  0
 20 19  1  0  0  0  0
 20 15  2  0  0  0  0
 21 17  1  6  0  0  0
 21  3  1  0  0  0  0
 22 25  1  0  0  0  0
 23 24  1  0  0  0  0
 23 12  1  0  0  0  0
 25 24  2  0  0  0  0
 26 22  2  0  0  0  0
 26 27  1  0  0  0  0
 27 23  2  0  0  0  0
M  END
>  <MODEL>
2

>  <REMARK>
 VINA RESULT:      -9.7      1.683      2.111
  Name = 
  1 active torsions:
  status: ('A' for Active; 'I' for Inactive)
    1  A    between atoms: C_9  and  N_15
                            x       y       z     vdW  Elec       q    Type
                         _______ _______ _______ _____ _____    ______ ____

>  <TORSDO>
F 1

$$$$
=
 OpenBabel11052413523D

 27 31  0  0  1  0  0  0  0  0999 V2000
  187.5960  178.2780  141.9590 N   0  0  0  0  0  2  0  0  0  0  0  0
  188.5090  177.7510  144.2430 C   0  0  0  0  0  0  0  0  0  0  0  0
  189.5560  176.2230  142.6440 N   0  0  0  0  0  2  0  0  0  0  0  0
  191.3000  176.7530  147.1680 C   0  0  0  0  0  3  0  0  0  0  0  0
  193.1730  175.4660  147.8850 F   0  0  0  0  0  0  0  0  0  0  0  0
  188.5270  178.3410  145.4730 N   0  0  0  0  0  0  0  0  0  0  0  0
  192.3210  175.1320  145.6840 C   0  0  0  0  0  3  0  0  0  0  0  0
  191.8890  176.7590  138.0050 Cl  0  0  0  0  0  0  0  0  0  0  0  0
  191.3940  175.4530  144.6880 C   0  0  0  0  0  3  0  0  0  0  0  0
  190.6230  177.1280  139.1580 C   0  0  0  0  0  0  0  0  0  0  0  0
  190.4100  176.4240  144.9280 C   0  0  0  0  0  0  0  0  0  0  0  0
  187.4180  178.0340  143.3390 N   0  0  0  0  0  0  0  0  0  0  0  0
  192.2740  175.7790  146.9220 C   0  0  0  0  0  0  0  0  0  0  0  0
  190.3700  177.0760  146.1750 C   0  0  0  0  0  0  0  0  0  0  0  0
  188.6940  177.9310  141.1030 C   0  0  0  0  0  0  0  0  0  0  0  0
  189.4760  176.7820  143.9480 C   0  0  0  0  0  0  0  0  0  0  0  0
  190.4670  176.2840  140.3900 C   0  0  0  0  0  2  0  0  0  0  0  0
  189.4290  178.0230  146.4030 N   0  0  0  0  0  0  0  0  0  0  0  0
  189.7440  178.0950  138.8910 C   0  0  0  0  0  3  0  0  0  0  0  0
  188.6800  178.4230  139.8580 C   0  0  0  0  0  3  0  0  0  0  0  0
  189.8830  177.1050  141.5450 C   0  0  2  0  0  3  0  0  0  0  0  0
  183.5140  178.6460  144.9190 C   0  0  0  0  0  3  0  0  0  0  0  0
  186.0880  178.2210  143.8680 C   0  0  0  0  0  0  0  0  0  0  0  0
  184.9890  178.4210  143.0130 C   0  0  0  0  0  3  0  0  0  0  0  0
  183.7100  178.6280  143.5360 C   0  0  0  0  0  3  0  0  0  0  0  0
  184.5990  178.4600  145.7800 C   0  0  0  0  0  3  0  0  0  0  0  0
  185.8780  178.2530  145.2570 C   0  0  0  0  0  3  0  0  0  0  0  0
  1 12  1  0  0  0  0
  2  6  1  0  0  0  0
  3 16  1  0  0  0  0
  6 18  2  0  0  0  0
  7 13  2  0  0  0  0
  8 10  1  0  0  0  0
  9 11  2  0  0  0  0
  9  7  1  0  0  0  0
 10 17  1  0  0  0  0
 11 14  1  0  0  0  0
 12 23  1  0  0  0  0
 12  2  1  0  0  0  0
 13  4  1  0  0  0  0
 13  5  1  0  0  0  0
 14 18  1  0  0  0  0
 14  4  2  0  0  0  0
 15 21  1  0  0  0  0
 15  1  1  0  0  0  0
 16  2  2  0  0  0  0
 16 11  1  0  0  0  0
 19 10  2  0  0  0  0
 19 20  1  0  0  0  0
 20 15  2  0  0  0  0
 21 17  1  6  0  0  0
 21  3  1  0  0  0  0
 22 26  1  0  0  0  0
 23 27  1  0  0  0  0
 24 25  1  0  0  0  0
 24 23  2  0  0  0  0
 25 22  2  0  0  0  0
 27 26  2  0  0  0  0
M  END
>  <MODEL>
3

>  <REMARK>
 VINA RESULT:      -9.6      2.480      3.490
  Name = 
  1 active torsions:
  status: ('A' for Active; 'I' for Inactive)
    1  A    between atoms: C_9  and  N_15
                            x       y       z     vdW  Elec       q    Type
                         _______ _______ _______ _____ _____    ______ ____

>  <TORSDO>
F 1

$$$$
=
 OpenBabel11052413523D

 27 31  0  0  1  0  0  0  0  0999 V2000
  184.5890  178.2610  140.9820 N   0  0  0  0  0  2  0  0  0  0  0  0
  186.3390  177.9270  142.7570 C   0  0  0  0  0  0  0  0  0  0  0  0
  184.6020  179.3820  143.6780 N   0  0  0  0  0  2  0  0  0  0  0  0
  187.9500  177.2910  146.5440 C   0  0  0  0  0  3  0  0  0  0  0  0
  187.9560  177.7250  148.8870 F   0  0  0  0  0  0  0  0  0  0  0  0
  187.3940  177.0890  142.9750 N   0  0  0  0  0  0  0  0  0  0  0  0
  186.3360  178.8130  147.5190 C   0  0  0  0  0  3  0  0  0  0  0  0
  179.3870  179.2470  143.8690 Cl  0  0  0  0  0  0  0  0  0  0  0  0
  185.7800  179.0400  146.2570 C   0  0  0  0  0  3  0  0  0  0  0  0
  180.9160  179.0320  143.0430 C   0  0  0  0  0  0  0  0  0  0  0  0
  186.3090  178.3960  145.1280 C   0  0  0  0  0  0  0  0  0  0  0  0
  185.9370  178.2180  141.4000 N   0  0  0  0  0  0  0  0  0  0  0  0
  187.4200  177.9420  147.6630 C   0  0  0  0  0  0  0  0  0  0  0  0
  187.3970  177.5160  145.2800 C   0  0  0  0  0  0  0  0  0  0  0  0
  183.3960  178.4390  141.7580 C   0  0  0  0  0  0  0  0  0  0  0  0
  185.7660  178.5870  143.8510 C   0  0  0  0  0  0  0  0  0  0  0  0
  182.1770  179.5690  143.6560 C   0  0  0  0  0  2  0  0  0  0  0  0
  187.9000  176.8840  144.1930 N   0  0  0  0  0  0  0  0  0  0  0  0
  180.9420  178.4780  141.8290 C   0  0  0  0  0  3  0  0  0  0  0  0
  182.2250  178.2810  141.1290 C   0  0  0  0  0  3  0  0  0  0  0  0
  183.3890  178.7250  143.2450 C   0  0  2  0  0  3  0  0  0  0  0  0
  188.9260  178.5080  138.3850 C   0  0  0  0  0  3  0  0  0  0  0  0
  186.9430  178.3360  140.3710 C   0  0  0  0  0  0  0  0  0  0  0  0
  186.6090  178.2040  139.0120 C   0  0  0  0  0  3  0  0  0  0  0  0
  187.5940  178.2930  138.0250 C   0  0  0  0  0  3  0  0  0  0  0  0
  189.2740  178.6310  139.7320 C   0  0  0  0  0  3  0  0  0  0  0  0
  188.2890  178.5410  140.7190 C   0  0  0  0  0  3  0  0  0  0  0  0
  1 12  1  0  0  0  0
  1 15  1  0  0  0  0
  2  6  2  0  0  0  0
  2 16  1  0  0  0  0
  3 16  1  0  0  0  0
  4 13  2  0  0  0  0
  6 18  1  0  0  0  0
  7 13  1  0  0  0  0
  9  7  2  0  0  0  0
 10 17  1  0  0  0  0
 10  8  1  0  0  0  0
 11 14  1  0  0  0  0
 11  9  1  0  0  0  0
 12  2  1  0  0  0  0
 13  5  1  0  0  0  0
 14  4  1  0  0  0  0
 15 21  1  0  0  0  0
 16 11  2  0  0  0  0
 18 14  2  0  0  0  0
 19 10  2  0  0  0  0
 20 15  2  0  0  0  0
 20 19  1  0  0  0  0
 21 17  1  6  0  0  0
 21  3  1  0  0  0  0
 22 26  1  0  0  0  0
 23 27  1  0  0  0  0
 23 12  1  0  0  0  0
 24 23  2  0  0  0  0
 25 22  2  0  0  0  0
 25 24  1  0  0  0  0
 26 27  2  0  0  0  0
M  END
>  <MODEL>
4

>  <REMARK>
 VINA RESULT:      -9.1      2.653      5.543
  Name = 
  1 active torsions:
  status: ('A' for Active; 'I' for Inactive)
    1  A    between atoms: C_9  and  N_15
                            x       y       z     vdW  Elec       q    Type
                         _______ _______ _______ _____ _____    ______ ____

>  <TORSDO>
F 1

$$$$
=
 OpenBabel11052413523D

 27 31  0  0  1  0  0  0  0  0999 V2000
  188.6000  177.7590  145.8180 N   0  0  0  0  0  2  0  0  0  0  0  0
  190.2250  177.4390  143.9250 C   0  0  0  0  0  0  0  0  0  0  0  0
  188.0060  176.7890  143.1280 N   0  0  0  0  0  2  0  0  0  0  0  0
  191.7080  177.5030  140.0350 C   0  0  0  0  0  3  0  0  0  0  0  0
  191.3960  177.1600  137.6970 F   0  0  0  0  0  0  0  0  0  0  0  0
  191.5050  177.8110  143.6330 N   0  0  0  0  0  0  0  0  0  0  0  0
  189.5730  176.7450  139.1760 C   0  0  0  0  0  3  0  0  0  0  0  0
  183.2460  178.9240  143.3000 Cl  0  0  0  0  0  0  0  0  0  0  0  0
  189.0560  176.7170  140.4730 C   0  0  0  0  0  3  0  0  0  0  0  0
  184.7890  178.5130  144.0170 C   0  0  0  0  0  0  0  0  0  0  0  0
  189.8640  177.0790  141.5630 C   0  0  0  0  0  0  0  0  0  0  0  0
  189.8300  177.2900  145.3070 N   0  0  0  0  0  0  0  0  0  0  0  0
  190.8970  177.1350  138.9560 C   0  0  0  0  0  0  0  0  0  0  0  0
  191.1950  177.4760  141.3350 C   0  0  0  0  0  0  0  0  0  0  0  0
  187.3830  178.0730  145.1260 C   0  0  0  0  0  0  0  0  0  0  0  0
  189.3730  177.0780  142.8740 C   0  0  0  0  0  0  0  0  0  0  0  0
  185.7030  177.5480  143.3190 C   0  0  0  0  0  2  0  0  0  0  0  0
  191.9720  177.8380  142.3830 N   0  0  0  0  0  0  0  0  0  0  0  0
  185.1050  178.9830  145.2260 C   0  0  0  0  0  3  0  0  0  0  0  0
  186.4070  178.6530  145.8350 C   0  0  0  0  0  3  0  0  0  0  0  0
  187.1700  177.8500  143.6440 C   0  0  2  0  0  3  0  0  0  0  0  0
  192.6700  175.7780  148.0930 C   0  0  0  0  0  3  0  0  0  0  0  0
  190.7770  176.7670  146.2640 C   0  0  0  0  0  0  0  0  0  0  0  0
  190.8590  177.2950  147.5650 C   0  0  0  0  0  3  0  0  0  0  0  0
  191.7970  176.8000  148.4750 C   0  0  0  0  0  3  0  0  0  0  0  0
  192.6070  175.2530  146.8000 C   0  0  0  0  0  3  0  0  0  0  0  0
  191.6680  175.7480  145.8900 C   0  0  0  0  0  3  0  0  0  0  0  0
  2 12  1  0  0  0  0
  3 21  1  0  0  0  0
  4 14  1  0  0  0  0
  5 13  1  0  0  0  0
  6  2  1  0  0  0  0
  7  9  2  0  0  0  0
  8 10  1  0  0  0  0
  9 11  1  0  0  0  0
 10 19  2  0  0  0  0
 11 16  1  0  0  0  0
 12  1  1  0  0  0  0
 12 23  1  0  0  0  0
 13  7  1  0  0  0  0
 13  4  2  0  0  0  0
 14 11  2  0  0  0  0
 14 18  1  0  0  0  0
 15  1  1  0  0  0  0
 15 20  2  0  0  0  0
 16  3  1  0  0  0  0
 16  2  2  0  0  0  0
 17 10  1  0  0  0  0
 18  6  2  0  0  0  0
 19 20  1  0  0  0  0
 21 17  1  1  0  0  0
 21 15  1  0  0  0  0
 22 25  1  0  0  0  0
 23 24  1  0  0  0  0
 24 25  2  0  0  0  0
 26 22  2  0  0  0  0
 27 23  2  0  0  0  0
 27 26  1  0  0  0  0
M  END
>  <MODEL>
5

>  <REMARK>
 VINA RESULT:      -9.1      3.837      7.912
  Name = 
  1 active torsions:
  status: ('A' for Active; 'I' for Inactive)
    1  A    between atoms: C_9  and  N_15
                            x       y       z     vdW  Elec       q    Type
                         _______ _______ _______ _____ _____    ______ ____

>  <TORSDO>
F 1

$$$$
=
 OpenBabel11052413523D

 27 31  0  0  1  0  0  0  0  0999 V2000
  188.3690  177.3930  141.8850 N   0  0  0  0  0  2  0  0  0  0  0  0
  190.3000  176.5630  143.2650 C   0  0  0  0  0  0  0  0  0  0  0  0
  189.0740  178.2050  144.6000 N   0  0  0  0  0  2  0  0  0  0  0  0
  192.3890  175.2530  146.6200 C   0  0  0  0  0  3  0  0  0  0  0  0
  192.8900  175.4300  148.9440 F   0  0  0  0  0  0  0  0  0  0  0  0
  191.1910  175.5300  143.2190 N   0  0  0  0  0  0  0  0  0  0  0  0
  191.3040  176.9320  147.9900 C   0  0  0  0  0  3  0  0  0  0  0  0
  184.0500  179.0000  145.7750 Cl  0  0  0  0  0  0  0  0  0  0  0  0
  190.5920  177.3860  146.8760 C   0  0  0  0  0  3  0  0  0  0  0  0
  185.3380  178.5980  144.6590 C   0  0  0  0  0  0  0  0  0  0  0  0
  190.7780  176.7790  145.6240 C   0  0  0  0  0  0  0  0  0  0  0  0
  189.7340  177.0630  142.0330 N   0  0  0  0  0  0  0  0  0  0  0  0
  192.2020  175.8680  147.8620 C   0  0  0  0  0  0  0  0  0  0  0  0
  191.6800  175.7050  145.5040 C   0  0  0  0  0  0  0  0  0  0  0  0
  187.3890  177.7030  142.8860 C   0  0  0  0  0  0  0  0  0  0  0  0
  190.0700  177.1980  144.4920 C   0  0  0  0  0  0  0  0  0  0  0  0
  186.7680  178.8310  145.0550 C   0  0  0  0  0  2  0  0  0  0  0  0
  191.8510  175.1090  144.3000 N   0  0  0  0  0  0  0  0  0  0  0  0
  185.0420  178.1790  143.4270 C   0  0  0  0  0  3  0  0  0  0  0  0
  186.1180  177.8270  142.4820 C   0  0  0  0  0  3  0  0  0  0  0  0
  187.6980  177.8290  144.3620 C   0  0  2  0  0  3  0  0  0  0  0  0
  192.1670  177.1310  138.5430 C   0  0  0  0  0  3  0  0  0  0  0  0
  190.5480  177.1040  140.8420 C   0  0  0  0  0  0  0  0  0  0  0  0
  190.0260  176.7210  139.5940 C   0  0  0  0  0  3  0  0  0  0  0  0
  190.8300  176.7380  138.4510 C   0  0  0  0  0  3  0  0  0  0  0  0
  192.7020  177.5030  139.7790 C   0  0  0  0  0  3  0  0  0  0  0  0
  191.8980  177.4850  140.9210 C   0  0  0  0  0  3  0  0  0  0  0  0
  1 12  1  0  0  0  0
  1 15  1  0  0  0  0
  2 16  1  0  0  0  0
  4 13  2  0  0  0  0
  6  2  2  0  0  0  0
  6 18  1  0  0  0  0
  9  7  2  0  0  0  0
 10 17  1  0  0  0  0
 10  8  1  0  0  0  0
 11  9  1  0  0  0  0
 12  2  1  0  0  0  0
 13  7  1  0  0  0  0
 13  5  1  0  0  0  0
 14 11  1  0  0  0  0
 14  4  1  0  0  0  0
 15 21  1  0  0  0  0
 16  3  1  0  0  0  0
 16 11  2  0  0  0  0
 18 14  2  0  0  0  0
 19 10  2  0  0  0  0
 20 15  2  0  0  0  0
 20 19  1  0  0  0  0
 21  3  1  0  0  0  0
 21 17  1  6  0  0  0
 22 26  1  0  0  0  0
 23 27  1  0  0  0  0
 23 12  1  0  0  0  0
 24 23  2  0  0  0  0
 25 22  2  0  0  0  0
 25 24  1  0  0  0  0
 26 27  2  0  0  0  0
M  END
>  <MODEL>
6

>  <REMARK>
 VINA RESULT:      -8.9      3.339      6.606
  Name = 
  1 active torsions:
  status: ('A' for Active; 'I' for Inactive)
    1  A    between atoms: C_9  and  N_15
                            x       y       z     vdW  Elec       q    Type
                         _______ _______ _______ _____ _____    ______ ____

>  <TORSDO>
F 1

$$$$
=
 OpenBabel11052413523D

 27 31  0  0  1  0  0  0  0  0999 V2000
  190.1880  177.4700  141.7650 N   0  0  0  0  0  2  0  0  0  0  0  0
  187.7870  178.1470  141.4460 C   0  0  0  0  0  0  0  0  0  0  0  0
  187.9490  176.9240  143.5590 N   0  0  0  0  0  2  0  0  0  0  0  0
  183.9840  179.5300  142.4290 C   0  0  0  0  0  3  0  0  0  0  0  0
  182.1250  179.5850  143.9200 F   0  0  0  0  0  0  0  0  0  0  0  0
  187.0870  179.0030  140.6460 N   0  0  0  0  0  0  0  0  0  0  0  0
  184.0180  178.2520  144.4880 C   0  0  0  0  0  3  0  0  0  0  0  0
  191.0970  177.1340  147.7170 Cl  0  0  0  0  0  0  0  0  0  0  0  0
  185.2950  177.7770  144.1770 C   0  0  0  0  0  3  0  0  0  0  0  0
  190.8010  177.1640  145.9920 C   0  0  0  0  0  0  0  0  0  0  0  0
  185.9240  178.1720  142.9860 C   0  0  0  0  0  0  0  0  0  0  0  0
  189.0290  177.5870  140.9660 N   0  0  0  0  0  0  0  0  0  0  0  0
  183.3630  179.1260  143.6150 C   0  0  0  0  0  0  0  0  0  0  0  0
  185.2610  179.0560  142.1140 C   0  0  0  0  0  0  0  0  0  0  0  0
  190.3170  177.4640  143.1940 C   0  0  0  0  0  0  0  0  0  0  0  0
  187.2090  177.7280  142.6520 C   0  0  0  0  0  0  0  0  0  0  0  0
  189.4590  176.7540  145.4580 C   0  0  0  0  0  2  0  0  0  0  0  0
  185.8720  179.4490  140.9710 N   0  0  0  0  0  0  0  0  0  0  0  0
  191.7960  177.4590  145.1520 C   0  0  0  0  0  3  0  0  0  0  0  0
  191.5560  177.4980  143.6980 C   0  0  0  0  0  3  0  0  0  0  0  0
  189.1430  177.4870  144.1490 C   0  0  2  0  0  3  0  0  0  0  0  0
  189.4460  176.5420  136.8620 C   0  0  0  0  0  3  0  0  0  0  0  0
  189.1650  177.2540  139.5680 C   0  0  0  0  0  0  0  0  0  0  0  0
  188.0330  177.0900  138.7490 C   0  0  0  0  0  3  0  0  0  0  0  0
  188.1740  176.7400  137.4030 C   0  0  0  0  0  3  0  0  0  0  0  0
  190.5780  176.6910  137.6670 C   0  0  0  0  0  3  0  0  0  0  0  0
  190.4370  177.0400  139.0130 C   0  0  0  0  0  3  0  0  0  0  0  0
  1 15  1  0  0  0  0
  2 16  1  0  0  0  0
  3 21  1  0  0  0  0
  4 13  2  0  0  0  0
  6 18  1  0  0  0  0
  6  2  2  0  0  0  0
  9  7  2  0  0  0  0
 10  8  1  0  0  0  0
 11  9  1  0  0  0  0
 12  2  1  0  0  0  0
 12  1  1  0  0  0  0
 13  5  1  0  0  0  0
 13  7  1  0  0  0  0
 14  4  1  0  0  0  0
 14 11  1  0  0  0  0
 15 20  2  0  0  0  0
 15 21  1  0  0  0  0
 16 11  2  0  0  0  0
 16  3  1  0  0  0  0
 17 10  1  0  0  0  0
 18 14  2  0  0  0  0
 19 10  2  0  0  0  0
 20 19  1  0  0  0  0
 21 17  1  1  0  0  0
 22 25  2  0  0  0  0
 22 26  1  0  0  0  0
 23 12  1  0  0  0  0
 24 23  2  0  0  0  0
 25 24  1  0  0  0  0
 26 27  2  0  0  0  0
 27 23  1  0  0  0  0
M  END
>  <MODEL>
7

>  <REMARK>
 VINA RESULT:      -8.7      3.161      6.193
  Name = 
  1 active torsions:
  status: ('A' for Active; 'I' for Inactive)
    1  A    between atoms: C_9  and  N_15
                            x       y       z     vdW  Elec       q    Type
                         _______ _______ _______ _____ _____    ______ ____

>  <TORSDO>
F 1

$$$$
=
 OpenBabel11052413523D

 27 31  0  0  1  0  0  0  0  0999 V2000
  188.4560  177.3870  143.0580 N   0  0  0  0  0  2  0  0  0  0  0  0
  186.0360  178.0240  142.8150 C   0  0  0  0  0  0  0  0  0  0  0  0
  187.2550  178.9650  140.9150 N   0  0  0  0  0  2  0  0  0  0  0  0
  182.3830  178.7420  140.9490 C   0  0  0  0  0  3  0  0  0  0  0  0
  181.1340  179.6140  139.1160 F   0  0  0  0  0  0  0  0  0  0  0  0
  184.8440  177.6530  143.3660 N   0  0  0  0  0  0  0  0  0  0  0  0
  183.5100  179.7960  139.0800 C   0  0  0  0  0  3  0  0  0  0  0  0
  190.7290  177.1280  137.4790 Cl  0  0  0  0  0  0  0  0  0  0  0  0
  184.7460  179.5640  139.6890 C   0  0  0  0  0  3  0  0  0  0  0  0
  190.0760  177.2780  139.0960 C   0  0  0  0  0  0  0  0  0  0  0  0
  184.8090  178.9230  140.9360 C   0  0  0  0  0  0  0  0  0  0  0  0
  187.2470  177.8850  143.5910 N   0  0  0  0  0  0  0  0  0  0  0  0
  182.3300  179.3870  139.7090 C   0  0  0  0  0  0  0  0  0  0  0  0
  183.6180  178.5090  141.5620 C   0  0  0  0  0  0  0  0  0  0  0  0
  188.8900  177.3070  141.6940 C   0  0  0  0  0  0  0  0  0  0  0  0
  186.0310  178.6600  141.5670 C   0  0  0  0  0  0  0  0  0  0  0  0
  189.0340  178.3190  139.3870 C   0  0  0  0  0  2  0  0  0  0  0  0
  183.6770  177.8780  142.7590 N   0  0  0  0  0  0  0  0  0  0  0  0
  190.5750  176.5330  140.0850 C   0  0  0  0  0  3  0  0  0  0  0  0
  190.0260  176.6420  141.4490 C   0  0  0  0  0  3  0  0  0  0  0  0
  188.1100  177.8660  140.5230 C   0  0  2  0  0  3  0  0  0  0  0  0
  187.0910  178.5480  147.7920 C   0  0  0  0  0  3  0  0  0  0  0  0
  187.2100  178.1250  145.0140 C   0  0  0  0  0  0  0  0  0  0  0  0
  188.2400  177.6650  145.8530 C   0  0  0  0  0  3  0  0  0  0  0  0
  188.1820  177.8790  147.2330 C   0  0  0  0  0  3  0  0  0  0  0  0
  186.0550  179.0010  146.9710 C   0  0  0  0  0  3  0  0  0  0  0  0
  186.1130  178.7870  145.5910 C   0  0  0  0  0  3  0  0  0  0  0  0
  1 12  1  0  0  0  0
  2  6  1  0  0  0  0
  2 12  1  0  0  0  0
  3 16  1  0  0  0  0
  4 14  1  0  0  0  0
  5 13  1  0  0  0  0
  7  9  2  0  0  0  0
  7 13  1  0  0  0  0
  8 10  1  0  0  0  0
  9 11  1  0  0  0  0
 10 17  1  0  0  0  0
 10 19  2  0  0  0  0
 11 14  2  0  0  0  0
 11 16  1  0  0  0  0
 12 23  1  0  0  0  0
 13  4  2  0  0  0  0
 14 18  1  0  0  0  0
 15  1  1  0  0  0  0
 16  2  2  0  0  0  0
 18  6  2  0  0  0  0
 19 20  1  0  0  0  0
 20 15  2  0  0  0  0
 21 17  1  6  0  0  0
 21  3  1  0  0  0  0
 21 15  1  0  0  0  0
 23 27  2  0  0  0  0
 23 24  1  0  0  0  0
 24 25  2  0  0  0  0
 25 22  1  0  0  0  0
 26 22  2  0  0  0  0
 27 26  1  0  0  0  0
M  END
>  <MODEL>
8

>  <REMARK>
 VINA RESULT:      -8.6      2.968      5.935
  Name = 
  1 active torsions:
  status: ('A' for Active; 'I' for Inactive)
    1  A    between atoms: C_9  and  N_15
                            x       y       z     vdW  Elec       q    Type
                         _______ _______ _______ _____ _____    ______ ____

>  <TORSDO>
F 1

$$$$
=
 OpenBabel11052413523D

 27 31  0  0  1  0  0  0  0  0999 V2000
  187.5240  177.6790  139.2790 N   0  0  0  0  0  2  0  0  0  0  0  0
  187.6220  177.5660  141.7890 C   0  0  0  0  0  0  0  0  0  0  0  0
  185.9350  179.2290  141.1770 N   0  0  0  0  0  2  0  0  0  0  0  0
  186.2610  177.4960  145.7240 C   0  0  0  0  0  3  0  0  0  0  0  0
  184.7990  178.3100  147.4210 F   0  0  0  0  0  0  0  0  0  0  0  0
  188.1460  176.7320  142.7330 N   0  0  0  0  0  0  0  0  0  0  0  0
  184.6400  179.2270  145.2270 C   0  0  0  0  0  3  0  0  0  0  0  0
  181.9080  179.3550  137.8570 Cl  0  0  0  0  0  0  0  0  0  0  0  0
  185.0810  179.2660  143.9020 C   0  0  0  0  0  3  0  0  0  0  0  0
  183.5540  178.9400  138.2850 C   0  0  0  0  0  0  0  0  0  0  0  0
  186.1210  178.4220  143.4790 C   0  0  0  0  0  0  0  0  0  0  0  0
  188.2490  177.6470  140.4900 N   0  0  0  0  0  0  0  0  0  0  0  0
  185.2300  178.3450  146.1370 C   0  0  0  0  0  0  0  0  0  0  0  0
  186.7060  177.5330  144.4000 C   0  0  0  0  0  0  0  0  0  0  0  0
  186.1540  178.0350  139.0420 C   0  0  0  0  0  0  0  0  0  0  0  0
  186.5760  178.4230  142.1550 C   0  0  0  0  0  0  0  0  0  0  0  0
  184.1700  179.5160  139.5270 C   0  0  0  0  0  2  0  0  0  0  0  0
  187.7000  176.7080  143.9900 N   0  0  0  0  0  0  0  0  0  0  0  0
  184.2870  178.1920  137.4570 C   0  0  0  0  0  3  0  0  0  0  0  0
  185.6710  177.8270  137.8110 C   0  0  0  0  0  3  0  0  0  0  0  0
  185.2210  178.5630  140.1100 C   0  0  2  0  0  3  0  0  0  0  0  0
  192.4820  177.3040  140.2230 C   0  0  0  0  0  3  0  0  0  0  0  0
  189.6860  177.5500  140.3880 C   0  0  0  0  0  0  0  0  0  0  0  0
  190.3050  177.2150  139.1710 C   0  0  0  0  0  3  0  0  0  0  0  0
  191.6950  177.0970  139.0880 C   0  0  0  0  0  3  0  0  0  0  0  0
  191.8800  177.6260  141.4410 C   0  0  0  0  0  3  0  0  0  0  0  0
  190.4900  177.7440  141.5230 C   0  0  0  0  0  3  0  0  0  0  0  0
  1 12  1  0  0  0  0
  2 16  2  0  0  0  0
  2  6  1  0  0  0  0
  3 16  1  0  0  0  0
  4 13  1  0  0  0  0
  6 18  2  0  0  0  0
  7 13  2  0  0  0  0
  8 10  1  0  0  0  0
  9  7  1  0  0  0  0
 10 17  1  0  0  0  0
 11  9  2  0  0  0  0
 11 14  1  0  0  0  0
 12  2  1  0  0  0  0
 13  5  1  0  0  0  0
 14  4  2  0  0  0  0
 15  1  1  0  0  0  0
 15 21  1  0  0  0  0
 16 11  1  0  0  0  0
 18 14  1  0  0  0  0
 19 20  1  0  0  0  0
 19 10  2  0  0  0  0
 20 15  2  0  0  0  0
 21 17  1  6  0  0  0
 21  3  1  0  0  0  0
 22 26  1  0  0  0  0
 23 12  1  0  0  0  0
 23 27  1  0  0  0  0
 24 23  2  0  0  0  0
 25 24  1  0  0  0  0
 25 22  2  0  0  0  0
 26 27  2  0  0  0  0
M  END
>  <MODEL>
9

>  <REMARK>
 VINA RESULT:      -8.3      3.114      6.101
  Name = 
  1 active torsions:
  status: ('A' for Active; 'I' for Inactive)
    1  A    between atoms: C_9  and  N_15
                            x       y       z     vdW  Elec       q    Type
                         _______ _______ _______ _____ _____    ______ ____

>  <TORSDO>
F 1

$$$$
