=
 OpenBabel11052412343D

 30 35  0  0  1  0  0  0  0  0999 V2000
  191.1300  176.3780  138.5890 C   0  0  2  0  0  3  0  0  0  0  0  0
  193.5430  176.8050  137.8330 C   0  0  0  0  0  2  0  0  0  0  0  0
  189.5090  173.4900  136.6830 C   0  0  0  0  0  2  0  0  0  0  0  0
  189.2490  178.0480  138.6660 C   0  0  0  0  0  0  0  0  0  0  0  0
  190.0610  177.1300  139.2510 N   0  0  0  0  0  0  0  0  0  0  0  0
  187.7840  177.9730  141.7980 C   0  0  0  0  0  3  0  0  0  0  0  0
  187.9140  178.8400  136.6020 C   0  0  0  0  0  2  0  0  0  0  0  0
  188.5170  177.8830  140.6300 C   0  0  0  0  0  0  0  0  0  0  0  0
  189.9750  176.1900  141.5370 C   0  0  0  0  0  3  0  0  0  0  0  0
  188.3300  175.7770  136.7710 C   0  0  2  0  0  3  0  0  0  0  0  0
  188.6720  174.4730  137.5090 C   0  0  1  0  0  3  0  0  0  0  0  0
  189.5790  177.0330  140.5020 C   0  0  0  0  0  0  0  0  0  0  0  0
  188.2950  178.5560  139.4950 N   0  0  0  0  0  0  0  0  0  0  0  0
  193.7890  175.3350  137.5170 C   0  0  0  0  0  2  0  0  0  0  0  0
  187.4860  175.5460  135.5030 C   0  0  0  0  0  2  0  0  0  0  0  0
  185.9830  177.4370  135.8180 O   0  0  0  0  0  0  0  0  0  0  0  0
  189.2710  176.2900  142.7720 C   0  0  0  0  0  3  0  0  0  0  0  0
  192.4910  177.0140  138.9220 C   0  0  0  0  0  2  0  0  0  0  0  0
  190.4920  174.1850  135.7150 C   0  0  0  0  0  2  0  0  0  0  0  0
  193.2160  173.3700  136.0150 C   0  0  0  0  0  1  0  0  0  0  0  0
  188.1760  177.1830  142.8910 C   0  0  0  0  0  3  0  0  0  0  0  0
  190.9170  176.3310  137.0530 C   0  0  2  0  0  3  0  0  0  0  0  0
  189.2030  178.1690  137.1660 C   0  0  2  0  0  3  0  0  0  0  0  0
  187.4950  173.8440  137.9170 O   0  0  0  0  0  1  0  0  0  0  0  0
  189.5030  176.7860  136.5550 C   0  0  2  0  0  3  0  0  0  0  0  0
  186.9370  176.8650  134.9550 C   0  0  0  0  0  2  0  0  0  0  0  0
  185.6550  178.9470  137.6500 C   0  0  0  0  0  1  0  0  0  0  0  0
  192.7430  174.6420  136.6460 C   0  0  0  0  0  0  0  0  0  0  0  0
  191.4520  175.0450  136.4710 C   0  0  0  0  0  0  0  0  0  0  0  0
  186.6270  178.0500  136.9200 C   0  0  2  0  0  3  0  0  0  0  0  0
  1 18  1  6  0  0  0
  1  5  1  0  0  0  0
  2 18  1  0  0  0  0
  3 11  1  0  0  0  0
  4  5  1  0  0  0  0
  4 13  2  0  0  0  0
  5 12  1  0  0  0  0
  6 21  1  0  0  0  0
  7 30  1  0  0  0  0
  8  6  2  0  0  0  0
  9 17  1  0  0  0  0
 10 15  1  6  0  0  0
 10 11  1  0  0  0  0
 11 24  1  6  0  0  0
 12  8  1  0  0  0  0
 12  9  2  0  0  0  0
 13  8  1  0  0  0  0
 14  2  1  0  0  0  0
 16 30  1  0  0  0  0
 17 21  2  0  0  0  0
 19 29  1  0  0  0  0
 19  3  1  0  0  0  0
 20 28  1  0  0  0  0
 22 29  1  1  0  0  0
 22  1  1  0  0  0  0
 23  7  1  1  0  0  0
 23  4  1  0  0  0  0
 25 10  1  0  0  0  0
 25 22  1  0  0  0  0
 25 23  1  0  0  0  0
 26 15  1  0  0  0  0
 26 16  1  0  0  0  0
 28 14  1  0  0  0  0
 29 28  2  0  0  0  0
 30 27  1  0  0  0  0
M  END
>  <MODEL>
1

>  <REMARK>
 VINA RESULT:      -6.3      0.000      0.000
  Name = 
  0 active torsions:
  status: ('A' for Active; 'I' for Inactive)
                            x       y       z     vdW  Elec       q    Type
                         _______ _______ _______ _____ _____    ______ ____

>  <TORSDO>
F 0

$$$$
=
 OpenBabel11052412343D

 30 35  0  0  1  0  0  0  0  0999 V2000
  180.9580  178.3670  136.4180 C   0  0  2  0  0  3  0  0  0  0  0  0
  180.4280  176.1270  135.2890 C   0  0  0  0  0  2  0  0  0  0  0  0
  184.2090  178.2410  138.4230 C   0  0  0  0  0  2  0  0  0  0  0  0
  179.4640  179.6750  137.9640 C   0  0  0  0  0  0  0  0  0  0  0  0
  180.2200  179.5600  136.8420 N   0  0  0  0  0  0  0  0  0  0  0  0
  179.2420  182.9400  136.8460 C   0  0  0  0  0  3  0  0  0  0  0  0
  179.0790  179.1020  140.4530 C   0  0  0  0  0  2  0  0  0  0  0  0
  179.4240  181.5960  137.1110 C   0  0  0  0  0  0  0  0  0  0  0  0
  180.8460  181.2890  135.1880 C   0  0  0  0  0  3  0  0  0  0  0  0
  182.0420  179.0450  139.5600 C   0  0  2  0  0  3  0  0  0  0  0  0
  183.1990  179.3810  138.6060 C   0  0  1  0  0  3  0  0  0  0  0  0
  180.1890  180.7940  136.3110 C   0  0  0  0  0  0  0  0  0  0  0  0
  178.9340  180.9160  138.1530 N   0  0  0  0  0  0  0  0  0  0  0  0
  181.9000  175.7820  135.1000 C   0  0  0  0  0  2  0  0  0  0  0  0
  182.5160  178.7360  140.9930 C   0  0  0  0  0  2  0  0  0  0  0  0
  180.7380  179.9410  142.1420 O   0  0  0  0  0  0  0  0  0  0  0  0
  180.6410  182.6590  134.8560 C   0  0  0  0  0  3  0  0  0  0  0  0
  180.1660  177.6330  135.3230 C   0  0  0  0  0  2  0  0  0  0  0  0
  183.5670  176.8370  138.4980 C   0  0  0  0  0  2  0  0  0  0  0  0
  184.0930  175.1790  136.2280 C   0  0  0  0  0  1  0  0  0  0  0  0
  179.8400  183.4760  135.6930 C   0  0  0  0  0  3  0  0  0  0  0  0
  181.2310  177.4200  137.6150 C   0  0  2  0  0  3  0  0  0  0  0  0
  179.5520  178.6300  139.0450 C   0  0  2  0  0  3  0  0  0  0  0  0
  183.8680  180.5160  139.0640 O   0  0  0  0  0  1  0  0  0  0  0  0
  180.9730  178.0340  139.0330 C   0  0  2  0  0  3  0  0  0  0  0  0
  181.3370  178.6780  141.9660 C   0  0  0  0  0  2  0  0  0  0  0  0
  179.0290  181.4250  141.3560 C   0  0  0  0  0  1  0  0  0  0  0  0
  182.7930  175.9150  136.3310 C   0  0  0  0  0  0  0  0  0  0  0  0
  182.5330  176.6770  137.4320 C   0  0  0  0  0  0  0  0  0  0  0  0
  179.9280  180.2570  141.0250 C   0  0  2  0  0  3  0  0  0  0  0  0
  1 18  1  6  0  0  0
  1  5  1  0  0  0  0
  1 22  1  0  0  0  0
  2 18  1  0  0  0  0
  3 19  1  0  0  0  0
  3 11  1  0  0  0  0
  4 13  2  0  0  0  0
  4 23  1  0  0  0  0
  5  4  1  0  0  0  0
  6  8  1  0  0  0  0
  7 30  1  0  0  0  0
  8 13  1  0  0  0  0
  9 12  1  0  0  0  0
 10 15  1  1  0  0  0
 11 24  1  1  0  0  0
 11 10  1  0  0  0  0
 12  5  1  0  0  0  0
 12  8  2  0  0  0  0
 14  2  1  0  0  0  0
 14 28  1  0  0  0  0
 15 26  1  0  0  0  0
 17  9  2  0  0  0  0
 17 21  1  0  0  0  0
 20 28  1  0  0  0  0
 21  6  2  0  0  0  0
 22 29  1  1  0  0  0
 22 25  1  0  0  0  0
 23  7  1  1  0  0  0
 25 23  1  0  0  0  0
 25 10  1  0  0  0  0
 26 16  1  0  0  0  0
 28 29  2  0  0  0  0
 29 19  1  0  0  0  0
 30 27  1  0  0  0  0
 30 16  1  0  0  0  0
M  END
>  <MODEL>
2

>  <REMARK>
 VINA RESULT:      -5.6      6.597     10.038
  Name = 
  0 active torsions:
  status: ('A' for Active; 'I' for Inactive)
                            x       y       z     vdW  Elec       q    Type
                         _______ _______ _______ _____ _____    ______ ____

>  <TORSDO>
F 0

$$$$
=
 OpenBabel11052412343D

 30 35  0  0  1  0  0  0  0  0999 V2000
  183.2100  179.2890  140.1470 C   0  0  2  0  0  3  0  0  0  0  0  0
  185.6430  179.0140  140.9090 C   0  0  0  0  0  2  0  0  0  0  0  0
  180.7310  178.7640  143.0090 C   0  0  0  0  0  2  0  0  0  0  0  0
  182.0670  178.0740  138.2630 C   0  0  0  0  0  0  0  0  0  0  0  0
  182.4600  179.2120  138.8910 N   0  0  0  0  0  0  0  0  0  0  0  0
  180.5380  180.3750  136.1820 C   0  0  0  0  0  3  0  0  0  0  0  0
  181.2040  175.6430  138.4030 C   0  0  0  0  0  2  0  0  0  0  0  0
  181.2390  179.6200  137.1030 C   0  0  0  0  0  0  0  0  0  0  0  0
  181.9370  181.5660  138.3440 C   0  0  0  0  0  3  0  0  0  0  0  0
  180.4650  177.4150  140.8310 C   0  0  2  0  0  3  0  0  0  0  0  0
  180.2750  178.7630  141.5450 C   0  0  1  0  0  3  0  0  0  0  0  0
  181.9220  180.1890  138.1420 C   0  0  0  0  0  0  0  0  0  0  0  0
  181.3280  178.2860  137.1380 N   0  0  0  0  0  0  0  0  0  0  0  0
  185.3480  179.5440  142.3080 C   0  0  0  0  0  2  0  0  0  0  0  0
  179.6520  176.2750  141.4740 C   0  0  0  0  0  2  0  0  0  0  0  0
  178.9310  175.2370  139.3910 O   0  0  0  0  0  0  0  0  0  0  0  0
  181.2650  182.3800  137.3860 C   0  0  0  0  0  3  0  0  0  0  0  0
  184.6920  179.5690  139.8480 C   0  0  0  0  0  2  0  0  0  0  0  0
  181.9420  177.8410  143.2740 C   0  0  0  0  0  2  0  0  0  0  0  0
  184.1650  179.1410  144.5170 C   0  0  0  0  0  1  0  0  0  0  0  0
  180.5670  181.7740  136.3110 C   0  0  0  0  0  3  0  0  0  0  0  0
  183.0620  177.9820  140.9710 C   0  0  2  0  0  3  0  0  0  0  0  0
  182.1330  176.7530  138.9820 C   0  0  2  0  0  3  0  0  0  0  0  0
  178.9340  179.1400  141.4820 O   0  0  0  0  0  1  0  0  0  0  0  0
  181.9350  177.0070  140.4890 C   0  0  2  0  0  3  0  0  0  0  0  0
  179.6470  175.0290  140.5860 C   0  0  0  0  0  2  0  0  0  0  0  0
  179.0960  175.9310  137.1040 C   0  0  0  0  0  1  0  0  0  0  0  0
  184.1610  178.9190  143.0360 C   0  0  0  0  0  0  0  0  0  0  0  0
  183.1150  178.2670  142.4530 C   0  0  0  0  0  0  0  0  0  0  0  0
  179.7050  176.0000  138.4840 C   0  0  2  0  0  3  0  0  0  0  0  0
  1 18  1  6  0  0  0
  1 22  1  0  0  0  0
  2 14  1  0  0  0  0
  3 19  1  0  0  0  0
  4  5  1  0  0  0  0
  4 23  1  0  0  0  0
  5  1  1  0  0  0  0
  6 21  2  0  0  0  0
  6  8  1  0  0  0  0
  7 30  1  0  0  0  0
  8 13  1  0  0  0  0
  8 12  2  0  0  0  0
 10 15  1  1  0  0  0
 10 11  1  0  0  0  0
 11 24  1  1  0  0  0
 11  3  1  0  0  0  0
 12  9  1  0  0  0  0
 12  5  1  0  0  0  0
 13  4  2  0  0  0  0
 14 28  1  0  0  0  0
 16 26  1  0  0  0  0
 17  9  2  0  0  0  0
 18  2  1  0  0  0  0
 21 17  1  0  0  0  0
 22 29  1  1  0  0  0
 23  7  1  6  0  0  0
 23 25  1  0  0  0  0
 25 10  1  0  0  0  0
 25 22  1  0  0  0  0
 26 15  1  0  0  0  0
 27 30  1  0  0  0  0
 28 20  1  0  0  0  0
 29 28  2  0  0  0  0
 29 19  1  0  0  0  0
 30 16  1  0  0  0  0
M  END
>  <MODEL>
3

>  <REMARK>
 VINA RESULT:      -5.4      6.701      9.554
  Name = 
  0 active torsions:
  status: ('A' for Active; 'I' for Inactive)
                            x       y       z     vdW  Elec       q    Type
                         _______ _______ _______ _____ _____    ______ ____

>  <TORSDO>
F 0

$$$$
=
 OpenBabel11052412343D

 30 35  0  0  1  0  0  0  0  0999 V2000
  189.1910  175.6960  136.3480 C   0  0  2  0  0  3  0  0  0  0  0  0
  191.1160  175.8030  134.6570 C   0  0  0  0  0  2  0  0  0  0  0  0
  187.5680  172.2390  136.4730 C   0  0  0  0  0  2  0  0  0  0  0  0
  187.1760  177.2010  136.4470 C   0  0  0  0  0  0  0  0  0  0  0  0
  188.2800  176.6390  137.0040 N   0  0  0  0  0  0  0  0  0  0  0  0
  186.8410  178.4510  139.6550 C   0  0  0  0  0  3  0  0  0  0  0  0
  185.1280  177.0040  134.8860 C   0  0  0  0  0  2  0  0  0  0  0  0
  187.1610  177.8820  138.4360 C   0  0  0  0  0  0  0  0  0  0  0  0
  189.1040  176.7700  139.3310 C   0  0  0  0  0  3  0  0  0  0  0  0
  186.1020  174.3190  136.0810 C   0  0  2  0  0  3  0  0  0  0  0  0
  186.8860  173.4660  137.0900 C   0  0  1  0  0  3  0  0  0  0  0  0
  188.2550  177.0790  138.2730 C   0  0  0  0  0  0  0  0  0  0  0  0
  186.4700  177.9970  137.2970 N   0  0  0  0  0  0  0  0  0  0  0  0
  191.4970  174.3440  134.8780 C   0  0  0  0  0  2  0  0  0  0  0  0
  184.9460  173.5500  135.4130 C   0  0  0  0  0  2  0  0  0  0  0  0
  183.3220  175.3640  135.4860 O   0  0  0  0  0  0  0  0  0  0  0  0
  188.8330  177.3780  140.5910 C   0  0  0  0  0  3  0  0  0  0  0  0
  190.4530  176.4390  135.8800 C   0  0  0  0  0  2  0  0  0  0  0  0
  188.0470  172.4700  135.0220 C   0  0  0  0  0  2  0  0  0  0  0  0
  190.8200  171.9140  134.5960 C   0  0  0  0  0  1  0  0  0  0  0  0
  187.6980  178.2140  140.7430 C   0  0  0  0  0  3  0  0  0  0  0  0
  188.5030  174.9900  135.1500 C   0  0  2  0  0  3  0  0  0  0  0  0
  186.6260  176.6650  135.1520 C   0  0  2  0  0  3  0  0  0  0  0  0
  186.0330  173.0500  138.1130 O   0  0  0  0  0  1  0  0  0  0  0  0
  186.9480  175.1600  135.0710 C   0  0  2  0  0  3  0  0  0  0  0  0
  184.0290  174.4940  134.6330 C   0  0  0  0  0  2  0  0  0  0  0  0
  183.3490  177.5070  136.5570 C   0  0  0  0  0  1  0  0  0  0  0  0
  190.3630  173.3250  134.8010 C   0  0  0  0  0  0  0  0  0  0  0  0
  189.0360  173.5890  134.9690 C   0  0  0  0  0  0  0  0  0  0  0  0
  184.1720  176.4030  135.9380 C   0  0  2  0  0  3  0  0  0  0  0  0
  1 18  1  6  0  0  0
  1  5  1  0  0  0  0
  2 14  1  0  0  0  0
  2 18  1  0  0  0  0
  3 11  1  0  0  0  0
  4  5  1  0  0  0  0
  4 13  2  0  0  0  0
  5 12  1  0  0  0  0
  6 21  1  0  0  0  0
  7 30  1  0  0  0  0
  8  6  2  0  0  0  0
  9 17  1  0  0  0  0
 10 15  1  6  0  0  0
 10 11  1  0  0  0  0
 11 24  1  1  0  0  0
 12  8  1  0  0  0  0
 12  9  2  0  0  0  0
 13  8  1  0  0  0  0
 16 30  1  0  0  0  0
 17 21  2  0  0  0  0
 19  3  1  0  0  0  0
 20 28  1  0  0  0  0
 22 29  1  1  0  0  0
 22  1  1  0  0  0  0
 23  7  1  1  0  0  0
 23  4  1  0  0  0  0
 25 22  1  0  0  0  0
 25 23  1  0  0  0  0
 25 10  1  0  0  0  0
 26 15  1  0  0  0  0
 26 16  1  0  0  0  0
 28 14  1  0  0  0  0
 28 29  2  0  0  0  0
 29 19  1  0  0  0  0
 30 27  1  0  0  0  0
M  END
>  <MODEL>
4

>  <REMARK>
 VINA RESULT:      -5.2      2.094      3.064
  Name = 
  0 active torsions:
  status: ('A' for Active; 'I' for Inactive)
                            x       y       z     vdW  Elec       q    Type
                         _______ _______ _______ _____ _____    ______ ____

>  <TORSDO>
F 0

$$$$
=
 OpenBabel11052412343D

 30 35  0  0  1  0  0  0  0  0999 V2000
  180.7850  177.0450  136.3960 C   0  0  2  0  0  3  0  0  0  0  0  0
  179.5010  178.6170  134.8300 C   0  0  0  0  0  2  0  0  0  0  0  0
  182.0670  178.8440  139.5150 C   0  0  0  0  0  2  0  0  0  0  0  0
  182.7560  175.5970  135.8050 C   0  0  0  0  0  0  0  0  0  0  0  0
  181.5000  175.7710  136.2930 N   0  0  0  0  0  0  0  0  0  0  0  0
  182.1420  172.3550  136.8450 C   0  0  0  0  0  3  0  0  0  0  0  0
  185.1750  176.4610  135.5350 C   0  0  0  0  0  2  0  0  0  0  0  0
  182.1880  173.6860  136.4740 C   0  0  0  0  0  0  0  0  0  0  0  0
  179.9960  174.1330  137.3740 C   0  0  0  0  0  3  0  0  0  0  0  0
  183.7090  177.4990  138.0560 C   0  0  2  0  0  3  0  0  0  0  0  0
  182.5960  177.4610  139.1140 C   0  0  1  0  0  3  0  0  0  0  0  0
  181.1530  174.5450  136.7180 C   0  0  0  0  0  0  0  0  0  0  0  0
  183.2080  174.3130  135.8790 N   0  0  0  0  0  0  0  0  0  0  0  0
  178.9790  179.4680  135.9810 C   0  0  0  0  0  2  0  0  0  0  0  0
  184.9660  178.2530  138.5330 C   0  0  0  0  0  2  0  0  0  0  0  0
  186.5940  176.7040  137.5930 O   0  0  0  0  0  0  0  0  0  0  0  0
  179.8940  172.7560  137.7270 C   0  0  0  0  0  3  0  0  0  0  0  0
  179.7830  177.1710  135.2360 C   0  0  0  0  0  2  0  0  0  0  0  0
  182.0840  179.8650  138.3550 C   0  0  0  0  0  2  0  0  0  0  0  0
  179.5580  181.1000  137.8370 C   0  0  0  0  0  1  0  0  0  0  0  0
  180.9740  171.8770  137.4610 C   0  0  0  0  0  3  0  0  0  0  0  0
  181.7690  178.2440  136.3930 C   0  0  2  0  0  3  0  0  0  0  0  0
  183.6510  176.7860  135.5800 C   0  0  2  0  0  3  0  0  0  0  0  0
  183.0560  176.7990  140.2530 O   0  0  0  0  0  1  0  0  0  0  0  0
  183.2780  177.8780  136.6020 C   0  0  2  0  0  3  0  0  0  0  0  0
  186.1380  178.0360  137.5740 C   0  0  0  0  0  2  0  0  0  0  0  0
  186.3660  174.5410  136.5870 C   0  0  0  0  0  1  0  0  0  0  0  0
  180.0140  179.9490  136.9950 C   0  0  0  0  0  0  0  0  0  0  0  0
  181.2350  179.3870  137.2240 C   0  0  0  0  0  0  0  0  0  0  0  0
  185.7120  175.8750  136.8580 C   0  0  2  0  0  3  0  0  0  0  0  0
  1 18  1  6  0  0  0
  2 18  1  0  0  0  0
  2 14  1  0  0  0  0
  4 13  2  0  0  0  0
  4  5  1  0  0  0  0
  5  1  1  0  0  0  0
  5 12  1  0  0  0  0
  6 21  1  0  0  0  0
  7 30  1  0  0  0  0
  8 12  1  0  0  0  0
  8  6  2  0  0  0  0
  9 17  1  0  0  0  0
 10 15  1  1  0  0  0
 10 11  1  0  0  0  0
 11  3  1  0  0  0  0
 11 24  1  1  0  0  0
 12  9  2  0  0  0  0
 13  8  1  0  0  0  0
 14 28  1  0  0  0  0
 19  3  1  0  0  0  0
 21 17  2  0  0  0  0
 22  1  1  0  0  0  0
 22 25  1  0  0  0  0
 22 29  1  1  0  0  0
 23  7  1  1  0  0  0
 23  4  1  0  0  0  0
 23 25  1  0  0  0  0
 25 10  1  0  0  0  0
 26 16  1  0  0  0  0
 26 15  1  0  0  0  0
 27 30  1  0  0  0  0
 28 29  2  0  0  0  0
 28 20  1  0  0  0  0
 29 19  1  0  0  0  0
 30 16  1  0  0  0  0
M  END
>  <MODEL>
5

>  <REMARK>
 VINA RESULT:      -4.8      5.274      9.412
  Name = 
  0 active torsions:
  status: ('A' for Active; 'I' for Inactive)
                            x       y       z     vdW  Elec       q    Type
                         _______ _______ _______ _____ _____    ______ ____

>  <TORSDO>
F 0

$$$$
=
 OpenBabel11052412343D

 30 35  0  0  1  0  0  0  0  0999 V2000
  187.1160  176.7840  136.2640 C   0  0  2  0  0  3  0  0  0  0  0  0
  188.9040  177.5540  134.5950 C   0  0  0  0  0  2  0  0  0  0  0  0
  187.1950  173.0040  136.8260 C   0  0  0  0  0  2  0  0  0  0  0  0
  184.6400  177.2210  136.1410 C   0  0  0  0  0  0  0  0  0  0  0  0
  185.8380  177.2830  136.7790 N   0  0  0  0  0  0  0  0  0  0  0  0
  183.5630  178.5400  139.1520 C   0  0  0  0  0  3  0  0  0  0  0  0
  183.0070  175.9490  134.5970 C   0  0  0  0  0  2  0  0  0  0  0  0
  184.1860  178.0420  138.0220 C   0  0  0  0  0  0  0  0  0  0  0  0
  186.3540  178.0330  139.0780 C   0  0  0  0  0  3  0  0  0  0  0  0
  184.9880  174.1440  136.1460 C   0  0  2  0  0  3  0  0  0  0  0  0
  185.9980  173.8540  137.2680 C   0  0  1  0  0  3  0  0  0  0  0  0
  185.5310  177.8040  137.9780 C   0  0  0  0  0  0  0  0  0  0  0  0
  183.5960  177.7050  136.8700 N   0  0  0  0  0  0  0  0  0  0  0  0
  189.8780  176.4580  135.0110 C   0  0  0  0  0  2  0  0  0  0  0  0
  184.3450  172.8660  135.5730 C   0  0  0  0  0  2  0  0  0  0  0  0
  182.0820  173.7510  135.3880 O   0  0  0  0  0  0  0  0  0  0  0  0
  185.7540  178.5920  140.2430 C   0  0  0  0  0  3  0  0  0  0  0  0
  187.9450  177.9570  135.7150 C   0  0  0  0  0  2  0  0  0  0  0  0
  187.6210  173.2610  135.3620 C   0  0  0  0  0  2  0  0  0  0  0  0
  190.3730  173.9690  135.0440 C   0  0  0  0  0  1  0  0  0  0  0  0
  184.3590  178.8380  140.2710 C   0  0  0  0  0  3  0  0  0  0  0  0
  186.8980  175.7130  135.1620 C   0  0  2  0  0  3  0  0  0  0  0  0
  184.4770  176.3530  134.9220 C   0  0  2  0  0  3  0  0  0  0  0  0
  185.3510  173.2180  138.3270 O   0  0  0  0  0  1  0  0  0  0  0  0
  185.4390  175.1550  135.0440 C   0  0  2  0  0  3  0  0  0  0  0  0
  183.1600  173.2030  134.6650 C   0  0  0  0  0  2  0  0  0  0  0  0
  181.0790  175.7820  136.1670 C   0  0  0  0  0  1  0  0  0  0  0  0
  189.3240  175.0360  135.0560 C   0  0  0  0  0  0  0  0  0  0  0  0
  188.0100  174.6910  135.1730 C   0  0  0  0  0  0  0  0  0  0  0  0
  182.3480  175.1050  135.7080 C   0  0  2  0  0  3  0  0  0  0  0  0
  1 18  1  6  0  0  0
  1  5  1  0  0  0  0
  2 14  1  0  0  0  0
  2 18  1  0  0  0  0
  3 11  1  0  0  0  0
  4  5  1  0  0  0  0
  4 13  2  0  0  0  0
  5 12  1  0  0  0  0
  6 21  1  0  0  0  0
  7 30  1  0  0  0  0
  8  6  2  0  0  0  0
  9 17  1  0  0  0  0
 10 15  1  6  0  0  0
 10 11  1  0  0  0  0
 11 24  1  1  0  0  0
 12  8  1  0  0  0  0
 12  9  2  0  0  0  0
 13  8  1  0  0  0  0
 14 28  1  0  0  0  0
 16 30  1  0  0  0  0
 17 21  2  0  0  0  0
 19  3  1  0  0  0  0
 20 28  1  0  0  0  0
 22 29  1  1  0  0  0
 22  1  1  0  0  0  0
 23  7  1  1  0  0  0
 23 25  1  0  0  0  0
 23  4  1  0  0  0  0
 25 22  1  0  0  0  0
 25 10  1  0  0  0  0
 26 16  1  0  0  0  0
 26 15  1  0  0  0  0
 28 29  2  0  0  0  0
 29 19  1  0  0  0  0
 30 27  1  0  0  0  0
M  END
>  <MODEL>
6

>  <REMARK>
 VINA RESULT:      -4.7      3.146      4.687
  Name = 
  0 active torsions:
  status: ('A' for Active; 'I' for Inactive)
                            x       y       z     vdW  Elec       q    Type
                         _______ _______ _______ _____ _____    ______ ____

>  <TORSDO>
F 0

$$$$
=
 OpenBabel11052412343D

 30 35  0  0  1  0  0  0  0  0999 V2000
  183.7100  173.8670  136.7800 C   0  0  2  0  0  3  0  0  0  0  0  0
  185.9750  172.9760  137.5870 C   0  0  0  0  0  2  0  0  0  0  0  0
  184.0480  177.1660  134.8800 C   0  0  0  0  0  2  0  0  0  0  0  0
  181.6660  174.3030  138.1840 C   0  0  0  0  0  0  0  0  0  0  0  0
  182.2990  173.7050  137.1410 N   0  0  0  0  0  0  0  0  0  0  0  0
  178.9400  172.7320  136.7480 C   0  0  0  0  0  3  0  0  0  0  0  0
  181.3520  176.3670  139.7040 C   0  0  0  0  0  2  0  0  0  0  0  0
  180.1430  173.2530  137.1840 C   0  0  0  0  0  0  0  0  0  0  0  0
  181.3600  172.3040  135.3320 C   0  0  0  0  0  3  0  0  0  0  0  0
  182.4210  177.0040  136.8700 C   0  0  2  0  0  3  0  0  0  0  0  0
  182.6900  176.6730  135.3930 C   0  0  1  0  0  3  0  0  0  0  0  0
  181.3140  173.0420  136.5110 C   0  0  0  0  0  0  0  0  0  0  0  0
  180.3340  174.0280  138.2580 N   0  0  0  0  0  0  0  0  0  0  0  0
  186.7200  173.5620  136.3940 C   0  0  0  0  0  2  0  0  0  0  0  0
  182.3970  178.5190  137.1510 C   0  0  0  0  0  2  0  0  0  0  0  0
  180.4950  178.4910  138.6730 O   0  0  0  0  0  0  0  0  0  0  0  0
  180.1470  171.7110  134.8780 C   0  0  0  0  0  3  0  0  0  0  0  0
  184.5130  172.6530  137.2780 C   0  0  0  0  0  2  0  0  0  0  0  0
  185.1550  177.1400  135.9580 C   0  0  0  0  0  2  0  0  0  0  0  0
  187.4920  175.6710  135.2100 C   0  0  0  0  0  1  0  0  0  0  0  0
  178.9420  171.9340  135.5920 C   0  0  0  0  0  3  0  0  0  0  0  0
  184.2930  175.1790  137.3680 C   0  0  2  0  0  3  0  0  0  0  0  0
  182.3270  175.4410  138.9160 C   0  0  2  0  0  3  0  0  0  0  0  0
  181.6770  177.2150  134.6010 O   0  0  0  0  0  1  0  0  0  0  0  0
  183.2380  176.1940  137.9270 C   0  0  2  0  0  3  0  0  0  0  0  0
  181.8610  178.8130  138.5540 C   0  0  0  0  0  2  0  0  0  0  0  0
  178.9320  176.7740  139.2670 C   0  0  0  0  0  1  0  0  0  0  0  0
  186.4560  175.0330  136.0820 C   0  0  0  0  0  0  0  0  0  0  0  0
  185.3600  175.7500  136.4650 C   0  0  0  0  0  0  0  0  0  0  0  0
  180.3330  177.0900  138.7980 C   0  0  2  0  0  3  0  0  0  0  0  0
  1  5  1  0  0  0  0
  1 18  1  1  0  0  0
  1 22  1  0  0  0  0
  3 11  1  0  0  0  0
  3 19  1  0  0  0  0
  4 13  2  0  0  0  0
  4 23  1  0  0  0  0
  5  4  1  0  0  0  0
  6  8  1  0  0  0  0
  8 13  1  0  0  0  0
  9 12  1  0  0  0  0
 10 15  1  6  0  0  0
 10 25  1  0  0  0  0
 11 24  1  6  0  0  0
 11 10  1  0  0  0  0
 12  5  1  0  0  0  0
 12  8  2  0  0  0  0
 14  2  1  0  0  0  0
 15 26  1  0  0  0  0
 16 30  1  0  0  0  0
 17  9  2  0  0  0  0
 17 21  1  0  0  0  0
 18  2  1  0  0  0  0
 19 29  1  0  0  0  0
 20 28  1  0  0  0  0
 21  6  2  0  0  0  0
 22 29  1  6  0  0  0
 22 25  1  0  0  0  0
 23  7  1  6  0  0  0
 25 23  1  0  0  0  0
 26 16  1  0  0  0  0
 28 14  1  0  0  0  0
 28 29  2  0  0  0  0
 30 27  1  0  0  0  0
 30  7  1  0  0  0  0
M  END
>  <MODEL>
7

>  <REMARK>
 VINA RESULT:      -4.6      5.600      8.291
  Name = 
  0 active torsions:
  status: ('A' for Active; 'I' for Inactive)
                            x       y       z     vdW  Elec       q    Type
                         _______ _______ _______ _____ _____    ______ ____

>  <TORSDO>
F 0

$$$$
=
 OpenBabel11052412343D

 30 35  0  0  1  0  0  0  0  0999 V2000
  184.7410  177.3810  138.0770 C   0  0  2  0  0  3  0  0  0  0  0  0
  187.0640  177.9530  137.1560 C   0  0  0  0  0  2  0  0  0  0  0  0
  183.7020  173.7960  137.2510 C   0  0  0  0  0  2  0  0  0  0  0  0
  182.5970  178.6330  137.6630 C   0  0  0  0  0  0  0  0  0  0  0  0
  183.5370  178.1080  138.4900 N   0  0  0  0  0  0  0  0  0  0  0  0
  181.0730  179.3180  140.6910 C   0  0  0  0  0  3  0  0  0  0  0  0
  181.2070  178.4720  135.4920 C   0  0  0  0  0  2  0  0  0  0  0  0
  181.8460  178.9860  139.5950 C   0  0  0  0  0  0  0  0  0  0  0  0
  183.5470  177.9550  140.9580 C   0  0  0  0  0  3  0  0  0  0  0  0
  182.1420  175.7490  136.6290 C   0  0  2  0  0  3  0  0  0  0  0  0
  182.6830  174.8330  137.7380 C   0  0  1  0  0  3  0  0  0  0  0  0
  183.0430  178.3370  139.7180 C   0  0  0  0  0  0  0  0  0  0  0  0
  181.5450  179.2070  138.3100 N   0  0  0  0  0  0  0  0  0  0  0  0
  187.5700  176.5250  137.3240 C   0  0  0  0  0  2  0  0  0  0  0  0
  181.3890  174.9780  135.5280 C   0  0  0  0  0  2  0  0  0  0  0  0
  179.5730  176.5780  135.2570 O   0  0  0  0  0  0  0  0  0  0  0  0
  182.8000  178.3250  142.1140 C   0  0  0  0  0  3  0  0  0  0  0  0
  185.9590  178.3160  138.1480 C   0  0  0  0  0  2  0  0  0  0  0  0
  184.5780  174.3020  136.0830 C   0  0  0  0  0  2  0  0  0  0  0  0
  187.3930  174.1130  136.5540 C   0  0  0  0  0  1  0  0  0  0  0  0
  181.5640  179.0040  141.9690 C   0  0  0  0  0  3  0  0  0  0  0  0
  184.5850  176.8050  136.6440 C   0  0  2  0  0  3  0  0  0  0  0  0
  182.5750  178.2530  136.2060 C   0  0  2  0  0  3  0  0  0  0  0  0
  181.6210  174.1750  138.3600 O   0  0  0  0  0  1  0  0  0  0  0  0
  183.1290  176.8220  136.0660 C   0  0  2  0  0  3  0  0  0  0  0  0
  180.6370  175.9330  134.5980 C   0  0  0  0  0  2  0  0  0  0  0  0
  178.9330  178.5170  136.5130 C   0  0  0  0  0  1  0  0  0  0  0  0
  186.6870  175.4190  136.7540 C   0  0  0  0  0  0  0  0  0  0  0  0
  185.3520  175.5120  136.4940 C   0  0  0  0  0  0  0  0  0  0  0  0
  180.0680  177.6160  136.0840 C   0  0  2  0  0  3  0  0  0  0  0  0
  1 18  1  6  0  0  0
  1  5  1  0  0  0  0
  2 14  1  0  0  0  0
  2 18  1  0  0  0  0
  3 11  1  0  0  0  0
  4 13  2  0  0  0  0
  4  5  1  0  0  0  0
  5 12  1  0  0  0  0
  6 21  1  0  0  0  0
  7 30  1  0  0  0  0
  8 12  1  0  0  0  0
  8  6  2  0  0  0  0
  9 17  1  0  0  0  0
 10 15  1  6  0  0  0
 10 11  1  0  0  0  0
 11 24  1  6  0  0  0
 12  9  2  0  0  0  0
 13  8  1  0  0  0  0
 16 30  1  0  0  0  0
 19 29  1  0  0  0  0
 19  3  1  0  0  0  0
 20 28  1  0  0  0  0
 21 17  2  0  0  0  0
 22 29  1  1  0  0  0
 22  1  1  0  0  0  0
 23  7  1  1  0  0  0
 23  4  1  0  0  0  0
 25 23  1  0  0  0  0
 25 10  1  0  0  0  0
 25 22  1  0  0  0  0
 26 16  1  0  0  0  0
 26 15  1  0  0  0  0
 28 14  1  0  0  0  0
 29 28  2  0  0  0  0
 30 27  1  0  0  0  0
M  END
>  <MODEL>
8

>  <REMARK>
 VINA RESULT:      -4.5      4.489      6.477
  Name = 
  0 active torsions:
  status: ('A' for Active; 'I' for Inactive)
                            x       y       z     vdW  Elec       q    Type
                         _______ _______ _______ _____ _____    ______ ____

>  <TORSDO>
F 0

$$$$
=
 OpenBabel11052412343D

 30 35  0  0  1  0  0  0  0  0999 V2000
  182.7750  177.8150  138.9570 C   0  0  2  0  0  3  0  0  0  0  0  0
  181.8920  178.2400  141.3270 C   0  0  0  0  0  2  0  0  0  0  0  0
  180.4310  179.1970  136.2730 C   0  0  0  0  0  2  0  0  0  0  0  0
  183.4300  175.5990  137.9590 C   0  0  0  0  0  0  0  0  0  0  0  0
  183.7000  176.8860  138.3030 N   0  0  0  0  0  0  0  0  0  0  0  0
  186.5940  175.8580  136.5870 C   0  0  0  0  0  3  0  0  0  0  0  0
  181.7550  173.8350  137.0930 C   0  0  0  0  0  2  0  0  0  0  0  0
  185.3680  175.9410  137.2180 C   0  0  0  0  0  0  0  0  0  0  0  0
  185.7020  178.2530  137.8180 C   0  0  0  0  0  3  0  0  0  0  0  0
  181.1680  176.7310  136.1720 C   0  0  2  0  0  3  0  0  0  0  0  0
  181.5440  178.2010  135.9270 C   0  0  1  0  0  3  0  0  0  0  0  0
  184.9370  177.0900  137.8210 C   0  0  0  0  0  0  0  0  0  0  0  0
  184.4490  174.9740  137.3060 N   0  0  0  0  0  0  0  0  0  0  0  0
  181.2200  179.5480  140.9280 C   0  0  0  0  0  2  0  0  0  0  0  0
  179.9750  176.2660  135.3150 C   0  0  0  0  0  2  0  0  0  0  0  0
  180.8730  174.0720  134.7530 O   0  0  0  0  0  0  0  0  0  0  0  0
  186.9930  178.1890  137.2190 C   0  0  0  0  0  3  0  0  0  0  0  0
  183.1030  177.9010  140.4570 C   0  0  0  0  0  2  0  0  0  0  0  0
  179.5530  178.7450  137.4620 C   0  0  0  0  0  2  0  0  0  0  0  0
  179.3720  180.6540  139.5840 C   0  0  0  0  0  1  0  0  0  0  0  0
  187.4280  176.9880  136.6040 C   0  0  0  0  0  3  0  0  0  0  0  0
  181.3000  177.3790  138.7500 C   0  0  2  0  0  3  0  0  0  0  0  0
  182.0120  175.0940  137.9750 C   0  0  2  0  0  3  0  0  0  0  0  0
  181.9150  178.3720  134.5940 O   0  0  0  0  0  1  0  0  0  0  0  0
  181.0700  176.2740  137.6630 C   0  0  2  0  0  3  0  0  0  0  0  0
  179.8060  174.7470  135.3790 C   0  0  0  0  0  2  0  0  0  0  0  0
  183.0280  173.0800  135.0870 C   0  0  0  0  0  1  0  0  0  0  0  0
  180.3260  179.5050  139.6910 C   0  0  0  0  0  0  0  0  0  0  0  0
  180.3840  178.5780  138.6920 C   0  0  0  0  0  0  0  0  0  0  0  0
  182.0140  174.0790  135.5920 C   0  0  2  0  0  3  0  0  0  0  0  0
  1 18  1  1  0  0  0
  3 19  1  0  0  0  0
  4 23  1  0  0  0  0
  4  5  1  0  0  0  0
  5  1  1  0  0  0  0
  6 21  2  0  0  0  0
  6  8  1  0  0  0  0
  8 13  1  0  0  0  0
  8 12  2  0  0  0  0
  9 12  1  0  0  0  0
 10 15  1  1  0  0  0
 10 25  1  0  0  0  0
 11 24  1  6  0  0  0
 11 10  1  0  0  0  0
 11  3  1  0  0  0  0
 12  5  1  0  0  0  0
 13  4  2  0  0  0  0
 14  2  1  0  0  0  0
 15 26  1  0  0  0  0
 16 26  1  0  0  0  0
 16 30  1  0  0  0  0
 17  9  2  0  0  0  0
 18  2  1  0  0  0  0
 19 29  1  0  0  0  0
 20 28  1  0  0  0  0
 21 17  1  0  0  0  0
 22 29  1  6  0  0  0
 22  1  1  0  0  0  0
 23  7  1  6  0  0  0
 25 23  1  0  0  0  0
 25 22  1  0  0  0  0
 27 30  1  0  0  0  0
 28 14  1  0  0  0  0
 29 28  2  0  0  0  0
 30  7  1  0  0  0  0
M  END
>  <MODEL>
9

>  <REMARK>
 VINA RESULT:      -4.4      4.934      8.899
  Name = 
  0 active torsions:
  status: ('A' for Active; 'I' for Inactive)
                            x       y       z     vdW  Elec       q    Type
                         _______ _______ _______ _____ _____    ______ ____

>  <TORSDO>
F 0

$$$$
