=
 OpenBabel11052416413D

 43 47  0  0  1  0  0  0  0  0999 V2000
  184.0590  178.7300  142.6210 N   0  0  0  0  0  0  0  0  0  0  0  0
  181.8130  179.1850  142.1450 O   0  0  0  0  0  0  0  0  0  0  0  0
  187.6150  178.1240  136.1520 C   0  0  0  0  0  0  0  0  0  0  0  0
  182.8770  178.5990  141.8060 C   0  0  0  0  0  0  0  0  0  0  0  0
  188.0280  178.2240  141.1640 C   0  0  0  0  0  0  0  0  0  0  0  0
  185.6100  178.4180  140.8400 N   0  0  0  0  0  0  0  0  0  0  0  0
  188.4590  178.1310  138.4210 C   0  0  0  0  0  0  0  0  0  0  0  0
  186.3070  178.2320  136.6340 C   0  0  0  0  0  3  0  0  0  0  0  0
  187.8400  178.0610  134.8180 F   0  0  0  0  0  0  0  0  0  0  0  0
  187.1380  178.2370  138.9120 C   0  0  0  0  0  0  0  0  0  0  0  0
  188.6890  178.0730  137.0440 C   0  0  0  0  0  3  0  0  0  0  0  0
  186.0670  178.2890  138.0100 C   0  0  0  0  0  3  0  0  0  0  0  0
  185.3970  178.5600  142.1140 C   0  0  0  0  0  0  0  0  0  0  0  0
  186.9290  178.2880  140.2990 C   0  0  0  0  0  0  0  0  0  0  0  0
  189.3170  178.1240  140.6330 C   0  0  0  0  0  3  0  0  0  0  0  0
  187.8130  178.1940  142.6490 C   0  0  1  0  0  3  0  0  0  0  0  0
  186.4850  178.5990  143.0030 O   0  0  0  0  0  0  0  0  0  0  0  0
  189.5040  178.0830  139.2870 N   0  0  0  0  0  0  0  0  0  0  0  0
  183.9030  179.0770  143.9750 C   0  0  0  0  0  0  0  0  0  0  0  0
  183.7750  179.3630  145.0900 N   0  0  0  0  0  0  0  0  0  0  0  0
  188.0780  176.7900  143.1760 C   0  0  0  0  0  2  0  0  0  0  0  0
  189.8000  177.1530  146.5370 C   0  0  0  0  0  3  0  0  0  0  0  0
  191.1260  176.8210  146.2080 C   0  0  0  0  0  0  0  0  0  0  0  0
  190.4490  176.4780  143.9010 C   0  0  0  0  0  3  0  0  0  0  0  0
  188.8060  177.1470  145.5530 C   0  0  0  0  0  3  0  0  0  0  0  0
  189.1300  176.8070  144.2330 C   0  0  0  0  0  0  0  0  0  0  0  0
  191.4430  176.4850  144.8860 C   0  0  0  0  0  3  0  0  0  0  0  0
  192.4770  175.6570  147.9240 C   0  0  0  0  0  1  0  0  0  0  0  0
  192.1410  176.8160  147.1690 O   0  0  0  0  0  0  0  0  0  0  0  0
  182.8710  177.7630  140.5620 C   0  0  0  0  0  2  0  0  0  0  0  0
  181.5810  177.9380  139.7600 C   0  0  0  0  0  2  0  0  0  0  0  0
  181.7470  178.7320  138.4570 C   0  0  2  0  0  3  0  0  0  0  0  0
  182.6250  178.0470  137.4550 C   0  0  0  0  0  3  0  0  0  0  0  0
  182.2960  177.9890  136.2810 O   0  0  0  0  0  0  0  0  0  0  0  0
  182.1390  180.1650  138.6850 C   0  0  0  0  0  0  0  0  0  0  0  0
  183.3240  180.4550  138.7420 O   0  0  0  0  0  0  0  0  0  0  0  0
  181.1070  181.2450  138.8190 C   0  0  0  0  0  2  0  0  0  0  0  0
  181.0010  182.0580  137.5720 C   0  0  0  0  0  0  0  0  0  0  0  0
  180.5860  182.1880  135.1870 C   0  0  0  0  0  3  0  0  0  0  0  0
  181.1140  184.1980  136.4350 C   0  0  0  0  0  3  0  0  0  0  0  0
  180.7990  183.5720  135.2250 C   0  0  0  0  0  3  0  0  0  0  0  0
  181.2170  183.4430  137.6080 C   0  0  0  0  0  3  0  0  0  0  0  0
  180.6870  181.4330  136.3600 C   0  0  0  0  0  3  0  0  0  0  0  0
  1 19  1  0  0  0  0
  3  8  2  0  0  0  0
  3 11  1  0  0  0  0
  4  2  2  0  0  0  0
  4  1  1  0  0  0  0
  5 16  1  0  0  0  0
  6 13  2  0  0  0  0
  7 10  1  0  0  0  0
  7 18  1  0  0  0  0
  8 12  1  0  0  0  0
  9  3  1  0  0  0  0
 10 14  1  0  0  0  0
 11  7  2  0  0  0  0
 12 10  2  0  0  0  0
 13  1  1  0  0  0  0
 13 17  1  0  0  0  0
 14  6  1  0  0  0  0
 14  5  2  0  0  0  0
 15  5  1  0  0  0  0
 16 17  1  0  0  0  0
 16 21  1  6  0  0  0
 18 15  2  0  0  0  0
 19 20  3  0  0  0  0
 21 26  1  0  0  0  0
 23 22  1  0  0  0  0
 23 29  1  0  0  0  0
 24 26  2  0  0  0  0
 24 27  1  0  0  0  0
 25 22  2  0  0  0  0
 26 25  1  0  0  0  0
 27 23  2  0  0  0  0
 29 28  1  0  0  0  0
 30  4  1  0  0  0  0
 31 30  1  0  0  0  0
 32 33  1  6  0  0  0
 32 35  1  0  0  0  0
 32 31  1  0  0  0  0
 34 33  2  0  0  0  0
 35 36  2  0  0  0  0
 35 37  1  0  0  0  0
 38 42  1  0  0  0  0
 38 37  1  0  0  0  0
 39 41  2  0  0  0  0
 39 43  1  0  0  0  0
 40 42  2  0  0  0  0
 41 40  1  0  0  0  0
 43 38  2  0  0  0  0
M  END
>  <MODEL>
1

>  <REMARK>
 VINA RESULT:      -9.1      0.000      0.000
  Name = 
  11 active torsions:
  status: ('A' for Active; 'I' for Inactive)
    1  A    between atoms: C_1  and  C_34
    2  A    between atoms: C_1  and  C_35
    3  A    between atoms: N_2  and  C_12
    4  A    between atoms: C_4  and  C_7
    5  A    between atoms: C_4  and  C_15
    6  A    between atoms: C_6  and  C_7
    7  A    between atoms: C_10  and  C_15
    8  A    between atoms: C_11  and  C_14
    9  A    between atoms: C_14  and  C_22
   10  A    between atoms: C_15  and  C_22
   11  A    between atoms: C_19  and  O_37
                            x       y       z     vdW  Elec       q    Type
                         _______ _______ _______ _____ _____    ______ ____

>  <TORSDO>
F 11

$$$$
=
 OpenBabel11052416413D

 43 47  0  0  1  0  0  0  0  0999 V2000
  184.4420  178.5790  142.8310 N   0  0  0  0  0  0  0  0  0  0  0  0
  182.1630  178.9930  142.4910 O   0  0  0  0  0  0  0  0  0  0  0  0
  187.6200  178.0750  136.1600 C   0  0  0  0  0  0  0  0  0  0  0  0
  183.2160  178.4300  142.0860 C   0  0  0  0  0  0  0  0  0  0  0  0
  188.3270  178.1570  141.1390 C   0  0  0  0  0  0  0  0  0  0  0  0
  185.8910  178.3060  140.9590 N   0  0  0  0  0  0  0  0  0  0  0  0
  188.5970  178.0860  138.3750 C   0  0  0  0  0  0  0  0  0  0  0  0
  186.3410  178.1560  136.7180 C   0  0  0  0  0  3  0  0  0  0  0  0
  187.7680  178.0240  134.8150 F   0  0  0  0  0  0  0  0  0  0  0  0
  187.3050  178.1650  138.9440 C   0  0  0  0  0  0  0  0  0  0  0  0
  188.7450  178.0390  136.9860 C   0  0  0  0  0  3  0  0  0  0  0  0
  186.1820  178.2010  138.1060 C   0  0  0  0  0  3  0  0  0  0  0  0
  185.7500  178.4370  142.2450 C   0  0  0  0  0  0  0  0  0  0  0  0
  187.1780  178.2040  140.3410 C   0  0  0  0  0  0  0  0  0  0  0  0
  189.5840  178.0840  140.5320 C   0  0  0  0  0  3  0  0  0  0  0  0
  188.2000  178.1140  142.6330 C   0  0  1  0  0  3  0  0  0  0  0  0
  186.8880  178.4920  143.0680 O   0  0  0  0  0  0  0  0  0  0  0  0
  189.6920  178.0530  139.1780 N   0  0  0  0  0  0  0  0  0  0  0  0
  184.3590  178.9160  144.1930 C   0  0  0  0  0  0  0  0  0  0  0  0
  184.2920  179.1940  145.3160 N   0  0  0  0  0  0  0  0  0  0  0  0
  188.5220  176.7130  143.1350 C   0  0  0  0  0  2  0  0  0  0  0  0
  189.7540  177.0630  146.7070 C   0  0  0  0  0  3  0  0  0  0  0  0
  191.1340  176.8470  146.5470 C   0  0  0  0  0  0  0  0  0  0  0  0
  190.7950  176.5520  144.1610 C   0  0  0  0  0  3  0  0  0  0  0  0
  188.9010  177.0230  145.5990 C   0  0  0  0  0  3  0  0  0  0  0  0
  189.4220  176.7650  144.3240 C   0  0  0  0  0  0  0  0  0  0  0  0
  191.6470  176.5930  145.2700 C   0  0  0  0  0  3  0  0  0  0  0  0
  192.6440  175.7100  148.1440 C   0  0  0  0  0  1  0  0  0  0  0  0
  192.0120  176.8780  147.6350 O   0  0  0  0  0  0  0  0  0  0  0  0
  183.1530  177.6010  140.8380 C   0  0  0  0  0  2  0  0  0  0  0  0
  182.0970  178.1170  139.8600 C   0  0  0  0  0  2  0  0  0  0  0  0
  182.6710  178.7510  138.5850 C   0  0  2  0  0  3  0  0  0  0  0  0
  182.8280  180.2380  138.6840 C   0  0  0  0  0  3  0  0  0  0  0  0
  183.9200  180.7310  138.9170 O   0  0  0  0  0  0  0  0  0  0  0  0
  181.9450  178.3290  137.3380 C   0  0  0  0  0  0  0  0  0  0  0  0
  181.5830  179.1820  136.5430 O   0  0  0  0  0  0  0  0  0  0  0  0
  181.6800  176.8830  137.0410 C   0  0  0  0  0  2  0  0  0  0  0  0
  182.9230  176.1740  136.6190 C   0  0  0  0  0  0  0  0  0  0  0  0
  184.7850  174.7140  137.1500 C   0  0  0  0  0  3  0  0  0  0  0  0
  184.5660  175.6330  134.9170 C   0  0  0  0  0  3  0  0  0  0  0  0
  185.2580  174.8400  135.8380 C   0  0  0  0  0  3  0  0  0  0  0  0
  183.4010  176.3010  135.3060 C   0  0  0  0  0  3  0  0  0  0  0  0
  183.6180  175.3810  137.5390 C   0  0  0  0  0  3  0  0  0  0  0  0
  1 19  1  0  0  0  0
  3  8  2  0  0  0  0
  3 11  1  0  0  0  0
  4  2  2  0  0  0  0
  4  1  1  0  0  0  0
  5 16  1  0  0  0  0
  6 13  2  0  0  0  0
  7 10  1  0  0  0  0
  7 18  1  0  0  0  0
  8 12  1  0  0  0  0
  9  3  1  0  0  0  0
 10 14  1  0  0  0  0
 11  7  2  0  0  0  0
 12 10  2  0  0  0  0
 13  1  1  0  0  0  0
 13 17  1  0  0  0  0
 14  6  1  0  0  0  0
 14  5  2  0  0  0  0
 15  5  1  0  0  0  0
 16 17  1  0  0  0  0
 16 21  1  6  0  0  0
 18 15  2  0  0  0  0
 19 20  3  0  0  0  0
 21 26  1  0  0  0  0
 23 22  1  0  0  0  0
 23 29  1  0  0  0  0
 24 26  2  0  0  0  0
 24 27  1  0  0  0  0
 25 22  2  0  0  0  0
 26 25  1  0  0  0  0
 27 23  2  0  0  0  0
 29 28  1  0  0  0  0
 30  4  1  0  0  0  0
 31 30  1  0  0  0  0
 32 33  1  1  0  0  0
 32 31  1  0  0  0  0
 33 34  2  0  0  0  0
 35 32  1  0  0  0  0
 36 35  2  0  0  0  0
 37 35  1  0  0  0  0
 38 37  1  0  0  0  0
 38 43  1  0  0  0  0
 39 43  2  0  0  0  0
 40 42  1  0  0  0  0
 40 41  2  0  0  0  0
 41 39  1  0  0  0  0
 42 38  2  0  0  0  0
M  END
>  <MODEL>
2

>  <REMARK>
 VINA RESULT:      -9.0      1.654      3.320
  Name = 
  11 active torsions:
  status: ('A' for Active; 'I' for Inactive)
    1  A    between atoms: C_1  and  C_34
    2  A    between atoms: C_1  and  C_35
    3  A    between atoms: N_2  and  C_12
    4  A    between atoms: C_4  and  C_7
    5  A    between atoms: C_4  and  C_15
    6  A    between atoms: C_6  and  C_7
    7  A    between atoms: C_10  and  C_15
    8  A    between atoms: C_11  and  C_14
    9  A    between atoms: C_14  and  C_22
   10  A    between atoms: C_15  and  C_22
   11  A    between atoms: C_19  and  O_37
                            x       y       z     vdW  Elec       q    Type
                         _______ _______ _______ _____ _____    ______ ____

>  <TORSDO>
F 11

$$$$
=
 OpenBabel11052416413D

 43 47  0  0  1  0  0  0  0  0999 V2000
  187.7200  178.2890  140.8250 N   0  0  0  0  0  0  0  0  0  0  0  0
  189.2690  178.3730  142.5790 O   0  0  0  0  0  0  0  0  0  0  0  0
  180.9690  178.9610  143.7970 C   0  0  0  0  0  0  0  0  0  0  0  0
  188.1220  178.0250  142.1840 C   0  0  0  0  0  0  0  0  0  0  0  0
  183.6690  178.6520  139.5640 C   0  0  0  0  0  0  0  0  0  0  0  0
  185.3890  178.4350  141.2920 N   0  0  0  0  0  0  0  0  0  0  0  0
  181.6750  178.9030  141.4810 C   0  0  0  0  0  0  0  0  0  0  0  0
  182.2930  178.7840  144.2090 C   0  0  0  0  0  3  0  0  0  0  0  0
  179.9830  179.0690  144.7180 F   0  0  0  0  0  0  0  0  0  0  0  0
  183.0140  178.7200  141.8940 C   0  0  0  0  0  0  0  0  0  0  0  0
  180.6610  179.0200  142.4350 C   0  0  0  0  0  3  0  0  0  0  0  0
  183.3140  178.6650  143.2620 C   0  0  0  0  0  3  0  0  0  0  0  0
  186.3460  178.4130  140.4130 C   0  0  0  0  0  0  0  0  0  0  0  0
  184.0160  178.5990  140.9190 C   0  0  0  0  0  0  0  0  0  0  0  0
  182.3320  178.8390  139.2020 C   0  0  0  0  0  3  0  0  0  0  0  0
  184.7190  178.4410  138.5130 C   0  0  1  0  0  3  0  0  0  0  0  0
  186.0420  178.5630  139.0490 O   0  0  0  0  0  0  0  0  0  0  0  0
  181.3730  178.9620  140.1580 N   0  0  0  0  0  0  0  0  0  0  0  0
  188.7220  178.4700  139.8550 C   0  0  0  0  0  0  0  0  0  0  0  0
  189.5470  178.6180  139.0550 N   0  0  0  0  0  0  0  0  0  0  0  0
  184.5450  177.0630  137.8860 C   0  0  0  0  0  2  0  0  0  0  0  0
  187.1250  177.2170  135.1080 C   0  0  0  0  0  3  0  0  0  0  0  0
  187.8990  176.0760  135.3830 C   0  0  0  0  0  0  0  0  0  0  0  0
  186.4710  175.5870  137.2860 C   0  0  0  0  0  3  0  0  0  0  0  0
  186.0320  177.5410  135.9180 C   0  0  0  0  0  3  0  0  0  0  0  0
  185.7050  176.7260  137.0100 C   0  0  0  0  0  0  0  0  0  0  0  0
  187.5640  175.2650  136.4740 C   0  0  0  0  0  3  0  0  0  0  0  0
  190.3010  175.5340  135.1350 C   0  0  0  0  0  1  0  0  0  0  0  0
  188.9990  175.7270  134.5940 O   0  0  0  0  0  0  0  0  0  0  0  0
  187.2130  177.3260  143.1490 C   0  0  0  0  0  2  0  0  0  0  0  0
  186.7410  178.2550  144.2690 C   0  0  0  0  0  2  0  0  0  0  0  0
  186.5210  177.5600  145.6190 C   0  0  2  0  0  3  0  0  0  0  0  0
  185.3590  178.1130  146.3860 C   0  0  0  0  0  3  0  0  0  0  0  0
  185.0910  179.3030  146.3300 O   0  0  0  0  0  0  0  0  0  0  0  0
  187.7710  177.4730  146.4490 C   0  0  0  0  0  0  0  0  0  0  0  0
  187.7500  176.8360  147.4910 O   0  0  0  0  0  0  0  0  0  0  0  0
  189.0460  178.1300  146.0120 C   0  0  0  0  0  2  0  0  0  0  0  0
  190.2010  177.1870  146.0860 C   0  0  0  0  0  0  0  0  0  0  0  0
  191.8200  175.9590  147.4070 C   0  0  0  0  0  3  0  0  0  0  0  0
  191.8330  175.7650  144.9910 C   0  0  0  0  0  3  0  0  0  0  0  0
  192.3670  175.4200  146.2360 C   0  0  0  0  0  3  0  0  0  0  0  0
  190.7520  176.6490  144.9140 C   0  0  0  0  0  3  0  0  0  0  0  0
  190.7370  176.8410  147.3310 C   0  0  0  0  0  3  0  0  0  0  0  0
  1  4  1  0  0  0  0
  3  8  1  0  0  0  0
  3  9  1  0  0  0  0
  4  2  2  0  0  0  0
  4 30  1  0  0  0  0
  5 14  1  0  0  0  0
  7 10  1  0  0  0  0
  7 11  1  0  0  0  0
 10 12  1  0  0  0  0
 11  3  2  0  0  0  0
 12  8  2  0  0  0  0
 13  1  1  0  0  0  0
 13  6  2  0  0  0  0
 14  6  1  0  0  0  0
 14 10  2  0  0  0  0
 15  5  2  0  0  0  0
 15 18  1  0  0  0  0
 16 21  1  1  0  0  0
 16 17  1  0  0  0  0
 16  5  1  0  0  0  0
 17 13  1  0  0  0  0
 18  7  2  0  0  0  0
 19  1  1  0  0  0  0
 20 19  3  0  0  0  0
 22 23  2  0  0  0  0
 22 25  1  0  0  0  0
 23 27  1  0  0  0  0
 25 26  2  0  0  0  0
 26 24  1  0  0  0  0
 26 21  1  0  0  0  0
 27 24  2  0  0  0  0
 29 28  1  0  0  0  0
 29 23  1  0  0  0  0
 30 31  1  0  0  0  0
 32 31  1  6  0  0  0
 32 33  1  0  0  0  0
 32 35  1  0  0  0  0
 34 33  2  0  0  0  0
 35 36  2  0  0  0  0
 37 38  1  0  0  0  0
 37 35  1  0  0  0  0
 38 43  1  0  0  0  0
 40 41  2  0  0  0  0
 41 39  1  0  0  0  0
 42 40  1  0  0  0  0
 42 38  2  0  0  0  0
 43 39  2  0  0  0  0
M  END
>  <MODEL>
3

>  <REMARK>
 VINA RESULT:      -8.8      3.373      9.767
  Name = 
  11 active torsions:
  status: ('A' for Active; 'I' for Inactive)
    1  A    between atoms: C_1  and  C_34
    2  A    between atoms: C_1  and  C_35
    3  A    between atoms: N_2  and  C_12
    4  A    between atoms: C_4  and  C_7
    5  A    between atoms: C_4  and  C_15
    6  A    between atoms: C_6  and  C_7
    7  A    between atoms: C_10  and  C_15
    8  A    between atoms: C_11  and  C_14
    9  A    between atoms: C_14  and  C_22
   10  A    between atoms: C_15  and  C_22
   11  A    between atoms: C_19  and  O_37
                            x       y       z     vdW  Elec       q    Type
                         _______ _______ _______ _____ _____    ______ ____

>  <TORSDO>
F 11

$$$$
=
 OpenBabel11052416413D

 43 47  0  0  1  0  0  0  0  0999 V2000
  188.4320  178.1300  138.7550 N   0  0  0  0  0  0  0  0  0  0  0  0
  190.5920  178.0870  139.6570 O   0  0  0  0  0  0  0  0  0  0  0  0
  183.6920  178.8780  144.3970 C   0  0  0  0  0  0  0  0  0  0  0  0
  189.3730  177.7930  139.7940 C   0  0  0  0  0  0  0  0  0  0  0  0
  184.2590  178.6740  139.4030 C   0  0  0  0  0  0  0  0  0  0  0  0
  186.5470  178.3270  140.1980 N   0  0  0  0  0  0  0  0  0  0  0  0
  183.3140  178.9000  142.0050 C   0  0  0  0  0  0  0  0  0  0  0  0
  185.0530  178.6410  144.1840 C   0  0  0  0  0  3  0  0  0  0  0  0
  183.2130  178.9750  145.6590 F   0  0  0  0  0  0  0  0  0  0  0  0
  184.6890  178.6590  141.7860 C   0  0  0  0  0  0  0  0  0  0  0  0
  182.8240  179.0060  143.3100 C   0  0  0  0  0  3  0  0  0  0  0  0
  185.5520  178.5320  142.8820 C   0  0  0  0  0  3  0  0  0  0  0  0
  187.0230  178.3150  138.9890 C   0  0  0  0  0  0  0  0  0  0  0  0
  185.1590  178.5500  140.4680 C   0  0  0  0  0  0  0  0  0  0  0  0
  182.9080  178.9180  139.6680 C   0  0  0  0  0  3  0  0  0  0  0  0
  184.7340  178.4780  137.9930 C   0  0  1  0  0  3  0  0  0  0  0  0
  186.1630  178.5340  137.9000 O   0  0  0  0  0  0  0  0  0  0  0  0
  182.4690  179.0280  140.9490 N   0  0  0  0  0  0  0  0  0  0  0  0
  188.9180  178.3230  137.4500 C   0  0  0  0  0  0  0  0  0  0  0  0
  189.3180  178.4820  136.3740 N   0  0  0  0  0  0  0  0  0  0  0  0
  184.2390  177.1360  137.4690 C   0  0  0  0  0  2  0  0  0  0  0  0
  186.9400  174.6190  136.5900 C   0  0  0  0  0  3  0  0  0  0  0  0
  187.3470  175.0790  135.3260 C   0  0  0  0  0  0  0  0  0  0  0  0
  185.7260  176.8800  135.4760 C   0  0  0  0  0  3  0  0  0  0  0  0
  185.9300  175.2870  137.2920 C   0  0  0  0  0  3  0  0  0  0  0  0
  185.3210  176.4180  136.7340 C   0  0  0  0  0  0  0  0  0  0  0  0
  186.7350  176.2120  134.7750 C   0  0  0  0  0  3  0  0  0  0  0  0
  189.6760  174.2750  135.0910 C   0  0  0  0  0  1  0  0  0  0  0  0
  188.3510  174.4320  134.5980 O   0  0  0  0  0  0  0  0  0  0  0  0
  188.9430  177.0800  141.0410 C   0  0  0  0  0  2  0  0  0  0  0  0
  189.2690  177.8820  142.3010 C   0  0  0  0  0  2  0  0  0  0  0  0
  190.6310  177.5520  142.9290 C   0  0  2  0  0  3  0  0  0  0  0  0
  190.9530  176.0890  142.9040 C   0  0  0  0  0  3  0  0  0  0  0  0
  190.0630  175.2570  142.9730 O   0  0  0  0  0  0  0  0  0  0  0  0
  190.8170  178.1610  144.2900 C   0  0  0  0  0  0  0  0  0  0  0  0
  190.9100  179.3750  144.3910 O   0  0  0  0  0  0  0  0  0  0  0  0
  190.8650  177.3120  145.5250 C   0  0  0  0  0  2  0  0  0  0  0  0
  189.6620  177.5230  146.3820 C   0  0  0  0  0  0  0  0  0  0  0  0
  187.2530  177.6650  146.6090 C   0  0  0  0  0  3  0  0  0  0  0  0
  188.6720  177.9740  148.5500 C   0  0  0  0  0  3  0  0  0  0  0  0
  187.3970  177.9170  147.9790 C   0  0  0  0  0  3  0  0  0  0  0  0
  189.8040  177.7790  147.7530 C   0  0  0  0  0  3  0  0  0  0  0  0
  188.3850  177.4680  145.8120 C   0  0  0  0  0  3  0  0  0  0  0  0
  1 13  1  0  0  0  0
  1  4  1  0  0  0  0
  2  4  2  0  0  0  0
  3  9  1  0  0  0  0
  4 30  1  0  0  0  0
  5 15  2  0  0  0  0
  5 14  1  0  0  0  0
  6 14  1  0  0  0  0
  7 11  1  0  0  0  0
  8  3  1  0  0  0  0
 10  7  1  0  0  0  0
 10 12  1  0  0  0  0
 11  3  2  0  0  0  0
 12  8  2  0  0  0  0
 13  6  2  0  0  0  0
 14 10  2  0  0  0  0
 15 18  1  0  0  0  0
 16 21  1  1  0  0  0
 16  5  1  0  0  0  0
 17 16  1  0  0  0  0
 17 13  1  0  0  0  0
 18  7  2  0  0  0  0
 19  1  1  0  0  0  0
 20 19  3  0  0  0  0
 22 25  1  0  0  0  0
 23 22  2  0  0  0  0
 24 26  1  0  0  0  0
 26 25  2  0  0  0  0
 26 21  1  0  0  0  0
 27 23  1  0  0  0  0
 27 24  2  0  0  0  0
 29 28  1  0  0  0  0
 29 23  1  0  0  0  0
 30 31  1  0  0  0  0
 32 31  1  1  0  0  0
 32 35  1  0  0  0  0
 33 32  1  0  0  0  0
 33 34  2  0  0  0  0
 35 36  2  0  0  0  0
 35 37  1  0  0  0  0
 37 38  1  0  0  0  0
 38 42  1  0  0  0  0
 39 41  2  0  0  0  0
 41 40  1  0  0  0  0
 42 40  2  0  0  0  0
 43 38  2  0  0  0  0
 43 39  1  0  0  0  0
M  END
>  <MODEL>
4

>  <REMARK>
 VINA RESULT:      -8.8      3.504      9.622
  Name = 
  11 active torsions:
  status: ('A' for Active; 'I' for Inactive)
    1  A    between atoms: C_1  and  C_34
    2  A    between atoms: C_1  and  C_35
    3  A    between atoms: N_2  and  C_12
    4  A    between atoms: C_4  and  C_7
    5  A    between atoms: C_4  and  C_15
    6  A    between atoms: C_6  and  C_7
    7  A    between atoms: C_10  and  C_15
    8  A    between atoms: C_11  and  C_14
    9  A    between atoms: C_14  and  C_22
   10  A    between atoms: C_15  and  C_22
   11  A    between atoms: C_19  and  O_37
                            x       y       z     vdW  Elec       q    Type
                         _______ _______ _______ _____ _____    ______ ____

>  <TORSDO>
F 11

$$$$
=
 OpenBabel11052416413D

 43 47  0  0  1  0  0  0  0  0999 V2000
  187.1510  178.1790  137.9550 N   0  0  0  0  0  0  0  0  0  0  0  0
  189.3950  178.5960  138.4800 O   0  0  0  0  0  0  0  0  0  0  0  0
  183.2210  179.0690  144.1690 C   0  0  0  0  0  0  0  0  0  0  0  0
  188.2770  178.1480  138.8570 C   0  0  0  0  0  0  0  0  0  0  0  0
  183.0850  178.1910  139.2190 C   0  0  0  0  0  0  0  0  0  0  0  0
  185.4900  178.3130  139.6570 N   0  0  0  0  0  0  0  0  0  0  0  0
  182.5020  178.6700  141.8920 C   0  0  0  0  0  0  0  0  0  0  0  0
  184.5570  179.0070  143.7630 C   0  0  0  0  0  3  0  0  0  0  0  0
  182.9200  179.2860  145.4720 F   0  0  0  0  0  0  0  0  0  0  0  0
  183.8520  178.6040  141.4780 C   0  0  0  0  0  0  0  0  0  0  0  0
  182.1950  178.9000  143.2360 C   0  0  0  0  0  3  0  0  0  0  0  0
  184.8730  178.7760  142.4210 C   0  0  0  0  0  3  0  0  0  0  0  0
  185.7810  178.1860  138.3970 C   0  0  0  0  0  0  0  0  0  0  0  0
  184.1380  178.3660  140.1250 C   0  0  0  0  0  0  0  0  0  0  0  0
  181.7650  178.2690  139.6720 C   0  0  0  0  0  3  0  0  0  0  0  0
  183.3780  177.8540  137.7860 C   0  0  1  0  0  3  0  0  0  0  0  0
  184.7470  178.1070  137.4480 O   0  0  0  0  0  0  0  0  0  0  0  0
  181.5040  178.5080  140.9850 N   0  0  0  0  0  0  0  0  0  0  0  0
  187.4030  178.2400  136.5730 C   0  0  0  0  0  0  0  0  0  0  0  0
  187.6120  178.2910  135.4350 N   0  0  0  0  0  0  0  0  0  0  0  0
  183.0480  176.3890  137.5280 C   0  0  0  0  0  2  0  0  0  0  0  0
  186.0540  174.2200  136.7160 C   0  0  0  0  0  3  0  0  0  0  0  0
  186.2070  174.4610  135.3390 C   0  0  0  0  0  0  0  0  0  0  0  0
  184.3010  175.9640  135.4070 C   0  0  0  0  0  3  0  0  0  0  0  0
  185.0290  174.8470  137.4320 C   0  0  0  0  0  3  0  0  0  0  0  0
  184.1500  175.7190  136.7770 C   0  0  0  0  0  0  0  0  0  0  0  0
  185.3260  175.3360  134.6920 C   0  0  0  0  0  3  0  0  0  0  0  0
  188.0180  172.7890  135.1110 C   0  0  0  0  0  1  0  0  0  0  0  0
  187.2200  173.8480  134.5950 O   0  0  0  0  0  0  0  0  0  0  0  0
  188.1600  177.5780  140.2380 C   0  0  0  0  0  2  0  0  0  0  0  0
  188.7170  178.5280  141.2990 C   0  0  0  0  0  2  0  0  0  0  0  0
  189.4920  177.8350  142.4280 C   0  0  2  0  0  3  0  0  0  0  0  0
  190.8340  177.3260  141.9970 C   0  0  0  0  0  3  0  0  0  0  0  0
  191.8540  177.8970  142.3490 O   0  0  0  0  0  0  0  0  0  0  0  0
  188.6820  176.7910  143.1450 C   0  0  0  0  0  0  0  0  0  0  0  0
  188.9720  175.6130  143.0060 O   0  0  0  0  0  0  0  0  0  0  0  0
  187.5430  177.1690  144.0450 C   0  0  0  0  0  2  0  0  0  0  0  0
  188.0040  177.3950  145.4460 C   0  0  0  0  0  0  0  0  0  0  0  0
  187.5310  178.0860  147.7210 C   0  0  0  0  0  3  0  0  0  0  0  0
  189.7600  177.3480  147.1190 C   0  0  0  0  0  3  0  0  0  0  0  0
  188.8590  177.8230  148.0770 C   0  0  0  0  0  3  0  0  0  0  0  0
  189.3350  177.1350  145.8040 C   0  0  0  0  0  3  0  0  0  0  0  0
  187.1050  177.8720  146.4060 C   0  0  0  0  0  3  0  0  0  0  0  0
  1 13  1  0  0  0  0
  1  4  1  0  0  0  0
  2  4  2  0  0  0  0
  3  9  1  0  0  0  0
  4 30  1  0  0  0  0
  5 15  2  0  0  0  0
  5 14  1  0  0  0  0
  6 14  1  0  0  0  0
  7 11  1  0  0  0  0
  8  3  1  0  0  0  0
 10  7  1  0  0  0  0
 10 12  1  0  0  0  0
 11  3  2  0  0  0  0
 12  8  2  0  0  0  0
 13  6  2  0  0  0  0
 14 10  2  0  0  0  0
 15 18  1  0  0  0  0
 16 21  1  1  0  0  0
 16  5  1  0  0  0  0
 17 16  1  0  0  0  0
 17 13  1  0  0  0  0
 18  7  2  0  0  0  0
 19  1  1  0  0  0  0
 20 19  3  0  0  0  0
 22 25  1  0  0  0  0
 23 22  2  0  0  0  0
 24 26  1  0  0  0  0
 26 25  2  0  0  0  0
 26 21  1  0  0  0  0
 27 23  1  0  0  0  0
 27 24  2  0  0  0  0
 29 28  1  0  0  0  0
 29 23  1  0  0  0  0
 30 31  1  0  0  0  0
 32 31  1  6  0  0  0
 32 35  1  0  0  0  0
 33 34  2  0  0  0  0
 33 32  1  0  0  0  0
 35 37  1  0  0  0  0
 36 35  2  0  0  0  0
 37 38  1  0  0  0  0
 38 42  2  0  0  0  0
 38 43  1  0  0  0  0
 39 41  1  0  0  0  0
 40 41  2  0  0  0  0
 42 40  1  0  0  0  0
 43 39  2  0  0  0  0
M  END
>  <MODEL>
5

>  <REMARK>
 VINA RESULT:      -8.6      3.490      9.566
  Name = 
  11 active torsions:
  status: ('A' for Active; 'I' for Inactive)
    1  A    between atoms: C_1  and  C_34
    2  A    between atoms: C_1  and  C_35
    3  A    between atoms: N_2  and  C_12
    4  A    between atoms: C_4  and  C_7
    5  A    between atoms: C_4  and  C_15
    6  A    between atoms: C_6  and  C_7
    7  A    between atoms: C_10  and  C_15
    8  A    between atoms: C_11  and  C_14
    9  A    between atoms: C_14  and  C_22
   10  A    between atoms: C_15  and  C_22
   11  A    between atoms: C_19  and  O_37
                            x       y       z     vdW  Elec       q    Type
                         _______ _______ _______ _____ _____    ______ ____

>  <TORSDO>
F 11

$$$$
=
 OpenBabel11052416413D

 43 47  0  0  1  0  0  0  0  0999 V2000
  184.2090  178.6240  142.3720 N   0  0  0  0  0  0  0  0  0  0  0  0
  181.9840  179.0630  141.7920 O   0  0  0  0  0  0  0  0  0  0  0  0
  188.0750  178.0880  136.0770 C   0  0  0  0  0  0  0  0  0  0  0  0
  183.0680  178.4880  141.5000 C   0  0  0  0  0  0  0  0  0  0  0  0
  188.2470  178.1600  141.1030 C   0  0  0  0  0  0  0  0  0  0  0  0
  185.8460  178.3360  140.6650 N   0  0  0  0  0  0  0  0  0  0  0  0
  188.8100  178.0870  138.3840 C   0  0  0  0  0  0  0  0  0  0  0  0
  186.7440  178.1820  136.4960 C   0  0  0  0  0  3  0  0  0  0  0  0
  188.3650  178.0350  134.7550 F   0  0  0  0  0  0  0  0  0  0  0  0
  187.4650  178.1800  138.8120 C   0  0  0  0  0  0  0  0  0  0  0  0
  189.1050  178.0390  137.0190 C   0  0  0  0  0  3  0  0  0  0  0  0
  186.4390  178.2290  137.8590 C   0  0  0  0  0  3  0  0  0  0  0  0
  185.5700  178.4680  141.9280 C   0  0  0  0  0  0  0  0  0  0  0  0
  187.1900  178.2200  140.1870 C   0  0  0  0  0  0  0  0  0  0  0  0
  189.5610  178.0740  140.6340 C   0  0  0  0  0  3  0  0  0  0  0  0
  187.9610  178.1190  142.5760 C   0  0  1  0  0  3  0  0  0  0  0  0
  186.6140  178.5100  142.8680 O   0  0  0  0  0  0  0  0  0  0  0  0
  189.8130  178.0420  139.2990 N   0  0  0  0  0  0  0  0  0  0  0  0
  183.9850  178.9610  143.7180 C   0  0  0  0  0  0  0  0  0  0  0  0
  183.7990  179.2390  144.8270 N   0  0  0  0  0  0  0  0  0  0  0  0
  188.2130  176.7130  143.1070 C   0  0  0  0  0  2  0  0  0  0  0  0
  189.4610  177.1590  146.6620 C   0  0  0  0  0  3  0  0  0  0  0  0
  190.8110  176.7880  146.5320 C   0  0  0  0  0  0  0  0  0  0  0  0
  190.4520  176.3790  144.1650 C   0  0  0  0  0  3  0  0  0  0  0  0
  188.6130  177.1380  145.5500 C   0  0  0  0  0  3  0  0  0  0  0  0
  189.1080  176.7460  144.2990 C   0  0  0  0  0  0  0  0  0  0  0  0
  191.2990  176.4000  145.2780 C   0  0  0  0  0  3  0  0  0  0  0  0
  192.5790  175.7250  147.8980 C   0  0  0  0  0  1  0  0  0  0  0  0
  191.6830  176.7960  147.6240 O   0  0  0  0  0  0  0  0  0  0  0  0
  183.1290  177.6600  140.2520 C   0  0  0  0  0  2  0  0  0  0  0  0
  181.7510  177.4850  139.6120 C   0  0  0  0  0  2  0  0  0  0  0  0
  181.7810  177.2520  138.0950 C   0  0  2  0  0  3  0  0  0  0  0  0
  180.9400  178.2290  137.3310 C   0  0  0  0  0  3  0  0  0  0  0  0
  181.3430  178.7030  136.2810 O   0  0  0  0  0  0  0  0  0  0  0  0
  181.5030  175.8260  137.7110 C   0  0  0  0  0  0  0  0  0  0  0  0
  180.7450  175.1620  138.4010 O   0  0  0  0  0  0  0  0  0  0  0  0
  182.1160  175.2130  136.4880 C   0  0  0  0  0  2  0  0  0  0  0  0
  183.3770  174.4860  136.8140 C   0  0  0  0  0  0  0  0  0  0  0  0
  185.7670  174.5160  137.2180 C   0  0  0  0  0  3  0  0  0  0  0  0
  184.5490  172.4240  137.3260 C   0  0  0  0  0  3  0  0  0  0  0  0
  185.7500  173.1310  137.4250 C   0  0  0  0  0  3  0  0  0  0  0  0
  183.3630  173.0980  137.0190 C   0  0  0  0  0  3  0  0  0  0  0  0
  184.5810  175.1920  136.9130 C   0  0  0  0  0  3  0  0  0  0  0  0
  1 19  1  0  0  0  0
  3  8  2  0  0  0  0
  3 11  1  0  0  0  0
  4  2  2  0  0  0  0
  4  1  1  0  0  0  0
  5 16  1  0  0  0  0
  6 13  2  0  0  0  0
  7 10  1  0  0  0  0
  7 18  1  0  0  0  0
  8 12  1  0  0  0  0
  9  3  1  0  0  0  0
 10 14  1  0  0  0  0
 11  7  2  0  0  0  0
 12 10  2  0  0  0  0
 13  1  1  0  0  0  0
 13 17  1  0  0  0  0
 14  6  1  0  0  0  0
 14  5  2  0  0  0  0
 15  5  1  0  0  0  0
 16 17  1  0  0  0  0
 16 21  1  6  0  0  0
 18 15  2  0  0  0  0
 19 20  3  0  0  0  0
 21 26  1  0  0  0  0
 23 22  1  0  0  0  0
 23 29  1  0  0  0  0
 24 26  2  0  0  0  0
 24 27  1  0  0  0  0
 25 22  2  0  0  0  0
 26 25  1  0  0  0  0
 27 23  2  0  0  0  0
 29 28  1  0  0  0  0
 30  4  1  0  0  0  0
 31 30  1  0  0  0  0
 32 33  1  6  0  0  0
 32 31  1  0  0  0  0
 34 33  2  0  0  0  0
 35 32  1  0  0  0  0
 35 36  2  0  0  0  0
 37 38  1  0  0  0  0
 37 35  1  0  0  0  0
 38 43  2  0  0  0  0
 38 42  1  0  0  0  0
 39 41  2  0  0  0  0
 40 41  1  0  0  0  0
 42 40  2  0  0  0  0
 43 39  1  0  0  0  0
M  END
>  <MODEL>
6

>  <REMARK>
 VINA RESULT:      -8.3      2.068      4.086
  Name = 
  11 active torsions:
  status: ('A' for Active; 'I' for Inactive)
    1  A    between atoms: C_1  and  C_34
    2  A    between atoms: C_1  and  C_35
    3  A    between atoms: N_2  and  C_12
    4  A    between atoms: C_4  and  C_7
    5  A    between atoms: C_4  and  C_15
    6  A    between atoms: C_6  and  C_7
    7  A    between atoms: C_10  and  C_15
    8  A    between atoms: C_11  and  C_14
    9  A    between atoms: C_14  and  C_22
   10  A    between atoms: C_15  and  C_22
   11  A    between atoms: C_19  and  O_37
                            x       y       z     vdW  Elec       q    Type
                         _______ _______ _______ _____ _____    ______ ____

>  <TORSDO>
F 11

$$$$
=
 OpenBabel11052416413D

 43 47  0  0  1  0  0  0  0  0999 V2000
  189.2400  176.7060  141.6960 N   0  0  0  0  0  0  0  0  0  0  0  0
  190.5800  176.3620  139.8070 O   0  0  0  0  0  0  0  0  0  0  0  0
  182.8950  179.7490  139.3870 C   0  0  0  0  0  0  0  0  0  0  0  0
  189.7130  177.0740  140.3840 C   0  0  0  0  0  0  0  0  0  0  0  0
  185.4620  177.8660  143.2810 C   0  0  0  0  0  0  0  0  0  0  0  0
  187.0890  177.7030  141.4600 N   0  0  0  0  0  0  0  0  0  0  0  0
  183.5600  178.9600  141.5770 C   0  0  0  0  0  0  0  0  0  0  0  0
  184.1560  179.4210  138.8810 C   0  0  0  0  0  3  0  0  0  0  0  0
  181.9620  180.2980  138.5730 F   0  0  0  0  0  0  0  0  0  0  0  0
  184.8380  178.6290  141.0690 C   0  0  0  0  0  0  0  0  0  0  0  0
  182.5980  179.5200  140.7320 C   0  0  0  0  0  3  0  0  0  0  0  0
  185.1260  178.8620  139.7180 C   0  0  0  0  0  3  0  0  0  0  0  0
  187.9580  177.1030  142.2180 C   0  0  0  0  0  0  0  0  0  0  0  0
  185.7910  178.0730  141.9360 C   0  0  0  0  0  0  0  0  0  0  0  0
  184.1850  178.2040  143.7370 C   0  0  0  0  0  3  0  0  0  0  0  0
  186.4990  177.3500  144.2350 C   0  0  1  0  0  3  0  0  0  0  0  0
  187.6240  176.7910  143.5470 O   0  0  0  0  0  0  0  0  0  0  0  0
  183.2690  178.7350  142.8840 N   0  0  0  0  0  0  0  0  0  0  0  0
  190.0580  175.8890  142.4960 C   0  0  0  0  0  0  0  0  0  0  0  0
  190.7310  175.2160  143.1560 N   0  0  0  0  0  0  0  0  0  0  0  0
  186.9640  178.4800  145.1450 C   0  0  0  0  0  2  0  0  0  0  0  0
  189.2280  177.3970  147.9910 C   0  0  0  0  0  3  0  0  0  0  0  0
  190.4720  177.3150  147.3410 C   0  0  0  0  0  0  0  0  0  0  0  0
  189.4140  178.0010  145.2660 C   0  0  0  0  0  3  0  0  0  0  0  0
  188.0850  177.7780  147.2810 C   0  0  0  0  0  3  0  0  0  0  0  0
  188.1770  178.0790  145.9150 C   0  0  0  0  0  0  0  0  0  0  0  0
  190.5570  177.6200  145.9770 C   0  0  0  0  0  3  0  0  0  0  0  0
  192.3870  175.7820  147.6680 C   0  0  0  0  0  1  0  0  0  0  0  0
  191.6330  176.9350  148.0220 O   0  0  0  0  0  0  0  0  0  0  0  0
  189.2100  178.3010  139.6850 C   0  0  0  0  0  2  0  0  0  0  0  0
  189.2740  178.1610  138.1640 C   0  0  0  0  0  2  0  0  0  0  0  0
  188.1980  177.2440  137.5660 C   0  0  2  0  0  3  0  0  0  0  0  0
  188.7630  176.0460  136.8670 C   0  0  0  0  0  3  0  0  0  0  0  0
  188.4340  174.9200  137.2060 O   0  0  0  0  0  0  0  0  0  0  0  0
  187.1950  177.9830  136.7240 C   0  0  0  0  0  0  0  0  0  0  0  0
  187.0930  179.1940  136.8460 O   0  0  0  0  0  0  0  0  0  0  0  0
  186.3370  177.2670  135.7240 C   0  0  0  0  0  2  0  0  0  0  0  0
  184.9990  176.9300  136.2930 C   0  0  0  0  0  0  0  0  0  0  0  0
  183.6540  175.7220  137.9080 C   0  0  0  0  0  3  0  0  0  0  0  0
  182.5860  177.1770  136.2910 C   0  0  0  0  0  3  0  0  0  0  0  0
  182.4940  176.2910  137.3680 C   0  0  0  0  0  3  0  0  0  0  0  0
  183.8360  177.4960  135.7520 C   0  0  0  0  0  3  0  0  0  0  0  0
  184.9050  176.0420  137.3700 C   0  0  0  0  0  3  0  0  0  0  0  0
  1 13  1  0  0  0  0
  1 19  1  0  0  0  0
  2  4  2  0  0  0  0
  3 11  1  0  0  0  0
  4  1  1  0  0  0  0
  5 15  1  0  0  0  0
  5 16  1  0  0  0  0
  6 14  1  0  0  0  0
  6 13  2  0  0  0  0
  7 18  1  0  0  0  0
  8  3  2  0  0  0  0
  8 12  1  0  0  0  0
  9  3  1  0  0  0  0
 10  7  1  0  0  0  0
 10 14  1  0  0  0  0
 11  7  2  0  0  0  0
 12 10  2  0  0  0  0
 13 17  1  0  0  0  0
 14  5  2  0  0  0  0
 16 21  1  1  0  0  0
 17 16  1  0  0  0  0
 18 15  2  0  0  0  0
 19 20  3  0  0  0  0
 21 26  1  0  0  0  0
 23 22  1  0  0  0  0
 23 29  1  0  0  0  0
 24 26  2  0  0  0  0
 24 27  1  0  0  0  0
 25 22  2  0  0  0  0
 26 25  1  0  0  0  0
 27 23  2  0  0  0  0
 28 29  1  0  0  0  0
 30  4  1  0  0  0  0
 31 30  1  0  0  0  0
 32 33  1  6  0  0  0
 32 31  1  0  0  0  0
 33 34  2  0  0  0  0
 35 36  2  0  0  0  0
 35 32  1  0  0  0  0
 37 38  1  0  0  0  0
 37 35  1  0  0  0  0
 38 43  1  0  0  0  0
 40 41  2  0  0  0  0
 41 39  1  0  0  0  0
 42 40  1  0  0  0  0
 42 38  2  0  0  0  0
 43 39  2  0  0  0  0
M  END
>  <MODEL>
7

>  <REMARK>
 VINA RESULT:      -8.2      2.898      5.504
  Name = 
  11 active torsions:
  status: ('A' for Active; 'I' for Inactive)
    1  A    between atoms: C_1  and  C_34
    2  A    between atoms: C_1  and  C_35
    3  A    between atoms: N_2  and  C_12
    4  A    between atoms: C_4  and  C_7
    5  A    between atoms: C_4  and  C_15
    6  A    between atoms: C_6  and  C_7
    7  A    between atoms: C_10  and  C_15
    8  A    between atoms: C_11  and  C_14
    9  A    between atoms: C_14  and  C_22
   10  A    between atoms: C_15  and  C_22
   11  A    between atoms: C_19  and  O_37
                            x       y       z     vdW  Elec       q    Type
                         _______ _______ _______ _____ _____    ______ ____

>  <TORSDO>
F 11

$$$$
=
 OpenBabel11052416413D

 43 47  0  0  1  0  0  0  0  0999 V2000
  191.2270  177.3950  140.4530 N   0  0  0  0  0  0  0  0  0  0  0  0
  191.7250  178.0110  142.6570 O   0  0  0  0  0  0  0  0  0  0  0  0
  184.1060  179.0410  139.2510 C   0  0  0  0  0  0  0  0  0  0  0  0
  190.8710  177.5680  141.8400 C   0  0  0  0  0  0  0  0  0  0  0  0
  188.4160  177.3860  137.2550 C   0  0  0  0  0  0  0  0  0  0  0  0
  189.0230  177.7060  139.6040 N   0  0  0  0  0  0  0  0  0  0  0  0
  185.8200  178.2480  137.7350 C   0  0  0  0  0  0  0  0  0  0  0  0
  185.0150  178.9880  140.3120 C   0  0  0  0  0  3  0  0  0  0  0  0
  182.8320  179.4430  139.4720 F   0  0  0  0  0  0  0  0  0  0  0  0
  186.7410  178.1910  138.8060 C   0  0  0  0  0  0  0  0  0  0  0  0
  184.5080  178.6710  137.9650 C   0  0  0  0  0  3  0  0  0  0  0  0
  186.3290  178.5660  140.0920 C   0  0  0  0  0  3  0  0  0  0  0  0
  190.2660  177.3980  139.3810 C   0  0  0  0  0  0  0  0  0  0  0  0
  188.0510  177.7590  138.5540 C   0  0  0  0  0  0  0  0  0  0  0  0
  187.4730  177.4640  136.2250 C   0  0  0  0  0  3  0  0  0  0  0  0
  189.7900  176.8440  136.9890 C   0  0  1  0  0  3  0  0  0  0  0  0
  190.6890  177.1140  138.0710 O   0  0  0  0  0  0  0  0  0  0  0  0
  186.2090  177.8910  136.4840 N   0  0  0  0  0  0  0  0  0  0  0  0
  192.5870  177.2510  140.1250 C   0  0  0  0  0  0  0  0  0  0  0  0
  193.7070  177.1330  139.8560 N   0  0  0  0  0  0  0  0  0  0  0  0
  189.7090  175.3410  136.7520 C   0  0  0  0  0  2  0  0  0  0  0  0
  192.7610  174.6900  134.5940 C   0  0  0  0  0  3  0  0  0  0  0  0
  193.4850  173.7930  135.3990 C   0  0  0  0  0  0  0  0  0  0  0  0
  191.7340  173.9110  137.0760 C   0  0  0  0  0  3  0  0  0  0  0  0
  191.5310  175.1940  135.0290 C   0  0  0  0  0  3  0  0  0  0  0  0
  191.0170  174.8060  136.2730 C   0  0  0  0  0  0  0  0  0  0  0  0
  192.9630  173.4080  136.6390 C   0  0  0  0  0  3  0  0  0  0  0  0
  195.8660  173.2760  135.8340 C   0  0  0  0  0  1  0  0  0  0  0  0
  194.7190  173.2740  134.9930 O   0  0  0  0  0  0  0  0  0  0  0  0
  189.5050  177.2180  142.3490 C   0  0  0  0  0  2  0  0  0  0  0  0
  189.5670  176.4090  143.6450 C   0  0  0  0  0  2  0  0  0  0  0  0
  189.8320  177.2470  144.9040 C   0  0  2  0  0  3  0  0  0  0  0  0
  190.9690  176.7290  145.7300 C   0  0  0  0  0  3  0  0  0  0  0  0
  191.7830  177.4980  146.2140 O   0  0  0  0  0  0  0  0  0  0  0  0
  188.5930  177.4970  145.7180 C   0  0  0  0  0  0  0  0  0  0  0  0
  188.6240  178.3370  146.6040 O   0  0  0  0  0  0  0  0  0  0  0  0
  187.3190  176.7530  145.4500 C   0  0  0  0  0  2  0  0  0  0  0  0
  186.1980  177.6850  145.1330 C   0  0  0  0  0  0  0  0  0  0  0  0
  184.9610  178.9990  143.5140 C   0  0  0  0  0  3  0  0  0  0  0  0
  184.2850  178.9980  145.8420 C   0  0  0  0  0  3  0  0  0  0  0  0
  184.0980  179.4350  144.5270 C   0  0  0  0  0  3  0  0  0  0  0  0
  185.3350  178.1260  146.1460 C   0  0  0  0  0  3  0  0  0  0  0  0
  186.0100  178.1240  143.8180 C   0  0  0  0  0  3  0  0  0  0  0  0
  1  4  1  0  0  0  0
  3  9  1  0  0  0  0
  3  8  1  0  0  0  0
  4 30  1  0  0  0  0
  4  2  2  0  0  0  0
  5 14  1  0  0  0  0
  7 11  1  0  0  0  0
  7 10  1  0  0  0  0
 10 12  1  0  0  0  0
 11  3  2  0  0  0  0
 12  8  2  0  0  0  0
 13  6  2  0  0  0  0
 13  1  1  0  0  0  0
 14 10  2  0  0  0  0
 14  6  1  0  0  0  0
 15 18  1  0  0  0  0
 15  5  2  0  0  0  0
 16 21  1  1  0  0  0
 16  5  1  0  0  0  0
 16 17  1  0  0  0  0
 17 13  1  0  0  0  0
 18  7  2  0  0  0  0
 19  1  1  0  0  0  0
 20 19  3  0  0  0  0
 22 25  2  0  0  0  0
 22 23  1  0  0  0  0
 23 27  2  0  0  0  0
 25 26  1  0  0  0  0
 26 21  1  0  0  0  0
 26 24  2  0  0  0  0
 27 24  1  0  0  0  0
 29 23  1  0  0  0  0
 29 28  1  0  0  0  0
 30 31  1  0  0  0  0
 32 31  1  6  0  0  0
 32 35  1  0  0  0  0
 32 33  1  0  0  0  0
 33 34  2  0  0  0  0
 35 36  2  0  0  0  0
 37 35  1  0  0  0  0
 38 37  1  0  0  0  0
 38 42  1  0  0  0  0
 39 43  1  0  0  0  0
 39 41  2  0  0  0  0
 40 42  2  0  0  0  0
 41 40  1  0  0  0  0
 43 38  2  0  0  0  0
M  END
>  <MODEL>
8

>  <REMARK>
 VINA RESULT:      -8.0      3.943      8.716
  Name = 
  11 active torsions:
  status: ('A' for Active; 'I' for Inactive)
    1  A    between atoms: C_1  and  C_34
    2  A    between atoms: C_1  and  C_35
    3  A    between atoms: N_2  and  C_12
    4  A    between atoms: C_4  and  C_7
    5  A    between atoms: C_4  and  C_15
    6  A    between atoms: C_6  and  C_7
    7  A    between atoms: C_10  and  C_15
    8  A    between atoms: C_11  and  C_14
    9  A    between atoms: C_14  and  C_22
   10  A    between atoms: C_15  and  C_22
   11  A    between atoms: C_19  and  O_37
                            x       y       z     vdW  Elec       q    Type
                         _______ _______ _______ _____ _____    ______ ____

>  <TORSDO>
F 11

$$$$
=
 OpenBabel11052416413D

 43 47  0  0  1  0  0  0  0  0999 V2000
  189.0380  176.8100  141.8060 N   0  0  0  0  0  0  0  0  0  0  0  0
  190.2940  176.4770  139.8580 O   0  0  0  0  0  0  0  0  0  0  0  0
  182.5590  179.7730  139.7810 C   0  0  0  0  0  0  0  0  0  0  0  0
  189.4470  177.1800  140.4730 C   0  0  0  0  0  0  0  0  0  0  0  0
  185.3220  177.9300  143.5580 C   0  0  0  0  0  0  0  0  0  0  0  0
  186.8670  177.7810  141.6660 N   0  0  0  0  0  0  0  0  0  0  0  0
  183.3320  178.9970  141.9400 C   0  0  0  0  0  0  0  0  0  0  0  0
  183.8000  179.4590  139.2190 C   0  0  0  0  0  3  0  0  0  0  0  0
  181.5840  180.3090  139.0100 F   0  0  0  0  0  0  0  0  0  0  0  0
  184.5890  178.6800  141.3760 C   0  0  0  0  0  0  0  0  0  0  0  0
  182.3260  179.5430  141.1400 C   0  0  0  0  0  3  0  0  0  0  0  0
  184.8130  178.9130  140.0120 C   0  0  0  0  0  3  0  0  0  0  0  0
  187.7760  177.1930  142.3850 C   0  0  0  0  0  0  0  0  0  0  0  0
  185.5880  178.1370  142.1990 C   0  0  0  0  0  0  0  0  0  0  0  0
  184.0630  178.2530  144.0720 C   0  0  0  0  0  3  0  0  0  0  0  0
  186.4080  177.4280  144.4650 C   0  0  1  0  0  3  0  0  0  0  0  0
  187.5070  176.8800  143.7280 O   0  0  0  0  0  0  0  0  0  0  0  0
  183.1040  178.7720  143.2600 N   0  0  0  0  0  0  0  0  0  0  0  0
  189.9010  176.0040  142.5690 C   0  0  0  0  0  0  0  0  0  0  0  0
  190.6120  175.3410  143.1980 N   0  0  0  0  0  0  0  0  0  0  0  0
  186.9000  178.5650  145.3510 C   0  0  0  0  0  2  0  0  0  0  0  0
  189.2700  177.5000  148.1160 C   0  0  0  0  0  3  0  0  0  0  0  0
  190.4920  177.4300  147.4240 C   0  0  0  0  0  0  0  0  0  0  0  0
  189.3570  178.1080  145.3870 C   0  0  0  0  0  3  0  0  0  0  0  0
  188.1000  177.8710  147.4460 C   0  0  0  0  0  3  0  0  0  0  0  0
  188.1430  178.1740  146.0790 C   0  0  0  0  0  0  0  0  0  0  0  0
  190.5270  177.7370  146.0580 C   0  0  0  0  0  3  0  0  0  0  0  0
  192.3830  175.8660  147.7440 C   0  0  0  0  0  1  0  0  0  0  0  0
  191.6790  177.0600  148.0640 O   0  0  0  0  0  0  0  0  0  0  0  0
  188.8980  178.4000  139.7950 C   0  0  0  0  0  2  0  0  0  0  0  0
  189.4300  178.5510  138.3690 C   0  0  0  0  0  2  0  0  0  0  0  0
  188.5410  177.9170  137.2900 C   0  0  2  0  0  3  0  0  0  0  0  0
  187.0940  177.8600  137.6760 C   0  0  0  0  0  3  0  0  0  0  0  0
  186.2230  178.0520  136.8420 O   0  0  0  0  0  0  0  0  0  0  0  0
  189.0600  176.5950  136.7990 C   0  0  0  0  0  0  0  0  0  0  0  0
  188.5300  175.5660  137.1880 O   0  0  0  0  0  0  0  0  0  0  0  0
  190.1970  176.5160  135.8240 C   0  0  0  0  0  2  0  0  0  0  0  0
  191.3480  175.7510  136.3870 C   0  0  0  0  0  0  0  0  0  0  0  0
  192.5880  173.6780  136.5840 C   0  0  0  0  0  3  0  0  0  0  0  0
  193.3400  175.6550  137.7670 C   0  0  0  0  0  3  0  0  0  0  0  0
  193.5040  174.3070  137.4380 C   0  0  0  0  0  3  0  0  0  0  0  0
  192.2630  176.3780  137.2450 C   0  0  0  0  0  3  0  0  0  0  0  0
  191.5120  174.4010  136.0590 C   0  0  0  0  0  3  0  0  0  0  0  0
  1 13  1  0  0  0  0
  1 19  1  0  0  0  0
  2  4  2  0  0  0  0
  3 11  1  0  0  0  0
  4  1  1  0  0  0  0
  5 15  1  0  0  0  0
  5 16  1  0  0  0  0
  6 14  1  0  0  0  0
  6 13  2  0  0  0  0
  7 18  1  0  0  0  0
  8  3  2  0  0  0  0
  8 12  1  0  0  0  0
  9  3  1  0  0  0  0
 10  7  1  0  0  0  0
 10 14  1  0  0  0  0
 11  7  2  0  0  0  0
 12 10  2  0  0  0  0
 13 17  1  0  0  0  0
 14  5  2  0  0  0  0
 16 21  1  6  0  0  0
 17 16  1  0  0  0  0
 18 15  2  0  0  0  0
 19 20  3  0  0  0  0
 21 26  1  0  0  0  0
 23 29  1  0  0  0  0
 23 22  2  0  0  0  0
 24 27  2  0  0  0  0
 24 26  1  0  0  0  0
 25 22  1  0  0  0  0
 26 25  2  0  0  0  0
 27 23  1  0  0  0  0
 28 29  1  0  0  0  0
 30  4  1  0  0  0  0
 31 30  1  0  0  0  0
 32 33  1  1  0  0  0
 32 31  1  0  0  0  0
 34 33  2  0  0  0  0
 35 36  2  0  0  0  0
 35 32  1  0  0  0  0
 37 38  1  0  0  0  0
 37 35  1  0  0  0  0
 38 42  1  0  0  0  0
 39 41  2  0  0  0  0
 41 40  1  0  0  0  0
 42 40  2  0  0  0  0
 43 38  2  0  0  0  0
 43 39  1  0  0  0  0
M  END
>  <MODEL>
9

>  <REMARK>
 VINA RESULT:      -7.5      3.054      7.283
  Name = 
  11 active torsions:
  status: ('A' for Active; 'I' for Inactive)
    1  A    between atoms: C_1  and  C_34
    2  A    between atoms: C_1  and  C_35
    3  A    between atoms: N_2  and  C_12
    4  A    between atoms: C_4  and  C_7
    5  A    between atoms: C_4  and  C_15
    6  A    between atoms: C_6  and  C_7
    7  A    between atoms: C_10  and  C_15
    8  A    between atoms: C_11  and  C_14
    9  A    between atoms: C_14  and  C_22
   10  A    between atoms: C_15  and  C_22
   11  A    between atoms: C_19  and  O_37
                            x       y       z     vdW  Elec       q    Type
                         _______ _______ _______ _____ _____    ______ ____

>  <TORSDO>
F 11

$$$$
