=
 OpenBabel11052414593D

 55 60  0  0  1  0  0  0  0  0999 V2000
  185.4240  178.3800  144.3010 C   0  0  0  0  0  3  0  0  0  0  0  0
  182.7890  179.0190  143.6070 C   0  0  0  0  0  0  0  0  0  0  0  0
  183.7100  178.6590  142.6150 C   0  0  0  0  0  3  0  0  0  0  0  0
  184.5050  178.7330  145.2940 C   0  0  0  0  0  3  0  0  0  0  0  0
  185.0270  178.3410  142.9600 C   0  0  0  0  0  0  0  0  0  0  0  0
  183.1870  179.0480  144.9460 C   0  0  0  0  0  3  0  0  0  0  0  0
  181.3810  179.3580  143.2430 C   0  0  0  0  0  2  0  0  0  0  0  0
  180.5140  178.1070  143.1520 C   0  0  0  0  0  2  0  0  0  0  0  0
  179.5880  178.1660  141.9450 C   0  0  0  0  0  2  0  0  0  0  0  0
  180.0090  177.1610  140.8810 C   0  0  0  0  0  2  0  0  0  0  0  0
  178.9310  176.1150  140.6660 C   0  0  0  0  0  2  0  0  0  0  0  0
  179.4470  175.0320  139.7420 C   0  0  0  0  0  2  0  0  0  0  0  0
  180.8340  175.1640  139.5870 O   0  0  0  0  0  0  0  0  0  0  0  0
  181.1820  174.7550  138.2800 C   0  0  1  0  0  3  0  0  0  0  0  0
  180.1130  173.9330  137.5550 C   0  0  0  0  0  1  0  0  0  0  0  0
  184.3620  175.3930  137.5880 O   0  0  0  0  0  1  0  0  0  0  0  0
  181.9680  175.7950  137.4470 C   0  0  1  0  0  0  0  0  0  0  0  0
  182.9360  179.9750  139.0650 C   0  0  0  0  0  3  0  0  0  0  0  0
  183.3150  176.2480  139.4190 F   0  0  0  0  0  0  0  0  0  0  0  0
  183.3270  176.2220  138.0330 C   0  0  1  0  0  0  0  0  0  0  0  0
  184.1940  179.5900  138.8840 C   0  0  0  0  0  3  0  0  0  0  0  0
  184.4900  178.3760  138.2510 O   0  0  0  0  0  0  0  0  0  0  0  0
  182.1350  178.2670  137.4250 C   0  0  2  0  0  3  0  0  0  0  0  0
  183.5270  177.6260  137.4960 C   0  0  2  0  0  3  0  0  0  0  0  0
  182.1710  175.2700  136.1770 F   0  0  0  0  0  0  0  0  0  0  0  0
  181.8140  179.0620  138.6900 C   0  0  0  0  0  2  0  0  0  0  0  0
  181.1570  177.0990  137.3490 C   0  0  1  0  0  3  0  0  0  0  0  0
  180.2860  177.1750  136.1280 C   0  0  0  0  0  3  0  0  0  0  0  0
  180.0920  178.4220  135.4440 S   0  0  0  0  0  0  0  0  0  0  0  0
  185.9880  177.9230  141.8970 C   0  0  0  0  0  2  0  0  0  0  0  0
  186.6170  179.1360  141.2210 C   0  0  0  0  0  2  0  0  0  0  0  0
  188.1300  179.1310  141.3870 C   0  0  0  0  0  2  0  0  0  0  0  0
  188.6730  177.7020  141.3490 C   0  0  1  0  0  3  0  0  0  0  0  0
  187.7760  176.7010  138.6870 C   0  0  0  0  0  2  0  0  0  0  0  0
  189.0410  175.9290  136.9590 C   0  0  2  0  0  3  0  0  0  0  0  0
  189.2130  177.0140  138.9870 C   0  0  1  0  0  0  0  0  0  0  0  0
  189.7640  177.5780  140.2900 C   0  0  1  0  0  3  0  0  0  0  0  0
  190.0830  176.3860  137.9680 C   0  0  0  0  0  2  0  0  0  0  0  0
  187.7700  175.8290  137.5780 O   0  0  0  0  0  0  0  0  0  0  0  0
  189.4590  178.5020  139.1130 C   0  0  0  0  0  2  0  0  0  0  0  0
  189.4380  174.6250  136.3530 C   0  0  0  0  0  0  0  0  0  0  0  0
  190.0700  173.6680  137.1410 O   0  0  0  0  0  1  0  0  0  0  0  0
  189.1750  174.3710  135.1430 O   0  0  0  0  0  0  0  0  0  0  0  0
  189.1680  177.2000  142.7160 C   0  0  1  0  0  3  0  0  0  0  0  0
  187.5530  175.6270  143.5960 O   0  0  0  0  0  1  0  0  0  0  0  0
  188.8180  175.7360  143.0070 C   0  0  0  0  0  2  0  0  0  0  0  0
  190.6480  177.4910  142.9280 C   0  0  0  0  0  2  0  0  0  0  0  0
  191.2150  176.5190  143.7960 O   0  0  0  0  0  0  0  0  0  0  0  0
  192.0740  175.9830  145.8530 O   0  0  0  0  0  0  0  0  0  0  0  0
  191.2910  176.7020  145.1790 C   0  0  0  0  0  0  0  0  0  0  0  0
  190.5020  177.7620  145.8770 C   0  0  0  0  0  2  0  0  0  0  0  0
  188.7270  178.1870  147.5420 C   0  0  2  0  0  3  0  0  0  0  0  0
  188.0420  177.4970  148.7000 C   0  0  0  0  0  1  0  0  0  0  0  0
  188.0500  177.7890  146.2450 C   0  0  0  0  0  2  0  0  0  0  0  0
  189.3550  177.1360  146.6480 C   0  0  1  0  0  3  0  0  0  0  0  0
  1  4  1  0  0  0  0
  2  6  1  0  0  0  0
  3  5  1  0  0  0  0
  3  2  2  0  0  0  0
  5  1  2  0  0  0  0
  6  4  2  0  0  0  0
  7  2  1  0  0  0  0
  8  7  1  0  0  0  0
  9  8  1  0  0  0  0
 10  9  1  0  0  0  0
 11 10  1  0  0  0  0
 12 11  1  0  0  0  0
 13 12  1  0  0  0  0
 14 15  1  6  0  0  0
 14 13  1  0  0  0  0
 17 25  1  6  0  0  0
 17 20  1  0  0  0  0
 17 14  1  0  0  0  0
 20 16  1  6  0  0  0
 20 19  1  0  0  0  0
 21 18  2  0  0  0  0
 22 21  1  0  0  0  0
 23 24  1  0  0  0  0
 23 26  1  1  0  0  0
 24 20  1  0  0  0  0
 24 22  1  1  0  0  0
 26 18  1  0  0  0  0
 27 28  1  6  0  0  0
 27 23  1  0  0  0  0
 27 17  1  0  0  0  0
 29 28  2  0  0  0  0
 30  5  1  0  0  0  0
 31 32  1  0  0  0  0
 31 30  1  0  0  0  0
 33 32  1  1  0  0  0
 33 44  1  0  0  0  0
 34 36  1  0  0  0  0
 35 41  1  1  0  0  0
 35 39  1  0  0  0  0
 35 38  1  0  0  0  0
 36 38  1  6  0  0  0
 36 40  1  0  0  0  0
 36 37  1  0  0  0  0
 37 33  1  1  0  0  0
 39 34  1  0  0  0  0
 40 37  1  0  0  0  0
 41 42  1  0  0  0  0
 43 41  2  0  0  0  0
 44 47  1  6  0  0  0
 44 46  1  0  0  0  0
 46 45  1  0  0  0  0
 47 48  1  0  0  0  0
 48 50  1  0  0  0  0
 50 49  2  0  0  0  0
 50 51  1  0  0  0  0
 52 53  1  1  0  0  0
 54 55  1  0  0  0  0
 54 52  1  0  0  0  0
 55 51  1  6  0  0  0
 55 52  1  0  0  0  0
M  END
>  <MODEL>
1

>  <REMARK>
 VINA RESULT:      -6.7      0.000      0.000
  Name = 
  23 active torsions:
  status: ('A' for Active; 'I' for Inactive)
    1  A    between atoms: C_1  and  C_53
    2  A    between atoms: C_2  and  C_28
    3  A    between atoms: C_2  and  C_44
    4  A    between atoms: C_6  and  C_20
    5  A    between atoms: O_7  and  C_20
    6  A    between atoms: O_7  and  C_22
    7  A    between atoms: C_8  and  C_22
    8  A    between atoms: C_8  and  C_35
    9  A    between atoms: C_10  and  C_32
   10  A    between atoms: C_16  and  C_17
   11  A    between atoms: C_16  and  O_26
   12  A    between atoms: C_17  and  C_23
   13  A    between atoms: C_17  and  C_33
   14  A    between atoms: C_19  and  C_40
   15  A    between atoms: C_19  and  C_45
   16  A    between atoms: O_26  and  C_45
   17  A    between atoms: C_27  and  C_54
   18  A    between atoms: C_28  and  C_49
   19  A    between atoms: C_33  and  C_36
   20  A    between atoms: C_33  and  C_49
   21  A    between atoms: C_35  and  C_43
   22  A    between atoms: C_43  and  C_51
   23  A    between atoms: C_51  and  C_54
                            x       y       z     vdW  Elec       q    Type
                         _______ _______ _______ _____ _____    ______ ____

>  <TORSDO>
F 23

$$$$
=
 OpenBabel11052414593D

 55 60  0  0  1  0  0  0  0  0999 V2000
  181.1620  178.8630  144.0530 C   0  0  0  0  0  3  0  0  0  0  0  0
  182.0780  178.7380  141.4110 C   0  0  0  0  0  0  0  0  0  0  0  0
  182.9880  178.6850  142.4740 C   0  0  0  0  0  3  0  0  0  0  0  0
  180.2510  178.9110  142.9940 C   0  0  0  0  0  3  0  0  0  0  0  0
  182.5330  178.7480  143.7950 C   0  0  0  0  0  0  0  0  0  0  0  0
  180.7090  178.8430  141.6740 C   0  0  0  0  0  3  0  0  0  0  0  0
  182.5600  178.6680  140.0000 C   0  0  0  0  0  2  0  0  0  0  0  0
  183.5130  177.4960  139.7950 C   0  0  0  0  0  2  0  0  0  0  0  0
  182.7490  176.1940  139.5930 C   0  0  0  0  0  2  0  0  0  0  0  0
  181.9090  176.2430  138.3240 C   0  0  0  0  0  2  0  0  0  0  0  0
  182.6660  175.6510  137.1500 C   0  0  0  0  0  2  0  0  0  0  0  0
  183.6040  174.5680  137.6410 C   0  0  0  0  0  2  0  0  0  0  0  0
  184.9330  174.9570  137.4200 O   0  0  0  0  0  0  0  0  0  0  0  0
  185.7010  173.8020  137.1520 C   0  0  1  0  0  3  0  0  0  0  0  0
  184.9100  172.4910  137.1290 C   0  0  0  0  0  1  0  0  0  0  0  0
  187.5540  171.8250  135.2400 O   0  0  0  0  0  1  0  0  0  0  0  0
  186.8170  173.9790  136.0950 C   0  0  1  0  0  0  0  0  0  0  0  0
  191.2030  174.6110  137.2730 C   0  0  0  0  0  3  0  0  0  0  0  0
  188.1620  172.3960  137.3570 F   0  0  0  0  0  0  0  0  0  0  0  0
  187.9000  172.8830  136.0860 C   0  0  1  0  0  0  0  0  0  0  0  0
  191.3930  173.4890  136.5860 C   0  0  0  0  0  3  0  0  0  0  0  0
  190.3470  172.9070  135.8610 O   0  0  0  0  0  0  0  0  0  0  0  0
  189.0570  175.0360  136.0630 C   0  0  2  0  0  3  0  0  0  0  0  0
  189.1260  173.5940  135.5460 C   0  0  2  0  0  3  0  0  0  0  0  0
  186.2220  174.0330  134.8400 F   0  0  0  0  0  0  0  0  0  0  0  0
  189.8360  175.2060  137.3670 C   0  0  0  0  0  2  0  0  0  0  0  0
  187.5840  175.2850  136.3660 C   0  0  1  0  0  3  0  0  0  0  0  0
  187.0470  176.4650  135.6070 C   0  0  0  0  0  3  0  0  0  0  0  0
  187.6610  177.7560  135.7320 S   0  0  0  0  0  0  0  0  0  0  0  0
  183.5110  178.6540  144.9180 C   0  0  0  0  0  2  0  0  0  0  0  0
  184.9130  178.3640  144.3990 C   0  0  0  0  0  2  0  0  0  0  0  0
  185.9700  178.9800  145.3050 C   0  0  0  0  0  2  0  0  0  0  0  0
  187.3420  178.3650  145.0300 C   0  0  1  0  0  3  0  0  0  0  0  0
  190.2470  178.3040  145.7000 C   0  0  0  0  0  2  0  0  0  0  0  0
  191.3830  176.7870  146.9610 C   0  0  2  0  0  3  0  0  0  0  0  0
  189.2420  177.4300  146.3940 C   0  0  1  0  0  0  0  0  0  0  0  0
  187.7370  177.4240  146.1640 C   0  0  1  0  0  3  0  0  0  0  0  0
  189.9390  176.3300  147.0950 C   0  0  0  0  0  2  0  0  0  0  0  0
  191.5100  177.7020  145.8880 O   0  0  0  0  0  0  0  0  0  0  0  0
  188.3420  178.2200  147.3180 C   0  0  0  0  0  2  0  0  0  0  0  0
  192.2860  175.6150  146.7660 C   0  0  0  0  0  0  0  0  0  0  0  0
  192.2810  174.9430  145.5470 O   0  0  0  0  0  0  0  0  0  0  0  0
  193.0760  175.2500  147.6830 O   0  0  0  0  0  1  0  0  0  0  0  0
  187.4340  177.6590  143.6670 C   0  0  1  0  0  3  0  0  0  0  0  0
  188.3760  175.4870  143.1630 O   0  0  0  0  0  1  0  0  0  0  0  0
  187.2790  176.1350  143.7420 C   0  0  0  0  0  2  0  0  0  0  0  0
  186.5000  178.2830  142.6380 C   0  0  0  0  0  2  0  0  0  0  0  0
  187.2570  178.9340  141.6270 O   0  0  0  0  0  0  0  0  0  0  0  0
  186.7820  178.7060  139.3960 O   0  0  0  0  0  0  0  0  0  0  0  0
  187.4900  178.3580  140.3760 C   0  0  0  0  0  0  0  0  0  0  0  0
  188.5920  177.3720  140.1580 C   0  0  0  0  0  2  0  0  0  0  0  0
  190.6960  176.8190  141.3310 C   0  0  2  0  0  3  0  0  0  0  0  0
  191.6500  177.4230  142.3360 C   0  0  0  0  0  1  0  0  0  0  0  0
  191.0620  177.2950  139.9380 C   0  0  0  0  0  2  0  0  0  0  0  0
  189.9040  177.9340  140.6750 C   0  0  1  0  0  3  0  0  0  0  0  0
  2  6  2  0  0  0  0
  2  3  1  0  0  0  0
  3  5  2  0  0  0  0
  4  1  2  0  0  0  0
  5  1  1  0  0  0  0
  5 30  1  0  0  0  0
  6  4  1  0  0  0  0
  7  2  1  0  0  0  0
  8  7  1  0  0  0  0
  9  8  1  0  0  0  0
 10  9  1  0  0  0  0
 11 12  1  0  0  0  0
 11 10  1  0  0  0  0
 13 12  1  0  0  0  0
 14 15  1  6  0  0  0
 14 13  1  0  0  0  0
 17 25  1  6  0  0  0
 17 27  1  0  0  0  0
 17 14  1  0  0  0  0
 18 26  1  0  0  0  0
 20 16  1  6  0  0  0
 20 17  1  0  0  0  0
 20 19  1  0  0  0  0
 21 18  2  0  0  0  0
 22 21  1  0  0  0  0
 23 27  1  0  0  0  0
 23 26  1  1  0  0  0
 24 22  1  1  0  0  0
 24 23  1  0  0  0  0
 24 20  1  0  0  0  0
 27 28  1  6  0  0  0
 28 29  2  0  0  0  0
 31 30  1  0  0  0  0
 31 32  1  0  0  0  0
 33 32  1  1  0  0  0
 34 39  1  0  0  0  0
 35 41  1  6  0  0  0
 35 38  1  0  0  0  0
 36 34  1  6  0  0  0
 36 38  1  0  0  0  0
 36 40  1  0  0  0  0
 37 33  1  6  0  0  0
 37 36  1  0  0  0  0
 37 40  1  0  0  0  0
 39 35  1  0  0  0  0
 41 43  1  0  0  0  0
 42 41  2  0  0  0  0
 44 47  1  6  0  0  0
 44 46  1  0  0  0  0
 44 33  1  0  0  0  0
 45 46  1  0  0  0  0
 48 47  1  0  0  0  0
 49 50  2  0  0  0  0
 50 48  1  0  0  0  0
 51 50  1  0  0  0  0
 52 53  1  1  0  0  0
 54 55  1  0  0  0  0
 54 52  1  0  0  0  0
 55 51  1  6  0  0  0
 55 52  1  0  0  0  0
M  END
>  <MODEL>
2

>  <REMARK>
 VINA RESULT:      -6.4      2.267      6.515
  Name = 
  23 active torsions:
  status: ('A' for Active; 'I' for Inactive)
    1  A    between atoms: C_1  and  C_53
    2  A    between atoms: C_2  and  C_28
    3  A    between atoms: C_2  and  C_44
    4  A    between atoms: C_6  and  C_20
    5  A    between atoms: O_7  and  C_20
    6  A    between atoms: O_7  and  C_22
    7  A    between atoms: C_8  and  C_22
    8  A    between atoms: C_8  and  C_35
    9  A    between atoms: C_10  and  C_32
   10  A    between atoms: C_16  and  C_17
   11  A    between atoms: C_16  and  O_26
   12  A    between atoms: C_17  and  C_23
   13  A    between atoms: C_17  and  C_33
   14  A    between atoms: C_19  and  C_40
   15  A    between atoms: C_19  and  C_45
   16  A    between atoms: O_26  and  C_45
   17  A    between atoms: C_27  and  C_54
   18  A    between atoms: C_28  and  C_49
   19  A    between atoms: C_33  and  C_36
   20  A    between atoms: C_33  and  C_49
   21  A    between atoms: C_35  and  C_43
   22  A    between atoms: C_43  and  C_51
   23  A    between atoms: C_51  and  C_54
                            x       y       z     vdW  Elec       q    Type
                         _______ _______ _______ _____ _____    ______ ____

>  <TORSDO>
F 23

$$$$
=
 OpenBabel11052414593D

 55 60  0  0  1  0  0  0  0  0999 V2000
  184.4160  178.8580  143.2660 C   0  0  0  0  0  3  0  0  0  0  0  0
  182.0900  178.5990  141.7310 C   0  0  0  0  0  0  0  0  0  0  0  0
  183.3450  178.4020  141.1430 C   0  0  0  0  0  3  0  0  0  0  0  0
  183.1640  179.0490  143.8570 C   0  0  0  0  0  3  0  0  0  0  0  0
  184.5090  178.5330  141.9080 C   0  0  0  0  0  0  0  0  0  0  0  0
  182.0010  178.9150  143.0900 C   0  0  0  0  0  3  0  0  0  0  0  0
  180.8450  178.4580  140.9190 C   0  0  0  0  0  2  0  0  0  0  0  0
  179.8450  177.5230  141.5890 C   0  0  0  0  0  2  0  0  0  0  0  0
  179.2920  176.5080  140.5980 C   0  0  0  0  0  2  0  0  0  0  0  0
  180.3880  175.9840  139.6800 C   0  0  0  0  0  2  0  0  0  0  0  0
  179.8210  175.0170  138.6560 C   0  0  0  0  0  2  0  0  0  0  0  0
  180.9260  174.5430  137.7360 C   0  0  0  0  0  2  0  0  0  0  0  0
  182.1480  175.1010  138.1360 O   0  0  0  0  0  0  0  0  0  0  0  0
  183.1900  174.4480  137.4420 C   0  0  1  0  0  3  0  0  0  0  0  0
  182.8890  173.0040  137.0330 C   0  0  0  0  0  1  0  0  0  0  0  0
  185.7390  174.0570  135.3560 O   0  0  0  0  0  1  0  0  0  0  0  0
  183.9650  175.3270  136.4310 C   0  0  1  0  0  0  0  0  0  0  0  0
  187.2990  178.1850  137.7520 C   0  0  0  0  0  3  0  0  0  0  0  0
  186.0230  174.6510  137.5340 F   0  0  0  0  0  0  0  0  0  0  0  0
  185.4740  175.0350  136.3210 C   0  0  1  0  0  0  0  0  0  0  0  0
  188.0500  177.4400  136.9480 C   0  0  0  0  0  3  0  0  0  0  0  0
  187.4760  176.4490  136.1440 O   0  0  0  0  0  0  0  0  0  0  0  0
  185.2280  177.4540  136.5570 C   0  0  2  0  0  3  0  0  0  0  0  0
  186.0670  176.3610  135.8850 C   0  0  2  0  0  3  0  0  0  0  0  0
  183.3830  175.1660  135.1800 F   0  0  0  0  0  0  0  0  0  0  0  0
  185.8390  177.8980  137.8860 C   0  0  0  0  0  2  0  0  0  0  0  0
  183.8830  176.8030  136.8590 C   0  0  1  0  0  3  0  0  0  0  0  0
  182.7440  177.5490  136.2260 C   0  0  0  0  0  3  0  0  0  0  0  0
  181.8940  178.3940  137.0160 S   0  0  0  0  0  0  0  0  0  0  0  0
  185.8380  178.2850  141.2770 C   0  0  0  0  0  2  0  0  0  0  0  0
  186.8900  177.9530  142.3290 C   0  0  0  0  0  2  0  0  0  0  0  0
  188.1650  178.7530  142.0990 C   0  0  0  0  0  2  0  0  0  0  0  0
  189.3500  178.0940  142.8040 C   0  0  1  0  0  3  0  0  0  0  0  0
  191.2270  178.2020  145.1180 C   0  0  0  0  0  2  0  0  0  0  0  0
  191.2130  176.9500  147.0190 C   0  0  2  0  0  3  0  0  0  0  0  0
  189.9310  177.4460  145.1670 C   0  0  1  0  0  0  0  0  0  0  0  0
  188.8830  177.3740  144.0650 C   0  0  1  0  0  3  0  0  0  0  0  0
  189.9500  176.4980  146.3020 C   0  0  0  0  0  2  0  0  0  0  0  0
  192.0520  177.6650  146.1290 O   0  0  0  0  0  0  0  0  0  0  0  0
  188.7340  178.3710  145.2110 C   0  0  0  0  0  2  0  0  0  0  0  0
  191.9330  175.7780  147.5970 C   0  0  0  0  0  0  0  0  0  0  0  0
  192.9680  175.9900  148.5020 O   0  0  0  0  0  1  0  0  0  0  0  0
  191.5880  174.5990  147.2990 O   0  0  0  0  0  0  0  0  0  0  0  0
  190.1550  177.1510  141.8930 C   0  0  1  0  0  3  0  0  0  0  0  0
  191.5590  175.6020  143.1130 O   0  0  0  0  0  1  0  0  0  0  0  0
  190.3300  175.7360  142.4580 C   0  0  0  0  0  2  0  0  0  0  0  0
  189.6170  177.1390  140.4680 C   0  0  0  0  0  2  0  0  0  0  0  0
  190.6740  177.3780  139.5480 O   0  0  0  0  0  0  0  0  0  0  0  0
  190.6580  175.2760  138.6320 O   0  0  0  0  0  0  0  0  0  0  0  0
  191.2830  176.3520  138.8220 C   0  0  0  0  0  0  0  0  0  0  0  0
  192.6430  176.5130  138.2220 C   0  0  0  0  0  2  0  0  0  0  0  0
  194.1190  175.5680  136.4800 C   0  0  2  0  0  3  0  0  0  0  0  0
  194.0960  174.5150  135.3950 C   0  0  0  0  0  1  0  0  0  0  0  0
  194.5010  174.9250  137.7990 C   0  0  0  0  0  2  0  0  0  0  0  0
  193.0500  175.2390  137.5040 C   0  0  1  0  0  3  0  0  0  0  0  0
  1  4  1  0  0  0  0
  2  6  1  0  0  0  0
  3  2  2  0  0  0  0
  3  5  1  0  0  0  0
  5  1  2  0  0  0  0
  6  4  2  0  0  0  0
  7  8  1  0  0  0  0
  7  2  1  0  0  0  0
  9  8  1  0  0  0  0
 10  9  1  0  0  0  0
 11 10  1  0  0  0  0
 12 13  1  0  0  0  0
 12 11  1  0  0  0  0
 14 15  1  6  0  0  0
 14 13  1  0  0  0  0
 17 25  1  6  0  0  0
 17 27  1  0  0  0  0
 17 14  1  0  0  0  0
 18 26  1  0  0  0  0
 20 16  1  6  0  0  0
 20 17  1  0  0  0  0
 20 19  1  0  0  0  0
 21 18  2  0  0  0  0
 22 21  1  0  0  0  0
 23 27  1  0  0  0  0
 23 26  1  1  0  0  0
 24 22  1  1  0  0  0
 24 20  1  0  0  0  0
 24 23  1  0  0  0  0
 27 28  1  6  0  0  0
 28 29  2  0  0  0  0
 30  5  1  0  0  0  0
 30 31  1  0  0  0  0
 32 31  1  0  0  0  0
 33 32  1  6  0  0  0
 34 39  1  0  0  0  0
 35 41  1  6  0  0  0
 36 34  1  6  0  0  0
 36 40  1  0  0  0  0
 36 38  1  0  0  0  0
 37 33  1  6  0  0  0
 37 36  1  0  0  0  0
 37 40  1  0  0  0  0
 38 35  1  0  0  0  0
 39 35  1  0  0  0  0
 41 42  1  0  0  0  0
 43 41  2  0  0  0  0
 44 47  1  6  0  0  0
 44 46  1  0  0  0  0
 44 33  1  0  0  0  0
 46 45  1  0  0  0  0
 48 47  1  0  0  0  0
 49 50  2  0  0  0  0
 50 48  1  0  0  0  0
 51 50  1  0  0  0  0
 52 53  1  6  0  0  0
 52 55  1  0  0  0  0
 52 54  1  0  0  0  0
 55 54  1  0  0  0  0
 55 51  1  1  0  0  0
M  END
>  <MODEL>
3

>  <REMARK>
 VINA RESULT:      -6.0      2.122      5.869
  Name = 
  23 active torsions:
  status: ('A' for Active; 'I' for Inactive)
    1  A    between atoms: C_1  and  C_53
    2  A    between atoms: C_2  and  C_28
    3  A    between atoms: C_2  and  C_44
    4  A    between atoms: C_6  and  C_20
    5  A    between atoms: O_7  and  C_20
    6  A    between atoms: O_7  and  C_22
    7  A    between atoms: C_8  and  C_22
    8  A    between atoms: C_8  and  C_35
    9  A    between atoms: C_10  and  C_32
   10  A    between atoms: C_16  and  C_17
   11  A    between atoms: C_16  and  O_26
   12  A    between atoms: C_17  and  C_23
   13  A    between atoms: C_17  and  C_33
   14  A    between atoms: C_19  and  C_40
   15  A    between atoms: C_19  and  C_45
   16  A    between atoms: O_26  and  C_45
   17  A    between atoms: C_27  and  C_54
   18  A    between atoms: C_28  and  C_49
   19  A    between atoms: C_33  and  C_36
   20  A    between atoms: C_33  and  C_49
   21  A    between atoms: C_35  and  C_43
   22  A    between atoms: C_43  and  C_51
   23  A    between atoms: C_51  and  C_54
                            x       y       z     vdW  Elec       q    Type
                         _______ _______ _______ _____ _____    ______ ____

>  <TORSDO>
F 23

$$$$
=
 OpenBabel11052414593D

 55 60  0  0  1  0  0  0  0  0999 V2000
  184.7560  178.6580  142.9580 C   0  0  0  0  0  3  0  0  0  0  0  0
  182.1670  178.9310  141.9300 C   0  0  0  0  0  0  0  0  0  0  0  0
  183.2670  178.8910  141.0640 C   0  0  0  0  0  3  0  0  0  0  0  0
  183.6600  178.6930  143.8240 C   0  0  0  0  0  3  0  0  0  0  0  0
  184.5610  178.7560  141.5760 C   0  0  0  0  0  0  0  0  0  0  0  0
  182.3650  178.8240  143.3100 C   0  0  0  0  0  3  0  0  0  0  0  0
  180.7840  179.0730  141.3870 C   0  0  0  0  0  2  0  0  0  0  0  0
  179.8540  178.0010  141.9470 C   0  0  0  0  0  2  0  0  0  0  0  0
  178.9820  177.4020  140.8520 C   0  0  0  0  0  2  0  0  0  0  0  0
  179.7640  176.3960  140.0180 C   0  0  0  0  0  2  0  0  0  0  0  0
  179.4670  174.9760  140.4640 C   0  0  0  0  0  2  0  0  0  0  0  0
  179.8560  174.0050  139.3690 C   0  0  0  0  0  2  0  0  0  0  0  0
  180.8320  174.5860  138.5460 O   0  0  0  0  0  0  0  0  0  0  0  0
  181.1470  173.6770  137.5110 C   0  0  1  0  0  3  0  0  0  0  0  0
  179.9990  172.7560  137.0890 C   0  0  0  0  0  1  0  0  0  0  0  0
  183.7340  172.5980  135.7400 O   0  0  0  0  0  1  0  0  0  0  0  0
  182.0600  174.2360  136.3940 C   0  0  1  0  0  0  0  0  0  0  0  0
  185.6190  176.9800  137.3080 C   0  0  0  0  0  3  0  0  0  0  0  0
  183.9780  173.6220  137.7560 F   0  0  0  0  0  0  0  0  0  0  0  0
  183.5320  173.7830  136.4540 C   0  0  1  0  0  0  0  0  0  0  0  0
  186.3220  176.0080  136.7360 C   0  0  0  0  0  3  0  0  0  0  0  0
  185.6820  174.9250  136.1220 O   0  0  0  0  0  0  0  0  0  0  0  0
  183.5400  176.2080  136.1540 C   0  0  2  0  0  3  0  0  0  0  0  0
  184.2850  174.9190  135.7900 C   0  0  2  0  0  3  0  0  0  0  0  0
  181.5240  173.8620  135.1680 F   0  0  0  0  0  0  0  0  0  0  0  0
  184.1310  176.8700  137.3980 C   0  0  0  0  0  2  0  0  0  0  0  0
  182.1190  175.7700  136.4920 C   0  0  1  0  0  3  0  0  0  0  0  0
  181.0990  176.4660  135.6380 C   0  0  0  0  0  3  0  0  0  0  0  0
  179.7030  176.1590  135.7690 S   0  0  0  0  0  0  0  0  0  0  0  0
  185.7210  178.6780  140.6390 C   0  0  0  0  0  2  0  0  0  0  0  0
  186.9830  178.2350  141.3680 C   0  0  0  0  0  2  0  0  0  0  0  0
  188.2320  178.7350  140.6540 C   0  0  0  0  0  2  0  0  0  0  0  0
  189.1990  177.5830  140.3850 C   0  0  1  0  0  3  0  0  0  0  0  0
  189.5240  175.4660  138.3110 C   0  0  0  0  0  2  0  0  0  0  0  0
  191.0970  175.3120  136.6720 C   0  0  2  0  0  3  0  0  0  0  0  0
  190.2650  176.7700  138.2520 C   0  0  1  0  0  0  0  0  0  0  0  0
  190.1290  177.9320  139.2270 C   0  0  1  0  0  3  0  0  0  0  0  0
  191.4020  176.6560  137.3130 C   0  0  0  0  0  2  0  0  0  0  0  0
  190.2410  174.5530  137.5080 O   0  0  0  0  0  0  0  0  0  0  0  0
  189.3530  177.9290  137.9130 C   0  0  0  0  0  2  0  0  0  0  0  0
  192.3600  174.5670  136.3940 C   0  0  0  0  0  0  0  0  0  0  0  0
  193.5400  174.9670  137.0140 O   0  0  0  0  0  1  0  0  0  0  0  0
  192.3600  173.5600  135.6300 O   0  0  0  0  0  0  0  0  0  0  0  0
  189.9970  177.1520  141.6270 C   0  0  1  0  0  3  0  0  0  0  0  0
  192.1740  176.9770  142.6690 O   0  0  0  0  0  1  0  0  0  0  0  0
  191.5010  177.4310  141.5290 C   0  0  0  0  0  2  0  0  0  0  0  0
  189.3910  177.7000  142.9120 C   0  0  0  0  0  2  0  0  0  0  0  0
  189.4930  176.7330  143.9480 O   0  0  0  0  0  0  0  0  0  0  0  0
  190.6620  176.4880  145.9050 O   0  0  0  0  0  0  0  0  0  0  0  0
  189.7460  177.0810  145.2770 C   0  0  0  0  0  0  0  0  0  0  0  0
  188.9900  178.1730  145.9620 C   0  0  0  0  0  2  0  0  0  0  0  0
  186.5480  178.5340  146.0740 C   0  0  2  0  0  3  0  0  0  0  0  0
  185.4050  178.3970  147.0530 C   0  0  0  0  0  1  0  0  0  0  0  0
  186.7820  177.2040  145.3820 C   0  0  0  0  0  2  0  0  0  0  0  0
  187.6850  177.6340  146.5180 C   0  0  1  0  0  3  0  0  0  0  0  0
  1  4  1  0  0  0  0
  2  6  1  0  0  0  0
  3  5  1  0  0  0  0
  3  2  2  0  0  0  0
  5  1  2  0  0  0  0
  6  4  2  0  0  0  0
  7  2  1  0  0  0  0
  7  8  1  0  0  0  0
  9  8  1  0  0  0  0
 10 11  1  0  0  0  0
 10  9  1  0  0  0  0
 12 11  1  0  0  0  0
 13 12  1  0  0  0  0
 14 15  1  6  0  0  0
 14 13  1  0  0  0  0
 17 25  1  6  0  0  0
 17 20  1  0  0  0  0
 17 27  1  0  0  0  0
 17 14  1  0  0  0  0
 18 26  1  0  0  0  0
 20 16  1  6  0  0  0
 20 19  1  0  0  0  0
 21 18  2  0  0  0  0
 22 21  1  0  0  0  0
 23 27  1  0  0  0  0
 23 26  1  1  0  0  0
 24 22  1  1  0  0  0
 24 23  1  0  0  0  0
 24 20  1  0  0  0  0
 27 28  1  6  0  0  0
 28 29  2  0  0  0  0
 30 31  1  0  0  0  0
 30  5  1  0  0  0  0
 32 31  1  0  0  0  0
 33 32  1  1  0  0  0
 33 44  1  0  0  0  0
 35 41  1  1  0  0  0
 35 38  1  0  0  0  0
 35 39  1  0  0  0  0
 36 38  1  6  0  0  0
 36 34  1  0  0  0  0
 36 37  1  0  0  0  0
 37 33  1  1  0  0  0
 39 34  1  0  0  0  0
 40 36  1  0  0  0  0
 40 37  1  0  0  0  0
 41 42  1  0  0  0  0
 43 41  2  0  0  0  0
 44 46  1  6  0  0  0
 44 47  1  0  0  0  0
 46 45  1  0  0  0  0
 47 48  1  0  0  0  0
 48 50  1  0  0  0  0
 50 49  2  0  0  0  0
 50 51  1  0  0  0  0
 52 55  1  0  0  0  0
 52 53  1  1  0  0  0
 54 52  1  0  0  0  0
 54 55  1  0  0  0  0
 55 51  1  6  0  0  0
M  END
>  <MODEL>
4

>  <REMARK>
 VINA RESULT:      -5.9      1.694      2.362
  Name = 
  23 active torsions:
  status: ('A' for Active; 'I' for Inactive)
    1  A    between atoms: C_1  and  C_53
    2  A    between atoms: C_2  and  C_28
    3  A    between atoms: C_2  and  C_44
    4  A    between atoms: C_6  and  C_20
    5  A    between atoms: O_7  and  C_20
    6  A    between atoms: O_7  and  C_22
    7  A    between atoms: C_8  and  C_22
    8  A    between atoms: C_8  and  C_35
    9  A    between atoms: C_10  and  C_32
   10  A    between atoms: C_16  and  C_17
   11  A    between atoms: C_16  and  O_26
   12  A    between atoms: C_17  and  C_23
   13  A    between atoms: C_17  and  C_33
   14  A    between atoms: C_19  and  C_40
   15  A    between atoms: C_19  and  C_45
   16  A    between atoms: O_26  and  C_45
   17  A    between atoms: C_27  and  C_54
   18  A    between atoms: C_28  and  C_49
   19  A    between atoms: C_33  and  C_36
   20  A    between atoms: C_33  and  C_49
   21  A    between atoms: C_35  and  C_43
   22  A    between atoms: C_43  and  C_51
   23  A    between atoms: C_51  and  C_54
                            x       y       z     vdW  Elec       q    Type
                         _______ _______ _______ _____ _____    ______ ____

>  <TORSDO>
F 23

$$$$
=
 OpenBabel11052414593D

 55 60  0  0  1  0  0  0  0  0999 V2000
  185.0190  178.6540  143.5760 C   0  0  0  0  0  3  0  0  0  0  0  0
  182.2880  179.1690  143.2420 C   0  0  0  0  0  0  0  0  0  0  0  0
  183.1380  179.1300  142.1290 C   0  0  0  0  0  3  0  0  0  0  0  0
  184.1730  178.6860  144.6880 C   0  0  0  0  0  3  0  0  0  0  0  0
  184.5030  178.8740  142.2940 C   0  0  0  0  0  0  0  0  0  0  0  0
  182.8070  178.9390  144.5200 C   0  0  0  0  0  3  0  0  0  0  0  0
  180.8300  179.4390  143.0700 C   0  0  0  0  0  2  0  0  0  0  0  0
  180.0330  178.1430  142.9660 C   0  0  0  0  0  2  0  0  0  0  0  0
  179.3470  178.0270  141.6110 C   0  0  0  0  0  2  0  0  0  0  0  0
  180.0330  176.9870  140.7360 C   0  0  0  0  0  2  0  0  0  0  0  0
  179.3740  175.6290  140.8920 C   0  0  0  0  0  2  0  0  0  0  0  0
  179.6050  174.8040  139.6430 C   0  0  0  0  0  2  0  0  0  0  0  0
  180.7680  175.2420  138.9940 O   0  0  0  0  0  0  0  0  0  0  0  0
  181.0810  174.3280  137.9640 C   0  0  1  0  0  3  0  0  0  0  0  0
  179.9450  173.3760  137.5780 C   0  0  0  0  0  1  0  0  0  0  0  0
  183.6390  173.2770  136.1350 O   0  0  0  0  0  1  0  0  0  0  0  0
  181.9560  174.8920  136.8200 C   0  0  1  0  0  0  0  0  0  0  0  0
  185.4910  177.7010  137.6230 C   0  0  0  0  0  3  0  0  0  0  0  0
  183.9170  174.3210  138.1370 F   0  0  0  0  0  0  0  0  0  0  0  0
  183.4360  174.4640  136.8460 C   0  0  1  0  0  0  0  0  0  0  0  0
  186.1950  176.7370  137.0400 C   0  0  0  0  0  3  0  0  0  0  0  0
  185.5580  175.6390  136.4500 O   0  0  0  0  0  0  0  0  0  0  0  0
  183.3960  176.8870  136.5270 C   0  0  2  0  0  3  0  0  0  0  0  0
  184.1540  175.6070  136.1540 C   0  0  2  0  0  3  0  0  0  0  0  0
  181.3960  174.5010  135.6100 F   0  0  0  0  0  0  0  0  0  0  0  0
  184.0080  177.5680  137.7510 C   0  0  0  0  0  2  0  0  0  0  0  0
  181.9920  176.4280  136.9050 C   0  0  1  0  0  3  0  0  0  0  0  0
  180.9390  177.1010  136.0710 C   0  0  0  0  0  3  0  0  0  0  0  0
  181.2930  178.1350  135.1410 S   0  0  0  0  0  0  0  0  0  0  0  0
  185.3900  178.8000  141.0960 C   0  0  0  0  0  2  0  0  0  0  0  0
  186.8580  178.8700  141.4970 C   0  0  0  0  0  2  0  0  0  0  0  0
  187.5560  177.5400  141.2530 C   0  0  0  0  0  2  0  0  0  0  0  0
  189.0580  177.6620  141.5110 C   0  0  1  0  0  3  0  0  0  0  0  0
  188.8840  178.0880  144.4570 C   0  0  0  0  0  2  0  0  0  0  0  0
  189.8670  176.8910  146.1250 C   0  0  2  0  0  3  0  0  0  0  0  0
  189.4590  176.8380  143.8560 C   0  0  1  0  0  0  0  0  0  0  0  0
  189.5440  176.5020  142.3730 C   0  0  1  0  0  3  0  0  0  0  0  0
  190.2470  176.1120  144.8760 C   0  0  0  0  0  2  0  0  0  0  0  0
  189.3840  178.1760  145.7740 O   0  0  0  0  0  0  0  0  0  0  0  0
  188.3950  175.9660  143.2250 C   0  0  0  0  0  2  0  0  0  0  0  0
  191.0340  177.0000  147.0480 C   0  0  0  0  0  0  0  0  0  0  0  0
  192.2470  176.4200  146.6890 O   0  0  0  0  0  0  0  0  0  0  0  0
  190.9400  177.6420  148.1330 O   0  0  0  0  0  1  0  0  0  0  0  0
  189.8910  177.7830  140.2230 C   0  0  1  0  0  3  0  0  0  0  0  0
  192.0250  177.8930  141.3590 O   0  0  0  0  0  1  0  0  0  0  0  0
  191.3160  177.2330  140.3490 C   0  0  0  0  0  2  0  0  0  0  0  0
  189.1580  177.2130  139.0150 C   0  0  0  0  0  2  0  0  0  0  0  0
  189.8410  177.5700  137.8210 O   0  0  0  0  0  0  0  0  0  0  0  0
  191.6320  176.4740  136.9020 O   0  0  0  0  0  0  0  0  0  0  0  0
  190.3830  176.6190  136.9540 C   0  0  0  0  0  0  0  0  0  0  0  0
  189.5170  175.7320  136.1170 C   0  0  0  0  0  2  0  0  0  0  0  0
  188.3440  173.5610  135.9920 C   0  0  2  0  0  3  0  0  0  0  0  0
  187.5580  172.6210  136.8780 C   0  0  0  0  0  1  0  0  0  0  0  0
  189.8250  173.2710  136.1360 C   0  0  0  0  0  2  0  0  0  0  0  0
  189.2110  174.4470  136.8650 C   0  0  1  0  0  3  0  0  0  0  0  0
  1  4  1  0  0  0  0
  2  6  1  0  0  0  0
  3  5  1  0  0  0  0
  3  2  2  0  0  0  0
  5  1  2  0  0  0  0
  6  4  2  0  0  0  0
  7  2  1  0  0  0  0
  8  7  1  0  0  0  0
  9  8  1  0  0  0  0
 10 11  1  0  0  0  0
 10  9  1  0  0  0  0
 12 11  1  0  0  0  0
 13 12  1  0  0  0  0
 14 15  1  6  0  0  0
 14 13  1  0  0  0  0
 17 25  1  6  0  0  0
 17 20  1  0  0  0  0
 17 27  1  0  0  0  0
 17 14  1  0  0  0  0
 18 26  1  0  0  0  0
 20 16  1  6  0  0  0
 20 19  1  0  0  0  0
 21 18  2  0  0  0  0
 22 21  1  0  0  0  0
 23 27  1  0  0  0  0
 23 26  1  1  0  0  0
 24 22  1  1  0  0  0
 24 23  1  0  0  0  0
 24 20  1  0  0  0  0
 27 28  1  6  0  0  0
 29 28  2  0  0  0  0
 30 31  1  0  0  0  0
 30  5  1  0  0  0  0
 32 31  1  0  0  0  0
 33 32  1  6  0  0  0
 34 39  1  0  0  0  0
 35 41  1  1  0  0  0
 36 40  1  1  0  0  0
 36 34  1  0  0  0  0
 36 38  1  0  0  0  0
 37 33  1  6  0  0  0
 37 40  1  0  0  0  0
 37 36  1  0  0  0  0
 38 35  1  0  0  0  0
 39 35  1  0  0  0  0
 41 43  1  0  0  0  0
 42 41  2  0  0  0  0
 44 47  1  6  0  0  0
 44 46  1  0  0  0  0
 44 33  1  0  0  0  0
 46 45  1  0  0  0  0
 48 47  1  0  0  0  0
 49 50  2  0  0  0  0
 50 48  1  0  0  0  0
 51 50  1  0  0  0  0
 52 54  1  0  0  0  0
 52 55  1  0  0  0  0
 52 53  1  1  0  0  0
 54 55  1  0  0  0  0
 55 51  1  6  0  0  0
M  END
>  <MODEL>
5

>  <REMARK>
 VINA RESULT:      -5.9      1.656      5.572
  Name = 
  23 active torsions:
  status: ('A' for Active; 'I' for Inactive)
    1  A    between atoms: C_1  and  C_53
    2  A    between atoms: C_2  and  C_28
    3  A    between atoms: C_2  and  C_44
    4  A    between atoms: C_6  and  C_20
    5  A    between atoms: O_7  and  C_20
    6  A    between atoms: O_7  and  C_22
    7  A    between atoms: C_8  and  C_22
    8  A    between atoms: C_8  and  C_35
    9  A    between atoms: C_10  and  C_32
   10  A    between atoms: C_16  and  C_17
   11  A    between atoms: C_16  and  O_26
   12  A    between atoms: C_17  and  C_23
   13  A    between atoms: C_17  and  C_33
   14  A    between atoms: C_19  and  C_40
   15  A    between atoms: C_19  and  C_45
   16  A    between atoms: O_26  and  C_45
   17  A    between atoms: C_27  and  C_54
   18  A    between atoms: C_28  and  C_49
   19  A    between atoms: C_33  and  C_36
   20  A    between atoms: C_33  and  C_49
   21  A    between atoms: C_35  and  C_43
   22  A    between atoms: C_43  and  C_51
   23  A    between atoms: C_51  and  C_54
                            x       y       z     vdW  Elec       q    Type
                         _______ _______ _______ _____ _____    ______ ____

>  <TORSDO>
F 23

$$$$
=
 OpenBabel11052414593D

 55 60  0  0  1  0  0  0  0  0999 V2000
  184.5500  178.9350  143.0650 C   0  0  0  0  0  3  0  0  0  0  0  0
  181.9220  178.8480  142.1060 C   0  0  0  0  0  0  0  0  0  0  0  0
  182.9990  178.7910  141.2120 C   0  0  0  0  0  3  0  0  0  0  0  0
  183.4780  178.9870  143.9590 C   0  0  0  0  0  3  0  0  0  0  0  0
  184.3130  178.8350  141.6890 C   0  0  0  0  0  0  0  0  0  0  0  0
  182.1650  178.9380  143.4800 C   0  0  0  0  0  3  0  0  0  0  0  0
  180.5180  178.7980  141.6010 C   0  0  0  0  0  2  0  0  0  0  0  0
  180.0870  180.1400  141.0210 C   0  0  0  0  0  2  0  0  0  0  0  0
  178.9310  179.9720  140.0450 C   0  0  0  0  0  2  0  0  0  0  0  0
  179.3980  179.3230  138.7480 C   0  0  0  0  0  2  0  0  0  0  0  0
  180.5300  180.1190  138.1230 C   0  0  0  0  0  2  0  0  0  0  0  0
  180.7530  179.6540  136.6990 C   0  0  0  0  0  2  0  0  0  0  0  0
  181.7910  178.7120  136.6650 O   0  0  0  0  0  0  0  0  0  0  0  0
  181.2300  177.4320  136.4550 C   0  0  1  0  0  3  0  0  0  0  0  0
  181.0970  177.0180  134.9870 C   0  0  0  0  0  1  0  0  0  0  0  0
  183.8810  176.8170  138.3510 O   0  0  0  0  0  1  0  0  0  0  0  0
  181.6660  176.3440  137.4650 C   0  0  1  0  0  0  0  0  0  0  0  0
  183.4510  172.3440  136.1100 C   0  0  0  0  0  3  0  0  0  0  0  0
  183.7250  176.0960  136.1980 F   0  0  0  0  0  0  0  0  0  0  0  0
  183.1690  176.0030  137.4640 C   0  0  1  0  0  0  0  0  0  0  0  0
  184.5010  172.7440  136.8190 C   0  0  0  0  0  3  0  0  0  0  0  0
  184.4410  173.9050  137.5980 O   0  0  0  0  0  0  0  0  0  0  0  0
  181.9530  173.8850  137.3870 C   0  0  2  0  0  3  0  0  0  0  0  0
  183.2120  174.5640  137.9390 C   0  0  2  0  0  3  0  0  0  0  0  0
  181.3010  176.7630  138.7390 F   0  0  0  0  0  0  0  0  0  0  0  0
  182.2230  173.1940  136.0510 C   0  0  0  0  0  2  0  0  0  0  0  0
  180.9630  175.0170  137.1310 C   0  0  1  0  0  3  0  0  0  0  0  0
  179.6760  174.8150  137.8770 C   0  0  0  0  0  3  0  0  0  0  0  0
  179.6550  174.0970  139.1200 S   0  0  0  0  0  0  0  0  0  0  0  0
  185.4500  178.7370  140.7280 C   0  0  0  0  0  2  0  0  0  0  0  0
  186.7840  178.9300  141.4380 C   0  0  0  0  0  2  0  0  0  0  0  0
  187.4760  177.5940  141.6750 C   0  0  0  0  0  2  0  0  0  0  0  0
  188.7260  177.7790  142.5360 C   0  0  1  0  0  3  0  0  0  0  0  0
  187.3390  178.5850  145.0490 C   0  0  0  0  0  2  0  0  0  0  0  0
  187.4700  177.6330  147.1120 C   0  0  2  0  0  3  0  0  0  0  0  0
  188.0610  177.2760  144.9120 C   0  0  1  0  0  0  0  0  0  0  0  0
  188.7510  176.7500  143.6610 C   0  0  1  0  0  3  0  0  0  0  0  0
  188.3110  176.7030  146.2520 C   0  0  0  0  0  2  0  0  0  0  0  0
  187.2360  178.8530  146.4310 O   0  0  0  0  0  0  0  0  0  0  0  0
  187.3290  176.3130  144.0030 C   0  0  0  0  0  2  0  0  0  0  0  0
  188.1390  177.8810  148.4230 C   0  0  0  0  0  0  0  0  0  0  0  0
  189.2880  178.6650  148.4670 O   0  0  0  0  0  0  0  0  0  0  0  0
  187.6540  177.4130  149.4920 O   0  0  0  0  0  1  0  0  0  0  0  0
  190.0340  177.7490  141.7280 C   0  0  1  0  0  3  0  0  0  0  0  0
  192.0400  177.9540  143.0670 O   0  0  0  0  0  1  0  0  0  0  0  0
  191.1910  177.0360  142.4390 C   0  0  0  0  0  2  0  0  0  0  0  0
  189.8180  177.2260  140.3130 C   0  0  0  0  0  2  0  0  0  0  0  0
  189.9120  178.2950  139.3810 O   0  0  0  0  0  0  0  0  0  0  0  0
  188.9950  179.5830  137.7210 O   0  0  0  0  0  0  0  0  0  0  0  0
  188.9370  178.5300  138.4090 C   0  0  0  0  0  0  0  0  0  0  0  0
  187.8500  177.5430  138.1300 C   0  0  0  0  0  2  0  0  0  0  0  0
  186.9350  175.9340  136.4930 C   0  0  2  0  0  3  0  0  0  0  0  0
  187.4100  174.9970  135.4060 C   0  0  0  0  0  1  0  0  0  0  0  0
  186.7520  177.3250  135.9170 C   0  0  0  0  0  2  0  0  0  0  0  0
  187.9920  176.9970  136.7210 C   0  0  1  0  0  3  0  0  0  0  0  0
  1  4  1  0  0  0  0
  2  6  1  0  0  0  0
  3  5  1  0  0  0  0
  3  2  2  0  0  0  0
  5  1  2  0  0  0  0
  6  4  2  0  0  0  0
  7  2  1  0  0  0  0
  8  7  1  0  0  0  0
  9  8  1  0  0  0  0
 10  9  1  0  0  0  0
 11 10  1  0  0  0  0
 12 11  1  0  0  0  0
 13 12  1  0  0  0  0
 14 15  1  6  0  0  0
 14 13  1  0  0  0  0
 14 17  1  0  0  0  0
 17 25  1  1  0  0  0
 18 21  2  0  0  0  0
 20 19  1  6  0  0  0
 20 17  1  0  0  0  0
 20 24  1  0  0  0  0
 20 16  1  0  0  0  0
 21 22  1  0  0  0  0
 23 26  1  6  0  0  0
 23 24  1  0  0  0  0
 24 22  1  6  0  0  0
 26 18  1  0  0  0  0
 27 23  1  0  0  0  0
 27 17  1  0  0  0  0
 27 28  1  1  0  0  0
 28 29  2  0  0  0  0
 30 31  1  0  0  0  0
 30  5  1  0  0  0  0
 31 32  1  0  0  0  0
 33 32  1  6  0  0  0
 34 39  1  0  0  0  0
 35 41  1  1  0  0  0
 36 40  1  6  0  0  0
 36 34  1  0  0  0  0
 36 38  1  0  0  0  0
 37 33  1  6  0  0  0
 37 40  1  0  0  0  0
 37 36  1  0  0  0  0
 38 35  1  0  0  0  0
 39 35  1  0  0  0  0
 41 42  2  0  0  0  0
 41 43  1  0  0  0  0
 44 47  1  6  0  0  0
 44 46  1  0  0  0  0
 44 33  1  0  0  0  0
 46 45  1  0  0  0  0
 48 47  1  0  0  0  0
 49 50  2  0  0  0  0
 50 48  1  0  0  0  0
 51 50  1  0  0  0  0
 52 53  1  6  0  0  0
 52 55  1  0  0  0  0
 54 52  1  0  0  0  0
 54 55  1  0  0  0  0
 55 51  1  1  0  0  0
M  END
>  <MODEL>
6

>  <REMARK>
 VINA RESULT:      -5.9      2.286      6.272
  Name = 
  23 active torsions:
  status: ('A' for Active; 'I' for Inactive)
    1  A    between atoms: C_1  and  C_53
    2  A    between atoms: C_2  and  C_28
    3  A    between atoms: C_2  and  C_44
    4  A    between atoms: C_6  and  C_20
    5  A    between atoms: O_7  and  C_20
    6  A    between atoms: O_7  and  C_22
    7  A    between atoms: C_8  and  C_22
    8  A    between atoms: C_8  and  C_35
    9  A    between atoms: C_10  and  C_32
   10  A    between atoms: C_16  and  C_17
   11  A    between atoms: C_16  and  O_26
   12  A    between atoms: C_17  and  C_23
   13  A    between atoms: C_17  and  C_33
   14  A    between atoms: C_19  and  C_40
   15  A    between atoms: C_19  and  C_45
   16  A    between atoms: O_26  and  C_45
   17  A    between atoms: C_27  and  C_54
   18  A    between atoms: C_28  and  C_49
   19  A    between atoms: C_33  and  C_36
   20  A    between atoms: C_33  and  C_49
   21  A    between atoms: C_35  and  C_43
   22  A    between atoms: C_43  and  C_51
   23  A    between atoms: C_51  and  C_54
                            x       y       z     vdW  Elec       q    Type
                         _______ _______ _______ _____ _____    ______ ____

>  <TORSDO>
F 23

$$$$
=
 OpenBabel11052414593D

 55 60  0  0  1  0  0  0  0  0999 V2000
  191.4530  176.8360  142.5740 C   0  0  0  0  0  3  0  0  0  0  0  0
  190.5690  177.2440  139.9500 C   0  0  0  0  0  0  0  0  0  0  0  0
  189.6950  176.7230  140.9130 C   0  0  0  0  0  3  0  0  0  0  0  0
  192.3250  177.3610  141.6160 C   0  0  0  0  0  3  0  0  0  0  0  0
  190.1350  176.5170  142.2240 C   0  0  0  0  0  0  0  0  0  0  0  0
  191.8810  177.5690  140.3060 C   0  0  0  0  0  3  0  0  0  0  0  0
  190.1030  177.4680  138.5490 C   0  0  0  0  0  2  0  0  0  0  0  0
  188.6240  177.8380  138.5080 C   0  0  0  0  0  2  0  0  0  0  0  0
  187.8050  176.7570  137.8150 C   0  0  0  0  0  2  0  0  0  0  0  0
  188.6600  175.9670  136.8330 C   0  0  0  0  0  2  0  0  0  0  0  0
  187.7910  175.1450  135.8980 C   0  0  0  0  0  2  0  0  0  0  0  0
  186.5380  174.7020  136.6240 C   0  0  0  0  0  2  0  0  0  0  0  0
  185.4070  175.0460  135.8700 O   0  0  0  0  0  0  0  0  0  0  0  0
  184.2950  174.3370  136.3760 C   0  0  1  0  0  3  0  0  0  0  0  0
  184.5920  173.4500  137.5880 C   0  0  0  0  0  1  0  0  0  0  0  0
  183.2820  177.4030  135.6220 O   0  0  0  0  0  1  0  0  0  0  0  0
  182.9570  175.1140  136.3730 C   0  0  1  0  0  0  0  0  0  0  0  0
  181.2240  176.9870  140.1830 C   0  0  0  0  0  3  0  0  0  0  0  0
  184.0420  176.8430  137.6920 F   0  0  0  0  0  0  0  0  0  0  0  0
  183.0560  176.6050  136.7480 C   0  0  1  0  0  0  0  0  0  0  0  0
  181.3310  178.1190  139.4950 C   0  0  0  0  0  3  0  0  0  0  0  0
  181.7020  178.1060  138.1450 O   0  0  0  0  0  0  0  0  0  0  0  0
  181.2330  175.6540  138.0680 C   0  0  2  0  0  3  0  0  0  0  0  0
  181.6940  176.9200  137.3360 C   0  0  2  0  0  3  0  0  0  0  0  0
  182.3940  175.0040  135.1070 F   0  0  0  0  0  0  0  0  0  0  0  0
  181.6080  175.6890  139.5490 C   0  0  0  0  0  2  0  0  0  0  0  0
  182.0050  174.5100  137.4210 C   0  0  1  0  0  3  0  0  0  0  0  0
  181.0890  173.4580  136.8640 C   0  0  0  0  0  3  0  0  0  0  0  0
  181.4090  172.0650  136.9950 S   0  0  0  0  0  0  0  0  0  0  0  0
  189.1830  175.9950  143.2480 C   0  0  0  0  0  2  0  0  0  0  0  0
  187.8630  176.7550  143.2050 C   0  0  0  0  0  2  0  0  0  0  0  0
  187.9800  178.0960  143.9160 C   0  0  0  0  0  2  0  0  0  0  0  0
  186.6010  178.6040  144.3390 C   0  0  1  0  0  3  0  0  0  0  0  0
  184.1510  180.1320  143.5960 C   0  0  0  0  0  2  0  0  0  0  0  0
  182.1100  179.3330  142.9800 C   0  0  2  0  0  3  0  0  0  0  0  0
  184.2820  178.6550  143.3580 C   0  0  1  0  0  0  0  0  0  0  0  0
  185.5050  177.7970  143.6510 C   0  0  1  0  0  3  0  0  0  0  0  0
  182.9460  178.0690  143.1150 C   0  0  0  0  0  2  0  0  0  0  0  0
  182.7700  180.4250  143.5950 O   0  0  0  0  0  0  0  0  0  0  0  0
  185.2580  178.3410  142.2460 C   0  0  0  0  0  2  0  0  0  0  0  0
  180.7570  179.1300  143.5760 C   0  0  0  0  0  0  0  0  0  0  0  0
  180.4670  177.9320  144.2220 O   0  0  0  0  0  1  0  0  0  0  0  0
  179.8880  180.0470  143.5280 O   0  0  0  0  0  0  0  0  0  0  0  0
  186.3990  178.6270  145.8630 C   0  0  1  0  0  3  0  0  0  0  0  0
  184.1860  178.4190  146.8210 O   0  0  0  0  0  1  0  0  0  0  0  0
  185.1150  179.3330  146.3120 C   0  0  0  0  0  2  0  0  0  0  0  0
  186.5390  177.2400  146.4770 C   0  0  0  0  0  2  0  0  0  0  0  0
  187.2690  177.3180  147.6930 O   0  0  0  0  0  0  0  0  0  0  0  0
  189.1450  178.3760  148.4780 O   0  0  0  0  0  0  0  0  0  0  0  0
  188.6550  177.4940  147.7260 C   0  0  0  0  0  0  0  0  0  0  0  0
  189.5770  176.6310  146.9270 C   0  0  0  0  0  2  0  0  0  0  0  0
  191.7580  175.5430  147.3330 C   0  0  2  0  0  3  0  0  0  0  0  0
  192.9270  175.6230  148.2870 C   0  0  0  0  0  1  0  0  0  0  0  0
  191.9510  176.5470  146.2130 C   0  0  0  0  0  2  0  0  0  0  0  0
  191.0130  176.8630  147.3590 C   0  0  1  0  0  3  0  0  0  0  0  0
  2  6  2  0  0  0  0
  2  3  1  0  0  0  0
  3  5  2  0  0  0  0
  4  1  2  0  0  0  0
  5  1  1  0  0  0  0
  5 30  1  0  0  0  0
  6  4  1  0  0  0  0
  7  2  1  0  0  0  0
  8  7  1  0  0  0  0
  9  8  1  0  0  0  0
 10  9  1  0  0  0  0
 11 12  1  0  0  0  0
 11 10  1  0  0  0  0
 13 14  1  0  0  0  0
 13 12  1  0  0  0  0
 14 15  1  1  0  0  0
 17 25  1  6  0  0  0
 17 14  1  0  0  0  0
 17 20  1  0  0  0  0
 17 27  1  0  0  0  0
 20 16  1  6  0  0  0
 20 24  1  0  0  0  0
 20 19  1  0  0  0  0
 21 18  2  0  0  0  0
 22 21  1  0  0  0  0
 23 26  1  1  0  0  0
 24 23  1  0  0  0  0
 24 22  1  1  0  0  0
 26 18  1  0  0  0  0
 27 28  1  6  0  0  0
 27 23  1  0  0  0  0
 28 29  2  0  0  0  0
 31 30  1  0  0  0  0
 31 32  1  0  0  0  0
 33 32  1  1  0  0  0
 33 44  1  0  0  0  0
 35 38  1  0  0  0  0
 35 41  1  1  0  0  0
 35 39  1  0  0  0  0
 36 40  1  6  0  0  0
 36 34  1  0  0  0  0
 36 37  1  0  0  0  0
 37 33  1  1  0  0  0
 38 36  1  0  0  0  0
 39 34  1  0  0  0  0
 40 37  1  0  0  0  0
 41 42  1  0  0  0  0
 43 41  2  0  0  0  0
 44 46  1  6  0  0  0
 44 47  1  0  0  0  0
 46 45  1  0  0  0  0
 47 48  1  0  0  0  0
 48 50  1  0  0  0  0
 50 49  2  0  0  0  0
 51 50  1  0  0  0  0
 52 55  1  0  0  0  0
 52 53  1  1  0  0  0
 54 52  1  0  0  0  0
 54 55  1  0  0  0  0
 55 51  1  6  0  0  0
M  END
>  <MODEL>
7

>  <REMARK>
 VINA RESULT:      -5.8      2.540      6.486
  Name = 
  23 active torsions:
  status: ('A' for Active; 'I' for Inactive)
    1  A    between atoms: C_1  and  C_53
    2  A    between atoms: C_2  and  C_28
    3  A    between atoms: C_2  and  C_44
    4  A    between atoms: C_6  and  C_20
    5  A    between atoms: O_7  and  C_20
    6  A    between atoms: O_7  and  C_22
    7  A    between atoms: C_8  and  C_22
    8  A    between atoms: C_8  and  C_35
    9  A    between atoms: C_10  and  C_32
   10  A    between atoms: C_16  and  C_17
   11  A    between atoms: C_16  and  O_26
   12  A    between atoms: C_17  and  C_23
   13  A    between atoms: C_17  and  C_33
   14  A    between atoms: C_19  and  C_40
   15  A    between atoms: C_19  and  C_45
   16  A    between atoms: O_26  and  C_45
   17  A    between atoms: C_27  and  C_54
   18  A    between atoms: C_28  and  C_49
   19  A    between atoms: C_33  and  C_36
   20  A    between atoms: C_33  and  C_49
   21  A    between atoms: C_35  and  C_43
   22  A    between atoms: C_43  and  C_51
   23  A    between atoms: C_51  and  C_54
                            x       y       z     vdW  Elec       q    Type
                         _______ _______ _______ _____ _____    ______ ____

>  <TORSDO>
F 23

$$$$
=
 OpenBabel11052414593D

 55 60  0  0  1  0  0  0  0  0999 V2000
  187.3770  174.7610  136.6070 C   0  0  0  0  0  3  0  0  0  0  0  0
  185.2490  172.9830  136.9870 C   0  0  0  0  0  0  0  0  0  0  0  0
  186.5050  172.5020  136.5940 C   0  0  0  0  0  3  0  0  0  0  0  0
  186.1270  175.2420  137.0040 C   0  0  0  0  0  3  0  0  0  0  0  0
  187.5690  173.3890  136.4020 C   0  0  0  0  0  0  0  0  0  0  0  0
  185.0650  174.3520  137.1990 C   0  0  0  0  0  3  0  0  0  0  0  0
  184.1110  172.0390  137.1950 C   0  0  0  0  0  2  0  0  0  0  0  0
  183.3890  171.7400  135.8850 C   0  0  0  0  0  2  0  0  0  0  0  0
  181.9510  172.2390  135.9240 C   0  0  0  0  0  2  0  0  0  0  0  0
  181.6540  172.9540  137.2360 C   0  0  0  0  0  2  0  0  0  0  0  0
  180.1760  173.2770  137.3530 C   0  0  0  0  0  2  0  0  0  0  0  0
  180.0010  174.7240  137.7670 C   0  0  0  0  0  2  0  0  0  0  0  0
  180.7240  174.9710  138.9420 O   0  0  0  0  0  0  0  0  0  0  0  0
  180.1840  176.1150  139.5710 C   0  0  1  0  0  3  0  0  0  0  0  0
  179.5440  175.8580  140.9380 C   0  0  0  0  0  1  0  0  0  0  0  0
  183.0210  177.0070  138.1030 O   0  0  0  0  0  1  0  0  0  0  0  0
  181.0070  177.4150  139.4030 C   0  0  1  0  0  0  0  0  0  0  0  0
  183.8480  178.9350  142.6650 C   0  0  0  0  0  3  0  0  0  0  0  0
  182.9470  176.2080  140.2320 F   0  0  0  0  0  0  0  0  0  0  0  0
  182.5370  177.2340  139.3950 C   0  0  1  0  0  0  0  0  0  0  0  0
  184.7680  178.7980  141.7170 C   0  0  0  0  0  3  0  0  0  0  0  0
  184.4050  178.4710  140.4050 O   0  0  0  0  0  0  0  0  0  0  0  0
  182.0380  179.0560  140.9450 C   0  0  2  0  0  3  0  0  0  0  0  0
  183.0590  178.5600  139.9140 C   0  0  2  0  0  3  0  0  0  0  0  0
  180.6200  178.0220  138.2140 F   0  0  0  0  0  0  0  0  0  0  0  0
  182.4160  178.6320  142.3640 C   0  0  0  0  0  2  0  0  0  0  0  0
  180.7300  178.3590  140.5850 C   0  0  1  0  0  3  0  0  0  0  0  0
  179.6250  179.3420  140.3230 C   0  0  0  0  0  3  0  0  0  0  0  0
  179.8990  180.7480  140.2450 S   0  0  0  0  0  0  0  0  0  0  0  0
  188.9110  172.8600  136.0190 C   0  0  0  0  0  2  0  0  0  0  0  0
  189.9960  173.3990  136.9440 C   0  0  0  0  0  2  0  0  0  0  0  0
  190.9910  174.2590  136.1770 C   0  0  0  0  0  2  0  0  0  0  0  0
  192.1920  174.6080  137.0550 C   0  0  1  0  0  3  0  0  0  0  0  0
  194.6530  173.4220  138.2490 C   0  0  0  0  0  2  0  0  0  0  0  0
  196.8210  173.7110  137.6160 C   0  0  2  0  0  3  0  0  0  0  0  0
  194.6610  174.1280  136.9240 C   0  0  1  0  0  0  0  0  0  0  0  0
  193.4550  174.7180  136.2060 C   0  0  1  0  0  3  0  0  0  0  0  0
  196.0490  174.4800  136.5550 C   0  0  0  0  0  2  0  0  0  0  0  0
  195.9830  173.4280  138.7230 O   0  0  0  0  0  0  0  0  0  0  0  0
  193.9660  173.3250  135.8460 C   0  0  0  0  0  2  0  0  0  0  0  0
  198.0240  174.4810  138.0480 C   0  0  0  0  0  0  0  0  0  0  0  0
  198.9300  174.9260  137.0910 O   0  0  0  0  0  0  0  0  0  0  0  0
  198.2070  174.7590  139.2670 O   0  0  0  0  0  1  0  0  0  0  0  0
  191.9820  175.8750  137.9020 C   0  0  1  0  0  3  0  0  0  0  0  0
  193.7070  176.7650  139.3480 O   0  0  0  0  0  1  0  0  0  0  0  0
  193.2320  176.7530  138.0320 C   0  0  0  0  0  2  0  0  0  0  0  0
  190.7640  176.6690  137.4470 C   0  0  0  0  0  2  0  0  0  0  0  0
  189.7980  176.7140  138.4880 O   0  0  0  0  0  0  0  0  0  0  0  0
  189.0210  178.7620  139.1650 O   0  0  0  0  0  0  0  0  0  0  0  0
  189.7390  177.7590  139.4130 C   0  0  0  0  0  0  0  0  0  0  0  0
  190.4710  177.6980  140.7160 C   0  0  0  0  0  2  0  0  0  0  0  0
  189.4970  176.4000  142.5780 C   0  0  2  0  0  3  0  0  0  0  0  0
  188.1740  176.2100  143.2850 C   0  0  0  0  0  1  0  0  0  0  0  0
  190.2260  177.5850  143.1810 C   0  0  0  0  0  2  0  0  0  0  0  0
  189.4860  177.7400  141.8690 C   0  0  1  0  0  3  0  0  0  0  0  0
  1  4  1  0  0  0  0
  2  7  1  0  0  0  0
  2  6  1  0  0  0  0
  3  2  2  0  0  0  0
  4  6  2  0  0  0  0
  5  3  1  0  0  0  0
  5  1  2  0  0  0  0
  8  9  1  0  0  0  0
  8  7  1  0  0  0  0
  9 10  1  0  0  0  0
 10 11  1  0  0  0  0
 11 12  1  0  0  0  0
 12 13  1  0  0  0  0
 13 14  1  0  0  0  0
 14 15  1  1  0  0  0
 17 25  1  6  0  0  0
 17 14  1  0  0  0  0
 17 27  1  0  0  0  0
 20 16  1  6  0  0  0
 20 17  1  0  0  0  0
 20 24  1  0  0  0  0
 20 19  1  0  0  0  0
 21 18  2  0  0  0  0
 22 21  1  0  0  0  0
 23 26  1  1  0  0  0
 24 22  1  1  0  0  0
 24 23  1  0  0  0  0
 26 18  1  0  0  0  0
 27 28  1  6  0  0  0
 27 23  1  0  0  0  0
 29 28  2  0  0  0  0
 30  5  1  0  0  0  0
 30 31  1  0  0  0  0
 32 31  1  0  0  0  0
 33 32  1  6  0  0  0
 33 44  1  0  0  0  0
 34 39  1  0  0  0  0
 35 41  1  1  0  0  0
 35 39  1  0  0  0  0
 36 40  1  6  0  0  0
 36 34  1  0  0  0  0
 37 36  1  0  0  0  0
 37 33  1  1  0  0  0
 38 36  1  0  0  0  0
 38 35  1  0  0  0  0
 40 37  1  0  0  0  0
 41 43  1  0  0  0  0
 42 41  2  0  0  0  0
 44 47  1  6  0  0  0
 44 46  1  0  0  0  0
 46 45  1  0  0  0  0
 47 48  1  0  0  0  0
 48 50  1  0  0  0  0
 49 50  2  0  0  0  0
 50 51  1  0  0  0  0
 52 54  1  0  0  0  0
 52 53  1  1  0  0  0
 55 51  1  6  0  0  0
 55 52  1  0  0  0  0
 55 54  1  0  0  0  0
M  END
>  <MODEL>
8

>  <REMARK>
 VINA RESULT:      -5.5      3.577      6.441
  Name = 
  23 active torsions:
  status: ('A' for Active; 'I' for Inactive)
    1  A    between atoms: C_1  and  C_53
    2  A    between atoms: C_2  and  C_28
    3  A    between atoms: C_2  and  C_44
    4  A    between atoms: C_6  and  C_20
    5  A    between atoms: O_7  and  C_20
    6  A    between atoms: O_7  and  C_22
    7  A    between atoms: C_8  and  C_22
    8  A    between atoms: C_8  and  C_35
    9  A    between atoms: C_10  and  C_32
   10  A    between atoms: C_16  and  C_17
   11  A    between atoms: C_16  and  O_26
   12  A    between atoms: C_17  and  C_23
   13  A    between atoms: C_17  and  C_33
   14  A    between atoms: C_19  and  C_40
   15  A    between atoms: C_19  and  C_45
   16  A    between atoms: O_26  and  C_45
   17  A    between atoms: C_27  and  C_54
   18  A    between atoms: C_28  and  C_49
   19  A    between atoms: C_33  and  C_36
   20  A    between atoms: C_33  and  C_49
   21  A    between atoms: C_35  and  C_43
   22  A    between atoms: C_43  and  C_51
   23  A    between atoms: C_51  and  C_54
                            x       y       z     vdW  Elec       q    Type
                         _______ _______ _______ _____ _____    ______ ____

>  <TORSDO>
F 23

$$$$
=
 OpenBabel11052414593D

 55 60  0  0  1  0  0  0  0  0999 V2000
  187.1510  177.2270  147.6070 C   0  0  0  0  0  3  0  0  0  0  0  0
  189.4180  177.6850  146.0300 C   0  0  0  0  0  0  0  0  0  0  0  0
  188.1500  178.0540  145.5630 C   0  0  0  0  0  3  0  0  0  0  0  0
  188.4160  176.8620  148.0770 C   0  0  0  0  0  3  0  0  0  0  0  0
  187.0160  177.8250  146.3490 C   0  0  0  0  0  0  0  0  0  0  0  0
  189.5490  177.0960  147.2910 C   0  0  0  0  0  3  0  0  0  0  0  0
  190.6310  177.9300  145.1950 C   0  0  0  0  0  2  0  0  0  0  0  0
  190.5140  177.2580  143.8310 C   0  0  0  0  0  2  0  0  0  0  0  0
  190.1260  178.2620  142.7540 C   0  0  0  0  0  2  0  0  0  0  0  0
  189.3280  177.5930  141.6430 C   0  0  0  0  0  2  0  0  0  0  0  0
  190.0880  176.4120  141.0660 C   0  0  0  0  0  2  0  0  0  0  0  0
  191.0300  176.8930  139.9820 C   0  0  0  0  0  2  0  0  0  0  0  0
  190.8980  176.0810  138.8460 O   0  0  0  0  0  0  0  0  0  0  0  0
  189.8860  176.6210  138.0210 C   0  0  1  0  0  3  0  0  0  0  0  0
  189.7770  178.1480  138.0500 C   0  0  0  0  0  1  0  0  0  0  0  0
  187.8890  176.9390  135.3930 O   0  0  0  0  0  1  0  0  0  0  0  0
  189.7000  175.9190  136.6550 C   0  0  1  0  0  0  0  0  0  0  0  0
  187.3250  172.0200  136.2280 C   0  0  0  0  0  3  0  0  0  0  0  0
  187.3440  175.6580  137.1930 F   0  0  0  0  0  0  0  0  0  0  0  0
  188.2470  175.8210  136.1540 C   0  0  1  0  0  0  0  0  0  0  0  0
  186.5650  172.7480  135.4170 C   0  0  0  0  0  3  0  0  0  0  0  0
  186.9340  174.0510  135.0660 O   0  0  0  0  0  0  0  0  0  0  0  0
  189.2370  173.6000  135.9180 C   0  0  2  0  0  3  0  0  0  0  0  0
  188.2500  174.5830  135.2780 C   0  0  2  0  0  3  0  0  0  0  0  0
  190.4570  176.6010  135.7100 F   0  0  0  0  0  0  0  0  0  0  0  0
  188.5330  172.6280  136.8640 C   0  0  0  0  0  2  0  0  0  0  0  0
  190.1790  174.4600  136.7530 C   0  0  1  0  0  3  0  0  0  0  0  0
  191.6140  174.2710  136.3530 C   0  0  0  0  0  3  0  0  0  0  0  0
  192.0960  172.9820  135.9440 S   0  0  0  0  0  0  0  0  0  0  0  0
  185.6760  178.2570  145.8550 C   0  0  0  0  0  2  0  0  0  0  0  0
  185.6180  178.2240  144.3330 C   0  0  0  0  0  2  0  0  0  0  0  0
  184.8610  179.4280  143.7880 C   0  0  0  0  0  2  0  0  0  0  0  0
  184.2790  179.1200  142.4080 C   0  0  1  0  0  3  0  0  0  0  0  0
  184.3140  179.5060  139.4520 C   0  0  0  0  0  2  0  0  0  0  0  0
  185.1610  178.1300  137.8490 C   0  0  2  0  0  3  0  0  0  0  0  0
  185.1190  178.4390  140.1340 C   0  0  1  0  0  0  0  0  0  0  0  0
  185.2120  178.1950  141.6340 C   0  0  1  0  0  3  0  0  0  0  0  0
  185.5520  177.4310  139.1410 C   0  0  0  0  0  2  0  0  0  0  0  0
  184.1750  179.1150  138.1030 O   0  0  0  0  0  0  0  0  0  0  0  0
  186.2820  179.0130  140.9140 C   0  0  0  0  0  2  0  0  0  0  0  0
  184.6720  177.1390  136.8460 C   0  0  0  0  0  0  0  0  0  0  0  0
  184.2870  175.8700  137.2700 O   0  0  0  0  0  1  0  0  0  0  0  0
  184.5740  177.4520  135.6260 O   0  0  0  0  0  0  0  0  0  0  0  0
  182.8510  178.5500  142.4600 C   0  0  1  0  0  3  0  0  0  0  0  0
  182.0070  178.5140  144.7290 O   0  0  0  0  0  1  0  0  0  0  0  0
  181.9550  179.2090  143.5150 C   0  0  0  0  0  2  0  0  0  0  0  0
  182.1980  178.5230  141.0850 C   0  0  0  0  0  2  0  0  0  0  0  0
  181.8200  177.1940  140.7530 O   0  0  0  0  0  0  0  0  0  0  0  0
  179.5380  176.9850  140.6970 O   0  0  0  0  0  0  0  0  0  0  0  0
  180.6320  176.8960  140.0820 C   0  0  0  0  0  0  0  0  0  0  0  0
  180.6180  176.5200  138.6350 C   0  0  0  0  0  2  0  0  0  0  0  0
  179.9300  174.7960  137.0040 C   0  0  2  0  0  3  0  0  0  0  0  0
  178.9480  173.6540  136.8780 C   0  0  0  0  0  1  0  0  0  0  0  0
  181.1930  174.3030  137.6830 C   0  0  0  0  0  2  0  0  0  0  0  0
  180.1640  175.0810  138.4750 C   0  0  1  0  0  3  0  0  0  0  0  0
  1  4  1  0  0  0  0
  2  6  1  0  0  0  0
  3  2  2  0  0  0  0
  3  5  1  0  0  0  0
  5  1  2  0  0  0  0
  6  4  2  0  0  0  0
  7  2  1  0  0  0  0
  8  7  1  0  0  0  0
  9  8  1  0  0  0  0
 10  9  1  0  0  0  0
 11 10  1  0  0  0  0
 12 11  1  0  0  0  0
 13 12  1  0  0  0  0
 14 15  1  6  0  0  0
 14 13  1  0  0  0  0
 17 25  1  6  0  0  0
 17 27  1  0  0  0  0
 17 14  1  0  0  0  0
 18 26  1  0  0  0  0
 20 16  1  6  0  0  0
 20 17  1  0  0  0  0
 20 19  1  0  0  0  0
 21 18  2  0  0  0  0
 22 21  1  0  0  0  0
 23 27  1  0  0  0  0
 23 26  1  1  0  0  0
 24 22  1  1  0  0  0
 24 23  1  0  0  0  0
 24 20  1  0  0  0  0
 27 28  1  6  0  0  0
 29 28  2  0  0  0  0
 30  5  1  0  0  0  0
 31 30  1  0  0  0  0
 32 31  1  0  0  0  0
 33 44  1  0  0  0  0
 33 32  1  1  0  0  0
 34 36  1  0  0  0  0
 35 41  1  6  0  0  0
 35 39  1  0  0  0  0
 35 38  1  0  0  0  0
 36 38  1  6  0  0  0
 36 40  1  0  0  0  0
 36 37  1  0  0  0  0
 37 33  1  1  0  0  0
 39 34  1  0  0  0  0
 40 37  1  0  0  0  0
 41 42  1  0  0  0  0
 43 41  2  0  0  0  0
 44 47  1  6  0  0  0
 44 46  1  0  0  0  0
 46 45  1  0  0  0  0
 48 47  1  0  0  0  0
 50 49  2  0  0  0  0
 50 48  1  0  0  0  0
 51 50  1  0  0  0  0
 52 53  1  1  0  0  0
 52 54  1  0  0  0  0
 52 55  1  0  0  0  0
 54 55  1  0  0  0  0
 55 51  1  6  0  0  0
M  END
>  <MODEL>
9

>  <REMARK>
 VINA RESULT:      -5.1      2.865      8.477
  Name = 
  23 active torsions:
  status: ('A' for Active; 'I' for Inactive)
    1  A    between atoms: C_1  and  C_53
    2  A    between atoms: C_2  and  C_28
    3  A    between atoms: C_2  and  C_44
    4  A    between atoms: C_6  and  C_20
    5  A    between atoms: O_7  and  C_20
    6  A    between atoms: O_7  and  C_22
    7  A    between atoms: C_8  and  C_22
    8  A    between atoms: C_8  and  C_35
    9  A    between atoms: C_10  and  C_32
   10  A    between atoms: C_16  and  C_17
   11  A    between atoms: C_16  and  O_26
   12  A    between atoms: C_17  and  C_23
   13  A    between atoms: C_17  and  C_33
   14  A    between atoms: C_19  and  C_40
   15  A    between atoms: C_19  and  C_45
   16  A    between atoms: O_26  and  C_45
   17  A    between atoms: C_27  and  C_54
   18  A    between atoms: C_28  and  C_49
   19  A    between atoms: C_33  and  C_36
   20  A    between atoms: C_33  and  C_49
   21  A    between atoms: C_35  and  C_43
   22  A    between atoms: C_43  and  C_51
   23  A    between atoms: C_51  and  C_54
                            x       y       z     vdW  Elec       q    Type
                         _______ _______ _______ _____ _____    ______ ____

>  <TORSDO>
F 23

$$$$
