=
 OpenBabel11052413313D

 28 32  0  0  1  0  0  0  0  0999 V2000
  190.2810  176.3450  143.8860 C   0  0  0  0  0  0  0  0  0  0  0  0
  185.5030  177.8820  143.3540 C   0  0  0  0  0  3  0  0  0  0  0  0
  189.0880  177.9810  148.1680 O   0  0  0  0  0  0  0  0  0  0  0  0
  184.9490  178.7040  145.5720 C   0  0  0  0  0  0  0  0  0  0  0  0
  187.1650  177.7990  145.1490 C   0  0  0  0  0  0  0  0  0  0  0  0
  183.3010  178.7890  143.8010 C   0  0  0  0  0  0  0  0  0  0  0  0
  185.8810  178.1220  144.6830 C   0  0  0  0  0  0  0  0  0  0  0  0
  186.5680  178.6280  147.3260 N   0  0  0  0  0  0  0  0  0  0  0  0
  183.6660  179.0340  145.1280 C   0  0  0  0  0  3  0  0  0  0  0  0
  189.7100  177.1730  146.0950 C   0  0  0  0  0  0  0  0  0  0  0  0
  188.0910  177.2370  144.3240 N   0  0  0  0  0  2  0  0  0  0  0  0
  185.3200  178.9480  146.8950 C   0  0  0  0  0  3  0  0  0  0  0  0
  191.8850  176.3090  145.6900 C   0  0  0  0  0  3  0  0  0  0  0  0
  188.7760  177.7490  146.9680 C   0  0  0  0  0  0  0  0  0  0  0  0
  190.9650  176.8610  146.5230 N   0  0  0  0  0  0  0  0  0  0  0  0
  182.0260  179.1180  143.3610 O   0  0  0  0  0  1  0  0  0  0  0  0
  184.2180  178.2150  142.9160 C   0  0  0  0  0  3  0  0  0  0  0  0
  187.4940  178.0660  146.4970 C   0  0  0  0  0  0  0  0  0  0  0  0
  191.5610  176.0440  144.3580 C   0  0  0  0  0  3  0  0  0  0  0  0
  189.3420  176.9210  144.7560 C   0  0  0  0  0  0  0  0  0  0  0  0
  189.9520  176.0760  142.4540 C   0  0  0  0  0  2  0  0  0  0  0  0
  189.8520  177.3290  141.7230 N   0  0  0  0  0  0  0  0  0  0  0  0
  188.8570  177.8470  138.9510 C   0  0  1  0  0  3  0  0  0  0  0  0
  190.7230  177.2190  140.5370 C   0  0  0  0  0  2  0  0  0  0  0  0
  188.4290  177.5270  141.4050 C   0  0  0  0  0  2  0  0  0  0  0  0
  188.2480  178.4620  140.2140 C   0  0  0  0  0  2  0  0  0  0  0  0
  189.3830  178.9500  138.0550 C   0  0  0  0  0  1  0  0  0  0  0  0
  189.9690  176.8390  139.2570 C   0  0  0  0  0  2  0  0  0  0  0  0
  1 19  2  0  0  0  0
  1 20  1  0  0  0  0
  2  7  1  0  0  0  0
  4 12  1  0  0  0  0
  5 18  2  0  0  0  0
  6  9  2  0  0  0  0
  7  5  1  0  0  0  0
  7  4  2  0  0  0  0
  9  4  1  0  0  0  0
 10 15  1  0  0  0  0
 10 14  1  0  0  0  0
 11 20  1  0  0  0  0
 11  5  1  0  0  0  0
 12  8  2  0  0  0  0
 13 15  2  0  0  0  0
 14  3  2  0  0  0  0
 16  6  1  0  0  0  0
 17  2  2  0  0  0  0
 17  6  1  0  0  0  0
 18 14  1  0  0  0  0
 18  8  1  0  0  0  0
 19 13  1  0  0  0  0
 20 10  2  0  0  0  0
 21  1  1  0  0  0  0
 22 21  1  0  0  0  0
 23 27  1  6  0  0  0
 23 28  1  0  0  0  0
 23 26  1  0  0  0  0
 24 22  1  0  0  0  0
 25 22  1  0  0  0  0
 26 25  1  0  0  0  0
 28 24  1  0  0  0  0
M  END
>  <MODEL>
1

>  <REMARK>
 VINA RESULT:     -11.0      0.000      0.000
  Name = 
  2 active torsions:
  status: ('A' for Active; 'I' for Inactive)
    1  A    between atoms: C_1  and  C_2
    2  A    between atoms: C_2  and  N_3
                            x       y       z     vdW  Elec       q    Type
                         _______ _______ _______ _____ _____    ______ ____

>  <TORSDO>
F 2

$$$$
=
 OpenBabel11052413313D

 28 32  0  0  1  0  0  0  0  0999 V2000
  186.8360  178.4030  141.0480 C   0  0  0  0  0  0  0  0  0  0  0  0
  190.2720  177.0920  144.5050 C   0  0  0  0  0  3  0  0  0  0  0  0
  184.4880  178.5630  145.1600 O   0  0  0  0  0  0  0  0  0  0  0  0
  189.0160  177.1950  146.5820 C   0  0  0  0  0  0  0  0  0  0  0  0
  187.9080  177.7310  144.4860 C   0  0  0  0  0  0  0  0  0  0  0  0
  191.3530  176.5630  146.6080 C   0  0  0  0  0  0  0  0  0  0  0  0
  189.0670  177.3410  145.1770 C   0  0  0  0  0  0  0  0  0  0  0  0
  186.7090  177.8140  146.5680 N   0  0  0  0  0  0  0  0  0  0  0  0
  190.1560  176.8070  147.2900 C   0  0  0  0  0  3  0  0  0  0  0  0
  185.5970  178.4970  143.1330 C   0  0  0  0  0  0  0  0  0  0  0  0
  187.9170  177.8830  143.1330 N   0  0  0  0  0  2  0  0  0  0  0  0
  187.8190  177.4380  147.2570 C   0  0  0  0  0  3  0  0  0  0  0  0
  184.4980  179.0040  141.0890 C   0  0  0  0  0  3  0  0  0  0  0  0
  185.5590  178.3510  144.5270 C   0  0  0  0  0  0  0  0  0  0  0  0
  184.4830  178.8640  142.4400 N   0  0  0  0  0  0  0  0  0  0  0  0
  192.4850  176.1780  147.3130 O   0  0  0  0  0  1  0  0  0  0  0  0
  191.4090  176.7050  145.2180 C   0  0  0  0  0  3  0  0  0  0  0  0
  186.7200  177.9640  145.2130 C   0  0  0  0  0  0  0  0  0  0  0  0
  185.6730  178.7740  140.3700 C   0  0  0  0  0  3  0  0  0  0  0  0
  186.8040  178.2550  142.4440 C   0  0  0  0  0  0  0  0  0  0  0  0
  188.0810  178.1400  140.2660 C   0  0  0  0  0  2  0  0  0  0  0  0
  187.8140  178.2800  138.8440 N   0  0  0  0  0  0  0  0  0  0  0  0
  189.1230  176.9380  136.5140 C   0  0  1  0  0  3  0  0  0  0  0  0
  189.0400  178.8080  138.2140 C   0  0  0  0  0  2  0  0  0  0  0  0
  187.4100  176.9540  138.3510 C   0  0  0  0  0  2  0  0  0  0  0  0
  187.6330  176.8250  136.8480 C   0  0  0  0  0  2  0  0  0  0  0  0
  189.2890  177.5790  135.1520 C   0  0  0  0  0  1  0  0  0  0  0  0
  189.9100  177.7240  137.5670 C   0  0  0  0  0  2  0  0  0  0  0  0
  1 20  1  0  0  0  0
  2  7  2  0  0  0  0
  2 17  1  0  0  0  0
  4 12  1  0  0  0  0
  4  9  2  0  0  0  0
  5  7  1  0  0  0  0
  5 18  2  0  0  0  0
  6  9  1  0  0  0  0
  6 16  1  0  0  0  0
  7  4  1  0  0  0  0
  8 12  2  0  0  0  0
 10 14  1  0  0  0  0
 11  5  1  0  0  0  0
 13 15  2  0  0  0  0
 14  3  2  0  0  0  0
 14 18  1  0  0  0  0
 15 10  1  0  0  0  0
 17  6  2  0  0  0  0
 18  8  1  0  0  0  0
 19  1  2  0  0  0  0
 19 13  1  0  0  0  0
 20 11  1  0  0  0  0
 20 10  2  0  0  0  0
 21  1  1  0  0  0  0
 22 21  1  0  0  0  0
 23 27  1  6  0  0  0
 23 26  1  0  0  0  0
 23 28  1  0  0  0  0
 24 22  1  0  0  0  0
 25 22  1  0  0  0  0
 26 25  1  0  0  0  0
 28 24  1  0  0  0  0
M  END
>  <MODEL>
2

>  <REMARK>
 VINA RESULT:     -10.2      2.024      5.317
  Name = 
  2 active torsions:
  status: ('A' for Active; 'I' for Inactive)
    1  A    between atoms: C_1  and  C_2
    2  A    between atoms: C_2  and  N_3
                            x       y       z     vdW  Elec       q    Type
                         _______ _______ _______ _____ _____    ______ ____

>  <TORSDO>
F 2

$$$$
=
 OpenBabel11052413313D

 28 32  0  0  1  0  0  0  0  0999 V2000
  189.1800  177.5300  139.3760 C   0  0  0  0  0  0  0  0  0  0  0  0
  186.0440  178.2490  143.2640 C   0  0  0  0  0  3  0  0  0  0  0  0
  191.8040  176.5590  143.1990 O   0  0  0  0  0  0  0  0  0  0  0  0
  187.4380  177.7360  145.1870 C   0  0  0  0  0  0  0  0  0  0  0  0
  188.3760  177.5750  142.9500 C   0  0  0  0  0  0  0  0  0  0  0  0
  185.1320  178.4020  145.5050 C   0  0  0  0  0  0  0  0  0  0  0  0
  187.2840  177.8540  143.7870 C   0  0  0  0  0  0  0  0  0  0  0  0
  189.7150  177.0810  144.8840 N   0  0  0  0  0  0  0  0  0  0  0  0
  186.3650  178.0100  146.0380 C   0  0  0  0  0  3  0  0  0  0  0  0
  190.5590  177.0250  141.3090 C   0  0  0  0  0  0  0  0  0  0  0  0
  188.2670  177.6770  141.5970 N   0  0  0  0  0  2  0  0  0  0  0  0
  188.6710  177.3460  145.7130 C   0  0  0  0  0  3  0  0  0  0  0  0
  191.4920  176.8820  139.1290 C   0  0  0  0  0  3  0  0  0  0  0  0
  190.6990  176.9080  142.6990 C   0  0  0  0  0  0  0  0  0  0  0  0
  191.6080  176.7690  140.4780 N   0  0  0  0  0  0  0  0  0  0  0  0
  184.0670  178.6730  146.3520 O   0  0  0  0  0  1  0  0  0  0  0  0
  184.9730  178.5210  144.1210 C   0  0  0  0  0  3  0  0  0  0  0  0
  189.6040  177.1850  143.5300 C   0  0  0  0  0  0  0  0  0  0  0  0
  190.2790  177.2670  138.5550 C   0  0  0  0  0  3  0  0  0  0  0  0
  189.3150  177.4150  140.7690 C   0  0  0  0  0  0  0  0  0  0  0  0
  187.8920  177.9610  138.7520 C   0  0  0  0  0  2  0  0  0  0  0  0
  187.7980  177.4410  137.3980 N   0  0  0  0  0  0  0  0  0  0  0  0
  185.4060  177.1560  135.6250 C   0  0  1  0  0  3  0  0  0  0  0  0
  186.9190  176.2560  137.4400 C   0  0  0  0  0  2  0  0  0  0  0  0
  187.2910  178.5340  136.5540 C   0  0  0  0  0  2  0  0  0  0  0  0
  186.6370  178.0000  135.2830 C   0  0  0  0  0  2  0  0  0  0  0  0
  185.2430  176.0590  134.5940 C   0  0  0  0  0  1  0  0  0  0  0  0
  185.4710  176.5540  137.0320 C   0  0  0  0  0  2  0  0  0  0  0  0
  1 20  1  0  0  0  0
  2  7  2  0  0  0  0
  2 17  1  0  0  0  0
  4 12  1  0  0  0  0
  4  9  2  0  0  0  0
  5 18  2  0  0  0  0
  5  7  1  0  0  0  0
  6  9  1  0  0  0  0
  6 16  1  0  0  0  0
  7  4  1  0  0  0  0
  8 12  2  0  0  0  0
 10 14  1  0  0  0  0
 11  5  1  0  0  0  0
 13 15  2  0  0  0  0
 14  3  2  0  0  0  0
 14 18  1  0  0  0  0
 15 10  1  0  0  0  0
 17  6  2  0  0  0  0
 18  8  1  0  0  0  0
 19 13  1  0  0  0  0
 19  1  2  0  0  0  0
 20 10  2  0  0  0  0
 20 11  1  0  0  0  0
 21  1  1  0  0  0  0
 22 24  1  0  0  0  0
 22 21  1  0  0  0  0
 23 27  1  6  0  0  0
 23 28  1  0  0  0  0
 25 22  1  0  0  0  0
 26 23  1  0  0  0  0
 26 25  1  0  0  0  0
 28 24  1  0  0  0  0
M  END
>  <MODEL>
3

>  <REMARK>
 VINA RESULT:      -9.7      2.711      4.426
  Name = 
  2 active torsions:
  status: ('A' for Active; 'I' for Inactive)
    1  A    between atoms: C_1  and  C_2
    2  A    between atoms: C_2  and  N_3
                            x       y       z     vdW  Elec       q    Type
                         _______ _______ _______ _____ _____    ______ ____

>  <TORSDO>
F 2

$$$$
=
 OpenBabel11052413313D

 28 32  0  0  1  0  0  0  0  0999 V2000
  183.8750  178.4850  142.5320 C   0  0  0  0  0  0  0  0  0  0  0  0
  188.6300  176.8370  142.9120 C   0  0  0  0  0  3  0  0  0  0  0  0
  184.9340  178.9980  147.1200 O   0  0  0  0  0  0  0  0  0  0  0  0
  189.1150  177.1260  145.2750 C   0  0  0  0  0  0  0  0  0  0  0  0
  186.9290  177.7520  144.4170 C   0  0  0  0  0  0  0  0  0  0  0  0
  190.8020  176.2200  143.7930 C   0  0  0  0  0  0  0  0  0  0  0  0
  188.2160  177.2400  144.1900 C   0  0  0  0  0  0  0  0  0  0  0  0
  187.4580  178.0150  146.7470 N   0  0  0  0  0  0  0  0  0  0  0  0
  190.4010  176.6180  145.0730 C   0  0  0  0  0  3  0  0  0  0  0  0
  184.3770  178.7630  144.8900 C   0  0  0  0  0  0  0  0  0  0  0  0
  186.0350  177.8770  143.3980 N   0  0  0  0  0  2  0  0  0  0  0  0
  188.7090  177.5230  146.5500 C   0  0  0  0  0  3  0  0  0  0  0  0
  182.2300  179.3610  144.0660 C   0  0  0  0  0  3  0  0  0  0  0  0
  185.2770  178.6480  145.9580 C   0  0  0  0  0  0  0  0  0  0  0  0
  183.1190  179.2480  145.0880 N   0  0  0  0  0  0  0  0  0  0  0  0
  192.0790  175.7160  143.5940 O   0  0  0  0  0  1  0  0  0  0  0  0
  189.9170  176.3300  142.7160 C   0  0  0  0  0  3  0  0  0  0  0  0
  186.5640  178.1390  145.7250 C   0  0  0  0  0  0  0  0  0  0  0  0
  182.5910  178.9800  142.7720 C   0  0  0  0  0  3  0  0  0  0  0  0
  184.7810  178.3680  143.5970 C   0  0  0  0  0  0  0  0  0  0  0  0
  184.2430  178.0610  141.1470 C   0  0  0  0  0  2  0  0  0  0  0  0
  183.0990  178.2100  140.2610 N   0  0  0  0  0  0  0  0  0  0  0  0
  182.7680  177.3610  137.4130 C   0  0  1  0  0  3  0  0  0  0  0  0
  183.5250  179.0560  139.1290 C   0  0  0  0  0  2  0  0  0  0  0  0
  182.6790  176.8550  139.8730 C   0  0  0  0  0  2  0  0  0  0  0  0
  181.8900  176.8680  138.5670 C   0  0  0  0  0  2  0  0  0  0  0  0
  181.9110  178.0970  136.4050 C   0  0  0  0  0  1  0  0  0  0  0  0
  183.9190  178.2550  137.8820 C   0  0  0  0  0  2  0  0  0  0  0  0
  1 19  2  0  0  0  0
  1 20  1  0  0  0  0
  2  7  1  0  0  0  0
  4 12  1  0  0  0  0
  5 18  2  0  0  0  0
  6  9  2  0  0  0  0
  7  5  1  0  0  0  0
  7  4  2  0  0  0  0
  9  4  1  0  0  0  0
 10 15  1  0  0  0  0
 10 14  1  0  0  0  0
 11 20  1  0  0  0  0
 11  5  1  0  0  0  0
 12  8  2  0  0  0  0
 13 15  2  0  0  0  0
 14  3  2  0  0  0  0
 16  6  1  0  0  0  0
 17  2  2  0  0  0  0
 17  6  1  0  0  0  0
 18 14  1  0  0  0  0
 18  8  1  0  0  0  0
 19 13  1  0  0  0  0
 20 10  2  0  0  0  0
 21  1  1  0  0  0  0
 22 21  1  0  0  0  0
 23 27  1  6  0  0  0
 23 28  1  0  0  0  0
 23 26  1  0  0  0  0
 24 22  1  0  0  0  0
 25 22  1  0  0  0  0
 26 25  1  0  0  0  0
 28 24  1  0  0  0  0
M  END
>  <MODEL>
4

>  <REMARK>
 VINA RESULT:      -9.7      3.260      6.244
  Name = 
  2 active torsions:
  status: ('A' for Active; 'I' for Inactive)
    1  A    between atoms: C_1  and  C_2
    2  A    between atoms: C_2  and  N_3
                            x       y       z     vdW  Elec       q    Type
                         _______ _______ _______ _____ _____    ______ ____

>  <TORSDO>
F 2

$$$$
=
 OpenBabel11052413313D

 28 32  0  0  1  0  0  0  0  0999 V2000
  190.3100  177.8210  143.9110 C   0  0  0  0  0  0  0  0  0  0  0  0
  185.4390  178.9790  143.2790 C   0  0  0  0  0  3  0  0  0  0  0  0
  188.3800  177.1580  148.1860 O   0  0  0  0  0  0  0  0  0  0  0  0
  184.5050  178.6190  145.4940 C   0  0  0  0  0  0  0  0  0  0  0  0
  186.8740  178.2250  145.1140 C   0  0  0  0  0  0  0  0  0  0  0  0
  183.0810  179.3650  143.6840 C   0  0  0  0  0  0  0  0  0  0  0  0
  185.6160  178.6070  144.6200 C   0  0  0  0  0  0  0  0  0  0  0  0
  185.9020  177.8860  147.2870 N   0  0  0  0  0  0  0  0  0  0  0  0
  183.2450  178.9970  145.0230 C   0  0  0  0  0  3  0  0  0  0  0  0
  189.3600  177.4700  146.1170 C   0  0  0  0  0  0  0  0  0  0  0  0
  187.9680  178.2000  144.3040 N   0  0  0  0  0  2  0  0  0  0  0  0
  184.6760  178.2520  146.8290 C   0  0  0  0  0  3  0  0  0  0  0  0
  191.6800  177.0990  145.7630 C   0  0  0  0  0  3  0  0  0  0  0  0
  188.2510  177.4830  146.9740 C   0  0  0  0  0  0  0  0  0  0  0  0
  190.5920  177.1130  146.5770 N   0  0  0  0  0  0  0  0  0  0  0  0
  181.8280  179.7410  143.2180 O   0  0  0  0  0  1  0  0  0  0  0  0
  184.1760  179.3560  142.8150 C   0  0  0  0  0  3  0  0  0  0  0  0
  186.9970  177.8630  146.4740 C   0  0  0  0  0  0  0  0  0  0  0  0
  191.5590  177.4560  144.4180 C   0  0  0  0  0  3  0  0  0  0  0  0
  189.1960  177.8360  144.7640 C   0  0  0  0  0  0  0  0  0  0  0  0
  190.1970  178.2200  142.4760 C   0  0  0  0  0  2  0  0  0  0  0  0
  190.5220  177.0910  141.6190 N   0  0  0  0  0  0  0  0  0  0  0  0
  190.5080  176.8950  138.6350 C   0  0  1  0  0  3  0  0  0  0  0  0
  189.3060  176.7520  140.8540 C   0  0  0  0  0  2  0  0  0  0  0  0
  191.6600  177.5030  140.7830 C   0  0  0  0  0  2  0  0  0  0  0  0
  191.7460  176.6700  139.5070 C   0  0  0  0  0  2  0  0  0  0  0  0
  190.1900  175.6250  137.8720 C   0  0  0  0  0  1  0  0  0  0  0  0
  189.2870  177.3460  139.4410 C   0  0  0  0  0  2  0  0  0  0  0  0
  1 19  2  0  0  0  0
  1 20  1  0  0  0  0
  2  7  1  0  0  0  0
  4 12  1  0  0  0  0
  5 18  2  0  0  0  0
  6  9  2  0  0  0  0
  7  5  1  0  0  0  0
  7  4  2  0  0  0  0
  9  4  1  0  0  0  0
 10 15  1  0  0  0  0
 10 14  1  0  0  0  0
 11 20  1  0  0  0  0
 11  5  1  0  0  0  0
 12  8  2  0  0  0  0
 13 15  2  0  0  0  0
 14  3  2  0  0  0  0
 16  6  1  0  0  0  0
 17  2  2  0  0  0  0
 17  6  1  0  0  0  0
 18 14  1  0  0  0  0
 18  8  1  0  0  0  0
 19 13  1  0  0  0  0
 20 10  2  0  0  0  0
 21  1  1  0  0  0  0
 22 21  1  0  0  0  0
 23 27  1  1  0  0  0
 23 28  1  0  0  0  0
 23 26  1  0  0  0  0
 24 22  1  0  0  0  0
 25 22  1  0  0  0  0
 26 25  1  0  0  0  0
 28 24  1  0  0  0  0
M  END
>  <MODEL>
5

>  <REMARK>
 VINA RESULT:      -9.7      1.044      1.531
  Name = 
  2 active torsions:
  status: ('A' for Active; 'I' for Inactive)
    1  A    between atoms: C_1  and  C_2
    2  A    between atoms: C_2  and  N_3
                            x       y       z     vdW  Elec       q    Type
                         _______ _______ _______ _____ _____    ______ ____

>  <TORSDO>
F 2

$$$$
=
 OpenBabel11052413313D

 28 32  0  0  1  0  0  0  0  0999 V2000
  185.3060  178.9150  144.6960 C   0  0  0  0  0  0  0  0  0  0  0  0
  187.9560  178.2030  140.4600 C   0  0  0  0  0  3  0  0  0  0  0  0
  189.2660  176.7530  146.1360 O   0  0  0  0  0  0  0  0  0  0  0  0
  189.9670  177.0990  141.2600 C   0  0  0  0  0  0  0  0  0  0  0  0
  188.2370  177.7320  142.8460 C   0  0  0  0  0  0  0  0  0  0  0  0
  189.6950  177.5620  138.8990 C   0  0  0  0  0  0  0  0  0  0  0  0
  188.7080  177.6840  141.5240 C   0  0  0  0  0  0  0  0  0  0  0  0
  190.2440  176.6340  143.5860 N   0  0  0  0  0  0  0  0  0  0  0  0
  190.4540  177.0400  139.9510 C   0  0  0  0  0  3  0  0  0  0  0  0
  187.3200  177.8080  145.4750 C   0  0  0  0  0  0  0  0  0  0  0  0
  187.0300  178.2880  143.1410 N   0  0  0  0  0  2  0  0  0  0  0  0
  190.7190  176.5780  142.3140 C   0  0  0  0  0  3  0  0  0  0  0  0
  185.6280  178.4050  147.0330 C   0  0  0  0  0  3  0  0  0  0  0  0
  188.5680  177.2320  145.2010 C   0  0  0  0  0  0  0  0  0  0  0  0
  186.8390  177.8560  146.7490 N   0  0  0  0  0  0  0  0  0  0  0  0
  190.1810  177.5030  137.6000 O   0  0  0  0  0  1  0  0  0  0  0  0
  188.4490  178.1420  139.1540 C   0  0  0  0  0  3  0  0  0  0  0  0
  189.0350  177.1900  143.8790 C   0  0  0  0  0  0  0  0  0  0  0  0
  184.8400  178.9410  146.0130 C   0  0  0  0  0  3  0  0  0  0  0  0
  186.5550  178.3390  144.4160 C   0  0  0  0  0  0  0  0  0  0  0  0
  184.4440  179.4730  143.6100 C   0  0  0  0  0  2  0  0  0  0  0  0
  183.5860  178.4300  143.0710 N   0  0  0  0  0  0  0  0  0  0  0  0
  181.1400  178.6640  141.3670 C   0  0  1  0  0  3  0  0  0  0  0  0
  182.2390  178.6280  143.6430 C   0  0  0  0  0  2  0  0  0  0  0  0
  183.6380  178.5480  141.6060 C   0  0  0  0  0  2  0  0  0  0  0  0
  182.4110  177.9190  140.9510 C   0  0  0  0  0  2  0  0  0  0  0  0
  179.9780  177.6930  141.4160 C   0  0  0  0  0  1  0  0  0  0  0  0
  181.2840  179.3830  142.7110 C   0  0  0  0  0  2  0  0  0  0  0  0
  1 19  1  0  0  0  0
  2  7  1  0  0  0  0
  4  7  2  0  0  0  0
  4 12  1  0  0  0  0
  5 11  1  0  0  0  0
  5 18  2  0  0  0  0
  6 17  1  0  0  0  0
  6  9  2  0  0  0  0
  7  5  1  0  0  0  0
  8 18  1  0  0  0  0
  9  4  1  0  0  0  0
 10 15  2  0  0  0  0
 11 20  1  0  0  0  0
 12  8  2  0  0  0  0
 14 10  1  0  0  0  0
 14  3  2  0  0  0  0
 15 13  1  0  0  0  0
 16  6  1  0  0  0  0
 17  2  2  0  0  0  0
 18 14  1  0  0  0  0
 19 13  2  0  0  0  0
 20  1  2  0  0  0  0
 20 10  1  0  0  0  0
 21  1  1  0  0  0  0
 22 21  1  0  0  0  0
 22 24  1  0  0  0  0
 23 27  1  1  0  0  0
 23 28  1  0  0  0  0
 25 22  1  0  0  0  0
 26 23  1  0  0  0  0
 26 25  1  0  0  0  0
 28 24  1  0  0  0  0
M  END
>  <MODEL>
6

>  <REMARK>
 VINA RESULT:      -9.7      2.650      6.354
  Name = 
  2 active torsions:
  status: ('A' for Active; 'I' for Inactive)
    1  A    between atoms: C_1  and  C_2
    2  A    between atoms: C_2  and  N_3
                            x       y       z     vdW  Elec       q    Type
                         _______ _______ _______ _____ _____    ______ ____

>  <TORSDO>
F 2

$$$$
=
 OpenBabel11052413313D

 28 32  0  0  1  0  0  0  0  0999 V2000
  189.4490  176.6910  143.5990 C   0  0  0  0  0  0  0  0  0  0  0  0
  184.7580  177.9120  142.1920 C   0  0  0  0  0  3  0  0  0  0  0  0
  187.4530  178.4160  147.5330 O   0  0  0  0  0  0  0  0  0  0  0  0
  183.7880  178.7840  144.2420 C   0  0  0  0  0  0  0  0  0  0  0  0
  186.0900  178.0000  144.2450 C   0  0  0  0  0  0  0  0  0  0  0  0
  182.4660  178.7000  142.2160 C   0  0  0  0  0  0  0  0  0  0  0  0
  184.8890  178.2260  143.5530 C   0  0  0  0  0  0  0  0  0  0  0  0
  185.0840  178.8750  146.2460 N   0  0  0  0  0  0  0  0  0  0  0  0
  182.5850  179.0180  143.5730 C   0  0  0  0  0  3  0  0  0  0  0  0
  188.4640  177.5680  145.6360 C   0  0  0  0  0  0  0  0  0  0  0  0
  187.1720  177.4650  143.6160 N   0  0  0  0  0  2  0  0  0  0  0  0
  183.9130  179.1010  145.5960 C   0  0  0  0  0  3  0  0  0  0  0  0
  190.7200  176.8230  145.6470 C   0  0  0  0  0  3  0  0  0  0  0  0
  187.3650  178.1190  146.3100 C   0  0  0  0  0  0  0  0  0  0  0  0
  189.6420  177.3500  146.2850 N   0  0  0  0  0  0  0  0  0  0  0  0
  181.2700  178.9330  141.5520 O   0  0  0  0  0  1  0  0  0  0  0  0
  183.5520  178.1480  141.5280 C   0  0  0  0  0  3  0  0  0  0  0  0
  186.1670  178.3390  145.6140 C   0  0  0  0  0  0  0  0  0  0  0  0
  190.6430  176.4870  144.2940 C   0  0  0  0  0  3  0  0  0  0  0  0
  188.3450  177.2420  144.2690 C   0  0  0  0  0  0  0  0  0  0  0  0
  189.3850  176.3470  142.1460 C   0  0  0  0  0  2  0  0  0  0  0  0
  189.3500  177.5620  141.3490 N   0  0  0  0  0  0  0  0  0  0  0  0
  188.7300  177.9230  138.4460 C   0  0  1  0  0  3  0  0  0  0  0  0
  190.3790  177.4310  140.2980 C   0  0  0  0  0  2  0  0  0  0  0  0
  187.9790  177.6960  140.8330 C   0  0  0  0  0  2  0  0  0  0  0  0
  187.9360  178.5710  139.5830 C   0  0  0  0  0  2  0  0  0  0  0  0
  189.3420  179.0020  137.5770 C   0  0  0  0  0  1  0  0  0  0  0  0
  189.8180  176.9690  138.9480 C   0  0  0  0  0  2  0  0  0  0  0  0
  1 20  2  0  0  0  0
  1 19  1  0  0  0  0
  2  7  1  0  0  0  0
  4 12  1  0  0  0  0
  5 18  2  0  0  0  0
  6  9  2  0  0  0  0
  7  4  2  0  0  0  0
  7  5  1  0  0  0  0
  9  4  1  0  0  0  0
 10 15  2  0  0  0  0
 10 14  1  0  0  0  0
 11  5  1  0  0  0  0
 11 20  1  0  0  0  0
 12  8  2  0  0  0  0
 13 15  1  0  0  0  0
 14  3  2  0  0  0  0
 16  6  1  0  0  0  0
 17  2  2  0  0  0  0
 17  6  1  0  0  0  0
 18  8  1  0  0  0  0
 18 14  1  0  0  0  0
 19 13  2  0  0  0  0
 20 10  1  0  0  0  0
 21  1  1  0  0  0  0
 22 21  1  0  0  0  0
 23 27  1  1  0  0  0
 23 28  1  0  0  0  0
 23 26  1  0  0  0  0
 24 22  1  0  0  0  0
 25 22  1  0  0  0  0
 26 25  1  0  0  0  0
 28 24  1  0  0  0  0
M  END
>  <MODEL>
7

>  <REMARK>
 VINA RESULT:      -9.6      1.075      1.350
  Name = 
  2 active torsions:
  status: ('A' for Active; 'I' for Inactive)
    1  A    between atoms: C_1  and  C_2
    2  A    between atoms: C_2  and  N_3
                            x       y       z     vdW  Elec       q    Type
                         _______ _______ _______ _____ _____    ______ ____

>  <TORSDO>
F 2

$$$$
=
 OpenBabel11052413313D

 28 32  0  0  1  0  0  0  0  0999 V2000
  186.8520  178.4110  140.2900 C   0  0  0  0  0  0  0  0  0  0  0  0
  187.2170  177.9940  145.3060 C   0  0  0  0  0  3  0  0  0  0  0  0
  191.3170  177.0140  141.0320 O   0  0  0  0  0  0  0  0  0  0  0  0
  189.5160  177.2760  145.6230 C   0  0  0  0  0  0  0  0  0  0  0  0
  188.6820  177.6640  143.3730 C   0  0  0  0  0  0  0  0  0  0  0  0
  188.0720  177.6010  147.5390 C   0  0  0  0  0  0  0  0  0  0  0  0
  188.4610  177.6480  144.7600 C   0  0  0  0  0  0  0  0  0  0  0  0
  190.9500  176.9550  143.7410 N   0  0  0  0  0  0  0  0  0  0  0  0
  189.3170  177.2540  147.0060 C   0  0  0  0  0  3  0  0  0  0  0  0
  189.1470  177.6960  140.6270 C   0  0  0  0  0  0  0  0  0  0  0  0
  187.6910  178.0160  142.5090 N   0  0  0  0  0  2  0  0  0  0  0  0
  190.7570  176.9320  145.0860 C   0  0  0  0  0  3  0  0  0  0  0  0
  188.3500  178.0910  138.4230 C   0  0  0  0  0  3  0  0  0  0  0  0
  190.1850  177.3270  141.4930 C   0  0  0  0  0  0  0  0  0  0  0  0
  189.3420  177.7290  139.2790 N   0  0  0  0  0  0  0  0  0  0  0  0
  187.8760  177.5780  148.9130 O   0  0  0  0  0  1  0  0  0  0  0  0
  187.0240  177.9700  146.6900 C   0  0  0  0  0  3  0  0  0  0  0  0
  189.9570  177.3090  142.8770 C   0  0  0  0  0  0  0  0  0  0  0  0
  187.0890  178.4400  138.9130 C   0  0  0  0  0  3  0  0  0  0  0  0
  187.8880  178.0420  141.1620 C   0  0  0  0  0  0  0  0  0  0  0  0
  185.5060  178.8080  140.8040 C   0  0  0  0  0  2  0  0  0  0  0  0
  184.4780  178.4340  139.8450 N   0  0  0  0  0  0  0  0  0  0  0  0
  181.5590  179.0820  139.8270 C   0  0  1  0  0  3  0  0  0  0  0  0
  183.4820  177.6140  140.5620 C   0  0  0  0  0  2  0  0  0  0  0  0
  183.9380  179.6840  139.2880 C   0  0  0  0  0  2  0  0  0  0  0  0
  182.5370  179.4810  138.7190 C   0  0  0  0  0  2  0  0  0  0  0  0
  180.4930  178.1700  139.2560 C   0  0  0  0  0  1  0  0  0  0  0  0
  182.2510  178.4070  141.0160 C   0  0  0  0  0  2  0  0  0  0  0  0
  1 21  1  0  0  0  0
  1 20  1  0  0  0  0
  2 17  1  0  0  0  0
  3 14  2  0  0  0  0
  4  9  2  0  0  0  0
  5  7  1  0  0  0  0
  6 16  1  0  0  0  0
  7  2  2  0  0  0  0
  7  4  1  0  0  0  0
  8 12  2  0  0  0  0
  9  6  1  0  0  0  0
 10 20  2  0  0  0  0
 10 14  1  0  0  0  0
 11  5  1  0  0  0  0
 12  4  1  0  0  0  0
 13 19  1  0  0  0  0
 13 15  2  0  0  0  0
 14 18  1  0  0  0  0
 15 10  1  0  0  0  0
 17  6  2  0  0  0  0
 18  5  2  0  0  0  0
 18  8  1  0  0  0  0
 19  1  2  0  0  0  0
 20 11  1  0  0  0  0
 22 24  1  0  0  0  0
 22 21  1  0  0  0  0
 23 27  1  6  0  0  0
 23 28  1  0  0  0  0
 24 28  1  0  0  0  0
 25 22  1  0  0  0  0
 26 25  1  0  0  0  0
 26 23  1  0  0  0  0
M  END
>  <MODEL>
8

>  <REMARK>
 VINA RESULT:      -9.6      2.863      6.070
  Name = 
  2 active torsions:
  status: ('A' for Active; 'I' for Inactive)
    1  A    between atoms: C_1  and  C_2
    2  A    between atoms: C_2  and  N_3
                            x       y       z     vdW  Elec       q    Type
                         _______ _______ _______ _____ _____    ______ ____

>  <TORSDO>
F 2

$$$$
=
 OpenBabel11052413313D

 28 32  0  0  1  0  0  0  0  0999 V2000
  189.5120  177.4800  141.0280 C   0  0  0  0  0  0  0  0  0  0  0  0
  184.8560  178.3720  142.7590 C   0  0  0  0  0  3  0  0  0  0  0  0
  189.9950  177.5090  145.7410 O   0  0  0  0  0  0  0  0  0  0  0  0
  185.1650  178.3730  145.1690 C   0  0  0  0  0  0  0  0  0  0  0  0
  187.0760  177.9870  143.7160 C   0  0  0  0  0  0  0  0  0  0  0  0
  182.9670  178.7550  144.2290 C   0  0  0  0  0  0  0  0  0  0  0  0
  185.7040  178.2420  143.8690 C   0  0  0  0  0  0  0  0  0  0  0  0
  187.3300  178.0000  146.1070 N   0  0  0  0  0  0  0  0  0  0  0  0
  183.8030  178.6280  145.3430 C   0  0  0  0  0  3  0  0  0  0  0  0
  189.8020  177.4880  143.4380 C   0  0  0  0  0  0  0  0  0  0  0  0
  187.6320  177.8540  142.4810 N   0  0  0  0  0  2  0  0  0  0  0  0
  186.0040  178.2470  146.2770 C   0  0  0  0  0  3  0  0  0  0  0  0
  191.6810  177.1280  142.0290 C   0  0  0  0  0  3  0  0  0  0  0  0
  189.2570  177.6170  144.7230 C   0  0  0  0  0  0  0  0  0  0  0  0
  191.1330  177.2500  143.2660 N   0  0  0  0  0  0  0  0  0  0  0  0
  181.6140  179.0090  144.4040 O   0  0  0  0  0  1  0  0  0  0  0  0
  183.4940  178.6280  142.9400 C   0  0  0  0  0  3  0  0  0  0  0  0
  187.8850  177.8690  144.8690 C   0  0  0  0  0  0  0  0  0  0  0  0
  190.8820  177.2440  140.8890 C   0  0  0  0  0  3  0  0  0  0  0  0
  188.9600  177.6100  142.3130 C   0  0  0  0  0  0  0  0  0  0  0  0
  188.6710  177.6230  139.8020 C   0  0  0  0  0  2  0  0  0  0  0  0
  189.5040  177.5250  138.6140 N   0  0  0  0  0  0  0  0  0  0  0  0
  188.7270  176.9790  135.7780 C   0  0  1  0  0  3  0  0  0  0  0  0
  189.3590  176.1560  138.0830 C   0  0  0  0  0  2  0  0  0  0  0  0
  189.0550  178.5770  137.6890 C   0  0  0  0  0  2  0  0  0  0  0  0
  189.4350  178.2530  136.2470 C   0  0  0  0  0  2  0  0  0  0  0  0
  189.6070  176.2480  134.7850 C   0  0  0  0  0  1  0  0  0  0  0  0
  188.3490  176.0490  136.9350 C   0  0  0  0  0  2  0  0  0  0  0  0
  1 20  1  0  0  0  0
  2 17  2  0  0  0  0
  2  7  1  0  0  0  0
  4  9  1  0  0  0  0
  4 12  1  0  0  0  0
  5  7  1  0  0  0  0
  5 18  2  0  0  0  0
  6 16  1  0  0  0  0
  6  9  2  0  0  0  0
  7  4  2  0  0  0  0
  8 12  2  0  0  0  0
 10 14  1  0  0  0  0
 11  5  1  0  0  0  0
 13 15  2  0  0  0  0
 14 18  1  0  0  0  0
 14  3  2  0  0  0  0
 15 10  1  0  0  0  0
 17  6  1  0  0  0  0
 18  8  1  0  0  0  0
 19  1  2  0  0  0  0
 19 13  1  0  0  0  0
 20 11  1  0  0  0  0
 20 10  2  0  0  0  0
 21  1  1  0  0  0  0
 22 21  1  0  0  0  0
 23 27  1  6  0  0  0
 23 26  1  0  0  0  0
 23 28  1  0  0  0  0
 24 22  1  0  0  0  0
 25 22  1  0  0  0  0
 26 25  1  0  0  0  0
 28 24  1  0  0  0  0
M  END
>  <MODEL>
9

>  <REMARK>
 VINA RESULT:      -9.5      1.744      2.619
  Name = 
  2 active torsions:
  status: ('A' for Active; 'I' for Inactive)
    1  A    between atoms: C_1  and  C_2
    2  A    between atoms: C_2  and  N_3
                            x       y       z     vdW  Elec       q    Type
                         _______ _______ _______ _____ _____    ______ ____

>  <TORSDO>
F 2

$$$$
