=
 OpenBabel11052413173D

 31 34  0  0  1  0  0  0  0  0999 V2000
  187.8240  177.5530  144.2130 C   0  0  0  0  0  0  0  0  0  0  0  0
  186.7140  178.0020  144.9750 C   0  0  0  0  0  0  0  0  0  0  0  0
  185.7030  178.5150  147.0600 C   0  0  0  0  0  3  0  0  0  0  0  0
  189.0620  177.1470  144.7760 C   0  0  0  0  0  0  0  0  0  0  0  0
  191.2620  177.0050  146.0450 C   0  0  2  0  0  3  0  0  0  0  0  0
  186.7640  178.0850  146.3320 N   0  0  0  0  0  2  0  0  0  0  0  0
  188.7500  177.0580  141.9850 C   0  0  0  0  0  0  0  0  0  0  0  0
  185.4480  178.2980  142.9280 C   0  0  0  0  0  3  0  0  0  0  0  0
  184.5510  178.8770  146.4380 N   0  0  0  0  0  0  0  0  0  0  0  0
  189.9610  176.6850  142.5800 C   0  0  0  0  0  3  0  0  0  0  0  0
  187.6850  177.4970  142.7960 C   0  0  0  0  0  0  0  0  0  0  0  0
  189.4990  177.1140  146.5120 S   0  0  0  0  0  0  0  0  0  0  0  0
  183.3540  179.1590  144.5410 O   0  0  0  0  0  0  0  0  0  0  0  0
  190.1020  176.7430  143.9610 C   0  0  0  0  0  0  0  0  0  0  0  0
  191.3620  176.3900  144.6550 C   0  0  0  0  0  2  0  0  0  0  0  0
  186.5140  177.8670  142.2100 N   0  0  0  0  0  0  0  0  0  0  0  0
  185.5230  178.3750  144.3180 C   0  0  0  0  0  0  0  0  0  0  0  0
  184.4370  178.8170  145.0870 C   0  0  0  0  0  0  0  0  0  0  0  0
  188.8550  179.2830  140.0460 O   0  0  0  0  0  0  0  0  0  0  0  0
  188.6310  178.1120  139.6430 C   0  0  0  0  0  0  0  0  0  0  0  0
  188.5740  177.0090  140.5610 N   0  0  0  0  0  2  0  0  0  0  0  0
  188.9670  179.0400  137.3670 C   0  0  0  0  0  1  0  0  0  0  0  0
  188.4260  177.8730  138.1820 C   0  0  2  0  0  3  0  0  0  0  0  0
  186.8090  177.0510  136.4530 C   0  0  0  0  0  1  0  0  0  0  0  0
  186.9580  177.5760  137.8720 C   0  0  2  0  0  3  0  0  0  0  0  0
  186.1500  178.7350  138.0590 O   0  0  0  0  0  0  0  0  0  0  0  0
  185.0150  178.7330  138.8710 C   0  0  0  0  0  0  0  0  0  0  0  0
  184.1580  177.8140  138.7810 O   0  0  0  0  0  0  0  0  0  0  0  0
  184.8330  179.7530  139.7940 O   0  0  0  0  0  1  0  0  0  0  0  0
  192.0250  176.1530  147.0410 C   0  0  0  0  0  2  0  0  0  0  0  0
  192.4450  174.9830  146.4360 F   0  0  0  0  0  0  0  0  0  0  0  0
  1  4  1  0  0  0  0
  1  2  2  0  0  0  0
  2  6  1  0  0  0  0
  4 12  1  0  0  0  0
  5 12  1  0  0  0  0
  5 30  1  1  0  0  0
  6  3  1  0  0  0  0
  7 10  2  0  0  0  0
  7 11  1  0  0  0  0
  8 17  2  0  0  0  0
  9  3  2  0  0  0  0
 10 14  1  0  0  0  0
 11  1  1  0  0  0  0
 13 18  2  0  0  0  0
 14 15  1  0  0  0  0
 14  4  2  0  0  0  0
 15  5  1  0  0  0  0
 16 11  2  0  0  0  0
 16  8  1  0  0  0  0
 17  2  1  0  0  0  0
 17 18  1  0  0  0  0
 18  9  1  0  0  0  0
 20 19  2  0  0  0  0
 20 21  1  0  0  0  0
 21  7  1  0  0  0  0
 23 22  1  6  0  0  0
 23 20  1  0  0  0  0
 25 24  1  6  0  0  0
 25 26  1  0  0  0  0
 25 23  1  0  0  0  0
 26 27  1  0  0  0  0
 27 29  1  0  0  0  0
 28 27  2  0  0  0  0
 31 30  1  0  0  0  0
M  END
>  <MODEL>
1

>  <REMARK>
 VINA RESULT:      -9.7      0.000      0.000
  Name = 
  6 active torsions:
  status: ('A' for Active; 'I' for Inactive)
    1  A    between atoms: C_1  and  O_24
    2  A    between atoms: C_2  and  C_13
    3  A    between atoms: C_9  and  C_22
    4  A    between atoms: C_15  and  N_23
    5  A    between atoms: C_19  and  C_22
    6  A    between atoms: C_19  and  O_24
                            x       y       z     vdW  Elec       q    Type
                         _______ _______ _______ _____ _____    ______ ____

>  <TORSDO>
F 6

$$$$
=
 OpenBabel11052413173D

 31 34  0  0  1  0  0  0  0  0999 V2000
  187.9180  177.6230  144.3290 C   0  0  0  0  0  0  0  0  0  0  0  0
  186.7450  178.0220  145.0200 C   0  0  0  0  0  0  0  0  0  0  0  0
  185.5590  178.4080  147.0400 C   0  0  0  0  0  3  0  0  0  0  0  0
  189.1080  177.1880  144.9690 C   0  0  0  0  0  0  0  0  0  0  0  0
  191.1960  176.9800  146.4070 C   0  0  2  0  0  3  0  0  0  0  0  0
  186.6810  178.0260  146.3790 N   0  0  0  0  0  0  0  0  0  0  0  0
  189.0310  177.2630  142.1620 C   0  0  0  0  0  0  0  0  0  0  0  0
  185.6510  178.4340  142.8950 C   0  0  0  0  0  3  0  0  0  0  0  0
  184.4590  178.8020  146.3460 N   0  0  0  0  0  2  0  0  0  0  0  0
  190.1910  176.8600  142.8320 C   0  0  0  0  0  3  0  0  0  0  0  0
  187.8980  177.6500  142.9040 C   0  0  0  0  0  0  0  0  0  0  0  0
  189.3990  177.0550  146.7300 S   0  0  0  0  0  0  0  0  0  0  0  0
  183.4220  179.1910  144.3750 O   0  0  0  0  0  0  0  0  0  0  0  0
  190.2160  176.8370  144.2220 C   0  0  0  0  0  0  0  0  0  0  0  0
  191.4160  176.4480  144.9970 C   0  0  0  0  0  2  0  0  0  0  0  0
  186.7760  178.0500  142.2450 N   0  0  0  0  0  0  0  0  0  0  0  0
  185.6090  178.4300  144.2890 C   0  0  0  0  0  0  0  0  0  0  0  0
  184.4590  178.8210  144.9890 C   0  0  0  0  0  0  0  0  0  0  0  0
  191.2550  177.5770  140.2440 O   0  0  0  0  0  0  0  0  0  0  0  0
  190.0760  177.4520  139.8200 C   0  0  0  0  0  0  0  0  0  0  0  0
  188.9740  177.2980  140.7270 N   0  0  0  0  0  2  0  0  0  0  0  0
  189.0250  178.6920  137.9460 C   0  0  0  0  0  1  0  0  0  0  0  0
  189.8300  177.4630  138.3460 C   0  0  2  0  0  3  0  0  0  0  0  0
  190.2320  175.1380  137.5030 C   0  0  0  0  0  1  0  0  0  0  0  0
  189.1740  176.1590  137.8870 C   0  0  2  0  0  3  0  0  0  0  0  0
  188.2880  176.3900  136.7950 O   0  0  0  0  0  0  0  0  0  0  0  0
  187.0150  175.8200  136.7310 C   0  0  0  0  0  0  0  0  0  0  0  0
  186.7690  174.7230  137.3000 O   0  0  0  0  0  1  0  0  0  0  0  0
  186.0070  176.4750  136.0380 O   0  0  0  0  0  0  0  0  0  0  0  0
  191.8800  176.0740  147.4110 C   0  0  0  0  0  2  0  0  0  0  0  0
  192.5810  175.0820  146.7510 F   0  0  0  0  0  0  0  0  0  0  0  0
  1  4  1  0  0  0  0
  1  2  1  0  0  0  0
  2  6  1  0  0  0  0
  4 12  1  0  0  0  0
  5 12  1  0  0  0  0
  5 30  1  1  0  0  0
  6  3  2  0  0  0  0
  7 10  2  0  0  0  0
  7 11  1  0  0  0  0
  8 17  1  0  0  0  0
  9  3  1  0  0  0  0
 10 14  1  0  0  0  0
 11  1  2  0  0  0  0
 13 18  2  0  0  0  0
 14  4  2  0  0  0  0
 14 15  1  0  0  0  0
 15  5  1  0  0  0  0
 16  8  2  0  0  0  0
 16 11  1  0  0  0  0
 17 18  1  0  0  0  0
 17  2  2  0  0  0  0
 18  9  1  0  0  0  0
 20 19  2  0  0  0  0
 20 21  1  0  0  0  0
 21  7  1  0  0  0  0
 23 22  1  1  0  0  0
 23 20  1  0  0  0  0
 25 24  1  6  0  0  0
 25 23  1  0  0  0  0
 26 25  1  0  0  0  0
 27 26  1  0  0  0  0
 27 28  1  0  0  0  0
 29 27  2  0  0  0  0
 31 30  1  0  0  0  0
M  END
>  <MODEL>
2

>  <REMARK>
 VINA RESULT:      -9.0      1.631      1.905
  Name = 
  6 active torsions:
  status: ('A' for Active; 'I' for Inactive)
    1  A    between atoms: C_1  and  O_24
    2  A    between atoms: C_2  and  C_13
    3  A    between atoms: C_9  and  C_22
    4  A    between atoms: C_15  and  N_23
    5  A    between atoms: C_19  and  C_22
    6  A    between atoms: C_19  and  O_24
                            x       y       z     vdW  Elec       q    Type
                         _______ _______ _______ _____ _____    ______ ____

>  <TORSDO>
F 6

$$$$
=
 OpenBabel11052413173D

 31 34  0  0  1  0  0  0  0  0999 V2000
  187.9050  177.6560  144.1440 C   0  0  0  0  0  0  0  0  0  0  0  0
  186.7410  178.0340  144.8620 C   0  0  0  0  0  0  0  0  0  0  0  0
  185.5800  178.3550  146.9080 C   0  0  0  0  0  3  0  0  0  0  0  0
  189.1020  177.2000  144.7550 C   0  0  0  0  0  0  0  0  0  0  0  0
  191.2070  176.9410  146.1600 C   0  0  2  0  0  3  0  0  0  0  0  0
  186.6930  177.9930  146.2210 N   0  0  0  0  0  2  0  0  0  0  0  0
  188.9910  177.3660  141.9530 C   0  0  0  0  0  0  0  0  0  0  0  0
  185.6220  178.5160  142.7650 C   0  0  0  0  0  3  0  0  0  0  0  0
  184.4730  178.7720  146.2400 N   0  0  0  0  0  0  0  0  0  0  0  0
  190.1590  176.9400  142.5960 C   0  0  0  0  0  3  0  0  0  0  0  0
  187.8680  177.7300  142.7210 C   0  0  0  0  0  0  0  0  0  0  0  0
  189.4140  177.0080  146.5080 S   0  0  0  0  0  0  0  0  0  0  0  0
  183.4130  179.2270  144.2960 O   0  0  0  0  0  0  0  0  0  0  0  0
  190.2010  176.8710  143.9830 C   0  0  0  0  0  0  0  0  0  0  0  0
  191.4090  176.4560  144.7310 C   0  0  0  0  0  2  0  0  0  0  0  0
  186.7400  178.1530  142.0890 N   0  0  0  0  0  0  0  0  0  0  0  0
  185.5970  178.4670  144.1580 C   0  0  0  0  0  0  0  0  0  0  0  0
  184.4570  178.8360  144.8840 C   0  0  0  0  0  0  0  0  0  0  0  0
  191.2070  177.5560  140.0080 O   0  0  0  0  0  0  0  0  0  0  0  0
  190.0160  177.5400  139.6010 C   0  0  0  0  0  0  0  0  0  0  0  0
  188.9180  177.4480  140.5210 N   0  0  0  0  0  2  0  0  0  0  0  0
  188.5240  178.4720  137.8520 C   0  0  0  0  0  1  0  0  0  0  0  0
  189.7510  177.6140  138.1320 C   0  0  2  0  0  3  0  0  0  0  0  0
  188.1910  175.7550  137.5080 C   0  0  0  0  0  1  0  0  0  0  0  0
  189.6390  176.2170  137.5200 C   0  0  2  0  0  3  0  0  0  0  0  0
  190.4510  175.2820  138.2270 O   0  0  0  0  0  0  0  0  0  0  0  0
  191.3630  174.4460  137.5810 C   0  0  0  0  0  0  0  0  0  0  0  0
  190.9710  173.5740  136.7600 O   0  0  0  0  0  0  0  0  0  0  0  0
  192.7190  174.5810  137.8430 O   0  0  0  0  0  1  0  0  0  0  0  0
  191.9010  176.0020  147.1260 C   0  0  0  0  0  2  0  0  0  0  0  0
  192.4910  174.9620  146.4310 F   0  0  0  0  0  0  0  0  0  0  0  0
  1  4  1  0  0  0  0
  1  2  2  0  0  0  0
  2  6  1  0  0  0  0
  4 12  1  0  0  0  0
  5 12  1  0  0  0  0
  5 30  1  1  0  0  0
  6  3  1  0  0  0  0
  7 10  2  0  0  0  0
  7 11  1  0  0  0  0
  8 17  2  0  0  0  0
  9  3  2  0  0  0  0
 10 14  1  0  0  0  0
 11  1  1  0  0  0  0
 13 18  2  0  0  0  0
 14 15  1  0  0  0  0
 14  4  2  0  0  0  0
 15  5  1  0  0  0  0
 16 11  2  0  0  0  0
 16  8  1  0  0  0  0
 17  2  1  0  0  0  0
 17 18  1  0  0  0  0
 18  9  1  0  0  0  0
 20 19  2  0  0  0  0
 20 21  1  0  0  0  0
 21  7  1  0  0  0  0
 23 22  1  1  0  0  0
 23 20  1  0  0  0  0
 25 24  1  1  0  0  0
 25 23  1  0  0  0  0
 25 26  1  0  0  0  0
 27 29  1  0  0  0  0
 27 26  1  0  0  0  0
 28 27  2  0  0  0  0
 31 30  1  0  0  0  0
M  END
>  <MODEL>
3

>  <REMARK>
 VINA RESULT:      -8.9      2.244      3.009
  Name = 
  6 active torsions:
  status: ('A' for Active; 'I' for Inactive)
    1  A    between atoms: C_1  and  O_24
    2  A    between atoms: C_2  and  C_13
    3  A    between atoms: C_9  and  C_22
    4  A    between atoms: C_15  and  N_23
    5  A    between atoms: C_19  and  C_22
    6  A    between atoms: C_19  and  O_24
                            x       y       z     vdW  Elec       q    Type
                         _______ _______ _______ _____ _____    ______ ____

>  <TORSDO>
F 6

$$$$
=
 OpenBabel11052413173D

 31 34  0  0  1  0  0  0  0  0999 V2000
  187.1670  178.0290  141.4280 C   0  0  0  0  0  0  0  0  0  0  0  0
  187.3100  178.2220  140.0290 C   0  0  0  0  0  0  0  0  0  0  0  0
  186.4180  178.8540  137.9220 C   0  0  0  0  0  3  0  0  0  0  0  0
  185.9650  178.2650  142.1440 C   0  0  0  0  0  0  0  0  0  0  0  0
  183.8660  179.2740  143.1690 C   0  0  2  0  0  3  0  0  0  0  0  0
  186.2810  178.6680  139.2600 N   0  0  0  0  0  0  0  0  0  0  0  0
  188.2170  177.3460  143.5480 C   0  0  0  0  0  0  0  0  0  0  0  0
  189.6170  177.4900  140.1790 C   0  0  0  0  0  3  0  0  0  0  0  0
  187.6050  178.5930  137.3160 N   0  0  0  0  0  2  0  0  0  0  0  0
  187.0180  177.6100  144.2190 C   0  0  0  0  0  3  0  0  0  0  0  0
  188.2970  177.5590  142.1580 C   0  0  0  0  0  0  0  0  0  0  0  0
  184.4090  178.8480  141.4770 S   0  0  0  0  0  0  0  0  0  0  0  0
  189.7580  177.9140  137.4350 O   0  0  0  0  0  0  0  0  0  0  0  0
  185.9150  178.0730  143.5120 C   0  0  0  0  0  0  0  0  0  0  0  0
  184.6240  178.3990  144.1590 C   0  0  0  0  0  2  0  0  0  0  0  0
  189.4700  177.3090  141.5140 N   0  0  0  0  0  0  0  0  0  0  0  0
  188.5480  177.9490  139.4110 C   0  0  0  0  0  0  0  0  0  0  0  0
  188.6710  178.1460  138.0280 C   0  0  0  0  0  0  0  0  0  0  0  0
  190.4320  178.9100  144.7190 O   0  0  0  0  0  0  0  0  0  0  0  0
  190.4360  177.6550  144.8110 C   0  0  0  0  0  0  0  0  0  0  0  0
  189.3740  176.8670  144.2520 N   0  0  0  0  0  2  0  0  0  0  0  0
  191.8810  175.6400  144.8720 C   0  0  0  0  0  1  0  0  0  0  0  0
  191.5670  176.9830  145.5180 C   0  0  2  0  0  3  0  0  0  0  0  0
  192.1900  175.8100  147.6430 C   0  0  0  0  0  1  0  0  0  0  0  0
  191.2860  176.8590  147.0170 C   0  0  2  0  0  3  0  0  0  0  0  0
  189.9180  176.5400  147.2550 O   0  0  0  0  0  0  0  0  0  0  0  0
  189.0350  177.4350  147.8630 C   0  0  0  0  0  0  0  0  0  0  0  0
  189.4620  178.3550  148.6100 O   0  0  0  0  0  1  0  0  0  0  0  0
  187.6720  177.3120  147.6350 O   0  0  0  0  0  0  0  0  0  0  0  0
  182.3750  179.0510  143.3220 C   0  0  0  0  0  2  0  0  0  0  0  0
  182.0870  178.6540  144.6150 F   0  0  0  0  0  0  0  0  0  0  0  0
  1  4  2  0  0  0  0
  1 11  1  0  0  0  0
  2  1  1  0  0  0  0
  3  6  2  0  0  0  0
  4 14  1  0  0  0  0
  5 30  1  6  0  0  0
  5 15  1  0  0  0  0
  6  2  1  0  0  0  0
  7 10  1  0  0  0  0
  7 21  1  0  0  0  0
  8 16  2  0  0  0  0
  9  3  1  0  0  0  0
  9 18  1  0  0  0  0
 11  7  2  0  0  0  0
 12  4  1  0  0  0  0
 12  5  1  0  0  0  0
 13 18  2  0  0  0  0
 14 15  1  0  0  0  0
 14 10  2  0  0  0  0
 16 11  1  0  0  0  0
 17  2  2  0  0  0  0
 17  8  1  0  0  0  0
 18 17  1  0  0  0  0
 19 20  2  0  0  0  0
 20 23  1  0  0  0  0
 21 20  1  0  0  0  0
 23 22  1  6  0  0  0
 23 25  1  0  0  0  0
 25 26  1  0  0  0  0
 25 24  1  6  0  0  0
 26 27  1  0  0  0  0
 27 28  1  0  0  0  0
 29 27  2  0  0  0  0
 30 31  1  0  0  0  0
M  END
>  <MODEL>
4

>  <REMARK>
 VINA RESULT:      -8.8      3.723      7.675
  Name = 
  6 active torsions:
  status: ('A' for Active; 'I' for Inactive)
    1  A    between atoms: C_1  and  O_24
    2  A    between atoms: C_2  and  C_13
    3  A    between atoms: C_9  and  C_22
    4  A    between atoms: C_15  and  N_23
    5  A    between atoms: C_19  and  C_22
    6  A    between atoms: C_19  and  O_24
                            x       y       z     vdW  Elec       q    Type
                         _______ _______ _______ _____ _____    ______ ____

>  <TORSDO>
F 6

$$$$
=
 OpenBabel11052413173D

 31 34  0  0  1  0  0  0  0  0999 V2000
  188.1670  177.8620  143.5030 C   0  0  0  0  0  0  0  0  0  0  0  0
  188.8240  177.5050  144.7090 C   0  0  0  0  0  0  0  0  0  0  0  0
  188.7930  177.1160  147.0500 C   0  0  0  0  0  3  0  0  0  0  0  0
  186.7930  178.2090  143.4200 C   0  0  0  0  0  0  0  0  0  0  0  0
  184.2530  178.2550  143.5410 C   0  0  2  0  0  3  0  0  0  0  0  0
  188.1640  177.4590  145.8980 N   0  0  0  0  0  2  0  0  0  0  0  0
  188.3400  178.2340  141.0750 C   0  0  0  0  0  0  0  0  0  0  0  0
  190.8960  177.2260  143.4790 C   0  0  0  0  0  3  0  0  0  0  0  0
  190.1150  176.8070  147.0400 N   0  0  0  0  0  0  0  0  0  0  0  0
  186.9770  178.5500  141.0330 C   0  0  0  0  0  3  0  0  0  0  0  0
  188.9350  177.8850  142.3030 C   0  0  0  0  0  0  0  0  0  0  0  0
  185.6120  178.2670  144.7630 S   0  0  0  0  0  0  0  0  0  0  0  0
  192.0560  176.5420  145.9110 O   0  0  0  0  0  0  0  0  0  0  0  0
  186.2240  178.5250  142.2010 C   0  0  0  0  0  0  0  0  0  0  0  0
  184.7740  178.8200  142.2270 C   0  0  0  0  0  2  0  0  0  0  0  0
  190.2580  177.5690  142.3340 N   0  0  0  0  0  0  0  0  0  0  0  0
  190.1980  177.1850  144.6860 C   0  0  0  0  0  0  0  0  0  0  0  0
  190.8300  176.8340  145.8870 C   0  0  0  0  0  0  0  0  0  0  0  0
  187.7760  176.9830  138.4590 O   0  0  0  0  0  0  0  0  0  0  0  0
  188.8420  177.6310  138.6260 C   0  0  0  0  0  0  0  0  0  0  0  0
  189.1450  178.2510  139.8850 N   0  0  0  0  0  2  0  0  0  0  0  0
  189.0560  177.7930  136.1600 C   0  0  0  0  0  1  0  0  0  0  0  0
  189.8010  177.7560  137.4870 C   0  0  2  0  0  3  0  0  0  0  0  0
  190.2040  175.2830  137.4430 C   0  0  0  0  0  1  0  0  0  0  0  0
  190.8590  176.6520  137.5320 C   0  0  2  0  0  3  0  0  0  0  0  0
  191.6480  176.7470  138.7150 O   0  0  0  0  0  0  0  0  0  0  0  0
  193.0410  176.8390  138.6810 C   0  0  0  0  0  0  0  0  0  0  0  0
  193.6720  176.6720  137.6030 O   0  0  0  0  0  0  0  0  0  0  0  0
  193.7360  177.1240  139.8470 O   0  0  0  0  0  1  0  0  0  0  0  0
  183.0860  179.0880  144.0350 C   0  0  0  0  0  2  0  0  0  0  0  0
  183.0090  179.0210  145.4130 F   0  0  0  0  0  0  0  0  0  0  0  0
  1  2  2  0  0  0  0
  2  6  1  0  0  0  0
  4  1  1  0  0  0  0
  4 12  1  0  0  0  0
  5 30  1  1  0  0  0
  5 12  1  0  0  0  0
  6  3  1  0  0  0  0
  7 11  1  0  0  0  0
  8 17  2  0  0  0  0
  9  3  2  0  0  0  0
 10  7  2  0  0  0  0
 10 14  1  0  0  0  0
 11 16  2  0  0  0  0
 11  1  1  0  0  0  0
 14 15  1  0  0  0  0
 14  4  2  0  0  0  0
 15  5  1  0  0  0  0
 16  8  1  0  0  0  0
 17  2  1  0  0  0  0
 17 18  1  0  0  0  0
 18 13  2  0  0  0  0
 18  9  1  0  0  0  0
 19 20  2  0  0  0  0
 20 21  1  0  0  0  0
 21  7  1  0  0  0  0
 23 22  1  6  0  0  0
 23 25  1  0  0  0  0
 23 20  1  0  0  0  0
 25 24  1  1  0  0  0
 25 26  1  0  0  0  0
 27 26  1  0  0  0  0
 27 29  1  0  0  0  0
 28 27  2  0  0  0  0
 30 31  1  0  0  0  0
M  END
>  <MODEL>
5

>  <REMARK>
 VINA RESULT:      -8.5      3.407      5.593
  Name = 
  6 active torsions:
  status: ('A' for Active; 'I' for Inactive)
    1  A    between atoms: C_1  and  O_24
    2  A    between atoms: C_2  and  C_13
    3  A    between atoms: C_9  and  C_22
    4  A    between atoms: C_15  and  N_23
    5  A    between atoms: C_19  and  C_22
    6  A    between atoms: C_19  and  O_24
                            x       y       z     vdW  Elec       q    Type
                         _______ _______ _______ _____ _____    ______ ____

>  <TORSDO>
F 6

$$$$
=
 OpenBabel11052413173D

 31 34  0  0  1  0  0  0  0  0999 V2000
  186.3080  178.2310  142.1190 C   0  0  0  0  0  0  0  0  0  0  0  0
  186.6400  178.3470  140.7440 C   0  0  0  0  0  0  0  0  0  0  0  0
  186.0270  178.7930  138.4950 C   0  0  0  0  0  3  0  0  0  0  0  0
  185.0050  178.4370  142.6420 C   0  0  0  0  0  0  0  0  0  0  0  0
  182.7330  179.3780  143.2930 C   0  0  2  0  0  3  0  0  0  0  0  0
  185.7100  178.6820  139.8090 N   0  0  0  0  0  0  0  0  0  0  0  0
  187.0780  177.7430  144.4070 C   0  0  0  0  0  0  0  0  0  0  0  0
  188.9360  177.7660  141.2640 C   0  0  0  0  0  3  0  0  0  0  0  0
  187.3000  178.5690  138.0790 N   0  0  0  0  0  2  0  0  0  0  0  0
  185.7830  177.9750  144.8840 C   0  0  0  0  0  3  0  0  0  0  0  0
  187.3450  177.8760  143.0300 C   0  0  0  0  0  0  0  0  0  0  0  0
  183.5330  178.8830  141.7260 S   0  0  0  0  0  0  0  0  0  0  0  0
  189.4460  178.0290  138.5440 O   0  0  0  0  0  0  0  0  0  0  0  0
  184.7700  178.3260  144.0000 C   0  0  0  0  0  0  0  0  0  0  0  0
  183.3860  178.6130  144.4370 C   0  0  0  0  0  2  0  0  0  0  0  0
  188.6090  177.6580  142.5750 N   0  0  0  0  0  0  0  0  0  0  0  0
  187.9660  178.1120  140.3240 C   0  0  0  0  0  0  0  0  0  0  0  0
  188.2750  178.2310  138.9620 C   0  0  0  0  0  0  0  0  0  0  0  0
  187.3040  178.2520  147.3080 O   0  0  0  0  0  0  0  0  0  0  0  0
  188.2260  177.6420  146.7060 C   0  0  0  0  0  0  0  0  0  0  0  0
  188.1450  177.3790  145.2970 N   0  0  0  0  0  2  0  0  0  0  0  0
  189.8590  178.2530  148.4700 C   0  0  0  0  0  1  0  0  0  0  0  0
  189.4190  177.1830  147.4800 C   0  0  2  0  0  3  0  0  0  0  0  0
  191.5650  175.9020  147.2950 C   0  0  0  0  0  1  0  0  0  0  0  0
  190.5510  176.7510  146.5450 C   0  0  2  0  0  3  0  0  0  0  0  0
  191.1890  177.8820  145.9580 O   0  0  0  0  0  0  0  0  0  0  0  0
  191.4490  177.9670  144.5890 C   0  0  0  0  0  0  0  0  0  0  0  0
  191.6800  176.9310  143.9100 O   0  0  0  0  0  0  0  0  0  0  0  0
  191.4450  179.2080  143.9680 O   0  0  0  0  0  1  0  0  0  0  0  0
  181.2480  179.0750  143.2520 C   0  0  0  0  0  2  0  0  0  0  0  0
  180.8940  178.3040  144.3430 F   0  0  0  0  0  0  0  0  0  0  0  0
  1  4  2  0  0  0  0
  1 11  1  0  0  0  0
  2  1  1  0  0  0  0
  3  6  2  0  0  0  0
  4 14  1  0  0  0  0
  5 30  1  6  0  0  0
  5 15  1  0  0  0  0
  6  2  1  0  0  0  0
  7 10  1  0  0  0  0
  7 21  1  0  0  0  0
  8 16  2  0  0  0  0
  9  3  1  0  0  0  0
  9 18  1  0  0  0  0
 11  7  2  0  0  0  0
 12  4  1  0  0  0  0
 12  5  1  0  0  0  0
 13 18  2  0  0  0  0
 14 15  1  0  0  0  0
 14 10  2  0  0  0  0
 16 11  1  0  0  0  0
 17  2  2  0  0  0  0
 17  8  1  0  0  0  0
 18 17  1  0  0  0  0
 20 19  2  0  0  0  0
 20 23  1  0  0  0  0
 21 20  1  0  0  0  0
 23 22  1  1  0  0  0
 25 24  1  1  0  0  0
 25 23  1  0  0  0  0
 26 25  1  0  0  0  0
 27 26  1  0  0  0  0
 28 27  2  0  0  0  0
 29 27  1  0  0  0  0
 30 31  1  0  0  0  0
M  END
>  <MODEL>
6

>  <REMARK>
 VINA RESULT:      -8.4      3.656      7.748
  Name = 
  6 active torsions:
  status: ('A' for Active; 'I' for Inactive)
    1  A    between atoms: C_1  and  O_24
    2  A    between atoms: C_2  and  C_13
    3  A    between atoms: C_9  and  C_22
    4  A    between atoms: C_15  and  N_23
    5  A    between atoms: C_19  and  C_22
    6  A    between atoms: C_19  and  O_24
                            x       y       z     vdW  Elec       q    Type
                         _______ _______ _______ _____ _____    ______ ____

>  <TORSDO>
F 6

$$$$
=
 OpenBabel11052413173D

 31 34  0  0  1  0  0  0  0  0999 V2000
  188.2990  177.3450  144.4540 C   0  0  0  0  0  0  0  0  0  0  0  0
  187.0930  177.9100  144.9440 C   0  0  0  0  0  0  0  0  0  0  0  0
  185.7740  178.7550  146.7280 C   0  0  0  0  0  3  0  0  0  0  0  0
  189.4210  177.0400  145.2670 C   0  0  0  0  0  0  0  0  0  0  0  0
  191.3870  177.1130  146.8800 C   0  0  2  0  0  3  0  0  0  0  0  0
  186.9280  178.2140  146.2590 N   0  0  0  0  0  0  0  0  0  0  0  0
  189.5560  176.4950  142.5140 C   0  0  0  0  0  0  0  0  0  0  0  0
  186.1760  177.8630  142.6990 C   0  0  0  0  0  3  0  0  0  0  0  0
  184.7450  179.0060  145.8780 N   0  0  0  0  0  2  0  0  0  0  0  0
  190.6480  176.2270  143.3490 C   0  0  0  0  0  3  0  0  0  0  0  0
  188.3860  177.0570  143.0600 C   0  0  0  0  0  0  0  0  0  0  0  0
  189.5750  177.2930  147.0330 S   0  0  0  0  0  0  0  0  0  0  0  0
  183.8730  178.9710  143.7920 O   0  0  0  0  0  0  0  0  0  0  0  0
  190.5680  176.5110  144.7060 C   0  0  0  0  0  0  0  0  0  0  0  0
  191.6920  176.2800  145.6420 C   0  0  0  0  0  2  0  0  0  0  0  0
  187.3320  177.3240  142.2420 N   0  0  0  0  0  0  0  0  0  0  0  0
  186.0300  178.1670  144.0520 C   0  0  0  0  0  0  0  0  0  0  0  0
  184.8470  178.7260  144.5540 C   0  0  0  0  0  0  0  0  0  0  0  0
  191.5110  177.4570  140.5200 O   0  0  0  0  0  0  0  0  0  0  0  0
  190.5740  176.6980  140.1610 C   0  0  0  0  0  0  0  0  0  0  0  0
  189.6080  176.2130  141.1070 N   0  0  0  0  0  2  0  0  0  0  0  0
  191.7060  176.7530  137.9550 C   0  0  0  0  0  1  0  0  0  0  0  0
  190.4750  176.2960  138.7260 C   0  0  2  0  0  3  0  0  0  0  0  0
  188.5100  175.6980  137.2910 C   0  0  0  0  0  1  0  0  0  0  0  0
  189.1730  176.8000  138.1000 C   0  0  2  0  0  3  0  0  0  0  0  0
  189.4090  177.9420  137.2810 O   0  0  0  0  0  0  0  0  0  0  0  0
  188.5740  179.0610  137.2990 C   0  0  0  0  0  0  0  0  0  0  0  0
  189.0520  180.2220  137.4000 O   0  0  0  0  0  1  0  0  0  0  0  0
  187.2000  178.8910  137.1990 O   0  0  0  0  0  0  0  0  0  0  0  0
  191.9600  176.4380  148.1100 C   0  0  0  0  0  2  0  0  0  0  0  0
  192.5780  175.2540  147.7530 F   0  0  0  0  0  0  0  0  0  0  0  0
  1  2  1  0  0  0  0
  1  4  1  0  0  0  0
  2  6  1  0  0  0  0
  4 12  1  0  0  0  0
  5 12  1  0  0  0  0
  5 30  1  1  0  0  0
  6  3  2  0  0  0  0
  7 11  1  0  0  0  0
  7 10  2  0  0  0  0
  8 17  1  0  0  0  0
  9  3  1  0  0  0  0
 10 14  1  0  0  0  0
 11  1  2  0  0  0  0
 13 18  2  0  0  0  0
 14  4  2  0  0  0  0
 14 15  1  0  0  0  0
 15  5  1  0  0  0  0
 16  8  2  0  0  0  0
 16 11  1  0  0  0  0
 17 18  1  0  0  0  0
 17  2  2  0  0  0  0
 18  9  1  0  0  0  0
 20 19  2  0  0  0  0
 20 21  1  0  0  0  0
 21  7  1  0  0  0  0
 23 22  1  6  0  0  0
 23 20  1  0  0  0  0
 25 24  1  6  0  0  0
 25 23  1  0  0  0  0
 26 27  1  0  0  0  0
 26 25  1  0  0  0  0
 27 28  1  0  0  0  0
 29 27  2  0  0  0  0
 31 30  1  0  0  0  0
M  END
>  <MODEL>
7

>  <REMARK>
 VINA RESULT:      -8.4      1.632      2.092
  Name = 
  6 active torsions:
  status: ('A' for Active; 'I' for Inactive)
    1  A    between atoms: C_1  and  O_24
    2  A    between atoms: C_2  and  C_13
    3  A    between atoms: C_9  and  C_22
    4  A    between atoms: C_15  and  N_23
    5  A    between atoms: C_19  and  C_22
    6  A    between atoms: C_19  and  O_24
                            x       y       z     vdW  Elec       q    Type
                         _______ _______ _______ _____ _____    ______ ____

>  <TORSDO>
F 6

$$$$
=
 OpenBabel11052413173D

 31 34  0  0  1  0  0  0  0  0999 V2000
  186.6050  178.1300  142.2360 C   0  0  0  0  0  0  0  0  0  0  0  0
  185.3560  178.5150  142.7890 C   0  0  0  0  0  0  0  0  0  0  0  0
  183.1460  179.3440  142.5410 C   0  0  0  0  0  3  0  0  0  0  0  0
  186.9150  178.1970  140.8520 C   0  0  0  0  0  0  0  0  0  0  0  0
  186.9480  177.9460  138.3210 C   0  0  2  0  0  3  0  0  0  0  0  0
  184.3400  178.9770  142.0110 N   0  0  0  0  0  2  0  0  0  0  0  0
  188.8750  177.2630  142.6350 C   0  0  0  0  0  0  0  0  0  0  0  0
  186.1790  177.9500  145.0000 C   0  0  0  0  0  3  0  0  0  0  0  0
  182.9380  179.2570  143.8800 N   0  0  0  0  0  0  0  0  0  0  0  0
  189.1330  177.3250  141.2610 C   0  0  0  0  0  3  0  0  0  0  0  0
  187.6140  177.6580  143.1240 C   0  0  0  0  0  0  0  0  0  0  0  0
  185.8410  178.7520  139.5320 S   0  0  0  0  0  0  0  0  0  0  0  0
  183.6870  178.7350  145.9490 O   0  0  0  0  0  0  0  0  0  0  0  0
  188.1500  177.7810  140.3910 C   0  0  0  0  0  0  0  0  0  0  0  0
  188.3420  177.8480  138.9250 C   0  0  0  0  0  2  0  0  0  0  0  0
  187.3680  177.5860  144.4600 N   0  0  0  0  0  0  0  0  0  0  0  0
  185.1510  178.4200  144.1820 C   0  0  0  0  0  0  0  0  0  0  0  0
  183.9120  178.8040  144.7110 C   0  0  0  0  0  0  0  0  0  0  0  0
  190.5960  178.8490  144.4370 O   0  0  0  0  0  0  0  0  0  0  0  0
  190.6930  177.5940  144.4230 C   0  0  0  0  0  0  0  0  0  0  0  0
  189.8710  176.7960  143.5590 N   0  0  0  0  0  2  0  0  0  0  0  0
  191.9710  175.5130  144.8590 C   0  0  0  0  0  1  0  0  0  0  0  0
  191.6820  176.9330  145.3280 C   0  0  2  0  0  3  0  0  0  0  0  0
  192.0010  175.9920  147.6280 C   0  0  0  0  0  1  0  0  0  0  0  0
  191.2170  176.9840  146.7840 C   0  0  2  0  0  3  0  0  0  0  0  0
  189.8200  176.7240  146.8850 O   0  0  0  0  0  0  0  0  0  0  0  0
  189.0040  177.3710  147.8150 C   0  0  0  0  0  0  0  0  0  0  0  0
  187.8110  177.0060  147.9920 O   0  0  0  0  0  0  0  0  0  0  0  0
  189.5160  178.4240  148.5590 O   0  0  0  0  0  1  0  0  0  0  0  0
  186.9990  178.7440  137.0330 C   0  0  0  0  0  2  0  0  0  0  0  0
  188.2590  179.2890  136.8660 F   0  0  0  0  0  0  0  0  0  0  0  0
  1  2  2  0  0  0  0
  1 11  1  0  0  0  0
  2 17  1  0  0  0  0
  3  9  2  0  0  0  0
  4  1  1  0  0  0  0
  5 30  1  6  0  0  0
  5 15  1  0  0  0  0
  5 12  1  0  0  0  0
  6  3  1  0  0  0  0
  6  2  1  0  0  0  0
  7 11  1  0  0  0  0
  7 21  1  0  0  0  0
  9 18  1  0  0  0  0
 10  7  2  0  0  0  0
 11 16  2  0  0  0  0
 12  4  1  0  0  0  0
 14  4  2  0  0  0  0
 14 10  1  0  0  0  0
 15 14  1  0  0  0  0
 16  8  1  0  0  0  0
 17 18  1  0  0  0  0
 17  8  2  0  0  0  0
 18 13  2  0  0  0  0
 20 19  2  0  0  0  0
 20 23  1  0  0  0  0
 21 20  1  0  0  0  0
 23 22  1  6  0  0  0
 23 25  1  0  0  0  0
 25 26  1  0  0  0  0
 25 24  1  1  0  0  0
 26 27  1  0  0  0  0
 27 28  2  0  0  0  0
 27 29  1  0  0  0  0
 31 30  1  0  0  0  0
M  END
>  <MODEL>
8

>  <REMARK>
 VINA RESULT:      -8.3      3.720      6.774
  Name = 
  6 active torsions:
  status: ('A' for Active; 'I' for Inactive)
    1  A    between atoms: C_1  and  O_24
    2  A    between atoms: C_2  and  C_13
    3  A    between atoms: C_9  and  C_22
    4  A    between atoms: C_15  and  N_23
    5  A    between atoms: C_19  and  C_22
    6  A    between atoms: C_19  and  O_24
                            x       y       z     vdW  Elec       q    Type
                         _______ _______ _______ _____ _____    ______ ____

>  <TORSDO>
F 6

$$$$
=
 OpenBabel11052413173D

 31 34  0  0  1  0  0  0  0  0999 V2000
  188.3300  177.7750  143.7040 C   0  0  0  0  0  0  0  0  0  0  0  0
  188.9060  177.4480  144.9590 C   0  0  0  0  0  0  0  0  0  0  0  0
  188.7310  177.1660  147.3090 C   0  0  0  0  0  3  0  0  0  0  0  0
  186.9780  178.1670  143.5280 C   0  0  0  0  0  0  0  0  0  0  0  0
  184.4380  178.3100  143.5030 C   0  0  2  0  0  3  0  0  0  0  0  0
  188.1800  177.4790  146.1090 N   0  0  0  0  0  2  0  0  0  0  0  0
  188.6510  178.0320  141.2750 C   0  0  0  0  0  0  0  0  0  0  0  0
  191.0300  177.0400  143.8620 C   0  0  0  0  0  3  0  0  0  0  0  0
  190.0390  176.8090  147.3870 N   0  0  0  0  0  0  0  0  0  0  0  0
  187.3060  178.3940  141.1440 C   0  0  0  0  0  3  0  0  0  0  0  0
  189.1640  177.7160  142.5490 C   0  0  0  0  0  0  0  0  0  0  0  0
  185.7270  178.3270  144.7990 S   0  0  0  0  0  0  0  0  0  0  0  0
  192.0280  176.4240  146.3830 O   0  0  0  0  0  0  0  0  0  0  0  0
  186.4890  178.4480  142.2660 C   0  0  0  0  0  0  0  0  0  0  0  0
  185.0520  178.7970  142.1980 C   0  0  0  0  0  2  0  0  0  0  0  0
  190.4700  177.3550  142.6690 N   0  0  0  0  0  0  0  0  0  0  0  0
  190.2660  177.0780  145.0280 C   0  0  0  0  0  0  0  0  0  0  0  0
  190.8170  176.7580  146.2760 C   0  0  0  0  0  0  0  0  0  0  0  0
  188.2060  176.6450  138.7060 O   0  0  0  0  0  0  0  0  0  0  0  0
  189.2740  177.2820  138.8960 C   0  0  0  0  0  0  0  0  0  0  0  0
  189.5200  177.9660  140.1340 N   0  0  0  0  0  2  0  0  0  0  0  0
  189.6340  177.5700  136.4590 C   0  0  0  0  0  1  0  0  0  0  0  0
  190.2970  177.3250  137.8070 C   0  0  2  0  0  3  0  0  0  0  0  0
  192.6370  176.4280  137.8430 C   0  0  0  0  0  1  0  0  0  0  0  0
  191.1620  176.0630  137.8130 C   0  0  2  0  0  3  0  0  0  0  0  0
  190.8770  175.2430  136.6820 O   0  0  0  0  0  0  0  0  0  0  0  0
  190.6750  173.8660  136.7880 C   0  0  0  0  0  0  0  0  0  0  0  0
  191.5780  173.0530  136.4550 O   0  0  0  0  0  0  0  0  0  0  0  0
  189.4660  173.3880  137.2730 O   0  0  0  0  0  1  0  0  0  0  0  0
  183.2790  179.2050  143.8940 C   0  0  0  0  0  2  0  0  0  0  0  0
  182.2270  178.4380  144.3590 F   0  0  0  0  0  0  0  0  0  0  0  0
  1  2  2  0  0  0  0
  2 17  1  0  0  0  0
  2  6  1  0  0  0  0
  3  9  2  0  0  0  0
  4  1  1  0  0  0  0
  4 12  1  0  0  0  0
  5 30  1  1  0  0  0
  5 12  1  0  0  0  0
  6  3  1  0  0  0  0
  7 11  1  0  0  0  0
  8 17  2  0  0  0  0
 10  7  2  0  0  0  0
 10 14  1  0  0  0  0
 11 16  2  0  0  0  0
 11  1  1  0  0  0  0
 14  4  2  0  0  0  0
 15 14  1  0  0  0  0
 15  5  1  0  0  0  0
 16  8  1  0  0  0  0
 17 18  1  0  0  0  0
 18 13  2  0  0  0  0
 18  9  1  0  0  0  0
 19 20  2  0  0  0  0
 20 21  1  0  0  0  0
 21  7  1  0  0  0  0
 23 22  1  6  0  0  0
 23 25  1  0  0  0  0
 23 20  1  0  0  0  0
 25 24  1  6  0  0  0
 26 27  1  0  0  0  0
 26 25  1  0  0  0  0
 27 29  1  0  0  0  0
 28 27  2  0  0  0  0
 30 31  1  0  0  0  0
M  END
>  <MODEL>
9

>  <REMARK>
 VINA RESULT:      -8.2      3.813      5.590
  Name = 
  6 active torsions:
  status: ('A' for Active; 'I' for Inactive)
    1  A    between atoms: C_1  and  O_24
    2  A    between atoms: C_2  and  C_13
    3  A    between atoms: C_9  and  C_22
    4  A    between atoms: C_15  and  N_23
    5  A    between atoms: C_19  and  C_22
    6  A    between atoms: C_19  and  O_24
                            x       y       z     vdW  Elec       q    Type
                         _______ _______ _______ _____ _____    ______ ____

>  <TORSDO>
F 6

$$$$
