=
 OpenBabel11052414093D

 34 38  0  0  1  0  0  0  0  0999 V2000
  187.3860  177.6730  146.7160 C   0  0  0  0  0  0  0  0  0  0  0  0
  189.5350  177.0680  145.6480 O   0  0  0  0  0  0  0  0  0  0  0  0
  187.6430  177.7490  144.2830 C   0  0  0  0  0  0  0  0  0  0  0  0
  187.9910  178.3650  141.8070 C   0  0  1  0  0  3  0  0  0  0  0  0
  189.1940  178.2430  148.3120 C   0  0  0  0  0  2  0  0  0  0  0  0
  190.4090  177.4110  147.9030 C   0  0  0  0  0  2  0  0  0  0  0  0
  189.5400  176.9980  143.0350 O   0  0  0  0  0  0  0  0  0  0  0  0
  188.1930  177.4820  145.5630 C   0  0  0  0  0  0  0  0  0  0  0  0
  187.8900  177.4830  148.1130 C   0  0  0  0  0  2  0  0  0  0  0  0
  186.2940  178.1560  144.1620 C   0  0  0  0  0  0  0  0  0  0  0  0
  186.0660  178.0960  146.5770 C   0  0  0  0  0  3  0  0  0  0  0  0
  190.1180  176.4220  146.7760 C   0  0  0  0  0  2  0  0  0  0  0  0
  186.4960  178.4500  141.7370 C   0  0  0  0  0  3  0  0  0  0  0  0
  185.6960  178.3960  142.8120 C   0  0  0  0  0  0  0  0  0  0  0  0
  188.4500  177.6340  143.0440 C   0  0  0  0  0  0  0  0  0  0  0  0
  185.5270  178.3320  145.3180 C   0  0  0  0  0  3  0  0  0  0  0  0
  182.2800  178.3700  141.1450 C   0  0  0  0  0  0  0  0  0  0  0  0
  181.4580  178.7860  142.1940 C   0  0  0  0  0  3  0  0  0  0  0  0
  184.2280  178.5110  142.5980 C   0  0  0  0  0  0  0  0  0  0  0  0
  182.0130  179.0710  143.4440 C   0  0  0  0  0  3  0  0  0  0  0  0
  183.6560  178.2380  141.3450 C   0  0  0  0  0  3  0  0  0  0  0  0
  183.3900  178.9380  143.6430 C   0  0  0  0  0  3  0  0  0  0  0  0
  181.7300  178.0890  139.9010 O   0  0  0  0  0  1  0  0  0  0  0  0
  188.5110  177.7360  140.5230 C   0  0  0  0  0  2  0  0  0  0  0  0
  188.6740  178.7540  139.5000 N   0  0  0  0  0  2  0  0  0  0  0  0
  188.9010  178.0560  138.2480 C   0  0  0  0  0  2  0  0  0  0  0  0
  187.8750  178.4950  137.2130 C   0  0  0  0  0  2  0  0  0  0  0  0
  185.4640  179.1100  138.4320 O   0  0  0  0  0  0  0  0  0  0  0  0
  186.7110  177.6140  137.2330 N   0  0  0  0  0  0  0  0  0  0  0  0
  185.5500  177.9930  137.8530 C   0  0  0  0  0  0  0  0  0  0  0  0
  184.5340  175.9020  137.2170 C   0  0  0  0  0  3  0  0  0  0  0  0
  185.7220  175.5290  136.5900 C   0  0  0  0  0  3  0  0  0  0  0  0
  186.8080  176.4070  136.6090 C   0  0  0  0  0  3  0  0  0  0  0  0
  184.4440  177.1390  137.8520 C   0  0  0  0  0  3  0  0  0  0  0  0
  1  9  1  0  0  0  0
  2 12  1  0  0  0  0
  3  8  1  0  0  0  0
  4 24  1  6  0  0  0
  4 15  1  0  0  0  0
  6  5  1  0  0  0  0
  7 15  2  0  0  0  0
  8  2  1  0  0  0  0
  8  1  2  0  0  0  0
  9  5  1  0  0  0  0
 10  3  2  0  0  0  0
 10 16  1  0  0  0  0
 11  1  1  0  0  0  0
 12  6  1  0  0  0  0
 13  4  1  0  0  0  0
 13 14  2  0  0  0  0
 14 10  1  0  0  0  0
 15  3  1  0  0  0  0
 16 11  2  0  0  0  0
 17 21  2  0  0  0  0
 17 18  1  0  0  0  0
 18 20  2  0  0  0  0
 19 14  1  0  0  0  0
 19 22  2  0  0  0  0
 20 22  1  0  0  0  0
 21 19  1  0  0  0  0
 23 17  1  0  0  0  0
 25 24  1  0  0  0  0
 26 25  1  0  0  0  0
 27 29  1  0  0  0  0
 27 26  1  0  0  0  0
 29 30  1  0  0  0  0
 30 28  2  0  0  0  0
 31 34  2  0  0  0  0
 32 33  2  0  0  0  0
 32 31  1  0  0  0  0
 33 29  1  0  0  0  0
 34 30  1  0  0  0  0
M  END
>  <MODEL>
1

>  <REMARK>
 VINA RESULT:     -10.4      0.000      0.000
  Name = 
  6 active torsions:
  status: ('A' for Active; 'I' for Inactive)
    1  A    between atoms: C_3  and  N_13
    2  A    between atoms: C_3  and  C_17
    3  A    between atoms: C_5  and  C_18
    4  A    between atoms: C_12  and  C_28
    5  A    between atoms: C_17  and  N_29
    6  A    between atoms: C_18  and  N_29
                            x       y       z     vdW  Elec       q    Type
                         _______ _______ _______ _____ _____    ______ ____

>  <TORSDO>
F 6

$$$$
=
 OpenBabel11052414093D

 34 38  0  0  1  0  0  0  0  0999 V2000
  187.2480  177.8160  146.8880 C   0  0  0  0  0  0  0  0  0  0  0  0
  189.3680  177.1400  145.8050 O   0  0  0  0  0  0  0  0  0  0  0  0
  187.4650  177.8080  144.4500 C   0  0  0  0  0  0  0  0  0  0  0  0
  187.7800  178.3360  141.9490 C   0  0  1  0  0  3  0  0  0  0  0  0
  189.0930  178.4060  148.4330 C   0  0  0  0  0  2  0  0  0  0  0  0
  190.2870  177.5410  148.0320 C   0  0  0  0  0  2  0  0  0  0  0  0
  189.3270  176.9840  143.1960 O   0  0  0  0  0  0  0  0  0  0  0  0
  188.0320  177.5730  145.7280 C   0  0  0  0  0  0  0  0  0  0  0  0
  187.7730  177.6630  148.2820 C   0  0  0  0  0  2  0  0  0  0  0  0
  186.1210  178.2340  144.3380 C   0  0  0  0  0  0  0  0  0  0  0  0
  185.9340  178.2570  146.7570 C   0  0  0  0  0  3  0  0  0  0  0  0
  189.9600  176.5210  146.9430 C   0  0  0  0  0  2  0  0  0  0  0  0
  186.2850  178.4440  141.9010 C   0  0  0  0  0  3  0  0  0  0  0  0
  185.5030  178.4400  142.9910 C   0  0  0  0  0  0  0  0  0  0  0  0
  188.2480  177.6380  143.2010 C   0  0  0  0  0  0  0  0  0  0  0  0
  185.3770  178.4610  145.5000 C   0  0  0  0  0  3  0  0  0  0  0  0
  182.0810  178.6080  141.3440 C   0  0  0  0  0  0  0  0  0  0  0  0
  181.2610  178.8820  142.4410 C   0  0  0  0  0  3  0  0  0  0  0  0
  184.0350  178.5730  142.7980 C   0  0  0  0  0  0  0  0  0  0  0  0
  181.8200  179.0080  143.7150 C   0  0  0  0  0  3  0  0  0  0  0  0
  183.4590  178.4590  141.5220 C   0  0  0  0  0  3  0  0  0  0  0  0
  183.1980  178.8590  143.8920 C   0  0  0  0  0  3  0  0  0  0  0  0
  181.5280  178.4850  140.0770 O   0  0  0  0  0  1  0  0  0  0  0  0
  188.2670  177.6570  140.6780 C   0  0  0  0  0  2  0  0  0  0  0  0
  188.5640  178.6520  139.6630 N   0  0  0  0  0  2  0  0  0  0  0  0
  189.4780  178.0320  138.7230 C   0  0  0  0  0  2  0  0  0  0  0  0
  190.6800  177.4630  139.4620 C   0  0  0  0  0  2  0  0  0  0  0  0
  193.4320  177.2300  139.2480 O   0  0  0  0  0  0  0  0  0  0  0  0
  191.3640  176.4640  138.6470 N   0  0  0  0  0  0  0  0  0  0  0  0
  192.7310  176.4090  138.5970 C   0  0  0  0  0  0  0  0  0  0  0  0
  192.5960  174.5300  137.0940 C   0  0  0  0  0  3  0  0  0  0  0  0
  191.2050  174.5970  137.1530 C   0  0  0  0  0  3  0  0  0  0  0  0
  190.6030  175.5790  137.9420 C   0  0  0  0  0  3  0  0  0  0  0  0
  193.3660  175.4380  137.8180 C   0  0  0  0  0  3  0  0  0  0  0  0
  1  9  1  0  0  0  0
  2 12  1  0  0  0  0
  3  8  1  0  0  0  0
  4 24  1  6  0  0  0
  4 15  1  0  0  0  0
  6  5  1  0  0  0  0
  7 15  2  0  0  0  0
  8  2  1  0  0  0  0
  8  1  2  0  0  0  0
  9  5  1  0  0  0  0
 10  3  2  0  0  0  0
 10 16  1  0  0  0  0
 11  1  1  0  0  0  0
 12  6  1  0  0  0  0
 13  4  1  0  0  0  0
 13 14  2  0  0  0  0
 14 10  1  0  0  0  0
 15  3  1  0  0  0  0
 16 11  2  0  0  0  0
 17 21  2  0  0  0  0
 17 18  1  0  0  0  0
 18 20  2  0  0  0  0
 19 14  1  0  0  0  0
 19 22  2  0  0  0  0
 20 22  1  0  0  0  0
 21 19  1  0  0  0  0
 23 17  1  0  0  0  0
 25 24  1  0  0  0  0
 26 27  1  0  0  0  0
 26 25  1  0  0  0  0
 29 27  1  0  0  0  0
 30 29  1  0  0  0  0
 30 28  2  0  0  0  0
 31 32  1  0  0  0  0
 31 34  2  0  0  0  0
 32 33  2  0  0  0  0
 33 29  1  0  0  0  0
 34 30  1  0  0  0  0
M  END
>  <MODEL>
2

>  <REMARK>
 VINA RESULT:     -10.3      2.100      3.260
  Name = 
  6 active torsions:
  status: ('A' for Active; 'I' for Inactive)
    1  A    between atoms: C_3  and  N_13
    2  A    between atoms: C_3  and  C_17
    3  A    between atoms: C_5  and  C_18
    4  A    between atoms: C_12  and  C_28
    5  A    between atoms: C_17  and  N_29
    6  A    between atoms: C_18  and  N_29
                            x       y       z     vdW  Elec       q    Type
                         _______ _______ _______ _____ _____    ______ ____

>  <TORSDO>
F 6

$$$$
=
 OpenBabel11052414093D

 34 38  0  0  1  0  0  0  0  0999 V2000
  181.8970  178.9310  142.6190 C   0  0  0  0  0  0  0  0  0  0  0  0
  182.6220  179.3290  140.2870 O   0  0  0  0  0  0  0  0  0  0  0  0
  184.2600  178.7920  141.9990 C   0  0  0  0  0  0  0  0  0  0  0  0
  186.6510  178.1070  141.3310 C   0  0  1  0  0  3  0  0  0  0  0  0
  180.0390  178.2330  141.1360 C   0  0  0  0  0  2  0  0  0  0  0  0
  180.2580  178.9490  139.8040 C   0  0  0  0  0  2  0  0  0  0  0  0
  185.2030  179.3550  139.8740 O   0  0  0  0  0  0  0  0  0  0  0  0
  182.9120  179.0320  141.6310 C   0  0  0  0  0  0  0  0  0  0  0  0
  180.4390  179.0990  142.3210 C   0  0  0  0  0  2  0  0  0  0  0  0
  184.5870  178.5010  143.3440 C   0  0  0  0  0  0  0  0  0  0  0  0
  182.2370  178.6210  143.9340 C   0  0  0  0  0  3  0  0  0  0  0  0
  181.4200  179.9400  139.8290 C   0  0  0  0  0  2  0  0  0  0  0  0
  186.9520  178.1510  142.7990 C   0  0  0  0  0  3  0  0  0  0  0  0
  186.0130  178.2920  143.7460 C   0  0  0  0  0  0  0  0  0  0  0  0
  185.3610  178.8160  141.0040 C   0  0  0  0  0  0  0  0  0  0  0  0
  183.5630  178.4110  144.2920 C   0  0  0  0  0  3  0  0  0  0  0  0
  187.9200  177.5040  146.9390 C   0  0  0  0  0  0  0  0  0  0  0  0
  187.2330  178.2860  147.8700 C   0  0  0  0  0  3  0  0  0  0  0  0
  186.4510  178.3010  145.1680 C   0  0  0  0  0  0  0  0  0  0  0  0
  186.1530  179.0710  147.4600 C   0  0  0  0  0  3  0  0  0  0  0  0
  187.5280  177.5090  145.5980 C   0  0  0  0  0  3  0  0  0  0  0  0
  185.7620  179.0750  146.1180 C   0  0  0  0  0  3  0  0  0  0  0  0
  188.9920  176.7220  147.3460 O   0  0  0  0  0  1  0  0  0  0  0  0
  187.8420  178.6680  140.5660 C   0  0  0  0  0  2  0  0  0  0  0  0
  188.5070  177.6050  139.8320 N   0  0  0  0  0  2  0  0  0  0  0  0
  189.9270  177.7410  140.0950 C   0  0  0  0  0  2  0  0  0  0  0  0
  190.4180  176.5660  140.9270 C   0  0  0  0  0  2  0  0  0  0  0  0
  190.5300  174.8630  143.1090 O   0  0  0  0  0  0  0  0  0  0  0  0
  190.7250  176.9890  142.2890 N   0  0  0  0  0  0  0  0  0  0  0  0
  190.7670  176.0840  143.3170 C   0  0  0  0  0  0  0  0  0  0  0  0
  191.3310  177.8570  144.8490 C   0  0  0  0  0  3  0  0  0  0  0  0
  191.2840  178.7670  143.7940 C   0  0  0  0  0  3  0  0  0  0  0  0
  190.9770  178.3100  142.5120 C   0  0  0  0  0  3  0  0  0  0  0  0
  191.0720  176.5080  144.6130 C   0  0  0  0  0  3  0  0  0  0  0  0
  1 11  1  0  0  0  0
  2  8  1  0  0  0  0
  3 10  2  0  0  0  0
  4 24  1  6  0  0  0
  4 13  1  0  0  0  0
  5  9  1  0  0  0  0
  6 12  1  0  0  0  0
  6  5  1  0  0  0  0
  7 15  2  0  0  0  0
  8  3  1  0  0  0  0
  8  1  2  0  0  0  0
  9  1  1  0  0  0  0
 10 14  1  0  0  0  0
 10 16  1  0  0  0  0
 11 16  2  0  0  0  0
 12  2  1  0  0  0  0
 13 14  2  0  0  0  0
 14 19  1  0  0  0  0
 15  4  1  0  0  0  0
 15  3  1  0  0  0  0
 17 23  1  0  0  0  0
 17 18  1  0  0  0  0
 19 21  1  0  0  0  0
 19 22  2  0  0  0  0
 20 18  2  0  0  0  0
 21 17  2  0  0  0  0
 22 20  1  0  0  0  0
 25 26  1  0  0  0  0
 25 24  1  0  0  0  0
 26 27  1  0  0  0  0
 27 29  1  0  0  0  0
 28 30  2  0  0  0  0
 29 33  1  0  0  0  0
 29 30  1  0  0  0  0
 30 34  1  0  0  0  0
 32 31  1  0  0  0  0
 33 32  2  0  0  0  0
 34 31  2  0  0  0  0
M  END
>  <MODEL>
3

>  <REMARK>
 VINA RESULT:     -10.3      2.265      7.054
  Name = 
  6 active torsions:
  status: ('A' for Active; 'I' for Inactive)
    1  A    between atoms: C_3  and  N_13
    2  A    between atoms: C_3  and  C_17
    3  A    between atoms: C_5  and  C_18
    4  A    between atoms: C_12  and  C_28
    5  A    between atoms: C_17  and  N_29
    6  A    between atoms: C_18  and  N_29
                            x       y       z     vdW  Elec       q    Type
                         _______ _______ _______ _____ _____    ______ ____

>  <TORSDO>
F 6

$$$$
=
 OpenBabel11052414093D

 34 38  0  0  1  0  0  0  0  0999 V2000
  187.3030  177.7360  146.7770 C   0  0  0  0  0  0  0  0  0  0  0  0
  189.4790  177.1070  145.7810 O   0  0  0  0  0  0  0  0  0  0  0  0
  187.6240  177.7550  144.3510 C   0  0  0  0  0  0  0  0  0  0  0  0
  188.0360  178.3130  141.8710 C   0  0  1  0  0  3  0  0  0  0  0  0
  189.0680  178.3430  148.4060 C   0  0  0  0  0  2  0  0  0  0  0  0
  190.2930  177.5020  148.0490 C   0  0  0  0  0  2  0  0  0  0  0  0
  189.5520  176.9760  143.1710 O   0  0  0  0  0  0  0  0  0  0  0  0
  188.1400  177.5180  145.6500 C   0  0  0  0  0  0  0  0  0  0  0  0
  187.7700  177.5790  148.1910 C   0  0  0  0  0  2  0  0  0  0  0  0
  186.2790  178.1590  144.1850 C   0  0  0  0  0  0  0  0  0  0  0  0
  185.9870  178.1550  146.5940 C   0  0  0  0  0  3  0  0  0  0  0  0
  190.0320  176.4880  146.9370 C   0  0  0  0  0  2  0  0  0  0  0  0
  186.5440  178.3960  141.7590 C   0  0  0  0  0  3  0  0  0  0  0  0
  185.7160  178.3670  142.8140 C   0  0  0  0  0  0  0  0  0  0  0  0
  188.4630  177.6110  143.1360 C   0  0  0  0  0  0  0  0  0  0  0  0
  185.4820  178.3620  145.3160 C   0  0  0  0  0  3  0  0  0  0  0  0
  182.3510  178.3550  141.0460 C   0  0  0  0  0  0  0  0  0  0  0  0
  181.4950  178.7420  142.0790 C   0  0  0  0  0  3  0  0  0  0  0  0
  184.2550  178.4770  142.5600 C   0  0  0  0  0  0  0  0  0  0  0  0
  182.0110  179.0030  143.3510 C   0  0  0  0  0  3  0  0  0  0  0  0
  183.7220  178.2280  141.2840 C   0  0  0  0  0  3  0  0  0  0  0  0
  183.3830  178.8750  143.5880 C   0  0  0  0  0  3  0  0  0  0  0  0
  181.8410  178.0980  139.7810 O   0  0  0  0  0  1  0  0  0  0  0  0
  188.5900  177.6540  140.6160 C   0  0  0  0  0  2  0  0  0  0  0  0
  188.6820  178.6270  139.5420 N   0  0  0  0  0  2  0  0  0  0  0  0
  189.4420  178.0030  138.4750 C   0  0  0  0  0  2  0  0  0  0  0  0
  189.5360  176.5030  138.7110 C   0  0  0  0  0  2  0  0  0  0  0  0
  189.8970  174.0400  137.4940 O   0  0  0  0  0  0  0  0  0  0  0  0
  190.8230  175.9870  138.2560 N   0  0  0  0  0  0  0  0  0  0  0  0
  190.9200  174.7590  137.6570 C   0  0  0  0  0  0  0  0  0  0  0  0
  193.2950  175.0780  137.4000 C   0  0  0  0  0  3  0  0  0  0  0  0
  193.1830  176.3250  138.0120 C   0  0  0  0  0  3  0  0  0  0  0  0
  191.9280  176.7660  138.4360 C   0  0  0  0  0  3  0  0  0  0  0  0
  192.1610  174.2880  137.2200 C   0  0  0  0  0  3  0  0  0  0  0  0
  1  9  1  0  0  0  0
  2 12  1  0  0  0  0
  3  8  1  0  0  0  0
  4 24  1  6  0  0  0
  4 15  1  0  0  0  0
  6  5  1  0  0  0  0
  8  2  1  0  0  0  0
  8  1  2  0  0  0  0
  9  5  1  0  0  0  0
 10  3  2  0  0  0  0
 10 16  1  0  0  0  0
 11  1  1  0  0  0  0
 12  6  1  0  0  0  0
 13  4  1  0  0  0  0
 13 14  2  0  0  0  0
 14 10  1  0  0  0  0
 15  7  2  0  0  0  0
 15  3  1  0  0  0  0
 16 11  2  0  0  0  0
 17 21  2  0  0  0  0
 17 18  1  0  0  0  0
 18 20  2  0  0  0  0
 19 14  1  0  0  0  0
 19 22  2  0  0  0  0
 20 22  1  0  0  0  0
 21 19  1  0  0  0  0
 23 17  1  0  0  0  0
 25 24  1  0  0  0  0
 26 27  1  0  0  0  0
 26 25  1  0  0  0  0
 28 30  2  0  0  0  0
 29 33  1  0  0  0  0
 29 27  1  0  0  0  0
 30 29  1  0  0  0  0
 31 32  1  0  0  0  0
 32 33  2  0  0  0  0
 34 31  2  0  0  0  0
 34 30  1  0  0  0  0
M  END
>  <MODEL>
4

>  <REMARK>
 VINA RESULT:     -10.2      2.166      3.206
  Name = 
  6 active torsions:
  status: ('A' for Active; 'I' for Inactive)
    1  A    between atoms: C_3  and  N_13
    2  A    between atoms: C_3  and  C_17
    3  A    between atoms: C_5  and  C_18
    4  A    between atoms: C_12  and  C_28
    5  A    between atoms: C_17  and  N_29
    6  A    between atoms: C_18  and  N_29
                            x       y       z     vdW  Elec       q    Type
                         _______ _______ _______ _____ _____    ______ ____

>  <TORSDO>
F 6

$$$$
=
 OpenBabel11052414093D

 34 38  0  0  1  0  0  0  0  0999 V2000
  184.0080  178.6920  142.5150 C   0  0  0  0  0  0  0  0  0  0  0  0
  184.9990  178.8270  140.2520 O   0  0  0  0  0  0  0  0  0  0  0  0
  186.3820  178.2190  142.1560 C   0  0  0  0  0  0  0  0  0  0  0  0
  188.7170  177.1980  141.7840 C   0  0  1  0  0  3  0  0  0  0  0  0
  182.2270  178.1220  140.8890 C   0  0  0  0  0  2  0  0  0  0  0  0
  182.6640  178.7060  139.5470 C   0  0  0  0  0  2  0  0  0  0  0  0
  187.5890  178.5040  140.1110 O   0  0  0  0  0  0  0  0  0  0  0  0
  185.1180  178.5950  141.6340 C   0  0  0  0  0  0  0  0  0  0  0  0
  182.6200  179.0170  142.0560 C   0  0  0  0  0  2  0  0  0  0  0  0
  186.5370  177.9890  143.5430 C   0  0  0  0  0  0  0  0  0  0  0  0
  184.1760  178.4410  143.8750 C   0  0  0  0  0  3  0  0  0  0  0  0
  183.9370  179.5460  139.6350 C   0  0  0  0  0  2  0  0  0  0  0  0
  188.8770  177.3120  143.2700 C   0  0  0  0  0  3  0  0  0  0  0  0
  187.8780  177.6360  144.1040 C   0  0  0  0  0  0  0  0  0  0  0  0
  187.5670  178.0350  141.2820 C   0  0  0  0  0  0  0  0  0  0  0  0
  185.4230  178.0960  144.3810 C   0  0  0  0  0  3  0  0  0  0  0  0
  189.7090  177.3910  147.4260 C   0  0  0  0  0  0  0  0  0  0  0  0
  188.7040  177.7590  148.3230 C   0  0  0  0  0  3  0  0  0  0  0  0
  188.1740  177.6950  145.5610 C   0  0  0  0  0  0  0  0  0  0  0  0
  187.4320  178.0900  147.8480 C   0  0  0  0  0  3  0  0  0  0  0  0
  189.4440  177.3560  146.0550 C   0  0  0  0  0  3  0  0  0  0  0  0
  187.1680  178.0540  146.4750 C   0  0  0  0  0  3  0  0  0  0  0  0
  190.9720  177.0600  147.8970 O   0  0  0  0  0  1  0  0  0  0  0  0
  190.0380  177.5500  141.1160 C   0  0  0  0  0  2  0  0  0  0  0  0
  190.6130  176.3700  140.4960 N   0  0  0  0  0  2  0  0  0  0  0  0
  190.9430  176.7330  139.1310 C   0  0  0  0  0  2  0  0  0  0  0  0
  190.0700  175.9540  138.1580 C   0  0  0  0  0  2  0  0  0  0  0  0
  187.5480  175.1410  137.3490 O   0  0  0  0  0  0  0  0  0  0  0  0
  189.0800  176.8280  137.5370 N   0  0  0  0  0  0  0  0  0  0  0  0
  187.8500  176.3520  137.1690 C   0  0  0  0  0  0  0  0  0  0  0  0
  187.2420  178.5470  136.3800 C   0  0  0  0  0  3  0  0  0  0  0  0
  188.4980  179.0180  136.7590 C   0  0  0  0  0  3  0  0  0  0  0  0
  189.4100  178.1370  137.3410 C   0  0  0  0  0  3  0  0  0  0  0  0
  186.9130  177.2080  136.5840 C   0  0  0  0  0  3  0  0  0  0  0  0
  1 11  1  0  0  0  0
  2  8  1  0  0  0  0
  3 10  2  0  0  0  0
  4 24  1  6  0  0  0
  4 13  1  0  0  0  0
  5  9  1  0  0  0  0
  6 12  1  0  0  0  0
  6  5  1  0  0  0  0
  7 15  2  0  0  0  0
  8  3  1  0  0  0  0
  8  1  2  0  0  0  0
  9  1  1  0  0  0  0
 10 14  1  0  0  0  0
 10 16  1  0  0  0  0
 11 16  2  0  0  0  0
 12  2  1  0  0  0  0
 13 14  2  0  0  0  0
 14 19  1  0  0  0  0
 15  4  1  0  0  0  0
 15  3  1  0  0  0  0
 17 23  1  0  0  0  0
 17 18  1  0  0  0  0
 19 21  1  0  0  0  0
 19 22  2  0  0  0  0
 20 18  2  0  0  0  0
 21 17  2  0  0  0  0
 22 20  1  0  0  0  0
 25 24  1  0  0  0  0
 26 25  1  0  0  0  0
 27 26  1  0  0  0  0
 29 27  1  0  0  0  0
 30 28  2  0  0  0  0
 30 29  1  0  0  0  0
 31 34  2  0  0  0  0
 31 32  1  0  0  0  0
 32 33  2  0  0  0  0
 33 29  1  0  0  0  0
 34 30  1  0  0  0  0
M  END
>  <MODEL>
5

>  <REMARK>
 VINA RESULT:     -10.1      1.688      5.886
  Name = 
  6 active torsions:
  status: ('A' for Active; 'I' for Inactive)
    1  A    between atoms: C_3  and  N_13
    2  A    between atoms: C_3  and  C_17
    3  A    between atoms: C_5  and  C_18
    4  A    between atoms: C_12  and  C_28
    5  A    between atoms: C_17  and  N_29
    6  A    between atoms: C_18  and  N_29
                            x       y       z     vdW  Elec       q    Type
                         _______ _______ _______ _____ _____    ______ ____

>  <TORSDO>
F 6

$$$$
=
 OpenBabel11052414093D

 34 38  0  0  1  0  0  0  0  0999 V2000
  187.2490  177.6880  146.6980 C   0  0  0  0  0  0  0  0  0  0  0  0
  189.4100  177.2170  145.5870 O   0  0  0  0  0  0  0  0  0  0  0  0
  187.4770  177.8750  144.2680 C   0  0  0  0  0  0  0  0  0  0  0  0
  187.7740  178.6070  141.8170 C   0  0  1  0  0  3  0  0  0  0  0  0
  189.0490  178.2650  148.3000 C   0  0  0  0  0  2  0  0  0  0  0  0
  190.2920  177.5020  147.8460 C   0  0  0  0  0  2  0  0  0  0  0  0
  189.3900  177.2570  142.9730 O   0  0  0  0  0  0  0  0  0  0  0  0
  188.0510  177.5780  145.5300 C   0  0  0  0  0  0  0  0  0  0  0  0
  187.7750  177.4610  148.0810 C   0  0  0  0  0  2  0  0  0  0  0  0
  186.1120  178.2310  144.1760 C   0  0  0  0  0  0  0  0  0  0  0  0
  185.9120  178.0610  146.5880 C   0  0  0  0  0  3  0  0  0  0  0  0
  190.0310  176.5500  146.6810 C   0  0  0  0  0  2  0  0  0  0  0  0
  186.2760  178.6330  141.7630 C   0  0  0  0  0  3  0  0  0  0  0  0
  185.4900  178.5010  142.8420 C   0  0  0  0  0  0  0  0  0  0  0  0
  188.2760  177.8450  143.0180 C   0  0  0  0  0  0  0  0  0  0  0  0
  185.3500  178.3270  145.3450 C   0  0  0  0  0  3  0  0  0  0  0  0
  182.0560  178.3370  141.2210 C   0  0  0  0  0  0  0  0  0  0  0  0
  181.2340  178.7410  142.2750 C   0  0  0  0  0  3  0  0  0  0  0  0
  184.0170  178.5650  142.6470 C   0  0  0  0  0  0  0  0  0  0  0  0
  181.7950  179.0630  143.5130 C   0  0  0  0  0  3  0  0  0  0  0  0
  183.4380  178.2540  141.4050 C   0  0  0  0  0  3  0  0  0  0  0  0
  183.1780  178.9790  143.6960 C   0  0  0  0  0  3  0  0  0  0  0  0
  181.5000  178.0190  139.9900 O   0  0  0  0  0  1  0  0  0  0  0  0
  188.3060  178.0540  140.5030 C   0  0  0  0  0  2  0  0  0  0  0  0
  187.3950  178.3800  139.4200 N   0  0  0  0  0  2  0  0  0  0  0  0
  187.9160  177.7390  138.2270 C   0  0  0  0  0  2  0  0  0  0  0  0
  189.4130  177.9870  138.1140 C   0  0  0  0  0  2  0  0  0  0  0  0
  190.7900  176.0040  139.4700 O   0  0  0  0  0  0  0  0  0  0  0  0
  190.0770  176.8570  137.4720 N   0  0  0  0  0  0  0  0  0  0  0  0
  190.7350  175.9120  138.2140 C   0  0  0  0  0  0  0  0  0  0  0  0
  191.3010  174.7280  136.1930 C   0  0  0  0  0  3  0  0  0  0  0  0
  190.6290  175.6970  135.4500 C   0  0  0  0  0  3  0  0  0  0  0  0
  190.0180  176.7620  136.1140 C   0  0  0  0  0  3  0  0  0  0  0  0
  191.3570  174.8330  137.5820 C   0  0  0  0  0  3  0  0  0  0  0  0
  1  9  1  0  0  0  0
  2 12  1  0  0  0  0
  3  8  1  0  0  0  0
  4 24  1  6  0  0  0
  4 15  1  0  0  0  0
  6  5  1  0  0  0  0
  7 15  2  0  0  0  0
  8  2  1  0  0  0  0
  8  1  2  0  0  0  0
  9  5  1  0  0  0  0
 10  3  2  0  0  0  0
 10 16  1  0  0  0  0
 11  1  1  0  0  0  0
 12  6  1  0  0  0  0
 13  4  1  0  0  0  0
 13 14  2  0  0  0  0
 14 10  1  0  0  0  0
 15  3  1  0  0  0  0
 16 11  2  0  0  0  0
 17 21  2  0  0  0  0
 17 18  1  0  0  0  0
 18 20  2  0  0  0  0
 19 14  1  0  0  0  0
 19 22  2  0  0  0  0
 20 22  1  0  0  0  0
 21 19  1  0  0  0  0
 23 17  1  0  0  0  0
 25 24  1  0  0  0  0
 26 25  1  0  0  0  0
 27 26  1  0  0  0  0
 29 27  1  0  0  0  0
 29 30  1  0  0  0  0
 30 28  2  0  0  0  0
 31 34  2  0  0  0  0
 32 33  2  0  0  0  0
 32 31  1  0  0  0  0
 33 29  1  0  0  0  0
 34 30  1  0  0  0  0
M  END
>  <MODEL>
6

>  <REMARK>
 VINA RESULT:     -10.0      1.707      2.586
  Name = 
  6 active torsions:
  status: ('A' for Active; 'I' for Inactive)
    1  A    between atoms: C_3  and  N_13
    2  A    between atoms: C_3  and  C_17
    3  A    between atoms: C_5  and  C_18
    4  A    between atoms: C_12  and  C_28
    5  A    between atoms: C_17  and  N_29
    6  A    between atoms: C_18  and  N_29
                            x       y       z     vdW  Elec       q    Type
                         _______ _______ _______ _____ _____    ______ ____

>  <TORSDO>
F 6

$$$$
=
 OpenBabel11052414093D

 34 38  0  0  1  0  0  0  0  0999 V2000
  184.2200  178.6080  142.5550 C   0  0  0  0  0  0  0  0  0  0  0  0
  185.0780  178.8400  140.2450 O   0  0  0  0  0  0  0  0  0  0  0  0
  186.5780  178.1970  142.0450 C   0  0  0  0  0  0  0  0  0  0  0  0
  188.9070  177.2390  141.5070 C   0  0  1  0  0  3  0  0  0  0  0  0
  182.3600  178.0560  141.0130 C   0  0  0  0  0  2  0  0  0  0  0  0
  182.7090  178.6950  139.6690 C   0  0  0  0  0  2  0  0  0  0  0  0
  187.6610  178.5770  139.9470 O   0  0  0  0  0  0  0  0  0  0  0  0
  185.2800  178.5640  141.6090 C   0  0  0  0  0  0  0  0  0  0  0  0
  182.8020  178.9190  142.1860 C   0  0  0  0  0  2  0  0  0  0  0  0
  186.8170  177.9240  143.4120 C   0  0  0  0  0  0  0  0  0  0  0  0
  184.4710  178.3140  143.8930 C   0  0  0  0  0  3  0  0  0  0  0  0
  183.9680  179.5580  139.7140 C   0  0  0  0  0  2  0  0  0  0  0  0
  189.1510  177.3060  142.9840 C   0  0  0  0  0  3  0  0  0  0  0  0
  188.1950  177.5810  143.8840 C   0  0  0  0  0  0  0  0  0  0  0  0
  187.7150  178.0680  141.1000 C   0  0  0  0  0  0  0  0  0  0  0  0
  185.7510  177.9790  144.3160 C   0  0  0  0  0  3  0  0  0  0  0  0
  190.2060  177.2250  147.0900 C   0  0  0  0  0  0  0  0  0  0  0  0
  189.2560  177.5780  148.0510 C   0  0  0  0  0  3  0  0  0  0  0  0
  188.5720  177.5960  145.3230 C   0  0  0  0  0  0  0  0  0  0  0  0
  187.9640  177.9350  147.6580 C   0  0  0  0  0  3  0  0  0  0  0  0
  189.8640  177.2300  145.7350 C   0  0  0  0  0  3  0  0  0  0  0  0
  187.6240  177.9400  146.3020 C   0  0  0  0  0  3  0  0  0  0  0  0
  191.4890  176.8680  147.4800 O   0  0  0  0  0  1  0  0  0  0  0  0
  190.1810  177.6410  140.7770 C   0  0  0  0  0  2  0  0  0  0  0  0
  190.8310  176.4660  140.2250 N   0  0  0  0  0  2  0  0  0  0  0  0
  190.1210  176.1310  139.0040 C   0  0  0  0  0  2  0  0  0  0  0  0
  190.2380  177.2710  138.0030 C   0  0  0  0  0  2  0  0  0  0  0  0
  189.0040  179.6220  137.2140 O   0  0  0  0  0  0  0  0  0  0  0  0
  189.0540  177.3360  137.1530 N   0  0  0  0  0  0  0  0  0  0  0  0
  188.5040  178.5400  136.8010 C   0  0  0  0  0  0  0  0  0  0  0  0
  186.8170  177.3900  135.5210 C   0  0  0  0  0  3  0  0  0  0  0  0
  187.3870  176.1710  135.8870 C   0  0  0  0  0  3  0  0  0  0  0  0
  188.5140  176.1660  136.7100 C   0  0  0  0  0  3  0  0  0  0  0  0
  187.3760  178.5820  135.9780 C   0  0  0  0  0  3  0  0  0  0  0  0
  1 11  1  0  0  0  0
  2  8  1  0  0  0  0
  3 10  2  0  0  0  0
  4 24  1  6  0  0  0
  4 13  1  0  0  0  0
  5  9  1  0  0  0  0
  6 12  1  0  0  0  0
  6  5  1  0  0  0  0
  7 15  2  0  0  0  0
  8  3  1  0  0  0  0
  8  1  2  0  0  0  0
  9  1  1  0  0  0  0
 10 14  1  0  0  0  0
 10 16  1  0  0  0  0
 11 16  2  0  0  0  0
 12  2  1  0  0  0  0
 13 14  2  0  0  0  0
 14 19  1  0  0  0  0
 15  4  1  0  0  0  0
 15  3  1  0  0  0  0
 17 23  1  0  0  0  0
 17 18  1  0  0  0  0
 19 21  1  0  0  0  0
 19 22  2  0  0  0  0
 20 18  2  0  0  0  0
 21 17  2  0  0  0  0
 22 20  1  0  0  0  0
 25 24  1  0  0  0  0
 26 25  1  0  0  0  0
 27 26  1  0  0  0  0
 29 27  1  0  0  0  0
 30 29  1  0  0  0  0
 30 28  2  0  0  0  0
 31 32  1  0  0  0  0
 31 34  2  0  0  0  0
 32 33  2  0  0  0  0
 33 29  1  0  0  0  0
 34 30  1  0  0  0  0
M  END
>  <MODEL>
7

>  <REMARK>
 VINA RESULT:      -9.8      1.749      5.836
  Name = 
  6 active torsions:
  status: ('A' for Active; 'I' for Inactive)
    1  A    between atoms: C_3  and  N_13
    2  A    between atoms: C_3  and  C_17
    3  A    between atoms: C_5  and  C_18
    4  A    between atoms: C_12  and  C_28
    5  A    between atoms: C_17  and  N_29
    6  A    between atoms: C_18  and  N_29
                            x       y       z     vdW  Elec       q    Type
                         _______ _______ _______ _____ _____    ______ ____

>  <TORSDO>
F 6

$$$$
=
 OpenBabel11052414093D

 34 38  0  0  1  0  0  0  0  0999 V2000
  184.3200  178.6520  142.3380 C   0  0  0  0  0  0  0  0  0  0  0  0
  185.3100  178.9070  140.0840 O   0  0  0  0  0  0  0  0  0  0  0  0
  186.6980  178.2180  141.9550 C   0  0  0  0  0  0  0  0  0  0  0  0
  189.0420  177.2380  141.5340 C   0  0  1  0  0  3  0  0  0  0  0  0
  182.5440  178.1470  140.6860 C   0  0  0  0  0  2  0  0  0  0  0  0
  182.9750  178.8010  139.3740 C   0  0  0  0  0  2  0  0  0  0  0  0
  187.9020  178.6150  139.9270 O   0  0  0  0  0  0  0  0  0  0  0  0
  185.4310  178.6090  141.4530 C   0  0  0  0  0  0  0  0  0  0  0  0
  182.9290  178.9870  141.8950 C   0  0  0  0  0  2  0  0  0  0  0  0
  186.8560  177.9220  143.3290 C   0  0  0  0  0  0  0  0  0  0  0  0
  184.4920  178.3350  143.6830 C   0  0  0  0  0  3  0  0  0  0  0  0
  184.2400  179.6470  139.5030 C   0  0  0  0  0  2  0  0  0  0  0  0
  189.2020  177.2800  143.0240 C   0  0  0  0  0  3  0  0  0  0  0  0
  188.2010  177.5530  143.8720 C   0  0  0  0  0  0  0  0  0  0  0  0
  187.8840  178.0880  141.0730 C   0  0  0  0  0  0  0  0  0  0  0  0
  185.7420  177.9770  144.1720 C   0  0  0  0  0  3  0  0  0  0  0  0
  190.0240  177.1270  147.1800 C   0  0  0  0  0  0  0  0  0  0  0  0
  189.0260  177.4760  148.0920 C   0  0  0  0  0  3  0  0  0  0  0  0
  188.4970  177.5430  145.3300 C   0  0  0  0  0  0  0  0  0  0  0  0
  187.7620  177.8530  147.6320 C   0  0  0  0  0  3  0  0  0  0  0  0
  189.7590  177.1570  145.8090 C   0  0  0  0  0  3  0  0  0  0  0  0
  187.4980  177.8820  146.2600 C   0  0  0  0  0  3  0  0  0  0  0  0
  191.2800  176.7500  147.6360 O   0  0  0  0  0  1  0  0  0  0  0  0
  190.3600  177.6340  140.8840 C   0  0  0  0  0  2  0  0  0  0  0  0
  190.9960  176.4690  140.2960 N   0  0  0  0  0  2  0  0  0  0  0  0
  190.5330  176.3870  138.9230 C   0  0  0  0  0  2  0  0  0  0  0  0
  191.6860  176.6540  137.9670 C   0  0  0  0  0  2  0  0  0  0  0  0
  194.2990  175.8160  138.3460 O   0  0  0  0  0  0  0  0  0  0  0  0
  192.2340  175.4020  137.4550 N   0  0  0  0  0  0  0  0  0  0  0  0
  193.5380  175.0550  137.6890 C   0  0  0  0  0  0  0  0  0  0  0  0
  193.2040  173.0020  136.4700 C   0  0  0  0  0  3  0  0  0  0  0  0
  191.8800  173.3690  136.2380 C   0  0  0  0  0  3  0  0  0  0  0  0
  191.4090  174.5820  136.7440 C   0  0  0  0  0  3  0  0  0  0  0  0
  194.0400  173.8470  137.1990 C   0  0  0  0  0  3  0  0  0  0  0  0
  1 11  1  0  0  0  0
  2  8  1  0  0  0  0
  3 10  2  0  0  0  0
  4 24  1  6  0  0  0
  4 13  1  0  0  0  0
  5  9  1  0  0  0  0
  6 12  1  0  0  0  0
  6  5  1  0  0  0  0
  7 15  2  0  0  0  0
  8  3  1  0  0  0  0
  8  1  2  0  0  0  0
  9  1  1  0  0  0  0
 10 14  1  0  0  0  0
 10 16  1  0  0  0  0
 11 16  2  0  0  0  0
 12  2  1  0  0  0  0
 13 14  2  0  0  0  0
 14 19  1  0  0  0  0
 15  4  1  0  0  0  0
 15  3  1  0  0  0  0
 17 23  1  0  0  0  0
 17 18  1  0  0  0  0
 19 21  1  0  0  0  0
 19 22  2  0  0  0  0
 20 18  2  0  0  0  0
 21 17  2  0  0  0  0
 22 20  1  0  0  0  0
 25 24  1  0  0  0  0
 26 25  1  0  0  0  0
 27 26  1  0  0  0  0
 29 30  1  0  0  0  0
 29 27  1  0  0  0  0
 30 28  2  0  0  0  0
 31 34  2  0  0  0  0
 32 31  1  0  0  0  0
 32 33  2  0  0  0  0
 33 29  1  0  0  0  0
 34 30  1  0  0  0  0
M  END
>  <MODEL>
8

>  <REMARK>
 VINA RESULT:      -9.5      3.088      6.775
  Name = 
  6 active torsions:
  status: ('A' for Active; 'I' for Inactive)
    1  A    between atoms: C_3  and  N_13
    2  A    between atoms: C_3  and  C_17
    3  A    between atoms: C_5  and  C_18
    4  A    between atoms: C_12  and  C_28
    5  A    between atoms: C_17  and  N_29
    6  A    between atoms: C_18  and  N_29
                            x       y       z     vdW  Elec       q    Type
                         _______ _______ _______ _____ _____    ______ ____

>  <TORSDO>
F 6

$$$$
=
 OpenBabel11052414093D

 34 38  0  0  1  0  0  0  0  0999 V2000
  182.4480  178.8530  140.6630 C   0  0  0  0  0  0  0  0  0  0  0  0
  181.3570  178.8970  142.8840 O   0  0  0  0  0  0  0  0  0  0  0  0
  183.7710  178.6730  142.7140 C   0  0  0  0  0  0  0  0  0  0  0  0
  185.2510  179.0180  144.7940 C   0  0  1  0  0  3  0  0  0  0  0  0
  180.4040  180.2380  140.4590 C   0  0  0  0  0  2  0  0  0  0  0  0
  179.4920  179.8360  141.6180 C   0  0  0  0  0  2  0  0  0  0  0  0
  182.9160  178.4680  144.9380 O   0  0  0  0  0  0  0  0  0  0  0  0
  182.5080  178.7970  142.0810 C   0  0  0  0  0  0  0  0  0  0  0  0
  181.1740  179.0500  139.9010 C   0  0  0  0  0  2  0  0  0  0  0  0
  184.9470  178.5600  141.9360 C   0  0  0  0  0  0  0  0  0  0  0  0
  183.6200  178.7620  139.9150 C   0  0  0  0  0  3  0  0  0  0  0  0
  180.0270  178.6610  142.4330 C   0  0  0  0  0  2  0  0  0  0  0  0
  186.3830  178.5620  143.9230 C   0  0  0  0  0  3  0  0  0  0  0  0
  186.2760  178.3830  142.5980 C   0  0  0  0  0  0  0  0  0  0  0  0
  183.9110  178.6750  144.1910 C   0  0  0  0  0  0  0  0  0  0  0  0
  184.8510  178.6160  140.5420 C   0  0  0  0  0  3  0  0  0  0  0  0
  189.5180  176.6100  141.7040 C   0  0  0  0  0  0  0  0  0  0  0  0
  189.8010  177.1670  140.4550 C   0  0  0  0  0  3  0  0  0  0  0  0
  187.4870  177.9450  141.8530 C   0  0  0  0  0  0  0  0  0  0  0  0
  188.9370  178.1150  139.9020 C   0  0  0  0  0  3  0  0  0  0  0  0
  188.3710  177.0000  142.3990 C   0  0  0  0  0  3  0  0  0  0  0  0
  187.7890  178.5050  140.5990 C   0  0  0  0  0  3  0  0  0  0  0  0
  190.3770  175.6700  142.2550 O   0  0  0  0  0  1  0  0  0  0  0  0
  185.4360  178.4370  146.1880 C   0  0  0  0  0  2  0  0  0  0  0  0
  186.4500  177.3980  146.1650 N   0  0  0  0  0  2  0  0  0  0  0  0
  187.2910  177.6080  147.3280 C   0  0  0  0  0  2  0  0  0  0  0  0
  188.4670  178.5040  146.9660 C   0  0  0  0  0  2  0  0  0  0  0  0
  189.9170  178.7050  144.6140 O   0  0  0  0  0  0  0  0  0  0  0  0
  189.6490  177.7070  146.6550 N   0  0  0  0  0  0  0  0  0  0  0  0
  190.3160  177.8690  145.4700 C   0  0  0  0  0  0  0  0  0  0  0  0
  191.8970  176.1750  146.1350 C   0  0  0  0  0  3  0  0  0  0  0  0
  191.2070  176.0210  147.3370 C   0  0  0  0  0  3  0  0  0  0  0  0
  190.0770  176.8030  147.5800 C   0  0  0  0  0  3  0  0  0  0  0  0
  191.4520  177.1030  145.1950 C   0  0  0  0  0  3  0  0  0  0  0  0
  1  8  1  0  0  0  0
  3 15  1  0  0  0  0
  4 24  1  1  0  0  0
  5  6  1  0  0  0  0
  6 12  1  0  0  0  0
  8  3  2  0  0  0  0
  8  2  1  0  0  0  0
  9  5  1  0  0  0  0
  9  1  1  0  0  0  0
 10 14  1  0  0  0  0
 10  3  1  0  0  0  0
 11 16  1  0  0  0  0
 11  1  2  0  0  0  0
 12  2  1  0  0  0  0
 13  4  1  0  0  0  0
 14 13  2  0  0  0  0
 15  4  1  0  0  0  0
 15  7  2  0  0  0  0
 16 10  2  0  0  0  0
 17 23  1  0  0  0  0
 17 21  1  0  0  0  0
 18 17  2  0  0  0  0
 19 21  2  0  0  0  0
 19 14  1  0  0  0  0
 20 18  1  0  0  0  0
 20 22  2  0  0  0  0
 22 19  1  0  0  0  0
 25 24  1  0  0  0  0
 25 26  1  0  0  0  0
 27 26  1  0  0  0  0
 28 30  2  0  0  0  0
 29 27  1  0  0  0  0
 29 33  1  0  0  0  0
 30 29  1  0  0  0  0
 31 32  1  0  0  0  0
 32 33  2  0  0  0  0
 34 30  1  0  0  0  0
 34 31  2  0  0  0  0
M  END
>  <MODEL>
9

>  <REMARK>
 VINA RESULT:      -9.3      2.941      8.219
  Name = 
  6 active torsions:
  status: ('A' for Active; 'I' for Inactive)
    1  A    between atoms: C_3  and  N_13
    2  A    between atoms: C_3  and  C_17
    3  A    between atoms: C_5  and  C_18
    4  A    between atoms: C_12  and  C_28
    5  A    between atoms: C_17  and  N_29
    6  A    between atoms: C_18  and  N_29
                            x       y       z     vdW  Elec       q    Type
                         _______ _______ _______ _____ _____    ______ ____

>  <TORSDO>
F 6

$$$$
