=
 OpenBabel11052412263D

 30 33  0  0  1  0  0  0  0  0999 V2000
  188.0360  177.1770  142.2700 C   0  0  1  0  0  3  0  0  0  0  0  0
  188.2210  176.3910  143.6000 C   0  0  0  0  0  2  0  0  0  0  0  0
  187.2010  178.3310  142.3150 O   0  0  0  0  0  0  0  0  0  0  0  0
  185.8250  178.5600  145.9130 S   0  0  0  0  0  0  0  0  0  0  0  0
  187.0930  178.4290  144.6600 C   0  0  2  0  0  3  0  0  0  0  0  0
  185.3370  179.2370  143.3430 O   0  0  0  0  0  0  0  0  0  0  0  0
  186.3140  178.2400  143.3980 C   0  0  1  0  0  3  0  0  0  0  0  0
  188.0360  177.2410  144.8780 C   0  0  2  0  0  3  0  0  0  0  0  0
  183.4090  178.5430  144.6000 C   0  0  0  0  0  1  0  0  0  0  0  0
  184.7390  179.2740  144.6220 C   0  0  1  0  0  3  0  0  0  0  0  0
  189.1530  178.0400  146.8630 O   0  0  0  0  0  0  0  0  0  0  0  0
  190.5240  176.3510  147.0650 C   0  0  1  0  0  3  0  0  0  0  0  0
  189.4020  176.9730  147.6240 O   0  0  0  0  0  0  0  0  0  0  0  0
  190.3030  176.4590  145.5860 C   0  0  1  0  0  3  0  0  0  0  0  0
  189.9780  178.8580  144.7890 C   0  0  0  0  0  1  0  0  0  0  0  0
  189.3720  177.6590  145.5230 C   0  0  1  0  0  0  0  0  0  0  0  0
  191.6820  177.0290  147.4690 O   0  0  0  0  0  0  0  0  0  0  0  0
  192.4660  176.0560  148.0890 C   0  0  0  0  0  1  0  0  0  0  0  0
  191.5850  176.5190  144.7410 C   0  0  0  0  0  2  0  0  0  0  0  0
  191.7980  175.2250  143.9710 C   0  0  0  0  0  2  0  0  0  0  0  0
  192.3790  174.1540  144.8770 C   0  0  0  0  0  1  0  0  0  0  0  0
  189.2970  177.5400  141.7630 O   0  0  0  0  0  0  0  0  0  0  0  0
  189.3460  177.2620  140.3760 C   0  0  2  0  0  3  0  0  0  0  0  0
  190.7350  176.8550  139.8980 C   0  0  0  0  0  1  0  0  0  0  0  0
  188.7420  178.3620  139.5040 C   0  0  0  0  0  2  0  0  0  0  0  0
  188.0960  177.7670  138.2660 C   0  0  1  0  0  3  0  0  0  0  0  0
  186.6810  178.1100  138.2390 C   0  0  0  0  0  2  0  0  0  0  0  0
  187.6270  178.8530  137.3930 N   0  0  0  0  0  0  0  0  0  0  0  0
  188.7280  177.6780  135.7160 O   0  0  0  0  0  1  0  0  0  0  0  0
  187.5230  178.2900  136.0590 C   0  0  0  0  0  2  0  0  0  0  0  0
  1 22  1  1  0  0  0
  1  3  1  0  0  0  0
  1  2  1  0  0  0  0
  5  8  1  0  0  0  0
  5  4  1  1  0  0  0
  6  7  1  0  0  0  0
  6 10  1  0  0  0  0
  7  3  1  6  0  0  0
  7  5  1  0  0  0  0
  8  2  1  6  0  0  0
  8 16  1  0  0  0  0
 10  9  1  6  0  0  0
 10  4  1  0  0  0  0
 11 13  1  0  0  0  0
 12 17  1  6  0  0  0
 12 13  1  0  0  0  0
 14 19  1  6  0  0  0
 14 12  1  0  0  0  0
 16 15  1  6  0  0  0
 16 14  1  0  0  0  0
 16 11  1  0  0  0  0
 17 18  1  0  0  0  0
 20 19  1  0  0  0  0
 20 21  1  0  0  0  0
 23 24  1  6  0  0  0
 23 22  1  0  0  0  0
 25 23  1  0  0  0  0
 26 25  1  1  0  0  0
 27 26  1  0  0  0  0
 28 27  1  0  0  0  0
 28 26  1  0  0  0  0
 29 30  1  0  0  0  0
 30 28  1  0  0  0  0
M  END
>  <MODEL>
1

>  <REMARK>
 VINA RESULT:      -7.2      0.000      0.000
  Name = 
  9 active torsions:
  status: ('A' for Active; 'I' for Inactive)
    1  A    between atoms: C_1  and  O_22
    2  A    between atoms: C_2  and  C_14
    3  A    between atoms: C_2  and  O_22
    4  A    between atoms: C_10  and  O_15
    5  A    between atoms: C_11  and  C_25
    6  A    between atoms: C_13  and  C_30
    7  A    between atoms: C_14  and  C_20
    8  A    between atoms: C_19  and  N_29
    9  A    between atoms: C_23  and  C_25
                            x       y       z     vdW  Elec       q    Type
                         _______ _______ _______ _____ _____    ______ ____

>  <TORSDO>
F 9

$$$$
=
 OpenBabel11052412263D

 30 33  0  0  1  0  0  0  0  0999 V2000
  186.7240  178.8200  141.8940 C   0  0  1  0  0  3  0  0  0  0  0  0
  188.1540  179.0990  142.4410 C   0  0  0  0  0  2  0  0  0  0  0  0
  186.6340  178.1080  140.6620 O   0  0  0  0  0  0  0  0  0  0  0  0
  190.2520  177.5020  139.4680 S   0  0  0  0  0  0  0  0  0  0  0  0
  188.8910  177.4540  140.6240 C   0  0  2  0  0  3  0  0  0  0  0  0
  187.6940  177.7570  138.6360 O   0  0  0  0  0  0  0  0  0  0  0  0
  187.8260  178.2490  139.9380 C   0  0  1  0  0  3  0  0  0  0  0  0
  189.2270  178.0870  141.9780 C   0  0  2  0  0  3  0  0  0  0  0  0
  189.3370  178.7890  137.2170 C   0  0  0  0  0  1  0  0  0  0  0  0
  189.0060  177.6240  138.1310 C   0  0  1  0  0  3  0  0  0  0  0  0
  190.9090  176.6300  142.9150 O   0  0  0  0  0  0  0  0  0  0  0  0
  190.8710  177.4800  144.9270 C   0  0  1  0  0  3  0  0  0  0  0  0
  191.6330  177.3660  143.7580 O   0  0  0  0  0  0  0  0  0  0  0  0
  189.4680  177.6670  144.4310 C   0  0  1  0  0  3  0  0  0  0  0  0
  188.6840  175.7920  142.8940 C   0  0  0  0  0  1  0  0  0  0  0  0
  189.5640  177.0340  143.0530 C   0  0  1  0  0  0  0  0  0  0  0  0
  191.0030  176.3080  145.6840 O   0  0  0  0  0  0  0  0  0  0  0  0
  191.8290  176.6640  146.7500 C   0  0  0  0  0  1  0  0  0  0  0  0
  188.3730  177.1410  145.3720 C   0  0  0  0  0  2  0  0  0  0  0  0
  188.1570  178.0820  146.5470 C   0  0  0  0  0  2  0  0  0  0  0  0
  188.3710  177.3520  147.8610 C   0  0  0  0  0  1  0  0  0  0  0  0
  185.9740  178.1440  142.8730 O   0  0  0  0  0  0  0  0  0  0  0  0
  184.9770  179.0080  143.3850 C   0  0  2  0  0  3  0  0  0  0  0  0
  185.0580  179.1830  144.8970 C   0  0  0  0  0  1  0  0  0  0  0  0
  183.5630  178.6610  142.9250 C   0  0  0  0  0  2  0  0  0  0  0  0
  183.5630  178.2510  141.4630 C   0  0  1  0  0  3  0  0  0  0  0  0
  182.1940  178.2000  140.9670 C   0  0  0  0  0  2  0  0  0  0  0  0
  183.0420  179.3580  140.6470 N   0  0  0  0  0  0  0  0  0  0  0  0
  184.5390  180.0840  139.0230 O   0  0  0  0  0  1  0  0  0  0  0  0
  183.5430  179.1470  139.3020 C   0  0  0  0  0  2  0  0  0  0  0  0
  1  2  1  0  0  0  0
  1 22  1  1  0  0  0
  3  1  1  0  0  0  0
  5  4  1  6  0  0  0
  5  8  1  0  0  0  0
  7  6  1  6  0  0  0
  7  5  1  0  0  0  0
  7  3  1  0  0  0  0
  8  2  1  1  0  0  0
  8 16  1  0  0  0  0
 10  9  1  6  0  0  0
 10  6  1  0  0  0  0
 10  4  1  0  0  0  0
 11 16  1  0  0  0  0
 11 13  1  0  0  0  0
 12 17  1  1  0  0  0
 13 12  1  0  0  0  0
 14 12  1  0  0  0  0
 14 19  1  1  0  0  0
 16 15  1  6  0  0  0
 16 14  1  0  0  0  0
 17 18  1  0  0  0  0
 19 20  1  0  0  0  0
 20 21  1  0  0  0  0
 22 23  1  0  0  0  0
 23 24  1  1  0  0  0
 25 23  1  0  0  0  0
 26 25  1  1  0  0  0
 27 26  1  0  0  0  0
 28 27  1  0  0  0  0
 28 26  1  0  0  0  0
 29 30  1  0  0  0  0
 30 28  1  0  0  0  0
M  END
>  <MODEL>
2

>  <REMARK>
 VINA RESULT:      -7.2      2.713      5.020
  Name = 
  9 active torsions:
  status: ('A' for Active; 'I' for Inactive)
    1  A    between atoms: C_1  and  O_22
    2  A    between atoms: C_2  and  C_14
    3  A    between atoms: C_2  and  O_22
    4  A    between atoms: C_10  and  O_15
    5  A    between atoms: C_11  and  C_25
    6  A    between atoms: C_13  and  C_30
    7  A    between atoms: C_14  and  C_20
    8  A    between atoms: C_19  and  N_29
    9  A    between atoms: C_23  and  C_25
                            x       y       z     vdW  Elec       q    Type
                         _______ _______ _______ _____ _____    ______ ____

>  <TORSDO>
F 9

$$$$
=
 OpenBabel11052412263D

 30 33  0  0  1  0  0  0  0  0999 V2000
  187.4210  177.4250  145.0740 C   0  0  1  0  0  3  0  0  0  0  0  0
  188.0040  176.5450  143.9300 C   0  0  0  0  0  2  0  0  0  0  0  0
  188.3340  177.8660  146.0760 O   0  0  0  0  0  0  0  0  0  0  0  0
  191.7590  176.3140  145.2120 S   0  0  0  0  0  0  0  0  0  0  0  0
  190.2690  177.2470  144.8950 C   0  0  2  0  0  3  0  0  0  0  0  0
  190.2480  177.2780  147.2340 O   0  0  0  0  0  0  0  0  0  0  0  0
  189.4460  177.0120  146.1210 C   0  0  1  0  0  3  0  0  0  0  0  0
  189.5090  176.7670  143.6540 C   0  0  2  0  0  3  0  0  0  0  0  0
  191.5490  175.3280  147.7710 C   0  0  0  0  0  1  0  0  0  0  0  0
  191.4800  176.6310  146.9950 C   0  0  1  0  0  3  0  0  0  0  0  0
  190.8500  177.1350  141.6810 O   0  0  0  0  0  0  0  0  0  0  0  0
  189.2030  177.0480  140.2490 C   0  0  1  0  0  3  0  0  0  0  0  0
  190.3370  176.3730  140.7150 O   0  0  0  0  0  0  0  0  0  0  0  0
  188.5700  177.6000  141.4910 C   0  0  1  0  0  3  0  0  0  0  0  0
  190.1390  179.0810  142.8480 C   0  0  0  0  0  1  0  0  0  0  0  0
  189.7700  177.6570  142.4220 C   0  0  1  0  0  0  0  0  0  0  0  0
  189.5960  178.0650  139.3690 O   0  0  0  0  0  0  0  0  0  0  0  0
  189.6890  177.4430  138.1240 C   0  0  0  0  0  1  0  0  0  0  0  0
  187.7730  178.8980  141.2900 C   0  0  0  0  0  2  0  0  0  0  0  0
  186.2790  178.6220  141.2240 C   0  0  0  0  0  2  0  0  0  0  0  0
  185.7950  178.6500  139.7860 C   0  0  0  0  0  1  0  0  0  0  0  0
  186.7730  178.5420  144.5180 O   0  0  0  0  0  0  0  0  0  0  0  0
  185.7320  178.9620  145.3790 C   0  0  2  0  0  3  0  0  0  0  0  0
  185.2610  177.8650  146.3260 C   0  0  0  0  0  1  0  0  0  0  0  0
  184.5640  179.6320  144.6560 C   0  0  0  0  0  2  0  0  0  0  0  0
  183.7810  178.6120  143.8500 C   0  0  1  0  0  3  0  0  0  0  0  0
  182.3590  178.7500  144.1330 C   0  0  0  0  0  2  0  0  0  0  0  0
  182.9120  179.3120  142.8920 N   0  0  0  0  0  0  0  0  0  0  0  0
  182.3690  179.0470  140.6470 O   0  0  0  0  0  1  0  0  0  0  0  0
  182.6150  178.3610  141.8360 C   0  0  0  0  0  2  0  0  0  0  0  0
  1 22  1  6  0  0  0
  1  3  1  0  0  0  0
  2  1  1  0  0  0  0
  4 10  1  0  0  0  0
  5  4  1  1  0  0  0
  5  7  1  0  0  0  0
  7  3  1  6  0  0  0
  7  6  1  0  0  0  0
  8  2  1  1  0  0  0
  8  5  1  0  0  0  0
 10  6  1  0  0  0  0
 10  9  1  1  0  0  0
 11 16  1  0  0  0  0
 12 17  1  6  0  0  0
 12 13  1  0  0  0  0
 12 14  1  0  0  0  0
 13 11  1  0  0  0  0
 14 19  1  6  0  0  0
 14 16  1  0  0  0  0
 16 15  1  1  0  0  0
 16  8  1  0  0  0  0
 18 17  1  0  0  0  0
 20 19  1  0  0  0  0
 21 20  1  0  0  0  0
 22 23  1  0  0  0  0
 23 24  1  6  0  0  0
 25 23  1  0  0  0  0
 26 27  1  0  0  0  0
 26 25  1  1  0  0  0
 28 26  1  0  0  0  0
 28 27  1  0  0  0  0
 29 30  1  0  0  0  0
 30 28  1  0  0  0  0
M  END
>  <MODEL>
3

>  <REMARK>
 VINA RESULT:      -7.0      2.451      6.470
  Name = 
  9 active torsions:
  status: ('A' for Active; 'I' for Inactive)
    1  A    between atoms: C_1  and  O_22
    2  A    between atoms: C_2  and  C_14
    3  A    between atoms: C_2  and  O_22
    4  A    between atoms: C_10  and  O_15
    5  A    between atoms: C_11  and  C_25
    6  A    between atoms: C_13  and  C_30
    7  A    between atoms: C_14  and  C_20
    8  A    between atoms: C_19  and  N_29
    9  A    between atoms: C_23  and  C_25
                            x       y       z     vdW  Elec       q    Type
                         _______ _______ _______ _____ _____    ______ ____

>  <TORSDO>
F 9

$$$$
=
 OpenBabel11052412263D

 30 33  0  0  1  0  0  0  0  0999 V2000
  186.2200  177.7010  143.9020 C   0  0  1  0  0  3  0  0  0  0  0  0
  187.3220  176.6330  143.6500 C   0  0  0  0  0  2  0  0  0  0  0  0
  186.3760  178.5290  145.0520 O   0  0  0  0  0  0  0  0  0  0  0  0
  189.5550  177.3090  146.8680 S   0  0  0  0  0  0  0  0  0  0  0  0
  188.5980  177.8930  145.4760 C   0  0  2  0  0  3  0  0  0  0  0  0
  187.1900  178.5670  147.2180 O   0  0  0  0  0  0  0  0  0  0  0  0
  187.1960  177.8910  145.9950 C   0  0  1  0  0  3  0  0  0  0  0  0
  188.7040  176.9840  144.2470 C   0  0  2  0  0  3  0  0  0  0  0  0
  187.8100  177.0510  148.9770 C   0  0  0  0  0  1  0  0  0  0  0  0
  188.2860  178.0630  147.9520 C   0  0  1  0  0  3  0  0  0  0  0  0
  190.8850  176.7710  143.2350 O   0  0  0  0  0  0  0  0  0  0  0  0
  190.1740  176.4370  141.1960 C   0  0  1  0  0  3  0  0  0  0  0  0
  190.7880  175.8280  142.2970 O   0  0  0  0  0  0  0  0  0  0  0  0
  189.1220  177.3150  141.8050 C   0  0  1  0  0  3  0  0  0  0  0  0
  190.0540  178.9840  143.4900 C   0  0  0  0  0  1  0  0  0  0  0  0
  189.6940  177.5260  143.1960 C   0  0  1  0  0  0  0  0  0  0  0  0
  191.1260  177.1800  140.4850 O   0  0  0  0  0  0  0  0  0  0  0  0
  191.3110  176.4760  139.2960 C   0  0  0  0  0  1  0  0  0  0  0  0
  188.7760  178.5710  140.9890 C   0  0  0  0  0  2  0  0  0  0  0  0
  187.9470  178.2210  139.7630 C   0  0  0  0  0  2  0  0  0  0  0  0
  188.6600  178.6570  138.4960 C   0  0  0  0  0  1  0  0  0  0  0  0
  186.0900  178.5150  142.7630 O   0  0  0  0  0  0  0  0  0  0  0  0
  184.7650  178.4340  142.2720 C   0  0  2  0  0  3  0  0  0  0  0  0
  184.6070  179.0300  140.8780 C   0  0  0  0  0  1  0  0  0  0  0  0
  183.7130  178.9660  143.2430 C   0  0  0  0  0  2  0  0  0  0  0  0
  182.3150  178.6680  142.7320 C   0  0  1  0  0  3  0  0  0  0  0  0
  181.3770  178.6600  143.8450 C   0  0  0  0  0  2  0  0  0  0  0  0
  181.4530  179.8360  142.9660 N   0  0  0  0  0  0  0  0  0  0  0  0
  179.7460  180.9730  141.8710 O   0  0  0  0  0  1  0  0  0  0  0  0
  180.3510  179.7260  142.0280 C   0  0  0  0  0  2  0  0  0  0  0  0
  1 22  1  6  0  0  0
  1  3  1  0  0  0  0
  2  1  1  0  0  0  0
  4 10  1  0  0  0  0
  5  7  1  0  0  0  0
  5  4  1  1  0  0  0
  6 10  1  0  0  0  0
  7  3  1  6  0  0  0
  7  6  1  0  0  0  0
  8  2  1  6  0  0  0
  8  5  1  0  0  0  0
 10  9  1  1  0  0  0
 12 17  1  1  0  0  0
 12 14  1  0  0  0  0
 12 13  1  0  0  0  0
 13 11  1  0  0  0  0
 14 19  1  6  0  0  0
 14 16  1  0  0  0  0
 16 11  1  0  0  0  0
 16 15  1  1  0  0  0
 16  8  1  0  0  0  0
 18 17  1  0  0  0  0
 20 19  1  0  0  0  0
 21 20  1  0  0  0  0
 23 24  1  6  0  0  0
 23 22  1  0  0  0  0
 23 25  1  0  0  0  0
 26 28  1  0  0  0  0
 26 25  1  1  0  0  0
 26 27  1  0  0  0  0
 28 27  1  0  0  0  0
 29 30  1  0  0  0  0
 30 28  1  0  0  0  0
M  END
>  <MODEL>
4

>  <REMARK>
 VINA RESULT:      -7.0      2.924      5.860
  Name = 
  9 active torsions:
  status: ('A' for Active; 'I' for Inactive)
    1  A    between atoms: C_1  and  O_22
    2  A    between atoms: C_2  and  C_14
    3  A    between atoms: C_2  and  O_22
    4  A    between atoms: C_10  and  O_15
    5  A    between atoms: C_11  and  C_25
    6  A    between atoms: C_13  and  C_30
    7  A    between atoms: C_14  and  C_20
    8  A    between atoms: C_19  and  N_29
    9  A    between atoms: C_23  and  C_25
                            x       y       z     vdW  Elec       q    Type
                         _______ _______ _______ _____ _____    ______ ____

>  <TORSDO>
F 9

$$$$
=
 OpenBabel11052412263D

 30 33  0  0  1  0  0  0  0  0999 V2000
  186.2010  178.8860  141.7020 C   0  0  1  0  0  3  0  0  0  0  0  0
  187.5350  179.2350  142.4230 C   0  0  0  0  0  2  0  0  0  0  0  0
  186.2970  178.1110  140.5100 O   0  0  0  0  0  0  0  0  0  0  0  0
  190.0580  177.5540  139.8540 S   0  0  0  0  0  0  0  0  0  0  0  0
  188.5520  177.5240  140.8140 C   0  0  2  0  0  3  0  0  0  0  0  0
  187.6340  177.6900  138.6690 O   0  0  0  0  0  0  0  0  0  0  0  0
  187.5740  178.2510  139.9480 C   0  0  1  0  0  3  0  0  0  0  0  0
  188.6840  178.2340  142.1660 C   0  0  2  0  0  3  0  0  0  0  0  0
  189.4330  178.6980  137.4330 C   0  0  0  0  0  1  0  0  0  0  0  0
  189.0050  177.5710  138.3550 C   0  0  1  0  0  3  0  0  0  0  0  0
  190.2730  176.9960  143.4970 O   0  0  0  0  0  0  0  0  0  0  0  0
  189.7150  177.8740  145.4180 C   0  0  1  0  0  3  0  0  0  0  0  0
  190.7170  177.8250  144.4420 O   0  0  0  0  0  0  0  0  0  0  0  0
  188.4390  177.8910  144.6300 C   0  0  1  0  0  3  0  0  0  0  0  0
  188.2070  175.9100  143.0440 C   0  0  0  0  0  1  0  0  0  0  0  0
  188.8950  177.2470  143.3320 C   0  0  1  0  0  0  0  0  0  0  0  0
  189.8060  176.7390  146.2350 O   0  0  0  0  0  0  0  0  0  0  0  0
  190.5670  177.1490  147.3300 C   0  0  0  0  0  1  0  0  0  0  0  0
  187.2300  177.2620  145.3410 C   0  0  0  0  0  2  0  0  0  0  0  0
  186.3300  178.3280  145.9460 C   0  0  0  0  0  2  0  0  0  0  0  0
  186.7260  178.6050  147.3850 C   0  0  0  0  0  1  0  0  0  0  0  0
  185.3390  178.2380  142.6050 O   0  0  0  0  0  0  0  0  0  0  0  0
  184.0990  178.9200  142.6470 C   0  0  2  0  0  3  0  0  0  0  0  0
  183.3860  178.7800  143.9860 C   0  0  0  0  0  1  0  0  0  0  0  0
  183.1770  178.5970  141.4720 C   0  0  0  0  0  2  0  0  0  0  0  0
  181.7220  178.7320  141.8820 C   0  0  1  0  0  3  0  0  0  0  0  0
  180.9720  179.3880  140.8200 C   0  0  0  0  0  2  0  0  0  0  0  0
  180.8850  177.9290  140.9790 N   0  0  0  0  0  0  0  0  0  0  0  0
  179.3050  176.3190  141.5400 O   0  0  0  0  0  1  0  0  0  0  0  0
  179.6510  177.6610  141.6940 C   0  0  0  0  0  2  0  0  0  0  0  0
  1  2  1  0  0  0  0
  1 22  1  1  0  0  0
  3  1  1  0  0  0  0
  5  4  1  6  0  0  0
  5  8  1  0  0  0  0
  7  6  1  6  0  0  0
  7  3  1  0  0  0  0
  7  5  1  0  0  0  0
  8  2  1  1  0  0  0
  8 16  1  0  0  0  0
 10  9  1  6  0  0  0
 10  6  1  0  0  0  0
 10  4  1  0  0  0  0
 11 13  1  0  0  0  0
 12 17  1  1  0  0  0
 13 12  1  0  0  0  0
 14 19  1  1  0  0  0
 14 12  1  0  0  0  0
 16 15  1  6  0  0  0
 16 11  1  0  0  0  0
 16 14  1  0  0  0  0
 17 18  1  0  0  0  0
 19 20  1  0  0  0  0
 20 21  1  0  0  0  0
 22 23  1  0  0  0  0
 23 24  1  1  0  0  0
 25 23  1  0  0  0  0
 26 25  1  6  0  0  0
 27 28  1  0  0  0  0
 27 26  1  0  0  0  0
 28 30  1  0  0  0  0
 28 26  1  0  0  0  0
 29 30  1  0  0  0  0
M  END
>  <MODEL>
5

>  <REMARK>
 VINA RESULT:      -6.7      3.118      5.829
  Name = 
  9 active torsions:
  status: ('A' for Active; 'I' for Inactive)
    1  A    between atoms: C_1  and  O_22
    2  A    between atoms: C_2  and  C_14
    3  A    between atoms: C_2  and  O_22
    4  A    between atoms: C_10  and  O_15
    5  A    between atoms: C_11  and  C_25
    6  A    between atoms: C_13  and  C_30
    7  A    between atoms: C_14  and  C_20
    8  A    between atoms: C_19  and  N_29
    9  A    between atoms: C_23  and  C_25
                            x       y       z     vdW  Elec       q    Type
                         _______ _______ _______ _____ _____    ______ ____

>  <TORSDO>
F 9

$$$$
=
 OpenBabel11052412263D

 30 33  0  0  1  0  0  0  0  0999 V2000
  186.1610  177.8720  144.0090 C   0  0  1  0  0  3  0  0  0  0  0  0
  187.1890  176.7600  143.6510 C   0  0  0  0  0  2  0  0  0  0  0  0
  186.4140  178.6250  145.1920 O   0  0  0  0  0  0  0  0  0  0  0  0
  189.5920  177.1350  146.7940 S   0  0  0  0  0  0  0  0  0  0  0  0
  188.6120  177.8460  145.4800 C   0  0  2  0  0  3  0  0  0  0  0  0
  187.3200  178.5000  147.3170 O   0  0  0  0  0  0  0  0  0  0  0  0
  187.2350  177.8930  146.0620 C   0  0  1  0  0  3  0  0  0  0  0  0
  188.6130  177.0010  144.2020 C   0  0  2  0  0  3  0  0  0  0  0  0
  187.9270  176.8580  148.9650 C   0  0  0  0  0  1  0  0  0  0  0  0
  188.4160  177.8970  147.9730 C   0  0  1  0  0  3  0  0  0  0  0  0
  190.7850  176.8020  143.1670 O   0  0  0  0  0  0  0  0  0  0  0  0
  190.0540  176.4470  141.1390 C   0  0  1  0  0  3  0  0  0  0  0  0
  190.6860  175.8510  142.2360 O   0  0  0  0  0  0  0  0  0  0  0  0
  189.0010  177.3210  141.7530 C   0  0  1  0  0  3  0  0  0  0  0  0
  189.9370  179.0090  143.4170 C   0  0  0  0  0  1  0  0  0  0  0  0
  189.5870  177.5450  143.1370 C   0  0  1  0  0  0  0  0  0  0  0  0
  190.9910  177.1940  140.4120 O   0  0  0  0  0  0  0  0  0  0  0  0
  191.2690  176.4190  139.2860 C   0  0  0  0  0  1  0  0  0  0  0  0
  188.6350  178.5680  140.9330 C   0  0  0  0  0  2  0  0  0  0  0  0
  187.5640  178.2540  139.9000 C   0  0  0  0  0  2  0  0  0  0  0  0
  188.1590  178.2330  138.5040 C   0  0  0  0  0  1  0  0  0  0  0  0
  186.0300  178.7530  142.9210 O   0  0  0  0  0  0  0  0  0  0  0  0
  184.6610  179.0490  142.7150 C   0  0  2  0  0  3  0  0  0  0  0  0
  184.0040  179.7070  143.9220 C   0  0  0  0  0  1  0  0  0  0  0  0
  183.8460  177.8660  142.1940 C   0  0  0  0  0  2  0  0  0  0  0  0
  183.6050  178.0000  140.7020 C   0  0  1  0  0  3  0  0  0  0  0  0
  182.1820  178.1810  140.4490 C   0  0  0  0  0  2  0  0  0  0  0  0
  183.0820  179.3440  140.4120 N   0  0  0  0  0  0  0  0  0  0  0  0
  184.5530  180.3320  138.9070 O   0  0  0  0  0  1  0  0  0  0  0  0
  183.3690  179.6020  139.0130 C   0  0  0  0  0  2  0  0  0  0  0  0
  1 22  1  6  0  0  0
  1  3  1  0  0  0  0
  2  1  1  0  0  0  0
  4 10  1  0  0  0  0
  5  7  1  0  0  0  0
  5  4  1  1  0  0  0
  6 10  1  0  0  0  0
  7  3  1  6  0  0  0
  7  6  1  0  0  0  0
  8  2  1  6  0  0  0
  8  5  1  0  0  0  0
 10  9  1  1  0  0  0
 12 17  1  1  0  0  0
 12 14  1  0  0  0  0
 12 13  1  0  0  0  0
 13 11  1  0  0  0  0
 14 19  1  6  0  0  0
 14 16  1  0  0  0  0
 16 11  1  0  0  0  0
 16 15  1  1  0  0  0
 16  8  1  0  0  0  0
 18 17  1  0  0  0  0
 20 19  1  0  0  0  0
 21 20  1  0  0  0  0
 23 22  1  0  0  0  0
 23 24  1  1  0  0  0
 25 23  1  0  0  0  0
 26 25  1  1  0  0  0
 27 26  1  0  0  0  0
 28 27  1  0  0  0  0
 28 26  1  0  0  0  0
 29 30  1  0  0  0  0
 30 28  1  0  0  0  0
M  END
>  <MODEL>
6

>  <REMARK>
 VINA RESULT:      -6.7      2.639      5.196
  Name = 
  9 active torsions:
  status: ('A' for Active; 'I' for Inactive)
    1  A    between atoms: C_1  and  O_22
    2  A    between atoms: C_2  and  C_14
    3  A    between atoms: C_2  and  O_22
    4  A    between atoms: C_10  and  O_15
    5  A    between atoms: C_11  and  C_25
    6  A    between atoms: C_13  and  C_30
    7  A    between atoms: C_14  and  C_20
    8  A    between atoms: C_19  and  N_29
    9  A    between atoms: C_23  and  C_25
                            x       y       z     vdW  Elec       q    Type
                         _______ _______ _______ _____ _____    ______ ____

>  <TORSDO>
F 9

$$$$
=
 OpenBabel11052412263D

 30 33  0  0  1  0  0  0  0  0999 V2000
  190.4810  176.4150  142.8610 C   0  0  1  0  0  3  0  0  0  0  0  0
  188.9570  176.1900  142.6410 C   0  0  0  0  0  2  0  0  0  0  0  0
  191.2140  176.9710  141.7720 O   0  0  0  0  0  0  0  0  0  0  0  0
  188.7170  177.3910  138.8600 S   0  0  0  0  0  0  0  0  0  0  0  0
  189.3170  177.5930  140.5310 C   0  0  2  0  0  3  0  0  0  0  0  0
  191.3300  177.0610  139.4630 O   0  0  0  0  0  0  0  0  0  0  0  0
  190.5390  176.7310  140.5670 C   0  0  1  0  0  3  0  0  0  0  0  0
  188.3150  177.1280  141.5930 C   0  0  2  0  0  3  0  0  0  0  0  0
  190.5660  175.8470  137.5340 C   0  0  0  0  0  1  0  0  0  0  0  0
  190.4560  177.1190  138.3550 C   0  0  1  0  0  3  0  0  0  0  0  0
  186.6670  178.8620  141.2740 O   0  0  0  0  0  0  0  0  0  0  0  0
  185.2980  178.1850  142.8360 C   0  0  1  0  0  3  0  0  0  0  0  0
  185.4710  178.2990  141.4520 O   0  0  0  0  0  0  0  0  0  0  0  0
  186.6500  177.7770  143.3410 C   0  0  1  0  0  3  0  0  0  0  0  0
  188.5020  179.4010  142.6860 C   0  0  0  0  0  1  0  0  0  0  0  0
  187.5410  178.3010  142.2270 C   0  0  1  0  0  0  0  0  0  0  0  0
  184.8990  179.4230  143.3580 O   0  0  0  0  0  0  0  0  0  0  0  0
  183.5450  179.2650  143.6530 C   0  0  0  0  0  1  0  0  0  0  0  0
  186.9710  178.2340  144.7720 C   0  0  0  0  0  2  0  0  0  0  0  0
  186.1090  177.5030  145.7900 C   0  0  0  0  0  2  0  0  0  0  0  0
  185.4100  178.4920  146.7050 C   0  0  0  0  0  1  0  0  0  0  0  0
  190.6750  177.2130  144.0030 O   0  0  0  0  0  0  0  0  0  0  0  0
  191.6800  176.6380  144.8160 C   0  0  2  0  0  3  0  0  0  0  0  0
  192.0250  175.2070  144.4190 C   0  0  0  0  0  1  0  0  0  0  0  0
  191.4090  176.7650  146.3140 C   0  0  0  0  0  2  0  0  0  0  0  0
  190.0280  177.3450  146.5590 C   0  0  1  0  0  3  0  0  0  0  0  0
  189.2100  176.3780  147.2780 C   0  0  0  0  0  2  0  0  0  0  0  0
  189.8160  177.5030  148.0060 N   0  0  0  0  0  0  0  0  0  0  0  0
  187.9410  178.1500  149.2180 O   0  0  0  0  0  1  0  0  0  0  0  0
  188.7790  178.5050  148.1610 C   0  0  0  0  0  2  0  0  0  0  0  0
  1 22  1  1  0  0  0
  2  1  1  0  0  0  0
  3  1  1  0  0  0  0
  5  4  1  6  0  0  0
  5  7  1  0  0  0  0
  5  8  1  0  0  0  0
  7  6  1  6  0  0  0
  7  3  1  0  0  0  0
  8 16  1  0  0  0  0
  8  2  1  1  0  0  0
 10  9  1  1  0  0  0
 10  4  1  0  0  0  0
 10  6  1  0  0  0  0
 11 13  1  0  0  0  0
 11 16  1  0  0  0  0
 12 14  1  0  0  0  0
 12 17  1  1  0  0  0
 13 12  1  0  0  0  0
 14 19  1  1  0  0  0
 16 15  1  1  0  0  0
 16 14  1  0  0  0  0
 17 18  1  0  0  0  0
 19 20  1  0  0  0  0
 20 21  1  0  0  0  0
 22 23  1  0  0  0  0
 23 24  1  6  0  0  0
 23 25  1  0  0  0  0
 26 25  1  1  0  0  0
 26 27  1  0  0  0  0
 26 28  1  0  0  0  0
 27 28  1  0  0  0  0
 28 30  1  0  0  0  0
 30 29  1  0  0  0  0
M  END
>  <MODEL>
7

>  <REMARK>
 VINA RESULT:      -6.7      3.128      7.335
  Name = 
  9 active torsions:
  status: ('A' for Active; 'I' for Inactive)
    1  A    between atoms: C_1  and  O_22
    2  A    between atoms: C_2  and  C_14
    3  A    between atoms: C_2  and  O_22
    4  A    between atoms: C_10  and  O_15
    5  A    between atoms: C_11  and  C_25
    6  A    between atoms: C_13  and  C_30
    7  A    between atoms: C_14  and  C_20
    8  A    between atoms: C_19  and  N_29
    9  A    between atoms: C_23  and  C_25
                            x       y       z     vdW  Elec       q    Type
                         _______ _______ _______ _____ _____    ______ ____

>  <TORSDO>
F 9

$$$$
=
 OpenBabel11052412263D

 30 33  0  0  1  0  0  0  0  0999 V2000
  190.1590  177.1830  142.7560 C   0  0  1  0  0  3  0  0  0  0  0  0
  188.8140  176.7700  142.0910 C   0  0  0  0  0  2  0  0  0  0  0  0
  191.2310  177.5250  141.8810 O   0  0  0  0  0  0  0  0  0  0  0  0
  189.9380  176.9880  138.2850 S   0  0  0  0  0  0  0  0  0  0  0  0
  189.9020  177.6450  139.9460 C   0  0  2  0  0  3  0  0  0  0  0  0
  192.1640  177.0620  139.8150 O   0  0  0  0  0  0  0  0  0  0  0  0
  191.0310  176.9360  140.6240 C   0  0  1  0  0  3  0  0  0  0  0  0
  188.5880  177.3590  140.6800 C   0  0  2  0  0  3  0  0  0  0  0  0
  192.1420  175.3500  138.1280 C   0  0  0  0  0  1  0  0  0  0  0  0
  191.7440  176.7670  138.5000 C   0  0  1  0  0  3  0  0  0  0  0  0
  187.4110  178.9980  139.3540 O   0  0  0  0  0  0  0  0  0  0  0  0
  185.4040  178.4610  140.0310 C   0  0  1  0  0  3  0  0  0  0  0  0
  186.2800  178.4230  138.9410 O   0  0  0  0  0  0  0  0  0  0  0  0
  186.2770  178.1520  141.2110 C   0  0  1  0  0  3  0  0  0  0  0  0
  188.2510  179.7460  141.4490 C   0  0  0  0  0  1  0  0  0  0  0  0
  187.6370  178.5730  140.6800 C   0  0  1  0  0  0  0  0  0  0  0  0
  184.8340  179.7370  140.1260 O   0  0  0  0  0  0  0  0  0  0  0  0
  183.8840  179.7790  139.1050 C   0  0  0  0  0  1  0  0  0  0  0  0
  185.8160  178.7760  142.5380 C   0  0  0  0  0  2  0  0  0  0  0  0
  184.4480  178.2510  142.9480 C   0  0  0  0  0  2  0  0  0  0  0  0
  183.6340  179.3480  143.6100 C   0  0  0  0  0  1  0  0  0  0  0  0
  189.9310  178.2490  143.6450 O   0  0  0  0  0  0  0  0  0  0  0  0
  190.3770  177.8900  144.9380 C   0  0  2  0  0  3  0  0  0  0  0  0
  191.4970  176.8560  144.9180 C   0  0  0  0  0  1  0  0  0  0  0  0
  189.2510  177.4930  145.8910 C   0  0  0  0  0  2  0  0  0  0  0  0
  187.9430  178.1360  145.4680 C   0  0  1  0  0  3  0  0  0  0  0  0
  186.9350  177.1060  145.2570 C   0  0  0  0  0  2  0  0  0  0  0  0
  186.9240  177.8910  146.5000 N   0  0  0  0  0  0  0  0  0  0  0  0
  184.8110  178.6260  147.1330 O   0  0  0  0  0  1  0  0  0  0  0  0
  185.9150  178.9200  146.3330 C   0  0  0  0  0  2  0  0  0  0  0  0
  1 22  1  1  0  0  0
  2  1  1  0  0  0  0
  3  1  1  0  0  0  0
  4 10  1  0  0  0  0
  5  4  1  6  0  0  0
  5  7  1  0  0  0  0
  5  8  1  0  0  0  0
  7  6  1  6  0  0  0
  7  3  1  0  0  0  0
  8 16  1  0  0  0  0
  8  2  1  1  0  0  0
 10  9  1  1  0  0  0
 10  6  1  0  0  0  0
 11 16  1  0  0  0  0
 12 17  1  1  0  0  0
 12 14  1  0  0  0  0
 13 11  1  0  0  0  0
 13 12  1  0  0  0  0
 14 19  1  1  0  0  0
 16 14  1  0  0  0  0
 16 15  1  1  0  0  0
 18 17  1  0  0  0  0
 19 20  1  0  0  0  0
 20 21  1  0  0  0  0
 22 23  1  0  0  0  0
 23 24  1  6  0  0  0
 23 25  1  0  0  0  0
 26 25  1  1  0  0  0
 26 28  1  0  0  0  0
 27 26  1  0  0  0  0
 27 28  1  0  0  0  0
 30 28  1  0  0  0  0
 30 29  1  0  0  0  0
M  END
>  <MODEL>
8

>  <REMARK>
 VINA RESULT:      -6.4      3.305      7.747
  Name = 
  9 active torsions:
  status: ('A' for Active; 'I' for Inactive)
    1  A    between atoms: C_1  and  O_22
    2  A    between atoms: C_2  and  C_14
    3  A    between atoms: C_2  and  O_22
    4  A    between atoms: C_10  and  O_15
    5  A    between atoms: C_11  and  C_25
    6  A    between atoms: C_13  and  C_30
    7  A    between atoms: C_14  and  C_20
    8  A    between atoms: C_19  and  N_29
    9  A    between atoms: C_23  and  C_25
                            x       y       z     vdW  Elec       q    Type
                         _______ _______ _______ _____ _____    ______ ____

>  <TORSDO>
F 9

$$$$
=
 OpenBabel11052412263D

 30 33  0  0  1  0  0  0  0  0999 V2000
  189.0990  177.0540  143.5990 C   0  0  1  0  0  3  0  0  0  0  0  0
  187.6910  176.6650  143.0620 C   0  0  0  0  0  2  0  0  0  0  0  0
  189.9920  177.6710  142.6750 O   0  0  0  0  0  0  0  0  0  0  0  0
  188.1680  177.7810  139.2770 S   0  0  0  0  0  0  0  0  0  0  0  0
  188.3620  178.0690  141.0300 C   0  0  2  0  0  3  0  0  0  0  0  0
  190.6040  177.7410  140.4450 O   0  0  0  0  0  0  0  0  0  0  0  0
  189.6270  177.3430  141.3620 C   0  0  1  0  0  3  0  0  0  0  0  0
  187.2040  177.5140  141.8650 C   0  0  2  0  0  3  0  0  0  0  0  0
  190.4100  176.4260  138.4420 C   0  0  0  0  0  1  0  0  0  0  0  0
  189.9940  177.6900  139.1730 C   0  0  1  0  0  3  0  0  0  0  0  0
  185.2120  178.7410  141.2690 O   0  0  0  0  0  0  0  0  0  0  0  0
  184.0350  178.1520  143.0130 C   0  0  1  0  0  3  0  0  0  0  0  0
  184.1710  177.9900  141.6290 O   0  0  0  0  0  0  0  0  0  0  0  0
  185.4460  178.1650  143.5190 C   0  0  1  0  0  3  0  0  0  0  0  0
  186.8920  179.9590  142.4310 C   0  0  0  0  0  1  0  0  0  0  0  0
  186.1950  178.6060  142.2730 C   0  0  1  0  0  0  0  0  0  0  0  0
  183.3770  179.3610  143.2760 O   0  0  0  0  0  0  0  0  0  0  0  0
  182.0220  179.0290  143.3060 C   0  0  0  0  0  1  0  0  0  0  0  0
  185.6670  178.9860  144.7990 C   0  0  0  0  0  2  0  0  0  0  0  0
  185.0110  178.3230  146.0000 C   0  0  0  0  0  2  0  0  0  0  0  0
  185.5270  178.9290  147.2920 C   0  0  0  0  0  1  0  0  0  0  0  0
  188.9550  177.8840  144.7250 O   0  0  0  0  0  0  0  0  0  0  0  0
  189.3610  177.1820  145.8850 C   0  0  2  0  0  3  0  0  0  0  0  0
  188.5150  177.5110  147.1090 C   0  0  0  0  0  1  0  0  0  0  0  0
  190.8570  177.2880  146.1780 C   0  0  0  0  0  2  0  0  0  0  0  0
  191.2170  176.4780  147.4110 C   0  0  1  0  0  3  0  0  0  0  0  0
  191.9530  175.2850  147.0160 C   0  0  0  0  0  2  0  0  0  0  0  0
  192.6800  176.4420  147.5580 N   0  0  0  0  0  0  0  0  0  0  0  0
  193.8230  177.1020  149.4720 O   0  0  0  0  0  1  0  0  0  0  0  0
  192.9440  176.1500  148.9550 C   0  0  0  0  0  2  0  0  0  0  0  0
  1 22  1  1  0  0  0
  2  1  1  0  0  0  0
  3  1  1  0  0  0  0
  5  4  1  6  0  0  0
  5  7  1  0  0  0  0
  5  8  1  0  0  0  0
  7  6  1  6  0  0  0
  7  3  1  0  0  0  0
  8 16  1  0  0  0  0
  8  2  1  1  0  0  0
 10  9  1  1  0  0  0
 10  4  1  0  0  0  0
 10  6  1  0  0  0  0
 11 13  1  0  0  0  0
 11 16  1  0  0  0  0
 12 17  1  6  0  0  0
 12 14  1  0  0  0  0
 13 12  1  0  0  0  0
 14 19  1  1  0  0  0
 16 15  1  1  0  0  0
 16 14  1  0  0  0  0
 17 18  1  0  0  0  0
 19 20  1  0  0  0  0
 20 21  1  0  0  0  0
 22 23  1  0  0  0  0
 23 25  1  0  0  0  0
 23 24  1  1  0  0  0
 26 25  1  6  0  0  0
 26 28  1  0  0  0  0
 27 26  1  0  0  0  0
 27 28  1  0  0  0  0
 28 30  1  0  0  0  0
 30 29  1  0  0  0  0
M  END
>  <MODEL>
9

>  <REMARK>
 VINA RESULT:      -6.4      3.254      7.850
  Name = 
  9 active torsions:
  status: ('A' for Active; 'I' for Inactive)
    1  A    between atoms: C_1  and  O_22
    2  A    between atoms: C_2  and  C_14
    3  A    between atoms: C_2  and  O_22
    4  A    between atoms: C_10  and  O_15
    5  A    between atoms: C_11  and  C_25
    6  A    between atoms: C_13  and  C_30
    7  A    between atoms: C_14  and  C_20
    8  A    between atoms: C_19  and  N_29
    9  A    between atoms: C_23  and  C_25
                            x       y       z     vdW  Elec       q    Type
                         _______ _______ _______ _____ _____    ______ ____

>  <TORSDO>
F 9

$$$$
