=
 OpenBabel11052413483D

 27 29  0  0  1  0  0  0  0  0999 V2000
  187.6070  176.0110  143.5410 C   0  0  0  0  0  1  0  0  0  0  0  0
  188.3780  177.2960  143.8780 C   0  0  2  0  0  0  0  0  0  0  0  0
  191.7220  178.3140  142.2760 C   0  0  0  0  0  3  0  0  0  0  0  0
  191.7980  177.3890  141.2380 C   0  0  0  0  0  3  0  0  0  0  0  0
  189.6050  177.3480  142.9710 C   0  0  0  0  0  0  0  0  0  0  0  0
  190.6000  179.3380  144.2290 C   0  0  0  0  0  1  0  0  0  0  0  0
  190.7700  176.4630  141.0800 C   0  0  0  0  0  3  0  0  0  0  0  0
  189.7130  176.4650  141.9330 N   0  0  0  0  0  0  0  0  0  0  0  0
  190.6330  178.3100  143.1480 C   0  0  0  0  0  0  0  0  0  0  0  0
  189.6210  177.4420  148.0360 C   0  0  0  0  0  3  0  0  0  0  0  0
  188.8020  177.2990  145.3480 C   0  0  0  0  0  0  0  0  0  0  0  0
  188.0110  177.9580  146.3050 C   0  0  0  0  0  3  0  0  0  0  0  0
  188.4140  178.0230  147.6420 C   0  0  0  0  0  3  0  0  0  0  0  0
  190.4300  176.8040  147.0920 C   0  0  0  0  0  3  0  0  0  0  0  0
  190.0270  176.7400  145.7550 C   0  0  0  0  0  3  0  0  0  0  0  0
  187.5380  178.4720  143.5930 N   0  0  0  0  0  2  0  0  0  0  0  0
  186.6170  178.2260  142.4830 C   0  0  0  0  0  2  0  0  0  0  0  0
  183.7440  178.8170  144.8370 C   0  0  0  0  0  3  0  0  0  0  0  0
  181.4080  179.0700  144.4980 F   0  0  0  0  0  0  0  0  0  0  0  0
  182.8130  178.6760  142.6070 C   0  0  0  0  0  0  0  0  0  0  0  0
  181.6980  178.7200  141.7760 O   0  0  0  0  0  1  0  0  0  0  0  0
  184.0970  178.4500  142.0660 C   0  0  0  0  0  0  0  0  0  0  0  0
  182.6440  178.8550  143.9840 C   0  0  0  0  0  0  0  0  0  0  0  0
  185.2110  178.4110  142.9480 C   0  0  0  0  0  0  0  0  0  0  0  0
  185.0200  178.6000  144.3200 C   0  0  0  0  0  3  0  0  0  0  0  0
  184.4170  179.2240  139.7110 C   0  0  0  0  0  2  0  0  0  0  0  0
  184.1870  178.2640  140.5970 C   0  0  0  0  0  3  0  0  0  0  0  0
  2  1  1  6  0  0  0
  2 11  1  0  0  0  0
  3  9  1  0  0  0  0
  4  3  2  0  0  0  0
  5  9  2  0  0  0  0
  5  2  1  0  0  0  0
  7  4  1  0  0  0  0
  7  8  2  0  0  0  0
  8  5  1  0  0  0  0
  9  6  1  0  0  0  0
 11 15  2  0  0  0  0
 11 12  1  0  0  0  0
 12 13  2  0  0  0  0
 13 10  1  0  0  0  0
 14 10  2  0  0  0  0
 15 14  1  0  0  0  0
 16  2  1  0  0  0  0
 17 24  1  0  0  0  0
 17 16  1  0  0  0  0
 20 23  1  0  0  0  0
 21 20  1  0  0  0  0
 22 20  2  0  0  0  0
 22 24  1  0  0  0  0
 23 19  1  0  0  0  0
 23 18  2  0  0  0  0
 24 25  2  0  0  0  0
 25 18  1  0  0  0  0
 26 27  2  0  0  0  0
 27 22  1  0  0  0  0
M  END
>  <MODEL>
1

>  <REMARK>
 VINA RESULT:      -7.6      0.000      0.000
  Name = 
  6 active torsions:
  status: ('A' for Active; 'I' for Inactive)
    1  A    between atoms: N_2  and  C_6
    2  A    between atoms: N_2  and  C_15
    3  A    between atoms: C_6  and  C_17
    4  A    between atoms: C_9  and  C_15
    5  A    between atoms: C_14  and  C_19
    6  A    between atoms: C_15  and  C_18
                            x       y       z     vdW  Elec       q    Type
                         _______ _______ _______ _____ _____    ______ ____

>  <TORSDO>
F 6

$$$$
=
 OpenBabel11052413483D

 27 29  0  0  1  0  0  0  0  0999 V2000
  189.7410  178.9780  142.4310 C   0  0  0  0  0  1  0  0  0  0  0  0
  189.8760  177.4690  142.1810 C   0  0  2  0  0  0  0  0  0  0  0  0
  191.6190  177.0280  145.5800 C   0  0  0  0  0  3  0  0  0  0  0  0
  192.0310  175.7010  145.4830 C   0  0  0  0  0  3  0  0  0  0  0  0
  190.6250  176.8710  143.3700 C   0  0  0  0  0  0  0  0  0  0  0  0
  190.5200  179.0570  144.6900 C   0  0  0  0  0  1  0  0  0  0  0  0
  191.7400  174.9840  144.3260 C   0  0  0  0  0  3  0  0  0  0  0  0
  191.0580  175.5760  143.3110 N   0  0  0  0  0  0  0  0  0  0  0  0
  190.9190  177.6280  144.5330 C   0  0  0  0  0  0  0  0  0  0  0  0
  192.0510  176.5810  138.5300 C   0  0  0  0  0  3  0  0  0  0  0  0
  190.6400  177.2050  140.8820 C   0  0  0  0  0  0  0  0  0  0  0  0
  189.9950  176.5750  139.8040 C   0  0  0  0  0  3  0  0  0  0  0  0
  190.6940  176.2710  138.6330 C   0  0  0  0  0  3  0  0  0  0  0  0
  192.7130  177.1860  139.6010 C   0  0  0  0  0  3  0  0  0  0  0  0
  192.0130  177.4890  140.7730 C   0  0  0  0  0  3  0  0  0  0  0  0
  188.5400  176.8510  142.1150 N   0  0  0  0  0  2  0  0  0  0  0  0
  187.9960  176.5890  143.4470 C   0  0  0  0  0  2  0  0  0  0  0  0
  185.1190  178.9120  142.7580 C   0  0  0  0  0  3  0  0  0  0  0  0
  183.5820  180.0370  144.1740 F   0  0  0  0  0  0  0  0  0  0  0  0
  185.2730  178.6700  145.1620 C   0  0  0  0  0  0  0  0  0  0  0  0
  184.7830  178.9870  146.4260 O   0  0  0  0  0  1  0  0  0  0  0  0
  186.3860  177.8150  145.0220 C   0  0  0  0  0  0  0  0  0  0  0  0
  184.6490  179.2140  144.0340 C   0  0  0  0  0  0  0  0  0  0  0  0
  186.8580  177.5170  143.7150 C   0  0  0  0  0  0  0  0  0  0  0  0
  186.2140  178.0650  142.6010 C   0  0  0  0  0  3  0  0  0  0  0  0
  188.0170  177.8270  146.9170 C   0  0  0  0  0  2  0  0  0  0  0  0
  186.9930  177.2870  146.2700 C   0  0  0  0  0  3  0  0  0  0  0  0
  2  1  1  1  0  0  0
  2  5  1  0  0  0  0
  4  3  1  0  0  0  0
  5  9  1  0  0  0  0
  7  4  2  0  0  0  0
  8  5  2  0  0  0  0
  8  7  1  0  0  0  0
  9  6  1  0  0  0  0
  9  3  2  0  0  0  0
 10 13  2  0  0  0  0
 10 14  1  0  0  0  0
 11  2  1  0  0  0  0
 12 11  2  0  0  0  0
 13 12  1  0  0  0  0
 14 15  2  0  0  0  0
 15 11  1  0  0  0  0
 16  2  1  0  0  0  0
 16 17  1  0  0  0  0
 17 24  1  0  0  0  0
 18 23  1  0  0  0  0
 20 21  1  0  0  0  0
 22 20  1  0  0  0  0
 22 27  1  0  0  0  0
 23 19  1  0  0  0  0
 23 20  2  0  0  0  0
 24 22  2  0  0  0  0
 25 18  2  0  0  0  0
 25 24  1  0  0  0  0
 27 26  2  0  0  0  0
M  END
>  <MODEL>
2

>  <REMARK>
 VINA RESULT:      -7.6      1.896      4.817
  Name = 
  6 active torsions:
  status: ('A' for Active; 'I' for Inactive)
    1  A    between atoms: N_2  and  C_6
    2  A    between atoms: N_2  and  C_15
    3  A    between atoms: C_6  and  C_17
    4  A    between atoms: C_9  and  C_15
    5  A    between atoms: C_14  and  C_19
    6  A    between atoms: C_15  and  C_18
                            x       y       z     vdW  Elec       q    Type
                         _______ _______ _______ _____ _____    ______ ____

>  <TORSDO>
F 6

$$$$
=
 OpenBabel11052413483D

 27 29  0  0  1  0  0  0  0  0999 V2000
  183.4490  179.6230  139.2290 C   0  0  0  0  0  1  0  0  0  0  0  0
  182.8560  178.3390  139.8270 C   0  0  2  0  0  0  0  0  0  0  0  0
  182.1680  176.5580  136.4890 C   0  0  0  0  0  3  0  0  0  0  0  0
  182.7280  175.3090  136.7480 C   0  0  0  0  0  3  0  0  0  0  0  0
  182.8040  177.2940  138.7140 C   0  0  0  0  0  0  0  0  0  0  0  0
  181.5640  178.8690  137.1290 C   0  0  0  0  0  1  0  0  0  0  0  0
  183.3100  175.0720  137.9910 C   0  0  0  0  0  3  0  0  0  0  0  0
  183.3320  176.0530  138.9310 N   0  0  0  0  0  0  0  0  0  0  0  0
  182.1950  177.5590  137.4600 C   0  0  0  0  0  0  0  0  0  0  0  0
  178.9320  179.1140  141.5150 C   0  0  0  0  0  3  0  0  0  0  0  0
  181.4530  178.6000  140.3770 C   0  0  0  0  0  0  0  0  0  0  0  0
  181.0120  179.9200  140.5780 C   0  0  0  0  0  3  0  0  0  0  0  0
  179.7570  180.1760  141.1360 C   0  0  0  0  0  3  0  0  0  0  0  0
  179.3640  177.7970  141.3440 C   0  0  0  0  0  3  0  0  0  0  0  0
  180.6210  177.5420  140.7860 C   0  0  0  0  0  3  0  0  0  0  0  0
  183.7320  177.8340  140.8980 N   0  0  0  0  0  2  0  0  0  0  0  0
  184.6400  178.8700  141.3910 C   0  0  0  0  0  2  0  0  0  0  0  0
  186.9680  177.5170  144.0170 C   0  0  0  0  0  3  0  0  0  0  0  0
  186.8530  177.4370  146.3870 F   0  0  0  0  0  0  0  0  0  0  0  0
  185.0390  178.4100  145.1750 C   0  0  0  0  0  0  0  0  0  0  0  0
  184.3830  178.6680  146.3750 O   0  0  0  0  0  1  0  0  0  0  0  0
  184.4470  178.7720  143.9460 C   0  0  0  0  0  0  0  0  0  0  0  0
  186.2900  177.7850  145.2040 C   0  0  0  0  0  0  0  0  0  0  0  0
  185.1480  178.4900  142.7420 C   0  0  0  0  0  0  0  0  0  0  0  0
  186.4010  177.8710  142.7950 C   0  0  0  0  0  3  0  0  0  0  0  0
  181.9480  178.7950  144.0080 C   0  0  0  0  0  2  0  0  0  0  0  0
  183.1160  179.4250  144.0040 C   0  0  0  0  0  3  0  0  0  0  0  0
  2  1  1  6  0  0  0
  2 11  1  0  0  0  0
  2 16  1  0  0  0  0
  3  4  2  0  0  0  0
  3  9  1  0  0  0  0
  4  7  1  0  0  0  0
  5  8  1  0  0  0  0
  5  2  1  0  0  0  0
  6  9  1  0  0  0  0
  7  8  2  0  0  0  0
  9  5  2  0  0  0  0
 11 12  2  0  0  0  0
 11 15  1  0  0  0  0
 12 13  1  0  0  0  0
 13 10  2  0  0  0  0
 14 10  1  0  0  0  0
 15 14  2  0  0  0  0
 16 17  1  0  0  0  0
 17 24  1  0  0  0  0
 18 23  1  0  0  0  0
 20 23  2  0  0  0  0
 20 21  1  0  0  0  0
 22 27  1  0  0  0  0
 22 20  1  0  0  0  0
 23 19  1  0  0  0  0
 24 25  1  0  0  0  0
 24 22  2  0  0  0  0
 25 18  2  0  0  0  0
 27 26  2  0  0  0  0
M  END
>  <MODEL>
3

>  <REMARK>
 VINA RESULT:      -7.5      3.514      7.810
  Name = 
  6 active torsions:
  status: ('A' for Active; 'I' for Inactive)
    1  A    between atoms: N_2  and  C_6
    2  A    between atoms: N_2  and  C_15
    3  A    between atoms: C_6  and  C_17
    4  A    between atoms: C_9  and  C_15
    5  A    between atoms: C_14  and  C_19
    6  A    between atoms: C_15  and  C_18
                            x       y       z     vdW  Elec       q    Type
                         _______ _______ _______ _____ _____    ______ ____

>  <TORSDO>
F 6

$$$$
=
 OpenBabel11052413483D

 27 29  0  0  1  0  0  0  0  0999 V2000
  190.0370  178.7610  143.3940 C   0  0  0  0  0  1  0  0  0  0  0  0
  190.0470  177.2750  143.0080 C   0  0  2  0  0  0  0  0  0  0  0  0
  191.6450  176.2540  146.3530 C   0  0  0  0  0  3  0  0  0  0  0  0
  192.3350  175.1080  145.9650 C   0  0  0  0  0  3  0  0  0  0  0  0
  190.8360  176.5260  144.0790 C   0  0  0  0  0  0  0  0  0  0  0  0
  190.1920  178.2040  145.8970 C   0  0  0  0  0  1  0  0  0  0  0  0
  192.2690  174.6950  144.6370 C   0  0  0  0  0  3  0  0  0  0  0  0
  191.5370  175.4030  143.7390 N   0  0  0  0  0  0  0  0  0  0  0  0
  190.8940  176.9750  145.4240 C   0  0  0  0  0  0  0  0  0  0  0  0
  191.8680  176.8600  139.0880 C   0  0  0  0  0  3  0  0  0  0  0  0
  190.6940  177.0790  141.6350 C   0  0  0  0  0  0  0  0  0  0  0  0
  192.0160  177.5040  141.4160 C   0  0  0  0  0  3  0  0  0  0  0  0
  192.6020  177.3890  140.1520 C   0  0  0  0  0  3  0  0  0  0  0  0
  190.5450  176.4550  139.2840 C   0  0  0  0  0  3  0  0  0  0  0  0
  189.9600  176.5710  140.5480 C   0  0  0  0  0  3  0  0  0  0  0  0
  188.6690  176.7530  142.9950 N   0  0  0  0  0  2  0  0  0  0  0  0
  187.6910  177.8050  142.7170 C   0  0  0  0  0  2  0  0  0  0  0  0
  186.3860  177.5480  146.2350 C   0  0  0  0  0  3  0  0  0  0  0  0
  184.3640  178.2530  147.2590 F   0  0  0  0  0  0  0  0  0  0  0  0
  184.6760  178.6530  144.9250 C   0  0  0  0  0  0  0  0  0  0  0  0
  183.4220  179.2540  144.8660 O   0  0  0  0  0  1  0  0  0  0  0  0
  185.4730  178.5490  143.7650 C   0  0  0  0  0  0  0  0  0  0  0  0
  185.1340  178.1520  146.1480 C   0  0  0  0  0  0  0  0  0  0  0  0
  186.7470  177.9270  143.8660 C   0  0  0  0  0  0  0  0  0  0  0  0
  187.1880  177.4410  145.1000 C   0  0  0  0  0  3  0  0  0  0  0  0
  184.1810  178.4230  141.6280 C   0  0  0  0  0  2  0  0  0  0  0  0
  184.9090  179.0990  142.5070 C   0  0  0  0  0  3  0  0  0  0  0  0
  2  1  1  1  0  0  0
  2  5  1  0  0  0  0
  4  3  1  0  0  0  0
  5  9  1  0  0  0  0
  7  4  2  0  0  0  0
  8  5  2  0  0  0  0
  8  7  1  0  0  0  0
  9  6  1  0  0  0  0
  9  3  2  0  0  0  0
 10 14  2  0  0  0  0
 10 13  1  0  0  0  0
 11  2  1  0  0  0  0
 12 11  1  0  0  0  0
 13 12  2  0  0  0  0
 14 15  1  0  0  0  0
 15 11  2  0  0  0  0
 16  2  1  0  0  0  0
 17 16  1  0  0  0  0
 17 24  1  0  0  0  0
 20 23  2  0  0  0  0
 21 20  1  0  0  0  0
 22 24  2  0  0  0  0
 22 20  1  0  0  0  0
 23 18  1  0  0  0  0
 23 19  1  0  0  0  0
 24 25  1  0  0  0  0
 25 18  2  0  0  0  0
 26 27  2  0  0  0  0
 27 22  1  0  0  0  0
M  END
>  <MODEL>
4

>  <REMARK>
 VINA RESULT:      -7.5      1.862      4.312
  Name = 
  6 active torsions:
  status: ('A' for Active; 'I' for Inactive)
    1  A    between atoms: N_2  and  C_6
    2  A    between atoms: N_2  and  C_15
    3  A    between atoms: C_6  and  C_17
    4  A    between atoms: C_9  and  C_15
    5  A    between atoms: C_14  and  C_19
    6  A    between atoms: C_15  and  C_18
                            x       y       z     vdW  Elec       q    Type
                         _______ _______ _______ _____ _____    ______ ____

>  <TORSDO>
F 6

$$$$
=
 OpenBabel11052413483D

 27 29  0  0  1  0  0  0  0  0999 V2000
  188.1920  179.3770  141.6300 C   0  0  0  0  0  1  0  0  0  0  0  0
  188.7990  177.9710  141.7380 C   0  0  2  0  0  0  0  0  0  0  0  0
  191.6390  177.0140  144.1480 C   0  0  0  0  0  3  0  0  0  0  0  0
  192.0560  178.2760  144.5620 C   0  0  0  0  0  3  0  0  0  0  0  0
  189.9600  178.0440  142.7270 C   0  0  0  0  0  0  0  0  0  0  0  0
  190.1790  175.5000  142.8440 C   0  0  0  0  0  1  0  0  0  0  0  0
  191.4110  179.4020  144.0570 C   0  0  0  0  0  3  0  0  0  0  0  0
  190.3930  179.2630  143.1680 N   0  0  0  0  0  0  0  0  0  0  0  0
  190.5920  176.8800  143.2350 C   0  0  0  0  0  0  0  0  0  0  0  0
  190.1570  176.4830  137.8910 C   0  0  0  0  0  3  0  0  0  0  0  0
  189.2940  177.4920  140.3710 C   0  0  0  0  0  0  0  0  0  0  0  0
  188.3710  177.2280  139.3440 C   0  0  0  0  0  3  0  0  0  0  0  0
  188.8000  176.7330  138.1090 C   0  0  0  0  0  3  0  0  0  0  0  0
  191.0840  176.7190  138.9090 C   0  0  0  0  0  3  0  0  0  0  0  0
  190.6540  177.2130  140.1440 C   0  0  0  0  0  3  0  0  0  0  0  0
  187.7950  177.0310  142.2670 N   0  0  0  0  0  2  0  0  0  0  0  0
  186.6360  177.7300  142.8210 C   0  0  0  0  0  2  0  0  0  0  0  0
  188.0220  177.1360  146.2660 C   0  0  0  0  0  3  0  0  0  0  0  0
  187.4000  177.9340  148.4140 F   0  0  0  0  0  0  0  0  0  0  0  0
  186.1280  178.6230  146.5130 C   0  0  0  0  0  0  0  0  0  0  0  0
  185.3060  179.3790  147.3440 O   0  0  0  0  0  1  0  0  0  0  0  0
  185.8970  178.5880  145.1220 C   0  0  0  0  0  0  0  0  0  0  0  0
  187.1840  177.8980  147.0760 C   0  0  0  0  0  0  0  0  0  0  0  0
  186.7570  177.8040  144.3070 C   0  0  0  0  0  0  0  0  0  0  0  0
  187.8110  177.0930  144.8900 C   0  0  0  0  0  3  0  0  0  0  0  0
  183.5370  178.9080  144.3620 C   0  0  0  0  0  2  0  0  0  0  0  0
  184.7520  179.3800  144.6070 C   0  0  0  0  0  3  0  0  0  0  0  0
  2  1  1  6  0  0  0
  2 16  1  0  0  0  0
  2  5  1  0  0  0  0
  3  4  1  0  0  0  0
  5  8  2  0  0  0  0
  5  9  1  0  0  0  0
  6  9  1  0  0  0  0
  7  4  2  0  0  0  0
  8  7  1  0  0  0  0
  9  3  2  0  0  0  0
 10 13  2  0  0  0  0
 10 14  1  0  0  0  0
 11  2  1  0  0  0  0
 12 11  2  0  0  0  0
 13 12  1  0  0  0  0
 14 15  2  0  0  0  0
 15 11  1  0  0  0  0
 16 17  1  0  0  0  0
 17 24  1  0  0  0  0
 18 23  1  0  0  0  0
 20 23  2  0  0  0  0
 20 21  1  0  0  0  0
 22 20  1  0  0  0  0
 23 19  1  0  0  0  0
 24 25  1  0  0  0  0
 24 22  2  0  0  0  0
 25 18  2  0  0  0  0
 26 27  2  0  0  0  0
 27 22  1  0  0  0  0
M  END
>  <MODEL>
5

>  <REMARK>
 VINA RESULT:      -7.3      2.626      5.109
  Name = 
  6 active torsions:
  status: ('A' for Active; 'I' for Inactive)
    1  A    between atoms: N_2  and  C_6
    2  A    between atoms: N_2  and  C_15
    3  A    between atoms: C_6  and  C_17
    4  A    between atoms: C_9  and  C_15
    5  A    between atoms: C_14  and  C_19
    6  A    between atoms: C_15  and  C_18
                            x       y       z     vdW  Elec       q    Type
                         _______ _______ _______ _____ _____    ______ ____

>  <TORSDO>
F 6

$$$$
=
 OpenBabel11052413483D

 27 29  0  0  1  0  0  0  0  0999 V2000
  184.3070  179.6110  139.6880 C   0  0  0  0  0  1  0  0  0  0  0  0
  183.4090  178.4020  139.9860 C   0  0  2  0  0  0  0  0  0  0  0  0
  183.2120  175.2320  137.8180 C   0  0  0  0  0  3  0  0  0  0  0  0
  184.1520  175.5370  136.8370 C   0  0  0  0  0  3  0  0  0  0  0  0
  183.6390  177.3730  138.8810 C   0  0  0  0  0  0  0  0  0  0  0  0
  181.9410  175.7440  139.8780 C   0  0  0  0  0  1  0  0  0  0  0  0
  184.8270  176.7530  136.9010 C   0  0  0  0  0  3  0  0  0  0  0  0
  184.5620  177.6280  137.9060 N   0  0  0  0  0  0  0  0  0  0  0  0
  182.9460  176.1360  138.8470 C   0  0  0  0  0  0  0  0  0  0  0  0
  179.2750  179.7280  140.0870 C   0  0  0  0  0  3  0  0  0  0  0  0
  181.9380  178.8210  140.0250 C   0  0  0  0  0  0  0  0  0  0  0  0
  181.3020  179.2610  138.8510 C   0  0  0  0  0  3  0  0  0  0  0  0
  179.9770  179.7050  138.8800 C   0  0  0  0  0  3  0  0  0  0  0  0
  179.9000  179.3150  141.2670 C   0  0  0  0  0  3  0  0  0  0  0  0
  181.2260  178.8720  141.2370 C   0  0  0  0  0  3  0  0  0  0  0  0
  183.7950  177.7970  141.2730 N   0  0  0  0  0  2  0  0  0  0  0  0
  185.1100  178.2560  141.7170 C   0  0  0  0  0  2  0  0  0  0  0  0
  183.8630  178.8490  145.2150 C   0  0  0  0  0  3  0  0  0  0  0  0
  184.8720  178.6030  147.3500 F   0  0  0  0  0  0  0  0  0  0  0  0
  186.1580  178.1000  145.4000 C   0  0  0  0  0  0  0  0  0  0  0  0
  187.2440  177.7740  146.2070 O   0  0  0  0  0  1  0  0  0  0  0  0
  186.2610  178.0130  143.9960 C   0  0  0  0  0  0  0  0  0  0  0  0
  184.9650  178.5190  146.0000 C   0  0  0  0  0  0  0  0  0  0  0  0
  185.1300  178.3560  143.2060 C   0  0  0  0  0  0  0  0  0  0  0  0
  183.9450  178.7640  143.8270 C   0  0  0  0  0  3  0  0  0  0  0  0
  187.9500  176.3060  143.3000 C   0  0  0  0  0  2  0  0  0  0  0  0
  187.5630  177.5670  143.4410 C   0  0  0  0  0  3  0  0  0  0  0  0
  2  1  1  6  0  0  0
  2 11  1  0  0  0  0
  2 16  1  0  0  0  0
  3  9  1  0  0  0  0
  4  7  1  0  0  0  0
  4  3  2  0  0  0  0
  5  2  1  0  0  0  0
  7  8  2  0  0  0  0
  8  5  1  0  0  0  0
  9  5  2  0  0  0  0
  9  6  1  0  0  0  0
 10 14  1  0  0  0  0
 11 15  1  0  0  0  0
 12 13  1  0  0  0  0
 12 11  2  0  0  0  0
 13 10  2  0  0  0  0
 15 14  2  0  0  0  0
 16 17  1  0  0  0  0
 17 24  1  0  0  0  0
 18 23  1  0  0  0  0
 20 23  2  0  0  0  0
 20 21  1  0  0  0  0
 22 20  1  0  0  0  0
 23 19  1  0  0  0  0
 24 25  1  0  0  0  0
 24 22  2  0  0  0  0
 25 18  2  0  0  0  0
 26 27  2  0  0  0  0
 27 22  1  0  0  0  0
M  END
>  <MODEL>
6

>  <REMARK>
 VINA RESULT:      -7.3      3.313      7.573
  Name = 
  6 active torsions:
  status: ('A' for Active; 'I' for Inactive)
    1  A    between atoms: N_2  and  C_6
    2  A    between atoms: N_2  and  C_15
    3  A    between atoms: C_6  and  C_17
    4  A    between atoms: C_9  and  C_15
    5  A    between atoms: C_14  and  C_19
    6  A    between atoms: C_15  and  C_18
                            x       y       z     vdW  Elec       q    Type
                         _______ _______ _______ _____ _____    ______ ____

>  <TORSDO>
F 6

$$$$
=
 OpenBabel11052413483D

 27 29  0  0  1  0  0  0  0  0999 V2000
  188.5360  175.7710  143.2650 C   0  0  0  0  0  1  0  0  0  0  0  0
  188.6980  177.1770  143.8620 C   0  0  2  0  0  0  0  0  0  0  0  0
  191.6790  176.4040  146.1650 C   0  0  0  0  0  3  0  0  0  0  0  0
  191.1750  176.8440  147.3860 C   0  0  0  0  0  3  0  0  0  0  0  0
  189.6030  177.0560  145.0850 C   0  0  0  0  0  0  0  0  0  0  0  0
  191.4930  175.9950  143.7320 C   0  0  0  0  0  1  0  0  0  0  0  0
  189.8890  177.3760  147.4370 C   0  0  0  0  0  3  0  0  0  0  0  0
  189.1440  177.4650  146.3060 N   0  0  0  0  0  0  0  0  0  0  0  0
  190.9060  176.5000  145.0070 C   0  0  0  0  0  0  0  0  0  0  0  0
  184.7960  178.6810  145.0300 C   0  0  0  0  0  3  0  0  0  0  0  0
  187.3380  177.7530  144.2590 C   0  0  0  0  0  0  0  0  0  0  0  0
  187.0180  177.9240  145.6170 C   0  0  0  0  0  3  0  0  0  0  0  0
  185.7580  178.3920  146.0000 C   0  0  0  0  0  3  0  0  0  0  0  0
  185.0900  178.4950  143.6770 C   0  0  0  0  0  3  0  0  0  0  0  0
  186.3510  178.0260  143.2950 C   0  0  0  0  0  3  0  0  0  0  0  0
  189.3540  178.0620  142.8840 N   0  0  0  0  0  2  0  0  0  0  0  0
  188.8420  177.8510  141.5290 C   0  0  0  0  0  2  0  0  0  0  0  0
  192.3820  177.3590  140.3580 C   0  0  0  0  0  3  0  0  0  0  0  0
  193.3140  176.6850  138.2810 F   0  0  0  0  0  0  0  0  0  0  0  0
  190.9400  176.8630  138.4780 C   0  0  0  0  0  0  0  0  0  0  0  0
  190.8050  176.4670  137.1510 O   0  0  0  0  0  1  0  0  0  0  0  0
  189.7980  177.1580  139.2530 C   0  0  0  0  0  0  0  0  0  0  0  0
  192.2210  176.9670  139.0310 C   0  0  0  0  0  0  0  0  0  0  0  0
  189.9770  177.5600  140.6050 C   0  0  0  0  0  0  0  0  0  0  0  0
  191.2660  177.6500  141.1400 C   0  0  0  0  0  3  0  0  0  0  0  0
  187.8060  178.0170  138.0120 C   0  0  0  0  0  2  0  0  0  0  0  0
  188.4780  177.0290  138.5880 C   0  0  0  0  0  3  0  0  0  0  0  0
  2  1  1  6  0  0  0
  2 11  1  0  0  0  0
  2  5  1  0  0  0  0
  3  4  1  0  0  0  0
  4  7  2  0  0  0  0
  5  8  2  0  0  0  0
  6  9  1  0  0  0  0
  8  7  1  0  0  0  0
  9  5  1  0  0  0  0
  9  3  2  0  0  0  0
 10 13  1  0  0  0  0
 11 12  1  0  0  0  0
 12 13  2  0  0  0  0
 14 10  2  0  0  0  0
 15 14  1  0  0  0  0
 15 11  2  0  0  0  0
 16  2  1  0  0  0  0
 17 16  1  0  0  0  0
 18 25  1  0  0  0  0
 19 23  1  0  0  0  0
 20 23  1  0  0  0  0
 20 22  2  0  0  0  0
 21 20  1  0  0  0  0
 22 24  1  0  0  0  0
 23 18  2  0  0  0  0
 24 25  2  0  0  0  0
 24 17  1  0  0  0  0
 26 27  2  0  0  0  0
 27 22  1  0  0  0  0
M  END
>  <MODEL>
7

>  <REMARK>
 VINA RESULT:      -7.3      3.761      6.167
  Name = 
  6 active torsions:
  status: ('A' for Active; 'I' for Inactive)
    1  A    between atoms: N_2  and  C_6
    2  A    between atoms: N_2  and  C_15
    3  A    between atoms: C_6  and  C_17
    4  A    between atoms: C_9  and  C_15
    5  A    between atoms: C_14  and  C_19
    6  A    between atoms: C_15  and  C_18
                            x       y       z     vdW  Elec       q    Type
                         _______ _______ _______ _____ _____    ______ ____

>  <TORSDO>
F 6

$$$$
=
 OpenBabel11052413483D

 27 29  0  0  1  0  0  0  0  0999 V2000
  189.0190  178.8300  137.8760 C   0  0  0  0  0  1  0  0  0  0  0  0
  188.7300  177.3510  138.1760 C   0  0  2  0  0  0  0  0  0  0  0  0
  191.1950  175.8150  135.6570 C   0  0  0  0  0  3  0  0  0  0  0  0
  191.9050  174.9540  136.4900 C   0  0  0  0  0  3  0  0  0  0  0  0
  189.8530  176.5270  137.5520 C   0  0  0  0  0  0  0  0  0  0  0  0
  189.4300  177.4940  135.2240 C   0  0  0  0  0  1  0  0  0  0  0  0
  191.5700  174.8890  137.8400 C   0  0  0  0  0  3  0  0  0  0  0  0
  190.5670  175.6610  138.3310 N   0  0  0  0  0  0  0  0  0  0  0  0
  190.1660  176.6050  136.1700 C   0  0  0  0  0  0  0  0  0  0  0  0
  184.8370  176.1790  136.6510 C   0  0  0  0  0  3  0  0  0  0  0  0
  187.3770  176.9380  137.5930 C   0  0  0  0  0  0  0  0  0  0  0  0
  186.3360  177.8780  137.5000 C   0  0  0  0  0  3  0  0  0  0  0  0
  185.0760  177.5030  137.0260 C   0  0  0  0  0  3  0  0  0  0  0  0
  185.8550  175.2270  136.7590 C   0  0  0  0  0  3  0  0  0  0  0  0
  187.1150  175.6040  137.2340 C   0  0  0  0  0  3  0  0  0  0  0  0
  188.7410  177.1250  139.6320 N   0  0  0  0  0  2  0  0  0  0  0  0
  188.7050  178.3830  140.3780 C   0  0  0  0  0  2  0  0  0  0  0  0
  185.2620  178.7840  141.8380 C   0  0  0  0  0  3  0  0  0  0  0  0
  184.3300  178.2190  143.9470 F   0  0  0  0  0  0  0  0  0  0  0  0
  186.6380  177.7560  143.5440 C   0  0  0  0  0  0  0  0  0  0  0  0
  186.7510  177.2280  144.8270 O   0  0  0  0  0  1  0  0  0  0  0  0
  187.7580  177.7910  142.6860 C   0  0  0  0  0  0  0  0  0  0  0  0
  185.4020  178.2530  143.1180 C   0  0  0  0  0  0  0  0  0  0  0  0
  187.6030  178.3380  141.3840 C   0  0  0  0  0  0  0  0  0  0  0  0
  186.3560  178.8220  140.9770 C   0  0  0  0  0  3  0  0  0  0  0  0
  189.4640  176.0040  143.0680 C   0  0  0  0  0  2  0  0  0  0  0  0
  189.0330  177.2490  143.2190 C   0  0  0  0  0  3  0  0  0  0  0  0
  2  1  1  6  0  0  0
  2 16  1  0  0  0  0
  3  9  2  0  0  0  0
  3  4  1  0  0  0  0
  4  7  2  0  0  0  0
  5  2  1  0  0  0  0
  5  8  2  0  0  0  0
  6  9  1  0  0  0  0
  7  8  1  0  0  0  0
  9  5  1  0  0  0  0
 10 14  2  0  0  0  0
 10 13  1  0  0  0  0
 11  2  1  0  0  0  0
 12 11  1  0  0  0  0
 13 12  2  0  0  0  0
 14 15  1  0  0  0  0
 15 11  2  0  0  0  0
 16 17  1  0  0  0  0
 17 24  1  0  0  0  0
 18 23  1  0  0  0  0
 20 21  1  0  0  0  0
 22 27  1  0  0  0  0
 22 20  1  0  0  0  0
 23 20  2  0  0  0  0
 23 19  1  0  0  0  0
 24 22  2  0  0  0  0
 25 24  1  0  0  0  0
 25 18  2  0  0  0  0
 26 27  2  0  0  0  0
M  END
>  <MODEL>
8

>  <REMARK>
 VINA RESULT:      -7.3      3.725      6.687
  Name = 
  6 active torsions:
  status: ('A' for Active; 'I' for Inactive)
    1  A    between atoms: N_2  and  C_6
    2  A    between atoms: N_2  and  C_15
    3  A    between atoms: C_6  and  C_17
    4  A    between atoms: C_9  and  C_15
    5  A    between atoms: C_14  and  C_19
    6  A    between atoms: C_15  and  C_18
                            x       y       z     vdW  Elec       q    Type
                         _______ _______ _______ _____ _____    ______ ____

>  <TORSDO>
F 6

$$$$
=
 OpenBabel11052413483D

 27 29  0  0  1  0  0  0  0  0999 V2000
  189.0510  178.8180  137.9020 C   0  0  0  0  0  1  0  0  0  0  0  0
  188.7850  177.3350  138.2000 C   0  0  2  0  0  0  0  0  0  0  0  0
  191.2650  175.8210  135.6810 C   0  0  0  0  0  3  0  0  0  0  0  0
  192.0040  174.9920  136.5210 C   0  0  0  0  0  3  0  0  0  0  0  0
  189.9230  176.5290  137.5780 C   0  0  0  0  0  0  0  0  0  0  0  0
  189.4550  177.4490  135.2390 C   0  0  0  0  0  1  0  0  0  0  0  0
  191.6840  174.9390  137.8750 C   0  0  0  0  0  3  0  0  0  0  0  0
  190.6660  175.6940  138.3640 N   0  0  0  0  0  0  0  0  0  0  0  0
  190.2210  176.5930  136.1920 C   0  0  0  0  0  0  0  0  0  0  0  0
  184.9120  176.1150  136.6620 C   0  0  0  0  0  3  0  0  0  0  0  0
  187.4410  176.9000  137.6130 C   0  0  0  0  0  0  0  0  0  0  0  0
  186.4290  177.8510  137.3990 C   0  0  0  0  0  3  0  0  0  0  0  0
  185.1740  177.4630  136.9200 C   0  0  0  0  0  3  0  0  0  0  0  0
  185.9010  175.1550  136.8920 C   0  0  0  0  0  3  0  0  0  0  0  0
  187.1550  175.5440  137.3720 C   0  0  0  0  0  3  0  0  0  0  0  0
  188.7970  177.1070  139.6560 N   0  0  0  0  0  2  0  0  0  0  0  0
  188.4590  178.3220  140.3990 C   0  0  0  0  0  2  0  0  0  0  0  0
  188.2320  176.8450  143.8500 C   0  0  0  0  0  3  0  0  0  0  0  0
  186.5430  176.8960  145.5170 F   0  0  0  0  0  0  0  0  0  0  0  0
  186.1480  178.0060  143.4390 C   0  0  0  0  0  0  0  0  0  0  0  0
  184.8910  178.3960  143.8920 O   0  0  0  0  0  1  0  0  0  0  0  0
  186.5860  178.3720  142.1490 C   0  0  0  0  0  0  0  0  0  0  0  0
  186.9690  177.2460  144.2790 C   0  0  0  0  0  0  0  0  0  0  0  0
  187.8750  177.9540  141.7220 C   0  0  0  0  0  0  0  0  0  0  0  0
  188.6830  177.2010  142.5810 C   0  0  0  0  0  3  0  0  0  0  0  0
  184.7520  178.6800  140.4780 C   0  0  0  0  0  2  0  0  0  0  0  0
  185.6510  179.1730  141.3200 C   0  0  0  0  0  3  0  0  0  0  0  0
  2  1  1  6  0  0  0
  2 16  1  0  0  0  0
  3  9  2  0  0  0  0
  3  4  1  0  0  0  0
  4  7  2  0  0  0  0
  5  2  1  0  0  0  0
  5  8  2  0  0  0  0
  6  9  1  0  0  0  0
  7  8  1  0  0  0  0
  9  5  1  0  0  0  0
 10 14  2  0  0  0  0
 10 13  1  0  0  0  0
 11  2  1  0  0  0  0
 12 11  1  0  0  0  0
 13 12  2  0  0  0  0
 14 15  1  0  0  0  0
 15 11  2  0  0  0  0
 16 17  1  0  0  0  0
 17 24  1  0  0  0  0
 18 23  1  0  0  0  0
 20 21  1  0  0  0  0
 20 23  2  0  0  0  0
 22 20  1  0  0  0  0
 23 19  1  0  0  0  0
 24 22  2  0  0  0  0
 24 25  1  0  0  0  0
 25 18  2  0  0  0  0
 26 27  2  0  0  0  0
 27 22  1  0  0  0  0
M  END
>  <MODEL>
9

>  <REMARK>
 VINA RESULT:      -7.3      3.717      6.518
  Name = 
  6 active torsions:
  status: ('A' for Active; 'I' for Inactive)
    1  A    between atoms: N_2  and  C_6
    2  A    between atoms: N_2  and  C_15
    3  A    between atoms: C_6  and  C_17
    4  A    between atoms: C_9  and  C_15
    5  A    between atoms: C_14  and  C_19
    6  A    between atoms: C_15  and  C_18
                            x       y       z     vdW  Elec       q    Type
                         _______ _______ _______ _____ _____    ______ ____

>  <TORSDO>
F 6

$$$$
