=
 OpenBabel11052415503D

 34 40  0  0  0  0  0  0  0  0999 V2000
  186.7990  178.3830  140.6730 C   0  0  0  0  0  0  0  0  0  0  0  0
  187.4760  178.4750  137.0720 C   0  0  0  0  0  2  0  0  0  0  0  0
  185.5000  178.5890  138.2480 N   0  0  0  0  0  0  0  0  0  0  0  0
  186.0320  178.3490  142.7110 C   0  0  0  0  0  0  0  0  0  0  0  0
  187.1500  178.1780  142.0490 N   0  0  0  0  0  0  0  0  0  0  0  0
  183.5290  178.7650  141.9470 C   0  0  0  0  0  3  0  0  0  0  0  0
  182.7680  178.8960  140.7550 C   0  0  0  0  0  3  0  0  0  0  0  0
  184.9140  178.6430  141.8090 C   0  0  0  0  0  0  0  0  0  0  0  0
  185.9080  178.2140  144.1320 N   0  0  0  0  0  2  0  0  0  0  0  0
  184.7900  178.7050  139.4050 C   0  0  0  0  0  0  0  0  0  0  0  0
  185.4810  178.6420  140.5860 C   0  0  0  0  0  0  0  0  0  0  0  0
  183.3950  178.8600  139.4780 C   0  0  0  0  0  3  0  0  0  0  0  0
  188.9490  178.5920  136.8660 C   0  0  0  0  0  2  0  0  0  0  0  0
  189.7060  177.4080  137.3540 C   0  0  0  0  0  0  0  0  0  0  0  0
  189.6490  177.0320  138.6300 C   0  0  0  0  0  3  0  0  0  0  0  0
  186.8610  178.3700  138.2540 C   0  0  0  0  0  0  0  0  0  0  0  0
  188.7560  177.5860  139.6630 C   0  0  0  0  0  2  0  0  0  0  0  0
  187.5480  178.1560  139.5100 C   0  0  0  0  0  0  0  0  0  0  0  0
  187.8190  177.7010  147.3270 C   0  0  0  0  0  3  0  0  0  0  0  0
  188.2120  177.5420  144.5560 C   0  0  0  0  0  3  0  0  0  0  0  0
  191.3700  176.6520  147.1900 C   0  0  0  0  0  0  0  0  0  0  0  0
  190.1170  177.0290  147.6940 C   0  0  0  0  0  3  0  0  0  0  0  0
  189.0650  177.3260  146.8230 C   0  0  0  0  0  0  0  0  0  0  0  0
  190.5110  176.8700  144.9230 C   0  0  0  0  0  3  0  0  0  0  0  0
  189.2640  177.2450  145.4270 C   0  0  0  0  0  0  0  0  0  0  0  0
  191.5590  176.5750  145.8000 C   0  0  0  0  0  3  0  0  0  0  0  0
  186.9610  177.9190  145.0590 C   0  0  0  0  0  0  0  0  0  0  0  0
  186.7720  177.9950  146.4480 C   0  0  0  0  0  3  0  0  0  0  0  0
  192.4780  176.3390  148.1080 C   0  0  0  0  0  0  0  0  0  0  0  0
  193.1590  175.2910  147.9520 O   0  0  0  0  0  0  0  0  0  0  0  0
  192.7940  177.2200  149.1830 N   0  0  0  0  0  1  0  0  0  0  0  0
  190.5910  176.6580  136.4020 C   0  0  0  0  0  3  0  0  0  0  0  0
  190.7640  175.2160  136.8530 C   0  0  0  0  0  2  0  0  0  0  0  0
  189.8220  175.5370  135.7170 C   0  0  0  0  0  2  0  0  0  0  0  0
  1  5  1  0  0  0  0
  2 16  1  0  0  0  0
  3 16  2  0  0  0  0
  3 10  1  0  0  0  0
  4  9  1  0  0  0  0
  5  4  2  0  0  0  0
  7  6  2  0  0  0  0
  8  6  1  0  0  0  0
  8  4  1  0  0  0  0
  9 27  1  0  0  0  0
 10 12  2  0  0  0  0
 10 11  1  0  0  0  0
 11  1  1  0  0  0  0
 11  8  2  0  0  0  0
 12  7  1  0  0  0  0
 13  2  1  0  0  0  0
 13 14  1  0  0  0  0
 14 15  2  0  0  0  0
 15 17  1  0  0  0  0
 16 18  1  0  0  0  0
 18 17  1  0  0  0  0
 18  1  2  0  0  0  0
 20 27  2  0  0  0  0
 20 25  1  0  0  0  0
 21 22  1  0  0  0  0
 21 29  1  0  0  0  0
 23 19  1  0  0  0  0
 23 22  2  0  0  0  0
 24 25  2  0  0  0  0
 24 26  1  0  0  0  0
 25 23  1  0  0  0  0
 26 21  2  0  0  0  0
 27 28  1  0  0  0  0
 28 19  2  0  0  0  0
 29 31  1  0  0  0  0
 30 29  2  0  0  0  0
 32 33  1  0  0  0  0
 32 14  1  0  0  0  0
 34 32  1  0  0  0  0
 34 33  1  0  0  0  0
M  END
>  <MODEL>
1

>  <REMARK>
 VINA RESULT:     -11.2      0.000      0.000
  Name = 
  3 active torsions:
  status: ('A' for Active; 'I' for Inactive)
    1  A    between atoms: C_3  and  C_25
    2  A    between atoms: C_7  and  C_11
    3  A    between atoms: N_18  and  C_30
                            x       y       z     vdW  Elec       q    Type
                         _______ _______ _______ _____ _____    ______ ____

>  <TORSDO>
F 3

$$$$
=
 OpenBabel11052415503D

 34 40  0  0  0  0  0  0  0  0999 V2000
  182.4950  178.6270  141.4170 C   0  0  0  0  0  0  0  0  0  0  0  0
  180.9340  178.6310  138.1000 C   0  0  0  0  0  2  0  0  0  0  0  0
  180.0300  178.8770  140.2040 N   0  0  0  0  0  0  0  0  0  0  0  0
  183.0690  178.6660  143.5180 C   0  0  0  0  0  0  0  0  0  0  0  0
  183.5780  178.4210  142.3350 N   0  0  0  0  0  0  0  0  0  0  0  0
  180.6120  179.2190  144.3440 C   0  0  0  0  0  3  0  0  0  0  0  0
  179.3030  179.3790  143.8180 C   0  0  0  0  0  3  0  0  0  0  0  0
  181.6470  179.0140  143.4270 C   0  0  0  0  0  0  0  0  0  0  0  0
  183.7960  178.5590  144.7470 N   0  0  0  0  0  2  0  0  0  0  0  0
  180.1390  179.0500  141.5510 C   0  0  0  0  0  0  0  0  0  0  0  0
  181.3880  178.9630  142.1050 C   0  0  0  0  0  0  0  0  0  0  0  0
  179.0590  179.2890  142.4180 C   0  0  0  0  0  3  0  0  0  0  0  0
  182.0090  178.6580  137.0670 C   0  0  0  0  0  2  0  0  0  0  0  0
  182.8610  177.4370  137.0740 C   0  0  0  0  0  0  0  0  0  0  0  0
  183.5490  177.0820  138.1570 C   0  0  0  0  0  3  0  0  0  0  0  0
  181.1260  178.5780  139.4220 C   0  0  0  0  0  0  0  0  0  0  0  0
  183.4540  177.7030  139.4910 C   0  0  0  0  0  2  0  0  0  0  0  0
  182.4090  178.3400  140.0470 C   0  0  0  0  0  0  0  0  0  0  0  0
  187.3370  177.5730  143.9680 C   0  0  0  0  0  3  0  0  0  0  0  0
  185.7320  178.1880  146.1820 C   0  0  0  0  0  3  0  0  0  0  0  0
  189.7830  177.1910  146.7260 C   0  0  0  0  0  0  0  0  0  0  0  0
  189.2300  177.2170  145.4370 C   0  0  0  0  0  3  0  0  0  0  0  0
  187.8850  177.5480  145.2520 C   0  0  0  0  0  0  0  0  0  0  0  0
  187.6250  177.8320  147.6520 C   0  0  0  0  0  3  0  0  0  0  0  0
  187.0760  177.8580  146.3670 C   0  0  0  0  0  0  0  0  0  0  0  0
  188.9710  177.5000  147.8290 C   0  0  0  0  0  3  0  0  0  0  0  0
  185.1800  178.2140  144.8950 C   0  0  0  0  0  0  0  0  0  0  0  0
  185.9910  177.9050  143.7910 C   0  0  0  0  0  3  0  0  0  0  0  0
  191.2010  176.8430  146.9200 C   0  0  0  0  0  0  0  0  0  0  0  0
  191.7750  177.0990  148.0110 O   0  0  0  0  0  0  0  0  0  0  0  0
  191.9370  176.2110  145.8770 N   0  0  0  0  0  1  0  0  0  0  0  0
  182.9890  176.6240  135.8190 C   0  0  0  0  0  3  0  0  0  0  0  0
  182.7190  177.4820  134.5940 C   0  0  0  0  0  2  0  0  0  0  0  0
  184.1400  177.1290  134.9610 C   0  0  0  0  0  2  0  0  0  0  0  0
  1 11  1  0  0  0  0
  1  5  1  0  0  0  0
  2 16  1  0  0  0  0
  3 10  1  0  0  0  0
  4  9  1  0  0  0  0
  5  4  2  0  0  0  0
  7  6  1  0  0  0  0
  8  4  1  0  0  0  0
  8  6  2  0  0  0  0
  9 27  1  0  0  0  0
 10 11  2  0  0  0  0
 10 12  1  0  0  0  0
 11  8  1  0  0  0  0
 12  7  2  0  0  0  0
 13 14  1  0  0  0  0
 13  2  1  0  0  0  0
 14 15  2  0  0  0  0
 15 17  1  0  0  0  0
 16 18  1  0  0  0  0
 16  3  2  0  0  0  0
 17 18  1  0  0  0  0
 18  1  2  0  0  0  0
 19 23  1  0  0  0  0
 20 25  1  0  0  0  0
 21 29  1  0  0  0  0
 21 26  1  0  0  0  0
 22 21  2  0  0  0  0
 23 22  1  0  0  0  0
 23 25  2  0  0  0  0
 24 26  2  0  0  0  0
 25 24  1  0  0  0  0
 27 20  2  0  0  0  0
 28 19  2  0  0  0  0
 28 27  1  0  0  0  0
 29 30  2  0  0  0  0
 31 29  1  0  0  0  0
 32 14  1  0  0  0  0
 33 34  1  0  0  0  0
 33 32  1  0  0  0  0
 34 32  1  0  0  0  0
M  END
>  <MODEL>
2

>  <REMARK>
 VINA RESULT:     -10.6      3.405      4.657
  Name = 
  3 active torsions:
  status: ('A' for Active; 'I' for Inactive)
    1  A    between atoms: C_3  and  C_25
    2  A    between atoms: C_7  and  C_11
    3  A    between atoms: N_18  and  C_30
                            x       y       z     vdW  Elec       q    Type
                         _______ _______ _______ _____ _____    ______ ____

>  <TORSDO>
F 3

$$$$
=
 OpenBabel11052415503D

 34 40  0  0  0  0  0  0  0  0999 V2000
  187.0670  178.1220  144.2350 C   0  0  0  0  0  0  0  0  0  0  0  0
  183.7120  179.0100  145.4150 C   0  0  0  0  0  2  0  0  0  0  0  0
  185.5660  178.2430  146.5460 N   0  0  0  0  0  0  0  0  0  0  0  0
  189.1270  177.5020  143.8950 C   0  0  0  0  0  0  0  0  0  0  0  0
  188.0500  177.8370  143.2290 N   0  0  0  0  0  0  0  0  0  0  0  0
  189.6120  177.1370  146.4740 C   0  0  0  0  0  3  0  0  0  0  0  0
  188.9320  177.1810  147.7210 C   0  0  0  0  0  3  0  0  0  0  0  0
  188.8920  177.5270  145.3420 C   0  0  0  0  0  0  0  0  0  0  0  0
  190.3630  177.1110  143.2850 N   0  0  0  0  0  2  0  0  0  0  0  0
  186.8880  177.9200  146.6170 C   0  0  0  0  0  0  0  0  0  0  0  0
  187.6060  177.9170  145.4510 C   0  0  0  0  0  0  0  0  0  0  0  0
  187.5650  177.5680  147.7970 C   0  0  0  0  0  3  0  0  0  0  0  0
  182.9710  179.6630  144.2980 C   0  0  0  0  0  2  0  0  0  0  0  0
  182.7280  178.7550  143.1440 C   0  0  0  0  0  0  0  0  0  0  0  0
  183.7390  178.1860  142.4900 C   0  0  0  0  0  3  0  0  0  0  0  0
  184.9510  178.5130  145.3420 C   0  0  0  0  0  0  0  0  0  0  0  0
  185.1610  178.2250  142.8800 C   0  0  0  0  0  2  0  0  0  0  0  0
  185.6910  178.3550  144.1080 C   0  0  0  0  0  0  0  0  0  0  0  0
  192.1950  177.1270  140.0040 C   0  0  0  0  0  3  0  0  0  0  0  0
  189.5820  176.8740  140.9880 C   0  0  0  0  0  3  0  0  0  0  0  0
  190.3020  176.7030  136.8470 C   0  0  0  0  0  0  0  0  0  0  0  0
  191.3670  176.8870  137.7400 C   0  0  0  0  0  3  0  0  0  0  0  0
  191.1330  176.9440  139.1170 C   0  0  0  0  0  0  0  0  0  0  0  0
  188.7540  176.6340  138.7240 C   0  0  0  0  0  3  0  0  0  0  0  0
  189.8160  176.8170  139.6120 C   0  0  0  0  0  0  0  0  0  0  0  0
  188.9960  176.5770  137.3490 C   0  0  0  0  0  3  0  0  0  0  0  0
  190.6460  177.0580  141.8800 C   0  0  0  0  0  0  0  0  0  0  0  0
  191.9510  177.1830  141.3800 C   0  0  0  0  0  3  0  0  0  0  0  0
  190.5500  176.6420  135.3960 C   0  0  0  0  0  0  0  0  0  0  0  0
  189.7840  177.2380  134.5940 O   0  0  0  0  0  0  0  0  0  0  0  0
  191.6600  175.9100  134.8840 N   0  0  0  0  0  1  0  0  0  0  0  0
  181.3210  178.5200  142.6770 C   0  0  0  0  0  3  0  0  0  0  0  0
  180.3520  178.5740  143.8480 C   0  0  0  0  0  2  0  0  0  0  0  0
  180.4600  179.7530  142.9110 C   0  0  0  0  0  2  0  0  0  0  0  0
  1 11  1  0  0  0  0
  3 10  1  0  0  0  0
  4  8  1  0  0  0  0
  5  4  2  0  0  0  0
  5  1  1  0  0  0  0
  6  7  1  0  0  0  0
  7 12  2  0  0  0  0
  8 11  1  0  0  0  0
  8  6  2  0  0  0  0
  9  4  1  0  0  0  0
 10 12  1  0  0  0  0
 11 10  2  0  0  0  0
 13  2  1  0  0  0  0
 14 13  1  0  0  0  0
 15 17  1  0  0  0  0
 15 14  2  0  0  0  0
 16  2  1  0  0  0  0
 16  3  2  0  0  0  0
 17 18  1  0  0  0  0
 18  1  2  0  0  0  0
 18 16  1  0  0  0  0
 19 28  1  0  0  0  0
 20 27  1  0  0  0  0
 21 26  1  0  0  0  0
 21 22  2  0  0  0  0
 22 23  1  0  0  0  0
 23 25  1  0  0  0  0
 23 19  2  0  0  0  0
 24 25  1  0  0  0  0
 25 20  2  0  0  0  0
 26 24  2  0  0  0  0
 27  9  1  0  0  0  0
 28 27  2  0  0  0  0
 29 21  1  0  0  0  0
 30 29  2  0  0  0  0
 31 29  1  0  0  0  0
 32 34  1  0  0  0  0
 32 14  1  0  0  0  0
 32 33  1  0  0  0  0
 34 33  1  0  0  0  0
M  END
>  <MODEL>
3

>  <REMARK>
 VINA RESULT:     -10.5      3.327      8.571
  Name = 
  3 active torsions:
  status: ('A' for Active; 'I' for Inactive)
    1  A    between atoms: C_3  and  C_25
    2  A    between atoms: C_7  and  C_11
    3  A    between atoms: N_18  and  C_30
                            x       y       z     vdW  Elec       q    Type
                         _______ _______ _______ _____ _____    ______ ____

>  <TORSDO>
F 3

$$$$
=
 OpenBabel11052415503D

 34 40  0  0  0  0  0  0  0  0999 V2000
  188.8390  177.9450  141.3920 C   0  0  0  0  0  0  0  0  0  0  0  0
  191.6930  177.3310  143.6080 C   0  0  0  0  0  2  0  0  0  0  0  0
  191.4750  177.1350  141.3240 N   0  0  0  0  0  0  0  0  0  0  0  0
  187.3740  178.1940  139.7990 C   0  0  0  0  0  0  0  0  0  0  0  0
  187.4570  178.2070  141.1070 N   0  0  0  0  0  0  0  0  0  0  0  0
  189.1200  177.6300  137.8870 C   0  0  0  0  0  3  0  0  0  0  0  0
  190.4730  177.2230  137.7420 C   0  0  0  0  0  3  0  0  0  0  0  0
  188.6720  177.9010  139.1830 C   0  0  0  0  0  0  0  0  0  0  0  0
  186.1590  178.3890  139.0660 N   0  0  0  0  0  2  0  0  0  0  0  0
  190.7950  177.3180  140.1570 C   0  0  0  0  0  0  0  0  0  0  0  0
  189.5030  177.7650  140.2350 C   0  0  0  0  0  0  0  0  0  0  0  0
  191.3150  177.0590  138.8770 C   0  0  0  0  0  3  0  0  0  0  0  0
  191.3550  177.8310  144.9720 C   0  0  0  0  0  2  0  0  0  0  0  0
  190.2290  177.0930  145.6050 C   0  0  0  0  0  0  0  0  0  0  0  0
  189.0260  177.0490  145.0370 C   0  0  0  0  0  3  0  0  0  0  0  0
  190.8780  177.3460  142.5490 C   0  0  0  0  0  0  0  0  0  0  0  0
  188.6790  177.5490  143.6940 C   0  0  0  0  0  2  0  0  0  0  0  0
  189.4690  177.6700  142.6140 C   0  0  0  0  0  0  0  0  0  0  0  0
  182.5350  179.3340  139.3740 C   0  0  0  0  0  3  0  0  0  0  0  0
  184.6750  178.5280  140.9950 C   0  0  0  0  0  3  0  0  0  0  0  0
  180.9140  179.3170  142.7060 C   0  0  0  0  0  0  0  0  0  0  0  0
  181.1020  179.4570  141.3230 C   0  0  0  0  0  3  0  0  0  0  0  0
  182.3500  179.1950  140.7510 C   0  0  0  0  0  0  0  0  0  0  0  0
  183.2430  178.6500  142.9450 C   0  0  0  0  0  3  0  0  0  0  0  0
  183.4280  178.7890  141.5670 C   0  0  0  0  0  0  0  0  0  0  0  0
  181.9920  178.9130  143.5110 C   0  0  0  0  0  3  0  0  0  0  0  0
  184.8640  178.6670  139.6150 C   0  0  0  0  0  0  0  0  0  0  0  0
  183.7870  179.0710  138.8090 C   0  0  0  0  0  3  0  0  0  0  0  0
  179.5980  179.5920  143.3090 C   0  0  0  0  0  0  0  0  0  0  0  0
  178.9310  180.5970  142.9480 O   0  0  0  0  0  0  0  0  0  0  0  0
  179.0660  178.7240  144.3050 N   0  0  0  0  0  1  0  0  0  0  0  0
  190.4410  176.4310  146.9360 C   0  0  0  0  0  3  0  0  0  0  0  0
  191.8360  175.8300  147.0190 C   0  0  0  0  0  2  0  0  0  0  0  0
  191.5400  177.1340  147.7210 C   0  0  0  0  0  2  0  0  0  0  0  0
  1 18  1  0  0  0  0
  2 13  1  0  0  0  0
  3 16  1  0  0  0  0
  4  5  2  0  0  0  0
  5  1  1  0  0  0  0
  6  8  2  0  0  0  0
  7  6  1  0  0  0  0
  7 12  2  0  0  0  0
  8  4  1  0  0  0  0
  8 11  1  0  0  0  0
  9 27  1  0  0  0  0
  9  4  1  0  0  0  0
 10 11  1  0  0  0  0
 10  3  2  0  0  0  0
 11  1  2  0  0  0  0
 12 10  1  0  0  0  0
 13 14  1  0  0  0  0
 14 32  1  0  0  0  0
 15 14  2  0  0  0  0
 16 18  2  0  0  0  0
 16  2  1  0  0  0  0
 17 15  1  0  0  0  0
 18 17  1  0  0  0  0
 19 23  1  0  0  0  0
 20 25  1  0  0  0  0
 21 29  1  0  0  0  0
 21 26  1  0  0  0  0
 22 21  2  0  0  0  0
 23 22  1  0  0  0  0
 23 25  2  0  0  0  0
 24 26  2  0  0  0  0
 25 24  1  0  0  0  0
 27 20  2  0  0  0  0
 28 19  2  0  0  0  0
 28 27  1  0  0  0  0
 29 31  1  0  0  0  0
 30 29  2  0  0  0  0
 32 33  1  0  0  0  0
 32 34  1  0  0  0  0
 33 34  1  0  0  0  0
M  END
>  <MODEL>
4

>  <REMARK>
 VINA RESULT:     -10.2      3.416      8.547
  Name = 
  3 active torsions:
  status: ('A' for Active; 'I' for Inactive)
    1  A    between atoms: C_3  and  C_25
    2  A    between atoms: C_7  and  C_11
    3  A    between atoms: N_18  and  C_30
                            x       y       z     vdW  Elec       q    Type
                         _______ _______ _______ _____ _____    ______ ____

>  <TORSDO>
F 3

$$$$
=
 OpenBabel11052415503D

 34 40  0  0  0  0  0  0  0  0999 V2000
  188.9490  177.3560  141.9510 C   0  0  0  0  0  0  0  0  0  0  0  0
  191.3100  176.6350  139.2420 C   0  0  0  0  0  2  0  0  0  0  0  0
  191.6470  177.0250  141.4860 N   0  0  0  0  0  0  0  0  0  0  0  0
  187.8540  177.8110  143.7790 C   0  0  0  0  0  0  0  0  0  0  0  0
  187.6610  177.6950  142.4880 N   0  0  0  0  0  0  0  0  0  0  0  0
  190.0270  177.7150  145.2930 C   0  0  0  0  0  3  0  0  0  0  0  0
  191.4310  177.5440  145.1640 C   0  0  0  0  0  3  0  0  0  0  0  0
  189.2590  177.5820  144.1340 C   0  0  0  0  0  0  0  0  0  0  0  0
  186.8330  178.1670  144.7180 N   0  0  0  0  0  2  0  0  0  0  0  0
  191.1990  177.1970  142.7610 C   0  0  0  0  0  0  0  0  0  0  0  0
  189.8480  177.3120  142.9520 C   0  0  0  0  0  0  0  0  0  0  0  0
  192.0240  177.2900  143.8950 C   0  0  0  0  0  3  0  0  0  0  0  0
  190.5370  176.2450  138.0270 C   0  0  0  0  0  2  0  0  0  0  0  0
  189.6860  177.3430  137.4940 C   0  0  0  0  0  0  0  0  0  0  0  0
  188.7360  177.9030  138.2390 C   0  0  0  0  0  3  0  0  0  0  0  0
  190.7830  177.0110  140.4120 C   0  0  0  0  0  0  0  0  0  0  0  0
  188.4980  177.6600  139.6740 C   0  0  0  0  0  2  0  0  0  0  0  0
  189.3770  177.2850  140.6190 C   0  0  0  0  0  0  0  0  0  0  0  0
  183.1730  178.9170  145.1230 C   0  0  0  0  0  3  0  0  0  0  0  0
  185.0290  178.3800  143.0920 C   0  0  0  0  0  3  0  0  0  0  0  0
  180.9950  179.0860  142.1290 C   0  0  0  0  0  0  0  0  0  0  0  0
  181.4160  179.1180  143.4670 C   0  0  0  0  0  3  0  0  0  0  0  0
  182.7560  178.8840  143.7910 C   0  0  0  0  0  0  0  0  0  0  0  0
  183.2730  178.5810  141.4350 C   0  0  0  0  0  3  0  0  0  0  0  0
  183.6910  178.6140  142.7680 C   0  0  0  0  0  0  0  0  0  0  0  0
  181.9320  178.8160  141.1180 C   0  0  0  0  0  3  0  0  0  0  0  0
  185.4500  178.4120  144.4270 C   0  0  0  0  0  0  0  0  0  0  0  0
  184.5150  178.6820  145.4380 C   0  0  0  0  0  3  0  0  0  0  0  0
  179.5840  179.3330  141.7880 C   0  0  0  0  0  0  0  0  0  0  0  0
  178.9310  178.4840  141.1270 O   0  0  0  0  0  0  0  0  0  0  0  0
  178.9410  180.5350  142.2050 N   0  0  0  0  0  1  0  0  0  0  0  0
  189.8680  177.7890  136.0720 C   0  0  0  0  0  3  0  0  0  0  0  0
  190.3180  176.6280  135.2000 C   0  0  0  0  0  2  0  0  0  0  0  0
  188.8800  177.0850  135.1530 C   0  0  0  0  0  2  0  0  0  0  0  0
  1  5  1  0  0  0  0
  1 11  1  0  0  0  0
  2 16  1  0  0  0  0
  3 10  1  0  0  0  0
  4  8  1  0  0  0  0
  4  9  1  0  0  0  0
  5  4  2  0  0  0  0
  7  6  1  0  0  0  0
  8  6  2  0  0  0  0
 10 11  2  0  0  0  0
 10 12  1  0  0  0  0
 11  8  1  0  0  0  0
 12  7  2  0  0  0  0
 13  2  1  0  0  0  0
 14 13  1  0  0  0  0
 14 15  2  0  0  0  0
 15 17  1  0  0  0  0
 16 18  1  0  0  0  0
 16  3  2  0  0  0  0
 17 18  1  0  0  0  0
 18  1  2  0  0  0  0
 19 28  1  0  0  0  0
 20 27  1  0  0  0  0
 21 22  2  0  0  0  0
 22 23  1  0  0  0  0
 23 19  2  0  0  0  0
 24 25  1  0  0  0  0
 25 20  2  0  0  0  0
 25 23  1  0  0  0  0
 26 24  2  0  0  0  0
 26 21  1  0  0  0  0
 27  9  1  0  0  0  0
 27 28  2  0  0  0  0
 29 21  1  0  0  0  0
 29 31  1  0  0  0  0
 30 29  2  0  0  0  0
 32 14  1  0  0  0  0
 33 32  1  0  0  0  0
 34 33  1  0  0  0  0
 34 32  1  0  0  0  0
M  END
>  <MODEL>
5

>  <REMARK>
 VINA RESULT:     -10.2      3.570      7.240
  Name = 
  3 active torsions:
  status: ('A' for Active; 'I' for Inactive)
    1  A    between atoms: C_3  and  C_25
    2  A    between atoms: C_7  and  C_11
    3  A    between atoms: N_18  and  C_30
                            x       y       z     vdW  Elec       q    Type
                         _______ _______ _______ _____ _____    ______ ____

>  <TORSDO>
F 3

$$$$
=
 OpenBabel11052415503D

 34 40  0  0  0  0  0  0  0  0999 V2000
  185.5330  178.3830  143.2020 C   0  0  0  0  0  0  0  0  0  0  0  0
  181.9330  179.0470  143.3750 C   0  0  0  0  0  2  0  0  0  0  0  0
  183.4890  178.6750  145.0310 N   0  0  0  0  0  0  0  0  0  0  0  0
  187.6520  177.9600  143.4760 C   0  0  0  0  0  0  0  0  0  0  0  0
  186.7580  178.0660  142.5250 N   0  0  0  0  0  0  0  0  0  0  0  0
  187.4910  178.0420  146.1200 C   0  0  0  0  0  3  0  0  0  0  0  0
  186.5150  178.1940  147.1410 C   0  0  0  0  0  3  0  0  0  0  0  0
  187.0560  178.1740  144.7990 C   0  0  0  0  0  0  0  0  0  0  0  0
  189.0290  177.6260  143.2570 N   0  0  0  0  0  2  0  0  0  0  0  0
  184.7700  178.5200  145.4700 C   0  0  0  0  0  0  0  0  0  0  0  0
  185.7590  178.4250  144.5290 C   0  0  0  0  0  0  0  0  0  0  0  0
  185.1490  178.4280  146.8210 C   0  0  0  0  0  3  0  0  0  0  0  0
  181.4530  179.4350  142.0180 C   0  0  0  0  0  2  0  0  0  0  0  0
  181.5800  178.3430  141.0150 C   0  0  0  0  0  0  0  0  0  0  0  0
  182.7630  177.8030  140.7300 C   0  0  0  0  0  3  0  0  0  0  0  0
  183.1820  178.6900  143.6870 C   0  0  0  0  0  0  0  0  0  0  0  0
  184.0320  178.0620  141.4340 C   0  0  0  0  0  2  0  0  0  0  0  0
  184.2210  178.4350  142.7120 C   0  0  0  0  0  0  0  0  0  0  0  0
  191.6460  177.1210  140.6090 C   0  0  0  0  0  3  0  0  0  0  0  0
  188.8560  177.2160  140.8600 C   0  0  0  0  0  3  0  0  0  0  0  0
  190.6130  176.5340  137.0990 C   0  0  0  0  0  0  0  0  0  0  0  0
  191.4210  176.7150  138.2320 C   0  0  0  0  0  3  0  0  0  0  0  0
  190.8410  176.9420  139.4830 C   0  0  0  0  0  0  0  0  0  0  0  0
  188.6300  176.8090  138.4820 C   0  0  0  0  0  3  0  0  0  0  0  0
  189.4350  176.9890  139.6100 C   0  0  0  0  0  0  0  0  0  0  0  0
  189.2160  176.5830  137.2340 C   0  0  0  0  0  3  0  0  0  0  0  0
  189.6620  177.3970  141.9910 C   0  0  0  0  0  0  0  0  0  0  0  0
  191.0580  177.3470  141.8570 C   0  0  0  0  0  3  0  0  0  0  0  0
  191.2250  176.2950  135.7810 C   0  0  0  0  0  0  0  0  0  0  0  0
  192.4450  175.9950  135.6900 O   0  0  0  0  0  0  0  0  0  0  0  0
  190.4430  176.3980  134.5940 N   0  0  0  0  0  1  0  0  0  0  0  0
  180.3590  177.8810  140.2740 C   0  0  0  0  0  3  0  0  0  0  0  0
  180.4820  176.4110  139.9020 C   0  0  0  0  0  2  0  0  0  0  0  0
  179.6140  176.8180  141.0690 C   0  0  0  0  0  2  0  0  0  0  0  0
  1 11  1  0  0  0  0
  2 16  1  0  0  0  0
  3 10  1  0  0  0  0
  4  8  1  0  0  0  0
  5  1  1  0  0  0  0
  5  4  2  0  0  0  0
  6  7  1  0  0  0  0
  8  6  2  0  0  0  0
  9  4  1  0  0  0  0
 10 12  1  0  0  0  0
 11  8  1  0  0  0  0
 11 10  2  0  0  0  0
 12  7  2  0  0  0  0
 13  2  1  0  0  0  0
 14 13  1  0  0  0  0
 15 14  2  0  0  0  0
 15 17  1  0  0  0  0
 16  3  2  0  0  0  0
 17 18  1  0  0  0  0
 18  1  2  0  0  0  0
 18 16  1  0  0  0  0
 19 28  1  0  0  0  0
 20 27  1  0  0  0  0
 21 26  1  0  0  0  0
 21 22  2  0  0  0  0
 22 23  1  0  0  0  0
 23 25  1  0  0  0  0
 23 19  2  0  0  0  0
 24 25  1  0  0  0  0
 25 20  2  0  0  0  0
 26 24  2  0  0  0  0
 27  9  1  0  0  0  0
 28 27  2  0  0  0  0
 29 21  1  0  0  0  0
 30 29  2  0  0  0  0
 31 29  1  0  0  0  0
 32 14  1  0  0  0  0
 32 34  1  0  0  0  0
 33 32  1  0  0  0  0
 33 34  1  0  0  0  0
M  END
>  <MODEL>
6

>  <REMARK>
 VINA RESULT:     -10.1      3.305      7.856
  Name = 
  3 active torsions:
  status: ('A' for Active; 'I' for Inactive)
    1  A    between atoms: C_3  and  C_25
    2  A    between atoms: C_7  and  C_11
    3  A    between atoms: N_18  and  C_30
                            x       y       z     vdW  Elec       q    Type
                         _______ _______ _______ _____ _____    ______ ____

>  <TORSDO>
F 3

$$$$
=
 OpenBabel11052415503D

 34 40  0  0  0  0  0  0  0  0999 V2000
  189.2140  177.6370  140.9200 C   0  0  0  0  0  0  0  0  0  0  0  0
  190.9870  177.7730  144.1260 C   0  0  0  0  0  2  0  0  0  0  0  0
  191.7310  177.3000  141.9980 N   0  0  0  0  0  0  0  0  0  0  0  0
  188.4960  177.4550  138.8720 C   0  0  0  0  0  0  0  0  0  0  0  0
  188.0430  177.6210  140.0900 N   0  0  0  0  0  0  0  0  0  0  0  0
  190.9170  177.0070  137.8930 C   0  0  0  0  0  3  0  0  0  0  0  0
  192.2520  176.8300  138.3450 C   0  0  0  0  0  3  0  0  0  0  0  0
  189.9570  177.3310  138.8550 C   0  0  0  0  0  0  0  0  0  0  0  0
  187.6640  177.3540  137.7090 N   0  0  0  0  0  2  0  0  0  0  0  0
  191.5620  177.2360  140.6480 C   0  0  0  0  0  0  0  0  0  0  0  0
  190.3040  177.4550  140.1520 C   0  0  0  0  0  0  0  0  0  0  0  0
  192.5800  176.9380  139.7260 C   0  0  0  0  0  3  0  0  0  0  0  0
  190.0710  178.3470  145.1530 C   0  0  0  0  0  2  0  0  0  0  0  0
  188.8820  177.4940  145.4240 C   0  0  0  0  0  0  0  0  0  0  0  0
  188.0240  177.1800  144.4550 C   0  0  0  0  0  3  0  0  0  0  0  0
  190.6710  177.5320  142.8500 C   0  0  0  0  0  0  0  0  0  0  0  0
  188.1890  177.4660  143.0190 C   0  0  0  0  0  2  0  0  0  0  0  0
  189.3270  177.6080  142.3170 C   0  0  0  0  0  0  0  0  0  0  0  0
  184.0540  176.6800  136.9200 C   0  0  0  0  0  3  0  0  0  0  0  0
  185.6150  178.4920  138.3790 C   0  0  0  0  0  3  0  0  0  0  0  0
  181.4270  178.8830  138.3270 C   0  0  0  0  0  0  0  0  0  0  0  0
  182.0470  177.8460  137.6140 C   0  0  0  0  0  3  0  0  0  0  0  0
  183.4380  177.7120  137.6290 C   0  0  0  0  0  0  0  0  0  0  0  0
  183.6090  179.6590  139.0750 C   0  0  0  0  0  3  0  0  0  0  0  0
  184.2250  178.6260  138.3650 C   0  0  0  0  0  0  0  0  0  0  0  0
  182.2170  179.7860  139.0560 C   0  0  0  0  0  3  0  0  0  0  0  0
  186.2350  177.4570  137.6680 C   0  0  0  0  0  0  0  0  0  0  0  0
  185.4460  176.5530  136.9400 C   0  0  0  0  0  3  0  0  0  0  0  0
  179.9610  179.0220  138.3110 C   0  0  0  0  0  0  0  0  0  0  0  0
  179.2240  178.0010  138.3150 O   0  0  0  0  0  0  0  0  0  0  0  0
  179.3590  180.3140  138.2930 N   0  0  0  0  0  1  0  0  0  0  0  0
  188.6180  177.0240  146.8250 C   0  0  0  0  0  3  0  0  0  0  0  0
  189.2040  177.9980  147.8350 C   0  0  0  0  0  2  0  0  0  0  0  0
  187.7190  178.0050  147.5640 C   0  0  0  0  0  2  0  0  0  0  0  0
  1 18  1  0  0  0  0
  2 13  1  0  0  0  0
  3 16  1  0  0  0  0
  4  5  2  0  0  0  0
  5  1  1  0  0  0  0
  6  7  1  0  0  0  0
  6  8  2  0  0  0  0
  7 12  2  0  0  0  0
  8  4  1  0  0  0  0
  8 11  1  0  0  0  0
  9  4  1  0  0  0  0
 10  3  2  0  0  0  0
 11 10  1  0  0  0  0
 11  1  2  0  0  0  0
 12 10  1  0  0  0  0
 13 14  1  0  0  0  0
 14 32  1  0  0  0  0
 15 14  2  0  0  0  0
 16  2  1  0  0  0  0
 17 15  1  0  0  0  0
 18 16  2  0  0  0  0
 18 17  1  0  0  0  0
 19 28  2  0  0  0  0
 19 23  1  0  0  0  0
 21 26  1  0  0  0  0
 22 23  1  0  0  0  0
 22 21  2  0  0  0  0
 23 25  2  0  0  0  0
 25 20  1  0  0  0  0
 25 24  1  0  0  0  0
 26 24  2  0  0  0  0
 27  9  1  0  0  0  0
 27 20  2  0  0  0  0
 28 27  1  0  0  0  0
 29 30  2  0  0  0  0
 29 21  1  0  0  0  0
 31 29  1  0  0  0  0
 32 34  1  0  0  0  0
 32 33  1  0  0  0  0
 34 33  1  0  0  0  0
M  END
>  <MODEL>
7

>  <REMARK>
 VINA RESULT:     -10.0      3.778      9.628
  Name = 
  3 active torsions:
  status: ('A' for Active; 'I' for Inactive)
    1  A    between atoms: C_3  and  C_25
    2  A    between atoms: C_7  and  C_11
    3  A    between atoms: N_18  and  C_30
                            x       y       z     vdW  Elec       q    Type
                         _______ _______ _______ _____ _____    ______ ____

>  <TORSDO>
F 3

$$$$
=
 OpenBabel11052415503D

 34 40  0  0  0  0  0  0  0  0999 V2000
  187.3030  177.5580  144.1290 C   0  0  0  0  0  0  0  0  0  0  0  0
  190.7470  176.5980  143.3230 C   0  0  0  0  0  2  0  0  0  0  0  0
  189.7920  177.3110  145.2930 N   0  0  0  0  0  0  0  0  0  0  0  0
  185.3920  178.2000  144.9540 C   0  0  0  0  0  0  0  0  0  0  0  0
  185.9470  177.8970  143.8060 N   0  0  0  0  0  0  0  0  0  0  0  0
  186.3500  178.4320  147.4140 C   0  0  0  0  0  3  0  0  0  0  0  0
  187.5820  178.3200  148.1110 C   0  0  0  0  0  3  0  0  0  0  0  0
  186.3530  178.0990  146.0570 C   0  0  0  0  0  0  0  0  0  0  0  0
  184.0330  178.6270  145.1050 N   0  0  0  0  0  2  0  0  0  0  0  0
  188.7160  177.6340  146.0640 C   0  0  0  0  0  0  0  0  0  0  0  0
  187.4920  177.7000  145.4550 C   0  0  0  0  0  0  0  0  0  0  0  0
  188.7730  177.9260  147.4380 C   0  0  0  0  0  3  0  0  0  0  0  0
  190.7690  176.0030  141.9560 C   0  0  0  0  0  2  0  0  0  0  0  0
  190.3950  176.9690  140.8880 C   0  0  0  0  0  0  0  0  0  0  0  0
  189.2090  177.5750  140.8910 C   0  0  0  0  0  3  0  0  0  0  0  0
  189.6720  177.1020  143.9350 C   0  0  0  0  0  0  0  0  0  0  0  0
  188.2060  177.5200  141.9690 C   0  0  0  0  0  2  0  0  0  0  0  0
  188.3980  177.3270  143.2850 C   0  0  0  0  0  0  0  0  0  0  0  0
  180.7720  179.1220  143.3070 C   0  0  0  0  0  3  0  0  0  0  0  0
  183.4700  178.6270  142.7340 C   0  0  0  0  0  3  0  0  0  0  0  0
  180.6810  178.9860  139.6040 C   0  0  0  0  0  0  0  0  0  0  0  0
  180.2650  179.1130  140.9380 C   0  0  0  0  0  3  0  0  0  0  0  0
  181.1880  178.9950  141.9800 C   0  0  0  0  0  0  0  0  0  0  0  0
  182.9640  178.6180  140.3640 C   0  0  0  0  0  3  0  0  0  0  0  0
  182.5480  178.7450  141.6920 C   0  0  0  0  0  0  0  0  0  0  0  0
  182.0360  178.7370  139.3270 C   0  0  0  0  0  3  0  0  0  0  0  0
  183.0550  178.7540  144.0650 C   0  0  0  0  0  0  0  0  0  0  0  0
  181.7010  179.0030  144.3440 C   0  0  0  0  0  3  0  0  0  0  0  0
  179.7080  179.1110  138.5060 C   0  0  0  0  0  0  0  0  0  0  0  0
  179.5360  180.2170  137.9300 O   0  0  0  0  0  0  0  0  0  0  0  0
  178.9510  177.9800  138.0810 N   0  0  0  0  0  1  0  0  0  0  0  0
  191.3520  177.2240  139.7590 C   0  0  0  0  0  3  0  0  0  0  0  0
  191.3790  176.0430  138.8030 C   0  0  0  0  0  2  0  0  0  0  0  0
  190.6140  177.2900  138.4290 C   0  0  0  0  0  2  0  0  0  0  0  0
  1 11  1  0  0  0  0
  2 16  1  0  0  0  0
  3 10  1  0  0  0  0
  4  9  1  0  0  0  0
  4  8  1  0  0  0  0
  5  1  1  0  0  0  0
  5  4  2  0  0  0  0
  6  7  1  0  0  0  0
  8  6  2  0  0  0  0
 10 12  1  0  0  0  0
 11  8  1  0  0  0  0
 11 10  2  0  0  0  0
 12  7  2  0  0  0  0
 13  2  1  0  0  0  0
 14 15  2  0  0  0  0
 14 13  1  0  0  0  0
 15 17  1  0  0  0  0
 16  3  2  0  0  0  0
 17 18  1  0  0  0  0
 18 16  1  0  0  0  0
 18  1  2  0  0  0  0
 19 28  1  0  0  0  0
 20 27  1  0  0  0  0
 21 22  2  0  0  0  0
 22 23  1  0  0  0  0
 23 19  2  0  0  0  0
 24 25  1  0  0  0  0
 25 23  1  0  0  0  0
 25 20  2  0  0  0  0
 26 21  1  0  0  0  0
 26 24  2  0  0  0  0
 27 28  2  0  0  0  0
 27  9  1  0  0  0  0
 29 21  1  0  0  0  0
 30 29  2  0  0  0  0
 31 29  1  0  0  0  0
 32 14  1  0  0  0  0
 33 32  1  0  0  0  0
 34 33  1  0  0  0  0
 34 32  1  0  0  0  0
M  END
>  <MODEL>
8

>  <REMARK>
 VINA RESULT:      -9.9      3.831      8.294
  Name = 
  3 active torsions:
  status: ('A' for Active; 'I' for Inactive)
    1  A    between atoms: C_3  and  C_25
    2  A    between atoms: C_7  and  C_11
    3  A    between atoms: N_18  and  C_30
                            x       y       z     vdW  Elec       q    Type
                         _______ _______ _______ _____ _____    ______ ____

>  <TORSDO>
F 3

$$$$
=
 OpenBabel11052415503D

 34 40  0  0  0  0  0  0  0  0999 V2000
  182.4300  177.4590  140.0990 C   0  0  0  0  0  0  0  0  0  0  0  0
  180.8100  176.1350  137.0890 C   0  0  0  0  0  2  0  0  0  0  0  0
  179.9700  177.3480  138.8570 N   0  0  0  0  0  0  0  0  0  0  0  0
  183.0470  178.3670  141.9800 C   0  0  0  0  0  0  0  0  0  0  0  0
  183.5120  177.5890  141.0330 N   0  0  0  0  0  0  0  0  0  0  0  0
  180.6590  179.4190  142.4390 C   0  0  0  0  0  3  0  0  0  0  0  0
  179.3560  179.4370  141.8740 C   0  0  0  0  0  3  0  0  0  0  0  0
  181.6560  178.7520  141.7230 C   0  0  0  0  0  0  0  0  0  0  0  0
  183.7880  178.7510  143.1450 N   0  0  0  0  0  2  0  0  0  0  0  0
  180.1190  178.0840  139.9950 C   0  0  0  0  0  0  0  0  0  0  0  0
  181.3670  178.1490  140.5520 C   0  0  0  0  0  0  0  0  0  0  0  0
  179.0790  178.7630  140.6520 C   0  0  0  0  0  3  0  0  0  0  0  0
  181.8630  175.6210  136.1670 C   0  0  0  0  0  2  0  0  0  0  0  0
  182.6160  174.4630  136.7220 C   0  0  0  0  0  0  0  0  0  0  0  0
  183.2950  174.5650  137.8630 C   0  0  0  0  0  3  0  0  0  0  0  0
  181.0230  176.6510  138.3040 C   0  0  0  0  0  0  0  0  0  0  0  0
  183.2750  175.7120  138.7890 C   0  0  0  0  0  2  0  0  0  0  0  0
  182.2960  176.6090  138.9920 C   0  0  0  0  0  0  0  0  0  0  0  0
  187.4240  177.8770  142.7810 C   0  0  0  0  0  3  0  0  0  0  0  0
  185.5040  178.2230  144.7930 C   0  0  0  0  0  3  0  0  0  0  0  0
  189.4550  177.1850  145.8030 C   0  0  0  0  0  0  0  0  0  0  0  0
  189.0930  177.3590  144.4590 C   0  0  0  0  0  3  0  0  0  0  0  0
  187.7820  177.7040  144.1190 C   0  0  0  0  0  0  0  0  0  0  0  0
  187.1730  177.7040  146.4720 C   0  0  0  0  0  3  0  0  0  0  0  0
  186.8150  177.8780  145.1330 C   0  0  0  0  0  0  0  0  0  0  0  0
  188.4860  177.3600  146.8050 C   0  0  0  0  0  3  0  0  0  0  0  0
  185.1430  178.3970  143.4520 C   0  0  0  0  0  0  0  0  0  0  0  0
  186.1110  178.2220  142.4500 C   0  0  0  0  0  3  0  0  0  0  0  0
  190.8360  176.8220  146.1600 C   0  0  0  0  0  0  0  0  0  0  0  0
  191.6790  176.5630  145.2610 O   0  0  0  0  0  0  0  0  0  0  0  0
  191.2360  176.7610  147.5270 N   0  0  0  0  0  1  0  0  0  0  0  0
  182.6540  173.1750  135.9520 C   0  0  0  0  0  3  0  0  0  0  0  0
  183.0830  172.0260  136.8510 C   0  0  0  0  0  2  0  0  0  0  0  0
  181.6260  172.1910  136.4920 C   0  0  0  0  0  2  0  0  0  0  0  0
  1 11  1  0  0  0  0
  1  5  1  0  0  0  0
  2 16  1  0  0  0  0
  3 10  1  0  0  0  0
  4  9  1  0  0  0  0
  5  4  2  0  0  0  0
  7  6  1  0  0  0  0
  8  4  1  0  0  0  0
  8  6  2  0  0  0  0
  9 27  1  0  0  0  0
 10 11  2  0  0  0  0
 10 12  1  0  0  0  0
 11  8  1  0  0  0  0
 12  7  2  0  0  0  0
 13 14  1  0  0  0  0
 13  2  1  0  0  0  0
 14 15  2  0  0  0  0
 15 17  1  0  0  0  0
 16  3  2  0  0  0  0
 16 18  1  0  0  0  0
 17 18  1  0  0  0  0
 18  1  2  0  0  0  0
 19 23  1  0  0  0  0
 20 25  1  0  0  0  0
 21 29  1  0  0  0  0
 21 26  1  0  0  0  0
 22 21  2  0  0  0  0
 23 22  1  0  0  0  0
 23 25  2  0  0  0  0
 24 26  2  0  0  0  0
 25 24  1  0  0  0  0
 27 20  2  0  0  0  0
 28 19  2  0  0  0  0
 28 27  1  0  0  0  0
 29 31  1  0  0  0  0
 30 29  2  0  0  0  0
 32 34  1  0  0  0  0
 32 14  1  0  0  0  0
 32 33  1  0  0  0  0
 34 33  1  0  0  0  0
M  END
>  <MODEL>
9

>  <REMARK>
 VINA RESULT:      -9.7      3.448      4.997
  Name = 
  3 active torsions:
  status: ('A' for Active; 'I' for Inactive)
    1  A    between atoms: C_3  and  C_25
    2  A    between atoms: C_7  and  C_11
    3  A    between atoms: N_18  and  C_30
                            x       y       z     vdW  Elec       q    Type
                         _______ _______ _______ _____ _____    ______ ____

>  <TORSDO>
F 3

$$$$
