=
 OpenBabel11052415553D

 34 39  0  0  0  0  0  0  0  0999 V2000
  187.7820  177.8310  142.5560 C   0  0  0  0  0  3  0  0  0  0  0  0
  184.7640  178.4760  144.7470 C   0  0  0  0  0  0  0  0  0  0  0  0
  185.3970  178.3450  146.0740 C   0  0  0  0  0  0  0  0  0  0  0  0
  189.7010  177.4260  143.9160 N   0  0  0  0  0  0  0  0  0  0  0  0
  186.9910  178.0010  143.7000 C   0  0  0  0  0  0  0  0  0  0  0  0
  188.9700  177.5840  145.0500 C   0  0  0  0  0  0  0  0  0  0  0  0
  188.8380  177.6170  147.4680 C   0  0  0  0  0  3  0  0  0  0  0  0
  189.5840  177.4560  146.2980 C   0  0  0  0  0  3  0  0  0  0  0  0
  189.1500  177.5410  142.6760 C   0  0  0  0  0  0  0  0  0  0  0  0
  186.8390  178.0390  146.1530 C   0  0  0  0  0  0  0  0  0  0  0  0
  187.5910  177.8770  144.9690 C   0  0  0  0  0  0  0  0  0  0  0  0
  187.4740  177.9070  147.3960 C   0  0  0  0  0  3  0  0  0  0  0  0
  183.3970  178.7660  144.6370 C   0  0  0  0  0  3  0  0  0  0  0  0
  182.8000  178.8860  143.3790 C   0  0  0  0  0  0  0  0  0  0  0  0
  183.5700  178.7300  142.2240 C   0  0  0  0  0  3  0  0  0  0  0  0
  184.7160  178.4920  147.1250 O   0  0  0  0  0  0  0  0  0  0  0  0
  184.9320  178.4410  142.3250 C   0  0  0  0  0  3  0  0  0  0  0  0
  185.5410  178.3090  143.5820 C   0  0  0  0  0  0  0  0  0  0  0  0
  192.2560  177.3380  140.3640 C   0  0  0  0  0  2  0  0  0  0  0  0
  189.3560  177.0270  140.1800 C   0  0  0  0  0  3  0  0  0  0  0  0
  190.9600  176.2930  137.1180 C   0  0  0  0  0  0  0  0  0  0  0  0
  192.0100  176.4850  137.9270 C   0  0  0  0  0  3  0  0  0  0  0  0
  191.5400  176.7270  139.2510 N   0  0  0  0  0  0  0  0  0  0  0  0
  189.7190  176.4510  137.8210 N   0  0  0  0  0  0  0  0  0  0  0  0
  190.1340  176.7280  139.1450 C   0  0  0  0  0  0  0  0  0  0  0  0
  188.3920  176.0370  137.3930 C   0  0  0  0  0  1  0  0  0  0  0  0
  189.9970  177.3580  141.4780 C   0  0  0  0  0  0  0  0  0  0  0  0
  191.3420  177.4690  141.5630 C   0  0  0  0  0  3  0  0  0  0  0  0
  191.0730  176.0020  135.6790 C   0  0  0  0  0  0  0  0  0  0  0  0
  190.3980  176.7800  134.7480 O   0  0  0  0  0  0  0  0  0  0  0  0
  191.7890  175.0460  135.2800 O   0  0  0  0  0  1  0  0  0  0  0  0
  181.3530  179.2190  143.2700 C   0  0  0  0  0  2  0  0  0  0  0  0
  180.6440  178.5730  144.2830 O   0  0  0  0  0  0  0  0  0  0  0  0
  179.3250  178.9880  144.1040 C   0  0  0  0  0  1  0  0  0  0  0  0
  1  9  2  0  0  0  0
  1  5  1  0  0  0  0
  2  3  1  0  0  0  0
  3 10  1  0  0  0  0
  3 16  2  0  0  0  0
  4  6  2  0  0  0  0
  5 11  2  0  0  0  0
  6  8  1  0  0  0  0
  8  7  2  0  0  0  0
  9  4  1  0  0  0  0
 10 12  2  0  0  0  0
 11  6  1  0  0  0  0
 11 10  1  0  0  0  0
 12  7  1  0  0  0  0
 13  2  1  0  0  0  0
 14 13  2  0  0  0  0
 15 17  2  0  0  0  0
 15 14  1  0  0  0  0
 17 18  1  0  0  0  0
 18  5  1  0  0  0  0
 18  2  2  0  0  0  0
 19 28  1  0  0  0  0
 20 27  1  0  0  0  0
 21 24  1  0  0  0  0
 21 22  2  0  0  0  0
 22 23  1  0  0  0  0
 23 19  1  0  0  0  0
 24 25  1  0  0  0  0
 25 23  1  0  0  0  0
 25 20  2  0  0  0  0
 26 24  1  0  0  0  0
 27 28  2  0  0  0  0
 27  9  1  0  0  0  0
 29 21  1  0  0  0  0
 30 29  2  0  0  0  0
 31 29  1  0  0  0  0
 32 14  1  0  0  0  0
 32 33  1  0  0  0  0
 34 33  1  0  0  0  0
M  END
>  <MODEL>
1

>  <REMARK>
 VINA RESULT:     -11.7      0.000      0.000
  Name = 
  4 active torsions:
  status: ('A' for Active; 'I' for Inactive)
    1  A    between atoms: C_3  and  O_13
    2  A    between atoms: C_3  and  C_25
    3  A    between atoms: C_7  and  C_11
    4  A    between atoms: C_18  and  C_30
                            x       y       z     vdW  Elec       q    Type
                         _______ _______ _______ _____ _____    ______ ____

>  <TORSDO>
F 4

$$$$
=
 OpenBabel11052415553D

 34 39  0  0  0  0  0  0  0  0999 V2000
  186.6570  178.0230  143.2450 C   0  0  0  0  0  3  0  0  0  0  0  0
  190.3910  177.4120  143.3280 C   0  0  0  0  0  0  0  0  0  0  0  0
  190.5900  177.3350  144.7890 C   0  0  0  0  0  0  0  0  0  0  0  0
  185.7960  178.0960  145.4700 N   0  0  0  0  0  0  0  0  0  0  0  0
  187.9480  177.7980  143.7380 C   0  0  0  0  0  0  0  0  0  0  0  0
  187.0330  177.8790  145.9890 C   0  0  0  0  0  0  0  0  0  0  0  0
  188.4720  177.5860  147.9140 C   0  0  0  0  0  3  0  0  0  0  0  0
  187.2040  177.8100  147.3740 C   0  0  0  0  0  3  0  0  0  0  0  0
  185.5760  178.1730  144.1280 C   0  0  0  0  0  0  0  0  0  0  0  0
  189.4240  177.4980  145.6800 C   0  0  0  0  0  0  0  0  0  0  0  0
  188.1440  177.7240  145.1320 C   0  0  0  0  0  0  0  0  0  0  0  0
  189.5760  177.4310  147.0730 C   0  0  0  0  0  3  0  0  0  0  0  0
  191.4760  177.2610  142.4540 C   0  0  0  0  0  3  0  0  0  0  0  0
  191.2850  177.3390  141.0720 C   0  0  0  0  0  0  0  0  0  0  0  0
  190.0040  177.5530  140.5560 C   0  0  0  0  0  3  0  0  0  0  0  0
  191.7390  177.1330  145.2680 O   0  0  0  0  0  0  0  0  0  0  0  0
  188.9180  177.7050  141.4200 C   0  0  0  0  0  3  0  0  0  0  0  0
  189.0990  177.6380  142.8100 C   0  0  0  0  0  0  0  0  0  0  0  0
  181.7730  178.9210  144.0210 C   0  0  0  0  0  2  0  0  0  0  0  0
  183.9510  178.3420  142.1610 C   0  0  0  0  0  3  0  0  0  0  0  0
  180.9260  179.0420  140.4750 C   0  0  0  0  0  0  0  0  0  0  0  0
  180.5830  179.2890  141.7470 C   0  0  0  0  0  3  0  0  0  0  0  0
  181.7280  179.1220  142.5780 N   0  0  0  0  0  0  0  0  0  0  0  0
  182.2980  178.6380  140.3700 N   0  0  0  0  0  0  0  0  0  0  0  0
  182.7530  178.6960  141.7090 C   0  0  0  0  0  0  0  0  0  0  0  0
  183.1220  178.5780  139.1730 C   0  0  0  0  0  1  0  0  0  0  0  0
  184.2070  178.4120  143.6220 C   0  0  0  0  0  0  0  0  0  0  0  0
  183.2010  178.7110  144.4750 C   0  0  0  0  0  3  0  0  0  0  0  0
  179.9930  179.1330  139.3400 C   0  0  0  0  0  0  0  0  0  0  0  0
  179.9370  180.2840  138.5650 O   0  0  0  0  0  0  0  0  0  0  0  0
  179.2380  178.1640  139.0600 O   0  0  0  0  0  1  0  0  0  0  0  0
  192.4380  177.1530  140.1490 C   0  0  0  0  0  2  0  0  0  0  0  0
  191.9750  176.7900  138.8850 O   0  0  0  0  0  0  0  0  0  0  0  0
  193.1240  176.4230  138.1840 C   0  0  0  0  0  1  0  0  0  0  0  0
  1  5  2  0  0  0  0
  1  9  1  0  0  0  0
  2  3  1  0  0  0  0
  3 16  2  0  0  0  0
  3 10  1  0  0  0  0
  4  6  1  0  0  0  0
  5 11  1  0  0  0  0
  6  8  1  0  0  0  0
  8  7  2  0  0  0  0
  9  4  2  0  0  0  0
 10 12  2  0  0  0  0
 11 10  1  0  0  0  0
 11  6  2  0  0  0  0
 12  7  1  0  0  0  0
 13  2  2  0  0  0  0
 14 13  1  0  0  0  0
 15 14  2  0  0  0  0
 15 17  1  0  0  0  0
 17 18  2  0  0  0  0
 18  2  1  0  0  0  0
 18  5  1  0  0  0  0
 19 28  1  0  0  0  0
 20 27  1  0  0  0  0
 21 22  2  0  0  0  0
 22 23  1  0  0  0  0
 23 19  1  0  0  0  0
 24 21  1  0  0  0  0
 24 25  1  0  0  0  0
 25 20  2  0  0  0  0
 25 23  1  0  0  0  0
 26 24  1  0  0  0  0
 27  9  1  0  0  0  0
 27 28  2  0  0  0  0
 29 21  1  0  0  0  0
 30 29  2  0  0  0  0
 31 29  1  0  0  0  0
 32 14  1  0  0  0  0
 33 32  1  0  0  0  0
 34 33  1  0  0  0  0
M  END
>  <MODEL>
2

>  <REMARK>
 VINA RESULT:     -10.9      3.178      8.102
  Name = 
  4 active torsions:
  status: ('A' for Active; 'I' for Inactive)
    1  A    between atoms: C_3  and  O_13
    2  A    between atoms: C_3  and  C_25
    3  A    between atoms: C_7  and  C_11
    4  A    between atoms: C_18  and  C_30
                            x       y       z     vdW  Elec       q    Type
                         _______ _______ _______ _____ _____    ______ ____

>  <TORSDO>
F 4

$$$$
=
 OpenBabel11052415553D

 34 39  0  0  0  0  0  0  0  0999 V2000
  187.2430  177.7130  142.0410 C   0  0  0  0  0  3  0  0  0  0  0  0
  184.5930  178.5230  144.6190 C   0  0  0  0  0  0  0  0  0  0  0  0
  185.4040  178.3980  145.8460 C   0  0  0  0  0  0  0  0  0  0  0  0
  189.3220  177.2660  143.1260 N   0  0  0  0  0  0  0  0  0  0  0  0
  186.6300  177.9390  143.2810 C   0  0  0  0  0  0  0  0  0  0  0  0
  188.7650  177.4770  144.3480 C   0  0  0  0  0  0  0  0  0  0  0  0
  188.9820  177.5710  146.7580 C   0  0  0  0  0  3  0  0  0  0  0  0
  189.5470  177.3540  145.4990 C   0  0  0  0  0  3  0  0  0  0  0  0
  188.6030  177.3730  141.9740 C   0  0  0  0  0  0  0  0  0  0  0  0
  186.8320  178.0390  145.7280 C   0  0  0  0  0  0  0  0  0  0  0  0
  187.4000  177.8210  144.4550 C   0  0  0  0  0  0  0  0  0  0  0  0
  187.6320  177.9110  146.8720 C   0  0  0  0  0  3  0  0  0  0  0  0
  183.2350  178.8620  144.6960 C   0  0  0  0  0  3  0  0  0  0  0  0
  182.4690  178.9760  143.5330 C   0  0  0  0  0  0  0  0  0  0  0  0
  183.0600  178.7640  142.2850 C   0  0  0  0  0  3  0  0  0  0  0  0
  184.8850  178.5950  146.9790 O   0  0  0  0  0  0  0  0  0  0  0  0
  184.4130  178.4250  142.1990 C   0  0  0  0  0  3  0  0  0  0  0  0
  185.1900  178.2990  143.3610 C   0  0  0  0  0  0  0  0  0  0  0  0
  189.1530  176.7850  138.1810 C   0  0  0  0  0  2  0  0  0  0  0  0
  190.7400  176.9680  140.6290 C   0  0  0  0  0  3  0  0  0  0  0  0
  192.7720  176.5890  137.7630 C   0  0  0  0  0  0  0  0  0  0  0  0
  191.5570  176.7130  137.2110 C   0  0  0  0  0  3  0  0  0  0  0  0
  190.6010  176.9500  138.2410 N   0  0  0  0  0  0  0  0  0  0  0  0
  192.7100  176.6740  139.1940 N   0  0  0  0  0  0  0  0  0  0  0  0
  191.3340  176.8910  139.4430 C   0  0  0  0  0  0  0  0  0  0  0  0
  193.8080  176.8890  140.1250 C   0  0  0  0  0  1  0  0  0  0  0  0
  189.2640  177.1300  140.6740 C   0  0  0  0  0  0  0  0  0  0  0  0
  188.5390  177.0760  139.5330 C   0  0  0  0  0  3  0  0  0  0  0  0
  194.0040  176.3510  136.9940 C   0  0  0  0  0  0  0  0  0  0  0  0
  194.8020  175.2470  137.2650 O   0  0  0  0  0  1  0  0  0  0  0  0
  194.3430  177.1460  136.0780 O   0  0  0  0  0  0  0  0  0  0  0  0
  181.0340  179.3610  143.6210 C   0  0  0  0  0  2  0  0  0  0  0  0
  180.6890  180.1430  142.5200 O   0  0  0  0  0  0  0  0  0  0  0  0
  179.2980  180.2300  142.5750 C   0  0  0  0  0  1  0  0  0  0  0  0
  1  5  1  0  0  0  0
  2 13  1  0  0  0  0
  2  3  1  0  0  0  0
  3 16  2  0  0  0  0
  4  6  2  0  0  0  0
  5 18  1  0  0  0  0
  5 11  2  0  0  0  0
  6 11  1  0  0  0  0
  6  8  1  0  0  0  0
  7 12  1  0  0  0  0
  8  7  2  0  0  0  0
  9  1  2  0  0  0  0
  9  4  1  0  0  0  0
 10  3  1  0  0  0  0
 10 12  2  0  0  0  0
 11 10  1  0  0  0  0
 14 32  1  0  0  0  0
 14 13  2  0  0  0  0
 15 14  1  0  0  0  0
 17 15  2  0  0  0  0
 17 18  1  0  0  0  0
 18  2  2  0  0  0  0
 19 23  1  0  0  0  0
 19 28  1  0  0  0  0
 20 27  1  0  0  0  0
 21 24  1  0  0  0  0
 22 21  2  0  0  0  0
 22 23  1  0  0  0  0
 23 25  1  0  0  0  0
 24 25  1  0  0  0  0
 24 26  1  0  0  0  0
 25 20  2  0  0  0  0
 27  9  1  0  0  0  0
 28 27  2  0  0  0  0
 29 30  1  0  0  0  0
 29 21  1  0  0  0  0
 31 29  2  0  0  0  0
 33 34  1  0  0  0  0
 33 32  1  0  0  0  0
M  END
>  <MODEL>
3

>  <REMARK>
 VINA RESULT:     -10.8      1.319      2.118
  Name = 
  4 active torsions:
  status: ('A' for Active; 'I' for Inactive)
    1  A    between atoms: C_3  and  O_13
    2  A    between atoms: C_3  and  C_25
    3  A    between atoms: C_7  and  C_11
    4  A    between atoms: C_18  and  C_30
                            x       y       z     vdW  Elec       q    Type
                         _______ _______ _______ _____ _____    ______ ____

>  <TORSDO>
F 4

$$$$
=
 OpenBabel11052415553D

 34 39  0  0  0  0  0  0  0  0999 V2000
  188.3040  177.3760  141.5920 C   0  0  0  0  0  3  0  0  0  0  0  0
  186.3710  178.1020  144.7640 C   0  0  0  0  0  0  0  0  0  0  0  0
  187.4500  177.9070  145.7530 C   0  0  0  0  0  0  0  0  0  0  0  0
  190.5700  176.8480  142.1250 N   0  0  0  0  0  0  0  0  0  0  0  0
  188.0120  177.5520  142.9510 C   0  0  0  0  0  0  0  0  0  0  0  0
  190.3280  177.0090  143.4520 C   0  0  0  0  0  0  0  0  0  0  0  0
  191.1190  176.9860  145.7410 C   0  0  0  0  0  3  0  0  0  0  0  0
  191.3600  176.8210  144.3750 C   0  0  0  0  0  3  0  0  0  0  0  0
  189.5990  177.0190  141.1850 C   0  0  0  0  0  0  0  0  0  0  0  0
  188.7970  177.5330  145.2800 C   0  0  0  0  0  0  0  0  0  0  0  0
  189.0380  177.3670  143.8990 C   0  0  0  0  0  0  0  0  0  0  0  0
  189.8450  177.3400  146.1910 C   0  0  0  0  0  3  0  0  0  0  0  0
  185.0800  178.4570  145.1800 C   0  0  0  0  0  3  0  0  0  0  0  0
  184.0610  178.6370  144.2420 C   0  0  0  0  0  0  0  0  0  0  0  0
  184.3300  178.4750  142.8800 C   0  0  0  0  0  3  0  0  0  0  0  0
  187.2230  178.0590  146.9850 O   0  0  0  0  0  0  0  0  0  0  0  0
  185.6130  178.1210  142.4570 C   0  0  0  0  0  3  0  0  0  0  0  0
  186.6430  177.9300  143.3910 C   0  0  0  0  0  0  0  0  0  0  0  0
  189.2910  176.9660  137.3200 C   0  0  0  0  0  2  0  0  0  0  0  0
  191.2440  176.2670  139.3780 C   0  0  0  0  0  3  0  0  0  0  0  0
  192.5430  175.8300  136.1220 C   0  0  0  0  0  0  0  0  0  0  0  0
  191.3530  176.3860  135.8590 C   0  0  0  0  0  3  0  0  0  0  0  0
  190.7050  176.7020  137.0880 N   0  0  0  0  0  0  0  0  0  0  0  0
  192.7540  175.6800  137.5330 N   0  0  0  0  0  0  0  0  0  0  0  0
  191.5760  176.2320  138.0920 C   0  0  0  0  0  0  0  0  0  0  0  0
  194.0040  175.4120  138.2260 C   0  0  0  0  0  1  0  0  0  0  0  0
  189.9220  176.8290  139.7550 C   0  0  0  0  0  0  0  0  0  0  0  0
  189.0350  177.1800  138.7960 C   0  0  0  0  0  3  0  0  0  0  0  0
  193.4920  175.3910  135.0850 C   0  0  0  0  0  0  0  0  0  0  0  0
  194.4530  176.2650  134.5940 O   0  0  0  0  0  0  0  0  0  0  0  0
  193.4420  174.2140  134.6370 O   0  0  0  0  0  1  0  0  0  0  0  0
  182.6990  179.0390  144.6890 C   0  0  0  0  0  2  0  0  0  0  0  0
  181.8650  179.1860  143.5810 O   0  0  0  0  0  0  0  0  0  0  0  0
  180.6660  178.5860  143.9650 C   0  0  0  0  0  1  0  0  0  0  0  0
  1  5  1  0  0  0  0
  2 13  1  0  0  0  0
  2  3  1  0  0  0  0
  3 16  2  0  0  0  0
  4  6  2  0  0  0  0
  5 18  1  0  0  0  0
  5 11  2  0  0  0  0
  6 11  1  0  0  0  0
  6  8  1  0  0  0  0
  7 12  1  0  0  0  0
  8  7  2  0  0  0  0
  9  1  2  0  0  0  0
  9  4  1  0  0  0  0
 10  3  1  0  0  0  0
 10 12  2  0  0  0  0
 11 10  1  0  0  0  0
 14 32  1  0  0  0  0
 14 13  2  0  0  0  0
 15 14  1  0  0  0  0
 17 15  2  0  0  0  0
 17 18  1  0  0  0  0
 18  2  2  0  0  0  0
 19 28  1  0  0  0  0
 20 27  1  0  0  0  0
 21 24  1  0  0  0  0
 22 21  2  0  0  0  0
 22 23  1  0  0  0  0
 23 19  1  0  0  0  0
 23 25  1  0  0  0  0
 24 25  1  0  0  0  0
 24 26  1  0  0  0  0
 25 20  2  0  0  0  0
 27  9  1  0  0  0  0
 28 27  2  0  0  0  0
 29 21  1  0  0  0  0
 30 29  2  0  0  0  0
 31 29  1  0  0  0  0
 33 34  1  0  0  0  0
 33 32  1  0  0  0  0
M  END
>  <MODEL>
4

>  <REMARK>
 VINA RESULT:     -10.2      1.484      2.445
  Name = 
  4 active torsions:
  status: ('A' for Active; 'I' for Inactive)
    1  A    between atoms: C_3  and  O_13
    2  A    between atoms: C_3  and  C_25
    3  A    between atoms: C_7  and  C_11
    4  A    between atoms: C_18  and  C_30
                            x       y       z     vdW  Elec       q    Type
                         _______ _______ _______ _____ _____    ______ ____

>  <TORSDO>
F 4

$$$$
=
 OpenBabel11052415553D

 34 39  0  0  0  0  0  0  0  0999 V2000
  188.9260  177.3580  142.6500 C   0  0  0  0  0  3  0  0  0  0  0  0
  189.2490  177.1790  146.4180 C   0  0  0  0  0  0  0  0  0  0  0  0
  187.8990  177.6410  146.7960 C   0  0  0  0  0  0  0  0  0  0  0  0
  186.7450  178.1270  142.0570 N   0  0  0  0  0  0  0  0  0  0  0  0
  188.6020  177.4470  144.0100 C   0  0  0  0  0  0  0  0  0  0  0  0
  186.3910  178.2270  143.3660 C   0  0  0  0  0  0  0  0  0  0  0  0
  184.7380  178.7700  145.0500 C   0  0  0  0  0  3  0  0  0  0  0  0
  185.1090  178.6650  143.7070 C   0  0  0  0  0  3  0  0  0  0  0  0
  187.9810  177.7040  141.6720 C   0  0  0  0  0  0  0  0  0  0  0  0
  186.9370  177.9940  145.7340 C   0  0  0  0  0  0  0  0  0  0  0  0
  187.3150  177.8870  144.3780 C   0  0  0  0  0  0  0  0  0  0  0  0
  185.6460  178.4360  146.0570 C   0  0  0  0  0  3  0  0  0  0  0  0
  190.1860  176.8360  147.4020 C   0  0  0  0  0  3  0  0  0  0  0  0
  191.4640  176.4040  147.0390 C   0  0  0  0  0  0  0  0  0  0  0  0
  191.8080  176.2980  145.6890 C   0  0  0  0  0  3  0  0  0  0  0  0
  187.5720  177.7320  148.0120 O   0  0  0  0  0  0  0  0  0  0  0  0
  190.8800  176.6380  144.7020 C   0  0  0  0  0  3  0  0  0  0  0  0
  189.5960  177.0820  145.0540 C   0  0  0  0  0  0  0  0  0  0  0  0
  187.8140  178.1720  137.8260 C   0  0  0  0  0  2  0  0  0  0  0  0
  189.4940  176.8290  139.8050 C   0  0  0  0  0  3  0  0  0  0  0  0
  190.7900  176.5060  136.5340 C   0  0  0  0  0  0  0  0  0  0  0  0
  189.7570  177.3340  136.3280 C   0  0  0  0  0  3  0  0  0  0  0  0
  189.1470  177.6360  137.5800 N   0  0  0  0  0  0  0  0  0  0  0  0
  190.9110  176.1500  137.9180 N   0  0  0  0  0  0  0  0  0  0  0  0
  189.8590  176.8740  138.5280 C   0  0  0  0  0  0  0  0  0  0  0  0
  192.0480  175.5370  138.5880 C   0  0  0  0  0  1  0  0  0  0  0  0
  188.3090  177.6170  140.2320 C   0  0  0  0  0  0  0  0  0  0  0  0
  187.5550  178.2620  139.3140 C   0  0  0  0  0  3  0  0  0  0  0  0
  191.6610  175.9950  135.4620 C   0  0  0  0  0  0  0  0  0  0  0  0
  191.2240  174.9780  134.6240 O   0  0  0  0  0  0  0  0  0  0  0  0
  192.8110  176.4820  135.2930 O   0  0  0  0  0  1  0  0  0  0  0  0
  192.4450  176.0170  148.0890 C   0  0  0  0  0  2  0  0  0  0  0  0
  192.8040  177.1400  148.8350 O   0  0  0  0  0  0  0  0  0  0  0  0
  193.5770  176.6330  149.8790 C   0  0  0  0  0  1  0  0  0  0  0  0
  1  5  1  0  0  0  0
  2  3  1  0  0  0  0
  2 13  1  0  0  0  0
  3 16  2  0  0  0  0
  4  6  2  0  0  0  0
  5 11  2  0  0  0  0
  5 18  1  0  0  0  0
  6  8  1  0  0  0  0
  6 11  1  0  0  0  0
  7 12  1  0  0  0  0
  8  7  2  0  0  0  0
  9  4  1  0  0  0  0
  9  1  2  0  0  0  0
 10 12  2  0  0  0  0
 10  3  1  0  0  0  0
 11 10  1  0  0  0  0
 14 13  2  0  0  0  0
 14 32  1  0  0  0  0
 15 14  1  0  0  0  0
 17 18  1  0  0  0  0
 17 15  2  0  0  0  0
 18  2  2  0  0  0  0
 19 28  1  0  0  0  0
 20 27  1  0  0  0  0
 21 24  1  0  0  0  0
 22 21  2  0  0  0  0
 22 23  1  0  0  0  0
 23 19  1  0  0  0  0
 23 25  1  0  0  0  0
 24 25  1  0  0  0  0
 24 26  1  0  0  0  0
 25 20  2  0  0  0  0
 27  9  1  0  0  0  0
 28 27  2  0  0  0  0
 29 21  1  0  0  0  0
 30 29  2  0  0  0  0
 31 29  1  0  0  0  0
 32 33  1  0  0  0  0
 33 34  1  0  0  0  0
M  END
>  <MODEL>
5

>  <REMARK>
 VINA RESULT:     -10.2      2.327      5.674
  Name = 
  4 active torsions:
  status: ('A' for Active; 'I' for Inactive)
    1  A    between atoms: C_3  and  O_13
    2  A    between atoms: C_3  and  C_25
    3  A    between atoms: C_7  and  C_11
    4  A    between atoms: C_18  and  C_30
                            x       y       z     vdW  Elec       q    Type
                         _______ _______ _______ _____ _____    ______ ____

>  <TORSDO>
F 4

$$$$
=
 OpenBabel11052415553D

 34 39  0  0  0  0  0  0  0  0999 V2000
  186.7170  177.9360  142.6580 C   0  0  0  0  0  3  0  0  0  0  0  0
  190.3880  177.2540  142.0330 C   0  0  0  0  0  0  0  0  0  0  0  0
  190.8440  177.1010  143.4280 C   0  0  0  0  0  0  0  0  0  0  0  0
  186.2750  177.9140  145.0040 N   0  0  0  0  0  0  0  0  0  0  0  0
  188.0700  177.6630  142.8970 C   0  0  0  0  0  0  0  0  0  0  0  0
  187.5790  177.6490  145.2790 C   0  0  0  0  0  0  0  0  0  0  0  0
  189.3350  177.2340  146.8940 C   0  0  0  0  0  3  0  0  0  0  0  0
  187.9960  177.5070  146.6050 C   0  0  0  0  0  3  0  0  0  0  0  0
  185.8190  178.0620  143.7290 C   0  0  0  0  0  0  0  0  0  0  0  0
  189.8640  177.2410  144.5230 C   0  0  0  0  0  0  0  0  0  0  0  0
  188.5120  177.5160  144.2270 C   0  0  0  0  0  0  0  0  0  0  0  0
  190.2640  177.1020  145.8600 C   0  0  0  0  0  3  0  0  0  0  0  0
  191.2920  177.1280  140.9700 C   0  0  0  0  0  3  0  0  0  0  0  0
  190.8570  177.2780  139.6510 C   0  0  0  0  0  0  0  0  0  0  0  0
  189.5100  177.5410  139.3860 C   0  0  0  0  0  3  0  0  0  0  0  0
  192.0560  176.8540  143.6800 O   0  0  0  0  0  0  0  0  0  0  0  0
  188.6020  177.6690  140.4400 C   0  0  0  0  0  3  0  0  0  0  0  0
  189.0300  177.5290  141.7690 C   0  0  0  0  0  0  0  0  0  0  0  0
  182.1010  178.9770  144.3410 C   0  0  0  0  0  2  0  0  0  0  0  0
  183.8480  178.2590  142.1110 C   0  0  0  0  0  3  0  0  0  0  0  0
  180.5810  179.0550  141.0260 C   0  0  0  0  0  0  0  0  0  0  0  0
  180.5040  179.3460  142.3310 C   0  0  0  0  0  3  0  0  0  0  0  0
  181.7830  179.1470  142.9290 N   0  0  0  0  0  0  0  0  0  0  0  0
  181.8900  178.5870  140.6680 N   0  0  0  0  0  0  0  0  0  0  0  0
  182.5990  178.6560  141.8900 C   0  0  0  0  0  0  0  0  0  0  0  0
  182.4600  178.4630  139.3350 C   0  0  0  0  0  1  0  0  0  0  0  0
  184.3880  178.3500  143.4920 C   0  0  0  0  0  0  0  0  0  0  0  0
  183.5810  178.7140  144.5150 C   0  0  0  0  0  3  0  0  0  0  0  0
  179.4480  179.1620  140.0910 C   0  0  0  0  0  0  0  0  0  0  0  0
  178.9310  180.4050  139.7530 O   0  0  0  0  0  1  0  0  0  0  0  0
  178.9410  178.1250  139.5870 O   0  0  0  0  0  0  0  0  0  0  0  0
  191.8180  177.1170  138.5260 C   0  0  0  0  0  2  0  0  0  0  0  0
  192.7740  176.1580  138.8580 O   0  0  0  0  0  0  0  0  0  0  0  0
  192.6840  175.2080  137.8410 C   0  0  0  0  0  1  0  0  0  0  0  0
  1  5  2  0  0  0  0
  1  9  1  0  0  0  0
  2  3  1  0  0  0  0
  3 16  2  0  0  0  0
  3 10  1  0  0  0  0
  4  6  1  0  0  0  0
  5 11  1  0  0  0  0
  6  8  1  0  0  0  0
  8  7  2  0  0  0  0
  9  4  2  0  0  0  0
 10 12  2  0  0  0  0
 11 10  1  0  0  0  0
 11  6  2  0  0  0  0
 12  7  1  0  0  0  0
 13  2  2  0  0  0  0
 14 13  1  0  0  0  0
 15 14  2  0  0  0  0
 15 17  1  0  0  0  0
 17 18  2  0  0  0  0
 18  2  1  0  0  0  0
 18  5  1  0  0  0  0
 19 28  1  0  0  0  0
 20 27  1  0  0  0  0
 21 22  2  0  0  0  0
 22 23  1  0  0  0  0
 23 19  1  0  0  0  0
 24 21  1  0  0  0  0
 24 25  1  0  0  0  0
 25 20  2  0  0  0  0
 25 23  1  0  0  0  0
 26 24  1  0  0  0  0
 27  9  1  0  0  0  0
 27 28  2  0  0  0  0
 29 21  1  0  0  0  0
 30 29  1  0  0  0  0
 31 29  2  0  0  0  0
 32 33  1  0  0  0  0
 32 14  1  0  0  0  0
 34 33  1  0  0  0  0
M  END
>  <MODEL>
6

>  <REMARK>
 VINA RESULT:      -9.8      3.164      8.364
  Name = 
  4 active torsions:
  status: ('A' for Active; 'I' for Inactive)
    1  A    between atoms: C_3  and  O_13
    2  A    between atoms: C_3  and  C_25
    3  A    between atoms: C_7  and  C_11
    4  A    between atoms: C_18  and  C_30
                            x       y       z     vdW  Elec       q    Type
                         _______ _______ _______ _____ _____    ______ ____

>  <TORSDO>
F 4

$$$$
=
 OpenBabel11052415553D

 34 39  0  0  0  0  0  0  0  0999 V2000
  187.8570  177.7410  141.7910 C   0  0  0  0  0  3  0  0  0  0  0  0
  187.7200  177.8940  145.5700 C   0  0  0  0  0  0  0  0  0  0  0  0
  186.3140  178.3070  145.7430 C   0  0  0  0  0  0  0  0  0  0  0  0
  185.7320  178.3320  140.8770 N   0  0  0  0  0  0  0  0  0  0  0  0
  187.3640  177.9240  143.0890 C   0  0  0  0  0  0  0  0  0  0  0  0
  185.2150  178.5200  142.1190 C   0  0  0  0  0  0  0  0  0  0  0  0
  183.3440  179.1050  143.5400 C   0  0  0  0  0  3  0  0  0  0  0  0
  183.8820  178.9110  142.2660 C   0  0  0  0  0  3  0  0  0  0  0  0
  187.0250  177.9510  140.6800 C   0  0  0  0  0  0  0  0  0  0  0  0
  185.4750  178.5160  144.5470 C   0  0  0  0  0  0  0  0  0  0  0  0
  186.0220  178.3190  143.2600 C   0  0  0  0  0  0  0  0  0  0  0  0
  184.1350  178.9090  144.6740 C   0  0  0  0  0  3  0  0  0  0  0  0
  188.5440  177.6870  146.6850 C   0  0  0  0  0  3  0  0  0  0  0  0
  189.8760  177.3000  146.5170 C   0  0  0  0  0  0  0  0  0  0  0  0
  190.3880  177.1030  145.2320 C   0  0  0  0  0  3  0  0  0  0  0  0
  185.8360  178.4800  146.8980 O   0  0  0  0  0  0  0  0  0  0  0  0
  189.5740  177.3060  144.1150 C   0  0  0  0  0  3  0  0  0  0  0  0
  188.2380  177.7040  144.2720 C   0  0  0  0  0  0  0  0  0  0  0  0
  187.3200  178.1030  136.8160 C   0  0  0  0  0  2  0  0  0  0  0  0
  188.7850  176.9950  139.0900 C   0  0  0  0  0  3  0  0  0  0  0  0
  190.4870  176.4680  136.0390 C   0  0  0  0  0  0  0  0  0  0  0  0
  189.4610  177.2320  135.6400 C   0  0  0  0  0  3  0  0  0  0  0  0
  188.6900  177.6070  136.7790 N   0  0  0  0  0  0  0  0  0  0  0  0
  190.4470  176.2290  137.4530 N   0  0  0  0  0  0  0  0  0  0  0  0
  189.3040  176.9540  137.8670 C   0  0  0  0  0  0  0  0  0  0  0  0
  191.5110  175.7220  138.3040 C   0  0  0  0  0  1  0  0  0  0  0  0
  187.5320  177.7630  139.3030 C   0  0  0  0  0  0  0  0  0  0  0  0
  186.8750  178.3000  138.2490 C   0  0  0  0  0  3  0  0  0  0  0  0
  191.5000  175.9120  135.1270 C   0  0  0  0  0  0  0  0  0  0  0  0
  191.3450  174.6400  134.5940 O   0  0  0  0  0  0  0  0  0  0  0  0
  192.5170  176.5900  134.8190 O   0  0  0  0  0  1  0  0  0  0  0  0
  190.7370  177.0580  147.7070 C   0  0  0  0  0  2  0  0  0  0  0  0
  192.0550  176.8570  147.3000 O   0  0  0  0  0  0  0  0  0  0  0  0
  192.3280  175.5330  147.6430 C   0  0  0  0  0  1  0  0  0  0  0  0
  1  5  1  0  0  0  0
  2  3  1  0  0  0  0
  2 13  1  0  0  0  0
  3 16  2  0  0  0  0
  4  6  2  0  0  0  0
  5 11  2  0  0  0  0
  5 18  1  0  0  0  0
  6  8  1  0  0  0  0
  6 11  1  0  0  0  0
  7 12  1  0  0  0  0
  8  7  2  0  0  0  0
  9  4  1  0  0  0  0
  9  1  2  0  0  0  0
 10 12  2  0  0  0  0
 10  3  1  0  0  0  0
 11 10  1  0  0  0  0
 14 13  2  0  0  0  0
 14 32  1  0  0  0  0
 15 14  1  0  0  0  0
 17 18  1  0  0  0  0
 17 15  2  0  0  0  0
 18  2  2  0  0  0  0
 19 28  1  0  0  0  0
 20 27  1  0  0  0  0
 21 24  1  0  0  0  0
 22 21  2  0  0  0  0
 22 23  1  0  0  0  0
 23 19  1  0  0  0  0
 23 25  1  0  0  0  0
 24 25  1  0  0  0  0
 24 26  1  0  0  0  0
 25 20  2  0  0  0  0
 27  9  1  0  0  0  0
 28 27  2  0  0  0  0
 29 21  1  0  0  0  0
 30 29  2  0  0  0  0
 31 29  1  0  0  0  0
 33 34  1  0  0  0  0
 33 32  1  0  0  0  0
M  END
>  <MODEL>
7

>  <REMARK>
 VINA RESULT:      -9.7      2.099      5.335
  Name = 
  4 active torsions:
  status: ('A' for Active; 'I' for Inactive)
    1  A    between atoms: C_3  and  O_13
    2  A    between atoms: C_3  and  C_25
    3  A    between atoms: C_7  and  C_11
    4  A    between atoms: C_18  and  C_30
                            x       y       z     vdW  Elec       q    Type
                         _______ _______ _______ _____ _____    ______ ____

>  <TORSDO>
F 4

$$$$
=
 OpenBabel11052415553D

 34 39  0  0  0  0  0  0  0  0999 V2000
  186.3260  178.2470  142.7890 C   0  0  0  0  0  3  0  0  0  0  0  0
  184.9650  178.6280  139.2780 C   0  0  0  0  0  0  0  0  0  0  0  0
  183.5380  178.8330  139.5940 C   0  0  0  0  0  0  0  0  0  0  0  0
  184.5510  178.4430  144.3740 N   0  0  0  0  0  0  0  0  0  0  0  0
  185.4230  178.4380  141.7350 C   0  0  0  0  0  0  0  0  0  0  0  0
  183.6430  178.6310  143.3800 C   0  0  0  0  0  0  0  0  0  0  0  0
  181.3570  179.0180  142.6800 C   0  0  0  0  0  3  0  0  0  0  0  0
  182.2960  178.8230  143.6960 C   0  0  0  0  0  3  0  0  0  0  0  0
  185.8750  178.2510  144.1180 C   0  0  0  0  0  0  0  0  0  0  0  0
  183.1090  178.8300  141.0060 C   0  0  0  0  0  0  0  0  0  0  0  0
  184.0590  178.6330  142.0310 C   0  0  0  0  0  0  0  0  0  0  0  0
  181.7610  179.0210  141.3430 C   0  0  0  0  0  3  0  0  0  0  0  0
  185.4060  178.6260  137.9470 C   0  0  0  0  0  3  0  0  0  0  0  0
  186.7570  178.4270  137.6510 C   0  0  0  0  0  0  0  0  0  0  0  0
  187.6780  178.2450  138.6860 C   0  0  0  0  0  3  0  0  0  0  0  0
  182.6970  179.0080  138.6700 O   0  0  0  0  0  0  0  0  0  0  0  0
  187.2470  178.2460  140.0150 C   0  0  0  0  0  3  0  0  0  0  0  0
  185.8910  178.4350  140.3240 C   0  0  0  0  0  0  0  0  0  0  0  0
  187.3470  178.1100  147.7030 C   0  0  0  0  0  2  0  0  0  0  0  0
  188.2020  177.6000  144.9550 C   0  0  0  0  0  3  0  0  0  0  0  0
  190.7210  176.7850  147.2950 C   0  0  0  0  0  0  0  0  0  0  0  0
  189.6990  177.0940  148.1040 C   0  0  0  0  0  3  0  0  0  0  0  0
  188.5510  177.3860  147.3120 N   0  0  0  0  0  0  0  0  0  0  0  0
  190.3530  176.9040  145.9140 N   0  0  0  0  0  0  0  0  0  0  0  0
  188.9920  177.2880  145.9770 C   0  0  0  0  0  0  0  0  0  0  0  0
  191.0550  176.3790  144.7530 C   0  0  0  0  0  1  0  0  0  0  0  0
  186.8160  178.0510  145.2410 C   0  0  0  0  0  0  0  0  0  0  0  0
  186.4170  178.2540  146.5180 C   0  0  0  0  0  3  0  0  0  0  0  0
  192.0640  176.4140  147.7720 C   0  0  0  0  0  0  0  0  0  0  0  0
  192.6690  177.1280  148.7980 O   0  0  0  0  0  1  0  0  0  0  0  0
  192.6740  175.4410  147.2540 O   0  0  0  0  0  0  0  0  0  0  0  0
  187.2210  178.4510  136.2380 C   0  0  0  0  0  2  0  0  0  0  0  0
  188.6030  178.2690  136.1930 O   0  0  0  0  0  0  0  0  0  0  0  0
  188.8070  177.4130  135.1110 C   0  0  0  0  0  1  0  0  0  0  0  0
  1  9  1  0  0  0  0
  2  3  1  0  0  0  0
  2 18  1  0  0  0  0
  3 10  1  0  0  0  0
  5 11  1  0  0  0  0
  5  1  2  0  0  0  0
  6  8  1  0  0  0  0
  6  4  1  0  0  0  0
  7  8  2  0  0  0  0
  9  4  2  0  0  0  0
  9 27  1  0  0  0  0
 10 12  2  0  0  0  0
 10 11  1  0  0  0  0
 11  6  2  0  0  0  0
 12  7  1  0  0  0  0
 13  2  2  0  0  0  0
 14 13  1  0  0  0  0
 14 15  2  0  0  0  0
 15 17  1  0  0  0  0
 16  3  2  0  0  0  0
 17 18  2  0  0  0  0
 18  5  1  0  0  0  0
 20 27  1  0  0  0  0
 20 25  2  0  0  0  0
 21 29  1  0  0  0  0
 21 22  2  0  0  0  0
 23 19  1  0  0  0  0
 23 22  1  0  0  0  0
 24 25  1  0  0  0  0
 24 21  1  0  0  0  0
 25 23  1  0  0  0  0
 26 24  1  0  0  0  0
 27 28  2  0  0  0  0
 28 19  1  0  0  0  0
 29 30  1  0  0  0  0
 31 29  2  0  0  0  0
 32 14  1  0  0  0  0
 33 32  1  0  0  0  0
 34 33  1  0  0  0  0
M  END
>  <MODEL>
8

>  <REMARK>
 VINA RESULT:      -9.6      3.329      8.007
  Name = 
  4 active torsions:
  status: ('A' for Active; 'I' for Inactive)
    1  A    between atoms: C_3  and  O_13
    2  A    between atoms: C_3  and  C_25
    3  A    between atoms: C_7  and  C_11
    4  A    between atoms: C_18  and  C_30
                            x       y       z     vdW  Elec       q    Type
                         _______ _______ _______ _____ _____    ______ ____

>  <TORSDO>
F 4

$$$$
=
 OpenBabel11052415553D

 34 39  0  0  0  0  0  0  0  0999 V2000
  188.9880  177.3800  143.4660 C   0  0  0  0  0  3  0  0  0  0  0  0
  189.4830  177.0820  147.2070 C   0  0  0  0  0  0  0  0  0  0  0  0
  188.1420  177.4990  147.6610 C   0  0  0  0  0  0  0  0  0  0  0  0
  186.7660  178.1160  142.9970 N   0  0  0  0  0  0  0  0  0  0  0  0
  188.7230  177.4150  144.8420 C   0  0  0  0  0  0  0  0  0  0  0  0
  186.4680  178.1640  144.3230 C   0  0  0  0  0  0  0  0  0  0  0  0
  184.8810  178.6100  146.0960 C   0  0  0  0  0  3  0  0  0  0  0  0
  185.1940  178.5600  144.7360 C   0  0  0  0  0  3  0  0  0  0  0  0
  187.9920  177.7370  142.5430 C   0  0  0  0  0  0  0  0  0  0  0  0
  187.1250  177.8640  146.6550 C   0  0  0  0  0  0  0  0  0  0  0  0
  187.4440  177.8120  145.2810 C   0  0  0  0  0  0  0  0  0  0  0  0
  185.8410  178.2650  147.0500 C   0  0  0  0  0  3  0  0  0  0  0  0
  190.4710  176.7290  148.1360 C   0  0  0  0  0  3  0  0  0  0  0  0
  191.7410  176.3390  147.7030 C   0  0  0  0  0  0  0  0  0  0  0  0
  192.0260  176.2870  146.3360 C   0  0  0  0  0  3  0  0  0  0  0  0
  187.8680  177.5410  148.8920 O   0  0  0  0  0  0  0  0  0  0  0  0
  191.0470  176.6380  145.4030 C   0  0  0  0  0  3  0  0  0  0  0  0
  189.7710  177.0400  145.8270 C   0  0  0  0  0  0  0  0  0  0  0  0
  189.8490  177.5050  139.1460 C   0  0  0  0  0  2  0  0  0  0  0  0
  187.1260  177.8780  140.1420 C   0  0  0  0  0  3  0  0  0  0  0  0
  187.2260  177.6670  136.6160 C   0  0  0  0  0  0  0  0  0  0  0  0
  188.5020  177.4070  136.9320 C   0  0  0  0  0  3  0  0  0  0  0  0
  188.6330  177.3810  138.3510 N   0  0  0  0  0  0  0  0  0  0  0  0
  186.4290  177.8900  137.7870 N   0  0  0  0  0  0  0  0  0  0  0  0
  187.3530  177.7080  138.8430 C   0  0  0  0  0  0  0  0  0  0  0  0
  184.9780  177.8970  137.8920 C   0  0  0  0  0  1  0  0  0  0  0  0
  188.2570  177.7050  141.0880 C   0  0  0  0  0  0  0  0  0  0  0  0
  189.5100  177.5020  140.6210 C   0  0  0  0  0  3  0  0  0  0  0  0
  186.7240  177.7540  135.2350 C   0  0  0  0  0  0  0  0  0  0  0  0
  186.2280  176.6270  134.5940 O   0  0  0  0  0  0  0  0  0  0  0  0
  186.7360  178.8550  134.6240 O   0  0  0  0  0  1  0  0  0  0  0  0
  192.7770  175.9410  148.6950 C   0  0  0  0  0  2  0  0  0  0  0  0
  193.4330  177.0750  149.1710 O   0  0  0  0  0  0  0  0  0  0  0  0
  193.5320  176.8690  150.5470 C   0  0  0  0  0  1  0  0  0  0  0  0
  1  5  1  0  0  0  0
  2  3  1  0  0  0  0
  2 13  1  0  0  0  0
  3 16  2  0  0  0  0
  4  6  2  0  0  0  0
  5 11  2  0  0  0  0
  5 18  1  0  0  0  0
  6  8  1  0  0  0  0
  6 11  1  0  0  0  0
  7 12  1  0  0  0  0
  8  7  2  0  0  0  0
  9  4  1  0  0  0  0
  9  1  2  0  0  0  0
 10 12  2  0  0  0  0
 10  3  1  0  0  0  0
 11 10  1  0  0  0  0
 14 13  2  0  0  0  0
 14 32  1  0  0  0  0
 15 14  1  0  0  0  0
 17 18  1  0  0  0  0
 17 15  2  0  0  0  0
 18  2  2  0  0  0  0
 19 28  1  0  0  0  0
 20 27  1  0  0  0  0
 21 22  2  0  0  0  0
 21 24  1  0  0  0  0
 22 23  1  0  0  0  0
 23 25  1  0  0  0  0
 23 19  1  0  0  0  0
 24 26  1  0  0  0  0
 24 25  1  0  0  0  0
 25 20  2  0  0  0  0
 27  9  1  0  0  0  0
 28 27  2  0  0  0  0
 29 21  1  0  0  0  0
 30 29  2  0  0  0  0
 31 29  1  0  0  0  0
 32 33  1  0  0  0  0
 33 34  1  0  0  0  0
M  END
>  <MODEL>
9

>  <REMARK>
 VINA RESULT:      -9.5      2.898      6.068
  Name = 
  4 active torsions:
  status: ('A' for Active; 'I' for Inactive)
    1  A    between atoms: C_3  and  O_13
    2  A    between atoms: C_3  and  C_25
    3  A    between atoms: C_7  and  C_11
    4  A    between atoms: C_18  and  C_30
                            x       y       z     vdW  Elec       q    Type
                         _______ _______ _______ _____ _____    ______ ____

>  <TORSDO>
F 4

$$$$
