=
 OpenBabel11052413093D

 31 35  0  0  1  0  0  0  0  0999 V2000
  189.8790  177.4660  147.1080 C   0  0  0  0  0  0  0  0  0  0  0  0
  187.8810  177.8540  143.9330 N   0  0  0  0  0  0  0  0  0  0  0  0
  186.5330  178.2170  144.3200 C   0  0  0  0  0  0  0  0  0  0  0  0
  184.6510  178.2830  145.8960 C   0  0  0  0  0  0  0  0  0  0  0  0
  188.9150  177.4650  144.8720 C   0  0  0  0  0  0  0  0  0  0  0  0
  190.9920  176.7670  146.6360 C   0  0  0  0  0  3  0  0  0  0  0  0
  186.0420  177.9590  145.5370 C   0  0  0  0  0  3  0  0  0  0  0  0
  189.5900  177.4840  142.0590 C   0  0  2  0  0  3  0  0  0  0  0  0
  189.7970  177.8040  148.4170 F   0  0  0  0  0  0  0  0  0  0  0  0
  186.0610  178.9180  142.0710 N   0  0  0  0  0  0  0  0  0  0  0  0
  184.1800  177.9280  147.1150 F   0  0  0  0  0  0  0  0  0  0  0  0
  190.1480  176.3880  142.9660 C   0  0  0  0  0  2  0  0  0  0  0  0
  188.2150  177.9080  142.5240 C   0  0  0  0  0  0  0  0  0  0  0  0
  188.8500  177.8170  146.2310 C   0  0  0  0  0  3  0  0  0  0  0  0
  183.8370  178.8920  145.0290 C   0  0  0  0  0  3  0  0  0  0  0  0
  190.0570  176.7860  144.4020 C   0  0  0  0  0  0  0  0  0  0  0  0
  191.0800  176.4270  145.2850 C   0  0  0  0  0  3  0  0  0  0  0  0
  187.3520  178.4520  141.6530 C   0  0  0  0  0  3  0  0  0  0  0  0
  185.6450  178.8120  143.2960 C   0  0  0  0  0  0  0  0  0  0  0  0
  184.2890  179.3430  143.6650 C   0  0  0  0  0  2  0  0  0  0  0  0
  191.7720  177.5480  140.2340 O   0  0  0  0  0  0  0  0  0  0  0  0
  190.6930  177.0480  139.8150 C   0  0  0  0  0  0  0  0  0  0  0  0
  189.5560  177.0000  140.6830 N   0  0  0  0  0  2  0  0  0  0  0  0
  190.4600  175.3720  135.8610 C   0  0  0  0  0  0  0  0  0  0  0  0
  191.1910  175.2730  138.1610 C   0  0  0  0  0  3  0  0  0  0  0  0
  189.2300  178.4980  137.5640 C   0  0  0  0  0  1  0  0  0  0  0  0
  190.3990  174.8100  134.5940 O   0  0  0  0  0  1  0  0  0  0  0  0
  191.1310  174.7070  136.8860 C   0  0  0  0  0  3  0  0  0  0  0  0
  189.9060  177.1790  137.3830 C   0  0  0  0  0  0  0  0  0  0  0  0
  190.5850  176.5110  138.4340 C   0  0  0  0  0  0  0  0  0  0  0  0
  189.8510  176.6020  136.1090 C   0  0  0  0  0  3  0  0  0  0  0  0
  1  9  1  0  0  0  0
  2  3  1  0  0  0  0
  2  5  1  0  0  0  0
  3  7  2  0  0  0  0
  4 11  1  0  0  0  0
  5 14  1  0  0  0  0
  6  1  1  0  0  0  0
  7  4  1  0  0  0  0
  8 23  1  6  0  0  0
  8 13  1  0  0  0  0
  8 12  1  0  0  0  0
 10 19  2  0  0  0  0
 12 16  1  0  0  0  0
 13  2  1  0  0  0  0
 14  1  2  0  0  0  0
 15  4  2  0  0  0  0
 16  5  2  0  0  0  0
 16 17  1  0  0  0  0
 17  6  2  0  0  0  0
 18 10  1  0  0  0  0
 18 13  2  0  0  0  0
 19 20  1  0  0  0  0
 19  3  1  0  0  0  0
 20 15  1  0  0  0  0
 22 21  2  0  0  0  0
 22 23  1  0  0  0  0
 24 31  2  0  0  0  0
 24 28  1  0  0  0  0
 25 30  1  0  0  0  0
 27 24  1  0  0  0  0
 28 25  2  0  0  0  0
 29 26  1  0  0  0  0
 29 30  2  0  0  0  0
 30 22  1  0  0  0  0
 31 29  1  0  0  0  0
M  END
>  <MODEL>
1

>  <REMARK>
 VINA RESULT:     -10.9      0.000      0.000
  Name = 
  2 active torsions:
  status: ('A' for Active; 'I' for Inactive)
    1  A    between atoms: C_9  and  C_22
    2  A    between atoms: C_15  and  N_23
                            x       y       z     vdW  Elec       q    Type
                         _______ _______ _______ _____ _____    ______ ____

>  <TORSDO>
F 2

$$$$
=
 OpenBabel11052413093D

 31 35  0  0  1  0  0  0  0  0999 V2000
  192.0140  177.3170  140.9780 C   0  0  0  0  0  0  0  0  0  0  0  0
  189.3520  177.4320  143.6480 N   0  0  0  0  0  0  0  0  0  0  0  0
  189.9840  177.0490  144.8950 C   0  0  2  0  0  3  0  0  0  0  0  0
  191.7140  175.9090  146.2120 C   0  0  0  0  0  0  0  0  0  0  0  0
  190.0060  177.3620  142.3560 C   0  0  0  0  0  0  0  0  0  0  0  0
  191.2280  177.3220  139.8220 C   0  0  0  0  0  3  0  0  0  0  0  0
  191.1160  176.3390  144.9370 C   0  0  0  0  0  3  0  0  0  0  0  0
  187.2690  178.2950  142.4300 C   0  0  2  0  0  3  0  0  0  0  0  0
  193.3640  177.2880  140.8780 F   0  0  0  0  0  0  0  0  0  0  0  0
  188.1160  177.9260  146.1260 N   0  0  0  0  0  0  0  0  0  0  0  0
  192.8180  175.1250  146.1970 F   0  0  0  0  0  0  0  0  0  0  0  0
  187.7360  177.4050  141.2790 C   0  0  0  0  0  2  0  0  0  0  0  0
  187.9950  177.9360  143.7070 C   0  0  0  0  0  0  0  0  0  0  0  0
  191.4070  177.3420  142.2350 C   0  0  0  0  0  3  0  0  0  0  0  0
  191.1690  176.2530  147.3820 C   0  0  0  0  0  3  0  0  0  0  0  0
  189.2260  177.3960  141.1820 C   0  0  0  0  0  0  0  0  0  0  0  0
  189.8370  177.3600  139.9250 C   0  0  0  0  0  3  0  0  0  0  0  0
  187.4320  178.2020  144.8950 C   0  0  0  0  0  3  0  0  0  0  0  0
  189.2940  177.3810  146.1610 C   0  0  0  0  0  0  0  0  0  0  0  0
  189.9590  177.1430  147.4870 C   0  0  0  0  0  3  0  0  0  0  0  0
  185.3060  179.7250  140.9480 O   0  0  0  0  0  0  0  0  0  0  0  0
  184.8850  178.8980  141.8020 C   0  0  0  0  0  0  0  0  0  0  0  0
  185.8250  178.1590  142.5890 N   0  0  0  0  0  2  0  0  0  0  0  0
  180.6580  178.2370  142.2460 C   0  0  0  0  0  0  0  0  0  0  0  0
  182.6700  178.2430  140.9090 C   0  0  0  0  0  3  0  0  0  0  0  0
  183.4790  179.3720  144.4680 C   0  0  0  0  0  1  0  0  0  0  0  0
  179.2930  178.0160  142.3640 O   0  0  0  0  0  1  0  0  0  0  0  0
  181.2970  178.0210  141.0260 C   0  0  0  0  0  3  0  0  0  0  0  0
  182.7690  178.9020  143.2430 C   0  0  0  0  0  0  0  0  0  0  0  0
  183.4280  178.6850  142.0060 C   0  0  0  0  0  0  0  0  0  0  0  0
  181.3920  178.6760  143.3480 C   0  0  0  0  0  3  0  0  0  0  0  0
  1 14  1  0  0  0  0
  2 13  1  0  0  0  0
  2  3  1  0  0  0  0
  3  7  1  6  0  0  0
  3 19  1  0  0  0  0
  4 15  1  0  0  0  0
  5  2  1  0  0  0  0
  6 17  1  0  0  0  0
  6  1  2  0  0  0  0
  7  4  2  0  0  0  0
  8 23  1  1  0  0  0
  8 13  1  0  0  0  0
  9  1  1  0  0  0  0
 10 19  2  0  0  0  0
 11  4  1  0  0  0  0
 12  8  1  0  0  0  0
 13 18  2  0  0  0  0
 14  5  2  0  0  0  0
 15 20  2  0  0  0  0
 16 12  1  0  0  0  0
 16  5  1  0  0  0  0
 17 16  2  0  0  0  0
 18 10  1  0  0  0  0
 19 20  1  0  0  0  0
 21 22  2  0  0  0  0
 22 30  1  0  0  0  0
 22 23  1  0  0  0  0
 24 27  1  0  0  0  0
 24 31  1  0  0  0  0
 25 28  1  0  0  0  0
 25 30  2  0  0  0  0
 28 24  2  0  0  0  0
 29 31  2  0  0  0  0
 29 26  1  0  0  0  0
 30 29  1  0  0  0  0
M  END
>  <MODEL>
2

>  <REMARK>
 VINA RESULT:     -10.0      3.537      7.258
  Name = 
  2 active torsions:
  status: ('A' for Active; 'I' for Inactive)
    1  A    between atoms: C_9  and  C_22
    2  A    between atoms: C_15  and  N_23
                            x       y       z     vdW  Elec       q    Type
                         _______ _______ _______ _____ _____    ______ ____

>  <TORSDO>
F 2

$$$$
=
 OpenBabel11052413093D

 31 35  0  0  1  0  0  0  0  0999 V2000
  189.9380  177.5420  146.7800 C   0  0  0  0  0  0  0  0  0  0  0  0
  188.5220  177.5700  143.2850 N   0  0  0  0  0  0  0  0  0  0  0  0
  187.1340  177.9700  143.3910 C   0  0  0  0  0  0  0  0  0  0  0  0
  185.0100  178.2050  144.6030 C   0  0  0  0  0  0  0  0  0  0  0  0
  189.3730  177.2910  144.4250 C   0  0  0  0  0  0  0  0  0  0  0  0
  191.1050  176.7980  146.5860 C   0  0  0  0  0  3  0  0  0  0  0  0
  186.4370  177.8470  144.5270 C   0  0  0  0  0  3  0  0  0  0  0  0
  190.5210  176.9990  141.7860 C   0  0  2  0  0  3  0  0  0  0  0  0
  189.6390  178.0230  148.0100 F   0  0  0  0  0  0  0  0  0  0  0  0
  187.0660  178.4150  141.0310 N   0  0  0  0  0  0  0  0  0  0  0  0
  184.3310  177.9870  145.7540 F   0  0  0  0  0  0  0  0  0  0  0  0
  190.8970  176.0120  142.8900 C   0  0  0  0  0  2  0  0  0  0  0  0
  189.0940  177.4690  141.9570 C   0  0  0  0  0  0  0  0  0  0  0  0
  189.0810  177.7910  145.7060 C   0  0  0  0  0  3  0  0  0  0  0  0
  184.3670  178.7120  143.5470 C   0  0  0  0  0  3  0  0  0  0  0  0
  190.5670  176.5660  144.2370 C   0  0  0  0  0  0  0  0  0  0  0  0
  191.4170  176.3110  145.3160 C   0  0  0  0  0  3  0  0  0  0  0  0
  188.4020  177.9100  140.8960 C   0  0  0  0  0  3  0  0  0  0  0  0
  186.4440  178.4450  142.1710 C   0  0  0  0  0  0  0  0  0  0  0  0
  185.0540  179.0100  142.2400 C   0  0  0  0  0  2  0  0  0  0  0  0
  192.6420  177.5650  139.9760 O   0  0  0  0  0  0  0  0  0  0  0  0
  191.8120  176.6840  139.6230 C   0  0  0  0  0  0  0  0  0  0  0  0
  190.7150  176.3660  140.4860 N   0  0  0  0  0  2  0  0  0  0  0  0
  192.0840  174.6770  135.8290 C   0  0  0  0  0  0  0  0  0  0  0  0
  190.8640  176.0010  137.4400 C   0  0  0  0  0  3  0  0  0  0  0  0
  194.3420  175.1910  138.7990 C   0  0  0  0  0  1  0  0  0  0  0  0
  192.1480  174.0380  134.5990 O   0  0  0  0  0  1  0  0  0  0  0  0
  190.9260  175.3570  136.2030 C   0  0  0  0  0  3  0  0  0  0  0  0
  193.1290  175.2810  137.9350 C   0  0  0  0  0  0  0  0  0  0  0  0
  191.9550  175.9760  138.3250 C   0  0  0  0  0  0  0  0  0  0  0  0
  193.1790  174.6400  136.6920 C   0  0  0  0  0  3  0  0  0  0  0  0
  1  9  1  0  0  0  0
  2  3  1  0  0  0  0
  2  5  1  0  0  0  0
  3  7  2  0  0  0  0
  4 11  1  0  0  0  0
  5 14  1  0  0  0  0
  6  1  1  0  0  0  0
  7  4  1  0  0  0  0
  8 23  1  6  0  0  0
  8 13  1  0  0  0  0
  8 12  1  0  0  0  0
 10 19  2  0  0  0  0
 12 16  1  0  0  0  0
 13  2  1  0  0  0  0
 14  1  2  0  0  0  0
 15  4  2  0  0  0  0
 16  5  2  0  0  0  0
 16 17  1  0  0  0  0
 17  6  2  0  0  0  0
 18 10  1  0  0  0  0
 18 13  2  0  0  0  0
 19 20  1  0  0  0  0
 19  3  1  0  0  0  0
 20 15  1  0  0  0  0
 22 21  2  0  0  0  0
 22 23  1  0  0  0  0
 24 28  2  0  0  0  0
 24 31  1  0  0  0  0
 25 30  2  0  0  0  0
 27 24  1  0  0  0  0
 28 25  1  0  0  0  0
 29 30  1  0  0  0  0
 29 26  1  0  0  0  0
 30 22  1  0  0  0  0
 31 29  2  0  0  0  0
M  END
>  <MODEL>
3

>  <REMARK>
 VINA RESULT:      -9.4      1.242      1.855
  Name = 
  2 active torsions:
  status: ('A' for Active; 'I' for Inactive)
    1  A    between atoms: C_9  and  C_22
    2  A    between atoms: C_15  and  N_23
                            x       y       z     vdW  Elec       q    Type
                         _______ _______ _______ _____ _____    ______ ____

>  <TORSDO>
F 2

$$$$
=
 OpenBabel11052413093D

 31 35  0  0  1  0  0  0  0  0999 V2000
  186.0560  178.6100  146.5280 C   0  0  0  0  0  0  0  0  0  0  0  0
  185.4430  178.3820  142.8130 N   0  0  0  0  0  0  0  0  0  0  0  0
  184.0330  178.6340  142.5980 C   0  0  0  0  0  0  0  0  0  0  0  0
  181.6830  178.6750  143.3120 C   0  0  0  0  0  0  0  0  0  0  0  0
  186.0470  178.2290  144.1220 C   0  0  0  0  0  0  0  0  0  0  0  0
  187.3040  177.9900  146.6270 C   0  0  0  0  0  3  0  0  0  0  0  0
  183.1200  178.4700  143.5620 C   0  0  0  0  0  3  0  0  0  0  0  0
  187.7680  177.9850  141.8100 C   0  0  2  0  0  3  0  0  0  0  0  0
  185.4490  179.0920  147.6380 F   0  0  0  0  0  0  0  0  0  0  0  0
  184.4400  178.9990  140.2590 N   0  0  0  0  0  0  0  0  0  0  0  0
  180.7940  178.4190  144.3000 F   0  0  0  0  0  0  0  0  0  0  0  0
  187.9880  177.0760  143.0190 C   0  0  0  0  0  2  0  0  0  0  0  0
  186.2990  178.3030  141.6460 C   0  0  0  0  0  0  0  0  0  0  0  0
  185.4350  178.7330  145.2830 C   0  0  0  0  0  3  0  0  0  0  0  0
  181.2400  179.0790  142.1180 C   0  0  0  0  0  3  0  0  0  0  0  0
  187.3190  177.6320  144.2330 C   0  0  0  0  0  0  0  0  0  0  0  0
  187.9330  177.5010  145.4820 C   0  0  0  0  0  3  0  0  0  0  0  0
  185.8160  178.6360  140.4400 C   0  0  0  0  0  3  0  0  0  0  0  0
  183.5840  178.9950  141.2350 C   0  0  0  0  0  0  0  0  0  0  0  0
  182.1630  179.4100  140.9750 C   0  0  0  0  0  2  0  0  0  0  0  0
  189.1040  179.3070  139.6750 O   0  0  0  0  0  0  0  0  0  0  0  0
  188.9790  178.0570  139.5800 C   0  0  0  0  0  0  0  0  0  0  0  0
  188.3030  177.3370  140.6170 N   0  0  0  0  0  2  0  0  0  0  0  0
  190.6390  175.8570  136.2780 C   0  0  0  0  0  0  0  0  0  0  0  0
  190.5710  176.4160  138.6270 C   0  0  0  0  0  3  0  0  0  0  0  0
  187.9160  178.4170  136.7420 C   0  0  0  0  0  1  0  0  0  0  0  0
  191.1910  175.1350  135.2300 O   0  0  0  0  0  1  0  0  0  0  0  0
  191.1280  175.6900  137.5730 C   0  0  0  0  0  3  0  0  0  0  0  0
  189.0280  177.4830  137.0860 C   0  0  0  0  0  0  0  0  0  0  0  0
  189.5190  177.3210  138.4070 C   0  0  0  0  0  0  0  0  0  0  0  0
  189.5940  176.7490  136.0380 C   0  0  0  0  0  3  0  0  0  0  0  0
  1  6  1  0  0  0  0
  1  9  1  0  0  0  0
  2  5  1  0  0  0  0
  3  2  1  0  0  0  0
  3  7  2  0  0  0  0
  4  7  1  0  0  0  0
  4 11  1  0  0  0  0
  5 16  2  0  0  0  0
  5 14  1  0  0  0  0
  8 23  1  6  0  0  0
  8 12  1  0  0  0  0
 10 18  1  0  0  0  0
 10 19  2  0  0  0  0
 12 16  1  0  0  0  0
 13  8  1  0  0  0  0
 13  2  1  0  0  0  0
 14  1  2  0  0  0  0
 15  4  2  0  0  0  0
 16 17  1  0  0  0  0
 17  6  2  0  0  0  0
 18 13  2  0  0  0  0
 19  3  1  0  0  0  0
 20 19  1  0  0  0  0
 20 15  1  0  0  0  0
 22 21  2  0  0  0  0
 22 23  1  0  0  0  0
 24 28  1  0  0  0  0
 26 29  1  0  0  0  0
 27 24  1  0  0  0  0
 28 25  2  0  0  0  0
 29 30  2  0  0  0  0
 30 25  1  0  0  0  0
 30 22  1  0  0  0  0
 31 24  2  0  0  0  0
 31 29  1  0  0  0  0
M  END
>  <MODEL>
4

>  <REMARK>
 VINA RESULT:      -9.0      1.873      2.809
  Name = 
  2 active torsions:
  status: ('A' for Active; 'I' for Inactive)
    1  A    between atoms: C_9  and  C_22
    2  A    between atoms: C_15  and  N_23
                            x       y       z     vdW  Elec       q    Type
                         _______ _______ _______ _____ _____    ______ ____

>  <TORSDO>
F 2

$$$$
=
 OpenBabel11052413093D

 31 35  0  0  1  0  0  0  0  0999 V2000
  185.7890  178.3720  145.8050 C   0  0  0  0  0  0  0  0  0  0  0  0
  185.8410  178.3080  142.0340 N   0  0  0  0  0  0  0  0  0  0  0  0
  184.4950  178.6020  141.5850 C   0  0  0  0  0  0  0  0  0  0  0  0
  182.0580  178.6700  141.8730 C   0  0  0  0  0  0  0  0  0  0  0  0
  186.2010  178.0890  143.4210 C   0  0  0  0  0  0  0  0  0  0  0  0
  186.9890  177.7200  146.0960 C   0  0  0  0  0  3  0  0  0  0  0  0
  183.4230  178.4210  142.3640 C   0  0  0  0  0  3  0  0  0  0  0  0
  188.3000  177.8970  141.4410 C   0  0  2  0  0  3  0  0  0  0  0  0
  185.0020  178.8240  146.8100 F   0  0  0  0  0  0  0  0  0  0  0  0
  185.3170  179.0500  139.3720 N   0  0  0  0  0  0  0  0  0  0  0  0
  181.0030  178.3960  142.6770 F   0  0  0  0  0  0  0  0  0  0  0  0
  188.2880  176.9360  142.6290 C   0  0  0  0  0  2  0  0  0  0  0  0
  186.8890  178.2560  141.0340 C   0  0  0  0  0  0  0  0  0  0  0  0
  185.4000  178.5600  144.4770 C   0  0  0  0  0  3  0  0  0  0  0  0
  181.8400  179.1320  140.6380 C   0  0  0  0  0  3  0  0  0  0  0  0
  187.4230  177.4580  143.7290 C   0  0  0  0  0  0  0  0  0  0  0  0
  187.8040  177.2620  145.0600 C   0  0  0  0  0  3  0  0  0  0  0  0
  186.6330  178.6480  139.7770 C   0  0  0  0  0  3  0  0  0  0  0  0
  184.3020  179.0280  140.1810 C   0  0  0  0  0  0  0  0  0  0  0  0
  182.9560  179.4860  139.6920 C   0  0  0  0  0  2  0  0  0  0  0  0
  191.1280  177.6370  141.2710 O   0  0  0  0  0  0  0  0  0  0  0  0
  190.4550  177.1710  140.3120 C   0  0  0  0  0  0  0  0  0  0  0  0
  189.0280  177.2850  140.3340 N   0  0  0  0  0  2  0  0  0  0  0  0
  192.2480  175.2090  136.9310 C   0  0  0  0  0  0  0  0  0  0  0  0
  190.3210  175.7720  138.2730 C   0  0  0  0  0  3  0  0  0  0  0  0
  193.4560  177.3460  139.7870 C   0  0  0  0  0  1  0  0  0  0  0  0
  192.8030  174.5670  135.8330 O   0  0  0  0  0  1  0  0  0  0  0  0
  190.8770  175.1250  137.1690 C   0  0  0  0  0  3  0  0  0  0  0  0
  192.5150  176.5900  138.9090 C   0  0  0  0  0  0  0  0  0  0  0  0
  191.1210  176.5120  139.1600 C   0  0  0  0  0  0  0  0  0  0  0  0
  193.0620  175.9380  137.7980 C   0  0  0  0  0  3  0  0  0  0  0  0
  1  6  1  0  0  0  0
  1  9  1  0  0  0  0
  2  5  1  0  0  0  0
  3  2  1  0  0  0  0
  3  7  2  0  0  0  0
  4  7  1  0  0  0  0
  4 11  1  0  0  0  0
  5 16  2  0  0  0  0
  5 14  1  0  0  0  0
  8 23  1  6  0  0  0
  8 12  1  0  0  0  0
 10 18  1  0  0  0  0
 10 19  2  0  0  0  0
 12 16  1  0  0  0  0
 13  8  1  0  0  0  0
 13  2  1  0  0  0  0
 14  1  2  0  0  0  0
 15  4  2  0  0  0  0
 16 17  1  0  0  0  0
 17  6  2  0  0  0  0
 18 13  2  0  0  0  0
 19  3  1  0  0  0  0
 20 19  1  0  0  0  0
 20 15  1  0  0  0  0
 22 23  1  0  0  0  0
 22 21  2  0  0  0  0
 24 28  2  0  0  0  0
 24 31  1  0  0  0  0
 25 30  2  0  0  0  0
 27 24  1  0  0  0  0
 28 25  1  0  0  0  0
 29 30  1  0  0  0  0
 29 26  1  0  0  0  0
 30 22  1  0  0  0  0
 31 29  2  0  0  0  0
M  END
>  <MODEL>
5

>  <REMARK>
 VINA RESULT:      -9.0      2.147      3.291
  Name = 
  2 active torsions:
  status: ('A' for Active; 'I' for Inactive)
    1  A    between atoms: C_9  and  C_22
    2  A    between atoms: C_15  and  N_23
                            x       y       z     vdW  Elec       q    Type
                         _______ _______ _______ _____ _____    ______ ____

>  <TORSDO>
F 2

$$$$
=
 OpenBabel11052413093D

 31 35  0  0  1  0  0  0  0  0999 V2000
  180.0710  178.8740  142.1860 C   0  0  0  0  0  0  0  0  0  0  0  0
  183.7950  178.6620  141.6300 N   0  0  0  0  0  0  0  0  0  0  0  0
  183.9980  178.2870  140.2450 C   0  0  0  0  0  0  0  0  0  0  0  0
  183.2960  177.2490  138.1340 C   0  0  0  0  0  0  0  0  0  0  0  0
  182.4980  178.6970  142.2770 C   0  0  0  0  0  0  0  0  0  0  0  0
  180.0110  178.8570  143.5820 C   0  0  0  0  0  3  0  0  0  0  0  0
  183.0540  177.6740  139.5230 C   0  0  0  0  0  3  0  0  0  0  0  0
  184.8130  179.3920  143.8670 C   0  0  2  0  0  3  0  0  0  0  0  0
  178.9310  178.9640  141.4610 F   0  0  0  0  0  0  0  0  0  0  0  0
  186.3010  178.9560  140.3870 N   0  0  0  0  0  0  0  0  0  0  0  0
  182.3340  176.5610  137.4730 F   0  0  0  0  0  0  0  0  0  0  0  0
  183.6740  178.5880  144.4940 C   0  0  0  0  0  2  0  0  0  0  0  0
  184.9600  179.0470  142.4020 C   0  0  0  0  0  0  0  0  0  0  0  0
  181.3060  178.8000  141.5390 C   0  0  0  0  0  3  0  0  0  0  0  0
  184.4590  177.5010  137.5260 C   0  0  0  0  0  3  0  0  0  0  0  0
  182.4260  178.7090  143.6840 C   0  0  0  0  0  0  0  0  0  0  0  0
  181.1870  178.7730  144.3290 C   0  0  0  0  0  3  0  0  0  0  0  0
  186.1400  179.2190  141.7880 C   0  0  0  0  0  3  0  0  0  0  0  0
  185.3320  178.5110  139.6460 C   0  0  0  0  0  0  0  0  0  0  0  0
  185.5680  178.2810  138.1800 C   0  0  0  0  0  2  0  0  0  0  0  0
  186.0560  176.8470  144.1380 O   0  0  0  0  0  0  0  0  0  0  0  0
  186.6330  177.8240  144.6870 C   0  0  0  0  0  0  0  0  0  0  0  0
  186.0480  179.1280  144.5970 N   0  0  0  0  0  2  0  0  0  0  0  0
  190.2430  177.2790  146.9610 C   0  0  0  0  0  0  0  0  0  0  0  0
  187.8370  177.4390  146.8170 C   0  0  0  0  0  3  0  0  0  0  0  0
  189.3730  177.8680  143.3450 C   0  0  0  0  0  1  0  0  0  0  0  0
  191.3930  177.1000  147.7170 O   0  0  0  0  0  1  0  0  0  0  0  0
  188.9930  177.2600  147.5780 C   0  0  0  0  0  3  0  0  0  0  0  0
  189.1850  177.6590  144.8100 C   0  0  0  0  0  0  0  0  0  0  0  0
  187.9080  177.6410  145.4280 C   0  0  0  0  0  0  0  0  0  0  0  0
  190.3360  177.4780  145.5840 C   0  0  0  0  0  3  0  0  0  0  0  0
  1  6  1  0  0  0  0
  2  5  1  0  0  0  0
  2 13  1  0  0  0  0
  3  2  1  0  0  0  0
  4  7  1  0  0  0  0
  5 16  2  0  0  0  0
  6 17  2  0  0  0  0
  7  3  2  0  0  0  0
  8 12  1  0  0  0  0
  8 23  1  1  0  0  0
  9  1  1  0  0  0  0
 10 18  1  0  0  0  0
 11  4  1  0  0  0  0
 13  8  1  0  0  0  0
 14  1  2  0  0  0  0
 14  5  1  0  0  0  0
 15  4  2  0  0  0  0
 15 20  1  0  0  0  0
 16 17  1  0  0  0  0
 16 12  1  0  0  0  0
 18 13  2  0  0  0  0
 19  3  1  0  0  0  0
 19 10  2  0  0  0  0
 20 19  1  0  0  0  0
 21 22  2  0  0  0  0
 22 30  1  0  0  0  0
 23 22  1  0  0  0  0
 24 28  1  0  0  0  0
 24 27  1  0  0  0  0
 25 28  2  0  0  0  0
 26 29  1  0  0  0  0
 29 30  2  0  0  0  0
 29 31  1  0  0  0  0
 30 25  1  0  0  0  0
 31 24  2  0  0  0  0
M  END
>  <MODEL>
6

>  <REMARK>
 VINA RESULT:      -8.9      4.606      8.141
  Name = 
  2 active torsions:
  status: ('A' for Active; 'I' for Inactive)
    1  A    between atoms: C_9  and  C_22
    2  A    between atoms: C_15  and  N_23
                            x       y       z     vdW  Elec       q    Type
                         _______ _______ _______ _____ _____    ______ ____

>  <TORSDO>
F 2

$$$$
=
 OpenBabel11052413093D

 31 35  0  0  1  0  0  0  0  0999 V2000
  181.1810  179.1670  142.1060 C   0  0  0  0  0  0  0  0  0  0  0  0
  184.7740  178.4520  141.2040 N   0  0  0  0  0  0  0  0  0  0  0  0
  184.8120  178.2000  139.7780 C   0  0  0  0  0  0  0  0  0  0  0  0
  183.8010  177.5080  137.6500 C   0  0  0  0  0  0  0  0  0  0  0  0
  183.5490  178.6150  141.9640 C   0  0  0  0  0  0  0  0  0  0  0  0
  181.2220  179.0110  143.4940 C   0  0  0  0  0  3  0  0  0  0  0  0
  183.7320  177.8160  139.0880 C   0  0  0  0  0  3  0  0  0  0  0  0
  186.0560  178.7790  143.3990 C   0  0  2  0  0  3  0  0  0  0  0  0
  180.0200  179.5040  141.4960 F   0  0  0  0  0  0  0  0  0  0  0  0
  187.1970  178.4930  139.7760 N   0  0  0  0  0  0  0  0  0  0  0  0
  182.6960  177.0480  137.0150 F   0  0  0  0  0  0  0  0  0  0  0  0
  184.8520  178.0960  144.0480 C   0  0  0  0  0  2  0  0  0  0  0  0
  186.0380  178.5720  141.9010 C   0  0  0  0  0  0  0  0  0  0  0  0
  182.3380  178.9750  141.3470 C   0  0  0  0  0  3  0  0  0  0  0  0
  184.9410  177.6440  136.9670 C   0  0  0  0  0  3  0  0  0  0  0  0
  183.5830  178.4900  143.3670 C   0  0  0  0  0  0  0  0  0  0  0  0
  182.4210  178.6710  144.1220 C   0  0  0  0  0  3  0  0  0  0  0  0
  187.1830  178.6280  141.2050 C   0  0  0  0  0  3  0  0  0  0  0  0
  186.1170  178.2810  139.0860 C   0  0  0  0  0  0  0  0  0  0  0  0
  186.2060  178.1730  137.5900 C   0  0  0  0  0  2  0  0  0  0  0  0
  186.6130  178.6310  146.1850 O   0  0  0  0  0  0  0  0  0  0  0  0
  187.5000  178.1950  145.4030 C   0  0  0  0  0  0  0  0  0  0  0  0
  187.2830  178.2550  143.9890 N   0  0  0  0  0  2  0  0  0  0  0  0
  191.2210  176.5340  146.7780 C   0  0  0  0  0  0  0  0  0  0  0  0
  189.7720  177.2940  145.0020 C   0  0  0  0  0  3  0  0  0  0  0  0
  188.0180  177.7100  148.3710 C   0  0  0  0  0  1  0  0  0  0  0  0
  192.4300  175.9970  147.1970 O   0  0  0  0  0  1  0  0  0  0  0  0
  190.9880  176.7530  145.4220 C   0  0  0  0  0  3  0  0  0  0  0  0
  189.0150  177.3970  147.3060 C   0  0  0  0  0  0  0  0  0  0  0  0
  188.7670  177.6240  145.9270 C   0  0  0  0  0  0  0  0  0  0  0  0
  190.2380  176.8550  147.7150 C   0  0  0  0  0  3  0  0  0  0  0  0
  1  6  1  0  0  0  0
  2 13  1  0  0  0  0
  2  5  1  0  0  0  0
  3  2  1  0  0  0  0
  4  7  1  0  0  0  0
  5 16  2  0  0  0  0
  6 17  2  0  0  0  0
  7  3  2  0  0  0  0
  8 23  1  1  0  0  0
  8 12  1  0  0  0  0
  9  1  1  0  0  0  0
 10 18  1  0  0  0  0
 11  4  1  0  0  0  0
 13  8  1  0  0  0  0
 14  5  1  0  0  0  0
 14  1  2  0  0  0  0
 15 20  1  0  0  0  0
 15  4  2  0  0  0  0
 16 12  1  0  0  0  0
 16 17  1  0  0  0  0
 18 13  2  0  0  0  0
 19 10  2  0  0  0  0
 19  3  1  0  0  0  0
 20 19  1  0  0  0  0
 22 30  1  0  0  0  0
 22 21  2  0  0  0  0
 23 22  1  0  0  0  0
 24 27  1  0  0  0  0
 24 31  1  0  0  0  0
 25 28  1  0  0  0  0
 25 30  2  0  0  0  0
 28 24  2  0  0  0  0
 29 31  2  0  0  0  0
 29 26  1  0  0  0  0
 30 29  1  0  0  0  0
M  END
>  <MODEL>
7

>  <REMARK>
 VINA RESULT:      -8.9      4.526      8.027
  Name = 
  2 active torsions:
  status: ('A' for Active; 'I' for Inactive)
    1  A    between atoms: C_9  and  C_22
    2  A    between atoms: C_15  and  N_23
                            x       y       z     vdW  Elec       q    Type
                         _______ _______ _______ _____ _____    ______ ____

>  <TORSDO>
F 2

$$$$
=
 OpenBabel11052413093D

 31 35  0  0  1  0  0  0  0  0999 V2000
  182.7720  179.0030  140.2350 C   0  0  0  0  0  0  0  0  0  0  0  0
  186.4930  178.4080  140.0650 N   0  0  0  0  0  0  0  0  0  0  0  0
  186.8350  178.2530  138.6650 C   0  0  0  0  0  0  0  0  0  0  0  0
  186.3100  177.6910  136.3330 C   0  0  0  0  0  0  0  0  0  0  0  0
  185.1330  178.5000  140.5590 C   0  0  0  0  0  0  0  0  0  0  0  0
  182.5270  178.7540  141.5880 C   0  0  0  0  0  3  0  0  0  0  0  0
  185.9340  177.9000  137.7410 C   0  0  0  0  0  3  0  0  0  0  0  0
  187.2790  178.6050  142.4960 C   0  0  2  0  0  3  0  0  0  0  0  0
  181.7540  179.3620  139.4180 F   0  0  0  0  0  0  0  0  0  0  0  0
  189.1580  178.5830  139.1820 N   0  0  0  0  0  0  0  0  0  0  0  0
  185.3760  177.2580  135.4530 F   0  0  0  0  0  0  0  0  0  0  0  0
  185.9870  177.8610  142.8340 C   0  0  0  0  0  2  0  0  0  0  0  0
  187.5800  178.5000  141.0180 C   0  0  0  0  0  0  0  0  0  0  0  0
  184.0670  178.8820  139.7260 C   0  0  0  0  0  3  0  0  0  0  0  0
  187.5630  177.8910  135.9150 C   0  0  0  0  0  3  0  0  0  0  0  0
  184.8770  178.2800  141.9270 C   0  0  0  0  0  0  0  0  0  0  0  0
  183.5780  178.3920  142.4320 C   0  0  0  0  0  3  0  0  0  0  0  0
  188.8430  178.6210  140.5820 C   0  0  0  0  0  3  0  0  0  0  0  0
  188.2530  178.4010  138.2690 C   0  0  0  0  0  0  0  0  0  0  0  0
  188.6540  178.3970  136.8210 C   0  0  0  0  0  2  0  0  0  0  0  0
  187.2380  178.2540  145.3190 O   0  0  0  0  0  0  0  0  0  0  0  0
  188.2860  177.8970  144.7160 C   0  0  0  0  0  0  0  0  0  0  0  0
  188.3720  178.0620  143.2970 N   0  0  0  0  0  2  0  0  0  0  0  0
  191.6810  176.1920  146.7310 C   0  0  0  0  0  0  0  0  0  0  0  0
  190.5660  176.9300  144.7200 C   0  0  0  0  0  3  0  0  0  0  0  0
  188.2950  177.4940  147.7400 C   0  0  0  0  0  1  0  0  0  0  0  0
  192.7890  175.6400  147.3580 O   0  0  0  0  0  1  0  0  0  0  0  0
  191.6800  176.3740  145.3490 C   0  0  0  0  0  3  0  0  0  0  0  0
  189.4440  177.1240  146.8630 C   0  0  0  0  0  0  0  0  0  0  0  0
  189.4330  177.3130  145.4570 C   0  0  0  0  0  0  0  0  0  0  0  0
  190.5680  176.5660  147.4830 C   0  0  0  0  0  3  0  0  0  0  0  0
  1  6  1  0  0  0  0
  2  5  1  0  0  0  0
  2 13  1  0  0  0  0
  3  2  1  0  0  0  0
  4  7  1  0  0  0  0
  5 16  2  0  0  0  0
  6 17  2  0  0  0  0
  7  3  2  0  0  0  0
  8 12  1  0  0  0  0
  8 23  1  1  0  0  0
  9  1  1  0  0  0  0
 10 18  1  0  0  0  0
 11  4  1  0  0  0  0
 13  8  1  0  0  0  0
 14  1  2  0  0  0  0
 14  5  1  0  0  0  0
 15  4  2  0  0  0  0
 15 20  1  0  0  0  0
 16 17  1  0  0  0  0
 16 12  1  0  0  0  0
 18 13  2  0  0  0  0
 19  3  1  0  0  0  0
 19 10  2  0  0  0  0
 20 19  1  0  0  0  0
 22 21  2  0  0  0  0
 22 30  1  0  0  0  0
 23 22  1  0  0  0  0
 24 27  1  0  0  0  0
 24 31  1  0  0  0  0
 25 28  1  0  0  0  0
 25 30  2  0  0  0  0
 28 24  2  0  0  0  0
 29 31  2  0  0  0  0
 29 26  1  0  0  0  0
 30 29  1  0  0  0  0
M  END
>  <MODEL>
8

>  <REMARK>
 VINA RESULT:      -8.9      4.132      8.067
  Name = 
  2 active torsions:
  status: ('A' for Active; 'I' for Inactive)
    1  A    between atoms: C_9  and  C_22
    2  A    between atoms: C_15  and  N_23
                            x       y       z     vdW  Elec       q    Type
                         _______ _______ _______ _____ _____    ______ ____

>  <TORSDO>
F 2

$$$$
=
 OpenBabel11052413093D

 31 35  0  0  1  0  0  0  0  0999 V2000
  186.7770  178.2560  136.7330 C   0  0  0  0  0  0  0  0  0  0  0  0
  185.1250  178.6480  140.1020 N   0  0  0  0  0  0  0  0  0  0  0  0
  183.7790  179.1260  139.8620 C   0  0  2  0  0  3  0  0  0  0  0  0
  182.0720  180.2820  138.5280 C   0  0  0  0  0  0  0  0  0  0  0  0
  186.1330  178.5180  139.0670 C   0  0  0  0  0  0  0  0  0  0  0  0
  188.1210  178.1740  137.1060 C   0  0  0  0  0  3  0  0  0  0  0  0
  183.4300  179.7520  138.7320 C   0  0  0  0  0  3  0  0  0  0  0  0
  186.8780  177.8030  141.7700 C   0  0  2  0  0  3  0  0  0  0  0  0
  186.4310  178.1740  135.4270 F   0  0  0  0  0  0  0  0  0  0  0  0
  183.1550  178.5370  142.1060 N   0  0  0  0  0  0  0  0  0  0  0  0
  181.7920  180.9770  137.4000 F   0  0  0  0  0  0  0  0  0  0  0  0
  187.8850  178.5170  140.8680 C   0  0  0  0  0  2  0  0  0  0  0  0
  185.4700  178.2550  141.4530 C   0  0  0  0  0  0  0  0  0  0  0  0
  185.7900  178.4220  137.7070 C   0  0  0  0  0  3  0  0  0  0  0  0
  181.1190  180.1180  139.4500 C   0  0  0  0  0  3  0  0  0  0  0  0
  187.4890  178.4050  139.4330 C   0  0  0  0  0  0  0  0  0  0  0  0
  188.4760  178.2500  138.4540 C   0  0  0  0  0  3  0  0  0  0  0  0
  184.5140  178.1710  142.3890 C   0  0  0  0  0  3  0  0  0  0  0  0
  182.7840  178.9960  140.9500 C   0  0  0  0  0  0  0  0  0  0  0  0
  181.3390  179.3370  140.7190 C   0  0  0  0  0  3  0  0  0  0  0  0
  187.9300  175.8910  143.5940 O   0  0  0  0  0  0  0  0  0  0  0  0
  187.7530  177.0590  144.0330 C   0  0  0  0  0  0  0  0  0  0  0  0
  187.2130  178.0620  143.1660 N   0  0  0  0  0  2  0  0  0  0  0  0
  188.8800  178.0240  148.0700 C   0  0  0  0  0  0  0  0  0  0  0  0
  189.4150  177.1980  145.8640 C   0  0  0  0  0  3  0  0  0  0  0  0
  185.7300  178.1980  146.0130 C   0  0  0  0  0  1  0  0  0  0  0  0
  189.2680  178.3280  149.3670 O   0  0  0  0  0  1  0  0  0  0  0  0
  189.8070  177.5030  147.1690 C   0  0  0  0  0  3  0  0  0  0  0  0
  187.1580  177.9390  146.3620 C   0  0  0  0  0  0  0  0  0  0  0  0
  188.0930  177.4080  145.4370 C   0  0  0  0  0  0  0  0  0  0  0  0
  187.5620  178.2410  147.6670 C   0  0  0  0  0  3  0  0  0  0  0  0
  1  6  2  0  0  0  0
  1 14  1  0  0  0  0
  2 13  1  0  0  0  0
  3  7  1  1  0  0  0
  3  2  1  0  0  0  0
  3 19  1  0  0  0  0
  4  7  2  0  0  0  0
  4 15  1  0  0  0  0
  5 16  1  0  0  0  0
  5  2  1  0  0  0  0
  6 17  1  0  0  0  0
  8 23  1  1  0  0  0
  9  1  1  0  0  0  0
 10 18  1  0  0  0  0
 11  4  1  0  0  0  0
 12  8  1  0  0  0  0
 13  8  1  0  0  0  0
 13 18  2  0  0  0  0
 14  5  2  0  0  0  0
 15 20  2  0  0  0  0
 16 12  1  0  0  0  0
 17 16  2  0  0  0  0
 19 10  2  0  0  0  0
 20 19  1  0  0  0  0
 21 22  2  0  0  0  0
 22 30  1  0  0  0  0
 23 22  1  0  0  0  0
 24 27  1  0  0  0  0
 25 28  1  0  0  0  0
 26 29  1  0  0  0  0
 28 24  2  0  0  0  0
 29 31  2  0  0  0  0
 30 25  2  0  0  0  0
 30 29  1  0  0  0  0
 31 24  1  0  0  0  0
M  END
>  <MODEL>
9

>  <REMARK>
 VINA RESULT:      -8.9      4.278      8.083
  Name = 
  2 active torsions:
  status: ('A' for Active; 'I' for Inactive)
    1  A    between atoms: C_9  and  C_22
    2  A    between atoms: C_15  and  N_23
                            x       y       z     vdW  Elec       q    Type
                         _______ _______ _______ _____ _____    ______ ____

>  <TORSDO>
F 2

$$$$
