=
 OpenBabel11052413503D

 27 31  0  0  1  0  0  0  0  0999 V2000
  188.4070  177.8190  144.4010 C   0  0  2  0  0  3  0  0  0  0  0  0
  188.8630  177.8300  142.9610 C   0  0  0  0  0  0  0  0  0  0  0  0
  190.8620  176.4430  143.5650 C   0  0  0  0  0  0  0  0  0  0  0  0
  190.0240  177.5720  139.0350 N   0  0  0  0  0  0  0  0  0  0  0  0
  192.0080  176.3340  138.1640 C   0  0  0  0  0  1  0  0  0  0  0  0
  188.0740  178.5060  142.0020 C   0  0  0  0  0  3  0  0  0  0  0  0
  191.3200  176.4660  140.5590 N   0  0  0  0  0  2  0  0  0  0  0  0
  191.3670  176.6720  147.2900 C   0  0  0  0  0  3  0  0  0  0  0  0
  191.7970  175.6720  143.2160 O   0  0  0  0  0  0  0  0  0  0  0  0
  190.2690  177.3820  147.6570 N   0  0  0  0  0  0  0  0  0  0  0  0
  190.2980  177.0760  141.1820 C   0  0  0  0  0  0  0  0  0  0  0  0
  191.1120  176.7920  139.2580 C   0  0  0  0  0  0  0  0  0  0  0  0
  189.5290  177.7350  140.2700 C   0  0  0  0  0  0  0  0  0  0  0  0
  189.4960  177.4650  145.3910 C   0  0  0  0  0  0  0  0  0  0  0  0
  190.0070  177.0980  142.5520 C   0  0  0  0  0  0  0  0  0  0  0  0
  191.5710  176.3380  145.9520 C   0  0  0  0  0  3  0  0  0  0  0  0
  188.4070  178.4690  140.6380 C   0  0  0  0  0  3  0  0  0  0  0  0
  188.2530  178.4770  147.1720 F   0  0  0  0  0  0  0  0  0  0  0  0
  189.3390  177.7830  146.7500 C   0  0  0  0  0  0  0  0  0  0  0  0
  190.6350  176.7370  144.9910 C   0  0  0  0  0  0  0  0  0  0  0  0
  187.1590  176.9410  144.5920 C   0  0  0  0  0  2  0  0  0  0  0  0
  183.4790  179.1480  144.8020 C   0  0  0  0  0  3  0  0  0  0  0  0
  185.8860  177.7290  144.6630 C   0  0  0  0  0  0  0  0  0  0  0  0
  185.1790  178.0270  143.4930 C   0  0  0  0  0  3  0  0  0  0  0  0
  183.9760  178.7370  143.5620 C   0  0  0  0  0  3  0  0  0  0  0  0
  184.1840  178.8530  145.9720 C   0  0  0  0  0  3  0  0  0  0  0  0
  185.3870  178.1430  145.9040 C   0  0  0  0  0  3  0  0  0  0  0  0
  1 21  1  6  0  0  0
  1 14  1  0  0  0  0
  2  1  1  0  0  0  0
  3 20  1  0  0  0  0
  4 12  2  0  0  0  0
  4 13  1  0  0  0  0
  5 12  1  0  0  0  0
  6  2  2  0  0  0  0
  7 11  1  0  0  0  0
  8 10  1  0  0  0  0
  9  3  2  0  0  0  0
 11 15  2  0  0  0  0
 12  7  1  0  0  0  0
 13 17  2  0  0  0  0
 13 11  1  0  0  0  0
 14 19  1  0  0  0  0
 15  2  1  0  0  0  0
 15  3  1  0  0  0  0
 16  8  2  0  0  0  0
 17  6  1  0  0  0  0
 19 18  1  0  0  0  0
 19 10  2  0  0  0  0
 20 14  2  0  0  0  0
 20 16  1  0  0  0  0
 21 23  1  0  0  0  0
 22 26  1  0  0  0  0
 23 27  1  0  0  0  0
 24 25  1  0  0  0  0
 24 23  2  0  0  0  0
 25 22  2  0  0  0  0
 27 26  2  0  0  0  0
M  END
>  <MODEL>
1

>  <REMARK>
 VINA RESULT:     -10.7      0.000      0.000
  Name = 
  2 active torsions:
  status: ('A' for Active; 'I' for Inactive)
    1  A    between atoms: C_1  and  C_15
    2  A    between atoms: C_9  and  C_15
                            x       y       z     vdW  Elec       q    Type
                         _______ _______ _______ _____ _____    ______ ____

>  <TORSDO>
F 2

$$$$
=
 OpenBabel11052413503D

 27 31  0  0  1  0  0  0  0  0999 V2000
  188.2680  177.4640  143.7580 C   0  0  2  0  0  3  0  0  0  0  0  0
  188.6360  177.3700  142.2960 C   0  0  0  0  0  0  0  0  0  0  0  0
  186.6310  178.7440  141.6840 C   0  0  0  0  0  0  0  0  0  0  0  0
  189.7120  177.4030  138.3370 N   0  0  0  0  0  0  0  0  0  0  0  0
  188.4920  178.5530  136.4890 C   0  0  0  0  0  1  0  0  0  0  0  0
  189.8050  176.6630  141.9320 C   0  0  0  0  0  3  0  0  0  0  0  0
  187.8190  178.5580  138.8910 N   0  0  0  0  0  2  0  0  0  0  0  0
  184.2430  178.6970  144.5950 C   0  0  0  0  0  3  0  0  0  0  0  0
  186.0250  179.4770  140.8550 O   0  0  0  0  0  0  0  0  0  0  0  0
  184.9780  178.0290  145.5230 N   0  0  0  0  0  0  0  0  0  0  0  0
  188.3560  178.0020  139.9890 C   0  0  0  0  0  0  0  0  0  0  0  0
  188.6760  178.1700  137.9130 C   0  0  0  0  0  0  0  0  0  0  0  0
  189.4830  177.3130  139.6550 C   0  0  0  0  0  0  0  0  0  0  0  0
  186.8250  177.8460  144.0070 C   0  0  0  0  0  0  0  0  0  0  0  0
  187.8840  178.0560  141.3080 C   0  0  0  0  0  0  0  0  0  0  0  0
  184.7750  178.9570  143.3340 C   0  0  0  0  0  3  0  0  0  0  0  0
  190.2390  176.6220  140.5960 C   0  0  0  0  0  3  0  0  0  0  0  0
  186.9380  176.9530  146.2280 F   0  0  0  0  0  0  0  0  0  0  0  0
  186.2420  177.6010  145.2620 C   0  0  0  0  0  0  0  0  0  0  0  0
  186.0730  178.5290  143.0300 C   0  0  0  0  0  0  0  0  0  0  0  0
  189.2390  178.3770  144.5260 C   0  0  0  0  0  2  0  0  0  0  0  0
  191.5910  176.2190  147.4020 C   0  0  0  0  0  3  0  0  0  0  0  0
  190.0720  177.6410  145.5310 C   0  0  0  0  0  0  0  0  0  0  0  0
  189.7400  177.6940  146.8900 C   0  0  0  0  0  3  0  0  0  0  0  0
  190.5000  176.9840  147.8250 C   0  0  0  0  0  3  0  0  0  0  0  0
  191.9250  176.1670  146.0450 C   0  0  0  0  0  3  0  0  0  0  0  0
  191.1660  176.8770  145.1100 C   0  0  0  0  0  3  0  0  0  0  0  0
  1 14  1  0  0  0  0
  1 21  1  1  0  0  0
  2  1  1  0  0  0  0
  3 20  1  0  0  0  0
  4 13  1  0  0  0  0
  5 12  1  0  0  0  0
  6  2  1  0  0  0  0
  7 11  1  0  0  0  0
  8 10  1  0  0  0  0
  9  3  2  0  0  0  0
 11 15  1  0  0  0  0
 12  4  2  0  0  0  0
 12  7  1  0  0  0  0
 13 11  2  0  0  0  0
 13 17  1  0  0  0  0
 14 19  1  0  0  0  0
 15  3  1  0  0  0  0
 15  2  2  0  0  0  0
 16  8  2  0  0  0  0
 17  6  2  0  0  0  0
 19 10  2  0  0  0  0
 19 18  1  0  0  0  0
 20 16  1  0  0  0  0
 20 14  2  0  0  0  0
 21 23  1  0  0  0  0
 22 25  1  0  0  0  0
 23 24  1  0  0  0  0
 24 25  2  0  0  0  0
 26 22  2  0  0  0  0
 27 23  2  0  0  0  0
 27 26  1  0  0  0  0
M  END
>  <MODEL>
2

>  <REMARK>
 VINA RESULT:     -10.6      2.235      4.987
  Name = 
  2 active torsions:
  status: ('A' for Active; 'I' for Inactive)
    1  A    between atoms: C_1  and  C_15
    2  A    between atoms: C_9  and  C_15
                            x       y       z     vdW  Elec       q    Type
                         _______ _______ _______ _____ _____    ______ ____

>  <TORSDO>
F 2

$$$$
=
 OpenBabel11052413503D

 27 31  0  0  1  0  0  0  0  0999 V2000
  186.3680  178.4290  142.8580 C   0  0  2  0  0  3  0  0  0  0  0  0
  184.8970  178.7000  143.0680 C   0  0  0  0  0  0  0  0  0  0  0  0
  184.4450  178.2290  140.6480 C   0  0  0  0  0  0  0  0  0  0  0  0
  180.8540  179.1430  143.6080 N   0  0  0  0  0  0  0  0  0  0  0  0
  179.0960  178.8770  141.8570 C   0  0  0  0  0  1  0  0  0  0  0  0
  184.4450  179.0390  144.3640 C   0  0  0  0  0  3  0  0  0  0  0  0
  181.5490  178.5910  141.5010 N   0  0  0  0  0  2  0  0  0  0  0  0
  187.7070  178.4540  138.7800 C   0  0  0  0  0  3  0  0  0  0  0  0
  183.6330  177.9300  139.7300 O   0  0  0  0  0  0  0  0  0  0  0  0
  188.5810  178.6300  139.8050 N   0  0  0  0  0  0  0  0  0  0  0  0
  182.6070  178.6950  142.3220 C   0  0  0  0  0  0  0  0  0  0  0  0
  180.5070  178.8690  142.3250 C   0  0  0  0  0  0  0  0  0  0  0  0
  182.1890  179.0250  143.5770 C   0  0  0  0  0  0  0  0  0  0  0  0
  186.8080  178.5040  141.4120 C   0  0  0  0  0  0  0  0  0  0  0  0
  183.9640  178.5250  142.0140 C   0  0  0  0  0  0  0  0  0  0  0  0
  186.3460  178.3030  139.0380 C   0  0  0  0  0  3  0  0  0  0  0  0
  183.0770  179.2130  144.6300 C   0  0  0  0  0  3  0  0  0  0  0  0
  189.0850  178.8230  142.0870 F   0  0  0  0  0  0  0  0  0  0  0  0
  188.1690  178.6600  141.1010 C   0  0  0  0  0  0  0  0  0  0  0  0
  185.8860  178.3300  140.3600 C   0  0  0  0  0  0  0  0  0  0  0  0
  186.7980  177.1070  143.5150 C   0  0  0  0  0  2  0  0  0  0  0  0
  189.1460  177.6050  147.0780 C   0  0  0  0  0  3  0  0  0  0  0  0
  187.6190  177.3010  144.7530 C   0  0  0  0  0  0  0  0  0  0  0  0
  186.9960  177.6210  145.9650 C   0  0  0  0  0  3  0  0  0  0  0  0
  187.7590  177.7730  147.1270 C   0  0  0  0  0  3  0  0  0  0  0  0
  189.7710  177.2880  145.8680 C   0  0  0  0  0  3  0  0  0  0  0  0
  189.0080  177.1350  144.7060 C   0  0  0  0  0  3  0  0  0  0  0  0
  1  2  1  0  0  0  0
  1 21  1  6  0  0  0
  2  6  1  0  0  0  0
  3 15  1  0  0  0  0
  5 12  1  0  0  0  0
  6 17  2  0  0  0  0
  7 11  1  0  0  0  0
  7 12  1  0  0  0  0
  8 16  2  0  0  0  0
  8 10  1  0  0  0  0
  9  3  2  0  0  0  0
 10 19  2  0  0  0  0
 11 13  2  0  0  0  0
 12  4  2  0  0  0  0
 13  4  1  0  0  0  0
 13 17  1  0  0  0  0
 14  1  1  0  0  0  0
 15 11  1  0  0  0  0
 15  2  2  0  0  0  0
 16 20  1  0  0  0  0
 19 14  1  0  0  0  0
 19 18  1  0  0  0  0
 20  3  1  0  0  0  0
 20 14  2  0  0  0  0
 21 23  1  0  0  0  0
 22 25  1  0  0  0  0
 23 24  1  0  0  0  0
 24 25  2  0  0  0  0
 26 22  2  0  0  0  0
 27 23  2  0  0  0  0
 27 26  1  0  0  0  0
M  END
>  <MODEL>
3

>  <REMARK>
 VINA RESULT:      -9.7      3.801      7.227
  Name = 
  2 active torsions:
  status: ('A' for Active; 'I' for Inactive)
    1  A    between atoms: C_1  and  C_15
    2  A    between atoms: C_9  and  C_15
                            x       y       z     vdW  Elec       q    Type
                         _______ _______ _______ _____ _____    ______ ____

>  <TORSDO>
F 2

$$$$
=
 OpenBabel11052413503D

 27 31  0  0  1  0  0  0  0  0999 V2000
  187.9670  178.1980  142.5370 C   0  0  2  0  0  3  0  0  0  0  0  0
  187.2490  178.3230  141.2140 C   0  0  0  0  0  0  0  0  0  0  0  0
  189.2120  177.3060  140.0320 C   0  0  0  0  0  0  0  0  0  0  0  0
  185.2670  178.3650  137.6220 N   0  0  0  0  0  0  0  0  0  0  0  0
  186.1480  177.5240  135.4440 C   0  0  0  0  0  1  0  0  0  0  0  0
  185.9440  178.8660  141.1950 C   0  0  0  0  0  3  0  0  0  0  0  0
  187.3740  177.4770  137.6160 N   0  0  0  0  0  2  0  0  0  0  0  0
  192.2020  177.5390  142.3090 C   0  0  0  0  0  3  0  0  0  0  0  0
  189.6920  176.7240  139.0210 O   0  0  0  0  0  0  0  0  0  0  0  0
  191.6300  178.0320  143.4390 N   0  0  0  0  0  0  0  0  0  0  0  0
  187.0480  177.8790  138.8560 C   0  0  0  0  0  0  0  0  0  0  0  0
  186.2630  177.7890  136.9020 C   0  0  0  0  0  0  0  0  0  0  0  0
  185.7920  178.4090  138.8550 C   0  0  0  0  0  0  0  0  0  0  0  0
  189.4650  178.0250  142.4120 C   0  0  0  0  0  0  0  0  0  0  0  0
  187.8260  177.8180  140.0200 C   0  0  0  0  0  0  0  0  0  0  0  0
  191.4210  177.2780  141.1850 C   0  0  0  0  0  3  0  0  0  0  0  0
  185.2010  178.9200  140.0040 C   0  0  0  0  0  3  0  0  0  0  0  0
  189.7720  178.7560  144.6730 F   0  0  0  0  0  0  0  0  0  0  0  0
  190.2950  178.2790  143.5160 C   0  0  0  0  0  0  0  0  0  0  0  0
  190.0440  177.5220  141.2290 C   0  0  0  0  0  0  0  0  0  0  0  0
  187.3400  177.1050  143.4180 C   0  0  0  0  0  2  0  0  0  0  0  0
  185.5020  178.7060  146.9560 C   0  0  0  0  0  3  0  0  0  0  0  0
  186.6890  177.6450  144.6560 C   0  0  0  0  0  0  0  0  0  0  0  0
  187.3400  177.5450  145.8910 C   0  0  0  0  0  3  0  0  0  0  0  0
  186.7470  178.0760  147.0400 C   0  0  0  0  0  3  0  0  0  0  0  0
  184.8480  178.8040  145.7250 C   0  0  0  0  0  3  0  0  0  0  0  0
  185.4410  178.2740  144.5740 C   0  0  0  0  0  3  0  0  0  0  0  0
  1 21  1  6  0  0  0
  2  1  1  0  0  0  0
  3 20  1  0  0  0  0
  4 13  1  0  0  0  0
  5 12  1  0  0  0  0
  6  2  1  0  0  0  0
  7 11  1  0  0  0  0
  8 10  1  0  0  0  0
  9  3  2  0  0  0  0
 10 19  2  0  0  0  0
 11 15  1  0  0  0  0
 12  7  1  0  0  0  0
 12  4  2  0  0  0  0
 13 11  2  0  0  0  0
 13 17  1  0  0  0  0
 14  1  1  0  0  0  0
 14 19  1  0  0  0  0
 15  3  1  0  0  0  0
 15  2  2  0  0  0  0
 16 20  1  0  0  0  0
 16  8  2  0  0  0  0
 17  6  2  0  0  0  0
 19 18  1  0  0  0  0
 20 14  2  0  0  0  0
 21 23  1  0  0  0  0
 22 25  1  0  0  0  0
 23 24  1  0  0  0  0
 24 25  2  0  0  0  0
 26 22  2  0  0  0  0
 27 23  2  0  0  0  0
 27 26  1  0  0  0  0
M  END
>  <MODEL>
4

>  <REMARK>
 VINA RESULT:      -9.5      2.601      3.811
  Name = 
  2 active torsions:
  status: ('A' for Active; 'I' for Inactive)
    1  A    between atoms: C_1  and  C_15
    2  A    between atoms: C_9  and  C_15
                            x       y       z     vdW  Elec       q    Type
                         _______ _______ _______ _____ _____    ______ ____

>  <TORSDO>
F 2

$$$$
=
 OpenBabel11052413503D

 27 31  0  0  1  0  0  0  0  0999 V2000
  186.1410  177.8720  142.5160 C   0  0  2  0  0  3  0  0  0  0  0  0
  184.6640  178.0940  142.2900 C   0  0  0  0  0  0  0  0  0  0  0  0
  184.3850  178.7980  144.6790 C   0  0  0  0  0  0  0  0  0  0  0  0
  180.7050  178.9900  141.6940 N   0  0  0  0  0  0  0  0  0  0  0  0
  179.1290  179.9030  143.3990 C   0  0  0  0  0  1  0  0  0  0  0  0
  184.1300  177.8640  141.0010 C   0  0  0  0  0  3  0  0  0  0  0  0
  181.5360  179.3760  143.7880 N   0  0  0  0  0  2  0  0  0  0  0  0
  187.3810  177.5900  146.6160 C   0  0  0  0  0  3  0  0  0  0  0  0
  183.7150  179.3900  145.5680 O   0  0  0  0  0  0  0  0  0  0  0  0
  188.1510  177.0880  145.6150 N   0  0  0  0  0  0  0  0  0  0  0  0
  182.5030  178.8910  142.9920 C   0  0  0  0  0  0  0  0  0  0  0  0
  180.4640  179.4210  142.9570 C   0  0  0  0  0  0  0  0  0  0  0  0
  182.0040  178.6600  141.7450 C   0  0  0  0  0  0  0  0  0  0  0  0
  186.5260  177.7210  143.9720 C   0  0  0  0  0  0  0  0  0  0  0  0
  183.8380  178.6150  143.3180 C   0  0  0  0  0  0  0  0  0  0  0  0
  186.1480  178.1720  146.3260 C   0  0  0  0  0  3  0  0  0  0  0  0
  182.7830  178.1420  140.7170 C   0  0  0  0  0  3  0  0  0  0  0  0
  188.5710  176.6360  143.3530 F   0  0  0  0  0  0  0  0  0  0  0  0
  187.7570  177.1380  144.3140 C   0  0  0  0  0  0  0  0  0  0  0  0
  185.7100  178.2380  144.9980 C   0  0  0  0  0  0  0  0  0  0  0  0
  186.9870  178.9460  141.8120 C   0  0  0  0  0  2  0  0  0  0  0  0
  189.3150  177.3400  138.5780 C   0  0  0  0  0  3  0  0  0  0  0  0
  187.8050  178.4050  140.6790 C   0  0  0  0  0  0  0  0  0  0  0  0
  189.1380  178.0340  140.8910 C   0  0  0  0  0  3  0  0  0  0  0  0
  189.8920  177.5020  139.8400 C   0  0  0  0  0  3  0  0  0  0  0  0
  187.9840  177.7120  138.3630 C   0  0  0  0  0  3  0  0  0  0  0  0
  187.2290  178.2440  139.4130 C   0  0  0  0  0  3  0  0  0  0  0  0
  1 21  1  1  0  0  0
  1 14  1  0  0  0  0
  2  1  1  0  0  0  0
  2 15  1  0  0  0  0
  3 20  1  0  0  0  0
  3  9  2  0  0  0  0
  4 13  1  0  0  0  0
  4 12  2  0  0  0  0
  6  2  2  0  0  0  0
 10  8  2  0  0  0  0
 11 15  2  0  0  0  0
 11  7  1  0  0  0  0
 12  5  1  0  0  0  0
 12  7  1  0  0  0  0
 13 11  1  0  0  0  0
 14 19  2  0  0  0  0
 14 20  1  0  0  0  0
 15  3  1  0  0  0  0
 16  8  1  0  0  0  0
 17  6  1  0  0  0  0
 17 13  2  0  0  0  0
 18 19  1  0  0  0  0
 19 10  1  0  0  0  0
 20 16  2  0  0  0  0
 22 25  1  0  0  0  0
 23 24  1  0  0  0  0
 23 21  1  0  0  0  0
 25 24  2  0  0  0  0
 26 22  2  0  0  0  0
 26 27  1  0  0  0  0
 27 23  2  0  0  0  0
M  END
>  <MODEL>
5

>  <REMARK>
 VINA RESULT:      -9.3      3.798      7.072
  Name = 
  2 active torsions:
  status: ('A' for Active; 'I' for Inactive)
    1  A    between atoms: C_1  and  C_15
    2  A    between atoms: C_9  and  C_15
                            x       y       z     vdW  Elec       q    Type
                         _______ _______ _______ _____ _____    ______ ____

>  <TORSDO>
F 2

$$$$
=
 OpenBabel11052413503D

 27 31  0  0  1  0  0  0  0  0999 V2000
  187.9230  177.6620  144.1890 C   0  0  2  0  0  3  0  0  0  0  0  0
  186.5210  177.8750  143.6670 C   0  0  0  0  0  0  0  0  0  0  0  0
  185.7760  178.6490  145.9320 C   0  0  0  0  0  0  0  0  0  0  0  0
  182.7650  178.7500  142.2700 N   0  0  0  0  0  0  0  0  0  0  0  0
  180.8850  179.7100  143.6000 C   0  0  0  0  0  1  0  0  0  0  0  0
  186.2540  177.6080  142.3050 C   0  0  0  0  0  3  0  0  0  0  0  0
  183.1640  179.1970  144.4760 N   0  0  0  0  0  2  0  0  0  0  0  0
  188.3210  177.5010  148.4600 C   0  0  0  0  0  3  0  0  0  0  0  0
  184.9450  179.2660  146.6530 O   0  0  0  0  0  0  0  0  0  0  0  0
  189.2720  176.9710  147.6480 N   0  0  0  0  0  0  0  0  0  0  0  0
  184.2680  178.6900  143.9020 C   0  0  0  0  0  0  0  0  0  0  0  0
  182.2790  179.2180  143.4470 C   0  0  0  0  0  0  0  0  0  0  0  0
  184.0260  178.4230  142.5880 C   0  0  0  0  0  0  0  0  0  0  0  0
  188.0100  177.5540  145.6960 C   0  0  0  0  0  0  0  0  0  0  0  0
  185.5100  178.4260  144.4950 C   0  0  0  0  0  0  0  0  0  0  0  0
  187.1730  178.0730  147.9140 C   0  0  0  0  0  3  0  0  0  0  0  0
  184.9910  177.8760  141.7510 C   0  0  0  0  0  3  0  0  0  0  0  0
  190.1320  176.4530  145.5280 F   0  0  0  0  0  0  0  0  0  0  0  0
  189.1450  176.9820  146.2940 C   0  0  0  0  0  0  0  0  0  0  0  0
  187.0080  178.1000  146.5250 C   0  0  0  0  0  0  0  0  0  0  0  0
  188.8970  178.7150  143.6370 C   0  0  0  0  0  2  0  0  0  0  0  0
  191.5770  177.2170  140.6320 C   0  0  0  0  0  3  0  0  0  0  0  0
  189.8280  178.1730  142.5960 C   0  0  0  0  0  0  0  0  0  0  0  0
  189.3500  177.8840  141.3120 C   0  0  0  0  0  3  0  0  0  0  0  0
  190.2250  177.4060  140.3310 C   0  0  0  0  0  3  0  0  0  0  0  0
  192.0550  177.5030  141.9140 C   0  0  0  0  0  3  0  0  0  0  0  0
  191.1810  177.9810  142.8960 C   0  0  0  0  0  3  0  0  0  0  0  0
  1 21  1  1  0  0  0
  1 14  1  0  0  0  0
  2  1  1  0  0  0  0
  2 15  1  0  0  0  0
  3 20  1  0  0  0  0
  3  9  2  0  0  0  0
  4 13  1  0  0  0  0
  4 12  2  0  0  0  0
  6  2  2  0  0  0  0
 10  8  2  0  0  0  0
 11  7  1  0  0  0  0
 11 15  2  0  0  0  0
 12  5  1  0  0  0  0
 12  7  1  0  0  0  0
 13 11  1  0  0  0  0
 14 19  2  0  0  0  0
 14 20  1  0  0  0  0
 15  3  1  0  0  0  0
 16  8  1  0  0  0  0
 17  6  1  0  0  0  0
 17 13  2  0  0  0  0
 18 19  1  0  0  0  0
 19 10  1  0  0  0  0
 20 16  2  0  0  0  0
 22 26  1  0  0  0  0
 23 27  1  0  0  0  0
 23 21  1  0  0  0  0
 24 23  2  0  0  0  0
 25 22  2  0  0  0  0
 25 24  1  0  0  0  0
 26 27  2  0  0  0  0
M  END
>  <MODEL>
6

>  <REMARK>
 VINA RESULT:      -9.2      3.111      6.205
  Name = 
  2 active torsions:
  status: ('A' for Active; 'I' for Inactive)
    1  A    between atoms: C_1  and  C_15
    2  A    between atoms: C_9  and  C_15
                            x       y       z     vdW  Elec       q    Type
                         _______ _______ _______ _____ _____    ______ ____

>  <TORSDO>
F 2

$$$$
=
 OpenBabel11052413503D

 27 31  0  0  1  0  0  0  0  0999 V2000
  188.0330  177.5760  141.8680 C   0  0  2  0  0  3  0  0  0  0  0  0
  188.4250  177.2870  143.2980 C   0  0  0  0  0  0  0  0  0  0  0  0
  190.8500  177.4080  142.6770 C   0  0  0  0  0  0  0  0  0  0  0  0
  189.5780  176.7870  147.2030 N   0  0  0  0  0  0  0  0  0  0  0  0
  191.9230  176.7530  148.0540 C   0  0  0  0  0  1  0  0  0  0  0  0
  187.4050  177.1130  144.2620 C   0  0  0  0  0  3  0  0  0  0  0  0
  191.2510  177.0690  145.6720 N   0  0  0  0  0  2  0  0  0  0  0  0
  191.1240  177.0390  138.9390 C   0  0  0  0  0  3  0  0  0  0  0  0
  192.0550  177.5520  143.0190 O   0  0  0  0  0  0  0  0  0  0  0  0
  189.8130  177.0340  138.5830 N   0  0  0  0  0  0  0  0  0  0  0  0
  190.0560  177.1140  145.0600 C   0  0  0  0  0  0  0  0  0  0  0  0
  190.9120  176.8710  146.9710 C   0  0  0  0  0  0  0  0  0  0  0  0
  189.0610  176.9440  145.9760 C   0  0  0  0  0  0  0  0  0  0  0  0
  189.1340  177.3190  140.8630 C   0  0  0  0  0  0  0  0  0  0  0  0
  189.7860  177.2850  143.6960 C   0  0  0  0  0  0  0  0  0  0  0  0
  191.4850  177.1780  140.2780 C   0  0  0  0  0  3  0  0  0  0  0  0
  187.7170  176.9320  145.6200 C   0  0  0  0  0  3  0  0  0  0  0  0
  187.5280  177.1720  139.0910 F   0  0  0  0  0  0  0  0  0  0  0  0
  188.8200  177.1680  139.5020 C   0  0  0  0  0  0  0  0  0  0  0  0
  190.4890  177.3170  141.2520 C   0  0  0  0  0  0  0  0  0  0  0  0
  187.4450  178.9890  141.7190 C   0  0  0  0  0  2  0  0  0  0  0  0
  183.1540  178.9670  141.5120 C   0  0  0  0  0  3  0  0  0  0  0  0
  185.9480  179.0030  141.6470 C   0  0  0  0  0  0  0  0  0  0  0  0
  185.3060  179.0030  140.4030 C   0  0  0  0  0  3  0  0  0  0  0  0
  183.9100  178.9850  140.3360 C   0  0  0  0  0  3  0  0  0  0  0  0
  183.7930  178.9690  142.7550 C   0  0  0  0  0  3  0  0  0  0  0  0
  185.1900  178.9860  142.8230 C   0  0  0  0  0  3  0  0  0  0  0  0
  1 21  1  1  0  0  0
  1  2  1  0  0  0  0
  2 15  2  0  0  0  0
  2  6  1  0  0  0  0
  3  9  2  0  0  0  0
  3 15  1  0  0  0  0
  6 17  2  0  0  0  0
  7 12  1  0  0  0  0
  8 16  1  0  0  0  0
 10  8  2  0  0  0  0
 10 19  1  0  0  0  0
 11  7  1  0  0  0  0
 11 13  2  0  0  0  0
 12  4  2  0  0  0  0
 12  5  1  0  0  0  0
 13  4  1  0  0  0  0
 14 20  1  0  0  0  0
 14  1  1  0  0  0  0
 15 11  1  0  0  0  0
 16 20  2  0  0  0  0
 17 13  1  0  0  0  0
 18 19  1  0  0  0  0
 19 14  2  0  0  0  0
 20  3  1  0  0  0  0
 22 26  1  0  0  0  0
 23 21  1  0  0  0  0
 23 27  1  0  0  0  0
 24 23  2  0  0  0  0
 25 24  1  0  0  0  0
 25 22  2  0  0  0  0
 26 27  2  0  0  0  0
M  END
>  <MODEL>
7

>  <REMARK>
 VINA RESULT:      -8.9      2.128      5.328
  Name = 
  2 active torsions:
  status: ('A' for Active; 'I' for Inactive)
    1  A    between atoms: C_1  and  C_15
    2  A    between atoms: C_9  and  C_15
                            x       y       z     vdW  Elec       q    Type
                         _______ _______ _______ _____ _____    ______ ____

>  <TORSDO>
F 2

$$$$
=
 OpenBabel11052413503D

 27 31  0  0  1  0  0  0  0  0999 V2000
  188.4990  178.0720  143.0480 C   0  0  2  0  0  3  0  0  0  0  0  0
  187.2400  178.4650  142.3100 C   0  0  0  0  0  0  0  0  0  0  0  0
  188.2420  177.6860  140.1490 C   0  0  0  0  0  0  0  0  0  0  0  0
  183.7640  179.2400  140.2750 N   0  0  0  0  0  0  0  0  0  0  0  0
  183.3600  178.8430  137.8450 C   0  0  0  0  0  1  0  0  0  0  0  0
  186.1640  179.0120  143.0440 C   0  0  0  0  0  3  0  0  0  0  0  0
  185.4840  178.3520  139.0590 N   0  0  0  0  0  2  0  0  0  0  0  0
  191.9720  177.4330  140.6080 C   0  0  0  0  0  3  0  0  0  0  0  0
  188.0960  177.3130  138.9530 O   0  0  0  0  0  0  0  0  0  0  0  0
  192.0880  177.6950  141.9360 N   0  0  0  0  0  0  0  0  0  0  0  0
  185.8560  178.5020  140.3410 C   0  0  0  0  0  0  0  0  0  0  0  0
  184.2060  178.8110  139.0670 C   0  0  0  0  0  0  0  0  0  0  0  0
  184.8290  179.0330  141.0620 C   0  0  0  0  0  0  0  0  0  0  0  0
  189.7120  177.9130  142.1570 C   0  0  0  0  0  0  0  0  0  0  0  0
  187.0950  178.2030  140.9240 C   0  0  0  0  0  0  0  0  0  0  0  0
  190.7150  177.4080  140.0060 C   0  0  0  0  0  3  0  0  0  0  0  0
  184.9410  179.3100  142.4200 C   0  0  0  0  0  3  0  0  0  0  0  0
  191.1710  178.1760  144.0400 F   0  0  0  0  0  0  0  0  0  0  0  0
  191.0000  177.9340  142.7170 C   0  0  0  0  0  0  0  0  0  0  0  0
  189.5740  177.6520  140.7790 C   0  0  0  0  0  0  0  0  0  0  0  0
  188.2730  176.8310  143.9280 C   0  0  0  0  0  2  0  0  0  0  0  0
  188.2870  177.7680  148.1200 C   0  0  0  0  0  3  0  0  0  0  0  0
  188.2720  177.1380  145.3940 C   0  0  0  0  0  0  0  0  0  0  0  0
  189.4320  176.9420  146.1530 C   0  0  0  0  0  3  0  0  0  0  0  0
  189.4390  177.2570  147.5150 C   0  0  0  0  0  3  0  0  0  0  0  0
  187.1270  177.9630  147.3650 C   0  0  0  0  0  3  0  0  0  0  0  0
  187.1190  177.6480  146.0030 C   0  0  0  0  0  3  0  0  0  0  0  0
  1 21  1  6  0  0  0
  2  6  1  0  0  0  0
  2  1  1  0  0  0  0
  3 20  1  0  0  0  0
  3 15  1  0  0  0  0
  4 13  1  0  0  0  0
  5 12  1  0  0  0  0
  7 12  1  0  0  0  0
  7 11  1  0  0  0  0
  8 10  1  0  0  0  0
  9  3  2  0  0  0  0
 10 19  2  0  0  0  0
 11 15  1  0  0  0  0
 11 13  2  0  0  0  0
 12  4  2  0  0  0  0
 13 17  1  0  0  0  0
 14 19  1  0  0  0  0
 14  1  1  0  0  0  0
 15  2  2  0  0  0  0
 16  8  2  0  0  0  0
 16 20  1  0  0  0  0
 17  6  2  0  0  0  0
 19 18  1  0  0  0  0
 20 14  2  0  0  0  0
 21 23  1  0  0  0  0
 23 27  2  0  0  0  0
 23 24  1  0  0  0  0
 24 25  2  0  0  0  0
 25 22  1  0  0  0  0
 26 22  2  0  0  0  0
 27 26  1  0  0  0  0
M  END
>  <MODEL>
8

>  <REMARK>
 VINA RESULT:      -8.8      2.849      5.005
  Name = 
  2 active torsions:
  status: ('A' for Active; 'I' for Inactive)
    1  A    between atoms: C_1  and  C_15
    2  A    between atoms: C_9  and  C_15
                            x       y       z     vdW  Elec       q    Type
                         _______ _______ _______ _____ _____    ______ ____

>  <TORSDO>
F 2

$$$$
=
 OpenBabel11052413503D

 27 31  0  0  1  0  0  0  0  0999 V2000
  187.8420  177.6340  141.7380 C   0  0  2  0  0  3  0  0  0  0  0  0
  187.7510  177.5740  143.2450 C   0  0  0  0  0  0  0  0  0  0  0  0
  190.2240  177.9450  143.4270 C   0  0  0  0  0  0  0  0  0  0  0  0
  187.5560  177.7030  147.3400 N   0  0  0  0  0  0  0  0  0  0  0  0
  189.4690  178.0870  148.8950 C   0  0  0  0  0  1  0  0  0  0  0  0
  186.4850  177.3810  143.8430 C   0  0  0  0  0  3  0  0  0  0  0  0
  189.6170  178.0230  146.4050 N   0  0  0  0  0  2  0  0  0  0  0  0
  191.7760  177.1720  140.0840 C   0  0  0  0  0  3  0  0  0  0  0  0
  191.2250  178.2890  144.1120 O   0  0  0  0  0  0  0  0  0  0  0  0
  190.6680  176.9480  139.3290 N   0  0  0  0  0  0  0  0  0  0  0  0
  188.7000  177.8330  145.4420 C   0  0  0  0  0  0  0  0  0  0  0  0
  188.8770  177.9380  147.5400 C   0  0  0  0  0  0  0  0  0  0  0  0
  187.4730  177.6420  146.0040 C   0  0  0  0  0  0  0  0  0  0  0  0
  189.2370  177.4090  141.1950 C   0  0  0  0  0  0  0  0  0  0  0  0
  188.8930  177.8020  144.0550 C   0  0  0  0  0  0  0  0  0  0  0  0
  191.6500  177.5180  141.4280 C   0  0  0  0  0  3  0  0  0  0  0  0
  186.3350  177.4060  145.2400 C   0  0  0  0  0  3  0  0  0  0  0  0
  188.3430  176.8370  139.0460 F   0  0  0  0  0  0  0  0  0  0  0  0
  189.4150  177.0560  139.8470 C   0  0  0  0  0  0  0  0  0  0  0  0
  190.3750  177.6360  141.9940 C   0  0  0  0  0  0  0  0  0  0  0  0
  187.2190  178.9270  141.1870 C   0  0  0  0  0  2  0  0  0  0  0  0
  183.2870  178.4110  139.5340 C   0  0  0  0  0  3  0  0  0  0  0  0
  185.8490  178.7260  140.6130 C   0  0  0  0  0  0  0  0  0  0  0  0
  184.7250  178.7820  141.4460 C   0  0  0  0  0  3  0  0  0  0  0  0
  183.4450  178.6240  140.9060 C   0  0  0  0  0  3  0  0  0  0  0  0
  184.4080  178.3530  138.7010 C   0  0  0  0  0  3  0  0  0  0  0  0
  185.6890  178.5110  139.2400 C   0  0  0  0  0  3  0  0  0  0  0  0
  1 21  1  1  0  0  0
  1  2  1  0  0  0  0
  2  6  2  0  0  0  0
  2 15  1  0  0  0  0
  3 15  1  0  0  0  0
  3  9  2  0  0  0  0
  4 12  2  0  0  0  0
  6 17  1  0  0  0  0
  7 12  1  0  0  0  0
  8 16  1  0  0  0  0
 10 19  1  0  0  0  0
 10  8  2  0  0  0  0
 11 13  1  0  0  0  0
 11  7  1  0  0  0  0
 12  5  1  0  0  0  0
 13  4  1  0  0  0  0
 14  1  1  0  0  0  0
 14 20  1  0  0  0  0
 15 11  2  0  0  0  0
 16 20  2  0  0  0  0
 17 13  2  0  0  0  0
 18 19  1  0  0  0  0
 19 14  2  0  0  0  0
 20  3  1  0  0  0  0
 22 25  1  0  0  0  0
 23 21  1  0  0  0  0
 23 24  1  0  0  0  0
 25 24  2  0  0  0  0
 26 27  1  0  0  0  0
 26 22  2  0  0  0  0
 27 23  2  0  0  0  0
M  END
>  <MODEL>
9

>  <REMARK>
 VINA RESULT:      -8.8      2.543      5.740
  Name = 
  2 active torsions:
  status: ('A' for Active; 'I' for Inactive)
    1  A    between atoms: C_1  and  C_15
    2  A    between atoms: C_9  and  C_15
                            x       y       z     vdW  Elec       q    Type
                         _______ _______ _______ _____ _____    ______ ____

>  <TORSDO>
F 2

$$$$
