=
 OpenBabel11052413213D

 28 30  0  0  1  0  0  0  0  0999 V2000
  187.7630  177.8400  145.3780 C   0  0  2  0  0  3  0  0  0  0  0  0
  183.2680  179.5500  144.0800 C   0  0  0  0  0  1  0  0  0  0  0  0
  185.9410  177.8890  141.9810 C   0  0  0  0  0  2  0  0  0  0  0  0
  185.5070  178.6610  144.7180 C   0  0  1  0  0  3  0  0  0  0  0  0
  187.1140  178.0880  142.9320 C   0  0  0  0  0  2  0  0  0  0  0  0
  186.3370  178.4560  147.0390 C   0  0  0  0  0  2  0  0  0  0  0  0
  184.3450  178.5300  143.7220 C   0  0  2  0  0  3  0  0  0  0  0  0
  185.0880  178.3860  146.1610 C   0  0  0  0  0  2  0  0  0  0  0  0
  184.8160  178.7620  142.3370 N   0  0  0  0  0  0  0  0  0  0  0  0
  187.2600  177.4700  146.6440 O   0  0  0  0  0  0  0  0  0  0  0  0
  186.6460  177.7220  144.3300 C   0  0  1  0  0  3  0  0  0  0  0  0
  188.9320  176.9280  145.0200 C   0  0  0  0  0  2  0  0  0  0  0  0
  190.2410  177.6480  145.1560 C   0  0  0  0  0  0  0  0  0  0  0  0
  190.5480  178.6280  144.3000 C   0  0  0  0  0  3  0  0  0  0  0  0
  191.7120  179.3220  144.4060 F   0  0  0  0  0  0  0  0  0  0  0  0
  190.4500  177.1920  147.4750 O   0  0  0  0  0  1  0  0  0  0  0  0
  191.1710  177.3110  146.2860 C   0  0  1  0  0  3  0  0  0  0  0  0
  192.4750  175.5290  147.2000 O   0  0  0  0  0  1  0  0  0  0  0  0
  191.9250  176.0180  146.0150 C   0  0  0  0  0  2  0  0  0  0  0  0
  183.7460  178.5460  141.3480 C   0  0  0  0  0  2  0  0  0  0  0  0
  183.9230  179.3180  140.0300 C   0  0  0  0  0  2  0  0  0  0  0  0
  182.9370  177.7530  138.3060 C   0  0  0  0  0  3  0  0  0  0  0  0
  186.3680  178.6370  138.5590 O   0  0  0  0  0  0  0  0  0  0  0  0
  185.1800  177.2740  137.1600 N   0  0  0  0  0  0  0  0  0  0  0  0
  184.0470  178.4080  138.8510 C   0  0  0  0  0  0  0  0  0  0  0  0
  185.2710  178.1310  138.2010 C   0  0  0  0  0  0  0  0  0  0  0  0
  186.2570  176.8000  136.3080 C   0  0  0  0  0  1  0  0  0  0  0  0
  183.5830  176.8610  137.0400 S   0  0  0  0  0  0  0  0  0  0  0  0
  1 12  1  6  0  0  0
  1 10  1  0  0  0  0
  3  9  1  0  0  0  0
  3  5  1  0  0  0  0
  4  8  1  1  0  0  0
  7  2  1  1  0  0  0
  7  4  1  0  0  0  0
  8  6  1  0  0  0  0
  9  7  1  0  0  0  0
 10  6  1  0  0  0  0
 11  5  1  6  0  0  0
 11  4  1  0  0  0  0
 11  1  1  0  0  0  0
 12 13  1  0  0  0  0
 13 17  1  0  0  0  0
 14 15  1  0  0  0  0
 14 13  2  0  0  0  0
 17 16  1  1  0  0  0
 19 17  1  0  0  0  0
 19 18  1  0  0  0  0
 20  9  1  0  0  0  0
 21 20  1  0  0  0  0
 22 25  2  0  0  0  0
 24 26  1  0  0  0  0
 25 21  1  0  0  0  0
 26 23  2  0  0  0  0
 26 25  1  0  0  0  0
 27 24  1  0  0  0  0
 28 24  1  0  0  0  0
 28 22  1  0  0  0  0
M  END
>  <MODEL>
1

>  <REMARK>
 VINA RESULT:      -7.9      0.000      0.000
  Name = 
  7 active torsions:
  status: ('A' for Active; 'I' for Inactive)
    1  A    between atoms: C_1  and  C_2
    2  A    between atoms: C_2  and  C_3
    3  A    between atoms: C_3  and  C_11
    4  A    between atoms: C_11  and  C_22
    5  A    between atoms: C_13  and  C_18
    6  A    between atoms: C_14  and  C_18
    7  A    between atoms: C_14  and  N_25
                            x       y       z     vdW  Elec       q    Type
                         _______ _______ _______ _____ _____    ______ ____

>  <TORSDO>
F 7

$$$$
=
 OpenBabel11052413213D

 28 30  0  0  1  0  0  0  0  0999 V2000
  188.3210  177.6930  145.4850 C   0  0  2  0  0  3  0  0  0  0  0  0
  183.7300  179.2820  144.3790 C   0  0  0  0  0  1  0  0  0  0  0  0
  186.3770  177.7450  142.1560 C   0  0  0  0  0  2  0  0  0  0  0  0
  186.0180  178.4540  144.9210 C   0  0  1  0  0  3  0  0  0  0  0  0
  187.5760  177.9650  143.0690 C   0  0  0  0  0  2  0  0  0  0  0  0
  186.9360  178.2340  147.2070 C   0  0  0  0  0  2  0  0  0  0  0  0
  184.8250  178.3030  143.9650 C   0  0  2  0  0  3  0  0  0  0  0  0
  185.6590  178.1400  146.3720 C   0  0  0  0  0  2  0  0  0  0  0  0
  185.2380  178.5750  142.5690 N   0  0  0  0  0  0  0  0  0  0  0  0
  187.8750  177.2850  146.7610 O   0  0  0  0  0  0  0  0  0  0  0  0
  187.1710  177.5580  144.4750 C   0  0  1  0  0  3  0  0  0  0  0  0
  189.5040  176.8260  145.0690 C   0  0  0  0  0  2  0  0  0  0  0  0
  190.5690  177.6470  144.4030 C   0  0  0  0  0  0  0  0  0  0  0  0
  190.6500  178.9560  144.6590 C   0  0  0  0  0  3  0  0  0  0  0  0
  191.6170  179.7300  144.0970 F   0  0  0  0  0  0  0  0  0  0  0  0
  191.7020  175.6390  143.8440 O   0  0  0  0  0  1  0  0  0  0  0  0
  191.5760  176.9870  143.5070 C   0  0  1  0  0  3  0  0  0  0  0  0
  190.3240  176.0690  141.6900 O   0  0  0  0  0  1  0  0  0  0  0  0
  191.1800  177.1120  142.0430 C   0  0  0  0  0  2  0  0  0  0  0  0
  184.1400  178.3420  141.6140 C   0  0  0  0  0  2  0  0  0  0  0  0
  184.1770  179.2360  140.3630 C   0  0  0  0  0  2  0  0  0  0  0  0
  183.1200  177.8540  138.5270 C   0  0  0  0  0  3  0  0  0  0  0  0
  186.5700  178.6650  138.7650 O   0  0  0  0  0  0  0  0  0  0  0  0
  185.3230  177.4580  137.2770 N   0  0  0  0  0  0  0  0  0  0  0  0
  184.2540  178.4400  139.1000 C   0  0  0  0  0  0  0  0  0  0  0  0
  185.4560  178.2100  138.3920 C   0  0  0  0  0  0  0  0  0  0  0  0
  186.3690  177.0520  136.3540 C   0  0  0  0  0  1  0  0  0  0  0  0
  183.7170  177.0780  137.1640 S   0  0  0  0  0  0  0  0  0  0  0  0
  1 12  1  6  0  0  0
  1 10  1  0  0  0  0
  3  9  1  0  0  0  0
  3  5  1  0  0  0  0
  4  8  1  1  0  0  0
  7  2  1  1  0  0  0
  7  4  1  0  0  0  0
  8  6  1  0  0  0  0
  9  7  1  0  0  0  0
 10  6  1  0  0  0  0
 11  5  1  6  0  0  0
 11  4  1  0  0  0  0
 11  1  1  0  0  0  0
 13 14  2  0  0  0  0
 13 12  1  0  0  0  0
 15 14  1  0  0  0  0
 17 16  1  1  0  0  0
 17 13  1  0  0  0  0
 18 19  1  0  0  0  0
 19 17  1  0  0  0  0
 20  9  1  0  0  0  0
 21 20  1  0  0  0  0
 22 25  2  0  0  0  0
 24 26  1  0  0  0  0
 25 21  1  0  0  0  0
 26 23  2  0  0  0  0
 26 25  1  0  0  0  0
 27 24  1  0  0  0  0
 28 24  1  0  0  0  0
 28 22  1  0  0  0  0
M  END
>  <MODEL>
2

>  <REMARK>
 VINA RESULT:      -7.8      1.493      1.735
  Name = 
  7 active torsions:
  status: ('A' for Active; 'I' for Inactive)
    1  A    between atoms: C_1  and  C_2
    2  A    between atoms: C_2  and  C_3
    3  A    between atoms: C_3  and  C_11
    4  A    between atoms: C_11  and  C_22
    5  A    between atoms: C_13  and  C_18
    6  A    between atoms: C_14  and  C_18
    7  A    between atoms: C_14  and  N_25
                            x       y       z     vdW  Elec       q    Type
                         _______ _______ _______ _____ _____    ______ ____

>  <TORSDO>
F 7

$$$$
=
 OpenBabel11052413213D

 28 30  0  0  1  0  0  0  0  0999 V2000
  189.0650  177.1520  143.6990 C   0  0  2  0  0  3  0  0  0  0  0  0
  185.6770  179.0040  146.8480 C   0  0  0  0  0  1  0  0  0  0  0  0
  185.3080  177.8920  143.2500 C   0  0  0  0  0  2  0  0  0  0  0  0
  187.3520  178.0470  145.2690 C   0  0  1  0  0  3  0  0  0  0  0  0
  186.7830  177.9070  142.8700 C   0  0  0  0  0  2  0  0  0  0  0  0
  189.6470  177.3650  145.8870 C   0  0  0  0  0  2  0  0  0  0  0  0
  185.8590  178.1080  145.6250 C   0  0  2  0  0  3  0  0  0  0  0  0
  188.2070  177.4590  146.3900 C   0  0  0  0  0  2  0  0  0  0  0  0
  185.0730  178.6430  144.4900 N   0  0  0  0  0  0  0  0  0  0  0  0
  189.7150  176.5080  144.7740 O   0  0  0  0  0  0  0  0  0  0  0  0
  187.5590  177.2380  143.9910 C   0  0  1  0  0  3  0  0  0  0  0  0
  189.3180  176.3650  142.4180 C   0  0  0  0  0  2  0  0  0  0  0  0
  190.3580  177.0340  141.5680 C   0  0  0  0  0  0  0  0  0  0  0  0
  191.4990  177.4490  142.1250 C   0  0  0  0  0  3  0  0  0  0  0  0
  192.4780  178.0350  141.3840 F   0  0  0  0  0  0  0  0  0  0  0  0
  190.5260  176.0030  139.4370 O   0  0  0  0  0  1  0  0  0  0  0  0
  190.1420  177.1750  140.0890 C   0  0  1  0  0  3  0  0  0  0  0  0
  188.5310  178.8450  139.5150 O   0  0  0  0  0  1  0  0  0  0  0  0
  188.6860  177.4820  139.7700 C   0  0  0  0  0  2  0  0  0  0  0  0
  183.6260  178.6220  144.7640 C   0  0  0  0  0  2  0  0  0  0  0  0
  182.8060  179.6480  143.9640 C   0  0  0  0  0  2  0  0  0  0  0  0
  180.5000  178.6490  143.6780 C   0  0  0  0  0  3  0  0  0  0  0  0
  182.9440  178.9500  141.1190 O   0  0  0  0  0  0  0  0  0  0  0  0
  180.8210  178.1060  141.1930 N   0  0  0  0  0  0  0  0  0  0  0  0
  181.7410  179.0040  143.1370 C   0  0  0  0  0  0  0  0  0  0  0  0
  181.8930  178.6970  141.7660 C   0  0  0  0  0  0  0  0  0  0  0  0
  180.6810  177.6730  139.8130 C   0  0  0  0  0  1  0  0  0  0  0  0
  179.6810  177.9640  142.3830 S   0  0  0  0  0  0  0  0  0  0  0  0
  1 12  1  6  0  0  0
  1 11  1  0  0  0  0
  1 10  1  0  0  0  0
  3  9  1  0  0  0  0
  4  7  1  0  0  0  0
  4  8  1  1  0  0  0
  5  3  1  0  0  0  0
  6  8  1  0  0  0  0
  7  2  1  1  0  0  0
  9 20  1  0  0  0  0
  9  7  1  0  0  0  0
 10  6  1  0  0  0  0
 11  5  1  6  0  0  0
 11  4  1  0  0  0  0
 13 14  2  0  0  0  0
 13 12  1  0  0  0  0
 15 14  1  0  0  0  0
 17 16  1  6  0  0  0
 17 13  1  0  0  0  0
 18 19  1  0  0  0  0
 19 17  1  0  0  0  0
 21 20  1  0  0  0  0
 23 26  2  0  0  0  0
 24 26  1  0  0  0  0
 24 28  1  0  0  0  0
 25 22  2  0  0  0  0
 25 21  1  0  0  0  0
 26 25  1  0  0  0  0
 27 24  1  0  0  0  0
 28 22  1  0  0  0  0
M  END
>  <MODEL>
3

>  <REMARK>
 VINA RESULT:      -7.7      2.834      4.665
  Name = 
  7 active torsions:
  status: ('A' for Active; 'I' for Inactive)
    1  A    between atoms: C_1  and  C_2
    2  A    between atoms: C_2  and  C_3
    3  A    between atoms: C_3  and  C_11
    4  A    between atoms: C_11  and  C_22
    5  A    between atoms: C_13  and  C_18
    6  A    between atoms: C_14  and  C_18
    7  A    between atoms: C_14  and  N_25
                            x       y       z     vdW  Elec       q    Type
                         _______ _______ _______ _____ _____    ______ ____

>  <TORSDO>
F 7

$$$$
=
 OpenBabel11052413213D

 28 30  0  0  1  0  0  0  0  0999 V2000
  187.3350  177.8840  145.2870 C   0  0  2  0  0  3  0  0  0  0  0  0
  182.7820  179.6270  144.2620 C   0  0  0  0  0  1  0  0  0  0  0  0
  185.3170  177.9590  142.0030 C   0  0  0  0  0  2  0  0  0  0  0  0
  185.0490  178.7220  144.7640 C   0  0  1  0  0  3  0  0  0  0  0  0
  186.5440  178.1470  142.8840 C   0  0  0  0  0  2  0  0  0  0  0  0
  186.0120  178.5010  147.0310 C   0  0  0  0  0  2  0  0  0  0  0  0
  183.8300  178.6020  143.8370 C   0  0  2  0  0  3  0  0  0  0  0  0
  184.7130  178.4430  146.2280 C   0  0  0  0  0  2  0  0  0  0  0  0
  184.2200  178.8380  142.4280 N   0  0  0  0  0  0  0  0  0  0  0  0
  186.9040  177.5110  146.5790 O   0  0  0  0  0  0  0  0  0  0  0  0
  186.1580  177.7770  144.3060 C   0  0  1  0  0  3  0  0  0  0  0  0
  188.4750  176.9670  144.8570 C   0  0  0  0  0  2  0  0  0  0  0  0
  189.8070  177.6200  145.0770 C   0  0  0  0  0  0  0  0  0  0  0  0
  190.2360  178.5510  144.2210 C   0  0  0  0  0  3  0  0  0  0  0  0
  191.4250  179.1860  144.4000 F   0  0  0  0  0  0  0  0  0  0  0  0
  189.8200  176.6360  147.2370 O   0  0  0  0  0  1  0  0  0  0  0  0
  190.6230  177.2740  146.2900 C   0  0  1  0  0  3  0  0  0  0  0  0
  192.4970  176.0200  147.0810 O   0  0  0  0  0  1  0  0  0  0  0  0
  191.7970  176.3760  145.9290 C   0  0  0  0  0  2  0  0  0  0  0  0
  183.0920  178.6320  141.5030 C   0  0  0  0  0  2  0  0  0  0  0  0
  183.3840  177.6710  140.3380 C   0  0  0  0  0  2  0  0  0  0  0  0
  180.8760  177.3560  140.2540 C   0  0  0  0  0  3  0  0  0  0  0  0
  183.2660  175.2840  138.6370 O   0  0  0  0  0  0  0  0  0  0  0  0
  180.9840  175.2680  138.7690 N   0  0  0  0  0  0  0  0  0  0  0  0
  182.1610  176.9420  139.8840 C   0  0  0  0  0  0  0  0  0  0  0  0
  182.1940  175.7920  139.0640 C   0  0  0  0  0  0  0  0  0  0  0  0
  180.7000  174.0960  137.9580 C   0  0  0  0  0  1  0  0  0  0  0  0
  179.8690  176.2310  139.5200 S   0  0  0  0  0  0  0  0  0  0  0  0
  1 12  1  6  0  0  0
  1 10  1  0  0  0  0
  3  9  1  0  0  0  0
  3  5  1  0  0  0  0
  4  8  1  1  0  0  0
  7  2  1  1  0  0  0
  7  4  1  0  0  0  0
  8  6  1  0  0  0  0
  9  7  1  0  0  0  0
 10  6  1  0  0  0  0
 11  5  1  6  0  0  0
 11  4  1  0  0  0  0
 11  1  1  0  0  0  0
 12 13  1  0  0  0  0
 13 17  1  0  0  0  0
 14 15  1  0  0  0  0
 14 13  2  0  0  0  0
 17 16  1  1  0  0  0
 19 17  1  0  0  0  0
 19 18  1  0  0  0  0
 20  9  1  0  0  0  0
 21 20  1  0  0  0  0
 23 26  2  0  0  0  0
 24 26  1  0  0  0  0
 24 28  1  0  0  0  0
 25 22  2  0  0  0  0
 25 21  1  0  0  0  0
 26 25  1  0  0  0  0
 27 24  1  0  0  0  0
 28 22  1  0  0  0  0
M  END
>  <MODEL>
4

>  <REMARK>
 VINA RESULT:      -7.7      2.020      2.279
  Name = 
  7 active torsions:
  status: ('A' for Active; 'I' for Inactive)
    1  A    between atoms: C_1  and  C_2
    2  A    between atoms: C_2  and  C_3
    3  A    between atoms: C_3  and  C_11
    4  A    between atoms: C_11  and  C_22
    5  A    between atoms: C_13  and  C_18
    6  A    between atoms: C_14  and  C_18
    7  A    between atoms: C_14  and  N_25
                            x       y       z     vdW  Elec       q    Type
                         _______ _______ _______ _____ _____    ______ ____

>  <TORSDO>
F 7

$$$$
=
 OpenBabel11052413213D

 28 30  0  0  1  0  0  0  0  0999 V2000
  183.8270  178.7650  144.4620 C   0  0  2  0  0  3  0  0  0  0  0  0
  188.4240  176.8530  144.6230 C   0  0  0  0  0  1  0  0  0  0  0  0
  186.5240  178.3850  141.7330 C   0  0  0  0  0  2  0  0  0  0  0  0
  186.1380  177.8410  144.5310 C   0  0  1  0  0  3  0  0  0  0  0  0
  185.1240  178.2930  142.3260 C   0  0  0  0  0  2  0  0  0  0  0  0
  184.7020  178.2630  146.5000 C   0  0  0  0  0  2  0  0  0  0  0  0
  187.5370  177.8620  143.8980 C   0  0  2  0  0  3  0  0  0  0  0  0
  186.1490  178.2300  146.0090 C   0  0  0  0  0  2  0  0  0  0  0  0
  187.4640  177.5210  142.4590 N   0  0  0  0  0  0  0  0  0  0  0  0
  183.9710  179.2310  145.7860 O   0  0  0  0  0  0  0  0  0  0  0  0
  185.1970  178.7680  143.7670 C   0  0  1  0  0  3  0  0  0  0  0  0
  182.8470  179.6670  143.7190 C   0  0  0  0  0  2  0  0  0  0  0  0
  181.5500  178.9600  143.4600 C   0  0  0  0  0  0  0  0  0  0  0  0
  180.9980  178.2190  144.4240 C   0  0  0  0  0  3  0  0  0  0  0  0
  179.8090  177.5840  144.2380 F   0  0  0  0  0  0  0  0  0  0  0  0
  180.2460  180.3980  142.0950 O   0  0  0  0  0  1  0  0  0  0  0  0
  180.8460  179.1400  142.1450 C   0  0  1  0  0  3  0  0  0  0  0  0
  181.8550  177.6530  140.5700 O   0  0  0  0  0  1  0  0  0  0  0  0
  181.8080  178.9860  140.9770 C   0  0  0  0  0  2  0  0  0  0  0  0
  188.7770  177.6290  141.8000 C   0  0  0  0  0  2  0  0  0  0  0  0
  188.8110  178.5720  140.5860 C   0  0  0  0  0  2  0  0  0  0  0  0
  190.5070  177.0630  139.4720 C   0  0  0  0  0  3  0  0  0  0  0  0
  187.9420  178.8630  137.7990 O   0  0  0  0  0  0  0  0  0  0  0  0
  189.6050  177.4550  137.1040 N   0  0  0  0  0  0  0  0  0  0  0  0
  189.4070  177.9230  139.3790 C   0  0  0  0  0  0  0  0  0  0  0  0
  188.9260  178.1220  138.0650 C   0  0  0  0  0  0  0  0  0  0  0  0
  189.3510  177.4640  135.6740 C   0  0  0  0  0  1  0  0  0  0  0  0
  190.7990  176.6160  137.8810 S   0  0  0  0  0  0  0  0  0  0  0  0
  1 12  1  6  0  0  0
  1 10  1  0  0  0  0
  3  5  1  0  0  0  0
  3  9  1  0  0  0  0
  4  8  1  1  0  0  0
  7  4  1  0  0  0  0
  7  2  1  1  0  0  0
  8  6  1  0  0  0  0
  9  7  1  0  0  0  0
 10  6  1  0  0  0  0
 11  5  1  6  0  0  0
 11  1  1  0  0  0  0
 11  4  1  0  0  0  0
 13 12  1  0  0  0  0
 13 14  2  0  0  0  0
 15 14  1  0  0  0  0
 17 16  1  1  0  0  0
 17 13  1  0  0  0  0
 18 19  1  0  0  0  0
 19 17  1  0  0  0  0
 20  9  1  0  0  0  0
 21 20  1  0  0  0  0
 23 26  2  0  0  0  0
 24 28  1  0  0  0  0
 24 26  1  0  0  0  0
 25 22  2  0  0  0  0
 25 21  1  0  0  0  0
 26 25  1  0  0  0  0
 27 24  1  0  0  0  0
 28 22  1  0  0  0  0
M  END
>  <MODEL>
5

>  <REMARK>
 VINA RESULT:      -7.5      4.132      6.731
  Name = 
  7 active torsions:
  status: ('A' for Active; 'I' for Inactive)
    1  A    between atoms: C_1  and  C_2
    2  A    between atoms: C_2  and  C_3
    3  A    between atoms: C_3  and  C_11
    4  A    between atoms: C_11  and  C_22
    5  A    between atoms: C_13  and  C_18
    6  A    between atoms: C_14  and  C_18
    7  A    between atoms: C_14  and  N_25
                            x       y       z     vdW  Elec       q    Type
                         _______ _______ _______ _____ _____    ______ ____

>  <TORSDO>
F 7

$$$$
=
 OpenBabel11052413213D

 28 30  0  0  1  0  0  0  0  0999 V2000
  187.3040  177.9130  145.3180 C   0  0  2  0  0  3  0  0  0  0  0  0
  182.8760  179.7550  143.9690 C   0  0  0  0  0  1  0  0  0  0  0  0
  185.5660  178.1060  141.8820 C   0  0  0  0  0  2  0  0  0  0  0  0
  185.0810  178.8010  144.6310 C   0  0  1  0  0  3  0  0  0  0  0  0
  186.7190  178.2510  142.8670 C   0  0  0  0  0  2  0  0  0  0  0  0
  185.8500  178.5050  146.9640 C   0  0  0  0  0  2  0  0  0  0  0  0
  183.9410  178.7240  143.6050 C   0  0  2  0  0  3  0  0  0  0  0  0
  184.6210  178.4890  146.0540 C   0  0  0  0  0  2  0  0  0  0  0  0
  184.4500  178.9910  142.2400 N   0  0  0  0  0  0  0  0  0  0  0  0
  186.7630  177.5130  146.5590 O   0  0  0  0  0  0  0  0  0  0  0  0
  186.2110  177.8510  144.2410 C   0  0  1  0  0  3  0  0  0  0  0  0
  188.4630  176.9890  144.9590 C   0  0  0  0  0  2  0  0  0  0  0  0
  189.7810  177.6840  145.1280 C   0  0  0  0  0  0  0  0  0  0  0  0
  190.1830  178.5710  144.2130 C   0  0  0  0  0  3  0  0  0  0  0  0
  191.3580  179.2420  144.3440 F   0  0  0  0  0  0  0  0  0  0  0  0
  189.7960  177.0140  147.4050 O   0  0  0  0  0  1  0  0  0  0  0  0
  190.6130  177.4310  146.3530 C   0  0  1  0  0  3  0  0  0  0  0  0
  192.4320  176.1620  147.2440 O   0  0  0  0  0  1  0  0  0  0  0  0
  191.6800  176.3790  146.0890 C   0  0  0  0  0  2  0  0  0  0  0  0
  183.4000  178.8270  141.2190 C   0  0  0  0  0  2  0  0  0  0  0  0
  183.8140  179.2470  139.7990 C   0  0  0  0  0  2  0  0  0  0  0  0
  181.9310  178.2680  138.4240 C   0  0  0  0  0  3  0  0  0  0  0  0
  182.6810  181.7280  138.7180 O   0  0  0  0  0  0  0  0  0  0  0  0
  181.0950  180.5390  137.5770 N   0  0  0  0  0  0  0  0  0  0  0  0
  182.6410  179.3830  138.8830 C   0  0  0  0  0  0  0  0  0  0  0  0
  182.1610  180.6230  138.4040 C   0  0  0  0  0  0  0  0  0  0  0  0
  180.3900  181.6320  136.9290 C   0  0  0  0  0  1  0  0  0  0  0  0
  180.7440  178.9290  137.4380 S   0  0  0  0  0  0  0  0  0  0  0  0
  1 12  1  6  0  0  0
  1 10  1  0  0  0  0
  3  9  1  0  0  0  0
  3  5  1  0  0  0  0
  4  8  1  1  0  0  0
  7  2  1  1  0  0  0
  7  4  1  0  0  0  0
  8  6  1  0  0  0  0
  9  7  1  0  0  0  0
 10  6  1  0  0  0  0
 11  5  1  6  0  0  0
 11  4  1  0  0  0  0
 11  1  1  0  0  0  0
 12 13  1  0  0  0  0
 13 17  1  0  0  0  0
 14 15  1  0  0  0  0
 14 13  2  0  0  0  0
 17 16  1  1  0  0  0
 19 17  1  0  0  0  0
 19 18  1  0  0  0  0
 20  9  1  0  0  0  0
 21 20  1  0  0  0  0
 22 25  2  0  0  0  0
 24 26  1  0  0  0  0
 25 21  1  0  0  0  0
 26 23  2  0  0  0  0
 26 25  1  0  0  0  0
 27 24  1  0  0  0  0
 28 24  1  0  0  0  0
 28 22  1  0  0  0  0
M  END
>  <MODEL>
6

>  <REMARK>
 VINA RESULT:      -7.5      1.919      2.286
  Name = 
  7 active torsions:
  status: ('A' for Active; 'I' for Inactive)
    1  A    between atoms: C_1  and  C_2
    2  A    between atoms: C_2  and  C_3
    3  A    between atoms: C_3  and  C_11
    4  A    between atoms: C_11  and  C_22
    5  A    between atoms: C_13  and  C_18
    6  A    between atoms: C_14  and  C_18
    7  A    between atoms: C_14  and  N_25
                            x       y       z     vdW  Elec       q    Type
                         _______ _______ _______ _____ _____    ______ ____

>  <TORSDO>
F 7

$$$$
=
 OpenBabel11052413213D

 28 30  0  0  1  0  0  0  0  0999 V2000
  187.7380  177.6010  145.4930 C   0  0  2  0  0  3  0  0  0  0  0  0
  185.4070  179.3780  141.4640 C   0  0  0  0  0  1  0  0  0  0  0  0
  188.7140  177.5640  141.7630 C   0  0  0  0  0  2  0  0  0  0  0  0
  186.5720  178.4550  143.4650 C   0  0  1  0  0  3  0  0  0  0  0  0
  188.9350  177.7690  143.2560 C   0  0  0  0  0  2  0  0  0  0  0  0
  185.5940  178.3200  145.7320 C   0  0  0  0  0  2  0  0  0  0  0  0
  186.3920  178.3160  141.9460 C   0  0  2  0  0  3  0  0  0  0  0  0
  185.2720  178.2490  144.2400 C   0  0  0  0  0  2  0  0  0  0  0  0
  187.6880  178.4810  141.2490 N   0  0  0  0  0  0  0  0  0  0  0  0
  186.4920  177.2950  146.0820 O   0  0  0  0  0  0  0  0  0  0  0  0
  187.6260  177.4710  143.9660 C   0  0  1  0  0  3  0  0  0  0  0  0
  188.7940  176.6450  146.0360 C   0  0  0  0  0  2  0  0  0  0  0  0
  189.6560  177.3170  147.0640 C   0  0  0  0  0  0  0  0  0  0  0  0
  189.0850  178.0230  148.0440 C   0  0  0  0  0  3  0  0  0  0  0  0
  189.8290  178.6250  149.0100 F   0  0  0  0  0  0  0  0  0  0  0  0
  191.5040  175.9640  147.6830 O   0  0  0  0  0  1  0  0  0  0  0  0
  191.1470  177.1420  147.0260 C   0  0  1  0  0  3  0  0  0  0  0  0
  192.0540  175.8080  145.2630 O   0  0  0  0  0  1  0  0  0  0  0  0
  191.6630  177.1050  145.5960 C   0  0  0  0  0  2  0  0  0  0  0  0
  187.5660  178.2540  139.7990 C   0  0  0  0  0  2  0  0  0  0  0  0
  188.9050  178.0930  139.0590 C   0  0  0  0  0  2  0  0  0  0  0  0
  187.8920  176.8010  137.1350 C   0  0  0  0  0  3  0  0  0  0  0  0
  190.8320  175.8860  138.9050 O   0  0  0  0  0  0  0  0  0  0  0  0
  189.6720  174.9570  137.1680 N   0  0  0  0  0  0  0  0  0  0  0  0
  188.8910  176.9430  138.1040 C   0  0  0  0  0  0  0  0  0  0  0  0
  189.8620  175.9160  138.1020 C   0  0  0  0  0  0  0  0  0  0  0  0
  190.4930  173.7830  136.9260 C   0  0  0  0  0  1  0  0  0  0  0  0
  188.3030  175.3800  136.3420 S   0  0  0  0  0  0  0  0  0  0  0  0
  1 12  1  1  0  0  0
  1 10  1  0  0  0  0
  3  5  1  0  0  0  0
  4 11  1  0  0  0  0
  4  8  1  1  0  0  0
  6 10  1  0  0  0  0
  7  2  1  6  0  0  0
  7  4  1  0  0  0  0
  8  6  1  0  0  0  0
  9  3  1  0  0  0  0
  9  7  1  0  0  0  0
 11  5  1  6  0  0  0
 11  1  1  0  0  0  0
 12 13  1  0  0  0  0
 13 14  2  0  0  0  0
 14 15  1  0  0  0  0
 17 13  1  0  0  0  0
 17 16  1  6  0  0  0
 18 19  1  0  0  0  0
 19 17  1  0  0  0  0
 20  9  1  0  0  0  0
 21 20  1  0  0  0  0
 22 25  2  0  0  0  0
 24 26  1  0  0  0  0
 25 21  1  0  0  0  0
 26 25  1  0  0  0  0
 26 23  2  0  0  0  0
 27 24  1  0  0  0  0
 28 22  1  0  0  0  0
 28 24  1  0  0  0  0
M  END
>  <MODEL>
7

>  <REMARK>
 VINA RESULT:      -7.4      2.839      3.460
  Name = 
  7 active torsions:
  status: ('A' for Active; 'I' for Inactive)
    1  A    between atoms: C_1  and  C_2
    2  A    between atoms: C_2  and  C_3
    3  A    between atoms: C_3  and  C_11
    4  A    between atoms: C_11  and  C_22
    5  A    between atoms: C_13  and  C_18
    6  A    between atoms: C_14  and  C_18
    7  A    between atoms: C_14  and  N_25
                            x       y       z     vdW  Elec       q    Type
                         _______ _______ _______ _____ _____    ______ ____

>  <TORSDO>
F 7

$$$$
=
 OpenBabel11052413213D

 28 30  0  0  1  0  0  0  0  0999 V2000
  188.2180  177.6610  145.1850 C   0  0  2  0  0  3  0  0  0  0  0  0
  183.5650  179.3700  144.6820 C   0  0  0  0  0  1  0  0  0  0  0  0
  185.9040  177.8810  142.1080 C   0  0  0  0  0  2  0  0  0  0  0  0
  185.8820  178.4830  144.9220 C   0  0  1  0  0  3  0  0  0  0  0  0
  187.2050  178.0430  142.8840 C   0  0  0  0  0  2  0  0  0  0  0  0
  187.0530  178.1540  147.0750 C   0  0  0  0  0  2  0  0  0  0  0  0
  184.5840  178.3910  144.1050 C   0  0  2  0  0  3  0  0  0  0  0  0
  185.6870  178.1160  146.3920 C   0  0  0  0  0  2  0  0  0  0  0  0
  184.8390  178.7130  142.6830 N   0  0  0  0  0  0  0  0  0  0  0  0
  187.9140  177.2090  146.4870 O   0  0  0  0  0  0  0  0  0  0  0  0
  186.9570  177.5870  144.3110 C   0  0  1  0  0  3  0  0  0  0  0  0
  189.3260  176.7920  144.6010 C   0  0  0  0  0  2  0  0  0  0  0  0
  190.4630  177.6310  144.0970 C   0  0  0  0  0  0  0  0  0  0  0  0
  190.5030  178.9340  144.3900 C   0  0  0  0  0  3  0  0  0  0  0  0
  191.5300  179.7230  143.9740 F   0  0  0  0  0  0  0  0  0  0  0  0
  191.6360  175.6280  143.6020 O   0  0  0  0  0  1  0  0  0  0  0  0
  191.5810  176.9940  143.3220 C   0  0  1  0  0  3  0  0  0  0  0  0
  190.3030  176.4810  141.3690 O   0  0  0  0  0  1  0  0  0  0  0  0
  191.4070  177.2020  141.8260 C   0  0  0  0  0  2  0  0  0  0  0  0
  183.6330  178.5380  141.8540 C   0  0  0  0  0  2  0  0  0  0  0  0
  183.8790  178.6190  140.3380 C   0  0  0  0  0  2  0  0  0  0  0  0
  181.5420  178.0400  139.5620 C   0  0  0  0  0  3  0  0  0  0  0  0
  183.3170  180.9980  138.7170 O   0  0  0  0  0  0  0  0  0  0  0  0
  181.2470  180.1840  138.1880 N   0  0  0  0  0  0  0  0  0  0  0  0
  182.6290  178.9210  139.5760 C   0  0  0  0  0  0  0  0  0  0  0  0
  182.4420  180.0970  138.8130 C   0  0  0  0  0  0  0  0  0  0  0  0
  180.7700  181.2610  137.3370 C   0  0  0  0  0  1  0  0  0  0  0  0
  180.4190  178.8070  138.5800 S   0  0  0  0  0  0  0  0  0  0  0  0
  1 12  1  6  0  0  0
  1 10  1  0  0  0  0
  3  9  1  0  0  0  0
  3  5  1  0  0  0  0
  4  8  1  1  0  0  0
  7  2  1  1  0  0  0
  7  4  1  0  0  0  0
  8  6  1  0  0  0  0
  9  7  1  0  0  0  0
 10  6  1  0  0  0  0
 11  5  1  6  0  0  0
 11  4  1  0  0  0  0
 11  1  1  0  0  0  0
 13 14  2  0  0  0  0
 13 12  1  0  0  0  0
 15 14  1  0  0  0  0
 17 16  1  6  0  0  0
 17 13  1  0  0  0  0
 18 19  1  0  0  0  0
 19 17  1  0  0  0  0
 20  9  1  0  0  0  0
 21 20  1  0  0  0  0
 22 25  2  0  0  0  0
 23 26  2  0  0  0  0
 24 28  1  0  0  0  0
 24 26  1  0  0  0  0
 25 21  1  0  0  0  0
 26 25  1  0  0  0  0
 27 24  1  0  0  0  0
 28 22  1  0  0  0  0
M  END
>  <MODEL>
8

>  <REMARK>
 VINA RESULT:      -7.4      2.276      2.793
  Name = 
  7 active torsions:
  status: ('A' for Active; 'I' for Inactive)
    1  A    between atoms: C_1  and  C_2
    2  A    between atoms: C_2  and  C_3
    3  A    between atoms: C_3  and  C_11
    4  A    between atoms: C_11  and  C_22
    5  A    between atoms: C_13  and  C_18
    6  A    between atoms: C_14  and  C_18
    7  A    between atoms: C_14  and  N_25
                            x       y       z     vdW  Elec       q    Type
                         _______ _______ _______ _____ _____    ______ ____

>  <TORSDO>
F 7

$$$$
=
 OpenBabel11052413213D

 28 30  0  0  1  0  0  0  0  0999 V2000
  187.3920  177.8400  145.3460 C   0  0  2  0  0  3  0  0  0  0  0  0
  183.0080  179.6300  143.7960 C   0  0  0  0  0  1  0  0  0  0  0  0
  185.7880  177.9660  141.8420 C   0  0  0  0  0  2  0  0  0  0  0  0
  185.1920  178.7020  144.5590 C   0  0  1  0  0  3  0  0  0  0  0  0
  186.9000  178.1350  142.8680 C   0  0  0  0  0  2  0  0  0  0  0  0
  185.8720  178.4500  146.9240 C   0  0  0  0  0  2  0  0  0  0  0  0
  184.0930  178.6010  143.4900 C   0  0  2  0  0  3  0  0  0  0  0  0
  184.6790  178.4100  145.9680 C   0  0  0  0  0  2  0  0  0  0  0  0
  184.6530  178.8480  142.1420 N   0  0  0  0  0  0  0  0  0  0  0  0
  186.8060  177.4570  146.5720 O   0  0  0  0  0  0  0  0  0  0  0  0
  186.3420  177.7530  144.2280 C   0  0  1  0  0  3  0  0  0  0  0  0
  188.5690  176.9190  145.0470 C   0  0  0  0  0  2  0  0  0  0  0  0
  189.7660  177.2820  145.8760 C   0  0  0  0  0  0  0  0  0  0  0  0
  189.7240  177.1200  147.2020 C   0  0  0  0  0  3  0  0  0  0  0  0
  190.7960  177.4130  147.9860 F   0  0  0  0  0  0  0  0  0  0  0  0
  191.7800  176.6750  144.7790 O   0  0  0  0  0  1  0  0  0  0  0  0
  191.0230  177.7650  145.2110 C   0  0  1  0  0  3  0  0  0  0  0  0
  191.3350  178.1850  142.8790 O   0  0  0  0  0  1  0  0  0  0  0  0
  190.7110  178.6700  144.0290 C   0  0  0  0  0  2  0  0  0  0  0  0
  183.6440  178.6610  141.0840 C   0  0  0  0  0  2  0  0  0  0  0  0
  183.9290  179.4290  139.7820 C   0  0  0  0  0  2  0  0  0  0  0  0
  185.3770  178.1060  138.1870 C   0  0  0  0  0  3  0  0  0  0  0  0
  181.8300  178.2670  138.0940 O   0  0  0  0  0  0  0  0  0  0  0  0
  183.4040  177.2000  136.8230 N   0  0  0  0  0  0  0  0  0  0  0  0
  184.1090  178.5160  138.6130 C   0  0  0  0  0  0  0  0  0  0  0  0
  183.0380  178.0020  137.8480 C   0  0  0  0  0  0  0  0  0  0  0  0
  182.5370  176.5340  135.8670 C   0  0  0  0  0  1  0  0  0  0  0  0
  185.0560  177.1240  136.8640 S   0  0  0  0  0  0  0  0  0  0  0  0
  1 12  1  6  0  0  0
  1 10  1  0  0  0  0
  3  9  1  0  0  0  0
  3  5  1  0  0  0  0
  4  8  1  1  0  0  0
  7  2  1  1  0  0  0
  7  4  1  0  0  0  0
  8  6  1  0  0  0  0
  9  7  1  0  0  0  0
 10  6  1  0  0  0  0
 11  5  1  6  0  0  0
 11  4  1  0  0  0  0
 11  1  1  0  0  0  0
 12 13  1  0  0  0  0
 13 14  2  0  0  0  0
 14 15  1  0  0  0  0
 17 16  1  6  0  0  0
 17 13  1  0  0  0  0
 18 19  1  0  0  0  0
 19 17  1  0  0  0  0
 20  9  1  0  0  0  0
 21 20  1  0  0  0  0
 22 25  2  0  0  0  0
 24 28  1  0  0  0  0
 24 26  1  0  0  0  0
 25 21  1  0  0  0  0
 26 23  2  0  0  0  0
 26 25  1  0  0  0  0
 27 24  1  0  0  0  0
 28 22  1  0  0  0  0
M  END
>  <MODEL>
9

>  <REMARK>
 VINA RESULT:      -7.1      1.779      2.182
  Name = 
  7 active torsions:
  status: ('A' for Active; 'I' for Inactive)
    1  A    between atoms: C_1  and  C_2
    2  A    between atoms: C_2  and  C_3
    3  A    between atoms: C_3  and  C_11
    4  A    between atoms: C_11  and  C_22
    5  A    between atoms: C_13  and  C_18
    6  A    between atoms: C_14  and  C_18
    7  A    between atoms: C_14  and  N_25
                            x       y       z     vdW  Elec       q    Type
                         _______ _______ _______ _____ _____    ______ ____

>  <TORSDO>
F 7

$$$$
