=
 OpenBabel11052412433D

 25 27  0  0  1  0  0  0  0  0999 V2000
  186.6270  177.9730  146.4230 C   0  0  1  0  0  3  0  0  0  0  0  0
  187.8960  177.1660  146.1080 C   0  0  1  0  0  3  0  0  0  0  0  0
  188.0670  179.0470  148.2500 C   0  0  0  0  0  2  0  0  0  0  0  0
  188.2790  177.5810  148.6190 C   0  0  0  0  0  2  0  0  0  0  0  0
  190.1020  176.7560  146.9590 C   0  0  0  0  0  0  0  0  0  0  0  0
  190.5910  175.3270  146.8330 C   0  0  0  0  0  1  0  0  0  0  0  0
  188.7790  177.9080  145.3060 O   0  0  0  0  0  0  0  0  0  0  0  0
  186.8990  179.2240  147.2730 C   0  0  0  0  0  2  0  0  0  0  0  0
  191.0220  177.4860  147.9400 C   0  0  0  0  0  1  0  0  0  0  0  0
  190.0540  177.3740  145.5570 C   0  0  1  0  0  3  0  0  0  0  0  0
  188.6380  176.7320  147.3760 C   0  0  2  0  0  3  0  0  0  0  0  0
  185.8070  178.2830  145.2030 C   0  0  0  0  0  0  0  0  0  0  0  0
  183.9890  178.4050  142.9940 C   0  0  0  0  0  2  0  0  0  0  0  0
  184.5650  179.1500  145.3110 C   0  0  1  0  0  3  0  0  0  0  0  0
  184.0240  179.5890  143.9500 C   0  0  0  0  0  2  0  0  0  0  0  0
  185.4150  177.9240  142.7560 C   0  0  0  0  0  2  0  0  0  0  0  0
  183.5760  178.4730  146.0010 F   0  0  0  0  0  0  0  0  0  0  0  0
  186.1390  177.6730  144.0530 C   0  0  0  0  0  3  0  0  0  0  0  0
  191.3810  178.5670  145.1270 S   0  0  0  0  0  0  0  0  0  0  0  0
  190.7810  178.8660  143.4310 C   0  0  0  0  0  2  0  0  0  0  0  0
  191.3140  177.8050  142.4840 C   0  0  1  0  0  3  0  0  0  0  0  0
  191.9610  176.8120  143.2180 O   0  0  0  0  0  1  0  0  0  0  0  0
  190.2000  177.1990  141.6970 C   0  0  0  0  0  0  0  0  0  0  0  0
  190.4710  176.3040  140.6680 O   0  0  0  0  0  0  0  0  0  0  0  0
  189.0080  177.4920  141.9730 O   0  0  0  0  0  1  0  0  0  0  0  0
  1 12  1  6  0  0  0
  1  8  1  0  0  0  0
  2  7  1  6  0  0  0
  2  1  1  0  0  0  0
  2 11  1  0  0  0  0
  3  4  1  0  0  0  0
  5 11  1  0  0  0  0
  5  9  1  0  0  0  0
  6  5  1  0  0  0  0
  7 10  1  0  0  0  0
  8  3  1  0  0  0  0
 10 19  1  1  0  0  0
 10  5  1  0  0  0  0
 11  4  1  1  0  0  0
 12 14  1  0  0  0  0
 13 15  1  0  0  0  0
 14 17  1  6  0  0  0
 15 14  1  0  0  0  0
 16 13  1  0  0  0  0
 16 18  1  0  0  0  0
 18 12  2  0  0  0  0
 20 19  1  0  0  0  0
 21 22  1  1  0  0  0
 21 20  1  0  0  0  0
 23 25  1  0  0  0  0
 23 21  1  0  0  0  0
 24 23  2  0  0  0  0
M  END
>  <MODEL>
1

>  <REMARK>
 VINA RESULT:      -6.5      0.000      0.000
  Name = 
  5 active torsions:
  status: ('A' for Active; 'I' for Inactive)
    1  A    between atoms: C_1  and  C_5
    2  A    between atoms: C_2  and  C_21
    3  A    between atoms: S_6  and  C_15
    4  A    between atoms: S_6  and  C_23
    5  A    between atoms: C_15  and  C_21
                            x       y       z     vdW  Elec       q    Type
                         _______ _______ _______ _____ _____    ______ ____

>  <TORSDO>
F 5

$$$$
=
 OpenBabel11052412433D

 25 27  0  0  1  0  0  0  0  0999 V2000
  187.0420  177.6250  146.0570 C   0  0  1  0  0  3  0  0  0  0  0  0
  188.2350  177.0660  145.2670 C   0  0  1  0  0  3  0  0  0  0  0  0
  188.8260  178.3710  147.7380 C   0  0  0  0  0  2  0  0  0  0  0  0
  189.1940  176.8910  147.6490 C   0  0  0  0  0  2  0  0  0  0  0  0
  190.5990  176.7070  145.4690 C   0  0  0  0  0  0  0  0  0  0  0  0
  191.1140  175.4150  144.8650 C   0  0  0  0  0  1  0  0  0  0  0  0
  188.8600  178.0750  144.5150 O   0  0  0  0  0  0  0  0  0  0  0  0
  187.4490  178.6510  147.1260 C   0  0  0  0  0  2  0  0  0  0  0  0
  191.6920  177.2710  146.3810 C   0  0  0  0  0  1  0  0  0  0  0  0
  190.1820  177.6410  144.3280 C   0  0  1  0  0  3  0  0  0  0  0  0
  189.2830  176.4190  146.1780 C   0  0  2  0  0  3  0  0  0  0  0  0
  185.9360  178.1320  145.1760 C   0  0  0  0  0  0  0  0  0  0  0  0
  183.5910  178.6210  143.6070 C   0  0  0  0  0  2  0  0  0  0  0  0
  184.8210  178.9850  145.7540 C   0  0  1  0  0  3  0  0  0  0  0  0
  183.9510  179.6390  144.6790 C   0  0  0  0  0  2  0  0  0  0  0  0
  184.8680  178.1670  142.9110 C   0  0  0  0  0  2  0  0  0  0  0  0
  184.0240  178.2180  146.5850 F   0  0  0  0  0  0  0  0  0  0  0  0
  185.9060  177.7070  143.9010 C   0  0  0  0  0  3  0  0  0  0  0  0
  191.3040  179.0420  143.9460 S   0  0  0  0  0  0  0  0  0  0  0  0
  191.9600  178.3060  142.4130 C   0  0  0  0  0  2  0  0  0  0  0  0
  190.8780  177.5180  141.6960 C   0  0  1  0  0  3  0  0  0  0  0  0
  189.7800  178.3450  141.4640 O   0  0  0  0  0  1  0  0  0  0  0  0
  191.3890  176.9890  140.3980 C   0  0  0  0  0  0  0  0  0  0  0  0
  190.6120  176.1240  139.6360 O   0  0  0  0  0  0  0  0  0  0  0  0
  192.5260  177.3350  139.9860 O   0  0  0  0  0  1  0  0  0  0  0  0
  1 12  1  6  0  0  0
  1  8  1  0  0  0  0
  2  7  1  1  0  0  0
  2  1  1  0  0  0  0
  2 11  1  0  0  0  0
  4  3  1  0  0  0  0
  5 11  1  0  0  0  0
  5  9  1  0  0  0  0
  6  5  1  0  0  0  0
  8  3  1  0  0  0  0
 10 19  1  1  0  0  0
 10  7  1  0  0  0  0
 10  5  1  0  0  0  0
 11  4  1  1  0  0  0
 12 14  1  0  0  0  0
 13 15  1  0  0  0  0
 14 17  1  1  0  0  0
 15 14  1  0  0  0  0
 16 13  1  0  0  0  0
 16 18  1  0  0  0  0
 18 12  2  0  0  0  0
 20 19  1  0  0  0  0
 21 22  1  6  0  0  0
 21 20  1  0  0  0  0
 23 21  1  0  0  0  0
 24 23  2  0  0  0  0
 25 23  1  0  0  0  0
M  END
>  <MODEL>
2

>  <REMARK>
 VINA RESULT:      -6.4      1.187      1.520
  Name = 
  5 active torsions:
  status: ('A' for Active; 'I' for Inactive)
    1  A    between atoms: C_1  and  C_5
    2  A    between atoms: C_2  and  C_21
    3  A    between atoms: S_6  and  C_15
    4  A    between atoms: S_6  and  C_23
    5  A    between atoms: C_15  and  C_21
                            x       y       z     vdW  Elec       q    Type
                         _______ _______ _______ _____ _____    ______ ____

>  <TORSDO>
F 5

$$$$
=
 OpenBabel11052412433D

 25 27  0  0  1  0  0  0  0  0999 V2000
  184.1120  178.4200  143.8920 C   0  0  1  0  0  3  0  0  0  0  0  0
  185.2930  177.6240  143.3150 C   0  0  1  0  0  3  0  0  0  0  0  0
  185.9150  179.6130  145.2680 C   0  0  0  0  0  2  0  0  0  0  0  0
  186.2570  178.1720  145.6380 C   0  0  0  0  0  2  0  0  0  0  0  0
  187.6510  177.3030  143.6230 C   0  0  0  0  0  0  0  0  0  0  0  0
  188.1410  175.8790  143.4450 C   0  0  0  0  0  1  0  0  0  0  0  0
  185.9330  178.3420  142.2920 O   0  0  0  0  0  0  0  0  0  0  0  0
  184.5410  179.7160  144.5960 C   0  0  0  0  0  2  0  0  0  0  0  0
  188.7570  178.1000  144.3200 C   0  0  0  0  0  1  0  0  0  0  0  0
  187.2470  177.8490  142.2490 C   0  0  1  0  0  3  0  0  0  0  0  0
  186.3330  177.2690  144.3830 C   0  0  2  0  0  3  0  0  0  0  0  0
  183.0130  178.6510  142.8950 C   0  0  0  0  0  0  0  0  0  0  0  0
  180.8050  178.5650  141.0740 C   0  0  0  0  0  2  0  0  0  0  0  0
  181.6550  179.1560  143.3510 C   0  0  1  0  0  3  0  0  0  0  0  0
  180.7630  179.5990  142.1900 C   0  0  0  0  0  2  0  0  0  0  0  0
  182.2250  178.4930  140.5240 C   0  0  0  0  0  2  0  0  0  0  0  0
  181.0080  178.1730  144.0780 F   0  0  0  0  0  0  0  0  0  0  0  0
  183.2350  178.2840  141.6220 C   0  0  0  0  0  3  0  0  0  0  0  0
  188.3920  179.0460  141.4590 S   0  0  0  0  0  0  0  0  0  0  0  0
  189.1000  177.8390  140.2910 C   0  0  0  0  0  2  0  0  0  0  0  0
  188.3120  177.8300  138.9920 C   0  0  1  0  0  3  0  0  0  0  0  0
  187.1530  178.5870  139.1490 O   0  0  0  0  0  1  0  0  0  0  0  0
  189.1310  178.3940  137.8800 C   0  0  0  0  0  0  0  0  0  0  0  0
  188.9650  179.7160  137.4830 O   0  0  0  0  0  1  0  0  0  0  0  0
  189.9840  177.6710  137.3030 O   0  0  0  0  0  0  0  0  0  0  0  0
  1 12  1  6  0  0  0
  1  8  1  0  0  0  0
  2  7  1  6  0  0  0
  2  1  1  0  0  0  0
  2 11  1  0  0  0  0
  3  4  1  0  0  0  0
  5  9  1  0  0  0  0
  5 11  1  0  0  0  0
  6  5  1  0  0  0  0
  8  3  1  0  0  0  0
 10 19  1  1  0  0  0
 10  7  1  0  0  0  0
 10  5  1  0  0  0  0
 11  4  1  1  0  0  0
 12 14  1  0  0  0  0
 13 15  1  0  0  0  0
 14 17  1  6  0  0  0
 15 14  1  0  0  0  0
 16 13  1  0  0  0  0
 16 18  1  0  0  0  0
 18 12  2  0  0  0  0
 20 19  1  0  0  0  0
 21 22  1  1  0  0  0
 21 20  1  0  0  0  0
 23 21  1  0  0  0  0
 24 23  1  0  0  0  0
 25 23  2  0  0  0  0
M  END
>  <MODEL>
3

>  <REMARK>
 VINA RESULT:      -6.4      3.034      4.151
  Name = 
  5 active torsions:
  status: ('A' for Active; 'I' for Inactive)
    1  A    between atoms: C_1  and  C_5
    2  A    between atoms: C_2  and  C_21
    3  A    between atoms: S_6  and  C_15
    4  A    between atoms: S_6  and  C_23
    5  A    between atoms: C_15  and  C_21
                            x       y       z     vdW  Elec       q    Type
                         _______ _______ _______ _____ _____    ______ ____

>  <TORSDO>
F 5

$$$$
=
 OpenBabel11052412433D

 25 27  0  0  1  0  0  0  0  0999 V2000
  189.5640  177.4620  138.9090 C   0  0  1  0  0  3  0  0  0  0  0  0
  188.8870  176.3790  138.0560 C   0  0  1  0  0  3  0  0  0  0  0  0
  188.8760  179.0360  137.0080 C   0  0  0  0  0  2  0  0  0  0  0  0
  189.6190  177.9870  136.1840 C   0  0  0  0  0  2  0  0  0  0  0  0
  187.8990  176.0590  135.8920 C   0  0  0  0  0  0  0  0  0  0  0  0
  188.1840  174.7210  135.2390 C   0  0  0  0  0  1  0  0  0  0  0  0
  187.4960  176.3830  138.2450 O   0  0  0  0  0  0  0  0  0  0  0  0
  189.1650  178.8900  138.5060 C   0  0  0  0  0  2  0  0  0  0  0  0
  187.3480  177.0010  134.8190 C   0  0  0  0  0  1  0  0  0  0  0  0
  186.9530  175.8260  137.0760 C   0  0  1  0  0  3  0  0  0  0  0  0
  189.1740  176.5530  136.5610 C   0  0  2  0  0  3  0  0  0  0  0  0
  189.4180  177.2270  140.3850 C   0  0  0  0  0  0  0  0  0  0  0  0
  189.4540  177.2200  143.2490 C   0  0  0  0  0  2  0  0  0  0  0  0
  188.2390  177.8110  141.1440 C   0  0  1  0  0  3  0  0  0  0  0  0
  188.0990  177.2440  142.5580 C   0  0  0  0  0  2  0  0  0  0  0  0
  190.3750  176.2700  142.4920 C   0  0  0  0  0  2  0  0  0  0  0  0
  188.3590  179.1880  141.2120 F   0  0  0  0  0  0  0  0  0  0  0  0
  190.4180  176.5930  141.0220 C   0  0  0  0  0  3  0  0  0  0  0  0
  185.1990  176.3120  136.8480 S   0  0  0  0  0  0  0  0  0  0  0  0
  185.3490  177.8810  137.7640 C   0  0  0  0  0  2  0  0  0  0  0  0
  184.0090  178.2840  138.3530 C   0  0  1  0  0  3  0  0  0  0  0  0
  183.5120  177.2390  139.1300 O   0  0  0  0  0  1  0  0  0  0  0  0
  184.1540  179.5070  139.1950 C   0  0  0  0  0  0  0  0  0  0  0  0
  185.0680  179.5370  140.2410 O   0  0  0  0  0  1  0  0  0  0  0  0
  183.4510  180.5220  138.9490 O   0  0  0  0  0  0  0  0  0  0  0  0
  1 12  1  1  0  0  0
  2  7  1  6  0  0  0
  2  1  1  0  0  0  0
  3  8  1  0  0  0  0
  4  3  1  0  0  0  0
  5 11  1  0  0  0  0
  5 10  1  0  0  0  0
  6  5  1  0  0  0  0
  8  1  1  0  0  0  0
  9  5  1  0  0  0  0
 10 19  1  6  0  0  0
 10  7  1  0  0  0  0
 11  4  1  1  0  0  0
 11  2  1  0  0  0  0
 12 18  2  0  0  0  0
 12 14  1  0  0  0  0
 14 17  1  1  0  0  0
 14 15  1  0  0  0  0
 15 13  1  0  0  0  0
 16 13  1  0  0  0  0
 18 16  1  0  0  0  0
 19 20  1  0  0  0  0
 20 21  1  0  0  0  0
 21 22  1  1  0  0  0
 21 23  1  0  0  0  0
 23 24  1  0  0  0  0
 25 23  2  0  0  0  0
M  END
>  <MODEL>
4

>  <REMARK>
 VINA RESULT:      -6.2      5.171      8.730
  Name = 
  5 active torsions:
  status: ('A' for Active; 'I' for Inactive)
    1  A    between atoms: C_1  and  C_5
    2  A    between atoms: C_2  and  C_21
    3  A    between atoms: S_6  and  C_15
    4  A    between atoms: S_6  and  C_23
    5  A    between atoms: C_15  and  C_21
                            x       y       z     vdW  Elec       q    Type
                         _______ _______ _______ _____ _____    ______ ____

>  <TORSDO>
F 5

$$$$
=
 OpenBabel11052412433D

 25 27  0  0  1  0  0  0  0  0999 V2000
  188.0650  177.7670  142.2570 C   0  0  1  0  0  3  0  0  0  0  0  0
  189.0130  178.4820  143.2330 C   0  0  1  0  0  3  0  0  0  0  0  0
  189.5020  175.7080  142.7640 C   0  0  0  0  0  2  0  0  0  0  0  0
  190.6130  176.6700  142.3500 C   0  0  0  0  0  2  0  0  0  0  0  0
  191.0370  178.1150  144.4690 C   0  0  0  0  0  0  0  0  0  0  0  0
  191.9750  179.3030  144.5460 C   0  0  0  0  0  1  0  0  0  0  0  0
  188.6330  178.2520  144.5650 O   0  0  0  0  0  0  0  0  0  0  0  0
  188.1180  176.2360  142.3720 C   0  0  0  0  0  2  0  0  0  0  0  0
  191.8150  176.8700  144.9010 C   0  0  0  0  0  1  0  0  0  0  0  0
  189.8020  178.4190  145.3250 C   0  0  1  0  0  3  0  0  0  0  0  0
  190.4690  178.0380  143.0590 C   0  0  2  0  0  3  0  0  0  0  0  0
  186.6590  178.2930  142.3100 C   0  0  0  0  0  0  0  0  0  0  0  0
  183.8360  178.7740  142.3370 C   0  0  0  0  0  2  0  0  0  0  0  0
  185.9460  178.4500  143.6410 C   0  0  1  0  0  3  0  0  0  0  0  0
  184.6480  179.2530  143.5320 C   0  0  0  0  0  2  0  0  0  0  0  0
  184.6250  179.0530  141.0630 C   0  0  0  0  0  2  0  0  0  0  0  0
  185.6720  177.2050  144.1780 F   0  0  0  0  0  0  0  0  0  0  0  0
  186.0230  178.4990  141.1440 C   0  0  0  0  0  3  0  0  0  0  0  0
  189.6810  177.5660  146.9450 S   0  0  0  0  0  0  0  0  0  0  0  0
  187.8980  177.2160  146.8070 C   0  0  0  0  0  2  0  0  0  0  0  0
  187.1360  177.8780  147.9420 C   0  0  1  0  0  3  0  0  0  0  0  0
  187.9980  178.7120  148.6530 O   0  0  0  0  0  1  0  0  0  0  0  0
  185.9940  178.6770  147.4100 C   0  0  0  0  0  0  0  0  0  0  0  0
  186.0300  180.0660  147.4430 O   0  0  0  0  0  1  0  0  0  0  0  0
  184.9950  178.0890  146.9190 O   0  0  0  0  0  0  0  0  0  0  0  0
  1 12  1  1  0  0  0
  1  8  1  0  0  0  0
  1  2  1  0  0  0  0
  2  7  1  1  0  0  0
  4  3  1  0  0  0  0
  5  6  1  0  0  0  0
  5  9  1  0  0  0  0
  5 10  1  0  0  0  0
  7 10  1  0  0  0  0
  8  3  1  0  0  0  0
 10 19  1  1  0  0  0
 11  4  1  1  0  0  0
 11  2  1  0  0  0  0
 11  5  1  0  0  0  0
 12 14  1  0  0  0  0
 13 15  1  0  0  0  0
 14 17  1  6  0  0  0
 15 14  1  0  0  0  0
 16 18  1  0  0  0  0
 16 13  1  0  0  0  0
 18 12  2  0  0  0  0
 20 19  1  0  0  0  0
 20 21  1  0  0  0  0
 21 22  1  6  0  0  0
 23 24  1  0  0  0  0
 23 21  1  0  0  0  0
 25 23  2  0  0  0  0
M  END
>  <MODEL>
5

>  <REMARK>
 VINA RESULT:      -6.1      2.080      4.731
  Name = 
  5 active torsions:
  status: ('A' for Active; 'I' for Inactive)
    1  A    between atoms: C_1  and  C_5
    2  A    between atoms: C_2  and  C_21
    3  A    between atoms: S_6  and  C_15
    4  A    between atoms: S_6  and  C_23
    5  A    between atoms: C_15  and  C_21
                            x       y       z     vdW  Elec       q    Type
                         _______ _______ _______ _____ _____    ______ ____

>  <TORSDO>
F 5

$$$$
=
 OpenBabel11052412433D

 25 27  0  0  1  0  0  0  0  0999 V2000
  190.9790  176.6980  140.9160 C   0  0  1  0  0  3  0  0  0  0  0  0
  189.9410  176.4750  139.8050 C   0  0  1  0  0  3  0  0  0  0  0  0
  192.5800  177.1880  138.9770 C   0  0  0  0  0  2  0  0  0  0  0  0
  192.0740  175.8220  138.5200 C   0  0  0  0  0  2  0  0  0  0  0  0
  189.7740  176.3230  137.4160 C   0  0  0  0  0  0  0  0  0  0  0  0
  188.8040  175.2790  136.8980 C   0  0  0  0  0  1  0  0  0  0  0  0
  189.4070  177.6960  139.3610 O   0  0  0  0  0  0  0  0  0  0  0  0
  192.2210  177.4660  140.4410 C   0  0  0  0  0  2  0  0  0  0  0  0
  190.6690  176.7560  136.2520 C   0  0  0  0  0  1  0  0  0  0  0  0
  188.9650  177.4600  138.0490 C   0  0  1  0  0  3  0  0  0  0  0  0
  190.5310  175.7360  138.5990 C   0  0  2  0  0  3  0  0  0  0  0  0
  190.3880  177.2880  142.1640 C   0  0  0  0  0  0  0  0  0  0  0  0
  189.3920  177.9350  144.7700 C   0  0  0  0  0  2  0  0  0  0  0  0
  191.2450  178.1220  143.1010 C   0  0  1  0  0  3  0  0  0  0  0  0
  190.4250  178.8680  144.1550 C   0  0  0  0  0  2  0  0  0  0  0  0
  188.4110  177.5050  143.6860 C   0  0  0  0  0  2  0  0  0  0  0  0
  192.1760  177.3150  143.7300 F   0  0  0  0  0  0  0  0  0  0  0  0
  189.1250  176.9550  142.4790 C   0  0  0  0  0  3  0  0  0  0  0  0
  188.8300  179.0200  137.0920 S   0  0  0  0  0  0  0  0  0  0  0  0
  187.1390  178.6930  136.4960 C   0  0  0  0  0  2  0  0  0  0  0  0
  186.3190  178.0030  137.5720 C   0  0  1  0  0  3  0  0  0  0  0  0
  185.7940  178.9600  138.4390 O   0  0  0  0  0  1  0  0  0  0  0  0
  185.2070  177.2190  136.9600 C   0  0  0  0  0  0  0  0  0  0  0  0
  183.8850  177.6060  137.1500 O   0  0  0  0  0  1  0  0  0  0  0  0
  185.4670  176.2070  136.2600 O   0  0  0  0  0  0  0  0  0  0  0  0
  1 12  1  1  0  0  0
  2  7  1  6  0  0  0
  2  1  1  0  0  0  0
  3  8  1  0  0  0  0
  4  3  1  0  0  0  0
  5 10  1  0  0  0  0
  5 11  1  0  0  0  0
  6  5  1  0  0  0  0
  8  1  1  0  0  0  0
  9  5  1  0  0  0  0
 10 19  1  6  0  0  0
 10  7  1  0  0  0  0
 11  4  1  6  0  0  0
 11  2  1  0  0  0  0
 12 18  2  0  0  0  0
 12 14  1  0  0  0  0
 14 17  1  1  0  0  0
 14 15  1  0  0  0  0
 15 13  1  0  0  0  0
 16 13  1  0  0  0  0
 18 16  1  0  0  0  0
 20 19  1  0  0  0  0
 20 21  1  0  0  0  0
 21 22  1  1  0  0  0
 23 24  1  0  0  0  0
 23 21  1  0  0  0  0
 25 23  2  0  0  0  0
M  END
>  <MODEL>
6

>  <REMARK>
 VINA RESULT:      -6.1      4.604      7.913
  Name = 
  5 active torsions:
  status: ('A' for Active; 'I' for Inactive)
    1  A    between atoms: C_1  and  C_5
    2  A    between atoms: C_2  and  C_21
    3  A    between atoms: S_6  and  C_15
    4  A    between atoms: S_6  and  C_23
    5  A    between atoms: C_15  and  C_21
                            x       y       z     vdW  Elec       q    Type
                         _______ _______ _______ _____ _____    ______ ____

>  <TORSDO>
F 5

$$$$
=
 OpenBabel11052412433D

 25 27  0  0  1  0  0  0  0  0999 V2000
  189.1940  177.7660  139.4820 C   0  0  1  0  0  3  0  0  0  0  0  0
  189.9090  176.8400  138.4870 C   0  0  1  0  0  3  0  0  0  0  0  0
  187.6840  178.3270  137.4900 C   0  0  0  0  0  2  0  0  0  0  0  0
  189.0370  178.6200  136.8460 C   0  0  0  0  0  2  0  0  0  0  0  0
  189.9400  176.2830  136.1520 C   0  0  0  0  0  0  0  0  0  0  0  0
  191.3120  176.0120  135.5680 C   0  0  0  0  0  1  0  0  0  0  0  0
  189.2280  175.6180  138.3560 O   0  0  0  0  0  0  0  0  0  0  0  0
  187.7960  178.1980  139.0130 C   0  0  0  0  0  2  0  0  0  0  0  0
  188.9640  176.4880  134.9910 C   0  0  0  0  0  1  0  0  0  0  0  0
  189.5780  175.1250  137.0890 C   0  0  1  0  0  3  0  0  0  0  0  0
  190.0430  177.4720  137.0980 C   0  0  2  0  0  3  0  0  0  0  0  0
  189.1820  177.2280  140.8840 C   0  0  0  0  0  0  0  0  0  0  0  0
  189.4200  176.6640  143.6820 C   0  0  0  0  0  2  0  0  0  0  0  0
  187.9960  177.4860  141.7970 C   0  0  1  0  0  3  0  0  0  0  0  0
  188.0260  176.6380  143.0700 C   0  0  0  0  0  2  0  0  0  0  0  0
  190.3960  176.0150  142.7080 C   0  0  0  0  0  2  0  0  0  0  0  0
  187.9480  178.8260  142.1390 F   0  0  0  0  0  0  0  0  0  0  0  0
  190.2950  176.6240  141.3340 C   0  0  0  0  0  3  0  0  0  0  0  0
  188.3460  173.9120  136.4740 S   0  0  0  0  0  0  0  0  0  0  0  0
  186.9110  174.7510  137.2220 C   0  0  0  0  0  2  0  0  0  0  0  0
  185.6740  173.8750  137.1290 C   0  0  1  0  0  3  0  0  0  0  0  0
  185.7450  172.8700  138.0920 O   0  0  0  0  0  1  0  0  0  0  0  0
  184.4400  174.6860  137.3430 C   0  0  0  0  0  0  0  0  0  0  0  0
  184.5220  176.0670  137.4860 O   0  0  0  0  0  1  0  0  0  0  0  0
  183.3180  174.1190  137.3840 O   0  0  0  0  0  0  0  0  0  0  0  0
  1 12  1  1  0  0  0
  2  7  1  6  0  0  0
  2  1  1  0  0  0  0
  3  8  1  0  0  0  0
  4  3  1  0  0  0  0
  5 10  1  0  0  0  0
  5 11  1  0  0  0  0
  6  5  1  0  0  0  0
  8  1  1  0  0  0  0
  9  5  1  0  0  0  0
 10 19  1  6  0  0  0
 10  7  1  0  0  0  0
 11  4  1  6  0  0  0
 11  2  1  0  0  0  0
 12 18  2  0  0  0  0
 12 14  1  0  0  0  0
 14 17  1  1  0  0  0
 14 15  1  0  0  0  0
 15 13  1  0  0  0  0
 16 13  1  0  0  0  0
 18 16  1  0  0  0  0
 19 20  1  0  0  0  0
 21 20  1  0  0  0  0
 21 23  1  0  0  0  0
 21 22  1  1  0  0  0
 23 25  2  0  0  0  0
 23 24  1  0  0  0  0
M  END
>  <MODEL>
7

>  <REMARK>
 VINA RESULT:      -5.9      5.252      8.502
  Name = 
  5 active torsions:
  status: ('A' for Active; 'I' for Inactive)
    1  A    between atoms: C_1  and  C_5
    2  A    between atoms: C_2  and  C_21
    3  A    between atoms: S_6  and  C_15
    4  A    between atoms: S_6  and  C_23
    5  A    between atoms: C_15  and  C_21
                            x       y       z     vdW  Elec       q    Type
                         _______ _______ _______ _____ _____    ______ ____

>  <TORSDO>
F 5

$$$$
=
 OpenBabel11052412433D

 25 27  0  0  1  0  0  0  0  0999 V2000
  184.6580  177.4640  137.4760 C   0  0  1  0  0  3  0  0  0  0  0  0
  185.9520  178.2540  137.7260 C   0  0  1  0  0  3  0  0  0  0  0  0
  186.2420  175.5200  136.9530 C   0  0  0  0  0  2  0  0  0  0  0  0
  186.8260  176.5590  135.9980 C   0  0  0  0  0  2  0  0  0  0  0  0
  188.3330  178.0460  137.5060 C   0  0  0  0  0  0  0  0  0  0  0  0
  189.0550  179.3010  137.0570 C   0  0  0  0  0  1  0  0  0  0  0  0
  186.4540  178.0060  139.0140 O   0  0  0  0  0  0  0  0  0  0  0  0
  184.8660  175.9420  137.4790 C   0  0  0  0  0  2  0  0  0  0  0  0
  189.2920  176.8650  137.3440 C   0  0  0  0  0  1  0  0  0  0  0  0
  187.8320  178.2640  138.9380 C   0  0  1  0  0  3  0  0  0  0  0  0
  187.0440  177.9170  136.7060 C   0  0  2  0  0  3  0  0  0  0  0  0
  183.5280  177.8850  138.3730 C   0  0  0  0  0  0  0  0  0  0  0  0
  181.7650  178.7500  140.4570 C   0  0  0  0  0  2  0  0  0  0  0  0
  183.0660  179.3310  138.4010 C   0  0  1  0  0  3  0  0  0  0  0  0
  181.7420  179.5200  139.1440 C   0  0  0  0  0  2  0  0  0  0  0  0
  181.8790  177.2620  140.1510 C   0  0  0  0  0  2  0  0  0  0  0  0
  184.0370  180.1240  138.9840 F   0  0  0  0  0  0  0  0  0  0  0  0
  183.0310  176.9720  139.2250 C   0  0  0  0  0  3  0  0  0  0  0  0
  188.7530  177.4160  140.2800 S   0  0  0  0  0  0  0  0  0  0  0  0
  188.1650  178.5270  141.6010 C   0  0  0  0  0  2  0  0  0  0  0  0
  187.1990  177.7980  142.5180 C   0  0  1  0  0  3  0  0  0  0  0  0
  187.7420  177.7260  143.7990 O   0  0  0  0  0  1  0  0  0  0  0  0
  185.8890  178.5110  142.5700 C   0  0  0  0  0  0  0  0  0  0  0  0
  185.6420  179.5930  141.7330 O   0  0  0  0  0  0  0  0  0  0  0  0
  184.9980  178.1240  143.3690 O   0  0  0  0  0  1  0  0  0  0  0  0
  1  8  1  0  0  0  0
  1  2  1  0  0  0  0
  1 12  1  1  0  0  0
  2  7  1  1  0  0  0
  3  8  1  0  0  0  0
  4  3  1  0  0  0  0
  5 10  1  0  0  0  0
  6  5  1  0  0  0  0
  9  5  1  0  0  0  0
 10  7  1  0  0  0  0
 10 19  1  1  0  0  0
 11  4  1  1  0  0  0
 11  5  1  0  0  0  0
 11  2  1  0  0  0  0
 12 14  1  0  0  0  0
 12 18  2  0  0  0  0
 14 17  1  1  0  0  0
 14 15  1  0  0  0  0
 15 13  1  0  0  0  0
 16 13  1  0  0  0  0
 18 16  1  0  0  0  0
 19 20  1  0  0  0  0
 20 21  1  0  0  0  0
 21 23  1  0  0  0  0
 21 22  1  1  0  0  0
 23 25  1  0  0  0  0
 24 23  2  0  0  0  0
M  END
>  <MODEL>
8

>  <REMARK>
 VINA RESULT:      -5.8      4.666      7.777
  Name = 
  5 active torsions:
  status: ('A' for Active; 'I' for Inactive)
    1  A    between atoms: C_1  and  C_5
    2  A    between atoms: C_2  and  C_21
    3  A    between atoms: S_6  and  C_15
    4  A    between atoms: S_6  and  C_23
    5  A    between atoms: C_15  and  C_21
                            x       y       z     vdW  Elec       q    Type
                         _______ _______ _______ _____ _____    ______ ____

>  <TORSDO>
F 5

$$$$
=
 OpenBabel11052412433D

 25 27  0  0  1  0  0  0  0  0999 V2000
  181.1750  178.9420  141.2840 C   0  0  1  0  0  3  0  0  0  0  0  0
  181.4720  179.5240  139.8930 C   0  0  1  0  0  3  0  0  0  0  0  0
  179.5250  177.4400  140.0250 C   0  0  0  0  0  2  0  0  0  0  0  0
  179.0310  178.7960  139.5260 C   0  0  0  0  0  2  0  0  0  0  0  0
  180.6910  179.4270  137.6270 C   0  0  0  0  0  0  0  0  0  0  0  0
  180.7060  180.7440  136.8770 C   0  0  0  0  0  1  0  0  0  0  0  0
  182.3800  178.7150  139.1900 O   0  0  0  0  0  0  0  0  0  0  0  0
  180.4580  177.5840  141.2320 C   0  0  0  0  0  2  0  0  0  0  0  0
  179.8250  178.4430  136.8350 C   0  0  0  0  0  1  0  0  0  0  0  0
  182.1400  178.9720  137.8310 C   0  0  1  0  0  3  0  0  0  0  0  0
  180.2050  179.6830  139.0460 C   0  0  2  0  0  3  0  0  0  0  0  0
  182.3780  178.9140  142.1820 C   0  0  0  0  0  0  0  0  0  0  0  0
  184.5300  178.3450  143.9840 C   0  0  0  0  0  2  0  0  0  0  0  0
  183.7500  178.5870  141.6190 C   0  0  1  0  0  3  0  0  0  0  0  0
  184.8840  178.8800  142.6040 C   0  0  0  0  0  2  0  0  0  0  0  0
  183.3060  179.0920  144.5010 C   0  0  0  0  0  2  0  0  0  0  0  0
  183.8000  177.2560  141.2450 F   0  0  0  0  0  0  0  0  0  0  0  0
  182.1790  179.0680  143.5020 C   0  0  0  0  0  3  0  0  0  0  0  0
  182.7410  177.6010  136.7690 S   0  0  0  0  0  0  0  0  0  0  0  0
  184.0370  177.0580  137.9310 C   0  0  0  0  0  2  0  0  0  0  0  0
  185.4050  177.1410  137.2770 C   0  0  1  0  0  3  0  0  0  0  0  0
  185.2520  177.3030  135.9010 O   0  0  0  0  0  1  0  0  0  0  0  0
  186.1820  178.2860  137.8330 C   0  0  0  0  0  0  0  0  0  0  0  0
  187.1130  178.9540  137.0460 O   0  0  0  0  0  0  0  0  0  0  0  0
  185.9860  178.6570  139.0190 O   0  0  0  0  0  1  0  0  0  0  0  0
  1 12  1  6  0  0  0
  2  7  1  6  0  0  0
  2  1  1  0  0  0  0
  3  8  1  0  0  0  0
  4  3  1  0  0  0  0
  5 10  1  0  0  0  0
  5 11  1  0  0  0  0
  6  5  1  0  0  0  0
  8  1  1  0  0  0  0
  9  5  1  0  0  0  0
 10 19  1  6  0  0  0
 10  7  1  0  0  0  0
 11  4  1  1  0  0  0
 11  2  1  0  0  0  0
 12 18  2  0  0  0  0
 13 16  1  0  0  0  0
 14 17  1  1  0  0  0
 14 12  1  0  0  0  0
 14 15  1  0  0  0  0
 15 13  1  0  0  0  0
 18 16  1  0  0  0  0
 19 20  1  0  0  0  0
 21 22  1  6  0  0  0
 21 23  1  0  0  0  0
 21 20  1  0  0  0  0
 23 25  1  0  0  0  0
 24 23  2  0  0  0  0
M  END
>  <MODEL>
9

>  <REMARK>
 VINA RESULT:      -5.7      5.570      9.182
  Name = 
  5 active torsions:
  status: ('A' for Active; 'I' for Inactive)
    1  A    between atoms: C_1  and  C_5
    2  A    between atoms: C_2  and  C_21
    3  A    between atoms: S_6  and  C_15
    4  A    between atoms: S_6  and  C_23
    5  A    between atoms: C_15  and  C_21
                            x       y       z     vdW  Elec       q    Type
                         _______ _______ _______ _____ _____    ______ ____

>  <TORSDO>
F 5

$$$$
