=
 OpenBabel11052413083D

 31 35  0  0  1  0  0  0  0  0999 V2000
  190.2600  177.2910  146.5350 C   0  0  0  0  0  0  0  0  0  0  0  0
  187.4780  177.4110  144.2530 N   0  0  0  0  0  0  0  0  0  0  0  0
  188.3050  177.8510  145.3560 C   0  0  2  0  0  3  0  0  0  0  0  0
  189.5380  177.6400  147.8540 C   0  0  0  0  0  2  0  0  0  0  0  0
  185.6490  178.6110  145.3720 C   0  0  1  0  0  3  0  0  0  0  0  0
  191.6600  176.7890  146.5920 C   0  0  0  0  0  1  0  0  0  0  0  0
  186.0890  177.4340  146.2380 C   0  0  1  0  0  3  0  0  0  0  0  0
  186.0790  177.3080  144.7080 C   0  0  2  0  0  3  0  0  0  0  0  0
  189.6400  177.3150  145.3950 N   0  0  0  0  0  0  0  0  0  0  0  0
  187.5790  177.3410  146.5460 C   0  0  2  0  0  3  0  0  0  0  0  0
  188.1090  178.0260  147.7120 N   0  0  0  0  0  2  0  0  0  0  0  0
  187.8140  177.6670  142.8760 C   0  0  0  0  0  0  0  0  0  0  0  0
  187.1690  178.7460  140.7610 N   0  0  0  0  0  2  0  0  0  0  0  0
  187.2380  178.8980  142.2110 C   0  0  0  0  0  2  0  0  0  0  0  0
  188.5250  178.5180  140.2850 C   0  0  0  0  0  2  0  0  0  0  0  0
  188.9920  177.1430  140.7480 C   0  0  0  0  0  2  0  0  0  0  0  0
  188.7250  176.9070  142.2190 C   0  0  0  0  0  0  0  0  0  0  0  0
  191.7770  176.6150  142.8030 C   0  0  0  0  0  1  0  0  0  0  0  0
  190.7080  175.6500  143.1890 C   0  0  0  0  0  3  0  0  0  0  0  0
  189.4030  175.7960  142.9320 C   0  0  0  0  0  3  0  0  0  0  0  0
  184.1360  178.6970  145.3790 C   0  0  0  0  0  2  0  0  0  0  0  0
  184.2500  180.5620  143.9230 O   0  0  0  0  0  0  0  0  0  0  0  0
  183.6660  179.4790  144.1950 C   0  0  0  0  0  0  0  0  0  0  0  0
  180.3130  178.1230  141.8750 C   0  0  0  0  0  0  0  0  0  0  0  0
  181.2670  178.8290  143.9810 C   0  0  0  0  0  3  0  0  0  0  0  0
  183.8420  178.8970  141.3580 F   0  0  0  0  0  0  0  0  0  0  0  0
  179.1470  177.6530  141.0830 C   0  0  0  0  0  1  0  0  0  0  0  0
  180.1710  178.3900  143.2380 C   0  0  0  0  0  3  0  0  0  0  0  0
  182.6560  178.7380  141.9970 C   0  0  0  0  0  0  0  0  0  0  0  0
  182.5220  179.0100  143.3750 C   0  0  0  0  0  0  0  0  0  0  0  0
  181.5530  178.2980  141.2570 C   0  0  0  0  0  3  0  0  0  0  0  0
  1  6  1  0  0  0  0
  1  4  1  0  0  0  0
  2  8  1  0  0  0  0
  2  3  1  0  0  0  0
  3  9  1  6  0  0  0
  3 10  1  0  0  0  0
  5 21  1  1  0  0  0
  5  7  1  0  0  0  0
  7 10  1  0  0  0  0
  8  5  1  0  0  0  0
  8  7  1  0  0  0  0
  9  1  2  0  0  0  0
 10 11  1  0  0  0  0
 11  4  1  0  0  0  0
 12  2  1  0  0  0  0
 13 14  1  0  0  0  0
 14 12  1  0  0  0  0
 15 16  1  0  0  0  0
 15 13  1  0  0  0  0
 16 17  1  0  0  0  0
 17 12  2  0  0  0  0
 17 20  1  0  0  0  0
 18 19  1  0  0  0  0
 20 19  2  0  0  0  0
 22 23  2  0  0  0  0
 23 21  1  0  0  0  0
 24 28  1  0  0  0  0
 26 29  1  0  0  0  0
 27 24  1  0  0  0  0
 28 25  2  0  0  0  0
 29 30  2  0  0  0  0
 30 25  1  0  0  0  0
 30 23  1  0  0  0  0
 31 24  2  0  0  0  0
 31 29  1  0  0  0  0
M  END
>  <MODEL>
1

>  <REMARK>
 VINA RESULT:      -8.9      0.000      0.000
  Name = 
  5 active torsions:
  status: ('A' for Active; 'I' for Inactive)
    1  A    between atoms: N_4  and  C_5
    2  A    between atoms: C_9  and  C_22
    3  A    between atoms: C_9  and  C_23
    4  A    between atoms: C_15  and  C_23
    5  A    between atoms: C_30  and  C_31
                            x       y       z     vdW  Elec       q    Type
                         _______ _______ _______ _____ _____    ______ ____

>  <TORSDO>
F 5

$$$$
=
 OpenBabel11052413083D

 31 35  0  0  1  0  0  0  0  0999 V2000
  180.7440  178.8820  143.0200 C   0  0  0  0  0  0  0  0  0  0  0  0
  183.6200  178.6970  140.8630 N   0  0  0  0  0  0  0  0  0  0  0  0
  182.8120  178.3830  142.0220 C   0  0  2  0  0  3  0  0  0  0  0  0
  181.4450  178.9330  144.3950 C   0  0  0  0  0  2  0  0  0  0  0  0
  185.5460  178.0500  142.2450 C   0  0  1  0  0  3  0  0  0  0  0  0
  179.2860  179.1700  142.9450 C   0  0  0  0  0  1  0  0  0  0  0  0
  184.9030  179.3040  142.8280 C   0  0  1  0  0  3  0  0  0  0  0  0
  184.9670  179.1030  141.3060 C   0  0  2  0  0  3  0  0  0  0  0  0
  181.4150  178.7100  141.9230 N   0  0  0  0  0  0  0  0  0  0  0  0
  183.4020  179.2370  143.0840 C   0  0  2  0  0  3  0  0  0  0  0  0
  182.9200  178.7440  144.3630 N   0  0  0  0  0  2  0  0  0  0  0  0
  183.3900  178.1070  139.5690 C   0  0  0  0  0  0  0  0  0  0  0  0
  183.7580  176.1780  138.0870 N   0  0  0  0  0  2  0  0  0  0  0  0
  183.4370  176.6000  139.4470 C   0  0  0  0  0  2  0  0  0  0  0  0
  182.7230  176.7120  137.2130 C   0  0  0  0  0  2  0  0  0  0  0  0
  182.8630  178.2280  137.1410 C   0  0  0  0  0  2  0  0  0  0  0  0
  183.0110  178.8600  138.5080 C   0  0  0  0  0  0  0  0  0  0  0  0
  180.3070  180.3770  138.8700 C   0  0  0  0  0  1  0  0  0  0  0  0
  181.6660  180.9910  138.8320 C   0  0  0  0  0  3  0  0  0  0  0  0
  182.8140  180.3220  138.6780 C   0  0  0  0  0  3  0  0  0  0  0  0
  187.0540  178.1940  142.2930 C   0  0  0  0  0  2  0  0  0  0  0  0
  187.9420  176.0330  142.6820 O   0  0  0  0  0  0  0  0  0  0  0  0
  187.6360  177.1460  143.1860 C   0  0  0  0  0  0  0  0  0  0  0  0
  188.1100  177.8780  147.3930 C   0  0  0  0  0  0  0  0  0  0  0  0
  186.7000  177.6360  145.4460 C   0  0  0  0  0  3  0  0  0  0  0  0
  190.2220  177.1750  144.5010 F   0  0  0  0  0  0  0  0  0  0  0  0
  188.2630  178.1340  148.8490 C   0  0  0  0  0  1  0  0  0  0  0  0
  186.8410  177.8740  146.8140 C   0  0  0  0  0  3  0  0  0  0  0  0
  189.1030  177.4030  145.2320 C   0  0  0  0  0  0  0  0  0  0  0  0
  187.8230  177.3970  144.6360 C   0  0  0  0  0  0  0  0  0  0  0  0
  189.2380  177.6420  146.6040 C   0  0  0  0  0  3  0  0  0  0  0  0
  1  4  1  0  0  0  0
  2  8  1  0  0  0  0
  2  3  1  0  0  0  0
  3  9  1  6  0  0  0
  3 10  1  0  0  0  0
  5 21  1  6  0  0  0
  5  7  1  0  0  0  0
  6  1  1  0  0  0  0
  7 10  1  0  0  0  0
  8  5  1  0  0  0  0
  8  7  1  0  0  0  0
  9  1  2  0  0  0  0
 10 11  1  0  0  0  0
 11  4  1  0  0  0  0
 12  2  1  0  0  0  0
 13 14  1  0  0  0  0
 14 12  1  0  0  0  0
 15 13  1  0  0  0  0
 16 15  1  0  0  0  0
 16 17  1  0  0  0  0
 17 20  1  0  0  0  0
 17 12  2  0  0  0  0
 19 18  1  0  0  0  0
 20 19  2  0  0  0  0
 21 23  1  0  0  0  0
 22 23  2  0  0  0  0
 23 30  1  0  0  0  0
 24 27  1  0  0  0  0
 25 28  2  0  0  0  0
 26 29  1  0  0  0  0
 28 24  1  0  0  0  0
 29 31  1  0  0  0  0
 30 29  2  0  0  0  0
 30 25  1  0  0  0  0
 31 24  2  0  0  0  0
M  END
>  <MODEL>
2

>  <REMARK>
 VINA RESULT:      -8.9      3.175      7.738
  Name = 
  5 active torsions:
  status: ('A' for Active; 'I' for Inactive)
    1  A    between atoms: N_4  and  C_5
    2  A    between atoms: C_9  and  C_22
    3  A    between atoms: C_9  and  C_23
    4  A    between atoms: C_15  and  C_23
    5  A    between atoms: C_30  and  C_31
                            x       y       z     vdW  Elec       q    Type
                         _______ _______ _______ _____ _____    ______ ____

>  <TORSDO>
F 5

$$$$
=
 OpenBabel11052413083D

 31 35  0  0  1  0  0  0  0  0999 V2000
  186.5550  177.6250  136.7080 C   0  0  0  0  0  0  0  0  0  0  0  0
  189.6770  176.5050  138.1080 N   0  0  0  0  0  0  0  0  0  0  0  0
  188.2600  176.8020  138.1000 C   0  0  2  0  0  3  0  0  0  0  0  0
  186.0040  178.4370  137.9000 C   0  0  0  0  0  2  0  0  0  0  0  0
  189.5490  176.8030  140.5440 C   0  0  1  0  0  3  0  0  0  0  0  0
  185.8810  177.7410  135.3860 C   0  0  0  0  0  1  0  0  0  0  0  0
  189.2660  178.1340  139.8550 C   0  0  1  0  0  3  0  0  0  0  0  0
  190.3030  177.1650  139.2690 C   0  0  2  0  0  3  0  0  0  0  0  0
  187.6540  176.9410  136.8030 N   0  0  0  0  0  0  0  0  0  0  0  0
  188.1890  178.1210  138.7760 C   0  0  2  0  0  3  0  0  0  0  0  0
  186.8040  178.3490  139.1510 N   0  0  0  0  0  2  0  0  0  0  0  0
  190.2270  175.3090  137.5240 C   0  0  0  0  0  0  0  0  0  0  0  0
  189.8210  172.9920  136.8020 N   0  0  0  0  0  2  0  0  0  0  0  0
  189.2850  174.3500  136.8290 C   0  0  0  0  0  2  0  0  0  0  0  0
  191.0890  173.0420  136.0900 C   0  0  0  0  0  2  0  0  0  0  0  0
  192.1090  173.7920  136.9380 C   0  0  0  0  0  2  0  0  0  0  0  0
  191.5650  175.0970  137.4760 C   0  0  0  0  0  0  0  0  0  0  0  0
  194.0030  176.4080  136.0350 C   0  0  0  0  0  1  0  0  0  0  0  0
  193.5400  176.6940  137.4240 C   0  0  0  0  0  3  0  0  0  0  0  0
  192.4890  176.1230  138.0220 C   0  0  0  0  0  3  0  0  0  0  0  0
  190.4440  177.0420  141.7440 C   0  0  0  0  0  2  0  0  0  0  0  0
  190.4070  175.0230  142.9810 O   0  0  0  0  0  0  0  0  0  0  0  0
  189.9850  176.2070  142.8950 C   0  0  0  0  0  0  0  0  0  0  0  0
  187.1760  177.7560  145.7530 C   0  0  0  0  0  0  0  0  0  0  0  0
  187.6710  176.8530  143.5660 C   0  0  0  0  0  3  0  0  0  0  0  0
  190.7550  177.0700  145.5550 F   0  0  0  0  0  0  0  0  0  0  0  0
  186.1960  178.2930  146.7330 C   0  0  0  0  0  1  0  0  0  0  0  0
  186.7490  177.3540  144.4870 C   0  0  0  0  0  3  0  0  0  0  0  0
  189.4540  177.1550  145.1800 C   0  0  0  0  0  0  0  0  0  0  0  0
  189.0320  176.7450  143.8970 C   0  0  0  0  0  0  0  0  0  0  0  0
  188.5250  177.6560  146.0980 C   0  0  0  0  0  3  0  0  0  0  0  0
  1  9  2  0  0  0  0
  1  4  1  0  0  0  0
  2  8  1  0  0  0  0
  3  9  1  6  0  0  0
  3  2  1  0  0  0  0
  3 10  1  0  0  0  0
  4 11  1  0  0  0  0
  5 21  1  1  0  0  0
  6  1  1  0  0  0  0
  7  5  1  0  0  0  0
  8  7  1  0  0  0  0
  8  5  1  0  0  0  0
 10 11  1  0  0  0  0
 10  7  1  0  0  0  0
 12  2  1  0  0  0  0
 13 14  1  0  0  0  0
 14 12  1  0  0  0  0
 15 13  1  0  0  0  0
 15 16  1  0  0  0  0
 16 17  1  0  0  0  0
 17 12  2  0  0  0  0
 17 20  1  0  0  0  0
 18 19  1  0  0  0  0
 19 20  2  0  0  0  0
 21 23  1  0  0  0  0
 23 22  2  0  0  0  0
 23 30  1  0  0  0  0
 24 31  1  0  0  0  0
 24 27  1  0  0  0  0
 25 30  2  0  0  0  0
 25 28  1  0  0  0  0
 28 24  2  0  0  0  0
 29 26  1  0  0  0  0
 29 31  2  0  0  0  0
 30 29  1  0  0  0  0
M  END
>  <MODEL>
3

>  <REMARK>
 VINA RESULT:      -8.4      4.431      7.819
  Name = 
  5 active torsions:
  status: ('A' for Active; 'I' for Inactive)
    1  A    between atoms: N_4  and  C_5
    2  A    between atoms: C_9  and  C_22
    3  A    between atoms: C_9  and  C_23
    4  A    between atoms: C_15  and  C_23
    5  A    between atoms: C_30  and  C_31
                            x       y       z     vdW  Elec       q    Type
                         _______ _______ _______ _____ _____    ______ ____

>  <TORSDO>
F 5

$$$$
=
 OpenBabel11052413083D

 31 35  0  0  1  0  0  0  0  0999 V2000
  180.9410  179.2470  136.6160 C   0  0  0  0  0  0  0  0  0  0  0  0
  183.9810  177.8490  137.9460 N   0  0  0  0  0  0  0  0  0  0  0  0
  182.6210  178.3440  137.9900 C   0  0  2  0  0  3  0  0  0  0  0  0
  180.6000  180.2550  137.7350 C   0  0  0  0  0  2  0  0  0  0  0  0
  184.0840  178.4280  140.3320 C   0  0  1  0  0  3  0  0  0  0  0  0
  180.1880  179.3130  135.3340 C   0  0  0  0  0  1  0  0  0  0  0  0
  183.9310  179.7020  139.5080 C   0  0  1  0  0  3  0  0  0  0  0  0
  184.7780  178.5350  138.9790 C   0  0  2  0  0  3  0  0  0  0  0  0
  181.9400  178.4260  136.7250 N   0  0  0  0  0  0  0  0  0  0  0  0
  182.7820  179.7260  138.5060 C   0  0  2  0  0  3  0  0  0  0  0  0
  181.4740  180.1910  138.9350 N   0  0  0  0  0  2  0  0  0  0  0  0
  184.3150  176.5290  137.4770 C   0  0  0  0  0  0  0  0  0  0  0  0
  184.2210  174.1060  137.8940 N   0  0  0  0  0  2  0  0  0  0  0  0
  183.4800  175.3620  137.9550 C   0  0  0  0  0  2  0  0  0  0  0  0
  184.6080  173.9000  136.5060 C   0  0  0  0  0  2  0  0  0  0  0  0
  185.6600  174.9340  136.1220 C   0  0  0  0  0  2  0  0  0  0  0  0
  185.2670  176.3370  136.5310 C   0  0  0  0  0  0  0  0  0  0  0  0
  188.0490  177.4770  137.3710 C   0  0  0  0  0  1  0  0  0  0  0  0
  187.1620  178.0140  136.2990 C   0  0  0  0  0  3  0  0  0  0  0  0
  185.9730  177.5080  135.9530 C   0  0  0  0  0  3  0  0  0  0  0  0
  185.0930  178.6660  141.4380 C   0  0  0  0  0  2  0  0  0  0  0  0
  183.1850  178.4930  142.8290 O   0  0  0  0  0  0  0  0  0  0  0  0
  184.4430  178.4750  142.7700 C   0  0  0  0  0  0  0  0  0  0  0  0
  186.8490  177.9360  146.2890 C   0  0  0  0  0  0  0  0  0  0  0  0
  186.5220  177.6940  143.9060 C   0  0  0  0  0  3  0  0  0  0  0  0
  183.5850  179.3130  145.4110 F   0  0  0  0  0  0  0  0  0  0  0  0
  187.6880  177.7430  147.4990 C   0  0  0  0  0  1  0  0  0  0  0  0
  187.3120  177.5150  145.0420 C   0  0  0  0  0  3  0  0  0  0  0  0
  184.7960  178.7210  145.2630 C   0  0  0  0  0  0  0  0  0  0  0  0
  185.2560  178.2980  143.9980 C   0  0  0  0  0  0  0  0  0  0  0  0
  185.5940  178.5380  146.3980 C   0  0  0  0  0  3  0  0  0  0  0  0
  1  9  2  0  0  0  0
  1  4  1  0  0  0  0
  2  3  1  0  0  0  0
  2  8  1  0  0  0  0
  3  9  1  6  0  0  0
  3 10  1  0  0  0  0
  4 11  1  0  0  0  0
  5 21  1  1  0  0  0
  6  1  1  0  0  0  0
  7  5  1  0  0  0  0
  8  7  1  0  0  0  0
  8  5  1  0  0  0  0
 10 11  1  0  0  0  0
 10  7  1  0  0  0  0
 12  2  1  0  0  0  0
 12 14  1  0  0  0  0
 13 14  1  0  0  0  0
 15 13  1  0  0  0  0
 16 15  1  0  0  0  0
 16 17  1  0  0  0  0
 17 12  2  0  0  0  0
 19 18  1  0  0  0  0
 20 19  2  0  0  0  0
 20 17  1  0  0  0  0
 21 23  1  0  0  0  0
 23 22  2  0  0  0  0
 23 30  1  0  0  0  0
 24 31  1  0  0  0  0
 24 27  1  0  0  0  0
 25 30  2  0  0  0  0
 25 28  1  0  0  0  0
 28 24  2  0  0  0  0
 29 26  1  0  0  0  0
 29 31  2  0  0  0  0
 30 29  1  0  0  0  0
M  END
>  <MODEL>
4

>  <REMARK>
 VINA RESULT:      -8.3      4.107      8.147
  Name = 
  5 active torsions:
  status: ('A' for Active; 'I' for Inactive)
    1  A    between atoms: N_4  and  C_5
    2  A    between atoms: C_9  and  C_22
    3  A    between atoms: C_9  and  C_23
    4  A    between atoms: C_15  and  C_23
    5  A    between atoms: C_30  and  C_31
                            x       y       z     vdW  Elec       q    Type
                         _______ _______ _______ _____ _____    ______ ____

>  <TORSDO>
F 5

$$$$
=
 OpenBabel11052413083D

 31 35  0  0  1  0  0  0  0  0999 V2000
  185.4130  178.6240  139.5460 C   0  0  0  0  0  0  0  0  0  0  0  0
  188.9370  177.8920  139.4380 N   0  0  0  0  0  0  0  0  0  0  0  0
  187.5840  177.8210  139.9510 C   0  0  2  0  0  3  0  0  0  0  0  0
  185.2300  178.8300  141.0650 C   0  0  0  0  0  2  0  0  0  0  0  0
  189.6470  177.3160  141.7190 C   0  0  1  0  0  3  0  0  0  0  0  0
  184.3060  179.0090  138.6290 C   0  0  0  0  0  1  0  0  0  0  0  0
  188.9840  178.6900  141.7260 C   0  0  1  0  0  3  0  0  0  0  0  0
  189.8520  178.2550  140.5360 C   0  0  2  0  0  3  0  0  0  0  0  0
  186.5460  178.2360  139.0460 N   0  0  0  0  0  0  0  0  0  0  0  0
  187.6040  178.7780  141.0850 C   0  0  2  0  0  3  0  0  0  0  0  0
  186.4260  178.5240  141.8950 N   0  0  0  0  0  2  0  0  0  0  0  0
  189.3790  177.1320  138.2970 C   0  0  0  0  0  0  0  0  0  0  0  0
  190.7510  175.2650  137.4680 N   0  0  0  0  0  2  0  0  0  0  0  0
  189.8350  175.7060  138.5160 C   0  0  0  0  0  2  0  0  0  0  0  0
  190.0420  175.3690  136.2020 C   0  0  0  0  0  2  0  0  0  0  0  0
  189.8260  176.8400  135.8680 C   0  0  0  0  0  2  0  0  0  0  0  0
  189.2720  177.6230  137.0380 C   0  0  0  0  0  0  0  0  0  0  0  0
  186.6470  178.3020  135.4910 C   0  0  0  0  0  1  0  0  0  0  0  0
  187.5550  179.2770  136.1610 C   0  0  0  0  0  3  0  0  0  0  0  0
  188.6750  178.9650  136.8220 C   0  0  0  0  0  3  0  0  0  0  0  0
  190.8740  177.3480  142.6070 C   0  0  0  0  0  2  0  0  0  0  0  0
  191.1110  175.1770  143.5230 O   0  0  0  0  0  0  0  0  0  0  0  0
  190.7240  176.3600  143.7180 C   0  0  0  0  0  0  0  0  0  0  0  0
  188.8800  177.5020  147.4260 C   0  0  0  0  0  0  0  0  0  0  0  0
  188.7560  177.1330  145.0410 C   0  0  0  0  0  3  0  0  0  0  0  0
  192.1490  176.3900  146.2450 F   0  0  0  0  0  0  0  0  0  0  0  0
  188.2320  177.9010  148.7030 C   0  0  0  0  0  1  0  0  0  0  0  0
  188.1460  177.5050  146.2400 C   0  0  0  0  0  3  0  0  0  0  0  0
  190.8420  176.7520  146.2150 C   0  0  0  0  0  0  0  0  0  0  0  0
  190.1080  176.7510  145.0090 C   0  0  0  0  0  0  0  0  0  0  0  0
  190.2240  177.1260  147.4130 C   0  0  0  0  0  3  0  0  0  0  0  0
  1  4  1  0  0  0  0
  2  3  1  0  0  0  0
  2  8  1  0  0  0  0
  3  9  1  6  0  0  0
  3 10  1  0  0  0  0
  4 11  1  0  0  0  0
  5  7  1  0  0  0  0
  5 21  1  1  0  0  0
  6  1  1  0  0  0  0
  8  5  1  0  0  0  0
  8  7  1  0  0  0  0
  9  1  2  0  0  0  0
 10  7  1  0  0  0  0
 10 11  1  0  0  0  0
 12 14  1  0  0  0  0
 12  2  1  0  0  0  0
 13 14  1  0  0  0  0
 15 13  1  0  0  0  0
 16 15  1  0  0  0  0
 16 17  1  0  0  0  0
 17 12  2  0  0  0  0
 18 19  1  0  0  0  0
 19 20  2  0  0  0  0
 20 17  1  0  0  0  0
 21 23  1  0  0  0  0
 22 23  2  0  0  0  0
 23 30  1  0  0  0  0
 24 27  1  0  0  0  0
 25 28  1  0  0  0  0
 28 24  2  0  0  0  0
 29 26  1  0  0  0  0
 29 31  2  0  0  0  0
 30 25  2  0  0  0  0
 30 29  1  0  0  0  0
 31 24  1  0  0  0  0
M  END
>  <MODEL>
5

>  <REMARK>
 VINA RESULT:      -8.2      3.862      7.710
  Name = 
  5 active torsions:
  status: ('A' for Active; 'I' for Inactive)
    1  A    between atoms: N_4  and  C_5
    2  A    between atoms: C_9  and  C_22
    3  A    between atoms: C_9  and  C_23
    4  A    between atoms: C_15  and  C_23
    5  A    between atoms: C_30  and  C_31
                            x       y       z     vdW  Elec       q    Type
                         _______ _______ _______ _____ _____    ______ ____

>  <TORSDO>
F 5

$$$$
=
 OpenBabel11052413083D

 31 35  0  0  1  0  0  0  0  0999 V2000
  190.5620  175.9710  138.6960 C   0  0  0  0  0  0  0  0  0  0  0  0
  189.3780  177.9800  141.4400 N   0  0  0  0  0  0  0  0  0  0  0  0
  189.2870  176.9900  140.3870 C   0  0  2  0  0  3  0  0  0  0  0  0
  189.3440  176.0660  137.7510 C   0  0  0  0  0  2  0  0  0  0  0  0
  186.9440  178.2110  141.1960 C   0  0  1  0  0  3  0  0  0  0  0  0
  191.8330  175.3970  138.1760 C   0  0  0  0  0  1  0  0  0  0  0  0
  187.6290  178.6930  139.9210 C   0  0  1  0  0  3  0  0  0  0  0  0
  188.2760  178.9470  141.2910 C   0  0  2  0  0  3  0  0  0  0  0  0
  190.5380  176.4860  139.8870 N   0  0  0  0  0  0  0  0  0  0  0  0
  188.6260  177.7320  139.2840 C   0  0  2  0  0  3  0  0  0  0  0  0
  188.1550  176.7550  138.3180 N   0  0  0  0  0  2  0  0  0  0  0  0
  189.9840  177.7050  142.7170 C   0  0  0  0  0  0  0  0  0  0  0  0
  192.0550  177.6240  144.0430 N   0  0  0  0  0  2  0  0  0  0  0  0
  191.2970  178.3790  143.0510 C   0  0  0  0  0  2  0  0  0  0  0  0
  191.2300  177.5300  145.2390 C   0  0  0  0  0  2  0  0  0  0  0  0
  190.0410  176.6200  144.9550 C   0  0  0  0  0  2  0  0  0  0  0  0
  189.3440  176.9680  143.6570 C   0  0  0  0  0  0  0  0  0  0  0  0
  186.6830  177.7300  145.0990 C   0  0  0  0  0  1  0  0  0  0  0  0
  186.8340  176.7520  143.9830 C   0  0  0  0  0  3  0  0  0  0  0  0
  187.9840  176.4410  143.3770 C   0  0  0  0  0  3  0  0  0  0  0  0
  185.8170  179.1610  141.5470 C   0  0  0  0  0  2  0  0  0  0  0  0
  184.4950  178.2200  139.8220 O   0  0  0  0  0  0  0  0  0  0  0  0
  184.5240  178.6370  141.0100 C   0  0  0  0  0  0  0  0  0  0  0  0
  181.0090  178.6290  143.4800 C   0  0  0  0  0  0  0  0  0  0  0  0
  183.4140  178.6300  143.2440 C   0  0  0  0  0  3  0  0  0  0  0  0
  181.8340  178.6390  139.9250 F   0  0  0  0  0  0  0  0  0  0  0  0
  179.7990  178.6240  144.3430 C   0  0  0  0  0  1  0  0  0  0  0  0
  182.2790  178.6290  144.0560 C   0  0  0  0  0  3  0  0  0  0  0  0
  182.0070  178.6330  141.2700 C   0  0  0  0  0  0  0  0  0  0  0  0
  183.2970  178.6330  141.8440 C   0  0  0  0  0  0  0  0  0  0  0  0
  180.8740  178.6310  142.0900 C   0  0  0  0  0  3  0  0  0  0  0  0
  1  9  2  0  0  0  0
  2 12  1  0  0  0  0
  3  9  1  6  0  0  0
  3  2  1  0  0  0  0
  4 11  1  0  0  0  0
  4  1  1  0  0  0  0
  5  8  1  0  0  0  0
  5 21  1  1  0  0  0
  6  1  1  0  0  0  0
  7  5  1  0  0  0  0
  7  8  1  0  0  0  0
  8  2  1  0  0  0  0
 10  7  1  0  0  0  0
 10  3  1  0  0  0  0
 11 10  1  0  0  0  0
 12 14  1  0  0  0  0
 12 17  2  0  0  0  0
 13 15  1  0  0  0  0
 14 13  1  0  0  0  0
 16 15  1  0  0  0  0
 17 16  1  0  0  0  0
 19 18  1  0  0  0  0
 20 17  1  0  0  0  0
 20 19  2  0  0  0  0
 22 23  2  0  0  0  0
 23 21  1  0  0  0  0
 23 30  1  0  0  0  0
 24 28  1  0  0  0  0
 24 27  1  0  0  0  0
 25 28  2  0  0  0  0
 26 29  1  0  0  0  0
 29 30  2  0  0  0  0
 29 31  1  0  0  0  0
 30 25  1  0  0  0  0
 31 24  2  0  0  0  0
M  END
>  <MODEL>
6

>  <REMARK>
 VINA RESULT:      -8.1      2.133      5.049
  Name = 
  5 active torsions:
  status: ('A' for Active; 'I' for Inactive)
    1  A    between atoms: N_4  and  C_5
    2  A    between atoms: C_9  and  C_22
    3  A    between atoms: C_9  and  C_23
    4  A    between atoms: C_15  and  C_23
    5  A    between atoms: C_30  and  C_31
                            x       y       z     vdW  Elec       q    Type
                         _______ _______ _______ _____ _____    ______ ____

>  <TORSDO>
F 5

$$$$
=
 OpenBabel11052413083D

 31 35  0  0  1  0  0  0  0  0999 V2000
  184.5310  178.9820  139.8290 C   0  0  0  0  0  0  0  0  0  0  0  0
  188.0480  178.4730  139.2510 N   0  0  0  0  0  0  0  0  0  0  0  0
  186.7560  178.2270  139.8570 C   0  0  2  0  0  3  0  0  0  0  0  0
  184.4940  178.8600  141.3680 C   0  0  0  0  0  2  0  0  0  0  0  0
  188.9990  177.4750  141.2850 C   0  0  1  0  0  3  0  0  0  0  0  0
  183.3260  179.4900  139.1180 C   0  0  0  0  0  1  0  0  0  0  0  0
  188.2970  178.7820  141.6410 C   0  0  1  0  0  3  0  0  0  0  0  0
  189.0550  178.6480  140.3130 C   0  0  2  0  0  3  0  0  0  0  0  0
  185.6200  178.7650  139.1580 N   0  0  0  0  0  0  0  0  0  0  0  0
  186.8580  178.9290  141.1610 C   0  0  2  0  0  3  0  0  0  0  0  0
  185.7750  178.4520  142.0030 N   0  0  0  0  0  2  0  0  0  0  0  0
  188.3980  177.9880  137.9400 C   0  0  0  0  0  0  0  0  0  0  0  0
  187.7250  177.7320  135.5870 N   0  0  0  0  0  2  0  0  0  0  0  0
  187.7450  178.6320  136.7370 C   0  0  0  0  0  2  0  0  0  0  0  0
  189.1060  177.3950  135.2780 C   0  0  0  0  0  2  0  0  0  0  0  0
  189.6660  176.5150  136.3890 C   0  0  0  0  0  2  0  0  0  0  0  0
  189.3810  177.0710  137.7660 C   0  0  0  0  0  0  0  0  0  0  0  0
  192.4200  176.3780  137.9340 C   0  0  0  0  0  1  0  0  0  0  0  0
  191.4240  176.2560  139.0380 C   0  0  0  0  0  3  0  0  0  0  0  0
  190.1250  176.5610  138.9460 C   0  0  0  0  0  3  0  0  0  0  0  0
  190.3070  177.3870  142.0450 C   0  0  0  0  0  2  0  0  0  0  0  0
  190.4270  175.1610  142.8440 O   0  0  0  0  0  0  0  0  0  0  0  0
  190.1970  176.3660  143.1310 C   0  0  0  0  0  0  0  0  0  0  0  0
  188.9760  177.4990  147.0910 C   0  0  0  0  0  0  0  0  0  0  0  0
  188.4680  177.1340  144.7570 C   0  0  0  0  0  3  0  0  0  0  0  0
  192.0120  176.3930  145.3940 F   0  0  0  0  0  0  0  0  0  0  0  0
  188.5440  177.8950  148.4570 C   0  0  0  0  0  1  0  0  0  0  0  0
  188.0600  177.5030  146.0390 C   0  0  0  0  0  3  0  0  0  0  0  0
  190.7170  176.7540  145.5760 C   0  0  0  0  0  0  0  0  0  0  0  0
  189.7970  176.7540  144.5050 C   0  0  0  0  0  0  0  0  0  0  0  0
  190.3010  177.1250  146.8600 C   0  0  0  0  0  3  0  0  0  0  0  0
  1  4  1  0  0  0  0
  2  3  1  0  0  0  0
  2  8  1  0  0  0  0
  3  9  1  6  0  0  0
  3 10  1  0  0  0  0
  4 11  1  0  0  0  0
  5  7  1  0  0  0  0
  5 21  1  1  0  0  0
  6  1  1  0  0  0  0
  8  5  1  0  0  0  0
  8  7  1  0  0  0  0
  9  1  2  0  0  0  0
 10  7  1  0  0  0  0
 10 11  1  0  0  0  0
 12  2  1  0  0  0  0
 13 14  1  0  0  0  0
 14 12  1  0  0  0  0
 15 13  1  0  0  0  0
 15 16  1  0  0  0  0
 16 17  1  0  0  0  0
 17 12  2  0  0  0  0
 17 20  1  0  0  0  0
 18 19  1  0  0  0  0
 20 19  2  0  0  0  0
 21 23  1  0  0  0  0
 22 23  2  0  0  0  0
 23 30  1  0  0  0  0
 24 27  1  0  0  0  0
 25 28  1  0  0  0  0
 26 29  1  0  0  0  0
 28 24  2  0  0  0  0
 29 31  2  0  0  0  0
 30 25  2  0  0  0  0
 30 29  1  0  0  0  0
 31 24  1  0  0  0  0
M  END
>  <MODEL>
7

>  <REMARK>
 VINA RESULT:      -7.9      3.576      7.294
  Name = 
  5 active torsions:
  status: ('A' for Active; 'I' for Inactive)
    1  A    between atoms: N_4  and  C_5
    2  A    between atoms: C_9  and  C_22
    3  A    between atoms: C_9  and  C_23
    4  A    between atoms: C_15  and  C_23
    5  A    between atoms: C_30  and  C_31
                            x       y       z     vdW  Elec       q    Type
                         _______ _______ _______ _____ _____    ______ ____

>  <TORSDO>
F 5

$$$$
=
 OpenBabel11052413083D

 31 35  0  0  1  0  0  0  0  0999 V2000
  184.6580  179.0000  143.7660 C   0  0  0  0  0  0  0  0  0  0  0  0
  187.6660  177.3180  144.8100 N   0  0  0  0  0  0  0  0  0  0  0  0
  186.8680  178.2480  144.0380 C   0  0  2  0  0  3  0  0  0  0  0  0
  184.8720  179.0020  142.2370 C   0  0  0  0  0  2  0  0  0  0  0  0
  189.2430  177.3760  142.9260 C   0  0  1  0  0  3  0  0  0  0  0  0
  183.3260  179.3820  144.3070 C   0  0  0  0  0  1  0  0  0  0  0  0
  187.9330  176.7390  142.4710 C   0  0  1  0  0  3  0  0  0  0  0  0
  188.4650  176.4870  143.8900 C   0  0  2  0  0  3  0  0  0  0  0  0
  185.5720  178.5640  144.5770 N   0  0  0  0  0  0  0  0  0  0  0  0
  186.6620  177.5310  142.7560 C   0  0  2  0  0  3  0  0  0  0  0  0
  186.1950  178.5010  141.7800 N   0  0  0  0  0  2  0  0  0  0  0  0
  188.0930  177.5890  146.1580 C   0  0  0  0  0  0  0  0  0  0  0  0
  187.5560  178.6270  148.3230 N   0  0  0  0  0  2  0  0  0  0  0  0
  187.0370  177.8350  147.2130 C   0  0  0  0  0  2  0  0  0  0  0  0
  188.6670  177.8860  148.9010 C   0  0  0  0  0  2  0  0  0  0  0  0
  189.8300  177.8790  147.9160 C   0  0  0  0  0  2  0  0  0  0  0  0
  189.3980  177.5020  146.5150 C   0  0  0  0  0  0  0  0  0  0  0  0
  192.0540  175.9370  147.0070 C   0  0  0  0  0  1  0  0  0  0  0  0
  191.5540  176.4370  145.6940 C   0  0  0  0  0  3  0  0  0  0  0  0
  190.4100  177.1040  145.5040 C   0  0  0  0  0  3  0  0  0  0  0  0
  190.4050  176.5960  142.3470 C   0  0  0  0  0  2  0  0  0  0  0  0
  192.0170  178.1360  141.5490 O   0  0  0  0  0  0  0  0  0  0  0  0
  191.0520  177.3830  141.2530 C   0  0  0  0  0  0  0  0  0  0  0  0
  189.6510  177.1040  137.2010 C   0  0  0  0  0  0  0  0  0  0  0  0
  191.1480  176.3990  138.9620 C   0  0  0  0  0  3  0  0  0  0  0  0
  188.8770  179.0020  140.2210 F   0  0  0  0  0  0  0  0  0  0  0  0
  189.1760  177.0010  135.7970 C   0  0  0  0  0  1  0  0  0  0  0  0
  190.7010  176.2990  137.6440 C   0  0  0  0  0  3  0  0  0  0  0  0
  189.4910  178.1140  139.4010 C   0  0  0  0  0  0  0  0  0  0  0  0
  190.5530  177.3030  139.8590 C   0  0  0  0  0  0  0  0  0  0  0  0
  189.0480  178.0080  138.0780 C   0  0  0  0  0  3  0  0  0  0  0  0
  1  6  1  0  0  0  0
  1  9  2  0  0  0  0
  2 12  1  0  0  0  0
  3  9  1  1  0  0  0
  3  2  1  0  0  0  0
  4  1  1  0  0  0  0
  5 21  1  6  0  0  0
  5  8  1  0  0  0  0
  7 10  1  0  0  0  0
  7  5  1  0  0  0  0
  7  8  1  0  0  0  0
  8  2  1  0  0  0  0
 10  3  1  0  0  0  0
 11  4  1  0  0  0  0
 11 10  1  0  0  0  0
 12 17  2  0  0  0  0
 12 14  1  0  0  0  0
 13 15  1  0  0  0  0
 14 13  1  0  0  0  0
 16 15  1  0  0  0  0
 17 16  1  0  0  0  0
 19 18  1  0  0  0  0
 20 19  2  0  0  0  0
 20 17  1  0  0  0  0
 23 22  2  0  0  0  0
 23 21  1  0  0  0  0
 24 28  2  0  0  0  0
 24 31  1  0  0  0  0
 25 30  2  0  0  0  0
 27 24  1  0  0  0  0
 28 25  1  0  0  0  0
 29 30  1  0  0  0  0
 29 26  1  0  0  0  0
 30 23  1  0  0  0  0
 31 29  2  0  0  0  0
M  END
>  <MODEL>
8

>  <REMARK>
 VINA RESULT:      -7.9      2.647      6.981
  Name = 
  5 active torsions:
  status: ('A' for Active; 'I' for Inactive)
    1  A    between atoms: N_4  and  C_5
    2  A    between atoms: C_9  and  C_22
    3  A    between atoms: C_9  and  C_23
    4  A    between atoms: C_15  and  C_23
    5  A    between atoms: C_30  and  C_31
                            x       y       z     vdW  Elec       q    Type
                         _______ _______ _______ _____ _____    ______ ____

>  <TORSDO>
F 5

$$$$
=
 OpenBabel11052413083D

 31 35  0  0  1  0  0  0  0  0999 V2000
  181.2940  178.9330  142.1080 C   0  0  0  0  0  0  0  0  0  0  0  0
  184.4120  178.4340  140.3760 N   0  0  0  0  0  0  0  0  0  0  0  0
  183.4490  178.2690  141.4450 C   0  0  2  0  0  3  0  0  0  0  0  0
  181.8160  179.1080  143.5500 C   0  0  0  0  0  2  0  0  0  0  0  0
  186.1150  177.8780  142.0580 C   0  0  1  0  0  3  0  0  0  0  0  0
  179.8720  179.2560  141.8130 C   0  0  0  0  0  1  0  0  0  0  0  0
  185.4580  179.2060  142.4210 C   0  0  1  0  0  3  0  0  0  0  0  0
  185.7070  178.8430  140.9500 C   0  0  2  0  0  3  0  0  0  0  0  0
  182.0920  178.6260  141.1310 N   0  0  0  0  0  0  0  0  0  0  0  0
  183.9350  179.2120  142.4840 C   0  0  2  0  0  3  0  0  0  0  0  0
  183.2730  178.8720  143.7310 N   0  0  0  0  0  2  0  0  0  0  0  0
  184.3220  177.7180  139.1300 C   0  0  0  0  0  0  0  0  0  0  0  0
  183.2490  175.8970  137.8690 N   0  0  0  0  0  2  0  0  0  0  0  0
  183.0330  176.9960  138.8050 C   0  0  0  0  0  2  0  0  0  0  0  0
  183.8140  176.4690  136.6550 C   0  0  0  0  0  2  0  0  0  0  0  0
  185.2300  176.9540  136.9430 C   0  0  0  0  0  2  0  0  0  0  0  0
  185.3100  177.7870  138.2040 C   0  0  0  0  0  0  0  0  0  0  0  0
  188.2860  176.8580  138.3480 C   0  0  0  0  0  1  0  0  0  0  0  0
  187.7860  178.2500  138.5370 C   0  0  0  0  0  3  0  0  0  0  0  0
  186.5050  178.6280  138.4680 C   0  0  0  0  0  3  0  0  0  0  0  0
  187.6100  177.9800  142.2890 C   0  0  0  0  0  2  0  0  0  0  0  0
  188.3040  175.7850  142.8440 O   0  0  0  0  0  0  0  0  0  0  0  0
  188.0440  176.9410  143.2720 C   0  0  0  0  0  0  0  0  0  0  0  0
  188.2490  177.8520  147.4660 C   0  0  0  0  0  0  0  0  0  0  0  0
  186.9800  177.6300  145.4210 C   0  0  0  0  0  3  0  0  0  0  0  0
  190.5100  176.8160  144.7950 F   0  0  0  0  0  0  0  0  0  0  0  0
  188.3090  178.1710  148.9160 C   0  0  0  0  0  1  0  0  0  0  0  0
  187.0340  177.9270  146.7830 C   0  0  0  0  0  3  0  0  0  0  0  0
  189.3620  177.1790  145.4190 C   0  0  0  0  0  0  0  0  0  0  0  0
  188.1380  177.2510  144.7190 C   0  0  0  0  0  0  0  0  0  0  0  0
  189.4090  177.4780  146.7850 C   0  0  0  0  0  3  0  0  0  0  0  0
  1  4  1  0  0  0  0
  2  8  1  0  0  0  0
  2  3  1  0  0  0  0
  3  9  1  6  0  0  0
  3 10  1  0  0  0  0
  4 11  1  0  0  0  0
  5 21  1  1  0  0  0
  5  7  1  0  0  0  0
  6  1  1  0  0  0  0
  7 10  1  0  0  0  0
  8  5  1  0  0  0  0
  8  7  1  0  0  0  0
  9  1  2  0  0  0  0
 10 11  1  0  0  0  0
 12  2  1  0  0  0  0
 13 14  1  0  0  0  0
 14 12  1  0  0  0  0
 15 16  1  0  0  0  0
 15 13  1  0  0  0  0
 16 17  1  0  0  0  0
 17 20  1  0  0  0  0
 17 12  2  0  0  0  0
 18 19  1  0  0  0  0
 20 19  2  0  0  0  0
 21 23  1  0  0  0  0
 22 23  2  0  0  0  0
 23 30  1  0  0  0  0
 24 27  1  0  0  0  0
 25 28  1  0  0  0  0
 26 29  1  0  0  0  0
 28 24  2  0  0  0  0
 29 31  2  0  0  0  0
 30 29  1  0  0  0  0
 30 25  2  0  0  0  0
 31 24  1  0  0  0  0
M  END
>  <MODEL>
9

>  <REMARK>
 VINA RESULT:      -7.9      3.225      7.137
  Name = 
  5 active torsions:
  status: ('A' for Active; 'I' for Inactive)
    1  A    between atoms: N_4  and  C_5
    2  A    between atoms: C_9  and  C_22
    3  A    between atoms: C_9  and  C_23
    4  A    between atoms: C_15  and  C_23
    5  A    between atoms: C_30  and  C_31
                            x       y       z     vdW  Elec       q    Type
                         _______ _______ _______ _____ _____    ______ ____

>  <TORSDO>
F 5

$$$$
