=
 OpenBabel11052415373D

 34 39  0  0  1  0  0  0  0  0999 V2000
  185.5420  178.7090  142.2460 C   0  0  0  0  0  0  0  0  0  0  0  0
  185.9790  178.2820  138.6060 C   0  0  0  0  0  3  0  0  0  0  0  0
  183.9990  178.5240  139.9490 N   0  0  0  0  0  0  0  0  0  0  0  0
  184.9270  178.9080  144.2950 C   0  0  0  0  0  0  0  0  0  0  0  0
  186.0380  178.7810  143.5030 N   0  0  0  0  0  2  0  0  0  0  0  0
  182.3160  178.9540  143.8020 C   0  0  0  0  0  2  0  0  0  0  0  0
  181.4740  178.8740  142.7400 C   0  0  0  0  0  3  0  0  0  0  0  0
  183.7650  178.9050  143.5280 C   0  0  0  0  0  0  0  0  0  0  0  0
  183.4040  178.6890  141.1670 C   0  0  0  0  0  0  0  0  0  0  0  0
  184.2020  178.7830  142.2690 C   0  0  0  0  0  0  0  0  0  0  0  0
  181.9820  178.7390  141.3800 N   0  0  0  0  0  0  0  0  0  0  0  0
  187.3790  178.1960  138.4910 C   0  0  0  0  0  0  0  0  0  0  0  0
  188.1670  178.2810  139.6560 C   0  0  0  0  0  3  0  0  0  0  0  0
  185.3730  178.4520  139.8510 C   0  0  0  0  0  0  0  0  0  0  0  0
  187.5820  178.4520  140.9140 C   0  0  0  0  0  3  0  0  0  0  0  0
  186.1940  178.5400  141.0220 C   0  0  0  0  0  0  0  0  0  0  0  0
  187.2070  178.0470  136.0060 C   0  0  0  0  0  3  0  0  0  0  0  0
  189.4370  177.8130  137.0930 C   0  0  0  0  0  1  0  0  0  0  0  0
  187.7350  177.8940  134.8710 O   0  0  0  0  0  0  0  0  0  0  0  0
  187.9970  178.0210  137.2010 N   0  0  0  0  0  0  0  0  0  0  0  0
  184.9790  178.9500  145.7910 C   0  0  0  0  0  2  0  0  0  0  0  0
  187.7800  177.7150  148.1530 C   0  0  0  0  0  2  0  0  0  0  0  0
  187.1530  177.7580  145.3610 C   0  0  0  0  0  3  0  0  0  0  0  0
  190.9960  176.7110  146.5570 C   0  0  0  0  0  0  0  0  0  0  0  0
  190.0540  176.9720  147.4710 C   0  0  0  0  0  3  0  0  0  0  0  0
  188.9040  177.8750  147.1360 C   0  0  1  0  0  3  0  0  0  0  0  0
  189.4550  177.2900  144.6480 C   0  0  0  0  0  2  0  0  0  0  0  0
  188.4410  177.6280  145.7110 C   0  0  0  0  0  0  0  0  0  0  0  0
  190.8930  177.3330  145.1870 C   0  0  0  0  0  2  0  0  0  0  0  0
  186.0600  178.0360  146.3680 C   0  0  1  0  0  3  0  0  0  0  0  0
  186.5870  178.5510  147.7110 C   0  0  0  0  0  2  0  0  0  0  0  0
  192.1370  175.8470  146.8950 C   0  0  0  0  0  0  0  0  0  0  0  0
  192.4940  174.9310  146.1080 O   0  0  0  0  0  0  0  0  0  0  0  0
  192.8330  176.0330  148.0850 O   0  0  0  0  0  1  0  0  0  0  0  0
  1 10  2  0  0  0  0
  1  5  1  0  0  0  0
  2 14  1  0  0  0  0
  3  9  2  0  0  0  0
  4 21  1  0  0  0  0
  5  4  1  0  0  0  0
  7  6  1  0  0  0  0
  8  6  1  0  0  0  0
  8  4  2  0  0  0  0
  9 11  1  0  0  0  0
  9 10  1  0  0  0  0
 10  8  1  0  0  0  0
 11  7  2  0  0  0  0
 12  2  2  0  0  0  0
 12 13  1  0  0  0  0
 13 15  2  0  0  0  0
 14  3  1  0  0  0  0
 14 16  2  0  0  0  0
 15 16  1  0  0  0  0
 16  1  1  0  0  0  0
 17 20  1  0  0  0  0
 18 20  1  0  0  0  0
 19 17  2  0  0  0  0
 20 12  1  0  0  0  0
 23 28  2  0  0  0  0
 23 30  1  0  0  0  0
 24 32  1  0  0  0  0
 24 25  2  0  0  0  0
 26 25  1  1  0  0  0
 26 22  1  0  0  0  0
 27 29  1  0  0  0  0
 27 28  1  0  0  0  0
 28 26  1  0  0  0  0
 29 24  1  0  0  0  0
 30 21  1  6  0  0  0
 30 31  1  0  0  0  0
 31 22  1  0  0  0  0
 32 34  1  0  0  0  0
 33 32  2  0  0  0  0
M  END
>  <MODEL>
1

>  <REMARK>
 VINA RESULT:     -12.0      0.000      0.000
  Name = 
  4 active torsions:
  status: ('A' for Active; 'I' for Inactive)
    1  A    between atoms: C_7  and  C_11
    2  A    between atoms: C_8  and  C_18
    3  A    between atoms: C_18  and  C_30
    4  A    between atoms: C_23  and  N_25
                            x       y       z     vdW  Elec       q    Type
                         _______ _______ _______ _____ _____    ______ ____

>  <TORSDO>
F 4

$$$$
=
 OpenBabel11052415373D

 34 39  0  0  1  0  0  0  0  0999 V2000
  187.6430  177.9120  140.9680 C   0  0  0  0  0  0  0  0  0  0  0  0
  189.4900  177.4160  137.8110 C   0  0  0  0  0  3  0  0  0  0  0  0
  187.2720  178.2430  138.2390 N   0  0  0  0  0  0  0  0  0  0  0  0
  186.2750  178.2670  142.5870 C   0  0  0  0  0  0  0  0  0  0  0  0
  187.5380  177.8110  142.3130 N   0  0  0  0  0  2  0  0  0  0  0  0
  184.2650  179.1250  141.0750 C   0  0  0  0  0  2  0  0  0  0  0  0
  183.9860  179.3230  139.7610 C   0  0  0  0  0  3  0  0  0  0  0  0
  185.6130  178.6330  141.4180 C   0  0  0  0  0  0  0  0  0  0  0  0
  186.2760  178.5690  139.1140 C   0  0  0  0  0  0  0  0  0  0  0  0
  186.5040  178.3980  140.4480 C   0  0  0  0  0  0  0  0  0  0  0  0
  184.9770  179.0550  138.7280 N   0  0  0  0  0  0  0  0  0  0  0  0
  190.7160  176.9020  138.2720 C   0  0  0  0  0  0  0  0  0  0  0  0
  190.9060  176.7240  139.6570 C   0  0  0  0  0  3  0  0  0  0  0  0
  188.4730  177.7500  138.7070 C   0  0  0  0  0  0  0  0  0  0  0  0
  189.9020  177.0520  140.5720 C   0  0  0  0  0  3  0  0  0  0  0  0
  188.6900  177.5650  140.1110 C   0  0  0  0  0  0  0  0  0  0  0  0
  193.1380  176.6300  137.7320 C   0  0  0  0  0  3  0  0  0  0  0  0
  191.4320  176.1370  135.9830 C   0  0  0  0  0  1  0  0  0  0  0  0
  194.0610  176.3340  136.9270 O   0  0  0  0  0  0  0  0  0  0  0  0
  191.7610  176.5600  137.3400 N   0  0  0  0  0  0  0  0  0  0  0  0
  185.6780  178.2720  143.9600 C   0  0  0  0  0  2  0  0  0  0  0  0
  187.6510  177.6990  147.2360 C   0  0  0  0  0  2  0  0  0  0  0  0
  187.9260  177.2420  144.4240 C   0  0  0  0  0  3  0  0  0  0  0  0
  191.2440  176.7700  146.8860 C   0  0  0  0  0  0  0  0  0  0  0  0
  190.0540  177.0800  147.4130 C   0  0  0  0  0  3  0  0  0  0  0  0
  189.0280  177.8050  146.5920 C   0  0  1  0  0  3  0  0  0  0  0  0
  190.3540  176.8910  144.5310 C   0  0  0  0  0  2  0  0  0  0  0  0
  189.0450  177.2920  145.1620 C   0  0  0  0  0  0  0  0  0  0  0  0
  191.5480  177.1560  145.4600 C   0  0  0  0  0  2  0  0  0  0  0  0
  186.5630  177.5680  144.9890 C   0  0  1  0  0  3  0  0  0  0  0  0
  186.6210  178.3370  146.3130 C   0  0  0  0  0  2  0  0  0  0  0  0
  192.2590  176.0840  147.7010 C   0  0  0  0  0  0  0  0  0  0  0  0
  192.6680  174.9400  147.3720 O   0  0  0  0  0  0  0  0  0  0  0  0
  192.7750  176.6920  148.8400 O   0  0  0  0  0  1  0  0  0  0  0  0
  1  5  1  0  0  0  0
  2 12  2  0  0  0  0
  2 14  1  0  0  0  0
  3 14  1  0  0  0  0
  3  9  2  0  0  0  0
  4 21  1  0  0  0  0
  5  4  1  0  0  0  0
  6  8  1  0  0  0  0
  7  6  1  0  0  0  0
  8  4  2  0  0  0  0
  9 10  1  0  0  0  0
 10  1  2  0  0  0  0
 10  8  1  0  0  0  0
 11  9  1  0  0  0  0
 11  7  2  0  0  0  0
 12 13  1  0  0  0  0
 13 15  2  0  0  0  0
 14 16  2  0  0  0  0
 16 15  1  0  0  0  0
 16  1  1  0  0  0  0
 18 20  1  0  0  0  0
 19 17  2  0  0  0  0
 20 17  1  0  0  0  0
 20 12  1  0  0  0  0
 23 30  1  0  0  0  0
 23 28  2  0  0  0  0
 24 25  2  0  0  0  0
 24 32  1  0  0  0  0
 26 22  1  1  0  0  0
 26 25  1  0  0  0  0
 27 28  1  0  0  0  0
 27 29  1  0  0  0  0
 28 26  1  0  0  0  0
 29 24  1  0  0  0  0
 30 21  1  6  0  0  0
 30 31  1  0  0  0  0
 31 22  1  0  0  0  0
 32 34  1  0  0  0  0
 33 32  2  0  0  0  0
M  END
>  <MODEL>
2

>  <REMARK>
 VINA RESULT:     -11.1      1.986      2.941
  Name = 
  4 active torsions:
  status: ('A' for Active; 'I' for Inactive)
    1  A    between atoms: C_7  and  C_11
    2  A    between atoms: C_8  and  C_18
    3  A    between atoms: C_18  and  C_30
    4  A    between atoms: C_23  and  N_25
                            x       y       z     vdW  Elec       q    Type
                         _______ _______ _______ _____ _____    ______ ____

>  <TORSDO>
F 4

$$$$
=
 OpenBabel11052415373D

 34 39  0  0  1  0  0  0  0  0999 V2000
  188.9830  177.4100  143.6580 C   0  0  0  0  0  0  0  0  0  0  0  0
  191.6510  176.7970  141.1820 C   0  0  0  0  0  3  0  0  0  0  0  0
  191.6680  176.7190  143.5860 N   0  0  0  0  0  0  0  0  0  0  0  0
  187.7020  177.7480  145.3500 C   0  0  0  0  0  0  0  0  0  0  0  0
  187.7190  177.7730  143.9800 N   0  0  0  0  0  0  0  0  0  0  0  0
  189.5400  177.2380  147.2010 C   0  0  0  0  0  2  0  0  0  0  0  0
  190.8520  176.8970  147.2720 C   0  0  0  0  0  3  0  0  0  0  0  0
  188.9460  177.3820  145.8580 C   0  0  0  0  0  0  0  0  0  0  0  0
  191.0220  176.8480  144.7820 C   0  0  0  0  0  0  0  0  0  0  0  0
  189.6990  177.1810  144.7700 C   0  0  2  0  0  3  0  0  0  0  0  0
  191.6470  176.6870  146.0680 N   0  0  0  0  0  0  0  0  0  0  0  0
  190.9730  177.0180  139.9680 C   0  0  0  0  0  0  0  0  0  0  0  0
  189.6120  177.3770  140.0000 C   0  0  0  0  0  3  0  0  0  0  0  0
  190.9880  176.9280  142.4030 C   0  0  0  0  0  0  0  0  0  0  0  0
  188.9280  177.5130  141.2120 C   0  0  0  0  0  3  0  0  0  0  0  0
  189.6020  177.2900  142.4110 C   0  0  0  0  0  0  0  0  0  0  0  0
  193.0960  176.8120  138.6710 C   0  0  0  0  0  3  0  0  0  0  0  0
  190.9170  176.8110  137.4600 C   0  0  0  0  0  1  0  0  0  0  0  0
  193.7130  176.6920  137.5780 O   0  0  0  0  0  0  0  0  0  0  0  0
  191.6650  176.8810  138.7110 N   0  0  0  0  0  0  0  0  0  0  0  0
  186.5170  178.1560  146.1690 C   0  0  0  0  0  2  0  0  0  0  0  0
  183.0000  179.2420  144.9840 C   0  0  0  0  0  2  0  0  0  0  0  0
  185.5320  178.4950  143.8790 C   0  0  0  0  0  3  0  0  0  0  0  0
  182.2250  178.7520  141.3700 C   0  0  0  0  0  0  0  0  0  0  0  0
  182.1140  179.0660  142.6660 C   0  0  0  0  0  3  0  0  0  0  0  0
  183.0450  178.4620  143.6750 C   0  0  1  0  0  3  0  0  0  0  0  0
  184.6320  178.0520  141.6380 C   0  0  0  0  0  2  0  0  0  0  0  0
  184.4480  178.3650  143.1010 C   0  0  0  0  0  0  0  0  0  0  0  0
  183.2950  177.7830  140.9320 C   0  0  0  0  0  2  0  0  0  0  0  0
  185.4450  178.8650  145.3420 C   0  0  1  0  0  3  0  0  0  0  0  0
  184.0460  178.6760  145.9350 C   0  0  0  0  0  2  0  0  0  0  0  0
  181.2940  179.3230  140.3860 C   0  0  0  0  0  0  0  0  0  0  0  0
  181.3920  179.0170  139.1680 O   0  0  0  0  0  0  0  0  0  0  0  0
  180.2990  180.2070  140.7880 O   0  0  0  0  0  1  0  0  0  0  0  0
  1  5  2  0  0  0  0
  2 14  1  0  0  0  0
  3  9  2  0  0  0  0
  4  8  2  0  0  0  0
  4 21  1  0  0  0  0
  5  4  1  0  0  0  0
  6  7  1  0  0  0  0
  8  6  1  0  0  0  0
  9 11  1  0  0  0  0
 10  1  1  6  0  0  0
 10  9  1  0  0  0  0
 10  8  1  0  0  0  0
 11  7  2  0  0  0  0
 12 13  1  0  0  0  0
 12  2  2  0  0  0  0
 13 15  2  0  0  0  0
 14 16  2  0  0  0  0
 14  3  1  0  0  0  0
 15 16  1  0  0  0  0
 16  1  1  0  0  0  0
 17 20  1  0  0  0  0
 18 20  1  0  0  0  0
 19 17  2  0  0  0  0
 20 12  1  0  0  0  0
 22 31  1  0  0  0  0
 23 30  1  0  0  0  0
 24 25  2  0  0  0  0
 26 25  1  6  0  0  0
 26 22  1  0  0  0  0
 27 28  1  0  0  0  0
 28 26  1  0  0  0  0
 28 23  2  0  0  0  0
 29 24  1  0  0  0  0
 29 27  1  0  0  0  0
 30 31  1  0  0  0  0
 30 21  1  1  0  0  0
 32 34  1  0  0  0  0
 32 24  1  0  0  0  0
 33 32  2  0  0  0  0
M  END
>  <MODEL>
3

>  <REMARK>
 VINA RESULT:     -11.0      3.420      7.275
  Name = 
  4 active torsions:
  status: ('A' for Active; 'I' for Inactive)
    1  A    between atoms: C_7  and  C_11
    2  A    between atoms: C_8  and  C_18
    3  A    between atoms: C_18  and  C_30
    4  A    between atoms: C_23  and  N_25
                            x       y       z     vdW  Elec       q    Type
                         _______ _______ _______ _____ _____    ______ ____

>  <TORSDO>
F 4

$$$$
=
 OpenBabel11052415373D

 34 39  0  0  1  0  0  0  0  0999 V2000
  182.4950  178.4020  141.5830 C   0  0  0  0  0  0  0  0  0  0  0  0
  181.2350  177.4060  138.2600 C   0  0  0  0  0  3  0  0  0  0  0  0
  180.0790  177.9670  140.2930 N   0  0  0  0  0  0  0  0  0  0  0  0
  182.8770  178.9440  143.6270 C   0  0  0  0  0  0  0  0  0  0  0  0
  183.5080  178.6320  142.4520 N   0  0  0  0  0  2  0  0  0  0  0  0
  180.3260  179.0730  144.3650 C   0  0  0  0  0  2  0  0  0  0  0  0
  179.0950  178.8850  143.8250 C   0  0  0  0  0  3  0  0  0  0  0  0
  181.4930  178.8960  143.4790 C   0  0  0  0  0  0  0  0  0  0  0  0
  180.1010  178.3490  141.6040 C   0  0  0  0  0  0  0  0  0  0  0  0
  181.3110  178.5600  142.1970 C   0  0  0  0  0  0  0  0  0  0  0  0
  178.9310  178.5170  142.4250 N   0  0  0  0  0  0  0  0  0  0  0  0
  182.4310  177.2200  137.5430 C   0  0  0  0  0  0  0  0  0  0  0  0
  183.6610  177.4320  138.1960 C   0  0  0  0  0  3  0  0  0  0  0  0
  181.2590  177.7980  139.5990 C   0  0  0  0  0  0  0  0  0  0  0  0
  183.7100  177.8250  139.5360 C   0  0  0  0  0  3  0  0  0  0  0  0
  182.5220  178.0120  140.2420 C   0  0  0  0  0  0  0  0  0  0  0  0
  182.5580  175.4370  135.8000 C   0  0  0  0  0  3  0  0  0  0  0  0
  182.1990  177.8030  135.1040 C   0  0  0  0  0  1  0  0  0  0  0  0
  182.5300  175.0700  134.5940 O   0  0  0  0  0  0  0  0  0  0  0  0
  182.3970  176.8150  136.1590 N   0  0  0  0  0  0  0  0  0  0  0  0
  183.6020  179.2070  144.9100 C   0  0  0  0  0  2  0  0  0  0  0  0
  187.0050  177.7020  143.8590 C   0  0  0  0  0  2  0  0  0  0  0  0
  185.7990  178.9830  146.1150 C   0  0  0  0  0  3  0  0  0  0  0  0
  189.4970  177.1350  146.5740 C   0  0  0  0  0  0  0  0  0  0  0  0
  188.9060  177.1730  145.3730 C   0  0  0  0  0  3  0  0  0  0  0  0
  187.4140  177.2810  145.2660 C   0  0  1  0  0  3  0  0  0  0  0  0
  187.5290  178.2450  147.6930 C   0  0  0  0  0  2  0  0  0  0  0  0
  186.8780  178.2180  146.3340 C   0  0  0  0  0  0  0  0  0  0  0  0
  188.6480  177.2000  147.8190 C   0  0  0  0  0  2  0  0  0  0  0  0
  185.1180  179.0650  144.7690 C   0  0  1  0  0  3  0  0  0  0  0  0
  185.4990  177.9210  143.8240 C   0  0  0  0  0  2  0  0  0  0  0  0
  190.9570  177.0020  146.6780 C   0  0  0  0  0  0  0  0  0  0  0  0
  191.4750  176.4990  147.7100 O   0  0  0  0  0  1  0  0  0  0  0  0
  191.7790  177.4290  145.6410 O   0  0  0  0  0  0  0  0  0  0  0  0
  1 10  2  0  0  0  0
  1  5  1  0  0  0  0
  2 14  1  0  0  0  0
  3  9  2  0  0  0  0
  4 21  1  0  0  0  0
  5  4  1  0  0  0  0
  7  6  1  0  0  0  0
  8  4  2  0  0  0  0
  8  6  1  0  0  0  0
  9 10  1  0  0  0  0
  9 11  1  0  0  0  0
 10  8  1  0  0  0  0
 11  7  2  0  0  0  0
 12 13  1  0  0  0  0
 12  2  2  0  0  0  0
 13 15  2  0  0  0  0
 14 16  2  0  0  0  0
 14  3  1  0  0  0  0
 15 16  1  0  0  0  0
 16  1  1  0  0  0  0
 17 20  1  0  0  0  0
 18 20  1  0  0  0  0
 19 17  2  0  0  0  0
 20 12  1  0  0  0  0
 23 28  2  0  0  0  0
 24 32  1  0  0  0  0
 24 29  1  0  0  0  0
 25 24  2  0  0  0  0
 26 22  1  6  0  0  0
 26 25  1  0  0  0  0
 26 28  1  0  0  0  0
 27 29  1  0  0  0  0
 28 27  1  0  0  0  0
 30 21  1  1  0  0  0
 30 23  1  0  0  0  0
 31 22  1  0  0  0  0
 31 30  1  0  0  0  0
 32 33  1  0  0  0  0
 34 32  2  0  0  0  0
M  END
>  <MODEL>
4

>  <REMARK>
 VINA RESULT:     -10.3      2.604      3.710
  Name = 
  4 active torsions:
  status: ('A' for Active; 'I' for Inactive)
    1  A    between atoms: C_7  and  C_11
    2  A    between atoms: C_8  and  C_18
    3  A    between atoms: C_18  and  C_30
    4  A    between atoms: C_23  and  N_25
                            x       y       z     vdW  Elec       q    Type
                         _______ _______ _______ _____ _____    ______ ____

>  <TORSDO>
F 4

$$$$
=
 OpenBabel11052415373D

 34 39  0  0  1  0  0  0  0  0999 V2000
  186.6440  178.1380  144.1430 C   0  0  0  0  0  0  0  0  0  0  0  0
  183.0530  178.7710  144.7180 C   0  0  0  0  0  3  0  0  0  0  0  0
  184.8880  178.5310  146.2540 N   0  0  0  0  0  0  0  0  0  0  0  0
  188.7520  177.7230  144.1760 C   0  0  0  0  0  0  0  0  0  0  0  0
  187.6890  177.8770  143.3240 N   0  0  0  0  0  0  0  0  0  0  0  0
  189.0080  177.7790  146.8210 C   0  0  0  0  0  3  0  0  0  0  0  0
  188.2330  177.9610  147.9200 C   0  0  0  0  0  3  0  0  0  0  0  0
  188.3550  177.8800  145.5010 C   0  0  0  0  0  0  0  0  0  0  0  0
  186.2160  178.3180  146.4930 C   0  0  0  0  0  0  0  0  0  0  0  0
  187.0450  178.1370  145.4250 C   0  0  2  0  0  3  0  0  0  0  0  0
  186.8070  178.2380  147.8020 N   0  0  0  0  0  2  0  0  0  0  0  0
  182.5500  178.7880  143.4040 C   0  0  0  0  0  0  0  0  0  0  0  0
  183.4360  178.5810  142.3290 C   0  0  0  0  0  3  0  0  0  0  0  0
  184.4110  178.5550  144.9600 C   0  0  0  0  0  0  0  0  0  0  0  0
  184.7990  178.3630  142.5470 C   0  0  0  0  0  3  0  0  0  0  0  0
  185.2940  178.3510  143.8510 C   0  0  0  0  0  0  0  0  0  0  0  0
  180.1620  178.5130  144.0770 C   0  0  0  0  0  3  0  0  0  0  0  0
  180.7070  179.7500  141.9830 C   0  0  0  0  0  1  0  0  0  0  0  0
  178.9310  178.7010  143.8770 O   0  0  0  0  0  0  0  0  0  0  0  0
  181.1460  179.0120  143.1630 N   0  0  0  0  0  0  0  0  0  0  0  0
  190.1270  177.3460  143.7210 C   0  0  0  0  0  2  0  0  0  0  0  0
  191.4240  176.7520  140.1270 C   0  0  0  0  0  2  0  0  0  0  0  0
  188.9800  177.3690  141.4830 C   0  0  0  0  0  3  0  0  0  0  0  0
  189.1450  177.7260  137.3420 C   0  0  0  0  0  0  0  0  0  0  0  0
  190.2070  177.2780  138.0220 C   0  0  0  0  0  3  0  0  0  0  0  0
  190.4070  177.6690  139.4570 C   0  0  1  0  0  3  0  0  0  0  0  0
  187.8370  178.1510  139.4550 C   0  0  0  0  0  2  0  0  0  0  0  0
  189.0740  177.6930  140.1840 C   0  0  0  0  0  0  0  0  0  0  0  0
  188.1510  178.6300  138.0290 C   0  0  0  0  0  2  0  0  0  0  0  0
  190.1530  176.8440  142.2780 C   0  0  1  0  0  3  0  0  0  0  0  0
  191.5060  177.1000  141.6070 C   0  0  0  0  0  2  0  0  0  0  0  0
  188.9640  177.3660  135.9280 C   0  0  0  0  0  0  0  0  0  0  0  0
  187.9530  177.7690  135.2950 O   0  0  0  0  0  1  0  0  0  0  0  0
  189.9050  176.5750  135.2770 O   0  0  0  0  0  0  0  0  0  0  0  0
  2 14  1  0  0  0  0
  3  9  2  0  0  0  0
  4  8  2  0  0  0  0
  5  1  2  0  0  0  0
  5  4  1  0  0  0  0
  6  7  2  0  0  0  0
  8  6  1  0  0  0  0
  9 11  1  0  0  0  0
 10  1  1  1  0  0  0
 10  8  1  0  0  0  0
 10  9  1  0  0  0  0
 11  7  1  0  0  0  0
 12  2  2  0  0  0  0
 13 15  2  0  0  0  0
 13 12  1  0  0  0  0
 14  3  1  0  0  0  0
 15 16  1  0  0  0  0
 16  1  1  0  0  0  0
 16 14  2  0  0  0  0
 18 20  1  0  0  0  0
 19 17  2  0  0  0  0
 20 12  1  0  0  0  0
 20 17  1  0  0  0  0
 21  4  1  0  0  0  0
 22 31  1  0  0  0  0
 23 30  1  0  0  0  0
 24 25  2  0  0  0  0
 24 29  1  0  0  0  0
 26 25  1  6  0  0  0
 26 22  1  0  0  0  0
 26 28  1  0  0  0  0
 27 28  1  0  0  0  0
 28 23  2  0  0  0  0
 29 27  1  0  0  0  0
 30 21  1  1  0  0  0
 31 30  1  0  0  0  0
 32 24  1  0  0  0  0
 33 32  1  0  0  0  0
 34 32  2  0  0  0  0
M  END
>  <MODEL>
5

>  <REMARK>
 VINA RESULT:     -10.3      3.517      7.694
  Name = 
  4 active torsions:
  status: ('A' for Active; 'I' for Inactive)
    1  A    between atoms: C_7  and  C_11
    2  A    between atoms: C_8  and  C_18
    3  A    between atoms: C_18  and  C_30
    4  A    between atoms: C_23  and  N_25
                            x       y       z     vdW  Elec       q    Type
                         _______ _______ _______ _____ _____    ______ ____

>  <TORSDO>
F 4

$$$$
=
 OpenBabel11052415373D

 34 39  0  0  1  0  0  0  0  0999 V2000
  186.7080  178.0620  143.3130 C   0  0  0  0  0  0  0  0  0  0  0  0
  188.8360  177.2510  146.2180 C   0  0  0  0  0  3  0  0  0  0  0  0
  186.5410  177.9600  146.0800 N   0  0  0  0  0  0  0  0  0  0  0  0
  185.2260  178.6550  141.8740 C   0  0  0  0  0  0  0  0  0  0  0  0
  186.5270  178.2390  141.9840 N   0  0  0  0  0  0  0  0  0  0  0  0
  183.3070  179.1660  143.6420 C   0  0  0  0  0  3  0  0  0  0  0  0
  183.1240  179.1470  144.9870 C   0  0  0  0  0  3  0  0  0  0  0  0
  184.6230  178.7410  143.1270 C   0  0  0  0  0  0  0  0  0  0  0  0
  185.4570  178.3310  145.3380 C   0  0  0  0  0  0  0  0  0  0  0  0
  185.5810  178.3600  143.9800 C   0  0  2  0  0  3  0  0  0  0  0  0
  184.1890  178.7290  145.8900 N   0  0  0  0  0  2  0  0  0  0  0  0
  190.0550  176.9210  145.5980 C   0  0  0  0  0  0  0  0  0  0  0  0
  190.1470  176.9790  144.1930 C   0  0  0  0  0  3  0  0  0  0  0  0
  187.7280  177.6290  145.4580 C   0  0  0  0  0  0  0  0  0  0  0  0
  189.0500  177.3550  143.4120 C   0  0  0  0  0  3  0  0  0  0  0  0
  187.8430  177.6770  144.0310 C   0  0  0  0  0  0  0  0  0  0  0  0
  191.3860  177.0700  147.7040 C   0  0  0  0  0  3  0  0  0  0  0  0
  192.1710  175.5830  145.8650 C   0  0  0  0  0  1  0  0  0  0  0  0
  192.3790  176.7380  148.4070 O   0  0  0  0  0  0  0  0  0  0  0  0
  191.1950  176.5310  146.3900 N   0  0  0  0  0  0  0  0  0  0  0  0
  184.5900  179.0490  140.5780 C   0  0  0  0  0  2  0  0  0  0  0  0
  183.6640  177.0150  137.4220 C   0  0  0  0  0  2  0  0  0  0  0  0
  182.9330  177.1990  140.1830 C   0  0  0  0  0  3  0  0  0  0  0  0
  180.5520  174.9710  137.6010 C   0  0  0  0  0  0  0  0  0  0  0  0
  181.6730  175.5500  137.1530 C   0  0  0  0  0  3  0  0  0  0  0  0
  182.2160  176.7730  137.8300 C   0  0  1  0  0  3  0  0  0  0  0  0
  180.8200  175.9810  139.8950 C   0  0  0  0  0  2  0  0  0  0  0  0
  182.0450  176.6590  139.3350 C   0  0  0  0  0  0  0  0  0  0  0  0
  179.8370  175.5610  138.7910 C   0  0  0  0  0  2  0  0  0  0  0  0
  184.2170  177.8440  139.7150 C   0  0  1  0  0  3  0  0  0  0  0  0
  184.2160  178.1880  138.2220 C   0  0  0  0  0  2  0  0  0  0  0  0
  180.0060  173.7880  136.9190 C   0  0  0  0  0  0  0  0  0  0  0  0
  179.7860  173.8150  135.6800 O   0  0  0  0  0  0  0  0  0  0  0  0
  179.7260  172.6290  137.6360 O   0  0  0  0  0  1  0  0  0  0  0  0
  1 10  1  0  0  0  0
  1 16  1  0  0  0  0
  4  5  1  0  0  0  0
  4  8  2  0  0  0  0
  5  1  2  0  0  0  0
  6  7  2  0  0  0  0
  7 11  1  0  0  0  0
  8  6  1  0  0  0  0
  9 11  1  0  0  0  0
  9  3  2  0  0  0  0
 10  8  1  1  0  0  0
 10  9  1  0  0  0  0
 12  2  1  0  0  0  0
 12 20  1  0  0  0  0
 13 12  2  0  0  0  0
 14  3  1  0  0  0  0
 14  2  2  0  0  0  0
 15 16  2  0  0  0  0
 15 13  1  0  0  0  0
 16 14  1  0  0  0  0
 17 19  2  0  0  0  0
 18 20  1  0  0  0  0
 20 17  1  0  0  0  0
 21  4  1  0  0  0  0
 22 26  1  0  0  0  0
 22 31  1  0  0  0  0
 24 29  1  0  0  0  0
 25 24  2  0  0  0  0
 26 25  1  6  0  0  0
 26 28  1  0  0  0  0
 28 27  1  0  0  0  0
 28 23  2  0  0  0  0
 29 27  1  0  0  0  0
 30 23  1  0  0  0  0
 30 21  1  1  0  0  0
 31 30  1  0  0  0  0
 32 24  1  0  0  0  0
 32 34  1  0  0  0  0
 33 32  2  0  0  0  0
M  END
>  <MODEL>
6

>  <REMARK>
 VINA RESULT:     -10.2      3.685      9.224
  Name = 
  4 active torsions:
  status: ('A' for Active; 'I' for Inactive)
    1  A    between atoms: C_7  and  C_11
    2  A    between atoms: C_8  and  C_18
    3  A    between atoms: C_18  and  C_30
    4  A    between atoms: C_23  and  N_25
                            x       y       z     vdW  Elec       q    Type
                         _______ _______ _______ _____ _____    ______ ____

>  <TORSDO>
F 4

$$$$
=
 OpenBabel11052415373D

 34 39  0  0  1  0  0  0  0  0999 V2000
  186.8610  178.0090  139.1710 C   0  0  0  0  0  0  0  0  0  0  0  0
  189.4560  176.6480  136.9270 C   0  0  0  0  0  3  0  0  0  0  0  0
  187.0810  176.8950  136.6410 N   0  0  0  0  0  0  0  0  0  0  0  0
  185.1100  178.6680  140.2290 C   0  0  0  0  0  0  0  0  0  0  0  0
  186.4670  178.5270  140.3580 N   0  0  0  0  0  2  0  0  0  0  0  0
  183.3800  178.0890  138.2960 C   0  0  0  0  0  2  0  0  0  0  0  0
  183.3820  177.5560  137.0480 C   0  0  0  0  0  3  0  0  0  0  0  0
  184.6800  178.2320  138.9780 C   0  0  0  0  0  0  0  0  0  0  0  0
  185.8630  177.2880  137.1170 C   0  0  0  0  0  0  0  0  0  0  0  0
  185.8020  177.8390  138.3630 C   0  0  0  0  0  0  0  0  0  0  0  0
  184.6210  177.1340  136.4060 N   0  0  0  0  0  0  0  0  0  0  0  0
  190.6170  176.7930  137.7080 C   0  0  0  0  0  0  0  0  0  0  0  0
  190.5100  177.3510  138.9970 C   0  0  0  0  0  3  0  0  0  0  0  0
  188.2120  177.0520  137.4140 C   0  0  0  0  0  0  0  0  0  0  0  0
  189.2750  177.7630  139.5060 C   0  0  0  0  0  3  0  0  0  0  0  0
  188.1270  177.6210  138.7260 C   0  0  0  0  0  0  0  0  0  0  0  0
  193.0590  176.3910  138.0370 C   0  0  0  0  0  3  0  0  0  0  0  0
  192.0320  175.9240  135.8150 C   0  0  0  0  0  1  0  0  0  0  0  0
  194.1850  176.0260  137.6030 O   0  0  0  0  0  0  0  0  0  0  0  0
  191.8980  176.3730  137.1970 N   0  0  0  0  0  0  0  0  0  0  0  0
  184.2200  179.1440  141.3340 C   0  0  0  0  0  2  0  0  0  0  0  0
  184.6210  178.7530  145.1600 C   0  0  0  0  0  2  0  0  0  0  0  0
  185.9890  178.0490  142.7470 C   0  0  0  0  0  3  0  0  0  0  0  0
  187.9550  177.6240  146.3880 C   0  0  0  0  0  0  0  0  0  0  0  0
  186.6820  178.0350  146.3540 C   0  0  0  0  0  3  0  0  0  0  0  0
  186.1450  178.7370  145.1410 C   0  0  1  0  0  3  0  0  0  0  0  0
  188.1230  177.5900  143.8730 C   0  0  0  0  0  2  0  0  0  0  0  0
  186.7070  178.1060  143.8790 C   0  0  0  0  0  0  0  0  0  0  0  0
  188.8470  177.8740  145.1980 C   0  0  0  0  0  2  0  0  0  0  0  0
  184.5450  178.4870  142.6750 C   0  0  1  0  0  3  0  0  0  0  0  0
  184.1150  179.3600  143.8580 C   0  0  0  0  0  2  0  0  0  0  0  0
  188.4880  176.9610  147.5870 C   0  0  0  0  0  0  0  0  0  0  0  0
  189.4540  176.1590  147.4920 O   0  0  0  0  0  0  0  0  0  0  0  0
  187.9310  177.2120  148.8370 O   0  0  0  0  0  1  0  0  0  0  0  0
  1  5  1  0  0  0  0
  2 14  2  0  0  0  0
  2 12  1  0  0  0  0
  3  9  2  0  0  0  0
  3 14  1  0  0  0  0
  4  5  1  0  0  0  0
  4 21  1  0  0  0  0
  6  8  1  0  0  0  0
  7  6  1  0  0  0  0
  8  4  2  0  0  0  0
  9 10  1  0  0  0  0
 10  8  1  0  0  0  0
 10  1  2  0  0  0  0
 11  7  2  0  0  0  0
 11  9  1  0  0  0  0
 12 13  2  0  0  0  0
 13 15  1  0  0  0  0
 14 16  1  0  0  0  0
 16  1  1  0  0  0  0
 16 15  2  0  0  0  0
 18 20  1  0  0  0  0
 19 17  2  0  0  0  0
 20 12  1  0  0  0  0
 20 17  1  0  0  0  0
 23 28  2  0  0  0  0
 24 32  1  0  0  0  0
 25 24  2  0  0  0  0
 26 22  1  6  0  0  0
 26 25  1  0  0  0  0
 27 28  1  0  0  0  0
 27 29  1  0  0  0  0
 28 26  1  0  0  0  0
 29 24  1  0  0  0  0
 30 21  1  6  0  0  0
 30 23  1  0  0  0  0
 30 31  1  0  0  0  0
 31 22  1  0  0  0  0
 32 34  1  0  0  0  0
 33 32  2  0  0  0  0
M  END
>  <MODEL>
7

>  <REMARK>
 VINA RESULT:     -10.1      2.464      4.246
  Name = 
  4 active torsions:
  status: ('A' for Active; 'I' for Inactive)
    1  A    between atoms: C_7  and  C_11
    2  A    between atoms: C_8  and  C_18
    3  A    between atoms: C_18  and  C_30
    4  A    between atoms: C_23  and  N_25
                            x       y       z     vdW  Elec       q    Type
                         _______ _______ _______ _____ _____    ______ ____

>  <TORSDO>
F 4

$$$$
=
 OpenBabel11052415373D

 34 39  0  0  1  0  0  0  0  0999 V2000
  188.3340  177.9010  140.0930 C   0  0  0  0  0  0  0  0  0  0  0  0
  189.5490  177.0500  143.4720 C   0  0  0  0  0  3  0  0  0  0  0  0
  190.5370  176.7290  141.3030 N   0  0  0  0  0  0  0  0  0  0  0  0
  187.9160  178.1990  138.0060 C   0  0  0  0  0  0  0  0  0  0  0  0
  187.3840  178.3800  139.2560 N   0  0  0  0  0  0  0  0  0  0  0  0
  190.1810  177.1330  137.1110 C   0  0  0  0  0  3  0  0  0  0  0  0
  191.3000  176.5460  137.6060 C   0  0  0  0  0  3  0  0  0  0  0  0
  189.1750  177.6080  138.0810 C   0  0  0  0  0  0  0  0  0  0  0  0
  190.4850  176.8580  139.9440 C   0  0  0  0  0  0  0  0  0  0  0  0
  189.3860  177.4480  139.3920 C   0  0  2  0  0  3  0  0  0  0  0  0
  191.5000  176.3850  139.0400 N   0  0  0  0  0  2  0  0  0  0  0  0
  188.4900  177.5000  144.2810 C   0  0  0  0  0  0  0  0  0  0  0  0
  187.3650  178.0880  143.6710 C   0  0  0  0  0  3  0  0  0  0  0  0
  189.4950  177.1840  142.0840 C   0  0  0  0  0  0  0  0  0  0  0  0
  187.2890  178.2340  142.2830 C   0  0  0  0  0  3  0  0  0  0  0  0
  188.3430  177.7900  141.4850 C   0  0  0  0  0  0  0  0  0  0  0  0
  189.7990  177.0690  146.3630 C   0  0  0  0  0  3  0  0  0  0  0  0
  187.3500  177.5030  146.5260 C   0  0  0  0  0  1  0  0  0  0  0  0
  189.8680  176.9420  147.6150 O   0  0  0  0  0  0  0  0  0  0  0  0
  188.5540  177.3570  145.7150 N   0  0  0  0  0  0  0  0  0  0  0  0
  187.1820  178.5180  136.7410 C   0  0  0  0  0  2  0  0  0  0  0  0
  183.8720  176.5340  136.9840 C   0  0  0  0  0  2  0  0  0  0  0  0
  186.6530  176.0720  136.4900 C   0  0  0  0  0  3  0  0  0  0  0  0
  184.1560  172.8240  137.2070 C   0  0  0  0  0  0  0  0  0  0  0  0
  183.6520  174.0630  137.1570 C   0  0  0  0  0  3  0  0  0  0  0  0
  184.5160  175.2450  137.4810 C   0  0  1  0  0  3  0  0  0  0  0  0
  186.5180  173.6580  136.9210 C   0  0  0  0  0  2  0  0  0  0  0  0
  185.9150  175.0400  136.9260 C   0  0  0  0  0  0  0  0  0  0  0  0
  185.6000  172.6260  137.5940 C   0  0  0  0  0  2  0  0  0  0  0  0
  186.1120  177.4800  136.4040 C   0  0  1  0  0  3  0  0  0  0  0  0
  184.8330  177.6920  137.2190 C   0  0  0  0  0  2  0  0  0  0  0  0
  183.3010  171.6630  136.9160 C   0  0  0  0  0  0  0  0  0  0  0  0
  183.7920  170.6300  136.3900 O   0  0  0  0  0  0  0  0  0  0  0  0
  181.9440  171.6960  137.2160 O   0  0  0  0  0  1  0  0  0  0  0  0
  1 16  1  0  0  0  0
  2 12  1  0  0  0  0
  3 14  1  0  0  0  0
  4  8  2  0  0  0  0
  4  5  1  0  0  0  0
  5  1  2  0  0  0  0
  6  7  2  0  0  0  0
  6  8  1  0  0  0  0
  7 11  1  0  0  0  0
  9  3  2  0  0  0  0
 10  8  1  6  0  0  0
 10  9  1  0  0  0  0
 10  1  1  0  0  0  0
 11  9  1  0  0  0  0
 12 20  1  0  0  0  0
 13 12  2  0  0  0  0
 14  2  2  0  0  0  0
 15 13  1  0  0  0  0
 16 14  1  0  0  0  0
 16 15  2  0  0  0  0
 17 19  2  0  0  0  0
 20 17  1  0  0  0  0
 20 18  1  0  0  0  0
 21  4  1  0  0  0  0
 22 31  1  0  0  0  0
 23 28  2  0  0  0  0
 24 29  1  0  0  0  0
 25 24  2  0  0  0  0
 25 26  1  0  0  0  0
 26 22  1  6  0  0  0
 27 28  1  0  0  0  0
 27 29  1  0  0  0  0
 28 26  1  0  0  0  0
 30 23  1  0  0  0  0
 30 21  1  1  0  0  0
 30 31  1  0  0  0  0
 32 24  1  0  0  0  0
 32 34  1  0  0  0  0
 33 32  2  0  0  0  0
M  END
>  <MODEL>
8

>  <REMARK>
 VINA RESULT:      -9.9      3.711      9.487
  Name = 
  4 active torsions:
  status: ('A' for Active; 'I' for Inactive)
    1  A    between atoms: C_7  and  C_11
    2  A    between atoms: C_8  and  C_18
    3  A    between atoms: C_18  and  C_30
    4  A    between atoms: C_23  and  N_25
                            x       y       z     vdW  Elec       q    Type
                         _______ _______ _______ _____ _____    ______ ____

>  <TORSDO>
F 4

$$$$
=
 OpenBabel11052415373D

 34 39  0  0  1  0  0  0  0  0999 V2000
  188.3810  177.8110  141.6420 C   0  0  0  0  0  0  0  0  0  0  0  0
  190.8780  176.7650  144.1510 C   0  0  0  0  0  3  0  0  0  0  0  0
  190.9350  176.7350  141.7460 N   0  0  0  0  0  0  0  0  0  0  0  0
  187.1540  178.2610  139.9360 C   0  0  0  0  0  0  0  0  0  0  0  0
  187.1550  178.2770  141.3060 N   0  0  0  0  0  2  0  0  0  0  0  0
  188.9220  177.4900  138.1070 C   0  0  0  0  0  3  0  0  0  0  0  0
  190.1720  176.9630  138.0520 C   0  0  0  0  0  3  0  0  0  0  0  0
  188.3640  177.7810  139.4420 C   0  0  0  0  0  0  0  0  0  0  0  0
  190.3410  176.9840  140.5420 C   0  0  0  0  0  0  0  0  0  0  0  0
  189.0870  177.5210  140.5380 C   0  0  0  0  0  0  0  0  0  0  0  0
  190.9330  176.6890  139.2640 N   0  0  0  0  0  2  0  0  0  0  0  0
  190.2080  177.0410  145.3570 C   0  0  0  0  0  0  0  0  0  0  0  0
  188.9070  177.5800  145.3090 C   0  0  0  0  0  3  0  0  0  0  0  0
  190.2700  177.0210  142.9210 C   0  0  0  0  0  0  0  0  0  0  0  0
  188.2790  177.8450  144.0890 C   0  0  0  0  0  3  0  0  0  0  0  0
  188.9480  177.5730  142.8970 C   0  0  0  0  0  0  0  0  0  0  0  0
  192.0500  176.0030  146.6840 C   0  0  0  0  0  3  0  0  0  0  0  0
  190.2650  177.2820  147.8620 C   0  0  0  0  0  1  0  0  0  0  0  0
  192.6160  175.7620  147.7850 O   0  0  0  0  0  0  0  0  0  0  0  0
  190.8430  176.7730  146.6230 N   0  0  0  0  0  0  0  0  0  0  0  0
  185.9640  178.6280  139.1060 C   0  0  0  0  0  2  0  0  0  0  0  0
  182.1640  178.4180  139.7920 C   0  0  0  0  0  2  0  0  0  0  0  0
  184.6400  178.3140  141.2230 C   0  0  0  0  0  3  0  0  0  0  0  0
  181.0860  178.6890  143.3510 C   0  0  0  0  0  0  0  0  0  0  0  0
  181.0640  178.5660  142.0180 C   0  0  0  0  0  3  0  0  0  0  0  0
  182.2410  179.0030  141.1970 C   0  0  1  0  0  3  0  0  0  0  0  0
  183.6060  178.7290  143.4110 C   0  0  0  0  0  2  0  0  0  0  0  0
  183.5360  178.6470  141.9070 C   0  0  0  0  0  0  0  0  0  0  0  0
  182.3050  179.2730  144.0210 C   0  0  0  0  0  2  0  0  0  0  0  0
  184.6480  178.1500  139.7200 C   0  0  1  0  0  3  0  0  0  0  0  0
  183.4330  178.7800  139.0330 C   0  0  0  0  0  2  0  0  0  0  0  0
  179.9210  178.2870  144.1520 C   0  0  0  0  0  0  0  0  0  0  0  0
  179.6800  177.0670  144.3520 O   0  0  0  0  0  0  0  0  0  0  0  0
  179.0740  179.2470  144.6950 O   0  0  0  0  0  1  0  0  0  0  0  0
  1 16  1  0  0  0  0
  2 12  1  0  0  0  0
  3 14  1  0  0  0  0
  4  5  1  0  0  0  0
  5  1  1  0  0  0  0
  6  8  1  0  0  0  0
  7  6  2  0  0  0  0
  7 11  1  0  0  0  0
  8  4  2  0  0  0  0
  8 10  1  0  0  0  0
  9  3  2  0  0  0  0
 10  9  1  0  0  0  0
 10  1  2  0  0  0  0
 11  9  1  0  0  0  0
 12 20  1  0  0  0  0
 13 12  2  0  0  0  0
 14  2  2  0  0  0  0
 15 13  1  0  0  0  0
 16 14  1  0  0  0  0
 16 15  2  0  0  0  0
 17 19  2  0  0  0  0
 20 17  1  0  0  0  0
 20 18  1  0  0  0  0
 21  4  1  0  0  0  0
 23 28  2  0  0  0  0
 24 29  1  0  0  0  0
 24 32  1  0  0  0  0
 25 24  2  0  0  0  0
 26 22  1  6  0  0  0
 26 28  1  0  0  0  0
 26 25  1  0  0  0  0
 27 29  1  0  0  0  0
 28 27  1  0  0  0  0
 30 21  1  6  0  0  0
 30 23  1  0  0  0  0
 31 30  1  0  0  0  0
 31 22  1  0  0  0  0
 32 33  2  0  0  0  0
 32 34  1  0  0  0  0
M  END
>  <MODEL>
9

>  <REMARK>
 VINA RESULT:      -9.9      3.696      8.660
  Name = 
  4 active torsions:
  status: ('A' for Active; 'I' for Inactive)
    1  A    between atoms: C_7  and  C_11
    2  A    between atoms: C_8  and  C_18
    3  A    between atoms: C_18  and  C_30
    4  A    between atoms: C_23  and  N_25
                            x       y       z     vdW  Elec       q    Type
                         _______ _______ _______ _____ _____    ______ ____

>  <TORSDO>
F 4

$$$$
