=
 OpenBabel11052417023D

 32 39  0  0  1  0  0  0  0  0999 V2000
  185.9000  179.0660  142.3720 C   0  0  2  0  0  3  0  0  0  0  0  0
  185.9860  178.6210  146.2020 C   0  0  0  0  0  3  0  0  0  0  0  0
  184.6060  178.4290  146.4100 C   0  0  0  0  0  3  0  0  0  0  0  0
  184.0940  179.2100  140.4670 C   0  0  1  0  0  3  0  0  0  0  0  0
  182.7200  179.1020  140.2250 C   0  0  0  0  0  0  0  0  0  0  0  0
  180.5410  178.9130  140.7290 N   0  0  0  0  0  0  0  0  0  0  0  0
  186.4910  178.8240  144.9060 C   0  0  0  0  0  3  0  0  0  0  0  0
  185.5960  178.8220  143.8350 C   0  0  0  0  0  0  0  0  0  0  0  0
  183.5700  178.7380  142.7810 C   0  0  0  0  0  0  0  0  0  0  0  0
  180.5340  179.1450  139.3790 O   0  0  0  0  0  0  0  0  0  0  0  0
  181.9000  179.3790  139.0190 C   0  0  0  0  0  3  0  0  0  0  0  0
  183.7140  178.4410  145.3250 C   0  0  0  0  0  3  0  0  0  0  0  0
  184.2420  178.6370  144.0510 C   0  0  0  0  0  0  0  0  0  0  0  0
  182.2320  178.6770  142.5220 N   0  0  0  0  0  0  0  0  0  0  0  0
  184.9910  179.5280  139.4550 O   0  0  0  0  0  1  0  0  0  0  0  0
  179.2220  179.4340  141.7370 Cl  0  0  0  0  0  0  0  0  0  0  0  0
  184.5130  178.9950  141.7890 C   0  0  0  0  0  0  0  0  0  0  0  0
  181.8520  178.8350  141.2230 C   0  0  0  0  0  0  0  0  0  0  0  0
  188.8560  176.6510  142.6430 C   0  0  2  0  0  3  0  0  0  0  0  0
  187.9170  178.6490  140.9060 C   0  0  0  0  0  2  0  0  0  0  0  0
  188.8650  177.5910  140.4360 C   0  0  0  0  0  3  0  0  0  0  0  0
  186.8260  178.0020  141.7610 C   0  0  1  0  0  3  0  0  0  0  0  0
  189.2750  176.6810  141.2530 N   0  0  0  0  0  0  0  0  0  0  0  0
  187.3610  176.9820  142.7950 C   0  0  0  0  0  2  0  0  0  0  0  0
  190.7740  176.4120  147.5410 C   0  0  0  0  0  2  0  0  0  0  0  0
  191.0270  177.3720  143.2710 O   0  0  0  0  0  0  0  0  0  0  0  0
  191.5600  177.3670  145.4560 C   0  0  2  0  0  3  0  0  0  0  0  0
  189.5940  177.0040  146.8100 C   0  0  0  0  0  2  0  0  0  0  0  0
  190.4910  176.8470  144.4810 C   0  0  2  0  0  0  0  0  0  0  0  0
  191.8620  176.3080  146.5010 C   0  0  0  0  0  2  0  0  0  0  0  0
  189.6890  177.6170  143.4730 C   0  0  2  0  0  3  0  0  0  0  0  0
  190.1640  177.7970  145.6450 C   0  0  2  0  0  3  0  0  0  0  0  0
  1 17  1  6  0  0  0
  1  8  1  0  0  0  0
  2  3  1  0  0  0  0
  4 15  1  1  0  0  0
  4 17  1  0  0  0  0
  5  4  1  0  0  0  0
  5 18  1  0  0  0  0
  6 18  1  0  0  0  0
  6 16  1  0  0  0  0
  7  2  2  0  0  0  0
  8 13  2  0  0  0  0
  8  7  1  0  0  0  0
  9 13  1  0  0  0  0
 10  6  1  0  0  0  0
 11 10  1  0  0  0  0
 11  5  2  0  0  0  0
 12  3  2  0  0  0  0
 13 12  1  0  0  0  0
 14  9  1  0  0  0  0
 17  9  2  0  0  0  0
 18 14  2  0  0  0  0
 19 24  1  6  0  0  0
 19 31  1  0  0  0  0
 21 20  1  0  0  0  0
 21 23  2  0  0  0  0
 22 20  1  1  0  0  0
 22  1  1  0  0  0  0
 22 24  1  0  0  0  0
 23 19  1  0  0  0  0
 27 32  1  0  0  0  0
 27 30  1  1  0  0  0
 28 25  1  0  0  0  0
 29 26  1  6  0  0  0
 29 27  1  0  0  0  0
 29 32  1  0  0  0  0
 30 25  1  0  0  0  0
 31 26  1  6  0  0  0
 31 29  1  0  0  0  0
 32 28  1  1  0  0  0
M  END
>  <MODEL>
1

>  <REMARK>
 VINA RESULT:     -10.7      0.000      0.000
  Name = 
  2 active torsions:
  status: ('A' for Active; 'I' for Inactive)
    1  A    between atoms: C_3  and  C_14
    2  A    between atoms: C_8  and  C_23
                            x       y       z     vdW  Elec       q    Type
                         _______ _______ _______ _____ _____    ______ ____

>  <TORSDO>
F 2

$$$$
=
 OpenBabel11052417023D

 32 39  0  0  1  0  0  0  0  0999 V2000
  185.7090  179.1780  141.8360 C   0  0  2  0  0  3  0  0  0  0  0  0
  185.2430  179.0300  145.6620 C   0  0  0  0  0  3  0  0  0  0  0  0
  183.8540  178.7930  145.6830 C   0  0  0  0  0  3  0  0  0  0  0  0
  184.2000  179.0960  139.6850 C   0  0  1  0  0  3  0  0  0  0  0  0
  182.8810  178.9080  139.2570 C   0  0  0  0  0  0  0  0  0  0  0  0
  180.6590  178.6600  139.4540 N   0  0  0  0  0  0  0  0  0  0  0  0
  185.9270  179.1570  144.4410 C   0  0  0  0  0  3  0  0  0  0  0  0
  185.2000  179.0320  143.2550 C   0  0  0  0  0  0  0  0  0  0  0  0
  183.3560  178.7780  141.9300 C   0  0  0  0  0  0  0  0  0  0  0  0
  180.8430  178.7880  138.1030 O   0  0  0  0  0  0  0  0  0  0  0  0
  182.2400  179.0550  137.9260 C   0  0  0  0  0  3  0  0  0  0  0  0
  183.1320  178.6820  144.4840 C   0  0  0  0  0  3  0  0  0  0  0  0
  183.8360  178.8040  143.2880 C   0  0  0  0  0  0  0  0  0  0  0  0
  182.0740  178.6370  141.4860 N   0  0  0  0  0  0  0  0  0  0  0  0
  185.2260  179.3750  138.7900 O   0  0  0  0  0  1  0  0  0  0  0  0
  179.1890  179.1970  140.2150 Cl  0  0  0  0  0  0  0  0  0  0  0  0
  184.4260  179.0010  141.0670 C   0  0  0  0  0  0  0  0  0  0  0  0
  181.8840  178.6790  140.1370 C   0  0  0  0  0  0  0  0  0  0  0  0
  188.5630  176.8050  142.7690 C   0  0  2  0  0  3  0  0  0  0  0  0
  187.9900  178.7560  140.8310 C   0  0  0  0  0  2  0  0  0  0  0  0
  189.0230  177.7000  140.5920 C   0  0  0  0  0  3  0  0  0  0  0  0
  186.7500  178.1130  141.4550 C   0  0  1  0  0  3  0  0  0  0  0  0
  189.2610  176.8120  141.4960 N   0  0  0  0  0  0  0  0  0  0  0  0
  187.0660  177.1210  142.6000 C   0  0  0  0  0  2  0  0  0  0  0  0
  189.0170  176.8970  148.0140 C   0  0  0  0  0  2  0  0  0  0  0  0
  190.5170  177.4720  143.9350 O   0  0  0  0  0  0  0  0  0  0  0  0
  190.4190  177.6300  146.1760 C   0  0  2  0  0  3  0  0  0  0  0  0
  188.1320  177.4810  146.9390 C   0  0  0  0  0  2  0  0  0  0  0  0
  189.6300  177.0800  144.9760 C   0  0  2  0  0  0  0  0  0  0  0  0
  190.3420  176.6510  147.3350 C   0  0  0  0  0  2  0  0  0  0  0  0
  189.1970  177.7980  143.7310 C   0  0  2  0  0  3  0  0  0  0  0  0
  189.0590  178.1410  145.9320 C   0  0  2  0  0  3  0  0  0  0  0  0
  1 17  1  6  0  0  0
  1  8  1  0  0  0  0
  2  3  1  0  0  0  0
  4 15  1  1  0  0  0
  4 17  1  0  0  0  0
  5  4  1  0  0  0  0
  5 18  1  0  0  0  0
  6 18  1  0  0  0  0
  6 16  1  0  0  0  0
  7  2  2  0  0  0  0
  8 13  2  0  0  0  0
  8  7  1  0  0  0  0
  9 13  1  0  0  0  0
 10  6  1  0  0  0  0
 11 10  1  0  0  0  0
 11  5  2  0  0  0  0
 12  3  2  0  0  0  0
 13 12  1  0  0  0  0
 14  9  1  0  0  0  0
 17  9  2  0  0  0  0
 18 14  2  0  0  0  0
 19 24  1  6  0  0  0
 19 31  1  0  0  0  0
 21 20  1  0  0  0  0
 21 23  2  0  0  0  0
 22 20  1  1  0  0  0
 22  1  1  0  0  0  0
 22 24  1  0  0  0  0
 23 19  1  0  0  0  0
 27 30  1  1  0  0  0
 28 25  1  0  0  0  0
 29 26  1  6  0  0  0
 29 32  1  0  0  0  0
 29 27  1  0  0  0  0
 30 25  1  0  0  0  0
 31 26  1  6  0  0  0
 31 29  1  0  0  0  0
 32 27  1  0  0  0  0
 32 28  1  1  0  0  0
M  END
>  <MODEL>
2

>  <REMARK>
 VINA RESULT:     -10.2      0.907      1.027
  Name = 
  2 active torsions:
  status: ('A' for Active; 'I' for Inactive)
    1  A    between atoms: C_3  and  C_14
    2  A    between atoms: C_8  and  C_23
                            x       y       z     vdW  Elec       q    Type
                         _______ _______ _______ _____ _____    ______ ____

>  <TORSDO>
F 2

$$$$
=
 OpenBabel11052417023D

 32 39  0  0  1  0  0  0  0  0999 V2000
  189.5760  178.1180  141.0320 C   0  0  2  0  0  3  0  0  0  0  0  0
  185.8190  178.9280  140.7230 C   0  0  0  0  0  3  0  0  0  0  0  0
  185.6200  178.4510  139.4110 C   0  0  0  0  0  3  0  0  0  0  0  0
  191.4980  177.1770  139.5050 C   0  0  0  0  0  0  0  0  0  0  0  0
  191.7520  176.6380  138.2380 C   0  0  0  0  0  0  0  0  0  0  0  0
  191.3120  176.0440  136.1190 N   0  0  0  0  0  0  0  0  0  0  0  0
  187.0840  178.8440  141.3290 C   0  0  0  0  0  3  0  0  0  0  0  0
  188.1320  178.2700  140.6060 C   0  0  0  0  0  0  0  0  0  0  0  0
  189.1860  177.3270  138.8110 C   0  0  0  0  0  0  0  0  0  0  0  0
  192.6600  175.8330  136.2320 O   0  0  0  0  0  0  0  0  0  0  0  0
  193.0170  176.2970  137.5400 C   0  0  0  0  0  3  0  0  0  0  0  0
  186.6850  177.8880  138.6900 C   0  0  0  0  0  3  0  0  0  0  0  0
  187.9260  177.8100  139.3170 C   0  0  0  0  0  0  0  0  0  0  0  0
  189.4690  176.8360  137.5710 N   0  0  0  0  0  0  0  0  0  0  0  0
  192.5180  177.3890  140.4250 O   0  0  0  0  0  1  0  0  0  0  0  0
  190.5960  176.4830  134.5950 Cl  0  0  0  0  0  0  0  0  0  0  0  0
  190.1630  177.5030  139.7870 C   0  0  0  0  0  0  0  0  0  0  0  0
  190.7620  176.4740  137.3350 C   0  0  2  0  0  3  0  0  0  0  0  0
  188.3600  176.7530  144.3930 C   0  0  2  0  0  3  0  0  0  0  0  0
  190.7010  177.8310  143.2770 C   0  0  0  0  0  2  0  0  0  0  0  0
  190.7460  176.9680  144.4990 C   0  0  0  0  0  3  0  0  0  0  0  0
  189.7540  177.2020  142.2530 C   0  0  1  0  0  3  0  0  0  0  0  0
  189.6570  176.4800  144.9860 N   0  0  0  0  0  0  0  0  0  0  0  0
  188.4160  176.7100  142.8560 C   0  0  0  0  0  2  0  0  0  0  0  0
  183.4930  178.6270  145.1220 C   0  0  0  0  0  2  0  0  0  0  0  0
  187.7050  178.1090  146.2250 O   0  0  0  0  0  0  0  0  0  0  0  0
  185.6260  178.9660  146.2260 C   0  0  2  0  0  3  0  0  0  0  0  0
  184.5780  178.6560  144.0720 C   0  0  0  0  0  2  0  0  0  0  0  0
  186.4920  177.9210  145.5030 C   0  0  2  0  0  0  0  0  0  0  0  0
  184.2230  178.4210  146.4260 C   0  0  0  0  0  2  0  0  0  0  0  0
  187.8340  178.1030  144.8560 C   0  0  2  0  0  3  0  0  0  0  0  0
  185.8450  179.1120  144.7760 C   0  0  2  0  0  3  0  0  0  0  0  0
  1 17  1  6  0  0  0
  1 22  1  0  0  0  0
  2  7  1  0  0  0  0
  3  2  2  0  0  0  0
  4 17  2  0  0  0  0
  4 15  1  0  0  0  0
  5  4  1  0  0  0  0
  6 10  1  0  0  0  0
  6 18  1  0  0  0  0
  8  1  1  0  0  0  0
  8  7  2  0  0  0  0
  9 13  1  0  0  0  0
  9 17  1  0  0  0  0
 10 11  1  0  0  0  0
 11  5  2  0  0  0  0
 12 13  2  0  0  0  0
 12  3  1  0  0  0  0
 13  8  1  0  0  0  0
 14  9  2  0  0  0  0
 16  6  1  0  0  0  0
 18 14  1  6  0  0  0
 18  5  1  0  0  0  0
 19 24  1  6  0  0  0
 19 31  1  0  0  0  0
 19 23  1  0  0  0  0
 20 21  1  0  0  0  0
 21 23  2  0  0  0  0
 22 24  1  1  0  0  0
 22 20  1  0  0  0  0
 25 30  1  0  0  0  0
 27 30  1  6  0  0  0
 28 25  1  0  0  0  0
 29 26  1  1  0  0  0
 29 27  1  0  0  0  0
 31 29  1  0  0  0  0
 31 26  1  1  0  0  0
 32 28  1  6  0  0  0
 32 29  1  0  0  0  0
 32 27  1  0  0  0  0
M  END
>  <MODEL>
3

>  <REMARK>
 VINA RESULT:      -9.6      4.373      7.211
  Name = 
  2 active torsions:
  status: ('A' for Active; 'I' for Inactive)
    1  A    between atoms: C_3  and  C_14
    2  A    between atoms: C_8  and  C_23
                            x       y       z     vdW  Elec       q    Type
                         _______ _______ _______ _____ _____    ______ ____

>  <TORSDO>
F 2

$$$$
=
 OpenBabel11052417023D

 32 39  0  0  1  0  0  0  0  0999 V2000
  187.7760  177.1310  142.5620 C   0  0  2  0  0  3  0  0  0  0  0  0
  184.1830  178.4880  142.2190 C   0  0  0  0  0  3  0  0  0  0  0  0
  184.0310  178.9810  143.5300 C   0  0  0  0  0  3  0  0  0  0  0  0
  189.5840  176.8600  144.4510 C   0  0  1  0  0  3  0  0  0  0  0  0
  189.8470  177.1610  145.7930 C   0  0  0  0  0  0  0  0  0  0  0  0
  189.4100  177.8750  147.8750 N   0  0  0  0  0  0  0  0  0  0  0  0
  185.3840  177.8780  141.8200 C   0  0  0  0  0  3  0  0  0  0  0  0
  186.4230  177.7830  142.7490 C   0  0  0  0  0  0  0  0  0  0  0  0
  187.4650  177.9820  144.7720 C   0  0  0  0  0  0  0  0  0  0  0  0
  190.6570  177.3210  147.9870 O   0  0  0  0  0  0  0  0  0  0  0  0
  190.9460  176.7530  146.7040 C   0  0  0  0  0  3  0  0  0  0  0  0
  185.0780  178.8680  144.4590 C   0  0  0  0  0  3  0  0  0  0  0  0
  186.2610  178.2660  144.0350 C   0  0  0  0  0  0  0  0  0  0  0  0
  187.7320  178.2270  146.0880 N   0  0  0  0  0  0  0  0  0  0  0  0
  190.4830  176.1380  143.6750 O   0  0  0  0  0  1  0  0  0  0  0  0
  188.3040  177.8780  149.2180 Cl  0  0  0  0  0  0  0  0  0  0  0  0
  188.3590  177.3140  143.9390 C   0  0  0  0  0  0  0  0  0  0  0  0
  188.9500  177.8260  146.5500 C   0  0  0  0  0  0  0  0  0  0  0  0
  188.3550  178.2300  138.9430 C   0  0  2  0  0  3  0  0  0  0  0  0
  189.7340  176.8790  140.9840 C   0  0  0  0  0  2  0  0  0  0  0  0
  190.4630  177.5410  139.8560 C   0  0  0  0  0  3  0  0  0  0  0  0
  188.6350  177.8160  141.4880 C   0  0  1  0  0  3  0  0  0  0  0  0
  189.8060  178.1600  138.9360 N   0  0  0  0  0  0  0  0  0  0  0  0
  187.8040  178.4730  140.3590 C   0  0  0  0  0  2  0  0  0  0  0  0
  183.9960  177.2960  136.1410 C   0  0  0  0  0  2  0  0  0  0  0  0
  188.2410  176.7500  137.0940 O   0  0  0  0  0  0  0  0  0  0  0  0
  186.2280  176.3480  136.1740 C   0  0  2  0  0  3  0  0  0  0  0  0
  184.4650  177.2210  137.5740 C   0  0  0  0  0  2  0  0  0  0  0  0
  186.9290  177.3000  137.1580 C   0  0  2  0  0  0  0  0  0  0  0  0
  185.2480  177.1280  135.3160 C   0  0  0  0  0  2  0  0  0  0  0  0
  187.7560  176.9580  138.3630 C   0  0  2  0  0  3  0  0  0  0  0  0
  185.7470  176.4050  137.5650 C   0  0  2  0  0  3  0  0  0  0  0  0
  1  8  1  1  0  0  0
  1 17  1  0  0  0  0
  2  3  1  0  0  0  0
  3 12  2  0  0  0  0
  4 15  1  1  0  0  0
  4  5  1  0  0  0  0
  5 18  1  0  0  0  0
  5 11  2  0  0  0  0
  6 10  1  0  0  0  0
  6 16  1  0  0  0  0
  7  2  2  0  0  0  0
  7  8  1  0  0  0  0
  8 13  2  0  0  0  0
  9 14  1  0  0  0  0
 11 10  1  0  0  0  0
 13 12  1  0  0  0  0
 13  9  1  0  0  0  0
 14 18  2  0  0  0  0
 17  4  1  0  0  0  0
 17  9  2  0  0  0  0
 18  6  1  0  0  0  0
 19 24  1  1  0  0  0
 20 22  1  0  0  0  0
 21 20  1  0  0  0  0
 22 24  1  6  0  0  0
 22  1  1  0  0  0  0
 23 19  1  0  0  0  0
 23 21  2  0  0  0  0
 25 28  1  0  0  0  0
 27 30  1  6  0  0  0
 27 29  1  0  0  0  0
 27 32  1  0  0  0  0
 29 26  1  1  0  0  0
 29 32  1  0  0  0  0
 29 31  1  0  0  0  0
 30 25  1  0  0  0  0
 31 26  1  6  0  0  0
 31 19  1  0  0  0  0
 32 28  1  6  0  0  0
M  END
>  <MODEL>
4

>  <REMARK>
 VINA RESULT:      -9.3      3.657      7.637
  Name = 
  2 active torsions:
  status: ('A' for Active; 'I' for Inactive)
    1  A    between atoms: C_3  and  C_14
    2  A    between atoms: C_8  and  C_23
                            x       y       z     vdW  Elec       q    Type
                         _______ _______ _______ _____ _____    ______ ____

>  <TORSDO>
F 2

$$$$
=
 OpenBabel11052417023D

 32 39  0  0  1  0  0  0  0  0999 V2000
  188.2660  178.4910  139.8900 C   0  0  2  0  0  3  0  0  0  0  0  0
  191.8580  177.4260  140.8060 C   0  0  0  0  0  3  0  0  0  0  0  0
  191.6320  177.1110  142.1600 C   0  0  0  0  0  3  0  0  0  0  0  0
  185.9630  178.8260  141.1110 C   0  0  1  0  0  3  0  0  0  0  0  0
  185.3230  178.6680  142.3460 C   0  0  0  0  0  0  0  0  0  0  0  0
  185.1480  178.2520  144.5450 N   0  0  0  0  0  0  0  0  0  0  0  0
  190.8040  177.8740  139.9910 C   0  0  0  0  0  3  0  0  0  0  0  0
  189.5310  177.9880  140.5540 C   0  0  0  0  0  0  0  0  0  0  0  0
  187.9390  177.9440  142.1920 C   0  0  0  0  0  0  0  0  0  0  0  0
  183.8990  178.7030  144.2090 O   0  0  0  0  0  0  0  0  0  0  0  0
  183.9830  179.0840  142.8300 C   0  0  0  0  0  3  0  0  0  0  0  0
  190.3500  177.2420  142.7170 C   0  0  0  0  0  3  0  0  0  0  0  0
  189.3220  177.6800  141.8860 C   0  0  0  0  0  0  0  0  0  0  0  0
  187.3010  177.8370  143.3930 N   0  0  0  0  0  0  0  0  0  0  0  0
  185.3050  179.3660  140.0120 O   0  0  0  0  0  1  0  0  0  0  0  0
  185.7970  178.5110  146.1380 Cl  0  0  0  0  0  0  0  0  0  0  0  0
  187.3060  178.4240  141.0480 C   0  0  0  0  0  0  0  0  0  0  0  0
  185.9820  178.1820  143.4190 C   0  0  0  0  0  0  0  0  0  0  0  0
  189.0220  176.0440  137.0460 C   0  0  2  0  0  3  0  0  0  0  0  0
  187.6060  178.4360  137.4510 C   0  0  0  0  0  2  0  0  0  0  0  0
  187.2800  177.5210  136.3120 C   0  0  0  0  0  3  0  0  0  0  0  0
  187.8050  177.6060  138.7200 C   0  0  1  0  0  3  0  0  0  0  0  0
  187.9420  176.4250  136.1540 N   0  0  0  0  0  0  0  0  0  0  0  0
  188.6810  176.3460  138.5160 C   0  0  0  0  0  2  0  0  0  0  0  0
  194.0710  174.5520  137.1170 C   0  0  0  0  0  2  0  0  0  0  0  0
  190.5860  176.5220  135.3290 O   0  0  0  0  0  0  0  0  0  0  0  0
  192.7390  175.9650  135.6640 C   0  0  2  0  0  3  0  0  0  0  0  0
  193.1070  175.3420  137.9690 C   0  0  0  0  0  2  0  0  0  0  0  0
  191.3350  175.7330  136.2470 C   0  0  2  0  0  0  0  0  0  0  0  0
  193.5350  174.6730  135.7120 C   0  0  0  0  0  2  0  0  0  0  0  0
  190.3110  176.7510  136.6570 C   0  0  2  0  0  3  0  0  0  0  0  0
  192.4750  176.3770  137.0540 C   0  0  2  0  0  3  0  0  0  0  0  0
  1  8  1  1  0  0  0
  1 17  1  0  0  0  0
  2  3  1  0  0  0  0
  3 12  2  0  0  0  0
  4 15  1  1  0  0  0
  4  5  1  0  0  0  0
  5 11  2  0  0  0  0
  5 18  1  0  0  0  0
  6 16  1  0  0  0  0
  7  8  1  0  0  0  0
  7  2  2  0  0  0  0
  8 13  2  0  0  0  0
  9 14  1  0  0  0  0
 10  6  1  0  0  0  0
 11 10  1  0  0  0  0
 13  9  1  0  0  0  0
 13 12  1  0  0  0  0
 14 18  2  0  0  0  0
 17  4  1  0  0  0  0
 17  9  2  0  0  0  0
 18  6  1  0  0  0  0
 19 24  1  1  0  0  0
 21 20  1  0  0  0  0
 22 20  1  6  0  0  0
 22  1  1  0  0  0  0
 23 21  2  0  0  0  0
 23 19  1  0  0  0  0
 24 22  1  0  0  0  0
 25 28  1  0  0  0  0
 27 30  1  1  0  0  0
 27 29  1  0  0  0  0
 27 32  1  0  0  0  0
 29 26  1  6  0  0  0
 29 31  1  0  0  0  0
 29 32  1  0  0  0  0
 30 25  1  0  0  0  0
 31 26  1  6  0  0  0
 31 19  1  0  0  0  0
 32 28  1  1  0  0  0
M  END
>  <MODEL>
5

>  <REMARK>
 VINA RESULT:      -8.8      4.026      6.543
  Name = 
  2 active torsions:
  status: ('A' for Active; 'I' for Inactive)
    1  A    between atoms: C_3  and  C_14
    2  A    between atoms: C_8  and  C_23
                            x       y       z     vdW  Elec       q    Type
                         _______ _______ _______ _____ _____    ______ ____

>  <TORSDO>
F 2

$$$$
=
 OpenBabel11052417023D

 32 39  0  0  1  0  0  0  0  0999 V2000
  185.8020  179.0570  143.5090 C   0  0  2  0  0  3  0  0  0  0  0  0
  187.2630  178.2980  140.0210 C   0  0  0  0  0  3  0  0  0  0  0  0
  188.3520  177.5030  140.4320 C   0  0  0  0  0  3  0  0  0  0  0  0
  186.4200  178.5970  146.0220 C   0  0  1  0  0  3  0  0  0  0  0  0
  187.3380  177.9260  146.8390 C   0  0  0  0  0  0  0  0  0  0  0  0
  189.1840  176.7540  147.3430 N   0  0  0  0  0  0  0  0  0  0  0  0
  186.3750  178.8350  140.9680 C   0  0  0  0  0  3  0  0  0  0  0  0
  186.5920  178.5540  142.3190 C   0  0  0  0  0  0  0  0  0  0  0  0
  187.6640  177.7050  144.1490 C   0  0  0  0  0  0  0  0  0  0  0  0
  188.6840  177.0980  148.5710 O   0  0  0  0  0  0  0  0  0  0  0  0
  187.5560  177.9410  148.3070 C   0  0  0  0  0  3  0  0  0  0  0  0
  188.5660  177.2370  141.7930 C   0  0  0  0  0  3  0  0  0  0  0  0
  187.6670  177.7760  142.7100 C   0  0  0  0  0  0  0  0  0  0  0  0
  188.5660  177.0930  144.9700 N   0  0  0  0  0  0  0  0  0  0  0  0
  185.4020  179.3780  146.5560 O   0  0  0  0  0  1  0  0  0  0  0  0
  190.8930  176.5390  147.0980 Cl  0  0  0  0  0  0  0  0  0  0  0  0
  186.5940  178.4490  144.6370 C   0  0  0  0  0  0  0  0  0  0  0  0
  188.3480  177.2040  146.3110 C   0  0  0  0  0  0  0  0  0  0  0  0
  182.6310  177.9700  141.6630 C   0  0  2  0  0  3  0  0  0  0  0  0
  183.3780  179.7450  143.7090 C   0  0  0  0  0  2  0  0  0  0  0  0
  181.9720  179.2480  143.5840 C   0  0  0  0  0  3  0  0  0  0  0  0
  184.3440  178.5740  143.5150 C   0  0  1  0  0  3  0  0  0  0  0  0
  181.6580  178.4280  142.6390 N   0  0  0  0  0  0  0  0  0  0  0  0
  183.9900  177.6610  142.3160 C   0  0  0  0  0  2  0  0  0  0  0  0
  183.2870  177.5500  136.4560 C   0  0  0  0  0  2  0  0  0  0  0  0
  181.5800  179.3680  140.0620 O   0  0  0  0  0  0  0  0  0  0  0  0
  182.1650  179.1410  137.9020 C   0  0  2  0  0  3  0  0  0  0  0  0
  184.1260  177.7460  137.6950 C   0  0  0  0  0  2  0  0  0  0  0  0
  182.3050  178.4390  139.2640 C   0  0  2  0  0  0  0  0  0  0  0  0
  181.9320  178.1090  136.8130 C   0  0  0  0  0  2  0  0  0  0  0  0
  182.8080  179.0020  140.5600 C   0  0  2  0  0  3  0  0  0  0  0  0
  183.5160  178.9180  138.4460 C   0  0  2  0  0  3  0  0  0  0  0  0
  1  8  1  6  0  0  0
  1 22  1  0  0  0  0
  1 17  1  0  0  0  0
  2  3  2  0  0  0  0
  2  7  1  0  0  0  0
  3 12  1  0  0  0  0
  4 15  1  6  0  0  0
  4  5  1  0  0  0  0
  5 11  2  0  0  0  0
  6 10  1  0  0  0  0
  7  8  2  0  0  0  0
  8 13  1  0  0  0  0
  9 17  2  0  0  0  0
  9 14  1  0  0  0  0
 11 10  1  0  0  0  0
 12 13  2  0  0  0  0
 13  9  1  0  0  0  0
 14 18  2  0  0  0  0
 16  6  1  0  0  0  0
 17  4  1  0  0  0  0
 18  5  1  0  0  0  0
 18  6  1  0  0  0  0
 19 24  1  1  0  0  0
 19 23  1  0  0  0  0
 21 20  1  0  0  0  0
 22 24  1  6  0  0  0
 22 20  1  0  0  0  0
 23 21  2  0  0  0  0
 25 30  1  0  0  0  0
 25 28  1  0  0  0  0
 27 30  1  6  0  0  0
 27 32  1  0  0  0  0
 27 29  1  0  0  0  0
 29 26  1  1  0  0  0
 29 31  1  0  0  0  0
 31 26  1  1  0  0  0
 31 19  1  0  0  0  0
 32 28  1  6  0  0  0
 32 29  1  0  0  0  0
M  END
>  <MODEL>
6

>  <REMARK>
 VINA RESULT:      -8.5      3.400      8.383
  Name = 
  2 active torsions:
  status: ('A' for Active; 'I' for Inactive)
    1  A    between atoms: C_3  and  C_14
    2  A    between atoms: C_8  and  C_23
                            x       y       z     vdW  Elec       q    Type
                         _______ _______ _______ _____ _____    ______ ____

>  <TORSDO>
F 2

$$$$
=
 OpenBabel11052417023D

 32 39  0  0  1  0  0  0  0  0999 V2000
  184.1190  179.2080  142.7600 C   0  0  2  0  0  3  0  0  0  0  0  0
  184.9800  179.1480  139.0010 C   0  0  0  0  0  3  0  0  0  0  0  0
  186.2400  178.5260  139.0970 C   0  0  0  0  0  3  0  0  0  0  0  0
  185.2760  178.5770  145.0340 C   0  0  0  0  0  0  0  0  0  0  0  0
  186.4300  177.9950  145.5730 C   0  0  0  0  0  0  0  0  0  0  0  0
  188.5030  177.1340  145.5750 N   0  0  0  0  0  0  0  0  0  0  0  0
  184.2170  179.3960  140.1550 C   0  0  0  0  0  3  0  0  0  0  0  0
  184.7330  179.0030  141.3920 C   0  0  0  0  0  0  0  0  0  0  0  0
  186.2610  178.1570  142.8650 C   0  0  0  0  0  0  0  0  0  0  0  0
  188.2010  177.2330  146.9070 O   0  0  0  0  0  0  0  0  0  0  0  0
  186.9230  177.8780  146.9690 C   0  0  0  0  0  3  0  0  0  0  0  0
  186.7540  178.1460  140.3470 C   0  0  0  0  0  3  0  0  0  0  0  0
  185.9740  178.3960  141.4740 C   0  0  0  0  0  0  0  0  0  0  0  0
  187.3910  177.6310  143.4190 N   0  0  0  0  0  0  0  0  0  0  0  0
  184.2690  179.0870  145.8440 O   0  0  0  0  0  1  0  0  0  0  0  0
  190.1440  177.2700  145.0140 Cl  0  0  0  0  0  0  0  0  0  0  0  0
  185.2000  178.6280  143.6340 C   0  0  0  0  0  0  0  0  0  0  0  0
  187.4220  177.5410  144.7790 C   0  0  2  0  0  3  0  0  0  0  0  0
  180.5850  178.3420  141.5750 C   0  0  2  0  0  3  0  0  0  0  0  0
  181.8710  179.2100  143.9170 C   0  0  0  0  0  2  0  0  0  0  0  0
  180.5430  178.5220  143.9670 C   0  0  0  0  0  3  0  0  0  0  0  0
  182.7850  178.4660  142.9410 C   0  0  1  0  0  3  0  0  0  0  0  0
  179.9780  178.1270  142.8760 N   0  0  0  0  0  0  0  0  0  0  0  0
  182.1020  178.0870  141.6050 C   0  0  0  0  0  2  0  0  0  0  0  0
  180.6600  180.5260  136.7840 C   0  0  0  0  0  2  0  0  0  0  0  0
  178.9700  179.8850  140.7790 O   0  0  0  0  0  0  0  0  0  0  0  0
  179.3130  180.8470  138.7750 C   0  0  2  0  0  3  0  0  0  0  0  0
  181.5550  180.4060  137.9940 C   0  0  0  0  0  2  0  0  0  0  0  0
  179.8290  179.6990  139.6590 C   0  0  2  0  0  0  0  0  0  0  0  0
  179.2580  180.3960  137.3260 C   0  0  0  0  0  2  0  0  0  0  0  0
  180.3050  179.7530  141.0810 C   0  0  2  0  0  3  0  0  0  0  0  0
  180.7280  180.8540  139.1870 C   0  0  2  0  0  3  0  0  0  0  0  0
  1  8  1  6  0  0  0
  1 22  1  0  0  0  0
  1 17  1  0  0  0  0
  2  3  2  0  0  0  0
  2  7  1  0  0  0  0
  3 12  1  0  0  0  0
  4  5  1  0  0  0  0
  4 15  1  0  0  0  0
  5 11  2  0  0  0  0
  6 10  1  0  0  0  0
  7  8  2  0  0  0  0
  8 13  1  0  0  0  0
  9 14  2  0  0  0  0
  9 17  1  0  0  0  0
 10 11  1  0  0  0  0
 12 13  2  0  0  0  0
 13  9  1  0  0  0  0
 16  6  1  0  0  0  0
 17  4  2  0  0  0  0
 18 14  1  6  0  0  0
 18  5  1  0  0  0  0
 18  6  1  0  0  0  0
 19 24  1  1  0  0  0
 19 23  1  0  0  0  0
 20 21  1  0  0  0  0
 22 24  1  6  0  0  0
 22 20  1  0  0  0  0
 23 21  2  0  0  0  0
 25 30  1  0  0  0  0
 25 28  1  0  0  0  0
 27 30  1  6  0  0  0
 27 32  1  0  0  0  0
 27 29  1  0  0  0  0
 29 26  1  1  0  0  0
 29 31  1  0  0  0  0
 31 26  1  1  0  0  0
 31 19  1  0  0  0  0
 32 28  1  6  0  0  0
 32 29  1  0  0  0  0
M  END
>  <MODEL>
7

>  <REMARK>
 VINA RESULT:      -8.4      3.283      8.937
  Name = 
  2 active torsions:
  status: ('A' for Active; 'I' for Inactive)
    1  A    between atoms: C_3  and  C_14
    2  A    between atoms: C_8  and  C_23
                            x       y       z     vdW  Elec       q    Type
                         _______ _______ _______ _____ _____    ______ ____

>  <TORSDO>
F 2

$$$$
=
 OpenBabel11052417023D

 32 39  0  0  1  0  0  0  0  0999 V2000
  187.1640  177.2580  142.8130 C   0  0  2  0  0  3  0  0  0  0  0  0
  183.5950  178.6110  143.3630 C   0  0  0  0  0  3  0  0  0  0  0  0
  183.7470  179.0350  144.6980 C   0  0  0  0  0  3  0  0  0  0  0  0
  189.3500  176.8990  144.2270 C   0  0  1  0  0  3  0  0  0  0  0  0
  189.9120  177.1320  145.4880 C   0  0  0  0  0  0  0  0  0  0  0  0
  189.9620  177.7350  147.6490 N   0  0  0  0  0  0  0  0  0  0  0  0
  184.6710  178.0300  142.6710 C   0  0  0  0  0  3  0  0  0  0  0  0
  185.8920  177.8920  143.3350 C   0  0  0  0  0  0  0  0  0  0  0  0
  187.3660  177.9910  145.0770 C   0  0  0  0  0  0  0  0  0  0  0  0
  191.1980  177.1830  147.4480 O   0  0  0  0  0  0  0  0  0  0  0  0
  191.1860  176.6830  146.1050 C   0  0  0  0  0  3  0  0  0  0  0  0
  184.9760  178.8800  145.3580 C   0  0  0  0  0  3  0  0  0  0  0  0
  186.0280  178.3070  144.6480 C   0  0  0  0  0  0  0  0  0  0  0  0
  187.9260  178.1700  146.3090 N   0  0  0  0  0  0  0  0  0  0  0  0
  190.0460  176.2240  143.2310 O   0  0  0  0  0  1  0  0  0  0  0  0
  189.1890  177.6610  149.2070 Cl  0  0  0  0  0  0  0  0  0  0  0  0
  188.0440  177.3730  144.0300 C   0  0  0  0  0  0  0  0  0  0  0  0
  189.2140  177.7510  146.4630 C   0  0  0  0  0  0  0  0  0  0  0  0
  186.7980  178.8840  139.3690 C   0  0  2  0  0  3  0  0  0  0  0  0
  188.4700  177.0340  140.6610 C   0  0  0  0  0  2  0  0  0  0  0  0
  188.9260  177.7810  139.4470 C   0  0  0  0  0  3  0  0  0  0  0  0
  187.7610  178.0030  141.6090 C   0  0  1  0  0  3  0  0  0  0  0  0
  188.1400  178.6300  138.8770 N   0  0  0  0  0  0  0  0  0  0  0  0
  186.7560  178.9470  140.9060 C   0  0  0  0  0  2  0  0  0  0  0  0
  181.5680  178.8080  138.7570 C   0  0  0  0  0  2  0  0  0  0  0  0
  185.6790  177.9360  137.5050 O   0  0  0  0  0  0  0  0  0  0  0  0
  183.4330  177.8330  137.5510 C   0  0  2  0  0  3  0  0  0  0  0  0
  182.6030  178.3540  139.7580 C   0  0  0  0  0  2  0  0  0  0  0  0
  184.6190  178.4800  138.2840 C   0  0  2  0  0  0  0  0  0  0  0  0
  182.2940  178.8300  137.4340 C   0  0  0  0  0  2  0  0  0  0  0  0
  185.8340  177.8200  138.8660 C   0  0  2  0  0  3  0  0  0  0  0  0
  183.6230  177.5390  138.9820 C   0  0  2  0  0  3  0  0  0  0  0  0
  1  8  1  1  0  0  0
  1 17  1  0  0  0  0
  2  3  1  0  0  0  0
  3 12  2  0  0  0  0
  4 15  1  1  0  0  0
  4  5  1  0  0  0  0
  5 11  2  0  0  0  0
  5 18  1  0  0  0  0
  6 16  1  0  0  0  0
  7  8  1  0  0  0  0
  7  2  2  0  0  0  0
  8 13  2  0  0  0  0
  9 14  1  0  0  0  0
 10  6  1  0  0  0  0
 11 10  1  0  0  0  0
 13  9  1  0  0  0  0
 13 12  1  0  0  0  0
 14 18  2  0  0  0  0
 17  4  1  0  0  0  0
 17  9  2  0  0  0  0
 18  6  1  0  0  0  0
 19 24  1  1  0  0  0
 21 20  1  0  0  0  0
 22 20  1  6  0  0  0
 22  1  1  0  0  0  0
 23 19  1  0  0  0  0
 23 21  2  0  0  0  0
 24 22  1  0  0  0  0
 25 28  1  0  0  0  0
 27 30  1  1  0  0  0
 27 29  1  0  0  0  0
 27 32  1  0  0  0  0
 29 26  1  6  0  0  0
 29 31  1  0  0  0  0
 29 32  1  0  0  0  0
 30 25  1  0  0  0  0
 31 26  1  6  0  0  0
 31 19  1  0  0  0  0
 32 28  1  1  0  0  0
M  END
>  <MODEL>
8

>  <REMARK>
 VINA RESULT:      -8.2      3.306      7.693
  Name = 
  2 active torsions:
  status: ('A' for Active; 'I' for Inactive)
    1  A    between atoms: C_3  and  C_14
    2  A    between atoms: C_8  and  C_23
                            x       y       z     vdW  Elec       q    Type
                         _______ _______ _______ _____ _____    ______ ____

>  <TORSDO>
F 2

$$$$
=
 OpenBabel11052417023D

 32 39  0  0  1  0  0  0  0  0999 V2000
  184.2750  179.0030  141.8860 C   0  0  2  0  0  3  0  0  0  0  0  0
  186.2540  178.6280  138.5970 C   0  0  0  0  0  3  0  0  0  0  0  0
  187.4620  178.1520  139.1460 C   0  0  0  0  0  3  0  0  0  0  0  0
  184.7140  178.7430  144.4640 C   0  0  1  0  0  3  0  0  0  0  0  0
  185.6810  178.3440  145.3950 C   0  0  0  0  0  0  0  0  0  0  0  0
  187.7040  177.7060  146.1290 N   0  0  0  0  0  0  0  0  0  0  0  0
  185.1590  178.9190  139.4280 C   0  0  0  0  0  3  0  0  0  0  0  0
  185.2930  178.7160  140.8030 C   0  0  0  0  0  0  0  0  0  0  0  0
  186.3450  178.1960  142.7630 C   0  0  0  0  0  0  0  0  0  0  0  0
  187.0010  177.9160  147.2850 O   0  0  0  0  0  0  0  0  0  0  0  0
  185.7270  178.4290  146.8760 C   0  0  0  0  0  3  0  0  0  0  0  0
  187.5890  177.9640  140.5310 C   0  0  0  0  0  3  0  0  0  0  0  0
  186.4860  178.2530  141.3310 C   0  0  0  0  0  0  0  0  0  0  0  0
  187.2810  177.8510  143.6940 N   0  0  0  0  0  0  0  0  0  0  0  0
  183.4760  179.2310  144.8620 O   0  0  0  0  0  1  0  0  0  0  0  0
  189.4260  177.9490  146.0690 Cl  0  0  0  0  0  0  0  0  0  0  0  0
  185.0700  178.6350  143.1110 C   0  0  0  0  0  0  0  0  0  0  0  0
  186.8970  177.9120  145.0010 C   0  0  0  0  0  0  0  0  0  0  0  0
  181.7600  177.0390  139.7730 C   0  0  2  0  0  3  0  0  0  0  0  0
  181.7510  179.0320  141.7530 C   0  0  0  0  0  2  0  0  0  0  0  0
  180.5490  178.1750  141.5050 C   0  0  0  0  0  3  0  0  0  0  0  0
  183.0020  178.1510  141.7600 C   0  0  1  0  0  3  0  0  0  0  0  0
  180.5830  177.2630  140.5930 N   0  0  0  0  0  0  0  0  0  0  0  0
  183.0550  177.1280  140.5990 C   0  0  0  0  0  2  0  0  0  0  0  0
  183.3550  176.6410  134.7710 C   0  0  0  0  0  2  0  0  0  0  0  0
  180.6260  177.9960  137.9230 O   0  0  0  0  0  0  0  0  0  0  0  0
  181.5980  177.8740  135.8990 C   0  0  2  0  0  3  0  0  0  0  0  0
  183.8860  177.1270  136.0980 C   0  0  0  0  0  2  0  0  0  0  0  0
  181.7100  177.2990  137.3200 C   0  0  2  0  0  0  0  0  0  0  0  0
  181.8570  176.7800  134.8790 C   0  0  0  0  0  2  0  0  0  0  0  0
  181.8080  178.0350  138.6240 C   0  0  2  0  0  3  0  0  0  0  0  0
  182.8470  178.0890  136.6500 C   0  0  2  0  0  3  0  0  0  0  0  0
  1  8  1  6  0  0  0
  1 17  1  0  0  0  0
  2  3  2  0  0  0  0
  2  7  1  0  0  0  0
  3 12  1  0  0  0  0
  4 15  1  1  0  0  0
  4  5  1  0  0  0  0
  5 11  2  0  0  0  0
  6 10  1  0  0  0  0
  7  8  2  0  0  0  0
  8 13  1  0  0  0  0
  9 17  2  0  0  0  0
  9 14  1  0  0  0  0
 11 10  1  0  0  0  0
 12 13  2  0  0  0  0
 13  9  1  0  0  0  0
 14 18  2  0  0  0  0
 16  6  1  0  0  0  0
 17  4  1  0  0  0  0
 18  5  1  0  0  0  0
 18  6  1  0  0  0  0
 19 23  1  0  0  0  0
 19 24  1  1  0  0  0
 20 22  1  0  0  0  0
 21 20  1  0  0  0  0
 22 24  1  6  0  0  0
 22  1  1  0  0  0  0
 23 21  2  0  0  0  0
 25 30  1  0  0  0  0
 25 28  1  0  0  0  0
 27 30  1  6  0  0  0
 27 32  1  0  0  0  0
 27 29  1  0  0  0  0
 29 26  1  6  0  0  0
 29 31  1  0  0  0  0
 31 26  1  1  0  0  0
 31 19  1  0  0  0  0
 32 28  1  6  0  0  0
 32 29  1  0  0  0  0
M  END
>  <MODEL>
9

>  <REMARK>
 VINA RESULT:      -8.0      3.391      8.527
  Name = 
  2 active torsions:
  status: ('A' for Active; 'I' for Inactive)
    1  A    between atoms: C_3  and  C_14
    2  A    between atoms: C_8  and  C_23
                            x       y       z     vdW  Elec       q    Type
                         _______ _______ _______ _____ _____    ______ ____

>  <TORSDO>
F 2

$$$$
