=
 OpenBabel11052414163D

 34 40  0  0  1  0  0  0  0  0999 V2000
  184.1720  178.0560  139.9910 C   0  0  0  0  0  0  0  0  0  0  0  0
  186.1760  178.8820  141.2380 C   0  0  0  0  0  0  0  0  0  0  0  0
  186.3440  178.3120  138.8880 N   0  0  0  0  0  0  0  0  0  0  0  0
  188.1340  177.7730  137.5940 C   0  0  1  0  0  3  0  0  0  0  0  0
  184.0550  178.3850  142.3820 C   0  0  0  0  0  3  0  0  0  0  0  0
  185.4960  178.7210  142.3810 C   0  0  0  0  0  3  0  0  0  0  0  0
  188.4810  178.4840  139.8410 C   0  0  1  0  0  3  0  0  0  0  0  0
  185.4640  178.8610  139.9130 C   0  0  1  0  0  3  0  0  0  0  0  0
  189.0750  176.3980  138.3710 S   0  0  0  0  0  0  0  0  0  0  0  0
  183.4200  178.0660  141.2520 C   0  0  0  0  0  3  0  0  0  0  0  0
  185.8800  177.5120  137.8380 C   0  0  0  0  0  0  0  0  0  0  0  0
  183.7810  177.2490  138.9910 C   0  0  0  0  0  3  0  0  0  0  0  0
  187.8860  179.4150  141.3110 S   0  0  0  0  0  0  0  0  0  0  0  0
  186.9320  177.2250  136.9540 N   0  0  0  0  0  0  0  0  0  0  0  0
  188.6810  177.0040  140.0330 C   0  0  1  0  0  3  0  0  0  0  0  0
  187.6710  178.7180  138.6480 N   0  0  2  0  0  0  0  0  0  0  0  0
  184.6560  176.9870  137.8290 C   0  0  0  0  0  3  0  0  0  0  0  0
  188.3220  176.3940  142.9080 C   0  0  0  0  0  2  0  0  0  0  0  0
  188.3190  177.1810  144.2160 C   0  0  0  0  0  2  0  0  0  0  0  0
  189.6770  176.4850  142.2610 C   0  0  0  0  0  0  0  0  0  0  0  0
  189.4730  176.7390  145.1170 C   0  0  1  0  0  3  0  0  0  0  0  0
  189.8300  176.7470  140.9580 C   0  0  0  0  0  3  0  0  0  0  0  0
  190.8100  176.9770  144.4110 C   0  0  1  0  0  3  0  0  0  0  0  0
  191.8510  176.5880  145.2330 F   0  0  0  0  0  0  0  0  0  0  0  0
  190.8820  176.1940  143.1010 C   0  0  0  0  0  2  0  0  0  0  0  0
  189.4310  177.4600  146.2940 F   0  0  0  0  0  0  0  0  0  0  0  0
  186.9130  176.2700  135.8550 C   0  0  0  0  0  2  0  0  0  0  0  0
  184.2450  173.5910  136.0260 C   0  0  0  0  0  0  0  0  0  0  0  0
  184.7950  172.7140  136.9660 C   0  0  0  0  0  3  0  0  0  0  0  0
  186.1690  175.0450  136.2560 C   0  0  0  0  0  0  0  0  0  0  0  0
  186.0340  172.9990  137.5470 C   0  0  0  0  0  3  0  0  0  0  0  0
  184.9310  174.7550  135.6700 C   0  0  0  0  0  3  0  0  0  0  0  0
  186.7220  174.1630  137.1910 C   0  0  0  0  0  3  0  0  0  0  0  0
  182.6970  173.2320  135.2920 Cl  0  0  0  0  0  0  0  0  0  0  0  0
  1 10  1  0  0  0  0
  2 13  1  0  0  0  0
  2  6  2  0  0  0  0
  3  8  1  0  0  0  0
  4  9  1  1  0  0  0
  4 16  1  0  0  0  0
  6  5  1  0  0  0  0
  7 15  1  0  0  0  0
  7 13  1  1  0  0  0
  8  1  1  1  0  0  0
  8  2  1  0  0  0  0
  9 15  1  0  0  0  0
 10  5  2  0  0  0  0
 11  3  1  0  0  0  0
 12  1  2  0  0  0  0
 14  4  1  0  0  0  0
 14 11  1  0  0  0  0
 15 22  1  1  0  0  0
 16  3  1  1  0  0  0
 16  7  1  0  0  0  0
 17 11  2  0  0  0  0
 17 12  1  0  0  0  0
 18 19  1  0  0  0  0
 19 21  1  0  0  0  0
 20 18  1  0  0  0  0
 20 25  1  0  0  0  0
 21 26  1  1  0  0  0
 22 20  2  0  0  0  0
 23 21  1  0  0  0  0
 23 24  1  1  0  0  0
 25 23  1  0  0  0  0
 27 30  1  0  0  0  0
 27 14  1  0  0  0  0
 28 29  1  0  0  0  0
 29 31  2  0  0  0  0
 30 33  2  0  0  0  0
 32 28  2  0  0  0  0
 32 30  1  0  0  0  0
 33 31  1  0  0  0  0
 34 28  1  0  0  0  0
M  END
>  <MODEL>
1

>  <REMARK>
 VINA RESULT:      -7.7      0.000      0.000
  Name = 
  3 active torsions:
  status: ('A' for Active; 'I' for Inactive)
    1  A    between atoms: C_12  and  C_28
    2  A    between atoms: C_17  and  C_29
    3  A    between atoms: N_26  and  C_28
                            x       y       z     vdW  Elec       q    Type
                         _______ _______ _______ _____ _____    ______ ____

>  <TORSDO>
F 3

$$$$
=
 OpenBabel11052414163D

 34 40  0  0  1  0  0  0  0  0999 V2000
  187.9600  173.5400  136.4430 C   0  0  0  0  0  0  0  0  0  0  0  0
  186.6150  175.6080  136.8480 C   0  0  0  0  0  0  0  0  0  0  0  0
  189.0350  175.7150  136.7760 N   0  0  0  0  0  0  0  0  0  0  0  0
  190.5010  177.2430  137.6040 C   0  0  1  0  0  3  0  0  0  0  0  0
  185.5690  173.3830  136.7590 C   0  0  0  0  0  3  0  0  0  0  0  0
  185.5350  174.8370  137.0320 C   0  0  0  0  0  3  0  0  0  0  0  0
  188.1600  177.6730  137.7280 C   0  0  1  0  0  3  0  0  0  0  0  0
  187.8630  175.0450  136.2260 C   0  0  1  0  0  3  0  0  0  0  0  0
  190.1770  177.5140  139.3930 S   0  0  0  0  0  0  0  0  0  0  0  0
  186.7160  172.7600  136.4810 C   0  0  0  0  0  3  0  0  0  0  0  0
  190.2470  175.0550  137.0090 C   0  0  0  0  0  0  0  0  0  0  0  0
  189.1280  172.9400  136.7260 C   0  0  0  0  0  3  0  0  0  0  0  0
  186.4660  177.3810  137.0750 S   0  0  0  0  0  0  0  0  0  0  0  0
  191.2180  175.9750  137.4370 N   0  0  0  0  0  0  0  0  0  0  0  0
  188.3980  177.2660  139.1570 C   0  0  1  0  0  3  0  0  0  0  0  0
  189.2070  177.1090  136.8780 N   0  0  2  0  0  0  0  0  0  0  0  0
  190.3510  173.7270  136.9850 C   0  0  0  0  0  3  0  0  0  0  0  0
  188.6490  177.1020  142.1030 C   0  0  0  0  0  2  0  0  0  0  0  0
  187.9120  176.4010  143.2420 C   0  0  0  0  0  2  0  0  0  0  0  0
  187.7260  178.0740  141.4210 C   0  0  0  0  0  0  0  0  0  0  0  0
  187.2720  177.4210  144.1830 C   0  0  1  0  0  3  0  0  0  0  0  0
  187.6290  178.1520  140.0890 C   0  0  0  0  0  3  0  0  0  0  0  0
  186.2670  178.2840  143.4160 C   0  0  1  0  0  3  0  0  0  0  0  0
  185.6810  179.1970  144.2720 F   0  0  0  0  0  0  0  0  0  0  0  0
  186.9530  179.0330  142.2730 C   0  0  0  0  0  2  0  0  0  0  0  0
  186.6260  176.7530  145.2050 F   0  0  0  0  0  0  0  0  0  0  0  0
  192.5380  175.6660  137.9680 C   0  0  0  0  0  2  0  0  0  0  0  0
  195.0690  176.6760  135.3420 C   0  0  0  0  0  0  0  0  0  0  0  0
  195.4330  175.4320  134.8170 C   0  0  0  0  0  3  0  0  0  0  0  0
  193.5280  175.5860  136.8600 C   0  0  0  0  0  0  0  0  0  0  0  0
  194.8480  174.2640  135.3170 C   0  0  0  0  0  3  0  0  0  0  0  0
  194.1190  176.7530  136.3630 C   0  0  0  0  0  3  0  0  0  0  0  0
  193.8990  174.3410  136.3400 C   0  0  0  0  0  3  0  0  0  0  0  0
  195.8050  178.1370  134.7220 Cl  0  0  0  0  0  0  0  0  0  0  0  0
  1 10  1  0  0  0  0
  1 12  2  0  0  0  0
  2  6  2  0  0  0  0
  2 13  1  0  0  0  0
  3 11  1  0  0  0  0
  4  9  1  1  0  0  0
  5  6  1  0  0  0  0
  7 13  1  6  0  0  0
  7 15  1  0  0  0  0
  8  1  1  1  0  0  0
  8  3  1  0  0  0  0
  8  2  1  0  0  0  0
 10  5  2  0  0  0  0
 11 14  1  0  0  0  0
 12 17  1  0  0  0  0
 14  4  1  0  0  0  0
 14 27  1  0  0  0  0
 15  9  1  0  0  0  0
 15 22  1  1  0  0  0
 16  3  1  1  0  0  0
 16  4  1  0  0  0  0
 16  7  1  0  0  0  0
 17 11  2  0  0  0  0
 18 19  1  0  0  0  0
 19 21  1  0  0  0  0
 20 18  1  0  0  0  0
 20 25  1  0  0  0  0
 21 26  1  1  0  0  0
 22 20  2  0  0  0  0
 23 21  1  0  0  0  0
 23 24  1  1  0  0  0
 25 23  1  0  0  0  0
 28 32  1  0  0  0  0
 29 31  1  0  0  0  0
 29 28  2  0  0  0  0
 30 27  1  0  0  0  0
 31 33  2  0  0  0  0
 32 30  2  0  0  0  0
 33 30  1  0  0  0  0
 34 28  1  0  0  0  0
M  END
>  <MODEL>
2

>  <REMARK>
 VINA RESULT:      -7.6      4.360      6.361
  Name = 
  3 active torsions:
  status: ('A' for Active; 'I' for Inactive)
    1  A    between atoms: C_12  and  C_28
    2  A    between atoms: C_17  and  C_29
    3  A    between atoms: N_26  and  C_28
                            x       y       z     vdW  Elec       q    Type
                         _______ _______ _______ _____ _____    ______ ____

>  <TORSDO>
F 3

$$$$
=
 OpenBabel11052414163D

 34 40  0  0  1  0  0  0  0  0999 V2000
  186.3480  178.0660  142.4550 C   0  0  0  0  0  0  0  0  0  0  0  0
  188.2120  178.1070  140.7890 C   0  0  0  0  0  0  0  0  0  0  0  0
  185.9510  178.6580  140.1120 N   0  0  0  0  0  0  0  0  0  0  0  0
  184.9460  178.6540  138.0720 C   0  0  1  0  0  3  0  0  0  0  0  0
  188.5460  177.2790  143.0820 C   0  0  0  0  0  3  0  0  0  0  0  0
  188.9900  177.4870  141.6850 C   0  0  0  0  0  3  0  0  0  0  0  0
  187.2880  178.2430  138.2290 C   0  0  1  0  0  3  0  0  0  0  0  0
  186.9110  178.7350  141.2060 C   0  0  1  0  0  3  0  0  0  0  0  0
  185.1820  177.0210  137.2630 S   0  0  0  0  0  0  0  0  0  0  0  0
  187.2920  177.5490  143.4540 C   0  0  0  0  0  3  0  0  0  0  0  0
  184.5820  178.4540  140.3160 C   0  0  0  0  0  0  0  0  0  0  0  0
  185.0340  177.8280  142.5980 C   0  0  0  0  0  3  0  0  0  0  0  0
  188.8650  178.4400  139.1530 S   0  0  0  0  0  0  0  0  0  0  0  0
  183.8980  178.5340  139.0920 N   0  0  0  0  0  0  0  0  0  0  0  0
  186.8170  176.8290  138.0180 C   0  0  1  0  0  3  0  0  0  0  0  0
  186.1970  179.0440  138.7800 N   0  0  2  0  0  0  0  0  0  0  0  0
  184.0860  178.0680  141.4910 C   0  0  0  0  0  3  0  0  0  0  0  0
  186.2600  174.1010  137.0100 C   0  0  0  0  0  2  0  0  0  0  0  0
  186.6380  172.6740  137.4040 C   0  0  0  0  0  2  0  0  0  0  0  0
  187.4960  174.8680  136.6300 C   0  0  0  0  0  0  0  0  0  0  0  0
  187.4730  172.0130  136.3080 C   0  0  1  0  0  3  0  0  0  0  0  0
  187.7340  176.1070  137.0780 C   0  0  0  0  0  3  0  0  0  0  0  0
  188.7600  172.8080  136.0770 C   0  0  1  0  0  3  0  0  0  0  0  0
  189.5190  172.1990  135.0950 F   0  0  0  0  0  0  0  0  0  0  0  0
  188.4460  174.2430  135.6560 C   0  0  0  0  0  2  0  0  0  0  0  0
  187.7840  170.7220  136.6920 F   0  0  0  0  0  0  0  0  0  0  0  0
  182.5060  178.1860  138.8450 C   0  0  0  0  0  2  0  0  0  0  0  0
  180.8570  181.5860  138.6220 C   0  0  0  0  0  0  0  0  0  0  0  0
  179.9390  181.5160  139.6750 C   0  0  0  0  0  3  0  0  0  0  0  0
  181.6280  179.3500  139.1460 C   0  0  0  0  0  0  0  0  0  0  0  0
  179.8630  180.3620  140.4600 C   0  0  0  0  0  3  0  0  0  0  0  0
  181.7000  180.5030  138.3560 C   0  0  0  0  0  3  0  0  0  0  0  0
  180.7050  179.2780  140.1940 C   0  0  0  0  0  3  0  0  0  0  0  0
  180.9490  183.0270  137.6330 Cl  0  0  0  0  0  0  0  0  0  0  0  0
  1 12  2  0  0  0  0
  1 10  1  0  0  0  0
  2  6  2  0  0  0  0
  3 11  1  0  0  0  0
  3  8  1  0  0  0  0
  4  9  1  1  0  0  0
  4 16  1  0  0  0  0
  4 14  1  0  0  0  0
  5 10  2  0  0  0  0
  6  5  1  0  0  0  0
  7 16  1  0  0  0  0
  7 13  1  1  0  0  0
  8  2  1  6  0  0  0
  8  1  1  0  0  0  0
  9 15  1  0  0  0  0
 11 17  2  0  0  0  0
 13  2  1  0  0  0  0
 14 11  1  0  0  0  0
 15 22  1  6  0  0  0
 15  7  1  0  0  0  0
 16  3  1  1  0  0  0
 17 12  1  0  0  0  0
 18 19  1  0  0  0  0
 20 18  1  0  0  0  0
 20 22  2  0  0  0  0
 21 26  1  1  0  0  0
 21 19  1  0  0  0  0
 23 24  1  6  0  0  0
 23 21  1  0  0  0  0
 25 23  1  0  0  0  0
 25 20  1  0  0  0  0
 27 14  1  0  0  0  0
 27 30  1  0  0  0  0
 28 29  1  0  0  0  0
 29 31  2  0  0  0  0
 30 33  2  0  0  0  0
 32 28  2  0  0  0  0
 32 30  1  0  0  0  0
 33 31  1  0  0  0  0
 34 28  1  0  0  0  0
M  END
>  <MODEL>
3

>  <REMARK>
 VINA RESULT:      -7.5      3.941      6.593
  Name = 
  3 active torsions:
  status: ('A' for Active; 'I' for Inactive)
    1  A    between atoms: C_12  and  C_28
    2  A    between atoms: C_17  and  C_29
    3  A    between atoms: N_26  and  C_28
                            x       y       z     vdW  Elec       q    Type
                         _______ _______ _______ _____ _____    ______ ____

>  <TORSDO>
F 3

$$$$
=
 OpenBabel11052414163D

 34 40  0  0  1  0  0  0  0  0999 V2000
  188.3220  177.2640  138.9220 C   0  0  0  0  0  0  0  0  0  0  0  0
  186.1450  178.3400  138.3270 C   0  0  0  0  0  0  0  0  0  0  0  0
  187.0340  178.5330  140.5730 N   0  0  0  0  0  0  0  0  0  0  0  0
  186.0270  179.0110  142.5550 C   0  0  1  0  0  3  0  0  0  0  0  0
  187.3270  176.8590  136.7570 C   0  0  0  0  0  3  0  0  0  0  0  0
  186.1490  177.6500  137.1790 C   0  0  0  0  0  3  0  0  0  0  0  0
  184.7700  179.1470  140.5360 C   0  0  1  0  0  3  0  0  0  0  0  0
  187.3900  178.4460  139.1630 C   0  0  0  0  0  0  0  0  0  0  0  0
  184.6040  177.8780  142.8220 S   0  0  0  0  0  0  0  0  0  0  0  0
  188.3610  176.6700  137.5800 C   0  0  0  0  0  2  0  0  0  0  0  0
  187.7990  177.9460  141.5870 C   0  0  0  0  0  0  0  0  0  0  0  0
  188.9990  176.6810  139.9250 C   0  0  0  0  0  3  0  0  0  0  0  0
  184.7340  179.3770  138.7130 S   0  0  0  0  0  0  0  0  0  0  0  0
  187.2710  178.2880  142.8430 N   0  0  0  0  0  0  0  0  0  0  0  0
  184.2470  177.8310  141.0470 C   0  0  1  0  0  3  0  0  0  0  0  0
  186.0810  179.4130  141.1220 N   0  0  2  0  0  0  0  0  0  0  0  0
  188.7620  177.0630  141.3330 C   0  0  0  0  0  3  0  0  0  0  0  0
  183.0400  175.9700  139.0840 C   0  0  0  0  0  2  0  0  0  0  0  0
  182.5750  176.0400  137.6320 C   0  0  0  0  0  2  0  0  0  0  0  0
  182.2170  176.9040  139.9280 C   0  0  0  0  0  0  0  0  0  0  0  0
  181.0670  175.8070  137.5340 C   0  0  1  0  0  3  0  0  0  0  0  0
  182.7690  177.7320  140.8230 C   0  0  0  0  0  3  0  0  0  0  0  0
  180.3180  176.8750  138.3340 C   0  0  1  0  0  3  0  0  0  0  0  0
  178.9550  176.6690  138.2330 F   0  0  0  0  0  0  0  0  0  0  0  0
  180.7260  176.8400  139.8060 C   0  0  0  0  0  2  0  0  0  0  0  0
  180.6840  175.8630  136.2080 F   0  0  0  0  0  0  0  0  0  0  0  0
  187.6510  177.7260  144.1320 C   0  0  0  0  0  2  0  0  0  0  0  0
  191.1880  177.1220  145.3340 C   0  0  0  0  0  0  0  0  0  0  0  0
  191.8720  178.1760  144.7190 C   0  0  0  0  0  3  0  0  0  0  0  0
  189.1130  177.8950  144.3510 C   0  0  0  0  0  0  0  0  0  0  0  0
  191.1770  179.0860  143.9160 C   0  0  0  0  0  3  0  0  0  0  0  0
  189.8100  176.9810  145.1500 C   0  0  0  0  0  3  0  0  0  0  0  0
  189.7990  178.9430  143.7300 C   0  0  0  0  0  3  0  0  0  0  0  0
  192.0570  175.9780  146.3340 Cl  0  0  0  0  0  0  0  0  0  0  0  0
  1  8  1  0  0  0  0
  1 12  2  0  0  0  0
  2 13  1  0  0  0  0
  2  8  2  0  0  0  0
  3 11  1  0  0  0  0
  4  9  1  6  0  0  0
  4 14  1  0  0  0  0
  5  6  2  0  0  0  0
  5 10  1  0  0  0  0
  6  2  1  0  0  0  0
  7 13  1  6  0  0  0
  7 15  1  0  0  0  0
  7 16  1  0  0  0  0
  8  3  1  0  0  0  0
 10  1  1  0  0  0  0
 11 14  1  0  0  0  0
 12 17  1  0  0  0  0
 14 27  1  0  0  0  0
 15 22  1  1  0  0  0
 15  9  1  0  0  0  0
 16  3  1  6  0  0  0
 16  4  1  0  0  0  0
 17 11  2  0  0  0  0
 18 20  1  0  0  0  0
 19 18  1  0  0  0  0
 20 22  2  0  0  0  0
 21 26  1  6  0  0  0
 21 19  1  0  0  0  0
 21 23  1  0  0  0  0
 23 24  1  1  0  0  0
 23 25  1  0  0  0  0
 25 20  1  0  0  0  0
 27 30  1  0  0  0  0
 28 34  1  0  0  0  0
 29 28  2  0  0  0  0
 30 32  2  0  0  0  0
 31 29  1  0  0  0  0
 32 28  1  0  0  0  0
 33 31  2  0  0  0  0
 33 30  1  0  0  0  0
M  END
>  <MODEL>
4

>  <REMARK>
 VINA RESULT:      -7.3      4.744      8.348
  Name = 
  3 active torsions:
  status: ('A' for Active; 'I' for Inactive)
    1  A    between atoms: C_12  and  C_28
    2  A    between atoms: C_17  and  C_29
    3  A    between atoms: N_26  and  C_28
                            x       y       z     vdW  Elec       q    Type
                         _______ _______ _______ _____ _____    ______ ____

>  <TORSDO>
F 3

$$$$
=
 OpenBabel11052414163D

 34 40  0  0  1  0  0  0  0  0999 V2000
  189.9030  177.9520  145.8410 C   0  0  0  0  0  0  0  0  0  0  0  0
  187.5130  177.4190  146.3460 C   0  0  0  0  0  0  0  0  0  0  0  0
  188.3170  177.3960  144.0600 N   0  0  0  0  0  0  0  0  0  0  0  0
  187.2200  177.5720  142.0770 C   0  0  1  0  0  3  0  0  0  0  0  0
  189.0560  178.2180  148.0890 C   0  0  0  0  0  3  0  0  0  0  0  0
  187.7060  177.8650  147.5940 C   0  0  0  0  0  3  0  0  0  0  0  0
  185.9710  177.4230  144.1010 C   0  0  1  0  0  3  0  0  0  0  0  0
  188.6820  177.1300  145.4460 C   0  0  1  0  0  3  0  0  0  0  0  0
  186.1640  179.0770  142.0770 S   0  0  0  0  0  0  0  0  0  0  0  0
  190.1030  178.2630  147.2620 C   0  0  0  0  0  3  0  0  0  0  0  0
  189.2150  177.9250  143.1260 C   0  0  0  0  0  0  0  0  0  0  0  0
  190.7150  178.4990  144.9220 C   0  0  0  0  0  3  0  0  0  0  0  0
  185.8720  176.8890  145.8570 S   0  0  0  0  0  0  0  0  0  0  0  0
  188.6150  177.9690  141.8580 N   0  0  0  0  0  0  0  0  0  0  0  0
  185.8320  178.9010  143.8500 C   0  0  1  0  0  3  0  0  0  0  0  0
  187.1590  176.9200  143.4140 N   0  0  2  0  0  0  0  0  0  0  0  0
  190.3840  178.4540  143.4820 C   0  0  0  0  0  3  0  0  0  0  0  0
  183.4550  177.8780  142.4100 C   0  0  0  0  0  2  0  0  0  0  0  0
  182.6110  178.3120  141.2140 C   0  0  0  0  0  2  0  0  0  0  0  0
  183.3610  178.9090  143.5020 C   0  0  0  0  0  0  0  0  0  0  0  0
  181.1810  178.6350  141.6480 C   0  0  1  0  0  3  0  0  0  0  0  0
  184.4380  179.3550  144.1570 C   0  0  0  0  0  3  0  0  0  0  0  0
  181.1880  179.7710  142.6740 C   0  0  1  0  0  3  0  0  0  0  0  0
  179.8920  180.0680  143.0550 F   0  0  0  0  0  0  0  0  0  0  0  0
  182.0010  179.3850  143.9090 C   0  0  0  0  0  2  0  0  0  0  0  0
  180.4450  179.0100  140.5410 F   0  0  0  0  0  0  0  0  0  0  0  0
  189.1360  178.6280  140.6680 C   0  0  0  0  0  2  0  0  0  0  0  0
  188.9510  176.4240  137.5970 C   0  0  0  0  0  0  0  0  0  0  0  0
  190.1750  175.7520  137.6650 C   0  0  0  0  0  3  0  0  0  0  0  0
  189.4890  177.6140  139.6370 C   0  0  0  0  0  0  0  0  0  0  0  0
  191.0580  176.0140  138.7170 C   0  0  0  0  0  3  0  0  0  0  0  0
  188.6080  177.3560  138.5800 C   0  0  0  0  0  3  0  0  0  0  0  0
  190.7160  176.9470  139.7010 C   0  0  0  0  0  3  0  0  0  0  0  0
  187.8480  176.1020  136.2760 Cl  0  0  0  0  0  0  0  0  0  0  0  0
  1 10  1  0  0  0  0
  2  6  2  0  0  0  0
  3  8  1  0  0  0  0
  4  9  1  1  0  0  0
  4 16  1  0  0  0  0
  6  5  1  0  0  0  0
  7 13  1  1  0  0  0
  8  1  1  1  0  0  0
  8  2  1  0  0  0  0
  9 15  1  0  0  0  0
 10  5  2  0  0  0  0
 11 17  2  0  0  0  0
 11  3  1  0  0  0  0
 12  1  2  0  0  0  0
 13  2  1  0  0  0  0
 14  4  1  0  0  0  0
 14 11  1  0  0  0  0
 15  7  1  0  0  0  0
 15 22  1  6  0  0  0
 16  3  1  1  0  0  0
 16  7  1  0  0  0  0
 17 12  1  0  0  0  0
 18 20  1  0  0  0  0
 19 21  1  0  0  0  0
 19 18  1  0  0  0  0
 20 25  1  0  0  0  0
 20 22  2  0  0  0  0
 21 26  1  6  0  0  0
 21 23  1  0  0  0  0
 23 24  1  1  0  0  0
 23 25  1  0  0  0  0
 27 14  1  0  0  0  0
 28 29  2  0  0  0  0
 28 32  1  0  0  0  0
 29 31  1  0  0  0  0
 30 33  1  0  0  0  0
 30 27  1  0  0  0  0
 31 33  2  0  0  0  0
 32 30  2  0  0  0  0
 34 28  1  0  0  0  0
M  END
>  <MODEL>
5

>  <REMARK>
 VINA RESULT:      -7.0      4.199      7.075
  Name = 
  3 active torsions:
  status: ('A' for Active; 'I' for Inactive)
    1  A    between atoms: C_12  and  C_28
    2  A    between atoms: C_17  and  C_29
    3  A    between atoms: N_26  and  C_28
                            x       y       z     vdW  Elec       q    Type
                         _______ _______ _______ _____ _____    ______ ____

>  <TORSDO>
F 3

$$$$
=
 OpenBabel11052414163D

 34 40  0  0  1  0  0  0  0  0999 V2000
  187.1710  178.3010  139.4520 C   0  0  0  0  0  0  0  0  0  0  0  0
  187.0010  177.0890  137.2720 C   0  0  0  0  0  0  0  0  0  0  0  0
  185.0180  178.0060  138.3220 N   0  0  0  0  0  0  0  0  0  0  0  0
  182.8140  177.5100  138.0690 C   0  0  1  0  0  3  0  0  0  0  0  0
  189.1080  177.1790  138.5400 C   0  0  0  0  0  3  0  0  0  0  0  0
  188.2600  176.6650  137.4410 C   0  0  0  0  0  3  0  0  0  0  0  0
  184.4210  176.4810  136.6420 C   0  0  1  0  0  3  0  0  0  0  0  0
  186.4480  178.2050  138.1140 C   0  0  1  0  0  3  0  0  0  0  0  0
  182.5490  175.7060  138.3030 S   0  0  0  0  0  0  0  0  0  0  0  0
  188.5970  177.9540  139.5000 C   0  0  0  0  0  3  0  0  0  0  0  0
  184.3710  178.3420  139.5160 C   0  0  0  0  0  0  0  0  0  0  0  0
  186.5140  178.5650  140.5940 C   0  0  0  0  0  3  0  0  0  0  0  0
  186.0770  176.5200  135.8450 S   0  0  0  0  0  0  0  0  0  0  0  0
  182.9870  178.1400  139.3820 N   0  0  0  0  0  0  0  0  0  0  0  0
  184.1620  175.3250  137.5720 C   0  0  1  0  0  3  0  0  0  0  0  0
  184.0760  177.7330  137.3110 N   0  0  2  0  0  0  0  0  0  0  0  0
  185.0380  178.6320  140.6310 C   0  0  0  0  0  3  0  0  0  0  0  0
  186.3320  173.3110  137.5940 C   0  0  0  0  0  2  0  0  0  0  0  0
  187.5430  172.9760  136.7260 C   0  0  0  0  0  2  0  0  0  0  0  0
  185.0690  173.1330  136.7970 C   0  0  0  0  0  0  0  0  0  0  0  0
  187.3900  171.5920  136.0940 C   0  0  1  0  0  3  0  0  0  0  0  0
  184.0860  174.0420  136.8040 C   0  0  0  0  0  3  0  0  0  0  0  0
  186.1380  171.5510  135.2150 C   0  0  1  0  0  3  0  0  0  0  0  0
  186.0110  170.3020  134.6360 F   0  0  0  0  0  0  0  0  0  0  0  0
  184.8860  171.8570  136.0360 C   0  0  0  0  0  2  0  0  0  0  0  0
  188.5070  171.3170  135.3280 F   0  0  0  0  0  0  0  0  0  0  0  0
  181.9930  178.1810  140.4450 C   0  0  0  0  0  2  0  0  0  0  0  0
  180.4930  181.3620  139.0470 C   0  0  0  0  0  0  0  0  0  0  0  0
  179.4810  181.6220  139.9780 C   0  0  0  0  0  3  0  0  0  0  0  0
  181.1330  179.3860  140.2950 C   0  0  0  0  0  0  0  0  0  0  0  0
  179.2940  180.7620  141.0640 C   0  0  0  0  0  3  0  0  0  0  0  0
  181.3170  180.2440  139.2040 C   0  0  0  0  0  3  0  0  0  0  0  0
  180.1170  179.6430  141.2210 C   0  0  0  0  0  3  0  0  0  0  0  0
  180.7240  182.4330  137.6830 Cl  0  0  0  0  0  0  0  0  0  0  0  0
  1 10  1  0  0  0  0
  1 12  2  0  0  0  0
  2  6  2  0  0  0  0
  3 11  1  0  0  0  0
  4  9  1  1  0  0  0
  4 14  1  0  0  0  0
  5 10  2  0  0  0  0
  6  5  1  0  0  0  0
  7 13  1  1  0  0  0
  7 16  1  0  0  0  0
  7 15  1  0  0  0  0
  8  2  1  6  0  0  0
  8  3  1  0  0  0  0
  8  1  1  0  0  0  0
 11 17  2  0  0  0  0
 12 17  1  0  0  0  0
 13  2  1  0  0  0  0
 14 11  1  0  0  0  0
 14 27  1  0  0  0  0
 15 22  1  6  0  0  0
 15  9  1  0  0  0  0
 16  4  1  0  0  0  0
 16  3  1  1  0  0  0
 19 18  1  0  0  0  0
 20 22  2  0  0  0  0
 20 18  1  0  0  0  0
 21 26  1  6  0  0  0
 21 19  1  0  0  0  0
 23 24  1  1  0  0  0
 23 25  1  0  0  0  0
 23 21  1  0  0  0  0
 25 20  1  0  0  0  0
 28 32  2  0  0  0  0
 28 29  1  0  0  0  0
 29 31  2  0  0  0  0
 30 27  1  0  0  0  0
 30 33  2  0  0  0  0
 31 33  1  0  0  0  0
 32 30  1  0  0  0  0
 34 28  1  0  0  0  0
M  END
>  <MODEL>
6

>  <REMARK>
 VINA RESULT:      -6.9      4.363      7.639
  Name = 
  3 active torsions:
  status: ('A' for Active; 'I' for Inactive)
    1  A    between atoms: C_12  and  C_28
    2  A    between atoms: C_17  and  C_29
    3  A    between atoms: N_26  and  C_28
                            x       y       z     vdW  Elec       q    Type
                         _______ _______ _______ _____ _____    ______ ____

>  <TORSDO>
F 3

$$$$
=
 OpenBabel11052414163D

 34 40  0  0  1  0  0  0  0  0999 V2000
  186.3780  174.0120  136.9680 C   0  0  0  0  0  0  0  0  0  0  0  0
  184.0240  174.8300  137.1810 C   0  0  0  0  0  0  0  0  0  0  0  0
  185.8410  176.3980  136.8450 N   0  0  0  0  0  0  0  0  0  0  0  0
  186.0050  178.6260  137.2690 C   0  0  1  0  0  3  0  0  0  0  0  0
  184.6110  172.4680  137.5480 C   0  0  0  0  0  3  0  0  0  0  0  0
  183.6660  173.6070  137.5930 C   0  0  0  0  0  3  0  0  0  0  0  0
  183.9130  177.5250  137.5650 C   0  0  1  0  0  3  0  0  0  0  0  0
  185.3600  175.0590  136.5300 C   0  0  1  0  0  3  0  0  0  0  0  0
  185.5500  178.9640  139.0180 S   0  0  0  0  0  0  0  0  0  0  0  0
  185.9000  172.6540  137.2540 C   0  0  0  0  0  3  0  0  0  0  0  0
  187.1940  176.6900  137.0530 C   0  0  0  0  0  0  0  0  0  0  0  0
  187.6580  174.3320  137.2190 C   0  0  0  0  0  3  0  0  0  0  0  0
  182.7910  176.1310  137.1440 S   0  0  0  0  0  0  0  0  0  0  0  0
  187.3630  178.0730  137.2290 N   0  0  0  0  0  0  0  0  0  0  0  0
  184.3270  177.6280  139.0080 C   0  0  1  0  0  3  0  0  0  0  0  0
  185.0960  177.5870  136.7110 N   0  0  2  0  0  0  0  0  0  0  0  0
  188.1100  175.7390  137.2250 C   0  0  0  0  0  3  0  0  0  0  0  0
  184.6180  178.9390  141.6470 C   0  0  0  0  0  2  0  0  0  0  0  0
  184.6840  178.4920  143.1060 C   0  0  0  0  0  2  0  0  0  0  0  0
  183.2790  178.5780  141.0640 C   0  0  0  0  0  0  0  0  0  0  0  0
  183.4920  179.0360  143.8940 C   0  0  1  0  0  3  0  0  0  0  0  0
  183.1550  177.9990  139.8640 C   0  0  0  0  0  3  0  0  0  0  0  0
  182.1840  178.5200  143.2880 C   0  0  1  0  0  3  0  0  0  0  0  0
  181.1090  179.0030  144.0110 F   0  0  0  0  0  0  0  0  0  0  0  0
  182.0490  178.9560  141.8300 C   0  0  0  0  0  2  0  0  0  0  0  0
  183.5910  178.6240  145.2090 F   0  0  0  0  0  0  0  0  0  0  0  0
  188.5740  178.7560  137.6640 C   0  0  0  0  0  2  0  0  0  0  0  0
  188.9400  177.4290  141.1890 C   0  0  0  0  0  0  0  0  0  0  0  0
  190.1670  176.7630  141.1080 C   0  0  0  0  0  3  0  0  0  0  0  0
  189.1370  178.0800  138.8650 C   0  0  0  0  0  0  0  0  0  0  0  0
  190.8770  176.7530  139.9030 C   0  0  0  0  0  3  0  0  0  0  0  0
  188.4240  178.0850  140.0690 C   0  0  0  0  0  3  0  0  0  0  0  0
  190.3610  177.4080  138.7820 C   0  0  0  0  0  3  0  0  0  0  0  0
  188.0470  177.4370  142.6940 Cl  0  0  0  0  0  0  0  0  0  0  0  0
  1 12  2  0  0  0  0
  1 10  1  0  0  0  0
  2  6  2  0  0  0  0
  3 11  1  0  0  0  0
  4  9  1  1  0  0  0
  5  6  1  0  0  0  0
  7 13  1  1  0  0  0
  7 15  1  0  0  0  0
  8  3  1  0  0  0  0
  8  1  1  1  0  0  0
  8  2  1  0  0  0  0
 10  5  2  0  0  0  0
 11 17  2  0  0  0  0
 11 14  1  0  0  0  0
 12 17  1  0  0  0  0
 13  2  1  0  0  0  0
 14  4  1  0  0  0  0
 14 27  1  0  0  0  0
 15  9  1  0  0  0  0
 15 22  1  1  0  0  0
 16  3  1  1  0  0  0
 16  4  1  0  0  0  0
 16  7  1  0  0  0  0
 18 19  1  0  0  0  0
 19 21  1  0  0  0  0
 20 18  1  0  0  0  0
 20 25  1  0  0  0  0
 21 26  1  1  0  0  0
 22 20  2  0  0  0  0
 23 21  1  0  0  0  0
 23 24  1  1  0  0  0
 25 23  1  0  0  0  0
 27 30  1  0  0  0  0
 28 34  1  0  0  0  0
 29 28  1  0  0  0  0
 30 32  1  0  0  0  0
 31 29  2  0  0  0  0
 32 28  2  0  0  0  0
 33 30  2  0  0  0  0
 33 31  1  0  0  0  0
M  END
>  <MODEL>
7

>  <REMARK>
 VINA RESULT:      -6.8      3.060      6.236
  Name = 
  3 active torsions:
  status: ('A' for Active; 'I' for Inactive)
    1  A    between atoms: C_12  and  C_28
    2  A    between atoms: C_17  and  C_29
    3  A    between atoms: N_26  and  C_28
                            x       y       z     vdW  Elec       q    Type
                         _______ _______ _______ _____ _____    ______ ____

>  <TORSDO>
F 3

$$$$
=
 OpenBabel11052414163D

 34 40  0  0  1  0  0  0  0  0999 V2000
  186.8050  178.2370  142.0930 C   0  0  0  0  0  0  0  0  0  0  0  0
  188.1740  178.3630  140.0050 C   0  0  0  0  0  0  0  0  0  0  0  0
  185.7690  178.6450  139.9120 N   0  0  0  0  0  0  0  0  0  0  0  0
  184.2920  178.4200  138.1980 C   0  0  1  0  0  3  0  0  0  0  0  0
  189.1630  177.7110  142.1620 C   0  0  0  0  0  3  0  0  0  0  0  0
  189.2170  177.8790  140.6920 C   0  0  0  0  0  3  0  0  0  0  0  0
  186.6290  178.2540  137.7640 C   0  0  1  0  0  3  0  0  0  0  0  0
  186.9590  178.8820  140.7210 C   0  0  1  0  0  3  0  0  0  0  0  0
  184.4970  176.7730  137.4090 S   0  0  0  0  0  0  0  0  0  0  0  0
  188.0210  177.8770  142.8330 C   0  0  0  0  0  3  0  0  0  0  0  0
  184.5270  178.3180  140.4660 C   0  0  0  0  0  0  0  0  0  0  0  0
  185.6040  177.8780  142.5750 C   0  0  0  0  0  3  0  0  0  0  0  0
  188.3560  178.6610  138.2460 S   0  0  0  0  0  0  0  0  0  0  0  0
  183.5540  178.2570  139.4550 N   0  0  0  0  0  0  0  0  0  0  0  0
  186.2810  176.7900  137.7260 C   0  0  1  0  0  3  0  0  0  0  0  0
  185.6290  178.9740  138.5490 N   0  0  2  0  0  0  0  0  0  0  0  0
  184.3880  177.9560  141.7400 C   0  0  0  0  0  3  0  0  0  0  0  0
  188.7730  175.2440  138.1360 C   0  0  0  0  0  2  0  0  0  0  0  0
  190.2730  175.5140  138.0450 C   0  0  0  0  0  2  0  0  0  0  0  0
  188.1410  175.4200  136.7820 C   0  0  0  0  0  0  0  0  0  0  0  0
  190.9110  174.6700  136.9430 C   0  0  1  0  0  3  0  0  0  0  0  0
  187.0070  176.1080  136.6070 C   0  0  0  0  0  3  0  0  0  0  0  0
  190.2760  175.0050  135.5910 C   0  0  1  0  0  3  0  0  0  0  0  0
  190.8640  174.2490  134.5940 F   0  0  0  0  0  0  0  0  0  0  0  0
  188.7730  174.7320  135.6110 C   0  0  0  0  0  2  0  0  0  0  0  0
  192.2670  174.9290  136.8990 F   0  0  0  0  0  0  0  0  0  0  0  0
  182.1920  177.7590  139.5840 C   0  0  0  0  0  2  0  0  0  0  0  0
  179.9830  179.7530  141.9240 C   0  0  0  0  0  0  0  0  0  0  0  0
  179.6830  180.8680  141.1350 C   0  0  0  0  0  3  0  0  0  0  0  0
  181.3040  178.8290  140.1150 C   0  0  0  0  0  0  0  0  0  0  0  0
  180.1960  180.9660  139.8380 C   0  0  0  0  0  3  0  0  0  0  0  0
  180.7950  178.7350  141.4150 C   0  0  0  0  0  3  0  0  0  0  0  0
  181.0090  179.9490  139.3300 C   0  0  0  0  0  3  0  0  0  0  0  0
  179.3470  179.6320  143.5490 Cl  0  0  0  0  0  0  0  0  0  0  0  0
  1 12  2  0  0  0  0
  1 10  1  0  0  0  0
  2  6  2  0  0  0  0
  3 11  1  0  0  0  0
  3  8  1  0  0  0  0
  4  9  1  1  0  0  0
  4 16  1  0  0  0  0
  4 14  1  0  0  0  0
  5 10  2  0  0  0  0
  6  5  1  0  0  0  0
  7 13  1  1  0  0  0
  7 16  1  0  0  0  0
  8  2  1  6  0  0  0
  8  1  1  0  0  0  0
  9 15  1  0  0  0  0
 11 17  2  0  0  0  0
 13  2  1  0  0  0  0
 14 27  1  0  0  0  0
 14 11  1  0  0  0  0
 15 22  1  6  0  0  0
 15  7  1  0  0  0  0
 16  3  1  1  0  0  0
 17 12  1  0  0  0  0
 19 18  1  0  0  0  0
 20 18  1  0  0  0  0
 21 26  1  6  0  0  0
 21 19  1  0  0  0  0
 22 20  2  0  0  0  0
 23 24  1  6  0  0  0
 23 25  1  0  0  0  0
 23 21  1  0  0  0  0
 25 20  1  0  0  0  0
 27 30  1  0  0  0  0
 28 34  1  0  0  0  0
 29 28  2  0  0  0  0
 30 32  2  0  0  0  0
 31 29  1  0  0  0  0
 32 28  1  0  0  0  0
 33 31  2  0  0  0  0
 33 30  1  0  0  0  0
M  END
>  <MODEL>
8

>  <REMARK>
 VINA RESULT:      -6.8      3.864      6.515
  Name = 
  3 active torsions:
  status: ('A' for Active; 'I' for Inactive)
    1  A    between atoms: C_12  and  C_28
    2  A    between atoms: C_17  and  C_29
    3  A    between atoms: N_26  and  C_28
                            x       y       z     vdW  Elec       q    Type
                         _______ _______ _______ _____ _____    ______ ____

>  <TORSDO>
F 3

$$$$
=
 OpenBabel11052414163D

 34 40  0  0  1  0  0  0  0  0999 V2000
  190.7160  177.6800  145.3810 C   0  0  0  0  0  0  0  0  0  0  0  0
  188.3520  176.9710  144.9810 C   0  0  0  0  0  0  0  0  0  0  0  0
  189.9880  176.8440  143.1970 N   0  0  0  0  0  0  0  0  0  0  0  0
  189.7490  176.7630  140.9380 C   0  0  1  0  0  3  0  0  0  0  0  0
  189.0410  178.0410  147.0870 C   0  0  0  0  0  3  0  0  0  0  0  0
  188.0150  177.5290  146.1510 C   0  0  0  0  0  3  0  0  0  0  0  0
  187.8160  176.6580  142.3280 C   0  0  1  0  0  3  0  0  0  0  0  0
  189.7940  176.7210  144.6370 C   0  0  1  0  0  3  0  0  0  0  0  0
  188.6970  178.1600  140.3700 S   0  0  0  0  0  0  0  0  0  0  0  0
  190.3250  178.1180  146.7270 C   0  0  0  0  0  3  0  0  0  0  0  0
  191.1500  177.3790  142.6310 C   0  0  0  0  0  0  0  0  0  0  0  0
  191.7920  178.2260  144.7920 C   0  0  0  0  0  3  0  0  0  0  0  0
  187.0650  176.2560  143.9570 S   0  0  0  0  0  0  0  0  0  0  0  0
  191.0940  177.2690  141.2320 N   0  0  0  0  0  0  0  0  0  0  0  0
  187.7070  178.0930  141.8860 C   0  0  1  0  0  3  0  0  0  0  0  0
  189.2040  176.2150  142.2110 N   0  0  2  0  0  0  0  0  0  0  0  0
  192.0550  178.0390  143.3500 C   0  0  0  0  0  3  0  0  0  0  0  0
  185.9110  179.3740  143.8610 C   0  0  0  0  0  2  0  0  0  0  0  0
  184.8750  178.9090  144.8820 C   0  0  0  0  0  2  0  0  0  0  0  0
  185.4600  179.0050  142.4740 C   0  0  0  0  0  0  0  0  0  0  0  0
  183.4840  179.4280  144.5180 C   0  0  1  0  0  3  0  0  0  0  0  0
  186.2820  178.4400  141.5820 C   0  0  0  0  0  3  0  0  0  0  0  0
  183.0730  178.9060  143.1400 C   0  0  1  0  0  3  0  0  0  0  0  0
  181.8100  179.3670  142.8190 F   0  0  0  0  0  0  0  0  0  0  0  0
  184.0630  179.3590  142.0670 C   0  0  0  0  0  2  0  0  0  0  0  0
  182.5770  179.0010  145.4690 F   0  0  0  0  0  0  0  0  0  0  0  0
  192.0030  177.8780  140.2710 C   0  0  0  0  0  2  0  0  0  0  0  0
  193.6490  175.3650  137.9690 C   0  0  0  0  0  0  0  0  0  0  0  0
  192.6470  175.1700  137.0130 C   0  0  0  0  0  3  0  0  0  0  0  0
  192.2340  176.9530  139.1280 C   0  0  0  0  0  0  0  0  0  0  0  0
  191.4370  175.8620  137.1170 C   0  0  0  0  0  3  0  0  0  0  0  0
  193.4430  176.2540  139.0260 C   0  0  0  0  0  3  0  0  0  0  0  0
  191.2290  176.7510  138.1760 C   0  0  0  0  0  3  0  0  0  0  0  0
  195.1620  174.4940  137.8430 Cl  0  0  0  0  0  0  0  0  0  0  0  0
  1 10  1  0  0  0  0
  2  6  2  0  0  0  0
  3  8  1  0  0  0  0
  4  9  1  1  0  0  0
  4 14  1  0  0  0  0
  4 16  1  0  0  0  0
  6  5  1  0  0  0  0
  7 13  1  1  0  0  0
  8  2  1  6  0  0  0
  8  1  1  0  0  0  0
  9 15  1  0  0  0  0
 10  5  2  0  0  0  0
 11  3  1  0  0  0  0
 11 17  2  0  0  0  0
 12  1  2  0  0  0  0
 13  2  1  0  0  0  0
 14 11  1  0  0  0  0
 15 22  1  6  0  0  0
 15  7  1  0  0  0  0
 16  7  1  0  0  0  0
 16  3  1  1  0  0  0
 17 12  1  0  0  0  0
 18 19  1  0  0  0  0
 20 18  1  0  0  0  0
 21 19  1  0  0  0  0
 21 26  1  1  0  0  0
 22 20  2  0  0  0  0
 23 24  1  6  0  0  0
 23 21  1  0  0  0  0
 25 20  1  0  0  0  0
 25 23  1  0  0  0  0
 27 14  1  0  0  0  0
 28 32  1  0  0  0  0
 29 31  1  0  0  0  0
 29 28  2  0  0  0  0
 30 27  1  0  0  0  0
 31 33  2  0  0  0  0
 32 30  2  0  0  0  0
 33 30  1  0  0  0  0
 34 28  1  0  0  0  0
M  END
>  <MODEL>
9

>  <REMARK>
 VINA RESULT:      -6.6      4.699      6.956
  Name = 
  3 active torsions:
  status: ('A' for Active; 'I' for Inactive)
    1  A    between atoms: C_12  and  C_28
    2  A    between atoms: C_17  and  C_29
    3  A    between atoms: N_26  and  C_28
                            x       y       z     vdW  Elec       q    Type
                         _______ _______ _______ _____ _____    ______ ____

>  <TORSDO>
F 3

$$$$
