=
 OpenBabel11052415503D

 34 38  0  0  1  0  0  0  0  0999 V2000
  187.1330  177.4800  144.6650 C   0  0  0  0  0  0  0  0  0  0  0  0
  183.6300  179.0410  145.0670 C   0  0  0  0  0  2  0  0  0  0  0  0
  185.4900  178.5030  146.6340 O   0  0  0  0  0  0  0  0  0  0  0  0
  189.1900  177.5910  143.1590 C   0  0  2  0  0  3  0  0  0  0  0  0
  187.9530  176.7880  143.6040 C   0  0  0  0  0  2  0  0  0  0  0  0
  190.1580  177.7640  145.5420 C   0  0  0  0  0  2  0  0  0  0  0  0
  189.2720  176.8860  147.7170 C   0  0  0  0  0  1  0  0  0  0  0  0
  189.7860  178.4960  144.2460 C   0  0  0  0  0  2  0  0  0  0  0  0
  186.8800  178.4000  146.9450 C   0  0  0  0  0  2  0  0  0  0  0  0
  187.6270  177.5900  145.9150 C   0  0  0  0  0  0  0  0  0  0  0  0
  188.9980  177.0240  146.2280 C   0  0  1  0  0  3  0  0  0  0  0  0
  183.0670  178.6390  143.7050 C   0  0  2  0  0  3  0  0  0  0  0  0
  184.1170  178.8430  142.6250 C   0  0  0  0  0  2  0  0  0  0  0  0
  185.0130  178.4970  145.3190 C   0  0  0  0  0  0  0  0  0  0  0  0
  185.2980  177.9240  142.9050 C   0  0  0  0  0  2  0  0  0  0  0  0
  185.8020  178.0370  144.3240 C   0  0  0  0  0  0  0  0  0  0  0  0
  188.8590  178.4440  141.9420 C   0  0  0  0  0  2  0  0  0  0  0  0
  190.5870  176.2430  139.3960 C   0  0  0  0  0  3  0  0  0  0  0  0
  188.3160  177.8520  139.5700 C   0  0  0  0  0  3  0  0  0  0  0  0
  189.7600  176.3900  138.2710 C   0  0  0  0  0  0  0  0  0  0  0  0
  188.5980  177.1850  138.3660 C   0  0  0  0  0  0  0  0  0  0  0  0
  189.1610  177.7190  140.6740 C   0  0  0  0  0  0  0  0  0  0  0  0
  190.2940  176.9090  140.5870 C   0  0  0  0  0  3  0  0  0  0  0  0
  190.6960  174.4410  137.3120 N   0  0  0  0  0  0  0  0  0  0  0  0
  189.3340  174.4750  136.9460 C   0  0  0  0  0  0  0  0  0  0  0  0
  190.0730  175.6200  137.0130 C   0  0  1  0  0  3  0  0  0  0  0  0
  188.0140  172.3680  136.8480 C   0  0  0  0  0  1  0  0  0  0  0  0
  188.1020  173.8070  136.6990 N   0  0  0  0  0  2  0  0  0  0  0  0
  187.7400  177.2970  137.2660 O   0  0  0  0  0  0  0  0  0  0  0  0
  186.3300  177.1530  137.3700 C   0  0  0  0  0  1  0  0  0  0  0  0
  181.7870  179.4090  143.3900 C   0  0  0  0  0  2  0  0  0  0  0  0
  179.6680  178.7230  144.0880 C   0  0  0  0  0  1  0  0  0  0  0  0
  180.1220  178.9580  141.8180 C   0  0  0  0  0  1  0  0  0  0  0  0
  180.6880  178.5080  143.0770 N   0  0  0  0  0  0  0  0  0  0  0  0
  1 10  2  0  0  0  0
  2 14  1  0  0  0  0
  3  9  1  0  0  0  0
  4 17  1  6  0  0  0
  4  5  1  0  0  0  0
  4  8  1  0  0  0  0
  5  1  1  0  0  0  0
  6 11  1  0  0  0  0
  8  6  1  0  0  0  0
 10 11  1  0  0  0  0
 10  9  1  0  0  0  0
 11  7  1  1  0  0  0
 12 31  1  6  0  0  0
 12  2  1  0  0  0  0
 13 15  1  0  0  0  0
 13 12  1  0  0  0  0
 14  3  1  0  0  0  0
 15 16  1  0  0  0  0
 16  1  1  0  0  0  0
 16 14  2  0  0  0  0
 18 23  1  0  0  0  0
 19 22  1  0  0  0  0
 20 21  1  0  0  0  0
 20 18  2  0  0  0  0
 21 19  2  0  0  0  0
 22 17  1  0  0  0  0
 23 22  2  0  0  0  0
 25 26  1  0  0  0  0
 25 24  2  0  0  0  0
 26 24  1  0  0  0  0
 26 20  1  1  0  0  0
 28 27  1  0  0  0  0
 28 25  1  0  0  0  0
 29 30  1  0  0  0  0
 29 21  1  0  0  0  0
 33 34  1  0  0  0  0
 34 31  1  0  0  0  0
 34 32  1  0  0  0  0
M  END
>  <MODEL>
1

>  <REMARK>
 VINA RESULT:     -10.2      0.000      0.000
  Name = 
  6 active torsions:
  status: ('A' for Active; 'I' for Inactive)
    1  A    between atoms: C_8  and  C_18
    2  A    between atoms: C_14  and  C_16
    3  A    between atoms: C_18  and  C_30
    4  A    between atoms: C_23  and  N_24
    5  A    between atoms: C_23  and  C_25
    6  A    between atoms: O_26  and  C_28
                            x       y       z     vdW  Elec       q    Type
                         _______ _______ _______ _____ _____    ______ ____

>  <TORSDO>
F 6

$$$$
=
 OpenBabel11052415503D

 34 38  0  0  1  0  0  0  0  0999 V2000
  187.0850  177.5020  144.6590 C   0  0  0  0  0  0  0  0  0  0  0  0
  183.5610  179.0020  145.1110 C   0  0  0  0  0  2  0  0  0  0  0  0
  185.4420  178.4740  146.6550 O   0  0  0  0  0  0  0  0  0  0  0  0
  189.1270  177.6660  143.1380 C   0  0  2  0  0  3  0  0  0  0  0  0
  187.9060  176.8370  143.5830 C   0  0  0  0  0  2  0  0  0  0  0  0
  190.1120  177.8230  145.5150 C   0  0  0  0  0  2  0  0  0  0  0  0
  189.2580  176.9040  147.6860 C   0  0  0  0  0  1  0  0  0  0  0  0
  189.7170  178.5660  144.2320 C   0  0  0  0  0  2  0  0  0  0  0  0
  186.8360  178.3890  146.9530 C   0  0  0  0  0  2  0  0  0  0  0  0
  187.5870  177.6040  145.9070 C   0  0  0  0  0  0  0  0  0  0  0  0
  188.9690  177.0570  146.2010 C   0  0  1  0  0  3  0  0  0  0  0  0
  182.9920  178.6090  143.7480 C   0  0  2  0  0  3  0  0  0  0  0  0
  184.0300  178.8440  142.6620 C   0  0  0  0  0  2  0  0  0  0  0  0
  184.9540  178.4770  145.3440 C   0  0  0  0  0  0  0  0  0  0  0  0
  185.2280  177.9400  142.9210 C   0  0  0  0  0  2  0  0  0  0  0  0
  185.7420  178.0420  144.3370 C   0  0  0  0  0  0  0  0  0  0  0  0
  188.7720  178.5290  141.9350 C   0  0  0  0  0  2  0  0  0  0  0  0
  190.4810  176.4050  139.3120 C   0  0  0  0  0  3  0  0  0  0  0  0
  188.1420  177.8990  139.5950 C   0  0  0  0  0  3  0  0  0  0  0  0
  189.5920  176.5050  138.2290 C   0  0  0  0  0  0  0  0  0  0  0  0
  188.3980  177.2400  138.3800 C   0  0  0  0  0  0  0  0  0  0  0  0
  189.0470  177.8140  140.6560 C   0  0  0  0  0  0  0  0  0  0  0  0
  190.2140  177.0610  140.5140 C   0  0  0  0  0  3  0  0  0  0  0  0
  190.9400  176.2990  136.2960 N   0  0  0  0  0  0  0  0  0  0  0  0
  191.0840  175.1060  137.0340 C   0  0  0  0  0  0  0  0  0  0  0  0
  189.8800  175.7460  136.9590 C   0  0  1  0  0  3  0  0  0  0  0  0
  193.2960  173.9750  137.1630 C   0  0  0  0  0  1  0  0  0  0  0  0
  191.8900  174.0360  137.5120 N   0  0  0  0  0  2  0  0  0  0  0  0
  187.4810  177.3030  137.3240 O   0  0  0  0  0  0  0  0  0  0  0  0
  186.1600  177.8050  137.4770 C   0  0  0  0  0  1  0  0  0  0  0  0
  181.6980  179.3620  143.4540 C   0  0  0  0  0  2  0  0  0  0  0  0
  179.4940  179.0040  144.1320 C   0  0  0  0  0  1  0  0  0  0  0  0
  180.1290  178.5180  141.9460 C   0  0  0  0  0  1  0  0  0  0  0  0
  180.5690  178.4520  143.3280 N   0  0  0  0  0  0  0  0  0  0  0  0
  1 10  2  0  0  0  0
  2 14  1  0  0  0  0
  3  9  1  0  0  0  0
  4 17  1  6  0  0  0
  4  5  1  0  0  0  0
  4  8  1  0  0  0  0
  5  1  1  0  0  0  0
  6 11  1  0  0  0  0
  8  6  1  0  0  0  0
 10 11  1  0  0  0  0
 10  9  1  0  0  0  0
 11  7  1  1  0  0  0
 12 31  1  6  0  0  0
 12  2  1  0  0  0  0
 13 15  1  0  0  0  0
 13 12  1  0  0  0  0
 14  3  1  0  0  0  0
 15 16  1  0  0  0  0
 16  1  1  0  0  0  0
 16 14  2  0  0  0  0
 18 23  1  0  0  0  0
 19 22  1  0  0  0  0
 20 21  1  0  0  0  0
 20 18  2  0  0  0  0
 21 19  2  0  0  0  0
 22 17  1  0  0  0  0
 23 22  2  0  0  0  0
 24 26  1  0  0  0  0
 24 25  2  0  0  0  0
 25 28  1  0  0  0  0
 26 25  1  0  0  0  0
 26 20  1  1  0  0  0
 27 28  1  0  0  0  0
 29 30  1  0  0  0  0
 29 21  1  0  0  0  0
 33 34  1  0  0  0  0
 34 31  1  0  0  0  0
 34 32  1  0  0  0  0
M  END
>  <MODEL>
2

>  <REMARK>
 VINA RESULT:     -10.1      1.003      1.272
  Name = 
  6 active torsions:
  status: ('A' for Active; 'I' for Inactive)
    1  A    between atoms: C_8  and  C_18
    2  A    between atoms: C_14  and  C_16
    3  A    between atoms: C_18  and  C_30
    4  A    between atoms: C_23  and  N_24
    5  A    between atoms: C_23  and  C_25
    6  A    between atoms: O_26  and  C_28
                            x       y       z     vdW  Elec       q    Type
                         _______ _______ _______ _____ _____    ______ ____

>  <TORSDO>
F 6

$$$$
=
 OpenBabel11052415503D

 34 38  0  0  1  0  0  0  0  0999 V2000
  187.3690  177.4590  144.4750 C   0  0  0  0  0  0  0  0  0  0  0  0
  183.8900  178.9830  145.1440 C   0  0  0  0  0  2  0  0  0  0  0  0
  185.8250  178.3590  146.5810 O   0  0  0  0  0  0  0  0  0  0  0  0
  189.3480  177.6660  142.8780 C   0  0  2  0  0  3  0  0  0  0  0  0
  188.1340  176.8340  143.3350 C   0  0  0  0  0  2  0  0  0  0  0  0
  190.4330  177.6990  145.2160 C   0  0  0  0  0  2  0  0  0  0  0  0
  189.6570  176.6910  147.3760 C   0  0  0  0  0  1  0  0  0  0  0  0
  189.9970  178.5060  143.9860 C   0  0  0  0  0  2  0  0  0  0  0  0
  187.2290  178.2410  146.8160 C   0  0  0  0  0  2  0  0  0  0  0  0
  187.9240  177.4960  145.7040 C   0  0  0  0  0  0  0  0  0  0  0  0
  189.3090  176.9170  145.9140 C   0  0  1  0  0  3  0  0  0  0  0  0
  183.2590  178.6610  143.7900 C   0  0  2  0  0  3  0  0  0  0  0  0
  184.2540  178.9330  142.6730 C   0  0  0  0  0  2  0  0  0  0  0  0
  185.2830  178.4290  145.2930 C   0  0  0  0  0  0  0  0  0  0  0  0
  185.4480  178.0020  142.8390 C   0  0  0  0  0  2  0  0  0  0  0  0
  186.0220  178.0310  144.2350 C   0  0  0  0  0  0  0  0  0  0  0  0
  188.9560  178.5890  141.7320 C   0  0  0  0  0  2  0  0  0  0  0  0
  187.9660  177.3490  138.2980 C   0  0  0  0  0  3  0  0  0  0  0  0
  190.0670  177.0410  140.1060 C   0  0  0  0  0  3  0  0  0  0  0  0
  189.0290  176.4880  137.9790 C   0  0  0  0  0  0  0  0  0  0  0  0
  190.1030  176.3520  138.8830 C   0  0  0  0  0  0  0  0  0  0  0  0
  188.9910  177.8740  140.4240 C   0  0  0  0  0  0  0  0  0  0  0  0
  187.9440  178.0310  139.5150 C   0  0  0  0  0  3  0  0  0  0  0  0
  188.5200  174.5470  136.7260 N   0  0  0  0  0  0  0  0  0  0  0  0
  187.7870  175.6120  136.1630 C   0  0  0  0  0  0  0  0  0  0  0  0
  189.0530  175.8030  136.6360 C   0  0  1  0  0  3  0  0  0  0  0  0
  185.4760  175.2320  135.3220 C   0  0  0  0  0  1  0  0  0  0  0  0
  186.6010  176.1150  135.5580 N   0  0  0  0  0  2  0  0  0  0  0  0
  191.1920  175.5360  138.5520 O   0  0  0  0  0  0  0  0  0  0  0  0
  192.4390  176.0560  138.1120 C   0  0  0  0  0  1  0  0  0  0  0  0
  181.9660  179.4450  143.5860 C   0  0  0  0  0  2  0  0  0  0  0  0
  179.9670  178.2960  143.9500 C   0  0  0  0  0  1  0  0  0  0  0  0
  180.2750  179.4910  141.9770 C   0  0  0  0  0  1  0  0  0  0  0  0
  180.9490  178.6330  142.9340 N   0  0  0  0  0  0  0  0  0  0  0  0
  1 10  2  0  0  0  0
  2 14  1  0  0  0  0
  3  9  1  0  0  0  0
  4 17  1  6  0  0  0
  4  5  1  0  0  0  0
  4  8  1  0  0  0  0
  5  1  1  0  0  0  0
  6 11  1  0  0  0  0
  8  6  1  0  0  0  0
 10 11  1  0  0  0  0
 10  9  1  0  0  0  0
 11  7  1  1  0  0  0
 12 31  1  6  0  0  0
 12  2  1  0  0  0  0
 13 15  1  0  0  0  0
 13 12  1  0  0  0  0
 14  3  1  0  0  0  0
 15 16  1  0  0  0  0
 16  1  1  0  0  0  0
 16 14  2  0  0  0  0
 18 23  1  0  0  0  0
 19 22  1  0  0  0  0
 20 18  2  0  0  0  0
 20 21  1  0  0  0  0
 21 19  2  0  0  0  0
 22 17  1  0  0  0  0
 23 22  2  0  0  0  0
 25 26  1  0  0  0  0
 25 24  2  0  0  0  0
 26 24  1  0  0  0  0
 26 20  1  1  0  0  0
 27 28  1  0  0  0  0
 28 25  1  0  0  0  0
 29 21  1  0  0  0  0
 30 29  1  0  0  0  0
 33 34  1  0  0  0  0
 34 31  1  0  0  0  0
 34 32  1  0  0  0  0
M  END
>  <MODEL>
3

>  <REMARK>
 VINA RESULT:     -10.0      1.218      1.880
  Name = 
  6 active torsions:
  status: ('A' for Active; 'I' for Inactive)
    1  A    between atoms: C_8  and  C_18
    2  A    between atoms: C_14  and  C_16
    3  A    between atoms: C_18  and  C_30
    4  A    between atoms: C_23  and  N_24
    5  A    between atoms: C_23  and  C_25
    6  A    between atoms: O_26  and  C_28
                            x       y       z     vdW  Elec       q    Type
                         _______ _______ _______ _____ _____    ______ ____

>  <TORSDO>
F 6

$$$$
=
 OpenBabel11052415503D

 34 38  0  0  1  0  0  0  0  0999 V2000
  188.5030  177.5150  138.2370 C   0  0  0  0  0  0  0  0  0  0  0  0
  185.6050  176.1070  136.1180 C   0  0  0  0  0  2  0  0  0  0  0  0
  188.0580  175.6930  136.2100 O   0  0  0  0  0  0  0  0  0  0  0  0
  189.0850  178.1100  140.6490 C   0  0  2  0  0  3  0  0  0  0  0  0
  188.7470  178.6200  139.2350 C   0  0  0  0  0  2  0  0  0  0  0  0
  191.0950  176.7030  139.8560 C   0  0  0  0  0  2  0  0  0  0  0  0
  192.0360  176.3780  137.5540 C   0  0  0  0  0  1  0  0  0  0  0  0
  189.8030  176.7530  140.6810 C   0  0  0  0  0  2  0  0  0  0  0  0
  189.2850  175.5680  136.9310 C   0  0  0  0  0  2  0  0  0  0  0  0
  189.5390  176.7610  137.8180 C   0  0  0  0  0  0  0  0  0  0  0  0
  190.9270  177.0320  138.3630 C   0  0  1  0  0  3  0  0  0  0  0  0
  184.5630  177.1720  136.4590 C   0  0  2  0  0  3  0  0  0  0  0  0
  184.6260  177.5080  137.9400 C   0  0  0  0  0  2  0  0  0  0  0  0
  186.9570  176.3910  136.7180 C   0  0  0  0  0  0  0  0  0  0  0  0
  185.9900  178.1070  138.2520 C   0  0  0  0  0  2  0  0  0  0  0  0
  187.1310  177.2640  137.7340 C   0  0  0  0  0  0  0  0  0  0  0  0
  187.8230  178.0140  141.4950 C   0  0  0  0  0  2  0  0  0  0  0  0
  189.7860  177.9270  144.7280 C   0  0  0  0  0  3  0  0  0  0  0  0
  187.1310  177.7520  143.8880 C   0  0  0  0  0  3  0  0  0  0  0  0
  188.7740  177.7210  145.6800 C   0  0  0  0  0  0  0  0  0  0  0  0
  187.4300  177.6570  145.2570 C   0  0  0  0  0  0  0  0  0  0  0  0
  188.1490  177.9290  142.9470 C   0  0  0  0  0  0  0  0  0  0  0  0
  189.4760  178.0230  143.3710 C   0  0  0  0  0  3  0  0  0  0  0  0
  189.0160  176.3970  147.6250 N   0  0  0  0  0  0  0  0  0  0  0  0
  190.2780  176.9590  147.3440 C   0  0  0  0  0  0  0  0  0  0  0  0
  189.1310  177.6710  147.1440 C   0  0  1  0  0  3  0  0  0  0  0  0
  192.3490  175.6280  147.7050 C   0  0  0  0  0  1  0  0  0  0  0  0
  191.6960  176.8550  147.2940 N   0  0  0  0  0  2  0  0  0  0  0  0
  186.4100  177.5030  146.2040 O   0  0  0  0  0  0  0  0  0  0  0  0
  185.5690  178.5740  146.6120 C   0  0  0  0  0  1  0  0  0  0  0  0
  183.1630  176.7220  136.0490 C   0  0  0  0  0  2  0  0  0  0  0  0
  181.0910  176.7770  137.1210 C   0  0  0  0  0  1  0  0  0  0  0  0
  182.2600  174.7710  136.9570 C   0  0  0  0  0  1  0  0  0  0  0  0
  182.4200  176.1960  137.1850 N   0  0  0  0  0  0  0  0  0  0  0  0
  1  5  1  0  0  0  0
  2 12  1  0  0  0  0
  2 14  1  0  0  0  0
  3 14  1  0  0  0  0
  3  9  1  0  0  0  0
  4  8  1  0  0  0  0
  4 17  1  1  0  0  0
  5  4  1  0  0  0  0
  6  8  1  0  0  0  0
  9 10  1  0  0  0  0
 10  1  2  0  0  0  0
 10 11  1  0  0  0  0
 11  7  1  6  0  0  0
 11  6  1  0  0  0  0
 12 31  1  1  0  0  0
 12 13  1  0  0  0  0
 13 15  1  0  0  0  0
 14 16  2  0  0  0  0
 16  1  1  0  0  0  0
 16 15  1  0  0  0  0
 17 22  1  0  0  0  0
 18 20  1  0  0  0  0
 19 21  1  0  0  0  0
 21 20  2  0  0  0  0
 21 29  1  0  0  0  0
 22 23  1  0  0  0  0
 22 19  2  0  0  0  0
 23 18  2  0  0  0  0
 25 24  2  0  0  0  0
 26 20  1  6  0  0  0
 26 25  1  0  0  0  0
 26 24  1  0  0  0  0
 28 25  1  0  0  0  0
 28 27  1  0  0  0  0
 29 30  1  0  0  0  0
 31 34  1  0  0  0  0
 32 34  1  0  0  0  0
 33 34  1  0  0  0  0
M  END
>  <MODEL>
4

>  <REMARK>
 VINA RESULT:      -8.1      3.217      7.859
  Name = 
  6 active torsions:
  status: ('A' for Active; 'I' for Inactive)
    1  A    between atoms: C_8  and  C_18
    2  A    between atoms: C_14  and  C_16
    3  A    between atoms: C_18  and  C_30
    4  A    between atoms: C_23  and  N_24
    5  A    between atoms: C_23  and  C_25
    6  A    between atoms: O_26  and  C_28
                            x       y       z     vdW  Elec       q    Type
                         _______ _______ _______ _____ _____    ______ ____

>  <TORSDO>
F 6

$$$$
=
 OpenBabel11052415503D

 34 38  0  0  1  0  0  0  0  0999 V2000
  181.0200  179.2940  141.3060 C   0  0  0  0  0  0  0  0  0  0  0  0
  179.7720  182.0080  138.8670 C   0  0  0  0  0  2  0  0  0  0  0  0
  179.0610  181.2320  141.1240 O   0  0  0  0  0  0  0  0  0  0  0  0
  183.1800  178.3540  142.2860 C   0  0  2  0  0  3  0  0  0  0  0  0
  181.9960  178.1440  141.3220 C   0  0  0  0  0  2  0  0  0  0  0  0
  181.6720  178.7150  144.3460 C   0  0  0  0  0  2  0  0  0  0  0  0
  179.1730  178.7050  144.5440 C   0  0  0  0  0  1  0  0  0  0  0  0
  182.8570  179.2200  143.5120 C   0  0  0  0  0  2  0  0  0  0  0  0
  179.3530  180.7320  142.4300 C   0  0  0  0  0  2  0  0  0  0  0  0
  180.2290  179.5060  142.3790 C   0  0  0  0  0  0  0  0  0  0  0  0
  180.3440  178.5910  143.5820 C   0  0  1  0  0  3  0  0  0  0  0  0
  180.5190  181.5280  137.6240 C   0  0  2  0  0  3  0  0  0  0  0  0
  181.9340  181.1120  137.9930 C   0  0  0  0  0  2  0  0  0  0  0  0
  179.9500  181.0950  140.0520 C   0  0  0  0  0  0  0  0  0  0  0  0
  181.8670  179.9330  138.9530 C   0  0  0  0  0  2  0  0  0  0  0  0
  180.9420  180.1810  140.1210 C   0  0  0  0  0  0  0  0  0  0  0  0
  184.3610  178.9720  141.5490 C   0  0  0  0  0  2  0  0  0  0  0  0
  186.9240  177.6740  144.0100 C   0  0  0  0  0  3  0  0  0  0  0  0
  186.8250  178.5660  141.3690 C   0  0  0  0  0  3  0  0  0  0  0  0
  188.1090  177.7350  143.2590 C   0  0  0  0  0  0  0  0  0  0  0  0
  188.0550  178.1630  141.9160 C   0  0  0  0  0  0  0  0  0  0  0  0
  185.6580  178.5270  142.1350 C   0  0  0  0  0  0  0  0  0  0  0  0
  185.7080  178.0750  143.4550 C   0  0  0  0  0  3  0  0  0  0  0  0
  190.0960  178.2890  144.4160 N   0  0  0  0  0  0  0  0  0  0  0  0
  189.3810  177.3820  145.2250 C   0  0  0  0  0  0  0  0  0  0  0  0
  189.4000  177.2480  143.8670 C   0  0  1  0  0  3  0  0  0  0  0  0
  189.3560  177.6650  147.6980 C   0  0  0  0  0  1  0  0  0  0  0  0
  188.9510  176.9420  146.5080 N   0  0  0  0  0  2  0  0  0  0  0  0
  189.2220  178.1780  141.1440 O   0  0  0  0  0  0  0  0  0  0  0  0
  189.5090  177.1930  140.1590 C   0  0  0  0  0  1  0  0  0  0  0  0
  180.5190  182.5980  136.5350 C   0  0  0  0  0  2  0  0  0  0  0  0
  181.3880  184.7120  137.0100 C   0  0  0  0  0  1  0  0  0  0  0  0
  179.2310  184.5080  136.1580 C   0  0  0  0  0  1  0  0  0  0  0  0
  180.1810  183.9060  137.0760 N   0  0  0  0  0  0  0  0  0  0  0  0
  1  5  1  0  0  0  0
  1 10  2  0  0  0  0
  2 14  1  0  0  0  0
  3  9  1  0  0  0  0
  4 17  1  6  0  0  0
  4  8  1  0  0  0  0
  5  4  1  0  0  0  0
  8  6  1  0  0  0  0
 10  9  1  0  0  0  0
 10 11  1  0  0  0  0
 11  6  1  0  0  0  0
 11  7  1  1  0  0  0
 12 31  1  6  0  0  0
 12 13  1  0  0  0  0
 12  2  1  0  0  0  0
 13 15  1  0  0  0  0
 14 16  2  0  0  0  0
 14  3  1  0  0  0  0
 15 16  1  0  0  0  0
 16  1  1  0  0  0  0
 17 22  1  0  0  0  0
 19 21  2  0  0  0  0
 19 22  1  0  0  0  0
 20 18  2  0  0  0  0
 21 20  1  0  0  0  0
 22 23  2  0  0  0  0
 23 18  1  0  0  0  0
 24 25  2  0  0  0  0
 25 28  1  0  0  0  0
 26 20  1  6  0  0  0
 26 24  1  0  0  0  0
 26 25  1  0  0  0  0
 28 27  1  0  0  0  0
 29 21  1  0  0  0  0
 30 29  1  0  0  0  0
 31 34  1  0  0  0  0
 32 34  1  0  0  0  0
 33 34  1  0  0  0  0
M  END
>  <MODEL>
5

>  <REMARK>
 VINA RESULT:      -8.1      4.167      7.441
  Name = 
  6 active torsions:
  status: ('A' for Active; 'I' for Inactive)
    1  A    between atoms: C_8  and  C_18
    2  A    between atoms: C_14  and  C_16
    3  A    between atoms: C_18  and  C_30
    4  A    between atoms: C_23  and  N_24
    5  A    between atoms: C_23  and  C_25
    6  A    between atoms: O_26  and  C_28
                            x       y       z     vdW  Elec       q    Type
                         _______ _______ _______ _____ _____    ______ ____

>  <TORSDO>
F 6

$$$$
=
 OpenBabel11052415503D

 34 38  0  0  1  0  0  0  0  0999 V2000
  188.9270  177.0980  143.9380 C   0  0  0  0  0  0  0  0  0  0  0  0
  185.3790  178.5830  143.6520 C   0  0  0  0  0  2  0  0  0  0  0  0
  186.8690  177.9790  145.5540 O   0  0  0  0  0  0  0  0  0  0  0  0
  191.2570  177.3280  142.9250 C   0  0  2  0  0  3  0  0  0  0  0  0
  189.9760  176.4820  143.0450 C   0  0  0  0  0  2  0  0  0  0  0  0
  191.6810  177.3720  145.4670 C   0  0  0  0  0  2  0  0  0  0  0  0
  190.3680  176.3550  147.3460 C   0  0  0  0  0  1  0  0  0  0  0  0
  191.5790  178.1750  144.1640 C   0  0  0  0  0  2  0  0  0  0  0  0
  188.1610  177.8770  146.1550 C   0  0  0  0  0  2  0  0  0  0  0  0
  189.1340  177.1400  145.2700 C   0  0  0  0  0  0  0  0  0  0  0  0
  190.4200  176.5770  145.8430 C   0  0  1  0  0  3  0  0  0  0  0  0
  185.1360  178.2540  142.1800 C   0  0  2  0  0  3  0  0  0  0  0  0
  186.3890  178.5370  141.3680 C   0  0  0  0  0  2  0  0  0  0  0  0
  186.6880  178.0440  144.1690 C   0  0  0  0  0  0  0  0  0  0  0  0
  187.5050  177.6200  141.8480 C   0  0  0  0  0  2  0  0  0  0  0  0
  187.6870  177.6550  143.3470 C   0  0  0  0  0  0  0  0  0  0  0  0
  191.1760  178.2470  141.7140 C   0  0  0  0  0  2  0  0  0  0  0  0
  190.2440  176.3610  138.5690 C   0  0  0  0  0  3  0  0  0  0  0  0
  192.5480  177.1340  139.9390 C   0  0  0  0  0  3  0  0  0  0  0  0
  191.5020  175.9850  138.0690 C   0  0  0  0  0  0  0  0  0  0  0  0
  192.6680  176.3970  138.7490 C   0  0  0  0  0  0  0  0  0  0  0  0
  191.2910  177.4780  140.4410 C   0  0  0  0  0  0  0  0  0  0  0  0
  190.1400  177.0950  139.7510 C   0  0  0  0  0  3  0  0  0  0  0  0
  191.2570  173.9210  136.9400 N   0  0  0  0  0  0  0  0  0  0  0  0
  190.3530  174.8290  136.3510 C   0  0  0  0  0  0  0  0  0  0  0  0
  191.5890  175.2350  136.7640 C   0  0  1  0  0  3  0  0  0  0  0  0
  188.1020  174.0560  135.6240 C   0  0  0  0  0  1  0  0  0  0  0  0
  189.0860  175.1110  135.7690 N   0  0  0  0  0  2  0  0  0  0  0  0
  193.9270  176.0720  138.2300 O   0  0  0  0  0  0  0  0  0  0  0  0
  194.7720  175.0910  138.8160 C   0  0  0  0  0  1  0  0  0  0  0  0
  183.9340  179.0230  141.6370 C   0  0  0  0  0  2  0  0  0  0  0  0
  181.6430  179.0090  141.1960 C   0  0  0  0  0  1  0  0  0  0  0  0
  183.0230  177.4120  140.2150 C   0  0  0  0  0  1  0  0  0  0  0  0
  182.7870  178.1490  141.4430 N   0  0  0  0  0  0  0  0  0  0  0  0
  1 10  2  0  0  0  0
  2 14  1  0  0  0  0
  3  9  1  0  0  0  0
  4 17  1  6  0  0  0
  4  5  1  0  0  0  0
  4  8  1  0  0  0  0
  5  1  1  0  0  0  0
  6 11  1  0  0  0  0
  8  6  1  0  0  0  0
 10 11  1  0  0  0  0
 10  9  1  0  0  0  0
 11  7  1  1  0  0  0
 12 31  1  6  0  0  0
 12  2  1  0  0  0  0
 13 15  1  0  0  0  0
 13 12  1  0  0  0  0
 14  3  1  0  0  0  0
 15 16  1  0  0  0  0
 16  1  1  0  0  0  0
 16 14  2  0  0  0  0
 18 23  1  0  0  0  0
 19 22  1  0  0  0  0
 20 18  2  0  0  0  0
 20 21  1  0  0  0  0
 21 19  2  0  0  0  0
 22 17  1  0  0  0  0
 23 22  2  0  0  0  0
 25 26  1  0  0  0  0
 25 24  2  0  0  0  0
 26 24  1  0  0  0  0
 26 20  1  1  0  0  0
 27 28  1  0  0  0  0
 28 25  1  0  0  0  0
 29 21  1  0  0  0  0
 29 30  1  0  0  0  0
 32 34  1  0  0  0  0
 33 34  1  0  0  0  0
 34 31  1  0  0  0  0
M  END
>  <MODEL>
6

>  <REMARK>
 VINA RESULT:      -7.7      2.034      2.909
  Name = 
  6 active torsions:
  status: ('A' for Active; 'I' for Inactive)
    1  A    between atoms: C_8  and  C_18
    2  A    between atoms: C_14  and  C_16
    3  A    between atoms: C_18  and  C_30
    4  A    between atoms: C_23  and  N_24
    5  A    between atoms: C_23  and  C_25
    6  A    between atoms: O_26  and  C_28
                            x       y       z     vdW  Elec       q    Type
                         _______ _______ _______ _____ _____    ______ ____

>  <TORSDO>
F 6

$$$$
=
 OpenBabel11052415503D

 34 38  0  0  1  0  0  0  0  0999 V2000
  188.5050  177.2320  144.8360 C   0  0  0  0  0  0  0  0  0  0  0  0
  185.0420  178.6440  145.7770 C   0  0  0  0  0  2  0  0  0  0  0  0
  187.0440  177.9280  147.0730 O   0  0  0  0  0  0  0  0  0  0  0  0
  190.4110  177.6020  143.1800 C   0  0  2  0  0  3  0  0  0  0  0  0
  189.2280  176.7170  143.6150 C   0  0  0  0  0  2  0  0  0  0  0  0
  191.5960  177.4530  145.4640 C   0  0  0  0  0  2  0  0  0  0  0  0
  190.9240  176.2550  147.5620 C   0  0  0  0  0  1  0  0  0  0  0  0
  191.0980  178.3550  144.3280 C   0  0  0  0  0  2  0  0  0  0  0  0
  188.4580  177.8110  147.2380 C   0  0  0  0  0  2  0  0  0  0  0  0
  189.1120  177.1730  146.0390 C   0  0  0  0  0  0  0  0  0  0  0  0
  190.5110  176.5980  146.1400 C   0  0  1  0  0  3  0  0  0  0  0  0
  184.3570  178.4280  144.4290 C   0  0  2  0  0  3  0  0  0  0  0  0
  185.3000  178.8070  143.2980 C   0  0  0  0  0  2  0  0  0  0  0  0
  186.4460  178.0990  145.8200 C   0  0  0  0  0  0  0  0  0  0  0  0
  186.5090  177.8830  143.3330 C   0  0  0  0  0  2  0  0  0  0  0  0
  187.1430  177.8030  144.7020 C   0  0  0  0  0  0  0  0  0  0  0  0
  189.9600  178.6130  142.1340 C   0  0  0  0  0  2  0  0  0  0  0  0
  190.3170  176.3690  139.1100 C   0  0  0  0  0  3  0  0  0  0  0  0
  188.5650  178.3130  140.0760 C   0  0  0  0  0  3  0  0  0  0  0  0
  189.2070  176.7420  138.3340 C   0  0  0  0  0  0  0  0  0  0  0  0
  188.3080  177.7070  138.8350 C   0  0  0  0  0  0  0  0  0  0  0  0
  189.6880  177.9530  140.8250 C   0  0  0  0  0  0  0  0  0  0  0  0
  190.5600  176.9760  140.3420 C   0  0  0  0  0  3  0  0  0  0  0  0
  187.6370  175.6260  136.9610 N   0  0  0  0  0  0  0  0  0  0  0  0
  188.0860  176.7580  136.2490 C   0  0  0  0  0  0  0  0  0  0  0  0
  188.9400  176.0350  137.0300 C   0  0  1  0  0  3  0  0  0  0  0  0
  186.4990  178.0620  134.8440 C   0  0  0  0  0  1  0  0  0  0  0  0
  187.8320  177.8490  135.3720 N   0  0  0  0  0  2  0  0  0  0  0  0
  187.1700  178.0480  138.0930 O   0  0  0  0  0  0  0  0  0  0  0  0
  185.8880  178.2200  138.6830 C   0  0  0  0  0  1  0  0  0  0  0  0
  183.0470  179.2070  144.3460 C   0  0  0  0  0  2  0  0  0  0  0  0
  180.8290  179.2570  143.6210 C   0  0  0  0  0  1  0  0  0  0  0  0
  182.5300  178.7420  142.1180 C   0  0  0  0  0  1  0  0  0  0  0  0
  182.0840  178.5380  143.4840 N   0  0  0  0  0  0  0  0  0  0  0  0
  1 10  2  0  0  0  0
  2 14  1  0  0  0  0
  3  9  1  0  0  0  0
  4 17  1  6  0  0  0
  4  5  1  0  0  0  0
  4  8  1  0  0  0  0
  5  1  1  0  0  0  0
  6 11  1  0  0  0  0
  8  6  1  0  0  0  0
 10 11  1  0  0  0  0
 10  9  1  0  0  0  0
 11  7  1  1  0  0  0
 12 31  1  1  0  0  0
 12  2  1  0  0  0  0
 13 15  1  0  0  0  0
 13 12  1  0  0  0  0
 14  3  1  0  0  0  0
 15 16  1  0  0  0  0
 16  1  1  0  0  0  0
 16 14  2  0  0  0  0
 18 23  1  0  0  0  0
 19 22  1  0  0  0  0
 20 21  1  0  0  0  0
 20 18  2  0  0  0  0
 21 19  2  0  0  0  0
 22 17  1  0  0  0  0
 23 22  2  0  0  0  0
 24 26  1  0  0  0  0
 25 24  2  0  0  0  0
 25 26  1  0  0  0  0
 26 20  1  1  0  0  0
 27 28  1  0  0  0  0
 28 25  1  0  0  0  0
 29 30  1  0  0  0  0
 29 21  1  0  0  0  0
 33 34  1  0  0  0  0
 34 32  1  0  0  0  0
 34 31  1  0  0  0  0
M  END
>  <MODEL>
7

>  <REMARK>
 VINA RESULT:      -7.6      1.467      1.976
  Name = 
  6 active torsions:
  status: ('A' for Active; 'I' for Inactive)
    1  A    between atoms: C_8  and  C_18
    2  A    between atoms: C_14  and  C_16
    3  A    between atoms: C_18  and  C_30
    4  A    between atoms: C_23  and  N_24
    5  A    between atoms: C_23  and  C_25
    6  A    between atoms: O_26  and  C_28
                            x       y       z     vdW  Elec       q    Type
                         _______ _______ _______ _____ _____    ______ ____

>  <TORSDO>
F 6

$$$$
=
 OpenBabel11052415503D

 34 38  0  0  1  0  0  0  0  0999 V2000
  189.1470  177.0430  142.6870 C   0  0  0  0  0  0  0  0  0  0  0  0
  191.6530  177.3050  145.6070 C   0  0  0  0  0  2  0  0  0  0  0  0
  191.8630  177.2760  143.1260 O   0  0  0  0  0  0  0  0  0  0  0  0
  186.8980  177.9700  141.9190 C   0  0  2  0  0  3  0  0  0  0  0  0
  187.6800  176.7630  142.4720 C   0  0  0  0  0  2  0  0  0  0  0  0
  188.4150  178.2360  139.8520 C   0  0  0  0  0  2  0  0  0  0  0  0
  190.4260  176.9190  139.1390 C   0  0  0  0  0  1  0  0  0  0  0  0
  187.7260  178.9180  141.0420 C   0  0  0  0  0  2  0  0  0  0  0  0
  191.3900  177.6130  141.8210 C   0  0  0  0  0  2  0  0  0  0  0  0
  189.9560  177.1960  141.6190 C   0  0  0  0  0  0  0  0  0  0  0  0
  189.3740  177.0930  140.2230 C   0  0  1  0  0  3  0  0  0  0  0  0
  190.7120  176.8640  146.7280 C   0  0  2  0  0  3  0  0  0  0  0  0
  189.3450  177.5040  146.5430 C   0  0  0  0  0  2  0  0  0  0  0  0
  191.0200  177.2320  144.2420 C   0  0  0  0  0  0  0  0  0  0  0  0
  188.7410  177.0090  145.2360 C   0  0  0  0  0  2  0  0  0  0  0  0
  189.6840  177.1530  144.0650 C   0  0  0  0  0  0  0  0  0  0  0  0
  186.2840  178.7710  143.0590 C   0  0  0  0  0  2  0  0  0  0  0  0
  182.6470  179.3720  143.9100 C   0  0  0  0  0  3  0  0  0  0  0  0
  184.1560  178.2810  141.8330 C   0  0  0  0  0  3  0  0  0  0  0  0
  181.9900  178.8240  142.7960 C   0  0  0  0  0  0  0  0  0  0  0  0
  182.7550  178.2940  141.7350 C   0  0  0  0  0  0  0  0  0  0  0  0
  184.7970  178.8040  142.9590 C   0  0  0  0  0  0  0  0  0  0  0  0
  184.0400  179.3550  143.9940 C   0  0  0  0  0  3  0  0  0  0  0  0
  180.0350  180.0920  143.2010 N   0  0  0  0  0  0  0  0  0  0  0  0
  180.0990  179.8540  141.8130 C   0  0  0  0  0  0  0  0  0  0  0  0
  180.4880  178.9000  142.7080 C   0  0  1  0  0  3  0  0  0  0  0  0
  179.3960  181.6220  140.2080 C   0  0  0  0  0  1  0  0  0  0  0  0
  179.9080  180.2920  140.4720 N   0  0  0  0  0  2  0  0  0  0  0  0
  182.1110  177.7920  140.5970 O   0  0  0  0  0  0  0  0  0  0  0  0
  182.8110  177.4060  139.4220 C   0  0  0  0  0  1  0  0  0  0  0  0
  191.2980  177.1900  148.0990 C   0  0  0  0  0  2  0  0  0  0  0  0
  193.0820  176.9660  149.5870 C   0  0  0  0  0  1  0  0  0  0  0  0
  192.6000  175.2520  148.0890 C   0  0  0  0  0  1  0  0  0  0  0  0
  192.6620  176.6960  148.2240 N   0  0  0  0  0  0  0  0  0  0  0  0
  1 16  1  0  0  0  0
  2 12  1  0  0  0  0
  3 14  1  0  0  0  0
  4  5  1  0  0  0  0
  4 17  1  1  0  0  0
  5  1  1  0  0  0  0
  6 11  1  0  0  0  0
  6  8  1  0  0  0  0
  8  4  1  0  0  0  0
  9  3  1  0  0  0  0
 10  9  1  0  0  0  0
 10  1  2  0  0  0  0
 11  7  1  6  0  0  0
 11 10  1  0  0  0  0
 12 31  1  1  0  0  0
 13 12  1  0  0  0  0
 14  2  1  0  0  0  0
 15 13  1  0  0  0  0
 16 14  2  0  0  0  0
 16 15  1  0  0  0  0
 18 23  1  0  0  0  0
 19 22  1  0  0  0  0
 20 18  2  0  0  0  0
 21 19  2  0  0  0  0
 21 20  1  0  0  0  0
 22 17  1  0  0  0  0
 22 23  2  0  0  0  0
 25 26  1  0  0  0  0
 25 24  2  0  0  0  0
 26 20  1  6  0  0  0
 26 24  1  0  0  0  0
 27 28  1  0  0  0  0
 28 25  1  0  0  0  0
 29 21  1  0  0  0  0
 30 29  1  0  0  0  0
 31 34  1  0  0  0  0
 33 34  1  0  0  0  0
 34 32  1  0  0  0  0
M  END
>  <MODEL>
8

>  <REMARK>
 VINA RESULT:      -7.6      3.641      8.435
  Name = 
  6 active torsions:
  status: ('A' for Active; 'I' for Inactive)
    1  A    between atoms: C_8  and  C_18
    2  A    between atoms: C_14  and  C_16
    3  A    between atoms: C_18  and  C_30
    4  A    between atoms: C_23  and  N_24
    5  A    between atoms: C_23  and  C_25
    6  A    between atoms: O_26  and  C_28
                            x       y       z     vdW  Elec       q    Type
                         _______ _______ _______ _____ _____    ______ ____

>  <TORSDO>
F 6

$$$$
=
 OpenBabel11052415503D

 34 38  0  0  1  0  0  0  0  0999 V2000
  187.6930  178.2870  142.1330 C   0  0  0  0  0  0  0  0  0  0  0  0
  190.4460  176.3780  140.2240 C   0  0  0  0  0  2  0  0  0  0  0  0
  189.5990  176.3370  142.5650 O   0  0  0  0  0  0  0  0  0  0  0  0
  185.2760  179.0620  141.8730 C   0  0  2  0  0  3  0  0  0  0  0  0
  186.7640  179.4570  141.9170 C   0  0  0  0  0  2  0  0  0  0  0  0
  185.3190  177.9380  144.1920 C   0  0  0  0  0  2  0  0  0  0  0  0
  187.2030  177.6590  145.8220 C   0  0  0  0  0  1  0  0  0  0  0  0
  184.9190  177.8290  142.7150 C   0  0  0  0  0  2  0  0  0  0  0  0
  188.5400  176.4260  143.5200 C   0  0  0  0  0  2  0  0  0  0  0  0
  187.7220  177.6790  143.3360 C   0  0  0  0  0  0  0  0  0  0  0  0
  186.8170  178.1750  144.4450 C   0  0  1  0  0  3  0  0  0  0  0  0
  190.5190  177.2890  139.0000 C   0  0  2  0  0  3  0  0  0  0  0  0
  189.1200  177.6930  138.5650 C   0  0  0  0  0  2  0  0  0  0  0  0
  189.5000  176.8840  141.2810 C   0  0  0  0  0  0  0  0  0  0  0  0
  188.4700  178.5000  139.6810 C   0  0  0  0  0  2  0  0  0  0  0  0
  188.5560  177.8150  141.0240 C   0  0  0  0  0  0  0  0  0  0  0  0
  184.8350  178.8150  140.4360 C   0  0  0  0  0  2  0  0  0  0  0  0
  181.8790  176.5840  139.6650 C   0  0  0  0  0  3  0  0  0  0  0  0
  182.3950  178.9960  140.9680 C   0  0  0  0  0  3  0  0  0  0  0  0
  180.8130  177.3040  140.2290 C   0  0  0  0  0  0  0  0  0  0  0  0
  181.0770  178.5110  140.9090 C   0  0  0  0  0  0  0  0  0  0  0  0
  183.4430  178.2840  140.3800 C   0  0  0  0  0  0  0  0  0  0  0  0
  183.1840  177.0750  139.7330 C   0  0  0  0  0  3  0  0  0  0  0  0
  179.4020  175.5690  139.4590 N   0  0  0  0  0  0  0  0  0  0  0  0
  179.3600  175.5470  140.8680 C   0  0  0  0  0  0  0  0  0  0  0  0
  179.4210  176.7270  140.1850 C   0  0  1  0  0  3  0  0  0  0  0  0
  179.2630  173.3780  142.0830 C   0  0  0  0  0  1  0  0  0  0  0  0
  179.3040  174.8270  142.0940 N   0  0  0  0  0  2  0  0  0  0  0  0
  180.0290  179.2100  141.5190 O   0  0  0  0  0  0  0  0  0  0  0  0
  180.0680  179.6300  142.8760 C   0  0  0  0  0  1  0  0  0  0  0  0
  191.2850  176.6200  137.8610 C   0  0  0  0  0  2  0  0  0  0  0  0
  190.3170  174.6990  136.9570 C   0  0  0  0  0  1  0  0  0  0  0  0
  192.5550  174.6810  137.5930 C   0  0  0  0  0  1  0  0  0  0  0  0
  191.2420  175.1700  137.9720 N   0  0  0  0  0  0  0  0  0  0  0  0
  1 10  2  0  0  0  0
  2 14  1  0  0  0  0
  3  9  1  0  0  0  0
  4 17  1  6  0  0  0
  4  5  1  0  0  0  0
  4  8  1  0  0  0  0
  5  1  1  0  0  0  0
  6 11  1  0  0  0  0
  8  6  1  0  0  0  0
 10  9  1  0  0  0  0
 10 11  1  0  0  0  0
 11  7  1  1  0  0  0
 12 31  1  6  0  0  0
 12  2  1  0  0  0  0
 13 12  1  0  0  0  0
 13 15  1  0  0  0  0
 14  3  1  0  0  0  0
 15 16  1  0  0  0  0
 16 14  2  0  0  0  0
 16  1  1  0  0  0  0
 18 23  2  0  0  0  0
 18 20  1  0  0  0  0
 20 21  2  0  0  0  0
 21 19  1  0  0  0  0
 21 29  1  0  0  0  0
 22 17  1  0  0  0  0
 22 19  2  0  0  0  0
 23 22  1  0  0  0  0
 24 26  1  0  0  0  0
 24 25  2  0  0  0  0
 25 28  1  0  0  0  0
 26 20  1  1  0  0  0
 26 25  1  0  0  0  0
 27 28  1  0  0  0  0
 29 30  1  0  0  0  0
 31 34  1  0  0  0  0
 32 34  1  0  0  0  0
 33 34  1  0  0  0  0
M  END
>  <MODEL>
9

>  <REMARK>
 VINA RESULT:      -7.5      2.774      8.057
  Name = 
  6 active torsions:
  status: ('A' for Active; 'I' for Inactive)
    1  A    between atoms: C_8  and  C_18
    2  A    between atoms: C_14  and  C_16
    3  A    between atoms: C_18  and  C_30
    4  A    between atoms: C_23  and  N_24
    5  A    between atoms: C_23  and  C_25
    6  A    between atoms: O_26  and  C_28
                            x       y       z     vdW  Elec       q    Type
                         _______ _______ _______ _____ _____    ______ ____

>  <TORSDO>
F 6

$$$$
