=
 OpenBabel11052416333D

 43 49  0  0  1  0  0  0  0  0999 V2000
  186.4910  178.2530  138.2070 C   0  0  0  0  0  0  0  0  0  0  0  0
  184.7130  178.4950  145.5940 C   0  0  0  0  0  0  0  0  0  0  0  0
  186.3030  178.1800  136.9570 O   0  0  0  0  0  0  0  0  0  0  0  0
  183.1860  178.8590  140.7340 C   0  0  0  0  0  0  0  0  0  0  0  0
  185.3860  178.4970  139.0740 N   0  0  0  0  0  0  0  0  0  0  0  0
  183.4600  178.9480  143.5880 C   0  0  0  0  0  0  0  0  0  0  0  0
  185.8280  177.9770  144.7520 C   0  0  0  0  0  3  0  0  0  0  0  0
  184.8520  178.4930  147.0750 C   0  0  0  0  0  1  0  0  0  0  0  0
  184.7460  179.0210  142.7910 C   0  0  1  0  0  3  0  0  0  0  0  0
  183.5740  178.8950  145.0540 C   0  0  0  0  0  3  0  0  0  0  0  0
  185.8230  178.1600  143.4330 C   0  0  0  0  0  3  0  0  0  0  0  0
  185.5870  178.6250  140.4920 C   0  0  0  0  0  3  0  0  0  0  0  0
  184.5440  178.7740  141.3130 C   0  0  0  0  0  0  0  0  0  0  0  0
  182.1230  178.9750  141.5380 C   0  0  0  0  0  3  0  0  0  0  0  0
  183.0380  178.8010  139.2610 C   0  0  0  0  0  0  0  0  0  0  0  0
  184.0950  178.6180  138.5210 N   0  0  0  0  0  0  0  0  0  0  0  0
  182.2640  178.9830  143.0060 C   0  0  0  0  0  3  0  0  0  0  0  0
  187.7990  178.0780  138.7570 N   0  0  0  0  0  0  0  0  0  0  0  0
  187.9840  177.6660  139.9670 C   0  0  0  0  0  3  0  0  0  0  0  0
  190.1540  176.5290  139.6530 C   0  0  0  0  0  2  0  0  0  0  0  0
  189.2920  177.0570  141.8890 N   0  0  1  0  0  0  0  0  0  0  0  0
  191.9840  177.0010  141.9510 C   0  0  0  0  0  2  0  0  0  0  0  0
  189.3630  177.5120  140.5020 C   0  0  2  0  0  3  0  0  0  0  0  0
  191.5880  177.0160  139.4640 C   0  0  0  0  0  2  0  0  0  0  0  0
  190.5880  176.9300  142.6190 C   0  0  1  0  0  0  0  0  0  0  0  0
  189.8400  178.1730  142.6970 C   0  0  0  0  0  2  0  0  0  0  0  0
  192.1160  177.8020  140.6610 C   0  0  0  0  0  2  0  0  0  0  0  0
  190.4900  176.1900  143.8120 O   0  0  0  0  0  0  0  0  0  0  0  0
  190.7430  177.0910  144.8590 C   0  0  2  0  0  3  0  0  0  0  0  0
  189.1880  177.7350  148.0110 N   0  0  0  0  0  1  0  0  0  0  0  0
  191.2480  176.7830  147.2060 C   0  0  0  0  0  2  0  0  0  0  0  0
  189.7490  176.8200  147.0540 C   0  0  2  0  0  3  0  0  0  0  0  0
  191.7630  176.4960  145.8200 C   0  0  0  0  0  2  0  0  0  0  0  0
  189.4740  177.3140  145.6510 C   0  0  0  0  0  2  0  0  0  0  0  0
  181.7100  178.9060  138.6040 C   0  0  0  0  0  2  0  0  0  0  0  0
  180.5700  182.4030  138.2440 C   0  0  0  0  0  2  0  0  0  0  0  0
  180.6340  182.4650  136.7860 N   0  0  0  0  0  0  0  0  0  0  0  0
  180.8420  183.9050  134.9680 O   0  0  0  0  0  0  0  0  0  0  0  0
  180.9260  179.9600  136.6710 C   0  0  0  0  0  2  0  0  0  0  0  0
  180.6160  180.9680  138.7570 C   0  0  0  0  0  2  0  0  0  0  0  0
  181.5630  180.2020  137.9670 N   0  0  0  0  0  0  0  0  0  0  0  0
  180.8030  183.7530  136.2170 C   0  0  0  0  0  3  0  0  0  0  0  0
  180.7010  181.2720  135.9090 C   0  0  0  0  0  2  0  0  0  0  0  0
  1 18  1  0  0  0  0
  1  5  1  0  0  0  0
  2  8  1  0  0  0  0
  3  1  2  0  0  0  0
  4 13  1  0  0  0  0
  4 14  2  0  0  0  0
  5 12  1  0  0  0  0
  6 10  1  0  0  0  0
  7  2  1  0  0  0  0
  9 11  1  1  0  0  0
  9  6  1  0  0  0  0
 10  2  2  0  0  0  0
 11  7  2  0  0  0  0
 12 13  2  0  0  0  0
 13  9  1  0  0  0  0
 14 17  1  0  0  0  0
 15  4  1  0  0  0  0
 16  5  1  0  0  0  0
 16 15  2  0  0  0  0
 17  6  2  0  0  0  0
 18 19  2  0  0  0  0
 20 23  1  0  0  0  0
 21 25  1  0  0  0  0
 21 26  1  1  0  0  0
 22 25  1  0  0  0  0
 23 19  1  6  0  0  0
 23 21  1  0  0  0  0
 24 20  1  0  0  0  0
 24 27  1  0  0  0  0
 25 26  1  0  0  0  0
 25 28  1  1  0  0  0
 27 22  1  0  0  0  0
 29 28  1  6  0  0  0
 29 34  1  0  0  0  0
 29 33  1  0  0  0  0
 32 31  1  0  0  0  0
 32 30  1  1  0  0  0
 33 31  1  0  0  0  0
 34 32  1  0  0  0  0
 35 15  1  0  0  0  0
 36 40  1  0  0  0  0
 37 36  1  0  0  0  0
 38 42  2  0  0  0  0
 39 41  1  0  0  0  0
 41 35  1  0  0  0  0
 41 40  1  0  0  0  0
 42 37  1  0  0  0  0
 43 39  1  0  0  0  0
 43 37  1  0  0  0  0
M  END
>  <MODEL>
1

>  <REMARK>
 VINA RESULT:     -11.4      0.000      0.000
  Name = 
  6 active torsions:
  status: ('A' for Active; 'I' for Inactive)
    1  A    between atoms: C_1  and  C_34
    2  A    between atoms: C_1  and  N_35
    3  A    between atoms: C_2  and  N_6
    4  A    between atoms: C_11  and  O_14
    5  A    between atoms: C_12  and  C_17
    6  A    between atoms: O_14  and  C_22
                            x       y       z     vdW  Elec       q    Type
                         _______ _______ _______ _____ _____    ______ ____

>  <TORSDO>
F 6

$$$$
=
 OpenBabel11052416333D

 43 49  0  0  1  0  0  0  0  0999 V2000
  185.1520  177.9860  138.0100 C   0  0  0  0  0  0  0  0  0  0  0  0
  185.2600  178.4980  145.5940 C   0  0  0  0  0  0  0  0  0  0  0  0
  184.6580  177.8860  136.8480 O   0  0  0  0  0  0  0  0  0  0  0  0
  182.5930  178.7860  141.2480 C   0  0  0  0  0  0  0  0  0  0  0  0
  184.3030  178.2960  139.1120 N   0  0  0  0  0  0  0  0  0  0  0  0
  183.5650  178.9430  143.9420 C   0  0  0  0  0  0  0  0  0  0  0  0
  186.1160  177.9140  144.5230 C   0  0  0  0  0  3  0  0  0  0  0  0
  185.7610  178.5300  146.9940 C   0  0  0  0  0  1  0  0  0  0  0  0
  184.6160  178.9450  142.8520 C   0  0  1  0  0  3  0  0  0  0  0  0
  184.0350  178.9250  145.3370 C   0  0  0  0  0  3  0  0  0  0  0  0
  185.7920  178.0610  143.2400 C   0  0  0  0  0  3  0  0  0  0  0  0
  184.8510  178.4550  140.4320 C   0  0  0  0  0  3  0  0  0  0  0  0
  184.0490  178.6660  141.4780 C   0  0  0  0  0  0  0  0  0  0  0  0
  181.7650  178.9650  142.2840 C   0  0  0  0  0  3  0  0  0  0  0  0
  182.0840  178.6940  139.8590 C   0  0  0  0  0  0  0  0  0  0  0  0
  182.9190  178.4510  138.8900 N   0  0  0  0  0  0  0  0  0  0  0  0
  182.2640  179.0070  143.6710 C   0  0  0  0  0  3  0  0  0  0  0  0
  186.5490  177.7760  138.2280 N   0  0  0  0  0  0  0  0  0  0  0  0
  187.2480  176.9840  137.4850 C   0  0  0  0  0  3  0  0  0  0  0  0
  189.1980  175.5290  137.0630 C   0  0  0  0  0  2  0  0  0  0  0  0
  188.9070  176.7000  139.2000 N   0  0  1  0  0  0  0  0  0  0  0  0
  191.5310  176.3060  138.7380 C   0  0  0  0  0  2  0  0  0  0  0  0
  188.6960  176.7860  137.7570 C   0  0  2  0  0  3  0  0  0  0  0  0
  190.5850  175.7600  136.4690 C   0  0  0  0  0  2  0  0  0  0  0  0
  190.3210  176.5870  139.6650 C   0  0  1  0  0  0  0  0  0  0  0  0
  189.7060  177.8980  139.5520 C   0  0  0  0  0  2  0  0  0  0  0  0
  191.4270  176.7410  137.2810 C   0  0  0  0  0  2  0  0  0  0  0  0
  190.4410  176.1830  141.0070 O   0  0  0  0  0  0  0  0  0  0  0  0
  190.4980  177.3590  141.7720 C   0  0  2  0  0  3  0  0  0  0  0  0
  189.6740  178.1640  145.1550 N   0  0  0  0  0  1  0  0  0  0  0  0
  191.6610  177.9380  143.8130 C   0  0  0  0  0  2  0  0  0  0  0  0
  190.3360  177.3270  144.1900 C   0  0  2  0  0  3  0  0  0  0  0  0
  191.8820  177.5130  142.3850 C   0  0  0  0  0  2  0  0  0  0  0  0
  189.5180  177.2620  142.9200 C   0  0  0  0  0  2  0  0  0  0  0  0
  180.6380  178.8320  139.5460 C   0  0  0  0  0  2  0  0  0  0  0  0
  178.9340  182.1040  139.7530 C   0  0  0  0  0  2  0  0  0  0  0  0
  179.1430  182.5050  138.3640 N   0  0  0  0  0  0  0  0  0  0  0  0
  179.2840  184.3350  136.9320 O   0  0  0  0  0  0  0  0  0  0  0  0
  179.8910  180.1670  137.7790 C   0  0  0  0  0  2  0  0  0  0  0  0
  179.1810  180.6140  139.9610 C   0  0  0  0  0  2  0  0  0  0  0  0
  180.3300  180.2010  139.1750 N   0  0  0  0  0  0  0  0  0  0  0  0
  179.1380  183.8990  138.1040 C   0  0  0  0  0  3  0  0  0  0  0  0
  179.5170  181.5680  137.2790 C   0  0  0  0  0  2  0  0  0  0  0  0
  1 18  1  0  0  0  0
  1  5  1  0  0  0  0
  2  8  1  0  0  0  0
  3  1  2  0  0  0  0
  4 13  1  0  0  0  0
  4 14  2  0  0  0  0
  5 12  1  0  0  0  0
  6 10  1  0  0  0  0
  7  2  1  0  0  0  0
  9 11  1  1  0  0  0
  9  6  1  0  0  0  0
 10  2  2  0  0  0  0
 11  7  2  0  0  0  0
 12 13  2  0  0  0  0
 13  9  1  0  0  0  0
 14 17  1  0  0  0  0
 15  4  1  0  0  0  0
 16  5  1  0  0  0  0
 16 15  2  0  0  0  0
 17  6  2  0  0  0  0
 19 18  2  0  0  0  0
 20 23  1  0  0  0  0
 21 26  1  1  0  0  0
 21 25  1  0  0  0  0
 22 25  1  0  0  0  0
 23 19  1  1  0  0  0
 23 21  1  0  0  0  0
 24 20  1  0  0  0  0
 24 27  1  0  0  0  0
 25 28  1  1  0  0  0
 26 25  1  0  0  0  0
 27 22  1  0  0  0  0
 29 28  1  1  0  0  0
 29 33  1  0  0  0  0
 29 34  1  0  0  0  0
 31 32  1  0  0  0  0
 32 30  1  1  0  0  0
 33 31  1  0  0  0  0
 34 32  1  0  0  0  0
 35 15  1  0  0  0  0
 36 40  1  0  0  0  0
 37 36  1  0  0  0  0
 38 42  2  0  0  0  0
 39 41  1  0  0  0  0
 41 35  1  0  0  0  0
 41 40  1  0  0  0  0
 42 37  1  0  0  0  0
 43 39  1  0  0  0  0
 43 37  1  0  0  0  0
M  END
>  <MODEL>
2

>  <REMARK>
 VINA RESULT:     -11.2      1.594      2.192
  Name = 
  6 active torsions:
  status: ('A' for Active; 'I' for Inactive)
    1  A    between atoms: C_1  and  C_34
    2  A    between atoms: C_1  and  N_35
    3  A    between atoms: C_2  and  N_6
    4  A    between atoms: C_11  and  O_14
    5  A    between atoms: C_12  and  C_17
    6  A    between atoms: O_14  and  C_22
                            x       y       z     vdW  Elec       q    Type
                         _______ _______ _______ _____ _____    ______ ____

>  <TORSDO>
F 6

$$$$
=
 OpenBabel11052416333D

 43 49  0  0  1  0  0  0  0  0999 V2000
  186.5570  178.3670  138.1620 C   0  0  0  0  0  0  0  0  0  0  0  0
  184.6440  178.5440  145.5180 C   0  0  0  0  0  0  0  0  0  0  0  0
  186.3940  178.2710  136.9110 O   0  0  0  0  0  0  0  0  0  0  0  0
  183.1760  178.7660  140.6310 C   0  0  0  0  0  0  0  0  0  0  0  0
  185.4230  178.5420  139.0090 N   0  0  0  0  0  0  0  0  0  0  0  0
  183.3960  178.8960  143.4880 C   0  0  0  0  0  0  0  0  0  0  0  0
  185.8050  178.0960  144.6980 C   0  0  0  0  0  3  0  0  0  0  0  0
  184.7580  178.5630  147.0010 C   0  0  0  0  0  1  0  0  0  0  0  0
  184.6870  179.0500  142.7120 C   0  0  1  0  0  3  0  0  0  0  0  0
  183.4890  178.8620  144.9560 C   0  0  0  0  0  3  0  0  0  0  0  0
  185.8090  178.2680  143.3780 C   0  0  0  0  0  3  0  0  0  0  0  0
  185.5910  178.6940  140.4290 C   0  0  0  0  0  3  0  0  0  0  0  0
  184.5270  178.7790  141.2320 C   0  0  0  0  0  0  0  0  0  0  0  0
  182.0950  178.8160  141.4160 C   0  0  0  0  0  3  0  0  0  0  0  0
  183.0570  178.6880  139.1560 C   0  0  0  0  0  0  0  0  0  0  0  0
  184.1360  178.5710  138.4350 N   0  0  0  0  0  0  0  0  0  0  0  0
  182.2100  178.8450  142.8870 C   0  0  0  0  0  3  0  0  0  0  0  0
  187.8640  178.2850  138.7350 N   0  0  0  0  0  0  0  0  0  0  0  0
  188.2620  177.2460  139.3910 C   0  0  0  0  0  3  0  0  0  0  0  0
  190.5120  176.2470  139.2080 C   0  0  0  0  0  2  0  0  0  0  0  0
  189.5320  176.8150  141.3850 N   0  0  1  0  0  0  0  0  0  0  0  0
  192.2170  176.9460  141.5440 C   0  0  0  0  0  2  0  0  0  0  0  0
  189.6250  177.2110  139.9810 C   0  0  2  0  0  3  0  0  0  0  0  0
  191.9170  176.8210  139.0470 C   0  0  0  0  0  2  0  0  0  0  0  0
  190.8040  176.8110  142.1660 C   0  0  1  0  0  0  0  0  0  0  0  0
  189.9730  178.0020  142.1570 C   0  0  0  0  0  2  0  0  0  0  0  0
  192.3450  177.6950  140.2230 C   0  0  0  0  0  2  0  0  0  0  0  0
  190.7100  176.1200  143.3880 O   0  0  0  0  0  0  0  0  0  0  0  0
  190.7790  177.0930  144.3980 C   0  0  2  0  0  3  0  0  0  0  0  0
  188.8270  177.7920  147.3090 N   0  0  0  0  0  1  0  0  0  0  0  0
  191.0260  176.9510  146.8020 C   0  0  0  0  0  2  0  0  0  0  0  0
  189.5560  176.8700  146.4800 C   0  0  2  0  0  3  0  0  0  0  0  0
  191.7170  176.6280  145.5030 C   0  0  0  0  0  2  0  0  0  0  0  0
  189.4140  177.2650  145.0270 C   0  0  0  0  0  2  0  0  0  0  0  0
  181.7360  178.6970  138.4770 C   0  0  0  0  0  2  0  0  0  0  0  0
  180.8270  175.8260  136.3360 C   0  0  0  0  0  2  0  0  0  0  0  0
  180.0060  175.1210  137.3170 N   0  0  0  0  0  0  0  0  0  0  0  0
  179.1690  173.0350  137.9230 O   0  0  0  0  0  0  0  0  0  0  0  0
  180.0150  177.1530  138.8150 C   0  0  0  0  0  2  0  0  0  0  0  0
  181.0830  177.2740  136.7390 C   0  0  0  0  0  2  0  0  0  0  0  0
  181.3160  177.3420  138.1710 N   0  0  0  0  0  0  0  0  0  0  0  0
  179.8790  173.7200  137.1410 C   0  0  0  0  0  3  0  0  0  0  0  0
  179.4590  175.7500  138.5420 C   0  0  0  0  0  2  0  0  0  0  0  0
  1 18  1  0  0  0  0
  1  5  1  0  0  0  0
  2  8  1  0  0  0  0
  3  1  2  0  0  0  0
  4 13  1  0  0  0  0
  4 14  2  0  0  0  0
  5 12  1  0  0  0  0
  6 10  1  0  0  0  0
  7  2  1  0  0  0  0
  9 11  1  1  0  0  0
  9  6  1  0  0  0  0
 10  2  2  0  0  0  0
 11  7  2  0  0  0  0
 12 13  2  0  0  0  0
 13  9  1  0  0  0  0
 14 17  1  0  0  0  0
 15  4  1  0  0  0  0
 16  5  1  0  0  0  0
 16 15  2  0  0  0  0
 17  6  2  0  0  0  0
 18 19  2  0  0  0  0
 20 23  1  0  0  0  0
 21 26  1  1  0  0  0
 21 25  1  0  0  0  0
 22 25  1  0  0  0  0
 23 19  1  6  0  0  0
 23 21  1  0  0  0  0
 24 20  1  0  0  0  0
 24 27  1  0  0  0  0
 25 28  1  1  0  0  0
 26 25  1  0  0  0  0
 27 22  1  0  0  0  0
 29 28  1  6  0  0  0
 29 34  1  0  0  0  0
 29 33  1  0  0  0  0
 32 31  1  0  0  0  0
 32 30  1  1  0  0  0
 33 31  1  0  0  0  0
 34 32  1  0  0  0  0
 35 15  1  0  0  0  0
 36 40  1  0  0  0  0
 36 37  1  0  0  0  0
 37 43  1  0  0  0  0
 40 41  1  0  0  0  0
 41 35  1  0  0  0  0
 41 39  1  0  0  0  0
 42 37  1  0  0  0  0
 42 38  2  0  0  0  0
 43 39  1  0  0  0  0
M  END
>  <MODEL>
3

>  <REMARK>
 VINA RESULT:     -10.7      2.137      3.117
  Name = 
  6 active torsions:
  status: ('A' for Active; 'I' for Inactive)
    1  A    between atoms: C_1  and  C_34
    2  A    between atoms: C_1  and  N_35
    3  A    between atoms: C_2  and  N_6
    4  A    between atoms: C_11  and  O_14
    5  A    between atoms: C_12  and  C_17
    6  A    between atoms: O_14  and  C_22
                            x       y       z     vdW  Elec       q    Type
                         _______ _______ _______ _____ _____    ______ ____

>  <TORSDO>
F 6

$$$$
=
 OpenBabel11052416333D

 43 49  0  0  1  0  0  0  0  0999 V2000
  191.0730  177.4570  140.8660 C   0  0  0  0  0  0  0  0  0  0  0  0
  183.5940  178.6480  141.5330 C   0  0  0  0  0  0  0  0  0  0  0  0
  192.1690  177.1770  140.2990 O   0  0  0  0  0  0  0  0  0  0  0  0
  187.6640  178.1190  138.4940 C   0  0  0  0  0  0  0  0  0  0  0  0
  189.9170  177.7230  140.0740 N   0  0  0  0  0  0  0  0  0  0  0  0
  185.0980  178.6680  139.6520 C   0  0  0  0  0  0  0  0  0  0  0  0
  184.6990  178.1170  142.3810 C   0  0  0  0  0  3  0  0  0  0  0  0
  182.2560  178.8840  142.1380 C   0  0  0  0  0  1  0  0  0  0  0  0
  186.2840  178.7420  140.5920 C   0  0  0  0  0  0  0  0  0  0  0  0
  183.7600  178.8490  140.2360 C   0  0  0  0  0  2  0  0  0  0  0  0
  185.9510  178.0960  141.9280 C   0  0  0  0  0  3  0  0  0  0  0  0
  188.6730  178.0840  140.6980 C   0  0  0  0  0  3  0  0  0  0  0  0
  187.5710  178.2550  139.9640 C   0  0  0  0  0  0  0  0  0  0  0  0
  186.5680  178.2540  137.7390 C   0  0  0  0  0  3  0  0  0  0  0  0
  188.9860  177.8240  137.8920 C   0  0  0  0  0  0  0  0  0  0  0  0
  190.0130  177.6330  138.6700 N   0  0  0  0  0  0  0  0  0  0  0  0
  185.2440  178.4980  138.3410 C   0  0  0  0  0  3  0  0  0  0  0  0
  190.9790  177.4950  142.2920 N   0  0  0  0  0  0  0  0  0  0  0  0
  191.2070  176.4540  143.0220 C   0  0  0  0  0  3  0  0  0  0  0  0
  191.6470  175.2800  145.1490 C   0  0  0  0  0  2  0  0  0  0  0  0
  189.6790  176.7170  144.8580 N   0  0  1  0  0  0  0  0  0  0  0  0
  190.3900  176.6780  147.4560 C   0  0  0  0  0  2  0  0  0  0  0  0
  191.0840  176.5360  144.5010 C   0  0  2  0  0  3  0  0  0  0  0  0
  192.4300  175.6320  146.4120 C   0  0  0  0  0  2  0  0  0  0  0  0
  189.3750  176.9080  146.3070 C   0  0  1  0  0  0  0  0  0  0  0  0
  189.5980  178.0680  145.4630 C   0  0  0  0  0  2  0  0  0  0  0  0
  191.8720  176.8520  147.1410 C   0  0  0  0  0  2  0  0  0  0  0  0
  188.0130  176.7480  146.6210 O   0  0  0  0  0  0  0  0  0  0  0  0
  187.3980  177.9820  146.3560 C   0  0  2  0  0  3  0  0  0  0  0  0
  184.0220  179.0000  145.7730 N   0  0  0  0  0  1  0  0  0  0  0  0
  185.6800  179.2430  147.5030 C   0  0  0  0  0  2  0  0  0  0  0  0
  185.0010  178.2900  146.5520 C   0  0  2  0  0  3  0  0  0  0  0  0
  187.0730  178.6910  147.6620 C   0  0  0  0  0  2  0  0  0  0  0  0
  186.0830  177.7480  145.6450 C   0  0  0  0  0  2  0  0  0  0  0  0
  189.1640  177.7000  136.4220 C   0  0  0  0  0  2  0  0  0  0  0  0
  191.0640  174.9340  134.8750 C   0  0  0  0  0  2  0  0  0  0  0  0
  189.9560  173.9890  134.7710 N   0  0  0  0  0  0  0  0  0  0  0  0
  189.4130  171.7300  134.6190 O   0  0  0  0  0  0  0  0  0  0  0  0
  188.3120  175.8240  135.3190 C   0  0  0  0  0  2  0  0  0  0  0  0
  190.5800  176.3570  135.1330 C   0  0  0  0  0  2  0  0  0  0  0  0
  189.4670  176.3250  136.0650 N   0  0  0  0  0  0  0  0  0  0  0  0
  190.3020  172.6140  134.7340 C   0  0  0  0  0  3  0  0  0  0  0  0
  188.5280  174.3730  134.8700 C   0  0  0  0  0  2  0  0  0  0  0  0
  1 18  1  0  0  0  0
  2  8  1  0  0  0  0
  2  7  2  0  0  0  0
  3  1  2  0  0  0  0
  4 13  1  0  0  0  0
  5 12  1  0  0  0  0
  5  1  1  0  0  0  0
  6 10  1  0  0  0  0
  6  9  1  0  0  0  0
  9 11  2  0  0  0  0
 10  2  1  0  0  0  0
 11  7  1  0  0  0  0
 13  9  1  0  0  0  0
 13 12  2  0  0  0  0
 14 17  1  0  0  0  0
 14  4  2  0  0  0  0
 15  4  1  0  0  0  0
 15 16  2  0  0  0  0
 16  5  1  0  0  0  0
 17  6  2  0  0  0  0
 18 19  2  0  0  0  0
 20 24  1  0  0  0  0
 21 26  1  6  0  0  0
 21 25  1  0  0  0  0
 23 19  1  6  0  0  0
 23 21  1  0  0  0  0
 23 20  1  0  0  0  0
 24 27  1  0  0  0  0
 25 28  1  1  0  0  0
 25 22  1  0  0  0  0
 26 25  1  0  0  0  0
 27 22  1  0  0  0  0
 29 28  1  1  0  0  0
 29 33  1  0  0  0  0
 31 33  1  0  0  0  0
 32 30  1  6  0  0  0
 32 31  1  0  0  0  0
 34 29  1  0  0  0  0
 34 32  1  0  0  0  0
 35 15  1  0  0  0  0
 36 40  1  0  0  0  0
 37 43  1  0  0  0  0
 37 36  1  0  0  0  0
 38 42  2  0  0  0  0
 39 41  1  0  0  0  0
 40 41  1  0  0  0  0
 41 35  1  0  0  0  0
 42 37  1  0  0  0  0
 43 39  1  0  0  0  0
M  END
>  <MODEL>
4

>  <REMARK>
 VINA RESULT:     -10.5      4.054      6.908
  Name = 
  6 active torsions:
  status: ('A' for Active; 'I' for Inactive)
    1  A    between atoms: C_1  and  C_34
    2  A    between atoms: C_1  and  N_35
    3  A    between atoms: C_2  and  N_6
    4  A    between atoms: C_11  and  O_14
    5  A    between atoms: C_12  and  C_17
    6  A    between atoms: O_14  and  C_22
                            x       y       z     vdW  Elec       q    Type
                         _______ _______ _______ _____ _____    ______ ____

>  <TORSDO>
F 6

$$$$
=
 OpenBabel11052416333D

 43 49  0  0  1  0  0  0  0  0999 V2000
  185.1880  178.6620  139.6610 C   0  0  0  0  0  0  0  0  0  0  0  0
  190.2980  176.7640  144.9600 C   0  0  0  0  0  0  0  0  0  0  0  0
  184.0510  178.9110  139.1650 O   0  0  0  0  0  0  0  0  0  0  0  0
  185.5550  178.2860  143.8330 C   0  0  0  0  0  0  0  0  0  0  0  0
  185.3360  178.5700  141.0760 N   0  0  0  0  0  0  0  0  0  0  0  0
  188.0540  177.6300  145.0790 C   0  0  0  0  0  0  0  0  0  0  0  0
  190.1260  176.5860  143.4910 C   0  0  0  0  0  3  0  0  0  0  0  0
  191.5840  176.3760  145.5990 C   0  0  0  0  0  1  0  0  0  0  0  0
  188.1200  178.0230  143.6180 C   0  0  1  0  0  3  0  0  0  0  0  0
  189.3050  177.1950  145.7200 C   0  0  0  0  0  3  0  0  0  0  0  0
  189.0790  177.1150  142.8620 C   0  0  0  0  0  3  0  0  0  0  0  0
  186.6290  178.3300  141.6600 C   0  0  0  0  0  3  0  0  0  0  0  0
  186.7560  178.1640  142.9790 C   0  0  0  0  0  0  0  0  0  0  0  0
  185.6510  178.0920  145.1530 C   0  0  0  0  0  3  0  0  0  0  0  0
  184.2590  178.6130  143.1920 C   0  0  0  0  0  0  0  0  0  0  0  0
  184.2000  178.7250  141.8960 N   0  0  0  0  0  0  0  0  0  0  0  0
  186.9300  177.7180  145.7860 C   0  0  0  0  0  3  0  0  0  0  0  0
  186.3230  178.4570  138.8150 N   0  0  0  0  0  0  0  0  0  0  0  0
  186.3800  177.4830  137.9690 C   0  0  0  0  0  3  0  0  0  0  0  0
  187.3170  176.2690  136.0330 C   0  0  0  0  0  2  0  0  0  0  0  0
  188.7090  176.8900  137.9570 N   0  0  1  0  0  0  0  0  0  0  0  0
  190.2400  176.7500  135.7450 C   0  0  0  0  0  2  0  0  0  0  0  0
  187.5860  177.3010  137.1180 C   0  0  2  0  0  3  0  0  0  0  0  0
  187.9440  176.7040  134.7110 C   0  0  0  0  0  2  0  0  0  0  0  0
  190.0320  176.7440  137.2810 C   0  0  1  0  0  0  0  0  0  0  0  0
  189.6770  178.0110  137.8950 C   0  0  0  0  0  2  0  0  0  0  0  0
  189.2280  177.5080  134.8930 C   0  0  0  0  0  2  0  0  0  0  0  0
  190.9800  176.0430  138.0480 O   0  0  0  0  0  0  0  0  0  0  0  0
  191.9830  175.6290  137.1570 C   0  0  2  0  0  3  0  0  0  0  0  0
  195.5260  175.2420  137.4120 N   0  0  0  0  0  1  0  0  0  0  0  0
  193.5910  173.8220  137.2180 C   0  0  0  0  0  2  0  0  0  0  0  0
  194.2000  175.0100  137.9180 C   0  0  2  0  0  3  0  0  0  0  0  0
  192.1140  174.1130  137.1920 C   0  0  0  0  0  2  0  0  0  0  0  0
  193.3150  176.1940  137.5990 C   0  0  0  0  0  2  0  0  0  0  0  0
  183.0150  178.7770  143.9860 C   0  0  0  0  0  2  0  0  0  0  0  0
  179.6620  180.1260  143.2140 C   0  0  0  0  0  2  0  0  0  0  0  0
  179.7600  180.0320  141.7600 N   0  0  0  0  0  0  0  0  0  0  0  0
  178.9410  180.8900  139.7560 O   0  0  0  0  0  0  0  0  0  0  0  0
  181.8440  178.6230  141.9700 C   0  0  0  0  0  2  0  0  0  0  0  0
  180.7360  179.2990  143.9140 C   0  0  0  0  0  2  0  0  0  0  0  0
  181.9880  179.4220  143.1880 N   0  0  0  0  0  0  0  0  0  0  0  0
  178.9410  180.9190  141.0150 C   0  0  0  0  0  3  0  0  0  0  0  0
  180.7630  179.2040  141.0490 C   0  0  0  0  0  2  0  0  0  0  0  0
  1  5  1  0  0  0  0
  2  8  1  0  0  0  0
  2 10  2  0  0  0  0
  3  1  2  0  0  0  0
  4 14  2  0  0  0  0
  5 12  1  0  0  0  0
  5 16  1  0  0  0  0
  6 10  1  0  0  0  0
  6 17  2  0  0  0  0
  7  2  1  0  0  0  0
  9 11  1  6  0  0  0
  9  6  1  0  0  0  0
 11  7  2  0  0  0  0
 12 13  2  0  0  0  0
 13  9  1  0  0  0  0
 13  4  1  0  0  0  0
 14 17  1  0  0  0  0
 15  4  1  0  0  0  0
 15 35  1  0  0  0  0
 16 15  2  0  0  0  0
 18  1  1  0  0  0  0
 19 18  2  0  0  0  0
 20 23  1  0  0  0  0
 21 26  1  1  0  0  0
 22 25  1  0  0  0  0
 23 21  1  0  0  0  0
 23 19  1  1  0  0  0
 24 27  1  0  0  0  0
 24 20  1  0  0  0  0
 25 26  1  0  0  0  0
 25 21  1  0  0  0  0
 25 28  1  1  0  0  0
 27 22  1  0  0  0  0
 29 33  1  0  0  0  0
 29 34  1  0  0  0  0
 29 28  1  1  0  0  0
 31 32  1  0  0  0  0
 32 30  1  6  0  0  0
 33 31  1  0  0  0  0
 34 32  1  0  0  0  0
 36 40  1  0  0  0  0
 37 36  1  0  0  0  0
 38 42  2  0  0  0  0
 39 41  1  0  0  0  0
 41 40  1  0  0  0  0
 41 35  1  0  0  0  0
 42 37  1  0  0  0  0
 43 37  1  0  0  0  0
 43 39  1  0  0  0  0
M  END
>  <MODEL>
5

>  <REMARK>
 VINA RESULT:     -10.2      3.056      5.858
  Name = 
  6 active torsions:
  status: ('A' for Active; 'I' for Inactive)
    1  A    between atoms: C_1  and  C_34
    2  A    between atoms: C_1  and  N_35
    3  A    between atoms: C_2  and  N_6
    4  A    between atoms: C_11  and  O_14
    5  A    between atoms: C_12  and  C_17
    6  A    between atoms: O_14  and  C_22
                            x       y       z     vdW  Elec       q    Type
                         _______ _______ _______ _____ _____    ______ ____

>  <TORSDO>
F 6

$$$$
=
 OpenBabel11052416333D

 43 49  0  0  1  0  0  0  0  0999 V2000
  184.7020  177.6700  137.8740 C   0  0  0  0  0  0  0  0  0  0  0  0
  185.1060  178.7590  145.3870 C   0  0  0  0  0  0  0  0  0  0  0  0
  184.1690  177.4340  136.7510 O   0  0  0  0  0  0  0  0  0  0  0  0
  182.2250  178.4500  141.1820 C   0  0  0  0  0  0  0  0  0  0  0  0
  183.8770  177.9750  138.9970 N   0  0  0  0  0  0  0  0  0  0  0  0
  183.2990  178.9060  143.8020 C   0  0  0  0  0  0  0  0  0  0  0  0
  185.9680  178.1860  144.3150 C   0  0  0  0  0  3  0  0  0  0  0  0
  185.6650  178.9480  146.7530 C   0  0  0  0  0  1  0  0  0  0  0  0
  184.2930  178.9320  142.6590 C   0  0  1  0  0  3  0  0  0  0  0  0
  183.8330  179.0410  145.1670 C   0  0  0  0  0  3  0  0  0  0  0  0
  185.5710  178.2030  143.0450 C   0  0  0  0  0  3  0  0  0  0  0  0
  184.4660  178.2870  140.2710 C   0  0  0  0  0  3  0  0  0  0  0  0
  183.6950  178.4940  141.3410 C   0  0  0  0  0  0  0  0  0  0  0  0
  181.4320  178.6220  142.2450 C   0  0  0  0  0  3  0  0  0  0  0  0
  181.6660  178.2030  139.8320 C   0  0  0  0  0  0  0  0  0  0  0  0
  182.4760  177.9720  138.8380 N   0  0  0  0  0  0  0  0  0  0  0  0
  181.9880  178.8180  143.5970 C   0  0  0  0  0  3  0  0  0  0  0  0
  186.1220  177.6200  138.0310 N   0  0  0  0  0  0  0  0  0  0  0  0
  186.8530  176.7660  137.3950 C   0  0  0  0  0  3  0  0  0  0  0  0
  188.8280  175.3060  137.6510 C   0  0  0  0  0  2  0  0  0  0  0  0
  188.6510  177.4490  138.8350 N   0  0  1  0  0  0  0  0  0  0  0  0
  191.2470  176.8570  138.4250 C   0  0  0  0  0  2  0  0  0  0  0  0
  188.3250  176.7410  137.5990 C   0  0  2  0  0  3  0  0  0  0  0  0
  190.1520  175.1730  136.9040 C   0  0  0  0  0  2  0  0  0  0  0  0
  190.1010  177.6000  139.1580 C   0  0  1  0  0  0  0  0  0  0  0  0
  189.4200  178.6440  138.4110 C   0  0  0  0  0  2  0  0  0  0  0  0
  191.0100  176.4340  136.9790 C   0  0  0  0  0  2  0  0  0  0  0  0
  190.3430  177.9860  140.4880 O   0  0  0  0  0  0  0  0  0  0  0  0
  190.2850  176.8140  141.2580 C   0  0  2  0  0  3  0  0  0  0  0  0
  191.7690  175.7950  144.3460 N   0  0  0  0  0  1  0  0  0  0  0  0
  189.5780  176.3720  143.5300 C   0  0  0  0  0  2  0  0  0  0  0  0
  191.0360  176.7540  143.5630 C   0  0  2  0  0  3  0  0  0  0  0  0
  189.0870  176.8650  142.1940 C   0  0  0  0  0  2  0  0  0  0  0  0
  191.5190  176.7220  142.1300 C   0  0  0  0  0  2  0  0  0  0  0  0
  180.2010  178.1700  139.5880 C   0  0  0  0  0  2  0  0  0  0  0  0
  179.1490  174.6480  139.9680 C   0  0  0  0  0  2  0  0  0  0  0  0
  179.5920  174.1840  138.6560 N   0  0  0  0  0  0  0  0  0  0  0  0
  179.2650  172.5570  137.0230 O   0  0  0  0  0  0  0  0  0  0  0  0
  180.8650  176.3350  138.3030 C   0  0  0  0  0  2  0  0  0  0  0  0
  179.7580  175.9980  140.3330 C   0  0  0  0  0  2  0  0  0  0  0  0
  179.7910  176.8460  139.1550 N   0  0  0  0  0  0  0  0  0  0  0  0
  178.9310  173.0430  138.1350 C   0  0  0  0  0  3  0  0  0  0  0  0
  180.5480  174.9220  137.7970 C   0  0  0  0  0  2  0  0  0  0  0  0
  1 18  1  0  0  0  0
  1  5  1  0  0  0  0
  2  8  1  0  0  0  0
  3  1  2  0  0  0  0
  4 13  1  0  0  0  0
  4 14  2  0  0  0  0
  5 12  1  0  0  0  0
  6 10  1  0  0  0  0
  7  2  1  0  0  0  0
  9 11  1  1  0  0  0
  9  6  1  0  0  0  0
 10  2  2  0  0  0  0
 11  7  2  0  0  0  0
 12 13  2  0  0  0  0
 13  9  1  0  0  0  0
 14 17  1  0  0  0  0
 15  4  1  0  0  0  0
 16  5  1  0  0  0  0
 16 15  2  0  0  0  0
 17  6  2  0  0  0  0
 19 18  2  0  0  0  0
 21 26  1  6  0  0  0
 21 25  1  0  0  0  0
 22 25  1  0  0  0  0
 23 19  1  1  0  0  0
 23 20  1  0  0  0  0
 23 21  1  0  0  0  0
 24 27  1  0  0  0  0
 24 20  1  0  0  0  0
 25 28  1  1  0  0  0
 26 25  1  0  0  0  0
 27 22  1  0  0  0  0
 29 28  1  1  0  0  0
 29 34  1  0  0  0  0
 29 33  1  0  0  0  0
 31 32  1  0  0  0  0
 32 30  1  1  0  0  0
 33 31  1  0  0  0  0
 34 32  1  0  0  0  0
 35 15  1  0  0  0  0
 36 40  1  0  0  0  0
 37 36  1  0  0  0  0
 38 42  2  0  0  0  0
 39 41  1  0  0  0  0
 41 35  1  0  0  0  0
 41 40  1  0  0  0  0
 42 37  1  0  0  0  0
 43 39  1  0  0  0  0
 43 37  1  0  0  0  0
M  END
>  <MODEL>
6

>  <REMARK>
 VINA RESULT:      -9.6      2.857      4.201
  Name = 
  6 active torsions:
  status: ('A' for Active; 'I' for Inactive)
    1  A    between atoms: C_1  and  C_34
    2  A    between atoms: C_1  and  N_35
    3  A    between atoms: C_2  and  N_6
    4  A    between atoms: C_11  and  O_14
    5  A    between atoms: C_12  and  C_17
    6  A    between atoms: O_14  and  C_22
                            x       y       z     vdW  Elec       q    Type
                         _______ _______ _______ _____ _____    ______ ____

>  <TORSDO>
F 6

$$$$
=
 OpenBabel11052416333D

 43 49  0  0  1  0  0  0  0  0999 V2000
  186.7490  178.4910  138.3150 C   0  0  0  0  0  0  0  0  0  0  0  0
  185.9310  178.2520  145.8690 C   0  0  0  0  0  0  0  0  0  0  0  0
  187.3500  178.5280  137.2020 O   0  0  0  0  0  0  0  0  0  0  0  0
  188.9650  177.6940  141.7990 C   0  0  0  0  0  0  0  0  0  0  0  0
  187.4800  178.1830  139.5000 N   0  0  0  0  0  0  0  0  0  0  0  0
  187.7470  177.6750  144.3960 C   0  0  0  0  0  0  0  0  0  0  0  0
  185.2040  178.8340  144.7060 C   0  0  0  0  0  3  0  0  0  0  0  0
  185.3050  178.2900  147.2180 C   0  0  0  0  0  1  0  0  0  0  0  0
  186.7990  177.6800  143.2140 C   0  0  1  0  0  3  0  0  0  0  0  0
  187.1530  177.7620  145.7390 C   0  0  0  0  0  3  0  0  0  0  0  0
  185.6360  178.6280  143.4640 C   0  0  0  0  0  3  0  0  0  0  0  0
  186.8070  178.0950  140.7680 C   0  0  0  0  0  3  0  0  0  0  0  0
  187.5010  177.8860  141.8900 C   0  0  0  0  0  0  0  0  0  0  0  0
  189.6860  177.5160  142.9110 C   0  0  0  0  0  3  0  0  0  0  0  0
  189.6010  177.7140  140.4600 C   0  0  0  0  0  0  0  0  0  0  0  0
  188.8690  177.9600  139.4110 N   0  0  0  0  0  0  0  0  0  0  0  0
  189.0620  177.5440  144.2470 C   0  0  0  0  0  3  0  0  0  0  0  0
  185.3490  178.7690  138.3970 N   0  0  0  0  0  0  0  0  0  0  0  0
  184.4570  177.9100  138.0300 C   0  0  0  0  0  3  0  0  0  0  0  0
  182.3060  177.9030  136.8180 C   0  0  0  0  0  2  0  0  0  0  0  0
  182.8680  179.6680  138.4280 N   0  0  1  0  0  0  0  0  0  0  0  0
  180.1940  179.3650  138.3200 C   0  0  0  0  0  2  0  0  0  0  0  0
  183.0120  178.2470  138.1200 C   0  0  2  0  0  3  0  0  0  0  0  0
  180.9350  177.2930  137.0940 C   0  0  0  0  0  2  0  0  0  0  0  0
  181.4790  180.1700  138.6430 C   0  0  1  0  0  0  0  0  0  0  0  0
  182.2610  179.7180  139.7800 C   0  0  0  0  0  2  0  0  0  0  0  0
  180.2790  177.8430  138.3590 C   0  0  0  0  0  2  0  0  0  0  0  0
  181.3760  181.5720  138.6070 O   0  0  0  0  0  0  0  0  0  0  0  0
  180.3200  181.8700  137.7310 C   0  0  2  0  0  3  0  0  0  0  0  0
  178.9800  184.9030  136.3980 N   0  0  0  0  0  1  0  0  0  0  0  0
  180.2260  183.0050  135.5960 C   0  0  0  0  0  2  0  0  0  0  0  0
  180.0980  184.0440  136.6800 C   0  0  2  0  0  3  0  0  0  0  0  0
  180.8050  181.8010  136.2910 C   0  0  0  0  0  2  0  0  0  0  0  0
  179.8530  183.2900  137.9680 C   0  0  0  0  0  2  0  0  0  0  0  0
  191.0610  177.5030  140.2860 C   0  0  0  0  0  2  0  0  0  0  0  0
  190.8170  175.4110  137.2490 C   0  0  0  0  0  2  0  0  0  0  0  0
  192.1200  175.7540  136.6880 N   0  0  0  0  0  0  0  0  0  0  0  0
  193.3520  175.8670  134.7150 O   0  0  0  0  0  0  0  0  0  0  0  0
  192.7930  176.8440  138.8620 C   0  0  0  0  0  2  0  0  0  0  0  0
  190.7060  175.8030  138.7190 C   0  0  0  0  0  2  0  0  0  0  0  0
  191.3510  177.0870  138.9250 N   0  0  0  0  0  0  0  0  0  0  0  0
  192.2560  175.6190  135.2830 C   0  0  0  0  0  3  0  0  0  0  0  0
  193.2180  176.3780  137.4640 C   0  0  0  0  0  2  0  0  0  0  0  0
  1 18  1  0  0  0  0
  1  5  1  0  0  0  0
  2  8  1  0  0  0  0
  3  1  2  0  0  0  0
  4 13  1  0  0  0  0
  4 14  2  0  0  0  0
  5 12  1  0  0  0  0
  6 10  1  0  0  0  0
  7  2  1  0  0  0  0
  9 11  1  1  0  0  0
  9  6  1  0  0  0  0
 10  2  2  0  0  0  0
 11  7  2  0  0  0  0
 12 13  2  0  0  0  0
 13  9  1  0  0  0  0
 14 17  1  0  0  0  0
 15  4  1  0  0  0  0
 16  5  1  0  0  0  0
 16 15  2  0  0  0  0
 17  6  2  0  0  0  0
 19 18  2  0  0  0  0
 20 24  1  0  0  0  0
 20 23  1  0  0  0  0
 21 25  1  0  0  0  0
 21 26  1  1  0  0  0
 22 27  1  0  0  0  0
 22 25  1  0  0  0  0
 23 19  1  6  0  0  0
 23 21  1  0  0  0  0
 24 27  1  0  0  0  0
 25 28  1  6  0  0  0
 25 26  1  0  0  0  0
 29 34  1  0  0  0  0
 29 28  1  1  0  0  0
 31 33  1  0  0  0  0
 31 32  1  0  0  0  0
 32 30  1  6  0  0  0
 32 34  1  0  0  0  0
 33 29  1  0  0  0  0
 35 15  1  0  0  0  0
 36 40  1  0  0  0  0
 37 36  1  0  0  0  0
 37 43  1  0  0  0  0
 38 42  2  0  0  0  0
 39 41  1  0  0  0  0
 40 41  1  0  0  0  0
 41 35  1  0  0  0  0
 42 37  1  0  0  0  0
 43 39  1  0  0  0  0
M  END
>  <MODEL>
7

>  <REMARK>
 VINA RESULT:      -9.5      2.516      9.744
  Name = 
  6 active torsions:
  status: ('A' for Active; 'I' for Inactive)
    1  A    between atoms: C_1  and  C_34
    2  A    between atoms: C_1  and  N_35
    3  A    between atoms: C_2  and  N_6
    4  A    between atoms: C_11  and  O_14
    5  A    between atoms: C_12  and  C_17
    6  A    between atoms: O_14  and  C_22
                            x       y       z     vdW  Elec       q    Type
                         _______ _______ _______ _____ _____    ______ ____

>  <TORSDO>
F 6

$$$$
=
 OpenBabel11052416333D

 43 49  0  0  1  0  0  0  0  0999 V2000
  189.5020  177.7060  140.3320 C   0  0  0  0  0  0  0  0  0  0  0  0
  183.2810  177.2660  135.9840 C   0  0  0  0  0  0  0  0  0  0  0  0
  190.7100  177.5410  140.6690 O   0  0  0  0  0  0  0  0  0  0  0  0
  188.3570  176.8640  136.3740 C   0  0  0  0  0  0  0  0  0  0  0  0
  189.1060  177.4630  138.9840 N   0  0  0  0  0  0  0  0  0  0  0  0
  185.6350  177.1050  135.5020 C   0  0  0  0  0  0  0  0  0  0  0  0
  183.6030  177.2670  137.4390 C   0  0  0  0  0  3  0  0  0  0  0  0
  181.8610  177.3460  135.5480 C   0  0  0  0  0  1  0  0  0  0  0  0
  185.9610  177.7140  136.8510 C   0  0  0  0  0  0  0  0  0  0  0  0
  184.2280  177.1270  135.0710 C   0  0  0  0  0  2  0  0  0  0  0  0
  184.8590  177.4110  137.8550 C   0  0  0  0  0  3  0  0  0  0  0  0
  187.7460  177.6850  138.5720 C   0  0  0  0  0  3  0  0  0  0  0  0
  187.3560  177.3820  137.3310 C   0  0  0  0  0  0  0  0  0  0  0  0
  187.9840  176.5230  135.1360 C   0  0  0  0  0  3  0  0  0  0  0  0
  189.7630  176.7270  136.8230 C   0  0  0  0  0  0  0  0  0  0  0  0
  190.0670  177.0060  138.0590 N   0  0  0  0  0  0  0  0  0  0  0  0
  186.5770  176.6120  134.7030 C   0  0  0  0  0  3  0  0  0  0  0  0
  188.5280  178.1210  141.2930 N   0  0  0  0  0  0  0  0  0  0  0  0
  188.1540  177.3550  142.2640 C   0  0  0  0  0  3  0  0  0  0  0  0
  187.1710  176.9800  144.4980 C   0  0  0  0  0  2  0  0  0  0  0  0
  185.8090  177.7510  142.6070 N   0  0  1  0  0  0  0  0  0  0  0  0
  184.7280  178.6280  144.9140 C   0  0  0  0  0  2  0  0  0  0  0  0
  187.1270  177.8230  143.2320 C   0  0  2  0  0  3  0  0  0  0  0  0
  186.9810  177.8560  145.7340 C   0  0  0  0  0  2  0  0  0  0  0  0
  184.6590  178.2670  143.4080 C   0  0  1  0  0  0  0  0  0  0  0  0
  185.3510  179.1570  142.4930 C   0  0  0  0  0  2  0  0  0  0  0  0
  186.0760  179.0590  145.4810 C   0  0  0  0  0  2  0  0  0  0  0  0
  183.4040  177.8780  142.9050 O   0  0  0  0  0  0  0  0  0  0  0  0
  182.6190  179.0400  142.8570 C   0  0  2  0  0  3  0  0  0  0  0  0
  179.7780  180.0400  140.9330 N   0  0  0  0  0  1  0  0  0  0  0  0
  180.2600  179.4460  143.2170 C   0  0  0  0  0  2  0  0  0  0  0  0
  180.4540  179.0820  141.7670 C   0  0  2  0  0  3  0  0  0  0  0  0
  181.5130  178.9630  143.8990 C   0  0  0  0  0  2  0  0  0  0  0  0
  181.9430  179.1370  141.5070 C   0  0  0  0  0  2  0  0  0  0  0  0
  190.8300  176.2390  135.9120 C   0  0  0  0  0  2  0  0  0  0  0  0
  194.3670  175.7440  136.8620 C   0  0  0  0  0  2  0  0  0  0  0  0
  194.1990  174.4500  137.5160 N   0  0  0  0  0  0  0  0  0  0  0  0
  195.1140  173.0020  139.0940 O   0  0  0  0  0  0  0  0  0  0  0  0
  191.8660  174.2520  136.5730 C   0  0  0  0  0  2  0  0  0  0  0  0
  193.1640  176.1090  135.9980 C   0  0  0  0  0  2  0  0  0  0  0  0
  191.9440  175.7100  136.6780 N   0  0  0  0  0  0  0  0  0  0  0  0
  195.1650  174.1100  138.4980 C   0  0  0  0  0  3  0  0  0  0  0  0
  193.0140  173.5780  137.3350 C   0  0  0  0  0  2  0  0  0  0  0  0
  1  3  2  0  0  0  0
  1 18  1  0  0  0  0
  2  7  2  0  0  0  0
  4 15  1  0  0  0  0
  4 13  1  0  0  0  0
  5  1  1  0  0  0  0
  6  9  1  0  0  0  0
  7 11  1  0  0  0  0
  8  2  1  0  0  0  0
  9 13  1  0  0  0  0
  9 11  2  0  0  0  0
 10  6  1  0  0  0  0
 10  2  1  0  0  0  0
 12  5  1  0  0  0  0
 13 12  2  0  0  0  0
 14  4  2  0  0  0  0
 15 16  2  0  0  0  0
 16  5  1  0  0  0  0
 17 14  1  0  0  0  0
 17  6  2  0  0  0  0
 18 19  2  0  0  0  0
 20 24  1  0  0  0  0
 21 26  1  6  0  0  0
 21 23  1  0  0  0  0
 21 25  1  0  0  0  0
 22 27  1  0  0  0  0
 23 19  1  6  0  0  0
 23 20  1  0  0  0  0
 25 28  1  6  0  0  0
 25 22  1  0  0  0  0
 26 25  1  0  0  0  0
 27 24  1  0  0  0  0
 29 28  1  6  0  0  0
 29 33  1  0  0  0  0
 31 33  1  0  0  0  0
 32 30  1  6  0  0  0
 32 31  1  0  0  0  0
 34 32  1  0  0  0  0
 34 29  1  0  0  0  0
 35 41  1  0  0  0  0
 35 15  1  0  0  0  0
 36 37  1  0  0  0  0
 37 42  1  0  0  0  0
 39 41  1  0  0  0  0
 39 43  1  0  0  0  0
 40 41  1  0  0  0  0
 40 36  1  0  0  0  0
 42 38  2  0  0  0  0
 43 37  1  0  0  0  0
M  END
>  <MODEL>
8

>  <REMARK>
 VINA RESULT:      -9.4      3.464      9.541
  Name = 
  6 active torsions:
  status: ('A' for Active; 'I' for Inactive)
    1  A    between atoms: C_1  and  C_34
    2  A    between atoms: C_1  and  N_35
    3  A    between atoms: C_2  and  N_6
    4  A    between atoms: C_11  and  O_14
    5  A    between atoms: C_12  and  C_17
    6  A    between atoms: O_14  and  C_22
                            x       y       z     vdW  Elec       q    Type
                         _______ _______ _______ _____ _____    ______ ____

>  <TORSDO>
F 6

$$$$
=
 OpenBabel11052416333D

 43 49  0  0  1  0  0  0  0  0999 V2000
  187.5920  178.2680  138.8350 C   0  0  0  0  0  0  0  0  0  0  0  0
  188.8200  177.2200  146.2640 C   0  0  0  0  0  0  0  0  0  0  0  0
  187.8740  178.4320  137.6120 O   0  0  0  0  0  0  0  0  0  0  0  0
  190.6480  177.1430  141.4960 C   0  0  0  0  0  0  0  0  0  0  0  0
  188.6090  177.8480  139.7420 N   0  0  0  0  0  0  0  0  0  0  0  0
  190.1670  176.8300  144.3060 C   0  0  0  0  0  0  0  0  0  0  0  0
  187.8150  177.9100  145.4060 C   0  0  0  0  0  3  0  0  0  0  0  0
  188.5770  177.1060  147.7270 C   0  0  0  0  0  1  0  0  0  0  0  0
  188.9390  176.9450  143.4280 C   0  0  1  0  0  3  0  0  0  0  0  0
  189.9560  176.7660  145.7610 C   0  0  0  0  0  3  0  0  0  0  0  0
  187.8970  177.8430  144.0790 C   0  0  0  0  0  3  0  0  0  0  0  0
  188.2990  177.6160  141.1270 C   0  0  0  0  0  3  0  0  0  0  0  0
  189.2640  177.3010  141.9940 C   0  0  0  0  0  0  0  0  0  0  0  0
  191.6370  176.8590  142.3490 C   0  0  0  0  0  3  0  0  0  0  0  0
  190.9030  177.3140  140.0460 C   0  0  0  0  0  0  0  0  0  0  0  0
  189.9210  177.6580  139.2620 N   0  0  0  0  0  0  0  0  0  0  0  0
  191.3940  176.7370  143.7990 C   0  0  0  0  0  3  0  0  0  0  0  0
  186.2690  178.5130  139.3170 N   0  0  0  0  0  0  0  0  0  0  0  0
  185.2210  178.2260  138.6190 C   0  0  0  0  0  3  0  0  0  0  0  0
  183.0570  177.2260  139.2660 C   0  0  0  0  0  2  0  0  0  0  0  0
  183.1930  179.4690  138.2790 N   0  0  1  0  0  0  0  0  0  0  0  0
  181.0190  179.3100  139.8610 C   0  0  0  0  0  2  0  0  0  0  0  0
  183.8640  178.5110  139.1550 C   0  0  2  0  0  3  0  0  0  0  0  0
  182.2360  177.2170  140.5530 C   0  0  0  0  0  2  0  0  0  0  0  0
  181.8440  179.9410  138.7110 C   0  0  1  0  0  0  0  0  0  0  0  0
  183.0240  180.6960  139.0950 C   0  0  0  0  0  2  0  0  0  0  0  0
  181.7790  178.6090  140.9810 C   0  0  0  0  0  2  0  0  0  0  0  0
  181.1220  180.5880  137.6920 O   0  0  0  0  0  0  0  0  0  0  0  0
  180.6370  181.7830  138.2470 C   0  0  2  0  0  3  0  0  0  0  0  0
  180.4610  185.1630  137.1000 N   0  0  0  0  0  1  0  0  0  0  0  0
  178.9360  183.3520  137.5400 C   0  0  0  0  0  2  0  0  0  0  0  0
  180.2370  183.7570  136.8970 C   0  0  2  0  0  3  0  0  0  0  0  0
  179.1490  181.9220  137.9610 C   0  0  0  0  0  2  0  0  0  0  0  0
  181.3220  182.9600  137.5880 C   0  0  0  0  0  2  0  0  0  0  0  0
  192.2600  177.1460  139.4660 C   0  0  0  0  0  2  0  0  0  0  0  0
  193.8000  174.3550  137.5960 C   0  0  0  0  0  2  0  0  0  0  0  0
  192.7440  174.2020  136.5980 N   0  0  0  0  0  0  0  0  0  0  0  0
  191.7650  172.7080  135.1060 O   0  0  0  0  0  0  0  0  0  0  0  0
  191.7110  176.3870  137.3250 C   0  0  0  0  0  2  0  0  0  0  0  0
  193.6960  175.6820  138.3390 C   0  0  0  0  0  2  0  0  0  0  0  0
  192.2990  175.9790  138.6030 N   0  0  0  0  0  0  0  0  0  0  0  0
  192.6280  172.9240  135.9950 C   0  0  0  0  0  3  0  0  0  0  0  0
  191.7150  175.2310  136.3180 C   0  0  0  0  0  2  0  0  0  0  0  0
  1 18  1  0  0  0  0
  1  5  1  0  0  0  0
  2  8  1  0  0  0  0
  3  1  2  0  0  0  0
  4 13  1  0  0  0  0
  4 14  2  0  0  0  0
  5 12  1  0  0  0  0
  6 10  1  0  0  0  0
  7  2  1  0  0  0  0
  9 11  1  1  0  0  0
  9  6  1  0  0  0  0
 10  2  2  0  0  0  0
 11  7  2  0  0  0  0
 12 13  2  0  0  0  0
 13  9  1  0  0  0  0
 14 17  1  0  0  0  0
 15  4  1  0  0  0  0
 16  5  1  0  0  0  0
 16 15  2  0  0  0  0
 17  6  2  0  0  0  0
 19 18  2  0  0  0  0
 20 24  1  0  0  0  0
 21 25  1  0  0  0  0
 21 26  1  1  0  0  0
 21 23  1  0  0  0  0
 22 27  1  0  0  0  0
 23 19  1  6  0  0  0
 23 20  1  0  0  0  0
 24 27  1  0  0  0  0
 25 28  1  6  0  0  0
 25 26  1  0  0  0  0
 25 22  1  0  0  0  0
 29 28  1  6  0  0  0
 31 33  1  0  0  0  0
 32 30  1  1  0  0  0
 32 31  1  0  0  0  0
 32 34  1  0  0  0  0
 33 29  1  0  0  0  0
 34 29  1  0  0  0  0
 35 15  1  0  0  0  0
 36 40  1  0  0  0  0
 37 36  1  0  0  0  0
 38 42  2  0  0  0  0
 39 41  1  0  0  0  0
 40 41  1  0  0  0  0
 41 35  1  0  0  0  0
 42 37  1  0  0  0  0
 43 37  1  0  0  0  0
 43 39  1  0  0  0  0
M  END
>  <MODEL>
9

>  <REMARK>
 VINA RESULT:      -9.2      2.580     10.116
  Name = 
  6 active torsions:
  status: ('A' for Active; 'I' for Inactive)
    1  A    between atoms: C_1  and  C_34
    2  A    between atoms: C_1  and  N_35
    3  A    between atoms: C_2  and  N_6
    4  A    between atoms: C_11  and  O_14
    5  A    between atoms: C_12  and  C_17
    6  A    between atoms: O_14  and  C_22
                            x       y       z     vdW  Elec       q    Type
                         _______ _______ _______ _____ _____    ______ ____

>  <TORSDO>
F 6

$$$$
