=
 OpenBabel11052413053D

 31 34  0  0  0  0  0  0  0  0999 V2000
  185.2680  178.3330  145.9650 C   0  0  0  0  0  0  0  0  0  0  0  0
  188.4980  177.5850  144.1640 C   0  0  0  0  0  0  0  0  0  0  0  0
  189.4600  177.2550  145.1780 C   0  0  0  0  0  0  0  0  0  0  0  0
  189.9990  176.9440  147.5700 C   0  0  0  0  0  3  0  0  0  0  0  0
  187.1330  177.9360  144.4320 C   0  0  0  0  0  0  0  0  0  0  0  0
  184.4280  178.6280  144.8930 C   0  0  0  0  0  3  0  0  0  0  0  0
  189.1200  177.2480  146.6190 C   0  0  0  0  0  3  0  0  0  0  0  0
  188.0310  177.8780  141.7580 C   0  0  0  0  0  0  0  0  0  0  0  0
  184.7900  178.3770  147.2320 F   0  0  0  0  0  0  0  0  0  0  0  0
  191.1600  176.9090  143.4710 C   0  0  0  0  0  3  0  0  0  0  0  0
  191.3790  176.5900  147.2350 C   0  0  0  0  0  0  0  0  0  0  0  0
  186.7130  178.2060  142.0450 C   0  0  0  0  0  3  0  0  0  0  0  0
  188.9240  177.5630  142.8000 C   0  0  0  0  0  0  0  0  0  0  0  0
  186.6020  177.9910  145.7330 C   0  0  0  0  0  3  0  0  0  0  0  0
  192.1860  176.3070  148.1580 O   0  0  0  0  0  0  0  0  0  0  0  0
  186.2600  178.2410  143.3560 C   0  0  0  0  0  0  0  0  0  0  0  0
  184.9240  178.5810  143.5910 C   0  0  0  0  0  3  0  0  0  0  0  0
  190.2440  177.2260  142.4820 C   0  0  0  0  0  3  0  0  0  0  0  0
  190.7860  176.9180  144.8080 C   0  0  0  0  0  0  0  0  0  0  0  0
  191.8490  176.5590  145.8120 C   0  0  0  0  0  2  0  0  0  0  0  0
  188.4430  177.8390  140.3210 C   0  0  0  0  0  2  0  0  0  0  0  0
  187.5080  178.6090  139.5210 N   0  0  0  0  0  2  0  0  0  0  0  0
  187.1510  177.7820  138.3820 C   0  0  0  0  0  2  0  0  0  0  0  0
  185.8660  178.2910  137.7500 C   0  0  0  0  0  2  0  0  0  0  0  0
  184.6460  177.9160  138.5840 C   0  0  0  0  0  2  0  0  0  0  0  0
  184.4680  180.2510  138.9830 O   0  0  0  0  0  0  0  0  0  0  0  0
  184.1360  179.0910  139.3460 C   0  0  0  0  0  0  0  0  0  0  0  0
  181.9550  178.9660  140.4710 C   0  0  0  0  0  0  0  0  0  0  0  0
  181.1540  179.3350  139.2660 C   0  0  0  0  0  1  0  0  0  0  0  0
  181.2290  178.6920  141.7380 C   0  0  0  0  0  1  0  0  0  0  0  0
  183.2530  178.8730  140.4580 N   0  0  0  0  0  0  0  0  0  0  0  0
  1  9  1  0  0  0  0
  2  5  1  0  0  0  0
  2  3  1  0  0  0  0
  3  7  1  0  0  0  0
  5 14  2  0  0  0  0
  6  1  2  0  0  0  0
  7  4  2  0  0  0  0
  8 12  2  0  0  0  0
  8 13  1  0  0  0  0
 10 19  1  0  0  0  0
 11  4  1  0  0  0  0
 11 15  2  0  0  0  0
 12 16  1  0  0  0  0
 13  2  2  0  0  0  0
 14  1  1  0  0  0  0
 16 17  2  0  0  0  0
 16  5  1  0  0  0  0
 17  6  1  0  0  0  0
 18 13  1  0  0  0  0
 18 10  2  0  0  0  0
 19  3  2  0  0  0  0
 19 20  1  0  0  0  0
 20 11  1  0  0  0  0
 21  8  1  0  0  0  0
 22 21  1  0  0  0  0
 23 22  1  0  0  0  0
 24 23  1  0  0  0  0
 24 25  1  0  0  0  0
 25 27  1  0  0  0  0
 26 27  2  0  0  0  0
 27 31  1  0  0  0  0
 28 30  1  0  0  0  0
 29 28  1  0  0  0  0
 31 28  2  0  0  0  0
M  END
>  <MODEL>
1

>  <REMARK>
 VINA RESULT:     -10.2      0.000      0.000
  Name = 
  7 active torsions:
  status: ('A' for Active; 'I' for Inactive)
    1  A    between atoms: C_3  and  C_19
    2  A    between atoms: C_3  and  C_22
    3  A    between atoms: C_7  and  N_9
    4  A    between atoms: C_7  and  C_22
    5  A    between atoms: N_9  and  C_23
    6  A    between atoms: C_15  and  C_23
    7  A    between atoms: C_19  and  N_24
                            x       y       z     vdW  Elec       q    Type
                         _______ _______ _______ _____ _____    ______ ____

>  <TORSDO>
F 7

$$$$
=
 OpenBabel11052413053D

 31 34  0  0  0  0  0  0  0  0999 V2000
  185.0790  178.3220  145.9680 C   0  0  0  0  0  0  0  0  0  0  0  0
  188.2930  177.7800  144.0660 C   0  0  0  0  0  0  0  0  0  0  0  0
  189.2780  177.3950  145.0360 C   0  0  0  0  0  0  0  0  0  0  0  0
  189.8640  176.9160  147.3890 C   0  0  0  0  0  3  0  0  0  0  0  0
  186.9260  178.0810  144.3800 C   0  0  0  0  0  0  0  0  0  0  0  0
  184.2160  178.6790  144.9350 C   0  0  0  0  0  3  0  0  0  0  0  0
  188.9630  177.2720  146.4790 C   0  0  0  0  0  3  0  0  0  0  0  0
  187.7780  178.2430  141.6960 C   0  0  0  0  0  0  0  0  0  0  0  0
  184.6230  178.2610  147.2420 F   0  0  0  0  0  0  0  0  0  0  0  0
  190.9550  177.2140  143.2820 C   0  0  0  0  0  3  0  0  0  0  0  0
  191.2450  176.6180  147.0070 C   0  0  0  0  0  0  0  0  0  0  0  0
  186.4590  178.5210  142.0280 C   0  0  0  0  0  3  0  0  0  0  0  0
  188.6960  177.8700  142.6980 C   0  0  0  0  0  0  0  0  0  0  0  0
  186.4160  178.0270  145.6900 C   0  0  0  0  0  3  0  0  0  0  0  0
  192.0730  176.2830  147.8940 O   0  0  0  0  0  0  0  0  0  0  0  0
  186.0280  178.4480  143.3440 C   0  0  0  0  0  0  0  0  0  0  0  0
  184.6900  178.7410  143.6260 C   0  0  0  0  0  3  0  0  0  0  0  0
  190.0170  177.5850  142.3350 C   0  0  0  0  0  3  0  0  0  0  0  0
  190.6040  177.1140  144.6220 C   0  0  0  0  0  0  0  0  0  0  0  0
  191.6910  176.7040  145.5790 C   0  0  0  0  0  2  0  0  0  0  0  0
  188.1670  178.3210  140.2540 C   0  0  0  0  0  2  0  0  0  0  0  0
  186.9850  178.5400  139.4390 N   0  0  0  0  0  2  0  0  0  0  0  0
  187.2340  177.8960  138.1620 C   0  0  0  0  0  2  0  0  0  0  0  0
  188.7070  177.5390  138.0350 C   0  0  0  0  0  2  0  0  0  0  0  0
  188.8960  176.1680  137.3970 C   0  0  0  0  0  2  0  0  0  0  0  0
  190.3960  174.3310  137.5310 O   0  0  0  0  0  0  0  0  0  0  0  0
  190.0920  175.4770  137.9570 C   0  0  0  0  0  0  0  0  0  0  0  0
  192.1080  176.5810  138.8270 C   0  0  0  0  0  0  0  0  0  0  0  0
  192.9030  176.4310  137.5730 C   0  0  0  0  0  1  0  0  0  0  0  0
  192.7470  177.2570  139.9860 C   0  0  0  0  0  1  0  0  0  0  0  0
  190.8860  176.1490  138.9490 N   0  0  0  0  0  0  0  0  0  0  0  0
  1  9  1  0  0  0  0
  2  5  1  0  0  0  0
  2  3  1  0  0  0  0
  3  7  1  0  0  0  0
  5 14  2  0  0  0  0
  6  1  2  0  0  0  0
  7  4  2  0  0  0  0
  8 12  2  0  0  0  0
  8 13  1  0  0  0  0
 10 19  1  0  0  0  0
 11  4  1  0  0  0  0
 11 15  2  0  0  0  0
 12 16  1  0  0  0  0
 13  2  2  0  0  0  0
 14  1  1  0  0  0  0
 16 17  2  0  0  0  0
 16  5  1  0  0  0  0
 17  6  1  0  0  0  0
 18 13  1  0  0  0  0
 18 10  2  0  0  0  0
 19  3  2  0  0  0  0
 19 20  1  0  0  0  0
 20 11  1  0  0  0  0
 21  8  1  0  0  0  0
 22 21  1  0  0  0  0
 23 22  1  0  0  0  0
 24 23  1  0  0  0  0
 25 27  1  0  0  0  0
 25 24  1  0  0  0  0
 26 27  2  0  0  0  0
 27 31  1  0  0  0  0
 28 31  2  0  0  0  0
 28 30  1  0  0  0  0
 29 28  1  0  0  0  0
M  END
>  <MODEL>
2

>  <REMARK>
 VINA RESULT:     -10.2      2.385      4.483
  Name = 
  7 active torsions:
  status: ('A' for Active; 'I' for Inactive)
    1  A    between atoms: C_3  and  C_19
    2  A    between atoms: C_3  and  C_22
    3  A    between atoms: C_7  and  N_9
    4  A    between atoms: C_7  and  C_22
    5  A    between atoms: N_9  and  C_23
    6  A    between atoms: C_15  and  C_23
    7  A    between atoms: C_19  and  N_24
                            x       y       z     vdW  Elec       q    Type
                         _______ _______ _______ _____ _____    ______ ____

>  <TORSDO>
F 7

$$$$
=
 OpenBabel11052413053D

 31 34  0  0  0  0  0  0  0  0999 V2000
  188.4360  177.3890  147.8360 C   0  0  0  0  0  0  0  0  0  0  0  0
  187.4830  177.9390  144.2270 C   0  0  0  0  0  0  0  0  0  0  0  0
  186.0780  178.2330  144.2190 C   0  0  0  0  0  0  0  0  0  0  0  0
  183.9700  178.5490  145.4700 C   0  0  0  0  0  3  0  0  0  0  0  0
  188.2430  177.6650  145.4120 C   0  0  0  0  0  0  0  0  0  0  0  0
  189.7980  177.1230  147.7140 C   0  0  0  0  0  3  0  0  0  0  0  0
  185.2720  178.2780  145.4610 C   0  0  0  0  0  3  0  0  0  0  0  0
  189.5510  177.6380  142.9130 C   0  0  0  0  0  0  0  0  0  0  0  0
  187.8530  177.3880  149.0580 F   0  0  0  0  0  0  0  0  0  0  0  0
  186.1260  178.4650  141.7970 C   0  0  0  0  0  3  0  0  0  0  0  0
  183.2480  178.8250  144.2270 C   0  0  0  0  0  0  0  0  0  0  0  0
  190.2640  177.3840  144.0770 C   0  0  0  0  0  3  0  0  0  0  0  0
  188.1730  177.9200  142.9750 C   0  0  0  0  0  0  0  0  0  0  0  0
  187.6720  177.6560  146.6980 C   0  0  0  0  0  3  0  0  0  0  0  0
  182.0160  179.0770  144.2720 O   0  0  0  0  0  0  0  0  0  0  0  0
  189.6320  177.3910  145.3120 C   0  0  0  0  0  0  0  0  0  0  0  0
  190.3940  177.1250  146.4530 C   0  0  0  0  0  3  0  0  0  0  0  0
  187.4810  178.1820  141.7880 C   0  0  0  0  0  3  0  0  0  0  0  0
  185.4190  178.4940  142.9920 C   0  0  0  0  0  0  0  0  0  0  0  0
  183.9500  178.8110  142.9030 C   0  0  0  0  0  2  0  0  0  0  0  0
  190.3030  177.6350  141.6190 C   0  0  0  0  0  2  0  0  0  0  0  0
  190.2720  176.3050  141.0380 N   0  0  0  0  0  2  0  0  0  0  0  0
  190.6540  176.4500  139.6440 C   0  0  0  0  0  2  0  0  0  0  0  0
  189.9260  177.6320  139.0240 C   0  0  0  0  0  2  0  0  0  0  0  0
  188.6190  177.2020  138.3690 C   0  0  0  0  0  2  0  0  0  0  0  0
  188.3880  179.2000  137.1060 O   0  0  0  0  0  0  0  0  0  0  0  0
  187.8430  178.3830  137.8940 C   0  0  0  0  0  0  0  0  0  0  0  0
  185.4300  177.9170  137.8810 C   0  0  0  0  0  0  0  0  0  0  0  0
  185.4920  176.8890  136.8000 C   0  0  0  0  0  1  0  0  0  0  0  0
  184.1040  178.2340  138.4710 C   0  0  0  0  0  1  0  0  0  0  0  0
  186.4810  178.5430  138.3240 N   0  0  0  0  0  0  0  0  0  0  0  0
  1  9  1  0  0  0  0
  2  5  1  0  0  0  0
  3  2  1  0  0  0  0
  3  7  1  0  0  0  0
  5 14  1  0  0  0  0
  6  1  1  0  0  0  0
  7  4  2  0  0  0  0
  8 13  1  0  0  0  0
  8 12  2  0  0  0  0
 10 19  1  0  0  0  0
 11 15  2  0  0  0  0
 11  4  1  0  0  0  0
 12 16  1  0  0  0  0
 13  2  2  0  0  0  0
 14  1  2  0  0  0  0
 16  5  2  0  0  0  0
 16 17  1  0  0  0  0
 17  6  2  0  0  0  0
 18 10  2  0  0  0  0
 18 13  1  0  0  0  0
 19  3  2  0  0  0  0
 20 19  1  0  0  0  0
 20 11  1  0  0  0  0
 21  8  1  0  0  0  0
 22 21  1  0  0  0  0
 23 22  1  0  0  0  0
 24 23  1  0  0  0  0
 25 24  1  0  0  0  0
 26 27  2  0  0  0  0
 27 31  1  0  0  0  0
 27 25  1  0  0  0  0
 28 31  2  0  0  0  0
 28 30  1  0  0  0  0
 29 28  1  0  0  0  0
M  END
>  <MODEL>
3

>  <REMARK>
 VINA RESULT:     -10.0      2.718      4.995
  Name = 
  7 active torsions:
  status: ('A' for Active; 'I' for Inactive)
    1  A    between atoms: C_3  and  C_19
    2  A    between atoms: C_3  and  C_22
    3  A    between atoms: C_7  and  N_9
    4  A    between atoms: C_7  and  C_22
    5  A    between atoms: N_9  and  C_23
    6  A    between atoms: C_15  and  C_23
    7  A    between atoms: C_19  and  N_24
                            x       y       z     vdW  Elec       q    Type
                         _______ _______ _______ _____ _____    ______ ____

>  <TORSDO>
F 7

$$$$
=
 OpenBabel11052413053D

 31 34  0  0  0  0  0  0  0  0999 V2000
  189.3500  177.8270  140.7270 C   0  0  0  0  0  0  0  0  0  0  0  0
  187.9110  177.7690  144.2150 C   0  0  0  0  0  0  0  0  0  0  0  0
  188.9910  177.4200  145.0930 C   0  0  0  0  0  0  0  0  0  0  0  0
  191.3720  176.8310  145.3970 C   0  0  0  0  0  3  0  0  0  0  0  0
  188.0380  177.9000  142.7920 C   0  0  0  0  0  0  0  0  0  0  0  0
  188.2270  178.1780  139.9820 C   0  0  0  0  0  3  0  0  0  0  0  0
  190.3610  177.1550  144.5970 C   0  0  0  0  0  3  0  0  0  0  0  0
  185.5230  178.3520  143.9850 C   0  0  0  0  0  0  0  0  0  0  0  0
  190.5360  177.6170  140.1070 F   0  0  0  0  0  0  0  0  0  0  0  0
  187.4960  177.5580  147.0090 C   0  0  0  0  0  3  0  0  0  0  0  0
  191.1810  176.7160  146.8440 C   0  0  0  0  0  0  0  0  0  0  0  0
  185.6770  178.4790  142.6110 C   0  0  0  0  0  3  0  0  0  0  0  0
  186.6250  178.0060  144.7920 C   0  0  0  0  0  0  0  0  0  0  0  0
  189.2530  177.6910  142.1140 C   0  0  0  0  0  3  0  0  0  0  0  0
  192.1590  176.4080  147.5730 O   0  0  0  0  0  0  0  0  0  0  0  0
  186.9070  178.2560  142.0120 C   0  0  0  0  0  0  0  0  0  0  0  0
  187.0080  178.3930  140.6240 C   0  0  0  0  0  3  0  0  0  0  0  0
  186.4440  177.8950  146.1740 C   0  0  0  0  0  3  0  0  0  0  0  0
  188.7620  177.3210  146.4880 C   0  0  0  0  0  0  0  0  0  0  0  0
  189.8430  176.9600  147.4720 C   0  0  0  0  0  2  0  0  0  0  0  0
  184.1720  178.6290  144.5650 C   0  0  0  0  0  2  0  0  0  0  0  0
  183.2700  179.0720  143.5170 N   0  0  0  0  0  2  0  0  0  0  0  0
  181.9210  178.8590  144.0100 C   0  0  0  0  0  2  0  0  0  0  0  0
  180.9090  179.3860  143.0040 C   0  0  0  0  0  2  0  0  0  0  0  0
  180.2110  178.2500  142.2660 C   0  0  0  0  0  2  0  0  0  0  0  0
  179.4970  177.9040  140.0270 O   0  0  0  0  0  0  0  0  0  0  0  0
  180.3730  178.3890  140.7910 C   0  0  0  0  0  0  0  0  0  0  0  0
  182.6690  178.6080  139.9430 C   0  0  0  0  0  0  0  0  0  0  0  0
  182.9990  177.1550  140.0540 C   0  0  0  0  0  1  0  0  0  0  0  0
  183.7170  179.5260  139.4270 C   0  0  0  0  0  1  0  0  0  0  0  0
  181.5120  179.1000  140.2780 N   0  0  0  0  0  0  0  0  0  0  0  0
  1 14  1  0  0  0  0
  2 13  2  0  0  0  0
  2  3  1  0  0  0  0
  3 19  2  0  0  0  0
  4 11  1  0  0  0  0
  5  2  1  0  0  0  0
  6 17  1  0  0  0  0
  6  1  2  0  0  0  0
  7  3  1  0  0  0  0
  7  4  2  0  0  0  0
  8 21  1  0  0  0  0
  8 13  1  0  0  0  0
  9  1  1  0  0  0  0
 11 20  1  0  0  0  0
 11 15  2  0  0  0  0
 12  8  2  0  0  0  0
 13 18  1  0  0  0  0
 14  5  2  0  0  0  0
 16 12  1  0  0  0  0
 16  5  1  0  0  0  0
 17 16  2  0  0  0  0
 18 10  2  0  0  0  0
 19 10  1  0  0  0  0
 19 20  1  0  0  0  0
 22 23  1  0  0  0  0
 22 21  1  0  0  0  0
 24 23  1  0  0  0  0
 25 24  1  0  0  0  0
 26 27  2  0  0  0  0
 27 25  1  0  0  0  0
 28 29  1  0  0  0  0
 28 31  2  0  0  0  0
 30 28  1  0  0  0  0
 31 27  1  0  0  0  0
M  END
>  <MODEL>
4

>  <REMARK>
 VINA RESULT:      -9.9      2.458      4.408
  Name = 
  7 active torsions:
  status: ('A' for Active; 'I' for Inactive)
    1  A    between atoms: C_3  and  C_19
    2  A    between atoms: C_3  and  C_22
    3  A    between atoms: C_7  and  N_9
    4  A    between atoms: C_7  and  C_22
    5  A    between atoms: N_9  and  C_23
    6  A    between atoms: C_15  and  C_23
    7  A    between atoms: C_19  and  N_24
                            x       y       z     vdW  Elec       q    Type
                         _______ _______ _______ _____ _____    ______ ____

>  <TORSDO>
F 7

$$$$
=
 OpenBabel11052413053D

 31 34  0  0  0  0  0  0  0  0999 V2000
  185.1060  178.3130  145.8500 C   0  0  0  0  0  0  0  0  0  0  0  0
  188.3760  177.7540  144.0520 C   0  0  0  0  0  0  0  0  0  0  0  0
  189.3390  177.4100  145.0600 C   0  0  0  0  0  0  0  0  0  0  0  0
  189.8660  177.0090  147.4410 C   0  0  0  0  0  3  0  0  0  0  0  0
  186.9980  178.0470  144.3200 C   0  0  0  0  0  0  0  0  0  0  0  0
  184.2670  178.6280  144.7830 C   0  0  0  0  0  3  0  0  0  0  0  0
  188.9870  177.3270  146.4960 C   0  0  0  0  0  3  0  0  0  0  0  0
  187.9210  178.1390  141.6560 C   0  0  0  0  0  0  0  0  0  0  0  0
  184.6150  178.2840  147.1120 F   0  0  0  0  0  0  0  0  0  0  0  0
  191.0650  177.1970  143.3580 C   0  0  0  0  0  3  0  0  0  0  0  0
  191.2600  176.7170  147.1050 C   0  0  0  0  0  0  0  0  0  0  0  0
  186.5900  178.4110  141.9440 C   0  0  0  0  0  3  0  0  0  0  0  0
  188.8160  177.8080  142.6930 C   0  0  0  0  0  0  0  0  0  0  0  0
  186.4530  178.0260  145.6170 C   0  0  0  0  0  3  0  0  0  0  0  0
  192.0670  176.4190  148.0240 O   0  0  0  0  0  0  0  0  0  0  0  0
  186.1240  178.3720  143.2490 C   0  0  0  0  0  0  0  0  0  0  0  0
  184.7760  178.6560  143.4860 C   0  0  0  0  0  3  0  0  0  0  0  0
  190.1490  177.5290  142.3740 C   0  0  0  0  0  3  0  0  0  0  0  0
  190.6790  177.1340  144.6900 C   0  0  0  0  0  0  0  0  0  0  0  0
  191.7440  176.7660  145.6880 C   0  0  0  0  0  2  0  0  0  0  0  0
  188.3480  178.1790  140.2230 C   0  0  0  0  0  2  0  0  0  0  0  0
  187.1970  178.4330  139.3760 N   0  0  0  0  0  2  0  0  0  0  0  0
  187.6080  178.1380  138.0140 C   0  0  0  0  0  2  0  0  0  0  0  0
  189.1250  178.1720  137.9090 C   0  0  0  0  0  2  0  0  0  0  0  0
  189.6290  177.2400  136.8130 C   0  0  0  0  0  2  0  0  0  0  0  0
  190.1050  175.6350  138.4990 O   0  0  0  0  0  0  0  0  0  0  0  0
  189.7390  175.8390  137.3110 C   0  0  0  0  0  0  0  0  0  0  0  0
  188.2360  174.1770  136.3010 C   0  0  0  0  0  0  0  0  0  0  0  0
  187.0350  174.5740  137.0940 C   0  0  0  0  0  1  0  0  0  0  0  0
  188.0950  173.0690  135.3210 C   0  0  0  0  0  1  0  0  0  0  0  0
  189.3940  174.7570  136.4300 N   0  0  0  0  0  0  0  0  0  0  0  0
  1  9  1  0  0  0  0
  2  5  1  0  0  0  0
  2  3  1  0  0  0  0
  3  7  1  0  0  0  0
  5 14  2  0  0  0  0
  6  1  2  0  0  0  0
  7  4  2  0  0  0  0
  8 12  2  0  0  0  0
  8 13  1  0  0  0  0
 10 19  1  0  0  0  0
 11  4  1  0  0  0  0
 11 15  2  0  0  0  0
 12 16  1  0  0  0  0
 13  2  2  0  0  0  0
 14  1  1  0  0  0  0
 16 17  2  0  0  0  0
 16  5  1  0  0  0  0
 17  6  1  0  0  0  0
 18 13  1  0  0  0  0
 18 10  2  0  0  0  0
 19  3  2  0  0  0  0
 19 20  1  0  0  0  0
 20 11  1  0  0  0  0
 21  8  1  0  0  0  0
 22 21  1  0  0  0  0
 23 22  1  0  0  0  0
 24 23  1  0  0  0  0
 25 27  1  0  0  0  0
 25 24  1  0  0  0  0
 27 26  2  0  0  0  0
 28 31  2  0  0  0  0
 28 29  1  0  0  0  0
 30 28  1  0  0  0  0
 31 27  1  0  0  0  0
M  END
>  <MODEL>
5

>  <REMARK>
 VINA RESULT:      -9.6      2.348      3.906
  Name = 
  7 active torsions:
  status: ('A' for Active; 'I' for Inactive)
    1  A    between atoms: C_3  and  C_19
    2  A    between atoms: C_3  and  C_22
    3  A    between atoms: C_7  and  N_9
    4  A    between atoms: C_7  and  C_22
    5  A    between atoms: N_9  and  C_23
    6  A    between atoms: C_15  and  C_23
    7  A    between atoms: C_19  and  N_24
                            x       y       z     vdW  Elec       q    Type
                         _______ _______ _______ _____ _____    ______ ____

>  <TORSDO>
F 7

$$$$
=
 OpenBabel11052413053D

 31 34  0  0  0  0  0  0  0  0999 V2000
  188.2550  177.9040  148.3010 C   0  0  0  0  0  0  0  0  0  0  0  0
  187.5620  177.7660  144.5950 C   0  0  0  0  0  0  0  0  0  0  0  0
  186.2010  178.1880  144.4210 C   0  0  0  0  0  0  0  0  0  0  0  0
  184.0780  178.9670  145.4180 C   0  0  0  0  0  3  0  0  0  0  0  0
  188.2230  177.6770  145.8650 C   0  0  0  0  0  0  0  0  0  0  0  0
  189.5840  177.4860  148.3390 C   0  0  0  0  0  3  0  0  0  0  0  0
  185.3400  178.5750  145.5630 C   0  0  0  0  0  3  0  0  0  0  0  0
  189.6500  176.9910  143.5300 C   0  0  0  0  0  0  0  0  0  0  0  0
  187.6120  178.2200  149.4510 F   0  0  0  0  0  0  0  0  0  0  0  0
  186.4020  177.8940  142.0140 C   0  0  0  0  0  3  0  0  0  0  0  0
  183.4590  179.0420  144.0950 C   0  0  0  0  0  0  0  0  0  0  0  0
  190.2680  176.9210  144.7720 C   0  0  0  0  0  3  0  0  0  0  0  0
  188.3100  177.4130  143.4290 C   0  0  0  0  0  0  0  0  0  0  0  0
  187.5870  177.9970  147.0790 C   0  0  0  0  0  3  0  0  0  0  0  0
  182.2620  179.4180  143.9930 O   0  0  0  0  0  0  0  0  0  0  0  0
  189.5760  177.2530  145.9280 C   0  0  0  0  0  0  0  0  0  0  0  0
  190.2420  177.1620  147.1540 C   0  0  0  0  0  3  0  0  0  0  0  0
  187.7160  177.4840  142.1650 C   0  0  0  0  0  3  0  0  0  0  0  0
  185.6410  178.2460  143.1210 C   0  0  0  0  0  0  0  0  0  0  0  0
  184.2230  178.6780  142.8590 C   0  0  0  0  0  2  0  0  0  0  0  0
  190.4640  176.6400  142.3250 C   0  0  0  0  0  2  0  0  0  0  0  0
  191.6050  177.5320  142.2280 N   0  0  0  0  0  2  0  0  0  0  0  0
  192.0430  177.5000  140.8440 C   0  0  0  0  0  2  0  0  0  0  0  0
  190.8810  177.1240  139.9380 C   0  0  0  0  0  2  0  0  0  0  0  0
  191.3570  176.3710  138.7010 C   0  0  0  0  0  2  0  0  0  0  0  0
  190.4330  175.3970  136.7420 O   0  0  0  0  0  0  0  0  0  0  0  0
  190.2190  176.0610  137.7910 C   0  0  0  0  0  0  0  0  0  0  0  0
  188.3230  177.6250  137.8220 C   0  0  0  0  0  0  0  0  0  0  0  0
  188.9890  178.6700  136.9890 C   0  0  0  0  0  1  0  0  0  0  0  0
  186.9400  177.8850  138.2980 C   0  0  0  0  0  1  0  0  0  0  0  0
  188.8990  176.5040  138.1470 N   0  0  0  0  0  0  0  0  0  0  0  0
  1  6  1  0  0  0  0
  1  9  1  0  0  0  0
  2  5  1  0  0  0  0
  3  2  1  0  0  0  0
  3  7  1  0  0  0  0
  4  7  2  0  0  0  0
  5 16  2  0  0  0  0
  5 14  1  0  0  0  0
  8 12  2  0  0  0  0
 10 18  2  0  0  0  0
 10 19  1  0  0  0  0
 11  4  1  0  0  0  0
 12 16  1  0  0  0  0
 13  8  1  0  0  0  0
 13  2  2  0  0  0  0
 14  1  2  0  0  0  0
 15 11  2  0  0  0  0
 16 17  1  0  0  0  0
 17  6  2  0  0  0  0
 18 13  1  0  0  0  0
 19  3  2  0  0  0  0
 20 19  1  0  0  0  0
 20 11  1  0  0  0  0
 21  8  1  0  0  0  0
 22 21  1  0  0  0  0
 23 22  1  0  0  0  0
 24 23  1  0  0  0  0
 25 24  1  0  0  0  0
 26 27  2  0  0  0  0
 27 31  1  0  0  0  0
 27 25  1  0  0  0  0
 28 31  2  0  0  0  0
 28 30  1  0  0  0  0
 29 28  1  0  0  0  0
M  END
>  <MODEL>
6

>  <REMARK>
 VINA RESULT:      -9.6      3.117      5.785
  Name = 
  7 active torsions:
  status: ('A' for Active; 'I' for Inactive)
    1  A    between atoms: C_3  and  C_19
    2  A    between atoms: C_3  and  C_22
    3  A    between atoms: C_7  and  N_9
    4  A    between atoms: C_7  and  C_22
    5  A    between atoms: N_9  and  C_23
    6  A    between atoms: C_15  and  C_23
    7  A    between atoms: C_19  and  N_24
                            x       y       z     vdW  Elec       q    Type
                         _______ _______ _______ _____ _____    ______ ____

>  <TORSDO>
F 7

$$$$
=
 OpenBabel11052413053D

 31 34  0  0  0  0  0  0  0  0999 V2000
  190.4560  177.4750  140.8350 C   0  0  0  0  0  0  0  0  0  0  0  0
  188.5020  177.5920  144.0600 C   0  0  0  0  0  0  0  0  0  0  0  0
  189.4280  177.2630  145.1070 C   0  0  0  0  0  0  0  0  0  0  0  0
  191.7210  176.6490  145.7960 C   0  0  0  0  0  3  0  0  0  0  0  0
  188.8470  177.6580  142.6700 C   0  0  0  0  0  0  0  0  0  0  0  0
  189.4680  177.8120  139.9130 C   0  0  0  0  0  3  0  0  0  0  0  0
  190.8510  176.9550  144.8380 C   0  0  0  0  0  3  0  0  0  0  0  0
  186.1900  178.2030  143.4450 C   0  0  0  0  0  0  0  0  0  0  0  0
  191.7170  177.2200  140.4120 F   0  0  0  0  0  0  0  0  0  0  0  0
  187.6620  177.5080  146.7640 C   0  0  0  0  0  3  0  0  0  0  0  0
  191.3090  176.6000  147.1990 C   0  0  0  0  0  0  0  0  0  0  0  0
  186.5540  178.2680  142.1070 C   0  0  0  0  0  3  0  0  0  0  0  0
  187.1490  177.8740  144.4240 C   0  0  0  0  0  0  0  0  0  0  0  0
  190.1460  177.4010  142.1940 C   0  0  0  0  0  3  0  0  0  0  0  0
  192.1580  176.3070  148.0810 O   0  0  0  0  0  0  0  0  0  0  0  0
  187.8570  177.9990  141.7120 C   0  0  0  0  0  0  0  0  0  0  0  0
  188.1710  178.0740  140.3520 C   0  0  0  0  0  3  0  0  0  0  0  0
  186.7570  177.8260  145.7660 C   0  0  0  0  0  3  0  0  0  0  0  0
  188.9860  177.2280  146.4530 C   0  0  0  0  0  0  0  0  0  0  0  0
  189.8970  176.8920  147.6050 C   0  0  0  0  0  2  0  0  0  0  0  0
  184.7740  178.5270  143.8000 C   0  0  0  0  0  2  0  0  0  0  0  0
  184.1530  179.2640  142.7140 N   0  0  0  0  0  2  0  0  0  0  0  0
  182.7540  178.8750  142.6920 C   0  0  0  0  0  2  0  0  0  0  0  0
  182.3040  178.6290  141.2600 C   0  0  0  0  0  2  0  0  0  0  0  0
  183.4860  178.3260  140.3470 C   0  0  0  0  0  2  0  0  0  0  0  0
  184.4870  180.1070  139.1360 O   0  0  0  0  0  0  0  0  0  0  0  0
  183.5380  179.2810  139.2040 C   0  0  0  0  0  0  0  0  0  0  0  0
  181.5880  180.0880  137.9450 C   0  0  0  0  0  0  0  0  0  0  0  0
  181.4320  181.3520  138.7250 C   0  0  0  0  0  1  0  0  0  0  0  0
  180.6320  179.8240  136.8400 C   0  0  0  0  0  1  0  0  0  0  0  0
  182.5210  179.2150  138.1910 N   0  0  0  0  0  0  0  0  0  0  0  0
  1 14  1  0  0  0  0
  2 13  2  0  0  0  0
  2  3  1  0  0  0  0
  3 19  2  0  0  0  0
  4 11  1  0  0  0  0
  5  2  1  0  0  0  0
  6 17  1  0  0  0  0
  6  1  2  0  0  0  0
  7  3  1  0  0  0  0
  7  4  2  0  0  0  0
  8 21  1  0  0  0  0
  8 13  1  0  0  0  0
  9  1  1  0  0  0  0
 11 20  1  0  0  0  0
 11 15  2  0  0  0  0
 12  8  2  0  0  0  0
 13 18  1  0  0  0  0
 14  5  2  0  0  0  0
 16 12  1  0  0  0  0
 16  5  1  0  0  0  0
 17 16  2  0  0  0  0
 18 10  2  0  0  0  0
 19 10  1  0  0  0  0
 19 20  1  0  0  0  0
 22 21  1  0  0  0  0
 23 22  1  0  0  0  0
 24 23  1  0  0  0  0
 25 24  1  0  0  0  0
 26 27  2  0  0  0  0
 27 25  1  0  0  0  0
 28 31  2  0  0  0  0
 28 29  1  0  0  0  0
 30 28  1  0  0  0  0
 31 27  1  0  0  0  0
M  END
>  <MODEL>
7

>  <REMARK>
 VINA RESULT:      -9.6      2.215      4.034
  Name = 
  7 active torsions:
  status: ('A' for Active; 'I' for Inactive)
    1  A    between atoms: C_3  and  C_19
    2  A    between atoms: C_3  and  C_22
    3  A    between atoms: C_7  and  N_9
    4  A    between atoms: C_7  and  C_22
    5  A    between atoms: N_9  and  C_23
    6  A    between atoms: C_15  and  C_23
    7  A    between atoms: C_19  and  N_24
                            x       y       z     vdW  Elec       q    Type
                         _______ _______ _______ _____ _____    ______ ____

>  <TORSDO>
F 7

$$$$
=
 OpenBabel11052413053D

 31 34  0  0  0  0  0  0  0  0999 V2000
  187.4340  178.2250  140.1440 C   0  0  0  0  0  0  0  0  0  0  0  0
  184.8350  178.5610  142.8590 C   0  0  0  0  0  0  0  0  0  0  0  0
  183.5850  178.8030  142.1950 C   0  0  0  0  0  0  0  0  0  0  0  0
  182.3240  179.1070  140.0910 C   0  0  0  0  0  3  0  0  0  0  0  0
  186.0850  178.3740  142.1810 C   0  0  0  0  0  0  0  0  0  0  0  0
  188.5800  177.9910  140.9010 C   0  0  0  0  0  3  0  0  0  0  0  0
  183.4740  178.8840  140.7210 C   0  0  0  0  0  3  0  0  0  0  0  0
  186.0300  178.2670  144.9990 C   0  0  0  0  0  0  0  0  0  0  0  0
  187.5120  178.2700  138.7930 F   0  0  0  0  0  0  0  0  0  0  0  0
  182.4480  178.9050  144.3450 C   0  0  0  0  0  3  0  0  0  0  0  0
  181.0780  179.2870  140.8380 C   0  0  0  0  0  0  0  0  0  0  0  0
  187.2240  178.0820  144.3160 C   0  0  0  0  0  3  0  0  0  0  0  0
  184.8370  178.5010  144.2870 C   0  0  0  0  0  0  0  0  0  0  0  0
  186.2040  178.4130  140.7790 C   0  0  0  0  0  3  0  0  0  0  0  0
  180.0070  179.4960  140.2120 O   0  0  0  0  0  0  0  0  0  0  0  0
  187.2650  178.1350  142.9310 C   0  0  0  0  0  0  0  0  0  0  0  0
  188.4950  177.9450  142.2920 C   0  0  0  0  0  3  0  0  0  0  0  0
  183.6450  178.6740  144.9990 C   0  0  0  0  0  3  0  0  0  0  0  0
  182.4020  178.9710  142.9580 C   0  0  0  0  0  0  0  0  0  0  0  0
  181.0560  179.2260  142.3350 C   0  0  0  0  0  2  0  0  0  0  0  0
  186.0570  178.1740  146.4920 C   0  0  0  0  0  2  0  0  0  0  0  0
  187.2540  177.4720  146.9170 N   0  0  0  0  0  2  0  0  0  0  0  0
  187.8350  178.2540  147.9950 C   0  0  0  0  0  2  0  0  0  0  0  0
  189.3350  178.0110  148.0650 C   0  0  0  0  0  2  0  0  0  0  0  0
  189.7220  176.7050  147.3810 C   0  0  0  0  0  2  0  0  0  0  0  0
  192.0530  177.0190  147.7170 O   0  0  0  0  0  0  0  0  0  0  0  0
  191.1320  176.7500  146.9000 C   0  0  0  0  0  0  0  0  0  0  0  0
  191.3490  177.2690  144.5080 C   0  0  0  0  0  0  0  0  0  0  0  0
  190.9570  178.7040  144.6400 C   0  0  0  0  0  1  0  0  0  0  0  0
  191.6820  176.7560  143.1540 C   0  0  0  0  0  1  0  0  0  0  0  0
  191.4100  176.4550  145.5210 N   0  0  0  0  0  0  0  0  0  0  0  0
  1 14  2  0  0  0  0
  1  6  1  0  0  0  0
  2 13  1  0  0  0  0
  3  2  2  0  0  0  0
  3 19  1  0  0  0  0
  4  7  2  0  0  0  0
  4 11  1  0  0  0  0
  5  2  1  0  0  0  0
  5 16  2  0  0  0  0
  6 17  2  0  0  0  0
  7  3  1  0  0  0  0
  8 21  1  0  0  0  0
  9  1  1  0  0  0  0
 10 18  1  0  0  0  0
 11 20  1  0  0  0  0
 12  8  2  0  0  0  0
 13 18  2  0  0  0  0
 13  8  1  0  0  0  0
 14  5  1  0  0  0  0
 15 11  2  0  0  0  0
 16 12  1  0  0  0  0
 17 16  1  0  0  0  0
 19 10  2  0  0  0  0
 20 19  1  0  0  0  0
 21 22  1  0  0  0  0
 22 23  1  0  0  0  0
 23 24  1  0  0  0  0
 25 24  1  0  0  0  0
 27 25  1  0  0  0  0
 27 26  2  0  0  0  0
 28 29  1  0  0  0  0
 28 31  2  0  0  0  0
 30 28  1  0  0  0  0
 31 27  1  0  0  0  0
M  END
>  <MODEL>
8

>  <REMARK>
 VINA RESULT:      -9.5      2.895      8.667
  Name = 
  7 active torsions:
  status: ('A' for Active; 'I' for Inactive)
    1  A    between atoms: C_3  and  C_19
    2  A    between atoms: C_3  and  C_22
    3  A    between atoms: C_7  and  N_9
    4  A    between atoms: C_7  and  C_22
    5  A    between atoms: N_9  and  C_23
    6  A    between atoms: C_15  and  C_23
    7  A    between atoms: C_19  and  N_24
                            x       y       z     vdW  Elec       q    Type
                         _______ _______ _______ _____ _____    ______ ____

>  <TORSDO>
F 7

$$$$
=
 OpenBabel11052413053D

 31 34  0  0  0  0  0  0  0  0999 V2000
  185.2440  178.2850  145.5860 C   0  0  0  0  0  0  0  0  0  0  0  0
  188.5410  177.5400  143.9080 C   0  0  0  0  0  0  0  0  0  0  0  0
  189.4520  177.1660  144.9530 C   0  0  0  0  0  0  0  0  0  0  0  0
  189.8800  176.7820  147.3560 C   0  0  0  0  0  3  0  0  0  0  0  0
  187.1700  177.9030  144.1250 C   0  0  0  0  0  0  0  0  0  0  0  0
  184.4570  178.6220  144.4870 C   0  0  0  0  0  3  0  0  0  0  0  0
  189.0490  177.1250  146.3780 C   0  0  0  0  0  3  0  0  0  0  0  0
  188.1840  177.9050  141.4930 C   0  0  0  0  0  0  0  0  0  0  0  0
  184.7110  178.3020  146.8310 F   0  0  0  0  0  0  0  0  0  0  0  0
  191.2210  176.8420  143.3140 C   0  0  0  0  0  3  0  0  0  0  0  0
  191.2690  176.4170  147.0730 C   0  0  0  0  0  0  0  0  0  0  0  0
  186.8590  178.2450  141.7310 C   0  0  0  0  0  3  0  0  0  0  0  0
  189.0270  177.5490  142.5640 C   0  0  0  0  0  0  0  0  0  0  0  0
  186.5820  177.9300  145.4030 C   0  0  0  0  0  3  0  0  0  0  0  0
  192.0290  176.0970  148.0230 O   0  0  0  0  0  0  0  0  0  0  0  0
  186.3490  178.2510  143.0210 C   0  0  0  0  0  0  0  0  0  0  0  0
  185.0090  178.6040  143.2070 C   0  0  0  0  0  3  0  0  0  0  0  0
  190.3540  177.2000  142.2950 C   0  0  0  0  0  3  0  0  0  0  0  0
  190.7880  176.8200  144.6330 C   0  0  0  0  0  0  0  0  0  0  0  0
  191.8010  176.4180  145.6720 C   0  0  0  0  0  2  0  0  0  0  0  0
  188.6600  177.8990  140.0740 C   0  0  0  0  0  2  0  0  0  0  0  0
  187.6660  178.5270  139.2220 N   0  0  0  0  0  2  0  0  0  0  0  0
  188.1350  178.3790  137.8560 C   0  0  0  0  0  2  0  0  0  0  0  0
  186.9570  178.1470  136.9220 C   0  0  0  0  0  2  0  0  0  0  0  0
  185.7530  177.5880  137.6710 C   0  0  0  0  0  2  0  0  0  0  0  0
  184.5170  177.1220  135.6970 O   0  0  0  0  0  0  0  0  0  0  0  0
  184.9490  176.6870  136.7970 C   0  0  0  0  0  0  0  0  0  0  0  0
  185.5440  174.3330  137.1780 C   0  0  0  0  0  0  0  0  0  0  0  0
  186.9390  174.4550  136.6580 C   0  0  0  0  0  1  0  0  0  0  0  0
  185.0940  173.0060  137.6710 C   0  0  0  0  0  1  0  0  0  0  0  0
  184.7130  175.3330  137.2180 N   0  0  0  0  0  0  0  0  0  0  0  0
  1  9  1  0  0  0  0
  2  5  1  0  0  0  0
  2  3  1  0  0  0  0
  3  7  1  0  0  0  0
  5 14  2  0  0  0  0
  6  1  2  0  0  0  0
  7  4  2  0  0  0  0
  8 12  2  0  0  0  0
  8 13  1  0  0  0  0
 10 19  1  0  0  0  0
 11  4  1  0  0  0  0
 11 15  2  0  0  0  0
 12 16  1  0  0  0  0
 13  2  2  0  0  0  0
 14  1  1  0  0  0  0
 16 17  2  0  0  0  0
 16  5  1  0  0  0  0
 17  6  1  0  0  0  0
 18 13  1  0  0  0  0
 18 10  2  0  0  0  0
 19  3  2  0  0  0  0
 19 20  1  0  0  0  0
 20 11  1  0  0  0  0
 21  8  1  0  0  0  0
 22 21  1  0  0  0  0
 23 22  1  0  0  0  0
 24 25  1  0  0  0  0
 24 23  1  0  0  0  0
 26 27  2  0  0  0  0
 27 31  1  0  0  0  0
 27 25  1  0  0  0  0
 28 31  2  0  0  0  0
 28 30  1  0  0  0  0
 29 28  1  0  0  0  0
M  END
>  <MODEL>
9

>  <REMARK>
 VINA RESULT:      -9.4      1.934      2.780
  Name = 
  7 active torsions:
  status: ('A' for Active; 'I' for Inactive)
    1  A    between atoms: C_3  and  C_19
    2  A    between atoms: C_3  and  C_22
    3  A    between atoms: C_7  and  N_9
    4  A    between atoms: C_7  and  C_22
    5  A    between atoms: N_9  and  C_23
    6  A    between atoms: C_15  and  C_23
    7  A    between atoms: C_19  and  N_24
                            x       y       z     vdW  Elec       q    Type
                         _______ _______ _______ _____ _____    ______ ____

>  <TORSDO>
F 7

$$$$
