=
 OpenBabel11052413313D

 28 32  0  0  1  0  0  0  0  0999 V2000
  190.0050  176.7980  141.5980 C   0  0  1  0  0  3  0  0  0  0  0  0
  184.8190  177.9460  142.5360 C   0  0  0  0  0  3  0  0  0  0  0  0
  190.2290  178.5120  144.7890 C   0  0  0  0  0  1  0  0  0  0  0  0
  185.0670  178.6450  144.8520 C   0  0  0  0  0  0  0  0  0  0  0  0
  186.9480  177.3510  143.7530 C   0  0  1  0  0  3  0  0  0  0  0  0
  183.0200  179.1270  143.6430 C   0  0  0  0  0  0  0  0  0  0  0  0
  185.6080  178.0400  143.6910 C   0  0  0  0  0  0  0  0  0  0  0  0
  187.1030  177.8900  146.1700 C   0  0  0  0  0  2  0  0  0  0  0  0
  183.7840  179.2010  144.8100 C   0  0  0  0  0  3  0  0  0  0  0  0
  189.4680  176.2340  143.8370 C   0  0  1  0  0  3  0  0  0  0  0  0
  187.7380  177.4090  142.4530 C   0  0  0  0  0  2  0  0  0  0  0  0
  185.8720  178.7990  146.1200 C   0  0  0  0  0  2  0  0  0  0  0  0
  190.9180  175.8300  143.5860 C   0  0  2  0  0  3  0  0  0  0  0  0
  189.2330  177.3670  144.8880 C   0  0  2  0  0  3  0  0  0  0  0  0
  191.7650  176.1120  144.6600 O   0  0  0  0  0  1  0  0  0  0  0  0
  181.7780  179.6650  143.6130 F   0  0  0  0  0  0  0  0  0  0  0  0
  183.5350  178.4960  142.5090 C   0  0  0  0  0  3  0  0  0  0  0  0
  187.8240  177.9640  144.8360 C   0  0  1  0  0  3  0  0  0  0  0  0
  191.3140  176.6040  142.3520 C   0  0  0  0  0  2  0  0  0  0  0  0
  188.8830  176.4850  142.5050 N   0  0  1  0  0  0  0  0  0  0  0  0
  189.9230  178.1130  140.7940 C   0  0  0  0  0  2  0  0  0  0  0  0
  189.8000  177.9370  139.3120 C   0  0  0  0  0  0  0  0  0  0  0  0
  189.5150  177.5790  136.5480 C   0  0  0  0  0  0  0  0  0  0  0  0
  190.3800  176.8280  138.6820 C   0  0  0  0  0  3  0  0  0  0  0  0
  189.0610  178.8550  138.5560 C   0  0  0  0  0  3  0  0  0  0  0  0
  188.9220  178.6790  137.1760 C   0  0  0  0  0  3  0  0  0  0  0  0
  189.3800  177.4060  135.1780 O   0  0  0  0  0  1  0  0  0  0  0  0
  190.2410  176.6520  137.3020 C   0  0  0  0  0  3  0  0  0  0  0  0
  1 21  1  1  0  0  0
  1 19  1  0  0  0  0
  1 20  1  0  0  0  0
  2  7  1  0  0  0  0
  3 14  1  0  0  0  0
  4 12  1  0  0  0  0
  5 11  1  6  0  0  0
  5 18  1  0  0  0  0
  6  9  2  0  0  0  0
  7  5  1  0  0  0  0
  7  4  2  0  0  0  0
  9  4  1  0  0  0  0
 10 14  1  0  0  0  0
 11 20  1  0  0  0  0
 12  8  1  0  0  0  0
 13 10  1  0  0  0  0
 13 15  1  0  0  0  0
 16  6  1  0  0  0  0
 17  2  2  0  0  0  0
 17  6  1  0  0  0  0
 18 14  1  0  0  0  0
 18  8  1  0  0  0  0
 19 13  1  0  0  0  0
 20 10  1  0  0  0  0
 22 21  1  0  0  0  0
 23 26  2  0  0  0  0
 23 28  1  0  0  0  0
 24 22  1  0  0  0  0
 25 22  2  0  0  0  0
 26 25  1  0  0  0  0
 27 23  1  0  0  0  0
 28 24  2  0  0  0  0
M  END
>  <MODEL>
1

>  <REMARK>
 VINA RESULT:     -10.7      0.000      0.000
  Name = 
  2 active torsions:
  status: ('A' for Active; 'I' for Inactive)
    1  A    between atoms: C_1  and  C_2
    2  A    between atoms: C_2  and  C_3
                            x       y       z     vdW  Elec       q    Type
                         _______ _______ _______ _____ _____    ______ ____

>  <TORSDO>
F 2

$$$$
=
 OpenBabel11052413313D

 28 32  0  0  1  0  0  0  0  0999 V2000
  188.2860  178.1410  144.2100 C   0  0  1  0  0  3  0  0  0  0  0  0
  187.3810  178.2280  138.8940 C   0  0  0  0  0  3  0  0  0  0  0  0
  190.5930  175.5860  143.0610 C   0  0  0  0  0  1  0  0  0  0  0  0
  189.2730  176.8510  138.2310 C   0  0  0  0  0  0  0  0  0  0  0  0
  189.2340  177.8440  140.5630 C   0  0  1  0  0  3  0  0  0  0  0  0
  187.4870  177.3150  136.6560 C   0  0  0  0  0  0  0  0  0  0  0  0
  188.5870  177.5940  139.2240 C   0  0  0  0  0  0  0  0  0  0  0  0
  191.2500  176.6100  139.8070 C   0  0  0  0  0  2  0  0  0  0  0  0
  188.7050  176.7020  136.9620 C   0  0  0  0  0  3  0  0  0  0  0  0
  190.3590  178.1590  143.0600 C   0  0  1  0  0  3  0  0  0  0  0  0
  188.2500  177.9500  141.7190 C   0  0  0  0  0  2  0  0  0  0  0  0
  190.5620  176.1250  138.5280 C   0  0  0  0  0  2  0  0  0  0  0  0
  190.6530  178.2070  144.5570 C   0  0  2  0  0  3  0  0  0  0  0  0
  190.8350  176.8800  142.2990 C   0  0  2  0  0  3  0  0  0  0  0  0
  191.7330  177.4070  144.9360 O   0  0  0  0  0  1  0  0  0  0  0  0
  186.9480  177.1680  135.4220 F   0  0  0  0  0  0  0  0  0  0  0  0
  186.8290  178.0810  137.6190 C   0  0  0  0  0  3  0  0  0  0  0  0
  190.2130  176.7300  140.9090 C   0  0  1  0  0  3  0  0  0  0  0  0
  189.3700  177.7450  145.2050 C   0  0  0  0  0  2  0  0  0  0  0  0
  188.9230  178.4720  142.9210 N   0  0  1  0  0  0  0  0  0  0  0  0
  187.0720  177.1880  144.1790 C   0  0  0  0  0  2  0  0  0  0  0  0
  185.7440  177.8660  144.0390 C   0  0  0  0  0  0  0  0  0  0  0  0
  183.2310  179.0790  143.7900 C   0  0  0  0  0  0  0  0  0  0  0  0
  185.1240  177.9510  142.7860 C   0  0  0  0  0  3  0  0  0  0  0  0
  185.0920  178.3730  145.1690 C   0  0  0  0  0  3  0  0  0  0  0  0
  183.8400  178.9810  145.0460 C   0  0  0  0  0  3  0  0  0  0  0  0
  181.9900  179.6860  143.6670 O   0  0  0  0  0  1  0  0  0  0  0  0
  183.8710  178.5600  142.6610 C   0  0  0  0  0  3  0  0  0  0  0  0
  1 21  1  6  0  0  0
  1 19  1  0  0  0  0
  2  7  1  0  0  0  0
  4 12  1  0  0  0  0
  4  7  2  0  0  0  0
  5 18  1  0  0  0  0
  5 11  1  1  0  0  0
  6  9  2  0  0  0  0
  6 17  1  0  0  0  0
  7  5  1  0  0  0  0
  8 18  1  0  0  0  0
  9  4  1  0  0  0  0
 10 13  1  0  0  0  0
 11 20  1  0  0  0  0
 12  8  1  0  0  0  0
 13 15  1  0  0  0  0
 13 19  1  0  0  0  0
 14 10  1  0  0  0  0
 14  3  1  0  0  0  0
 16  6  1  0  0  0  0
 17  2  2  0  0  0  0
 18 14  1  0  0  0  0
 20 10  1  0  0  0  0
 20  1  1  0  0  0  0
 22 21  1  0  0  0  0
 22 25  1  0  0  0  0
 23 26  1  0  0  0  0
 24 22  2  0  0  0  0
 26 25  2  0  0  0  0
 27 23  1  0  0  0  0
 28 24  1  0  0  0  0
 28 23  2  0  0  0  0
M  END
>  <MODEL>
2

>  <REMARK>
 VINA RESULT:      -9.3      2.948      6.583
  Name = 
  2 active torsions:
  status: ('A' for Active; 'I' for Inactive)
    1  A    between atoms: C_1  and  C_2
    2  A    between atoms: C_2  and  C_3
                            x       y       z     vdW  Elec       q    Type
                         _______ _______ _______ _____ _____    ______ ____

>  <TORSDO>
F 2

$$$$
=
 OpenBabel11052413313D

 28 32  0  0  1  0  0  0  0  0999 V2000
  189.7210  177.6500  140.9770 C   0  0  1  0  0  3  0  0  0  0  0  0
  184.9160  179.0450  142.9930 C   0  0  0  0  0  3  0  0  0  0  0  0
  187.4970  176.5210  138.3410 C   0  0  0  0  0  1  0  0  0  0  0  0
  183.6100  178.6720  140.9750 C   0  0  0  0  0  0  0  0  0  0  0  0
  186.1330  178.8270  140.7930 C   0  0  1  0  0  3  0  0  0  0  0  0
  182.5020  178.9560  143.1140 C   0  0  0  0  0  0  0  0  0  0  0  0
  184.8690  178.7940  141.6140 C   0  0  0  0  0  0  0  0  0  0  0  0
  184.7790  178.6520  138.7200 C   0  0  0  0  0  2  0  0  0  0  0  0
  182.4380  178.7340  141.7360 C   0  0  0  0  0  3  0  0  0  0  0  0
  188.4460  178.7270  139.2940 C   0  0  1  0  0  3  0  0  0  0  0  0
  187.3460  178.2310  141.4930 C   0  0  0  0  0  2  0  0  0  0  0  0
  183.4900  178.3770  139.5000 C   0  0  0  0  0  2  0  0  0  0  0  0
  189.8200  178.4120  138.7120 C   0  0  2  0  0  3  0  0  0  0  0  0
  187.2300  177.9870  138.6480 C   0  0  2  0  0  3  0  0  0  0  0  0
  189.7720  177.9560  137.3930 O   0  0  0  0  0  1  0  0  0  0  0  0
  181.3610  179.0190  143.8420 F   0  0  0  0  0  0  0  0  0  0  0  0
  183.7380  179.1160  143.7410 C   0  0  0  0  0  3  0  0  0  0  0  0
  185.9520  178.0670  139.4870 C   0  0  1  0  0  3  0  0  0  0  0  0
  190.3880  177.3650  139.6390 C   0  0  0  0  0  2  0  0  0  0  0  0
  188.5780  178.5570  140.7550 N   0  0  1  0  0  0  0  0  0  0  0  0
  189.4760  176.3980  141.8460 C   0  0  0  0  0  2  0  0  0  0  0  0
  189.9220  176.5230  143.2700 C   0  0  0  0  0  0  0  0  0  0  0  0
  190.7680  176.8190  145.9240 C   0  0  0  0  0  0  0  0  0  0  0  0
  191.2460  176.2360  143.6230 C   0  0  0  0  0  3  0  0  0  0  0  0
  189.0280  176.9780  144.2480 C   0  0  0  0  0  3  0  0  0  0  0  0
  189.4490  177.1220  145.5730 C   0  0  0  0  0  3  0  0  0  0  0  0
  191.1850  176.9580  147.2400 O   0  0  0  0  0  1  0  0  0  0  0  0
  191.6680  176.3800  144.9480 C   0  0  0  0  0  3  0  0  0  0  0  0
  1 21  1  6  0  0  0
  2 17  1  0  0  0  0
  3 14  1  0  0  0  0
  4  7  1  0  0  0  0
  4  9  2  0  0  0  0
  5 11  1  1  0  0  0
  5  7  1  0  0  0  0
  6 17  2  0  0  0  0
  6 16  1  0  0  0  0
  7  2  2  0  0  0  0
  8 18  1  0  0  0  0
  8 12  1  0  0  0  0
  9  6  1  0  0  0  0
 10 20  1  0  0  0  0
 12  4  1  0  0  0  0
 13 10  1  0  0  0  0
 13 19  1  0  0  0  0
 14 10  1  0  0  0  0
 14 18  1  0  0  0  0
 15 13  1  0  0  0  0
 18  5  1  0  0  0  0
 19  1  1  0  0  0  0
 20  1  1  0  0  0  0
 20 11  1  0  0  0  0
 21 22  1  0  0  0  0
 22 24  2  0  0  0  0
 22 25  1  0  0  0  0
 23 27  1  0  0  0  0
 24 28  1  0  0  0  0
 25 26  2  0  0  0  0
 26 23  1  0  0  0  0
 28 23  2  0  0  0  0
M  END
>  <MODEL>
3

>  <REMARK>
 VINA RESULT:      -8.3      1.844      5.622
  Name = 
  2 active torsions:
  status: ('A' for Active; 'I' for Inactive)
    1  A    between atoms: C_1  and  C_2
    2  A    between atoms: C_2  and  C_3
                            x       y       z     vdW  Elec       q    Type
                         _______ _______ _______ _____ _____    ______ ____

>  <TORSDO>
F 2

$$$$
=
 OpenBabel11052413313D

 28 32  0  0  1  0  0  0  0  0999 V2000
  189.6920  177.8090  139.2920 C   0  0  1  0  0  3  0  0  0  0  0  0
  185.5190  179.0120  142.4900 C   0  0  0  0  0  3  0  0  0  0  0  0
  186.9150  176.5390  137.3320 C   0  0  0  0  0  1  0  0  0  0  0  0
  183.7510  178.5480  140.8860 C   0  0  0  0  0  0  0  0  0  0  0  0
  186.1280  178.8170  140.0490 C   0  0  1  0  0  3  0  0  0  0  0  0
  183.2270  178.8130  143.2390 C   0  0  0  0  0  0  0  0  0  0  0  0
  185.1250  178.7370  141.1720 C   0  0  0  0  0  0  0  0  0  0  0  0
  184.2900  178.5480  138.4040 C   0  0  0  0  0  2  0  0  0  0  0  0
  182.8170  178.5670  141.9260 C   0  0  0  0  0  3  0  0  0  0  0  0
  187.9710  178.8000  137.9980 C   0  0  1  0  0  3  0  0  0  0  0  0
  187.5090  178.2880  140.4100 C   0  0  0  0  0  2  0  0  0  0  0  0
  183.2650  178.2260  139.4940 C   0  0  0  0  0  2  0  0  0  0  0  0
  189.1600  178.5400  137.0780 C   0  0  2  0  0  3  0  0  0  0  0  0
  186.6670  177.9950  137.6950 C   0  0  2  0  0  3  0  0  0  0  0  0
  188.7910  178.0620  135.8190 O   0  0  0  0  0  1  0  0  0  0  0  0
  182.3140  178.8340  144.2390 F   0  0  0  0  0  0  0  0  0  0  0  0
  184.5750  179.0390  143.5200 C   0  0  0  0  0  3  0  0  0  0  0  0
  185.6500  178.0290  138.8380 C   0  0  1  0  0  3  0  0  0  0  0  0
  190.0000  177.5340  137.8260 C   0  0  0  0  0  2  0  0  0  0  0  0
  188.4880  178.6580  139.3740 N   0  0  1  0  0  0  0  0  0  0  0  0
  189.7440  176.5600  140.1980 C   0  0  0  0  0  2  0  0  0  0  0  0
  190.2130  176.8160  141.5970 C   0  0  0  0  0  0  0  0  0  0  0  0
  191.1280  177.2420  144.2100 C   0  0  0  0  0  0  0  0  0  0  0  0
  189.4770  176.3360  142.6880 C   0  0  0  0  0  3  0  0  0  0  0  0
  191.4190  177.4920  141.8190 C   0  0  0  0  0  3  0  0  0  0  0  0
  191.8740  177.7090  143.1230 C   0  0  0  0  0  3  0  0  0  0  0  0
  191.5780  177.4600  145.5040 O   0  0  0  0  0  1  0  0  0  0  0  0
  189.9320  176.5520  143.9920 C   0  0  0  0  0  3  0  0  0  0  0  0
  1 20  1  0  0  0  0
  1 21  1  1  0  0  0
  2 17  1  0  0  0  0
  3 14  1  0  0  0  0
  4  7  1  0  0  0  0
  4  9  2  0  0  0  0
  5 11  1  1  0  0  0
  5  7  1  0  0  0  0
  6 17  2  0  0  0  0
  6 16  1  0  0  0  0
  7  2  2  0  0  0  0
  8 18  1  0  0  0  0
  8 12  1  0  0  0  0
  9  6  1  0  0  0  0
 10 20  1  0  0  0  0
 12  4  1  0  0  0  0
 13 19  1  0  0  0  0
 13 10  1  0  0  0  0
 14 10  1  0  0  0  0
 14 18  1  0  0  0  0
 15 13  1  0  0  0  0
 18  5  1  0  0  0  0
 19  1  1  0  0  0  0
 20 11  1  0  0  0  0
 21 22  1  0  0  0  0
 22 25  2  0  0  0  0
 22 24  1  0  0  0  0
 23 27  1  0  0  0  0
 24 28  2  0  0  0  0
 25 26  1  0  0  0  0
 26 23  2  0  0  0  0
 28 23  1  0  0  0  0
M  END
>  <MODEL>
4

>  <REMARK>
 VINA RESULT:      -8.2      1.974      5.635
  Name = 
  2 active torsions:
  status: ('A' for Active; 'I' for Inactive)
    1  A    between atoms: C_1  and  C_2
    2  A    between atoms: C_2  and  C_3
                            x       y       z     vdW  Elec       q    Type
                         _______ _______ _______ _____ _____    ______ ____

>  <TORSDO>
F 2

$$$$
=
 OpenBabel11052413313D

 28 32  0  0  1  0  0  0  0  0999 V2000
  188.2250  177.4920  140.8170 C   0  0  1  0  0  3  0  0  0  0  0  0
  187.4790  177.1970  146.1510 C   0  0  0  0  0  3  0  0  0  0  0  0
  191.4850  178.5110  142.0410 C   0  0  0  0  0  1  0  0  0  0  0  0
  189.8080  177.4380  146.8070 C   0  0  0  0  0  0  0  0  0  0  0  0
  189.2640  176.8680  144.3980 C   0  0  1  0  0  3  0  0  0  0  0  0
  188.0440  177.6760  148.4540 C   0  0  0  0  0  0  0  0  0  0  0  0
  188.8360  177.2280  145.7980 C   0  0  0  0  0  0  0  0  0  0  0  0
  191.6370  176.9140  145.1230 C   0  0  0  0  0  2  0  0  0  0  0  0
  189.4010  177.6810  148.1220 C   0  0  0  0  0  3  0  0  0  0  0  0
  190.0630  176.3680  141.8060 C   0  0  1  0  0  3  0  0  0  0  0  0
  188.3260  177.3750  143.3110 C   0  0  0  0  0  2  0  0  0  0  0  0
  191.2820  177.5060  146.4900 C   0  0  0  0  0  2  0  0  0  0  0  0
  190.2720  176.3690  140.2950 C   0  0  2  0  0  3  0  0  0  0  0  0
  191.1000  177.1730  142.6530 C   0  0  2  0  0  3  0  0  0  0  0  0
  191.5950  176.6090  139.9190 O   0  0  0  0  0  1  0  0  0  0  0  0
  187.6600  177.9080  149.7310 F   0  0  0  0  0  0  0  0  0  0  0  0
  187.0840  177.4300  147.4710 C   0  0  0  0  0  3  0  0  0  0  0  0
  190.6470  177.4270  144.0930 C   0  0  1  0  0  3  0  0  0  0  0  0
  189.3490  177.4510  139.7900 C   0  0  0  0  0  2  0  0  0  0  0  0
  188.6520  176.7480  142.0180 N   0  0  1  0  0  0  0  0  0  0  0  0
  187.6060  178.8900  141.0290 C   0  0  0  0  0  2  0  0  0  0  0  0
  186.1170  178.9010  141.1920 C   0  0  0  0  0  0  0  0  0  0  0  0
  183.3340  178.8590  141.5020 C   0  0  0  0  0  0  0  0  0  0  0  0
  185.2840  178.8650  140.0660 C   0  0  0  0  0  3  0  0  0  0  0  0
  185.5520  178.8960  142.4720 C   0  0  0  0  0  3  0  0  0  0  0  0
  184.1630  178.8790  142.6280 C   0  0  0  0  0  3  0  0  0  0  0  0
  181.9550  178.8460  141.6560 O   0  0  0  0  0  1  0  0  0  0  0  0
  183.8950  178.8480  140.2210 C   0  0  0  0  0  3  0  0  0  0  0  0
  1 21  1  1  0  0  0
  1 20  1  0  0  0  0
  2 17  1  0  0  0  0
  3 14  1  0  0  0  0
  4  9  2  0  0  0  0
  5 11  1  6  0  0  0
  5  7  1  0  0  0  0
  6 16  1  0  0  0  0
  7  2  2  0  0  0  0
  7  4  1  0  0  0  0
  8 12  1  0  0  0  0
  9  6  1  0  0  0  0
 10 20  1  0  0  0  0
 10 14  1  0  0  0  0
 12  4  1  0  0  0  0
 13 10  1  0  0  0  0
 14 18  1  0  0  0  0
 15 13  1  0  0  0  0
 17  6  2  0  0  0  0
 18  5  1  0  0  0  0
 18  8  1  0  0  0  0
 19 13  1  0  0  0  0
 19  1  1  0  0  0  0
 20 11  1  0  0  0  0
 21 22  1  0  0  0  0
 22 25  1  0  0  0  0
 23 27  1  0  0  0  0
 23 26  1  0  0  0  0
 24 28  1  0  0  0  0
 24 22  2  0  0  0  0
 25 26  2  0  0  0  0
 28 23  2  0  0  0  0
M  END
>  <MODEL>
5

>  <REMARK>
 VINA RESULT:      -8.1      3.089      5.237
  Name = 
  2 active torsions:
  status: ('A' for Active; 'I' for Inactive)
    1  A    between atoms: C_1  and  C_2
    2  A    between atoms: C_2  and  C_3
                            x       y       z     vdW  Elec       q    Type
                         _______ _______ _______ _____ _____    ______ ____

>  <TORSDO>
F 2

$$$$
=
 OpenBabel11052413313D

 28 32  0  0  1  0  0  0  0  0999 V2000
  188.9950  177.3800  145.0490 C   0  0  1  0  0  3  0  0  0  0  0  0
  184.7680  177.8870  141.7370 C   0  0  0  0  0  3  0  0  0  0  0  0
  186.8150  179.5150  147.0120 C   0  0  0  0  0  1  0  0  0  0  0  0
  183.2440  178.9140  143.3300 C   0  0  0  0  0  0  0  0  0  0  0  0
  185.3340  177.7690  144.1940 C   0  0  1  0  0  3  0  0  0  0  0  0
  182.7300  178.9330  140.9600 C   0  0  0  0  0  0  0  0  0  0  0  0
  184.4630  178.2450  143.0590 C   0  0  0  0  0  0  0  0  0  0  0  0
  183.6720  178.6400  145.8190 C   0  0  0  0  0  2  0  0  0  0  0  0
  182.3990  179.2700  142.2740 C   0  0  0  0  0  3  0  0  0  0  0  0
  186.9940  177.0460  146.2740 C   0  0  1  0  0  3  0  0  0  0  0  0
  186.8220  177.7680  143.8770 C   0  0  0  0  0  2  0  0  0  0  0  0
  182.8670  179.3480  144.7260 C   0  0  0  0  0  2  0  0  0  0  0  0
  188.1670  176.8250  147.2230 C   0  0  2  0  0  3  0  0  0  0  0  0
  186.0640  178.2630  146.5880 C   0  0  2  0  0  3  0  0  0  0  0  0
  187.9600  177.3650  148.4950 O   0  0  0  0  0  1  0  0  0  0  0  0
  181.9030  179.2790  139.9450 F   0  0  0  0  0  0  0  0  0  0  0  0
  183.9100  178.2380  140.6920 C   0  0  0  0  0  3  0  0  0  0  0  0
  185.1390  178.6390  145.4280 C   0  0  1  0  0  3  0  0  0  0  0  0
  189.3380  177.4770  146.5300 C   0  0  0  0  0  2  0  0  0  0  0  0
  187.5680  177.0330  144.9140 N   0  0  1  0  0  0  0  0  0  0  0  0
  189.5250  178.5520  144.1950 C   0  0  0  0  0  2  0  0  0  0  0  0
  190.0090  178.1670  142.8300 C   0  0  0  0  0  0  0  0  0  0  0  0
  190.8890  177.3900  140.2870 C   0  0  0  0  0  0  0  0  0  0  0  0
  191.3110  177.6810  142.6540 C   0  0  0  0  0  3  0  0  0  0  0  0
  189.1440  178.2440  141.7330 C   0  0  0  0  0  3  0  0  0  0  0  0
  189.5830  177.8600  140.4620 C   0  0  0  0  0  3  0  0  0  0  0  0
  191.3260  177.0120  139.0260 O   0  0  0  0  0  1  0  0  0  0  0  0
  191.7510  177.2970  141.3840 C   0  0  0  0  0  3  0  0  0  0  0  0
  1 21  1  6  0  0  0
  1 19  1  0  0  0  0
  2  7  1  0  0  0  0
  4 12  1  0  0  0  0
  5 11  1  6  0  0  0
  5 18  1  0  0  0  0
  6  9  2  0  0  0  0
  7  4  2  0  0  0  0
  7  5  1  0  0  0  0
  9  4  1  0  0  0  0
 10 14  1  0  0  0  0
 10 13  1  0  0  0  0
 11 20  1  0  0  0  0
 12  8  1  0  0  0  0
 13 15  1  0  0  0  0
 14  3  1  0  0  0  0
 16  6  1  0  0  0  0
 17  6  1  0  0  0  0
 17  2  2  0  0  0  0
 18  8  1  0  0  0  0
 18 14  1  0  0  0  0
 19 13  1  0  0  0  0
 20  1  1  0  0  0  0
 20 10  1  0  0  0  0
 22 21  1  0  0  0  0
 23 26  2  0  0  0  0
 23 28  1  0  0  0  0
 24 22  1  0  0  0  0
 25 22  2  0  0  0  0
 26 25  1  0  0  0  0
 27 23  1  0  0  0  0
 28 24  2  0  0  0  0
M  END
>  <MODEL>
6

>  <REMARK>
 VINA RESULT:      -8.0      2.232      3.467
  Name = 
  2 active torsions:
  status: ('A' for Active; 'I' for Inactive)
    1  A    between atoms: C_1  and  C_2
    2  A    between atoms: C_2  and  C_3
                            x       y       z     vdW  Elec       q    Type
                         _______ _______ _______ _____ _____    ______ ____

>  <TORSDO>
F 2

$$$$
=
 OpenBabel11052413313D

 28 32  0  0  1  0  0  0  0  0999 V2000
  190.5820  177.1240  138.0350 C   0  0  1  0  0  3  0  0  0  0  0  0
  190.1230  177.3700  143.4040 C   0  0  0  0  0  3  0  0  0  0  0  0
  186.9760  177.0480  138.4380 C   0  0  0  0  0  1  0  0  0  0  0  0
  187.7270  177.7780  143.4950 C   0  0  0  0  0  0  0  0  0  0  0  0
  188.9460  178.1100  141.2980 C   0  0  1  0  0  3  0  0  0  0  0  0
  188.9330  177.1280  145.4960 C   0  0  0  0  0  0  0  0  0  0  0  0
  188.9270  177.6910  142.7460 C   0  0  0  0  0  0  0  0  0  0  0  0
  186.5450  178.7190  141.4530 C   0  0  0  0  0  2  0  0  0  0  0  0
  187.7390  177.4750  144.8600 C   0  0  0  0  0  3  0  0  0  0  0  0
  188.9320  178.7260  138.6100 C   0  0  1  0  0  3  0  0  0  0  0  0
  189.9400  177.3390  140.4410 C   0  0  0  0  0  2  0  0  0  0  0  0
  186.4030  178.0960  142.8440 C   0  0  0  0  0  2  0  0  0  0  0  0
  189.0860  178.7350  137.0920 C   0  0  2  0  0  3  0  0  0  0  0  0
  187.5510  178.2530  139.1670 C   0  0  2  0  0  3  0  0  0  0  0  0
  187.8710  178.8450  136.4130 O   0  0  0  0  0  1  0  0  0  0  0  0
  188.9350  176.8400  146.8200 F   0  0  0  0  0  0  0  0  0  0  0  0
  190.1240  177.0800  144.7710 C   0  0  0  0  0  3  0  0  0  0  0  0
  187.5740  177.9300  140.6630 C   0  0  1  0  0  3  0  0  0  0  0  0
  189.7790  177.4310  136.7780 C   0  0  0  0  0  2  0  0  0  0  0  0
  190.1020  177.9900  139.1290 N   0  0  1  0  0  0  0  0  0  0  0  0
  190.7390  175.6180  138.3380 C   0  0  0  0  0  2  0  0  0  0  0  0
  191.8800  174.9510  137.6330 C   0  0  0  0  0  0  0  0  0  0  0  0
  194.0050  173.7430  136.2650 C   0  0  0  0  0  0  0  0  0  0  0  0
  191.6540  173.8160  136.8430 C   0  0  0  0  0  3  0  0  0  0  0  0
  193.1690  175.4900  137.7190 C   0  0  0  0  0  3  0  0  0  0  0  0
  194.2310  174.8850  137.0400 C   0  0  0  0  0  3  0  0  0  0  0  0
  195.0590  173.1400  135.5940 O   0  0  0  0  0  1  0  0  0  0  0  0
  192.7160  173.2110  136.1640 C   0  0  0  0  0  3  0  0  0  0  0  0
  1 21  1  1  0  0  0
  1 20  1  0  0  0  0
  2 17  1  0  0  0  0
  3 14  1  0  0  0  0
  4  9  2  0  0  0  0
  5 11  1  6  0  0  0
  5  7  1  0  0  0  0
  6 16  1  0  0  0  0
  7  2  2  0  0  0  0
  7  4  1  0  0  0  0
  8 12  1  0  0  0  0
  9  6  1  0  0  0  0
 10 20  1  0  0  0  0
 10 14  1  0  0  0  0
 12  4  1  0  0  0  0
 13 10  1  0  0  0  0
 14 18  1  0  0  0  0
 15 13  1  0  0  0  0
 17  6  2  0  0  0  0
 18  5  1  0  0  0  0
 18  8  1  0  0  0  0
 19 13  1  0  0  0  0
 19  1  1  0  0  0  0
 20 11  1  0  0  0  0
 22 25  1  0  0  0  0
 22 21  1  0  0  0  0
 23 26  1  0  0  0  0
 24 22  2  0  0  0  0
 26 25  2  0  0  0  0
 27 23  1  0  0  0  0
 28 23  2  0  0  0  0
 28 24  1  0  0  0  0
M  END
>  <MODEL>
7

>  <REMARK>
 VINA RESULT:      -8.0      3.043      5.520
  Name = 
  2 active torsions:
  status: ('A' for Active; 'I' for Inactive)
    1  A    between atoms: C_1  and  C_2
    2  A    between atoms: C_2  and  C_3
                            x       y       z     vdW  Elec       q    Type
                         _______ _______ _______ _____ _____    ______ ____

>  <TORSDO>
F 2

$$$$
=
 OpenBabel11052413313D

 28 32  0  0  1  0  0  0  0  0999 V2000
  181.8740  178.0020  139.9620 C   0  0  1  0  0  3  0  0  0  0  0  0
  186.5710  177.8780  142.6110 C   0  0  0  0  0  3  0  0  0  0  0  0
  180.7370  177.8860  143.4060 C   0  0  0  0  0  1  0  0  0  0  0  0
  185.6830  178.2710  144.8410 C   0  0  0  0  0  0  0  0  0  0  0  0
  184.2160  178.7570  142.8320 C   0  0  1  0  0  3  0  0  0  0  0  0
  187.9610  177.4890  144.5520 C   0  0  0  0  0  0  0  0  0  0  0  0
  185.4970  178.2400  143.4370 C   0  0  0  0  0  0  0  0  0  0  0  0
  183.3960  179.3460  145.0990 C   0  0  0  0  0  2  0  0  0  0  0  0
  186.9090  177.8750  145.3860 C   0  0  0  0  0  3  0  0  0  0  0  0
  181.8080  179.5560  141.7510 C   0  0  1  0  0  3  0  0  0  0  0  0
  183.8040  178.0500  141.5490 C   0  0  0  0  0  2  0  0  0  0  0  0
  184.5620  178.6280  145.7850 C   0  0  0  0  0  2  0  0  0  0  0  0
  180.4950  179.6700  140.9820 C   0  0  2  0  0  3  0  0  0  0  0  0
  181.7110  179.0410  143.2230 C   0  0  2  0  0  3  0  0  0  0  0  0
  179.3810  179.8220  141.8100 O   0  0  0  0  0  1  0  0  0  0  0  0
  189.1460  177.1120  145.0900 F   0  0  0  0  0  0  0  0  0  0  0  0
  187.7940  177.4950  143.1670 C   0  0  0  0  0  3  0  0  0  0  0  0
  183.0590  178.6160  143.8110 C   0  0  1  0  0  3  0  0  0  0  0  0
  180.4190  178.3920  140.1810 C   0  0  0  0  0  2  0  0  0  0  0  0
  182.7210  178.7900  140.8790 N   0  0  1  0  0  0  0  0  0  0  0  0
  182.1230  176.4800  139.8960 C   0  0  0  0  0  2  0  0  0  0  0  0
  182.7310  175.9960  138.6160 C   0  0  0  0  0  0  0  0  0  0  0  0
  183.8310  175.1320  136.1900 C   0  0  0  0  0  0  0  0  0  0  0  0
  182.2010  174.8770  137.9620 C   0  0  0  0  0  3  0  0  0  0  0  0
  183.8000  176.6930  138.0410 C   0  0  0  0  0  3  0  0  0  0  0  0
  184.3520  176.2600  136.8320 C   0  0  0  0  0  3  0  0  0  0  0  0
  184.3820  174.7000  134.9920 O   0  0  0  0  0  1  0  0  0  0  0  0
  182.7530  174.4430  136.7530 C   0  0  0  0  0  3  0  0  0  0  0  0
  1 21  1  1  0  0  0
  1 19  1  0  0  0  0
  1 20  1  0  0  0  0
  2 17  2  0  0  0  0
  2  7  1  0  0  0  0
  4  9  1  0  0  0  0
  4 12  1  0  0  0  0
  5 11  1  6  0  0  0
  5  7  1  0  0  0  0
  5 18  1  0  0  0  0
  6 16  1  0  0  0  0
  6  9  2  0  0  0  0
  7  4  2  0  0  0  0
  8 12  1  0  0  0  0
 10 14  1  0  0  0  0
 13 10  1  0  0  0  0
 13 15  1  0  0  0  0
 14  3  1  0  0  0  0
 14 18  1  0  0  0  0
 17  6  1  0  0  0  0
 18  8  1  0  0  0  0
 19 13  1  0  0  0  0
 20 11  1  0  0  0  0
 20 10  1  0  0  0  0
 22 21  1  0  0  0  0
 23 28  2  0  0  0  0
 23 26  1  0  0  0  0
 24 22  2  0  0  0  0
 25 22  1  0  0  0  0
 26 25  2  0  0  0  0
 27 23  1  0  0  0  0
 28 24  1  0  0  0  0
M  END
>  <MODEL>
8

>  <REMARK>
 VINA RESULT:      -7.8      4.463      6.954
  Name = 
  2 active torsions:
  status: ('A' for Active; 'I' for Inactive)
    1  A    between atoms: C_1  and  C_2
    2  A    between atoms: C_2  and  C_3
                            x       y       z     vdW  Elec       q    Type
                         _______ _______ _______ _____ _____    ______ ____

>  <TORSDO>
F 2

$$$$
=
 OpenBabel11052413313D

 28 32  0  0  1  0  0  0  0  0999 V2000
  189.5680  177.5350  141.3960 C   0  0  1  0  0  3  0  0  0  0  0  0
  184.5970  178.9670  139.8720 C   0  0  0  0  0  3  0  0  0  0  0  0
  189.1760  175.5900  138.3580 C   0  0  0  0  0  1  0  0  0  0  0  0
  184.6560  177.9860  137.6470 C   0  0  0  0  0  0  0  0  0  0  0  0
  186.8330  178.3100  138.9050 C   0  0  1  0  0  3  0  0  0  0  0  0
  182.5490  178.7000  138.6120 C   0  0  0  0  0  0  0  0  0  0  0  0
  185.3280  178.3740  138.8330 C   0  0  0  0  0  0  0  0  0  0  0  0
  186.9000  177.5020  136.5590 C   0  0  0  0  0  2  0  0  0  0  0  0
  183.2680  178.1340  137.5570 C   0  0  0  0  0  3  0  0  0  0  0  0
  189.5710  178.0390  139.0790 C   0  0  1  0  0  3  0  0  0  0  0  0
  187.3770  178.0170  140.2950 C   0  0  0  0  0  2  0  0  0  0  0  0
  185.3810  177.3210  136.5030 C   0  0  0  0  0  2  0  0  0  0  0  0
  191.0040  177.7090  139.4900 C   0  0  2  0  0  3  0  0  0  0  0  0
  188.8920  177.0570  138.0710 C   0  0  2  0  0  3  0  0  0  0  0  0
  191.6840  176.9330  138.5490 O   0  0  0  0  0  1  0  0  0  0  0  0
  181.2050  178.8440  138.5140 F   0  0  0  0  0  0  0  0  0  0  0  0
  183.2120  179.1200  139.7660 C   0  0  0  0  0  3  0  0  0  0  0  0
  187.3750  177.2330  137.9760 C   0  0  1  0  0  3  0  0  0  0  0  0
  190.8580  176.9820  140.8050 C   0  0  0  0  0  2  0  0  0  0  0  0
  188.8310  178.2530  140.3390 N   0  0  1  0  0  0  0  0  0  0  0  0
  188.7770  176.5250  142.2540 C   0  0  0  0  0  2  0  0  0  0  0  0
  188.4940  176.9740  143.6540 C   0  0  0  0  0  0  0  0  0  0  0  0
  187.9650  177.7540  146.2920 C   0  0  0  0  0  0  0  0  0  0  0  0
  187.1740  177.1760  144.0770 C   0  0  0  0  0  3  0  0  0  0  0  0
  189.5460  177.1450  144.5620 C   0  0  0  0  0  3  0  0  0  0  0  0
  189.2830  177.5380  145.8770 C   0  0  0  0  0  3  0  0  0  0  0  0
  187.7040  178.1470  147.5960 O   0  0  0  0  0  1  0  0  0  0  0  0
  186.9100  177.5690  145.3930 C   0  0  0  0  0  3  0  0  0  0  0  0
  1 21  1  6  0  0  0
  4  7  1  0  0  0  0
  5 11  1  1  0  0  0
  6 17  2  0  0  0  0
  7  5  1  0  0  0  0
  7  2  2  0  0  0  0
  8 18  1  0  0  0  0
  9  4  2  0  0  0  0
  9  6  1  0  0  0  0
 10 13  1  0  0  0  0
 10 20  1  0  0  0  0
 11 20  1  0  0  0  0
 12  8  1  0  0  0  0
 12  4  1  0  0  0  0
 13 19  1  0  0  0  0
 14  3  1  0  0  0  0
 14 10  1  0  0  0  0
 15 13  1  0  0  0  0
 16  6  1  0  0  0  0
 17  2  1  0  0  0  0
 18 14  1  0  0  0  0
 18  5  1  0  0  0  0
 19  1  1  0  0  0  0
 20  1  1  0  0  0  0
 21 22  1  0  0  0  0
 22 24  2  0  0  0  0
 22 25  1  0  0  0  0
 23 27  1  0  0  0  0
 24 28  1  0  0  0  0
 25 26  2  0  0  0  0
 26 23  1  0  0  0  0
 28 23  2  0  0  0  0
M  END
>  <MODEL>
9

>  <REMARK>
 VINA RESULT:      -7.7      2.824      6.473
  Name = 
  2 active torsions:
  status: ('A' for Active; 'I' for Inactive)
    1  A    between atoms: C_1  and  C_2
    2  A    between atoms: C_2  and  C_3
                            x       y       z     vdW  Elec       q    Type
                         _______ _______ _______ _____ _____    ______ ____

>  <TORSDO>
F 2

$$$$
