=
 OpenBabel11052413323D

 28 31  0  0  1  0  0  0  0  0999 V2000
  185.2480  178.3780  142.9260 C   0  0  0  0  0  3  0  0  0  0  0  0
  189.6230  177.8590  147.1440 C   0  0  0  0  0  2  0  0  0  0  0  0
  184.8740  178.4020  145.3200 C   0  0  0  0  0  0  0  0  0  0  0  0
  187.0570  177.4990  144.4680 C   0  0  1  0  0  3  0  0  0  0  0  0
  183.1540  179.2050  143.8180 C   0  0  0  0  0  0  0  0  0  0  0  0
  185.7110  178.1280  144.2270 C   0  0  0  0  0  0  0  0  0  0  0  0
  186.8040  178.4060  146.8770 C   0  0  0  0  0  2  0  0  0  0  0  0
  183.5980  178.9350  145.1150 C   0  0  0  0  0  3  0  0  0  0  0  0
  189.9360  177.5960  144.7350 C   0  0  1  0  0  3  0  0  0  0  0  0
  187.9380  177.8040  143.4130 O   0  0  0  0  0  0  0  0  0  0  0  0
  185.3280  178.0570  146.6980 C   0  0  0  0  0  2  0  0  0  0  0  0
  189.0610  177.7730  145.9410 C   0  0  0  0  0  0  0  0  0  0  0  0
  181.9210  179.7280  143.6190 F   0  0  0  0  0  0  0  0  0  0  0  0
  183.9770  178.9220  142.7230 C   0  0  0  0  0  3  0  0  0  0  0  0
  187.6370  177.9200  145.7650 N   0  0  0  0  0  0  0  0  0  0  0  0
  189.0720  176.9970  143.6120 C   0  0  1  0  0  3  0  0  0  0  0  0
  189.8360  176.7850  142.3050 C   0  0  1  0  0  3  0  0  0  0  0  0
  190.0940  175.4270  142.1120 O   0  0  0  0  0  1  0  0  0  0  0  0
  189.0700  177.3230  141.1330 C   0  0  0  0  0  0  0  0  0  0  0  0
  189.6830  177.4470  139.8470 N   0  0  0  0  0  2  0  0  0  0  0  0
  187.8720  177.6810  141.2820 O   0  0  0  0  0  0  0  0  0  0  0  0
  191.4680  177.0070  138.1110 C   0  0  2  0  0  3  0  0  0  0  0  0
  192.1470  177.5530  140.5350 C   0  0  0  0  0  1  0  0  0  0  0  0
  191.0710  177.0870  139.5740 C   0  0  1  0  0  0  0  0  0  0  0  0
  190.3630  177.1940  137.2780 O   0  0  0  0  0  1  0  0  0  0  0  0
  191.2700  175.7350  138.9350 C   0  0  0  0  0  2  0  0  0  0  0  0
  191.6950  179.0350  144.0610 O   0  0  0  0  0  0  0  0  0  0  0  0
  190.5150  178.9280  144.3480 C   0  0  0  0  0  3  0  0  0  0  0  0
  1  6  1  0  0  0  0
  3 11  1  0  0  0  0
  4 10  1  6  0  0  0
  4 15  1  0  0  0  0
  5  8  2  0  0  0  0
  6  4  1  0  0  0  0
  6  3  2  0  0  0  0
  8  3  1  0  0  0  0
  9 28  1  6  0  0  0
  9 12  1  0  0  0  0
 10 16  1  0  0  0  0
 11  7  1  0  0  0  0
 12  2  2  0  0  0  0
 13  5  1  0  0  0  0
 14  1  2  0  0  0  0
 14  5  1  0  0  0  0
 15 12  1  0  0  0  0
 15  7  1  0  0  0  0
 16 17  1  6  0  0  0
 16  9  1  0  0  0  0
 17 18  1  6  0  0  0
 19 21  2  0  0  0  0
 19 17  1  0  0  0  0
 20 19  1  0  0  0  0
 22 25  1  6  0  0  0
 22 26  1  0  0  0  0
 22 24  1  0  0  0  0
 24 20  1  0  0  0  0
 24 23  1  1  0  0  0
 26 24  1  0  0  0  0
 27 28  2  0  0  0  0
M  END
>  <MODEL>
1

>  <REMARK>
 VINA RESULT:      -9.1      0.000      0.000
  Name = 
  4 active torsions:
  status: ('A' for Active; 'I' for Inactive)
    1  A    between atoms: C_1  and  C_2
    2  A    between atoms: C_1  and  C_27
    3  A    between atoms: N_3  and  C_11
    4  A    between atoms: C_16  and  C_21
                            x       y       z     vdW  Elec       q    Type
                         _______ _______ _______ _____ _____    ______ ____

>  <TORSDO>
F 4

$$$$
=
 OpenBabel11052413323D

 28 31  0  0  1  0  0  0  0  0999 V2000
  186.7840  177.7950  142.7820 C   0  0  0  0  0  3  0  0  0  0  0  0
  180.8630  179.1360  143.3660 C   0  0  0  0  0  2  0  0  0  0  0  0
  185.6750  178.2820  144.8800 C   0  0  0  0  0  0  0  0  0  0  0  0
  184.5320  178.9570  142.7480 C   0  0  1  0  0  3  0  0  0  0  0  0
  187.8420  177.2030  144.8780 C   0  0  0  0  0  0  0  0  0  0  0  0
  185.6790  178.3080  143.4770 C   0  0  0  0  0  0  0  0  0  0  0  0
  183.2150  178.5820  144.9420 C   0  0  0  0  0  2  0  0  0  0  0  0
  186.7560  177.7340  145.5780 C   0  0  0  0  0  3  0  0  0  0  0  0
  182.0590  178.8810  141.2510 C   0  0  1  0  0  3  0  0  0  0  0  0
  184.4110  178.4240  141.4500 O   0  0  0  0  0  0  0  0  0  0  0  0
  184.5420  178.9040  145.6250 C   0  0  0  0  0  2  0  0  0  0  0  0
  182.0300  178.9730  142.7480 C   0  0  0  0  0  0  0  0  0  0  0  0
  188.8860  176.6650  145.5530 F   0  0  0  0  0  0  0  0  0  0  0  0
  187.8590  177.2380  143.4800 C   0  0  0  0  0  3  0  0  0  0  0  0
  183.2580  178.8110  143.4890 N   0  0  0  0  0  0  0  0  0  0  0  0
  183.4790  179.2400  140.7850 C   0  0  1  0  0  3  0  0  0  0  0  0
  183.6600  179.1610  139.2680 C   0  0  1  0  0  3  0  0  0  0  0  0
  183.6110  180.4400  138.7100 O   0  0  0  0  0  1  0  0  0  0  0  0
  184.9590  178.5040  138.9080 C   0  0  0  0  0  0  0  0  0  0  0  0
  184.9900  177.3460  138.0710 N   0  0  0  0  0  2  0  0  0  0  0  0
  186.0400  178.9710  139.3550 O   0  0  0  0  0  0  0  0  0  0  0  0
  183.7620  176.5290  136.0160 C   0  0  2  0  0  3  0  0  0  0  0  0
  183.1000  175.6400  138.3410 C   0  0  0  0  0  1  0  0  0  0  0  0
  183.7950  176.7100  137.5230 C   0  0  1  0  0  0  0  0  0  0  0  0
  184.8720  177.1240  135.4120 O   0  0  0  0  0  1  0  0  0  0  0  0
  182.9140  177.6080  136.6900 C   0  0  0  0  0  2  0  0  0  0  0  0
  180.5880  177.2760  140.3090 O   0  0  0  0  0  0  0  0  0  0  0  0
  181.6670  177.4890  140.8370 C   0  0  0  0  0  3  0  0  0  0  0  0
  1  6  2  0  0  0  0
  1 14  1  0  0  0  0
  3  8  2  0  0  0  0
  3 11  1  0  0  0  0
  4 10  1  6  0  0  0
  4  6  1  0  0  0  0
  4 15  1  0  0  0  0
  5 13  1  0  0  0  0
  5  8  1  0  0  0  0
  6  3  1  0  0  0  0
  7 11  1  0  0  0  0
  9 28  1  1  0  0  0
  9 12  1  0  0  0  0
 12  2  2  0  0  0  0
 12 15  1  0  0  0  0
 14  5  2  0  0  0  0
 15  7  1  0  0  0  0
 16 17  1  6  0  0  0
 16  9  1  0  0  0  0
 16 10  1  0  0  0  0
 17 18  1  1  0  0  0
 19 17  1  0  0  0  0
 19 21  2  0  0  0  0
 20 19  1  0  0  0  0
 22 25  1  6  0  0  0
 22 26  1  0  0  0  0
 22 24  1  0  0  0  0
 24 20  1  0  0  0  0
 24 23  1  1  0  0  0
 26 24  1  0  0  0  0
 27 28  2  0  0  0  0
M  END
>  <MODEL>
2

>  <REMARK>
 VINA RESULT:      -9.0      4.102      6.587
  Name = 
  4 active torsions:
  status: ('A' for Active; 'I' for Inactive)
    1  A    between atoms: C_1  and  C_2
    2  A    between atoms: C_1  and  C_27
    3  A    between atoms: N_3  and  C_11
    4  A    between atoms: C_16  and  C_21
                            x       y       z     vdW  Elec       q    Type
                         _______ _______ _______ _____ _____    ______ ____

>  <TORSDO>
F 4

$$$$
=
 OpenBabel11052413323D

 28 31  0  0  1  0  0  0  0  0999 V2000
  187.3640  177.6060  143.4750 C   0  0  0  0  0  3  0  0  0  0  0  0
  181.5140  178.9880  142.4450 C   0  0  0  0  0  2  0  0  0  0  0  0
  185.7850  178.3020  145.1760 C   0  0  0  0  0  0  0  0  0  0  0  0
  185.2170  178.7540  142.7720 C   0  0  1  0  0  3  0  0  0  0  0  0
  187.8610  177.2320  145.8150 C   0  0  0  0  0  0  0  0  0  0  0  0
  186.1340  178.1850  143.8220 C   0  0  0  0  0  0  0  0  0  0  0  0
  183.3930  178.6020  144.5990 C   0  0  0  0  0  2  0  0  0  0  0  0
  186.6480  177.8300  146.1700 C   0  0  0  0  0  3  0  0  0  0  0  0
  183.1860  178.5220  140.7260 C   0  0  1  0  0  3  0  0  0  0  0  0
  185.4060  178.0920  141.5430 O   0  0  0  0  0  0  0  0  0  0  0  0
  184.5190  178.9940  145.5530 C   0  0  0  0  0  2  0  0  0  0  0  0
  182.7930  178.7660  142.1530 C   0  0  0  0  0  0  0  0  0  0  0  0
  188.6930  176.7680  146.7770 F   0  0  0  0  0  0  0  0  0  0  0  0
  188.2210  177.1250  144.4690 C   0  0  0  0  0  3  0  0  0  0  0  0
  183.7970  178.6820  143.1860 N   0  0  0  0  0  0  0  0  0  0  0  0
  184.6860  178.8340  140.5920 C   0  0  1  0  0  3  0  0  0  0  0  0
  185.2310  178.6020  139.1810 C   0  0  1  0  0  3  0  0  0  0  0  0
  184.9960  179.7230  138.3830 O   0  0  0  0  0  1  0  0  0  0  0  0
  186.7000  178.3030  139.2090 C   0  0  0  0  0  0  0  0  0  0  0  0
  187.3120  177.5220  138.1800 N   0  0  0  0  0  2  0  0  0  0  0  0
  187.4080  178.7380  140.1560 O   0  0  0  0  0  0  0  0  0  0  0  0
  187.4140  176.4930  135.8720 C   0  0  2  0  0  3  0  0  0  0  0  0
  185.3230  176.1470  137.3360 C   0  0  0  0  0  1  0  0  0  0  0  0
  186.5790  176.9490  137.0550 C   0  0  1  0  0  0  0  0  0  0  0  0
  188.7600  176.8200  136.0490 O   0  0  0  0  0  1  0  0  0  0  0  0
  186.5880  177.7770  135.7940 C   0  0  0  0  0  2  0  0  0  0  0  0
  182.1260  176.8320  139.4430 O   0  0  0  0  0  0  0  0  0  0  0  0
  182.8760  177.0940  140.3680 C   0  0  0  0  0  3  0  0  0  0  0  0
  1  6  2  0  0  0  0
  1 14  1  0  0  0  0
  3 11  1  0  0  0  0
  3  8  2  0  0  0  0
  4 10  1  6  0  0  0
  4 15  1  0  0  0  0
  4  6  1  0  0  0  0
  5  8  1  0  0  0  0
  5 13  1  0  0  0  0
  6  3  1  0  0  0  0
  7 11  1  0  0  0  0
  9 28  1  1  0  0  0
  9 12  1  0  0  0  0
 12  2  2  0  0  0  0
 12 15  1  0  0  0  0
 14  5  2  0  0  0  0
 15  7  1  0  0  0  0
 16 17  1  6  0  0  0
 16  9  1  0  0  0  0
 16 10  1  0  0  0  0
 17 18  1  6  0  0  0
 17 19  1  0  0  0  0
 19 21  2  0  0  0  0
 20 19  1  0  0  0  0
 22 25  1  1  0  0  0
 22 24  1  0  0  0  0
 24 23  1  1  0  0  0
 24 20  1  0  0  0  0
 26 22  1  0  0  0  0
 26 24  1  0  0  0  0
 27 28  2  0  0  0  0
M  END
>  <MODEL>
3

>  <REMARK>
 VINA RESULT:      -8.9      3.425      5.641
  Name = 
  4 active torsions:
  status: ('A' for Active; 'I' for Inactive)
    1  A    between atoms: C_1  and  C_2
    2  A    between atoms: C_1  and  C_27
    3  A    between atoms: N_3  and  C_11
    4  A    between atoms: C_16  and  C_21
                            x       y       z     vdW  Elec       q    Type
                         _______ _______ _______ _____ _____    ______ ____

>  <TORSDO>
F 4

$$$$
=
 OpenBabel11052413323D

 28 31  0  0  1  0  0  0  0  0999 V2000
  186.1630  178.8760  142.2640 C   0  0  0  0  0  3  0  0  0  0  0  0
  191.0660  176.4580  144.9680 C   0  0  0  0  0  2  0  0  0  0  0  0
  186.1680  177.8450  144.4560 C   0  0  0  0  0  0  0  0  0  0  0  0
  188.0940  177.3700  142.9160 C   0  0  1  0  0  3  0  0  0  0  0  0
  184.3230  179.2630  143.7900 C   0  0  0  0  0  0  0  0  0  0  0  0
  186.7940  178.0670  143.2210 C   0  0  0  0  0  0  0  0  0  0  0  0
  188.3060  177.1210  145.4820 C   0  0  0  0  0  2  0  0  0  0  0  0
  184.9340  178.4380  144.7390 C   0  0  0  0  0  3  0  0  0  0  0  0
  190.9740  177.2820  142.6700 C   0  0  1  0  0  3  0  0  0  0  0  0
  188.8270  178.0930  141.9550 O   0  0  0  0  0  0  0  0  0  0  0  0
  186.7940  176.9170  145.4420 C   0  0  0  0  0  2  0  0  0  0  0  0
  190.3180  176.9250  143.9710 C   0  0  0  0  0  0  0  0  0  0  0  0
  183.1320  179.8440  144.0650 F   0  0  0  0  0  0  0  0  0  0  0  0
  184.9350  179.4780  142.5510 C   0  0  0  0  0  3  0  0  0  0  0  0
  188.9050  177.1620  144.1380 N   0  0  0  0  0  0  0  0  0  0  0  0
  189.8930  177.2600  141.5770 C   0  0  1  0  0  3  0  0  0  0  0  0
  190.4210  177.6340  140.1910 C   0  0  1  0  0  3  0  0  0  0  0  0
  191.7990  177.8540  140.2440 O   0  0  0  0  0  1  0  0  0  0  0  0
  190.1210  176.5610  139.1870 C   0  0  0  0  0  0  0  0  0  0  0  0
  189.1170  176.7500  138.1860 N   0  0  0  0  0  2  0  0  0  0  0  0
  190.7530  175.4720  139.2280 O   0  0  0  0  0  0  0  0  0  0  0  0
  188.1300  178.5130  136.6650 C   0  0  2  0  0  3  0  0  0  0  0  0
  187.1450  178.1550  139.0180 C   0  0  0  0  0  1  0  0  0  0  0  0
  188.3100  177.9610  138.0680 C   0  0  1  0  0  0  0  0  0  0  0  0
  188.8870  177.7930  135.7380 O   0  0  0  0  0  1  0  0  0  0  0  0
  189.0670  179.2000  137.6580 C   0  0  0  0  0  2  0  0  0  0  0  0
  191.3400  179.3690  143.7350 O   0  0  0  0  0  0  0  0  0  0  0  0
  191.6140  178.6370  142.7980 C   0  0  0  0  0  3  0  0  0  0  0  0
  1 14  2  0  0  0  0
  1  6  1  0  0  0  0
  3  8  1  0  0  0  0
  3 11  1  0  0  0  0
  4 10  1  6  0  0  0
  4  6  1  0  0  0  0
  4 15  1  0  0  0  0
  5 13  1  0  0  0  0
  5  8  2  0  0  0  0
  6  3  2  0  0  0  0
  9 28  1  1  0  0  0
  9 12  1  0  0  0  0
 11  7  1  0  0  0  0
 12 15  1  0  0  0  0
 12  2  2  0  0  0  0
 14  5  1  0  0  0  0
 15  7  1  0  0  0  0
 16 17  1  6  0  0  0
 16 10  1  0  0  0  0
 16  9  1  0  0  0  0
 17 18  1  1  0  0  0
 19 21  2  0  0  0  0
 19 17  1  0  0  0  0
 20 19  1  0  0  0  0
 22 25  1  6  0  0  0
 22 26  1  0  0  0  0
 22 24  1  0  0  0  0
 24 20  1  0  0  0  0
 24 23  1  1  0  0  0
 26 24  1  0  0  0  0
 28 27  2  0  0  0  0
M  END
>  <MODEL>
4

>  <REMARK>
 VINA RESULT:      -8.8      1.926      2.577
  Name = 
  4 active torsions:
  status: ('A' for Active; 'I' for Inactive)
    1  A    between atoms: C_1  and  C_2
    2  A    between atoms: C_1  and  C_27
    3  A    between atoms: N_3  and  C_11
    4  A    between atoms: C_16  and  C_21
                            x       y       z     vdW  Elec       q    Type
                         _______ _______ _______ _____ _____    ______ ____

>  <TORSDO>
F 4

$$$$
=
 OpenBabel11052413323D

 28 31  0  0  1  0  0  0  0  0999 V2000
  187.6840  177.7030  142.5030 C   0  0  0  0  0  3  0  0  0  0  0  0
  182.5990  178.8070  139.3220 C   0  0  0  0  0  2  0  0  0  0  0  0
  185.5870  178.4510  143.4590 C   0  0  0  0  0  0  0  0  0  0  0  0
  185.9300  178.7260  140.9860 C   0  0  1  0  0  3  0  0  0  0  0  0
  187.2970  177.4990  144.8840 C   0  0  0  0  0  0  0  0  0  0  0  0
  186.4060  178.2590  142.3370 C   0  0  0  0  0  0  0  0  0  0  0  0
  183.5670  178.6280  142.0330 C   0  0  0  0  0  2  0  0  0  0  0  0
  186.0330  178.0750  144.7300 C   0  0  0  0  0  3  0  0  0  0  0  0
  184.7860  178.2900  138.3660 C   0  0  1  0  0  3  0  0  0  0  0  0
  186.5600  177.9940  139.9620 O   0  0  0  0  0  0  0  0  0  0  0  0
  184.2640  179.1200  143.2990 C   0  0  0  0  0  2  0  0  0  0  0  0
  183.8980  178.6120  139.5310 C   0  0  0  0  0  0  0  0  0  0  0  0
  187.7260  177.1280  146.1140 F   0  0  0  0  0  0  0  0  0  0  0  0
  188.1240  177.3180  143.7720 C   0  0  0  0  0  3  0  0  0  0  0  0
  184.4570  178.6310  140.8610 N   0  0  0  0  0  0  0  0  0  0  0  0
  186.2290  178.6470  138.7630 C   0  0  1  0  0  3  0  0  0  0  0  0
  187.2530  178.3440  137.6680 C   0  0  1  0  0  3  0  0  0  0  0  0
  187.2610  179.3680  136.7190 O   0  0  0  0  0  1  0  0  0  0  0  0
  188.6280  178.1770  138.2410 C   0  0  0  0  0  0  0  0  0  0  0  0
  189.4630  177.0860  137.8450 N   0  0  0  0  0  2  0  0  0  0  0  0
  189.0550  179.0030  139.0910 O   0  0  0  0  0  0  0  0  0  0  0  0
  190.1710  175.3900  136.1080 C   0  0  2  0  0  3  0  0  0  0  0  0
  187.8550  175.1940  137.2190 C   0  0  0  0  0  1  0  0  0  0  0  0
  189.0550  176.0600  136.8890 C   0  0  1  0  0  0  0  0  0  0  0  0
  191.4060  175.9800  136.3840 O   0  0  0  0  0  1  0  0  0  0  0  0
  189.2580  176.4170  135.4380 C   0  0  0  0  0  2  0  0  0  0  0  0
  184.3250  176.4840  136.9000 O   0  0  0  0  0  0  0  0  0  0  0  0
  184.6420  176.8330  138.0260 C   0  0  0  0  0  3  0  0  0  0  0  0
  1 14  1  0  0  0  0
  2 12  2  0  0  0  0
  3  8  2  0  0  0  0
  4 10  1  6  0  0  0
  4  6  1  0  0  0  0
  5 13  1  0  0  0  0
  6  1  2  0  0  0  0
  6  3  1  0  0  0  0
  7 11  1  0  0  0  0
  8  5  1  0  0  0  0
  9 28  1  1  0  0  0
  9 16  1  0  0  0  0
  9 12  1  0  0  0  0
 11  3  1  0  0  0  0
 12 15  1  0  0  0  0
 14  5  2  0  0  0  0
 15  4  1  0  0  0  0
 15  7  1  0  0  0  0
 16 17  1  6  0  0  0
 16 10  1  0  0  0  0
 17 18  1  6  0  0  0
 17 19  1  0  0  0  0
 19 21  2  0  0  0  0
 20 19  1  0  0  0  0
 22 25  1  1  0  0  0
 22 24  1  0  0  0  0
 24 23  1  1  0  0  0
 24 20  1  0  0  0  0
 26 22  1  0  0  0  0
 26 24  1  0  0  0  0
 27 28  2  0  0  0  0
M  END
>  <MODEL>
5

>  <REMARK>
 VINA RESULT:      -8.3      3.335      5.589
  Name = 
  4 active torsions:
  status: ('A' for Active; 'I' for Inactive)
    1  A    between atoms: C_1  and  C_2
    2  A    between atoms: C_1  and  C_27
    3  A    between atoms: N_3  and  C_11
    4  A    between atoms: C_16  and  C_21
                            x       y       z     vdW  Elec       q    Type
                         _______ _______ _______ _____ _____    ______ ____

>  <TORSDO>
F 4

$$$$
=
 OpenBabel11052413323D

 28 31  0  0  1  0  0  0  0  0999 V2000
  190.5680  176.4750  142.2930 C   0  0  0  0  0  3  0  0  0  0  0  0
  187.7340  177.9600  137.1010 C   0  0  0  0  0  2  0  0  0  0  0  0
  188.6040  177.8860  142.1420 C   0  0  0  0  0  0  0  0  0  0  0  0
  189.9510  177.4980  140.0580 C   0  0  1  0  0  3  0  0  0  0  0  0
  189.2400  176.9190  144.2690 C   0  0  0  0  0  0  0  0  0  0  0  0
  189.6950  177.2570  141.5230 C   0  0  0  0  0  0  0  0  0  0  0  0
  187.4610  178.1910  139.9630 C   0  0  0  0  0  2  0  0  0  0  0  0
  188.3800  177.7200  143.5130 C   0  0  0  0  0  3  0  0  0  0  0  0
  189.8480  176.7460  137.2670 C   0  0  1  0  0  3  0  0  0  0  0  0
  190.6730  176.4240  139.5030 O   0  0  0  0  0  0  0  0  0  0  0  0
  187.7240  178.7870  141.3440 C   0  0  0  0  0  2  0  0  0  0  0  0
  188.7210  177.5230  137.8810 C   0  0  0  0  0  0  0  0  0  0  0  0
  189.0190  176.7530  145.5940 F   0  0  0  0  0  0  0  0  0  0  0  0
  190.3370  176.3010  143.6610 C   0  0  0  0  0  3  0  0  0  0  0  0
  188.6920  177.7190  139.3090 N   0  0  0  0  0  0  0  0  0  0  0  0
  191.0540  176.8410  138.2160 C   0  0  1  0  0  3  0  0  0  0  0  0
  192.2780  176.0660  137.7230 C   0  0  1  0  0  3  0  0  0  0  0  0
  192.5400  176.3780  136.3880 O   0  0  0  0  0  1  0  0  0  0  0  0
  193.4860  176.3700  138.5580 C   0  0  0  0  0  0  0  0  0  0  0  0
  194.6810  175.5950  138.4330 N   0  0  0  0  0  2  0  0  0  0  0  0
  193.4490  177.3160  139.3890 O   0  0  0  0  0  0  0  0  0  0  0  0
  196.2380  174.0590  137.1640 C   0  0  2  0  0  3  0  0  0  0  0  0
  193.8020  173.3410  137.5930 C   0  0  0  0  0  1  0  0  0  0  0  0
  194.8190  174.4630  137.5210 C   0  0  1  0  0  0  0  0  0  0  0  0
  197.1680  174.9460  137.7090 O   0  0  0  0  0  1  0  0  0  0  0  0
  195.3620  174.8010  136.1550 C   0  0  0  0  0  2  0  0  0  0  0  0
  189.2160  174.8870  135.9370 O   0  0  0  0  0  0  0  0  0  0  0  0
  189.4080  175.3230  137.0600 C   0  0  0  0  0  3  0  0  0  0  0  0
  1 14  1  0  0  0  0
  2 12  2  0  0  0  0
  3  8  2  0  0  0  0
  4 10  1  6  0  0  0
  4  6  1  0  0  0  0
  5 13  1  0  0  0  0
  6  3  1  0  0  0  0
  6  1  2  0  0  0  0
  7 11  1  0  0  0  0
  8  5  1  0  0  0  0
  9 28  1  1  0  0  0
  9 12  1  0  0  0  0
  9 16  1  0  0  0  0
 11  3  1  0  0  0  0
 12 15  1  0  0  0  0
 14  5  2  0  0  0  0
 15  7  1  0  0  0  0
 15  4  1  0  0  0  0
 16 17  1  6  0  0  0
 16 10  1  0  0  0  0
 17 18  1  6  0  0  0
 17 19  1  0  0  0  0
 19 21  2  0  0  0  0
 20 19  1  0  0  0  0
 22 24  1  0  0  0  0
 22 25  1  1  0  0  0
 24 23  1  1  0  0  0
 24 20  1  0  0  0  0
 26 22  1  0  0  0  0
 26 24  1  0  0  0  0
 27 28  2  0  0  0  0
M  END
>  <MODEL>
6

>  <REMARK>
 VINA RESULT:      -8.1      3.563      6.488
  Name = 
  4 active torsions:
  status: ('A' for Active; 'I' for Inactive)
    1  A    between atoms: C_1  and  C_2
    2  A    between atoms: C_1  and  C_27
    3  A    between atoms: N_3  and  C_11
    4  A    between atoms: C_16  and  C_21
                            x       y       z     vdW  Elec       q    Type
                         _______ _______ _______ _____ _____    ______ ____

>  <TORSDO>
F 4

$$$$
=
 OpenBabel11052413323D

 28 31  0  0  1  0  0  0  0  0999 V2000
  185.0850  178.2310  142.6800 C   0  0  0  0  0  3  0  0  0  0  0  0
  179.5970  177.7290  140.0690 C   0  0  0  0  0  2  0  0  0  0  0  0
  183.0030  178.9550  143.6840 C   0  0  0  0  0  0  0  0  0  0  0  0
  183.0480  178.5460  141.2060 C   0  0  1  0  0  3  0  0  0  0  0  0
  184.9760  178.6750  145.0580 C   0  0  0  0  0  0  0  0  0  0  0  0
  183.7260  178.5510  142.5510 C   0  0  0  0  0  0  0  0  0  0  0  0
  180.8470  178.4610  142.5630 C   0  0  0  0  0  2  0  0  0  0  0  0
  183.6280  179.0200  144.9330 C   0  0  0  0  0  3  0  0  0  0  0  0
  181.7320  177.2340  138.9900 C   0  0  1  0  0  3  0  0  0  0  0  0
  183.6810  177.6330  140.3410 O   0  0  0  0  0  0  0  0  0  0  0  0
  181.5810  179.3800  143.5370 C   0  0  0  0  0  2  0  0  0  0  0  0
  180.9250  177.7650  140.1380 C   0  0  0  0  0  0  0  0  0  0  0  0
  185.5800  178.7310  146.2680 F   0  0  0  0  0  0  0  0  0  0  0  0
  185.7070  178.2850  143.9310 C   0  0  0  0  0  3  0  0  0  0  0  0
  181.6040  178.2360  141.3200 N   0  0  0  0  0  0  0  0  0  0  0  0
  183.1320  177.8670  139.0680 C   0  0  1  0  0  3  0  0  0  0  0  0
  184.0760  177.3900  137.9630 C   0  0  1  0  0  3  0  0  0  0  0  0
  183.4960  177.5980  136.7100 O   0  0  0  0  0  1  0  0  0  0  0  0
  185.3950  178.1010  138.0310 C   0  0  0  0  0  0  0  0  0  0  0  0
  186.5440  177.5860  137.3560 N   0  0  0  0  0  2  0  0  0  0  0  0
  185.4980  179.1640  138.7000 O   0  0  0  0  0  0  0  0  0  0  0  0
  187.6550  176.1950  135.5590 C   0  0  2  0  0  3  0  0  0  0  0  0
  186.0540  175.0750  137.2380 C   0  0  0  0  0  1  0  0  0  0  0  0
  186.5400  176.3500  136.5770 C   0  0  1  0  0  0  0  0  0  0  0  0
  188.4350  177.3510  135.4840 O   0  0  0  0  0  1  0  0  0  0  0  0
  186.2290  176.5170  135.1100 C   0  0  0  0  0  2  0  0  0  0  0  0
  181.4080  175.0390  138.1540 O   0  0  0  0  0  0  0  0  0  0  0  0
  181.7880  175.7350  139.0810 C   0  0  0  0  0  3  0  0  0  0  0  0
  1 14  1  0  0  0  0
  2 12  2  0  0  0  0
  3  8  2  0  0  0  0
  4 10  1  6  0  0  0
  4 15  1  0  0  0  0
  4  6  1  0  0  0  0
  5 13  1  0  0  0  0
  6  1  2  0  0  0  0
  6  3  1  0  0  0  0
  7 11  1  0  0  0  0
  8  5  1  0  0  0  0
  9 16  1  0  0  0  0
  9 28  1  1  0  0  0
  9 12  1  0  0  0  0
 11  3  1  0  0  0  0
 12 15  1  0  0  0  0
 14  5  2  0  0  0  0
 15  7  1  0  0  0  0
 16 17  1  6  0  0  0
 16 10  1  0  0  0  0
 17 18  1  6  0  0  0
 17 19  1  0  0  0  0
 19 21  2  0  0  0  0
 20 19  1  0  0  0  0
 22 25  1  1  0  0  0
 22 24  1  0  0  0  0
 24 23  1  1  0  0  0
 24 20  1  0  0  0  0
 26 22  1  0  0  0  0
 26 24  1  0  0  0  0
 27 28  2  0  0  0  0
M  END
>  <MODEL>
7

>  <REMARK>
 VINA RESULT:      -8.1      4.351      6.688
  Name = 
  4 active torsions:
  status: ('A' for Active; 'I' for Inactive)
    1  A    between atoms: C_1  and  C_2
    2  A    between atoms: C_1  and  C_27
    3  A    between atoms: N_3  and  C_11
    4  A    between atoms: C_16  and  C_21
                            x       y       z     vdW  Elec       q    Type
                         _______ _______ _______ _____ _____    ______ ____

>  <TORSDO>
F 4

$$$$
=
 OpenBabel11052413323D

 28 31  0  0  1  0  0  0  0  0999 V2000
  185.9780  178.1950  144.0310 C   0  0  0  0  0  3  0  0  0  0  0  0
  188.4450  178.2490  138.4530 C   0  0  0  0  0  2  0  0  0  0  0  0
  184.8280  178.8900  142.0150 C   0  0  0  0  0  0  0  0  0  0  0  0
  187.3360  178.7720  141.9710 C   0  0  1  0  0  3  0  0  0  0  0  0
  183.5630  178.3630  144.0100 C   0  0  0  0  0  0  0  0  0  0  0  0
  186.0230  178.5900  142.6850 C   0  0  0  0  0  0  0  0  0  0  0  0
  185.9260  178.6280  139.8080 C   0  0  0  0  0  2  0  0  0  0  0  0
  183.6010  178.7810  142.6770 C   0  0  0  0  0  3  0  0  0  0  0  0
  189.6440  177.7890  140.5310 C   0  0  1  0  0  3  0  0  0  0  0  0
  188.3230  177.9390  142.5340 O   0  0  0  0  0  0  0  0  0  0  0  0
  184.8780  179.3930  140.6120 C   0  0  0  0  0  2  0  0  0  0  0  0
  188.4160  178.2180  139.7830 C   0  0  0  0  0  0  0  0  0  0  0  0
  182.3750  178.2500  144.6500 F   0  0  0  0  0  0  0  0  0  0  0  0
  184.7510  178.0750  144.6890 C   0  0  0  0  0  3  0  0  0  0  0  0
  187.2110  178.5160  140.5170 N   0  0  0  0  0  0  0  0  0  0  0  0
  189.5400  178.3440  141.9620 C   0  0  1  0  0  3  0  0  0  0  0  0
  190.7240  177.9580  142.8510 C   0  0  1  0  0  3  0  0  0  0  0  0
  191.8920  177.8780  142.0900 O   0  0  0  0  0  1  0  0  0  0  0  0
  190.9140  178.9470  143.9620 C   0  0  0  0  0  0  0  0  0  0  0  0
  190.9670  178.5200  145.3250 N   0  0  0  0  0  2  0  0  0  0  0  0
  191.0200  180.1730  143.6950 O   0  0  0  0  0  0  0  0  0  0  0  0
  189.4390  176.6930  146.1760 C   0  0  2  0  0  3  0  0  0  0  0  0
  191.6770  176.0740  145.0600 C   0  0  0  0  0  1  0  0  0  0  0  0
  190.8280  177.1280  145.7440 C   0  0  1  0  0  0  0  0  0  0  0  0
  188.5550  177.7730  146.1950 O   0  0  0  0  0  1  0  0  0  0  0  0
  190.5410  176.9230  147.2100 C   0  0  0  0  0  2  0  0  0  0  0  0
  190.5640  175.7170  139.8340 O   0  0  0  0  0  0  0  0  0  0  0  0
  189.7290  176.2880  140.5160 C   0  0  0  0  0  3  0  0  0  0  0  0
  1 14  1  0  0  0  0
  2 12  2  0  0  0  0
  3  8  2  0  0  0  0
  3  6  1  0  0  0  0
  4 10  1  1  0  0  0
  4  6  1  0  0  0  0
  5 13  1  0  0  0  0
  5 14  2  0  0  0  0
  6  1  2  0  0  0  0
  7 15  1  0  0  0  0
  7 11  1  0  0  0  0
  8  5  1  0  0  0  0
  9 28  1  1  0  0  0
  9 16  1  0  0  0  0
 11  3  1  0  0  0  0
 12 15  1  0  0  0  0
 12  9  1  0  0  0  0
 15  4  1  0  0  0  0
 16 10  1  0  0  0  0
 16 17  1  1  0  0  0
 17 18  1  6  0  0  0
 17 19  1  0  0  0  0
 19 20  1  0  0  0  0
 20 24  1  0  0  0  0
 21 19  2  0  0  0  0
 22 25  1  1  0  0  0
 22 26  1  0  0  0  0
 24 23  1  6  0  0  0
 24 22  1  0  0  0  0
 24 26  1  0  0  0  0
 27 28  2  0  0  0  0
M  END
>  <MODEL>
8

>  <REMARK>
 VINA RESULT:      -8.0      1.879      5.046
  Name = 
  4 active torsions:
  status: ('A' for Active; 'I' for Inactive)
    1  A    between atoms: C_1  and  C_2
    2  A    between atoms: C_1  and  C_27
    3  A    between atoms: N_3  and  C_11
    4  A    between atoms: C_16  and  C_21
                            x       y       z     vdW  Elec       q    Type
                         _______ _______ _______ _____ _____    ______ ____

>  <TORSDO>
F 4

$$$$
=
 OpenBabel11052413323D

 28 31  0  0  1  0  0  0  0  0999 V2000
  188.3910  177.1690  142.8260 C   0  0  0  0  0  3  0  0  0  0  0  0
  185.0930  178.6330  137.9090 C   0  0  0  0  0  2  0  0  0  0  0  0
  186.3030  178.3970  142.8740 C   0  0  0  0  0  0  0  0  0  0  0  0
  187.5360  178.2360  140.6920 C   0  0  1  0  0  3  0  0  0  0  0  0
  187.1640  177.3920  144.9010 C   0  0  0  0  0  0  0  0  0  0  0  0
  187.4010  177.9030  142.1540 C   0  0  0  0  0  0  0  0  0  0  0  0
  184.9930  178.7000  140.7900 C   0  0  0  0  0  2  0  0  0  0  0  0
  186.1860  178.1450  144.2450 C   0  0  0  0  0  3  0  0  0  0  0  0
  187.3130  177.6140  137.8760 C   0  0  1  0  0  3  0  0  0  0  0  0
  188.3120  177.2620  140.0350 O   0  0  0  0  0  0  0  0  0  0  0  0
  185.2940  179.2500  142.1830 C   0  0  0  0  0  2  0  0  0  0  0  0
  186.1650  178.2530  138.6000 C   0  0  0  0  0  0  0  0  0  0  0  0
  187.0480  177.1420  146.2270 F   0  0  0  0  0  0  0  0  0  0  0  0
  188.2680  176.9080  144.1940 C   0  0  0  0  0  3  0  0  0  0  0  0
  186.2150  178.3750  140.0360 N   0  0  0  0  0  0  0  0  0  0  0  0
  188.5670  177.7750  138.7520 C   0  0  1  0  0  3  0  0  0  0  0  0
  189.8190  177.1410  138.1420 C   0  0  1  0  0  3  0  0  0  0  0  0
  190.1880  177.8230  136.9810 O   0  0  0  0  0  1  0  0  0  0  0  0
  190.9610  177.1490  139.1150 C   0  0  0  0  0  0  0  0  0  0  0  0
  192.1180  176.3390  138.8970 N   0  0  0  0  0  2  0  0  0  0  0  0
  190.8990  177.8720  140.1450 O   0  0  0  0  0  0  0  0  0  0  0  0
  193.6940  174.9880  137.4520 C   0  0  2  0  0  3  0  0  0  0  0  0
  191.1740  174.4570  137.4400 C   0  0  0  0  0  1  0  0  0  0  0  0
  192.2790  175.4470  137.7520 C   0  0  1  0  0  0  0  0  0  0  0  0
  194.6170  175.6150  138.2920 O   0  0  0  0  0  1  0  0  0  0  0  0
  193.0130  176.0390  136.5750 C   0  0  0  0  0  2  0  0  0  0  0  0
  186.9030  175.7410  136.4810 O   0  0  0  0  0  0  0  0  0  0  0  0
  186.9890  176.1680  137.6210 C   0  0  0  0  0  3  0  0  0  0  0  0
  1 14  1  0  0  0  0
  2 12  2  0  0  0  0
  3  8  2  0  0  0  0
  4 10  1  6  0  0  0
  4  6  1  0  0  0  0
  5 13  1  0  0  0  0
  6  1  2  0  0  0  0
  6  3  1  0  0  0  0
  7 11  1  0  0  0  0
  8  5  1  0  0  0  0
  9 28  1  1  0  0  0
  9 12  1  0  0  0  0
  9 16  1  0  0  0  0
 11  3  1  0  0  0  0
 12 15  1  0  0  0  0
 14  5  2  0  0  0  0
 15  4  1  0  0  0  0
 15  7  1  0  0  0  0
 16 17  1  6  0  0  0
 16 10  1  0  0  0  0
 17 18  1  6  0  0  0
 17 19  1  0  0  0  0
 19 21  2  0  0  0  0
 20 19  1  0  0  0  0
 22 24  1  0  0  0  0
 22 25  1  1  0  0  0
 24 23  1  6  0  0  0
 24 20  1  0  0  0  0
 26 22  1  0  0  0  0
 26 24  1  0  0  0  0
 27 28  2  0  0  0  0
M  END
>  <MODEL>
9

>  <REMARK>
 VINA RESULT:      -7.8      2.851      5.314
  Name = 
  4 active torsions:
  status: ('A' for Active; 'I' for Inactive)
    1  A    between atoms: C_1  and  C_2
    2  A    between atoms: C_1  and  C_27
    3  A    between atoms: N_3  and  C_11
    4  A    between atoms: C_16  and  C_21
                            x       y       z     vdW  Elec       q    Type
                         _______ _______ _______ _____ _____    ______ ____

>  <TORSDO>
F 4

$$$$
