=
 OpenBabel11052414193D

 34 39  0  0  1  0  0  0  0  0999 V2000
  188.3380  178.6410  138.6360 C   0  0  2  0  0  3  0  0  0  0  0  0
  186.6780  176.8690  137.9010 C   0  0  1  0  0  3  0  0  0  0  0  0
  186.1100  178.4800  139.7130 N   0  0  0  0  0  0  0  0  0  0  0  0
  183.9160  178.4640  140.8700 C   0  0  0  0  0  0  0  0  0  0  0  0
  188.9490  176.9230  136.9810 N   0  0  0  0  0  2  0  0  0  0  0  0
  187.5450  176.6900  136.6570 C   0  0  0  0  0  2  0  0  0  0  0  0
  184.1820  179.5310  138.6980 C   0  0  0  0  0  2  0  0  0  0  0  0
  186.8500  178.2980  138.4530 C   0  0  1  0  0  3  0  0  0  0  0  0
  182.8080  180.0670  138.7470 C   0  0  0  0  0  3  0  0  0  0  0  0
  182.1430  178.2620  140.7220 S   0  0  0  0  0  0  0  0  0  0  0  0
  189.1130  178.3280  137.3540 C   0  0  0  0  0  2  0  0  0  0  0  0
  186.7340  178.2570  141.0020 C   0  0  2  0  0  3  0  0  0  0  0  0
  188.9140  177.8600  139.8100 C   0  0  0  0  0  2  0  0  0  0  0  0
  185.2350  176.5910  137.5220 C   0  0  0  0  0  1  0  0  0  0  0  0
  184.5180  178.1490  141.9750 N   0  0  0  0  0  0  0  0  0  0  0  0
  185.9550  178.1350  142.1110 C   0  0  0  0  0  0  0  0  0  0  0  0
  181.8950  179.6850  139.6470 C   0  0  0  0  0  0  0  0  0  0  0  0
  184.7100  178.8010  139.6870 C   0  0  0  0  0  0  0  0  0  0  0  0
  188.2380  178.2880  141.1020 C   0  0  0  0  0  2  0  0  0  0  0  0
  186.3650  178.2940  145.8530 N   0  0  0  0  0  0  0  0  0  0  0  0
  187.4850  177.3980  146.1470 C   0  0  0  0  0  2  0  0  0  0  0  0
  186.5060  177.9370  143.4760 C   0  0  0  0  0  0  0  0  0  0  0  0
  188.3150  177.1220  144.9240 C   0  0  0  0  0  3  0  0  0  0  0  0
  185.8360  178.4210  144.5280 C   0  0  0  0  0  3  0  0  0  0  0  0
  187.8420  177.3470  143.6960 C   0  0  0  0  0  3  0  0  0  0  0  0
  185.6360  178.8880  146.9570 C   0  0  0  0  0  1  0  0  0  0  0  0
  180.5930  180.4070  139.7210 C   0  0  0  0  0  2  0  0  0  0  0  0
  179.7900  180.1110  138.5450 N   0  0  0  0  0  2  0  0  0  0  0  0
  180.2410  181.9570  137.0070 C   0  0  0  0  0  2  0  0  0  0  0  0
  180.9010  183.1010  137.4940 O   0  0  0  0  0  0  0  0  0  0  0  0
  178.9330  183.7880  138.7460 C   0  0  0  0  0  2  0  0  0  0  0  0
  179.0630  182.3400  139.2250 C   0  0  0  0  0  2  0  0  0  0  0  0
  179.2730  181.3760  138.0520 C   0  0  2  0  0  3  0  0  0  0  0  0
  179.9170  184.1000  137.6080 C   0  0  0  0  0  2  0  0  0  0  0  0
  1 11  1  6  0  0  0
  1 13  1  0  0  0  0
  2 14  1  6  0  0  0
  2  8  1  0  0  0  0
  3 12  1  0  0  0  0
  4 15  1  0  0  0  0
  5 11  1  0  0  0  0
  6  5  1  0  0  0  0
  6  2  1  0  0  0  0
  7  9  1  0  0  0  0
  7 18  1  0  0  0  0
  8  1  1  0  0  0  0
  8  3  1  1  0  0  0
  9 17  2  0  0  0  0
 10  4  1  0  0  0  0
 12 19  1  1  0  0  0
 12 16  1  0  0  0  0
 13 19  1  0  0  0  0
 15 16  2  0  0  0  0
 16 22  1  0  0  0  0
 17 27  1  0  0  0  0
 17 10  1  0  0  0  0
 18  3  1  0  0  0  0
 18  4  2  0  0  0  0
 20 21  1  0  0  0  0
 20 26  1  0  0  0  0
 22 25  1  0  0  0  0
 22 24  2  0  0  0  0
 23 21  1  0  0  0  0
 24 20  1  0  0  0  0
 25 23  2  0  0  0  0
 28 27  1  0  0  0  0
 29 30  1  0  0  0  0
 29 33  1  0  0  0  0
 30 34  1  0  0  0  0
 31 32  1  0  0  0  0
 33 28  1  1  0  0  0
 33 32  1  0  0  0  0
 34 31  1  0  0  0  0
M  END
>  <MODEL>
1

>  <REMARK>
 VINA RESULT:      -7.6      0.000      0.000
  Name = 
  4 active torsions:
  status: ('A' for Active; 'I' for Inactive)
    1  A    between atoms: C_3  and  N_13
    2  A    between atoms: C_3  and  C_29
    3  A    between atoms: C_12  and  C_28
    4  A    between atoms: N_13  and  C_33
                            x       y       z     vdW  Elec       q    Type
                         _______ _______ _______ _____ _____    ______ ____

>  <TORSDO>
F 4

$$$$
=
 OpenBabel11052414193D

 34 39  0  0  1  0  0  0  0  0999 V2000
  180.4430  178.6600  141.3560 C   0  0  2  0  0  3  0  0  0  0  0  0
  181.3490  180.4700  139.8280 C   0  0  1  0  0  3  0  0  0  0  0  0
  182.7800  178.5600  140.5340 N   0  0  0  0  0  0  0  0  0  0  0  0
  185.1290  178.3050  139.7800 C   0  0  0  0  0  0  0  0  0  0  0  0
  179.1050  180.6520  140.8000 N   0  0  0  0  0  2  0  0  0  0  0  0
  179.8980  180.8870  139.5970 C   0  0  0  0  0  2  0  0  0  0  0  0
  183.2730  177.6270  138.3580 C   0  0  0  0  0  3  0  0  0  0  0  0
  181.4080  178.9760  140.2020 C   0  0  1  0  0  3  0  0  0  0  0  0
  184.1930  177.0430  137.3640 C   0  0  0  0  0  3  0  0  0  0  0  0
  186.2980  178.4660  138.4330 S   0  0  0  0  0  0  0  0  0  0  0  0
  179.0490  179.2110  141.0450 C   0  0  0  0  0  2  0  0  0  0  0  0
  183.2740  178.5850  141.8980 C   0  0  2  0  0  3  0  0  0  0  0  0
  180.9700  179.2530  142.6570 C   0  0  0  0  0  2  0  0  0  0  0  0
  182.1360  180.7570  138.5630 C   0  0  0  0  0  1  0  0  0  0  0  0
  185.5240  178.4510  141.0070 N   0  0  0  0  0  0  0  0  0  0  0  0
  184.6130  178.4920  142.1260 C   0  0  0  0  0  0  0  0  0  0  0  0
  185.5170  177.2360  137.3760 C   0  0  2  0  0  3  0  0  0  0  0  0
  183.6980  178.1990  139.4900 C   0  0  0  0  0  0  0  0  0  0  0  0
  182.2850  178.5910  143.0350 C   0  0  0  0  0  2  0  0  0  0  0  0
  186.9780  177.8200  144.9810 N   0  0  0  0  0  0  0  0  0  0  0  0
  186.4490  178.6040  146.0990 C   0  0  0  0  0  2  0  0  0  0  0  0
  185.2080  178.4770  143.4860 C   0  0  0  0  0  0  0  0  0  0  0  0
  185.0130  178.9900  145.8800 C   0  0  0  0  0  3  0  0  0  0  0  0
  186.3990  177.9000  143.6730 C   0  0  0  0  0  3  0  0  0  0  0  0
  184.4580  178.9560  144.6670 C   0  0  0  0  0  3  0  0  0  0  0  0
  188.2420  177.1300  145.1470 C   0  0  0  0  0  1  0  0  0  0  0  0
  186.3780  176.4670  136.4330 C   0  0  0  0  0  2  0  0  0  0  0  0
  187.1000  175.4280  137.1490 N   0  0  0  0  0  2  0  0  0  0  0  0
  189.0690  174.1330  136.5010 C   0  0  0  0  0  2  0  0  0  0  0  0
  189.9910  173.7550  137.4950 O   0  0  0  0  0  0  0  0  0  0  0  0
  190.7870  176.0410  137.7230 C   0  0  0  0  0  2  0  0  0  0  0  0
  189.2800  176.2670  137.8620 C   0  0  0  0  0  2  0  0  0  0  0  0
  188.4970  175.5360  136.7650 C   0  0  2  0  0  3  0  0  0  0  0  0
  191.1090  174.5910  137.3270 C   0  0  0  0  0  2  0  0  0  0  0  0
  1 11  1  6  0  0  0
  1 13  1  0  0  0  0
  2 14  1  6  0  0  0
  2  8  1  0  0  0  0
  3 12  1  0  0  0  0
  4 15  1  0  0  0  0
  5 11  1  0  0  0  0
  6  2  1  0  0  0  0
  6  5  1  0  0  0  0
  7 18  1  0  0  0  0
  8  3  1  1  0  0  0
  8  1  1  0  0  0  0
  9 17  1  0  0  0  0
  9  7  2  0  0  0  0
 10  4  1  0  0  0  0
 12 16  1  0  0  0  0
 12 19  1  1  0  0  0
 13 19  1  0  0  0  0
 15 16  2  0  0  0  0
 16 22  1  0  0  0  0
 17 27  1  6  0  0  0
 17 10  1  0  0  0  0
 18  4  2  0  0  0  0
 18  3  1  0  0  0  0
 20 26  1  0  0  0  0
 20 21  1  0  0  0  0
 22 24  2  0  0  0  0
 22 25  1  0  0  0  0
 23 21  1  0  0  0  0
 24 20  1  0  0  0  0
 25 23  2  0  0  0  0
 27 28  1  0  0  0  0
 29 33  1  0  0  0  0
 29 30  1  0  0  0  0
 31 32  1  0  0  0  0
 33 28  1  1  0  0  0
 33 32  1  0  0  0  0
 34 30  1  0  0  0  0
 34 31  1  0  0  0  0
M  END
>  <MODEL>
2

>  <REMARK>
 VINA RESULT:      -7.4      3.001      7.455
  Name = 
  4 active torsions:
  status: ('A' for Active; 'I' for Inactive)
    1  A    between atoms: C_3  and  N_13
    2  A    between atoms: C_3  and  C_29
    3  A    between atoms: C_12  and  C_28
    4  A    between atoms: N_13  and  C_33
                            x       y       z     vdW  Elec       q    Type
                         _______ _______ _______ _____ _____    ______ ____

>  <TORSDO>
F 4

$$$$
=
 OpenBabel11052414193D

 34 39  0  0  1  0  0  0  0  0999 V2000
  186.5200  177.0190  145.1810 C   0  0  2  0  0  3  0  0  0  0  0  0
  185.6810  179.3920  144.8720 C   0  0  1  0  0  3  0  0  0  0  0  0
  186.0750  177.9100  142.9100 N   0  0  0  0  0  0  0  0  0  0  0  0
  185.6550  178.6460  140.5790 C   0  0  0  0  0  0  0  0  0  0  0  0
  186.3050  178.5580  147.0910 N   0  0  0  0  0  2  0  0  0  0  0  0
  185.3440  179.3800  146.3610 C   0  0  0  0  0  2  0  0  0  0  0  0
  183.8340  177.8780  142.0000 C   0  0  0  0  0  2  0  0  0  0  0  0
  185.6540  177.9530  144.3210 C   0  0  1  0  0  3  0  0  0  0  0  0
  182.8780  177.9400  140.8790 C   0  0  0  0  0  3  0  0  0  0  0  0
  184.5970  179.5630  139.4630 S   0  0  0  0  0  0  0  0  0  0  0  0
  186.1510  177.1690  146.6580 C   0  0  0  0  0  2  0  0  0  0  0  0
  187.4560  177.6800  142.5350 C   0  0  2  0  0  3  0  0  0  0  0  0
  187.9960  177.3280  144.9670 C   0  0  0  0  0  2  0  0  0  0  0  0
  184.6750  180.2780  144.1610 C   0  0  0  0  0  1  0  0  0  0  0  0
  186.9230  178.5340  140.3310 N   0  0  0  0  0  0  0  0  0  0  0  0
  187.8570  177.9490  141.2620 C   0  0  0  0  0  0  0  0  0  0  0  0
  183.1460  178.5270  139.7080 C   0  0  0  0  0  0  0  0  0  0  0  0
  185.1280  178.1880  141.8660 C   0  0  0  0  0  0  0  0  0  0  0  0
  188.3860  177.0330  143.5280 C   0  0  0  0  0  2  0  0  0  0  0  0
  190.7590  177.1330  139.0020 N   0  0  0  0  0  0  0  0  0  0  0  0
  191.9510  177.4340  139.7970 C   0  0  0  0  0  2  0  0  0  0  0  0
  189.2420  177.7150  140.7780 C   0  0  0  0  0  0  0  0  0  0  0  0
  191.6400  177.5030  141.2660 C   0  0  0  0  0  3  0  0  0  0  0  0
  189.4430  177.4160  139.4910 C   0  0  0  0  0  3  0  0  0  0  0  0
  190.3900  177.6620  141.7070 C   0  0  0  0  0  3  0  0  0  0  0  0
  190.9220  176.7530  137.6120 C   0  0  0  0  0  1  0  0  0  0  0  0
  182.1800  178.3880  138.5810 C   0  0  0  0  0  2  0  0  0  0  0  0
  181.1530  179.4140  138.6730 N   0  0  0  0  0  2  0  0  0  0  0  0
  181.5560  181.8020  138.3440 C   0  0  0  0  0  2  0  0  0  0  0  0
  180.4780  182.6280  137.9740 O   0  0  0  0  0  0  0  0  0  0  0  0
  180.4310  181.6820  135.7350 C   0  0  0  0  0  2  0  0  0  0  0  0
  180.4020  180.3990  136.5690 C   0  0  0  0  0  2  0  0  0  0  0  0
  181.4650  180.4210  137.6730 C   0  0  2  0  0  3  0  0  0  0  0  0
  180.6620  182.9230  136.6110 C   0  0  0  0  0  2  0  0  0  0  0  0
  1 13  1  1  0  0  0
  1 11  1  0  0  0  0
  2 14  1  6  0  0  0
  2  6  1  0  0  0  0
  4 18  2  0  0  0  0
  6  5  1  0  0  0  0
  8  3  1  6  0  0  0
  8  2  1  0  0  0  0
  8  1  1  0  0  0  0
  9  7  1  0  0  0  0
 10 17  1  0  0  0  0
 10  4  1  0  0  0  0
 11  5  1  0  0  0  0
 12  3  1  0  0  0  0
 12 19  1  6  0  0  0
 15  4  1  0  0  0  0
 15 16  2  0  0  0  0
 16 12  1  0  0  0  0
 17  9  2  0  0  0  0
 18  7  1  0  0  0  0
 18  3  1  0  0  0  0
 19 13  1  0  0  0  0
 20 24  1  0  0  0  0
 20 21  1  0  0  0  0
 21 23  1  0  0  0  0
 22 16  1  0  0  0  0
 22 25  1  0  0  0  0
 23 25  2  0  0  0  0
 24 22  2  0  0  0  0
 26 20  1  0  0  0  0
 27 28  1  0  0  0  0
 27 17  1  0  0  0  0
 30 29  1  0  0  0  0
 31 32  1  0  0  0  0
 31 34  1  0  0  0  0
 32 33  1  0  0  0  0
 33 29  1  0  0  0  0
 33 28  1  1  0  0  0
 34 30  1  0  0  0  0
M  END
>  <MODEL>
3

>  <REMARK>
 VINA RESULT:      -7.3      1.918      5.444
  Name = 
  4 active torsions:
  status: ('A' for Active; 'I' for Inactive)
    1  A    between atoms: C_3  and  N_13
    2  A    between atoms: C_3  and  C_29
    3  A    between atoms: C_12  and  C_28
    4  A    between atoms: N_13  and  C_33
                            x       y       z     vdW  Elec       q    Type
                         _______ _______ _______ _____ _____    ______ ____

>  <TORSDO>
F 4

$$$$
=
 OpenBabel11052414193D

 34 39  0  0  1  0  0  0  0  0999 V2000
  188.5160  178.6570  138.3310 C   0  0  2  0  0  3  0  0  0  0  0  0
  186.8710  176.8390  137.6830 C   0  0  1  0  0  3  0  0  0  0  0  0
  186.3520  178.4350  139.5220 N   0  0  0  0  0  0  0  0  0  0  0  0
  184.2230  178.3580  140.7920 C   0  0  0  0  0  0  0  0  0  0  0  0
  189.0890  176.9550  136.6460 N   0  0  0  0  0  2  0  0  0  0  0  0
  187.6770  176.6820  136.3960 C   0  0  0  0  0  2  0  0  0  0  0  0
  184.3450  179.4300  138.6100 C   0  0  0  0  0  3  0  0  0  0  0  0
  187.0310  178.2720  138.2260 C   0  0  1  0  0  3  0  0  0  0  0  0
  182.9620  179.9270  138.7300 C   0  0  0  0  0  3  0  0  0  0  0  0
  182.4510  178.1060  140.7360 S   0  0  0  0  0  0  0  0  0  0  0  0
  189.2320  178.3640  137.0110 C   0  0  0  0  0  2  0  0  0  0  0  0
  187.0490  178.2310  140.7770 C   0  0  2  0  0  3  0  0  0  0  0  0
  189.1740  177.8940  139.4740 C   0  0  0  0  0  2  0  0  0  0  0  0
  185.4190  176.5200  137.3800 C   0  0  0  0  0  1  0  0  0  0  0  0
  184.8900  178.0620  141.8640 N   0  0  0  0  0  0  0  0  0  0  0  0
  186.3310  178.0880  141.9250 C   0  0  0  0  0  0  0  0  0  0  0  0
  182.1080  179.5200  139.6760 C   0  0  2  0  0  3  0  0  0  0  0  0
  184.9440  178.7160  139.5690 C   0  0  0  0  0  0  0  0  0  0  0  0
  188.5540  178.3040  140.7990 C   0  0  0  0  0  2  0  0  0  0  0  0
  186.8710  178.1510  145.6540 N   0  0  0  0  0  0  0  0  0  0  0  0
  188.1050  177.3910  145.8670 C   0  0  0  0  0  2  0  0  0  0  0  0
  186.9580  177.9080  143.2600 C   0  0  0  0  0  0  0  0  0  0  0  0
  188.9110  177.2700  144.6050 C   0  0  0  0  0  3  0  0  0  0  0  0
  186.2780  178.2620  144.3550 C   0  0  0  0  0  3  0  0  0  0  0  0
  188.3650  177.4810  143.4050 C   0  0  0  0  0  3  0  0  0  0  0  0
  186.1210  178.6050  146.8080 C   0  0  0  0  0  1  0  0  0  0  0  0
  180.7910  180.2050  139.8170 C   0  0  0  0  0  2  0  0  0  0  0  0
  179.7180  179.2240  139.8500 N   0  0  0  0  0  2  0  0  0  0  0  0
  179.2970  180.8400  141.6350 C   0  0  0  0  0  2  0  0  0  0  0  0
  180.0670  180.7700  142.8110 O   0  0  0  0  0  0  0  0  0  0  0  0
  178.9310  178.7400  143.5170 C   0  0  0  0  0  2  0  0  0  0  0  0
  179.3310  178.3420  142.0930 C   0  0  0  0  0  2  0  0  0  0  0  0
  178.9800  179.4400  141.0820 C   0  0  2  0  0  3  0  0  0  0  0  0
  179.2260  180.2220  143.7960 C   0  0  0  0  0  2  0  0  0  0  0  0
  1 11  1  6  0  0  0
  1 13  1  0  0  0  0
  2 14  1  6  0  0  0
  2  8  1  0  0  0  0
  3 18  1  0  0  0  0
  3 12  1  0  0  0  0
  4 15  1  0  0  0  0
  5 11  1  0  0  0  0
  6  5  1  0  0  0  0
  6  2  1  0  0  0  0
  7  9  2  0  0  0  0
  7 18  1  0  0  0  0
  8  1  1  0  0  0  0
  8  3  1  1  0  0  0
  9 17  1  0  0  0  0
 10  4  1  0  0  0  0
 12 19  1  1  0  0  0
 12 16  1  0  0  0  0
 13 19  1  0  0  0  0
 15 16  2  0  0  0  0
 16 22  1  0  0  0  0
 17 27  1  6  0  0  0
 17 10  1  0  0  0  0
 18  4  2  0  0  0  0
 20 21  1  0  0  0  0
 20 26  1  0  0  0  0
 22 25  1  0  0  0  0
 22 24  2  0  0  0  0
 23 21  1  0  0  0  0
 24 20  1  0  0  0  0
 25 23  2  0  0  0  0
 27 28  1  0  0  0  0
 29 30  1  0  0  0  0
 30 34  1  0  0  0  0
 31 34  1  0  0  0  0
 32 31  1  0  0  0  0
 33 28  1  6  0  0  0
 33 29  1  0  0  0  0
 33 32  1  0  0  0  0
M  END
>  <MODEL>
4

>  <REMARK>
 VINA RESULT:      -7.2      1.762      2.452
  Name = 
  4 active torsions:
  status: ('A' for Active; 'I' for Inactive)
    1  A    between atoms: C_3  and  N_13
    2  A    between atoms: C_3  and  C_29
    3  A    between atoms: C_12  and  C_28
    4  A    between atoms: N_13  and  C_33
                            x       y       z     vdW  Elec       q    Type
                         _______ _______ _______ _____ _____    ______ ____

>  <TORSDO>
F 4

$$$$
=
 OpenBabel11052414193D

 34 39  0  0  1  0  0  0  0  0999 V2000
  190.6030  175.2800  138.2150 C   0  0  2  0  0  3  0  0  0  0  0  0
  192.2200  177.1620  138.7410 C   0  0  1  0  0  3  0  0  0  0  0  0
  190.2880  176.6820  140.2370 N   0  0  0  0  0  0  0  0  0  0  0  0
  189.8510  177.9780  142.3060 C   0  0  0  0  0  0  0  0  0  0  0  0
  192.4070  175.8900  136.6540 N   0  0  0  0  0  2  0  0  0  0  0  0
  193.1670  176.5210  137.7280 C   0  0  0  0  0  2  0  0  0  0  0  0
  191.4950  176.1830  142.2720 C   0  0  0  0  0  3  0  0  0  0  0  0
  191.2860  176.0880  139.3310 C   0  0  1  0  0  3  0  0  0  0  0  0
  191.7010  176.2880  143.7290 C   0  0  0  0  0  3  0  0  0  0  0  0
  190.5460  178.7910  143.7410 S   0  0  0  0  0  0  0  0  0  0  0  0
  191.6460  174.7750  137.2160 C   0  0  0  0  0  2  0  0  0  0  0  0
  188.9810  177.0930  139.7630 C   0  0  2  0  0  3  0  0  0  0  0  0
  189.5620  176.1400  137.5090 C   0  0  0  0  0  2  0  0  0  0  0  0
  193.0540  177.8260  139.8210 C   0  0  0  0  0  1  0  0  0  0  0  0
  188.7440  178.4090  141.7850 N   0  0  0  0  0  0  0  0  0  0  0  0
  188.2130  177.9060  140.5400 C   0  0  0  0  0  0  0  0  0  0  0  0
  191.2330  177.2960  144.4730 C   0  0  2  0  0  3  0  0  0  0  0  0
  190.6270  176.9520  141.6060 C   0  0  0  0  0  0  0  0  0  0  0  0
  188.4520  176.5130  138.4770 C   0  0  0  0  0  2  0  0  0  0  0  0
  184.5970  178.9390  140.7660 N   0  0  0  0  0  0  0  0  0  0  0  0
  184.2510  179.3920  139.4180 C   0  0  0  0  0  2  0  0  0  0  0  0
  186.8500  178.3520  140.1540 C   0  0  0  0  0  0  0  0  0  0  0  0
  185.2260  178.8860  138.3910 C   0  0  0  0  0  3  0  0  0  0  0  0
  185.9350  178.5590  141.1070 C   0  0  0  0  0  3  0  0  0  0  0  0
  186.4330  178.4360  138.7390 C   0  0  0  0  0  3  0  0  0  0  0  0
  183.6220  179.0920  141.8280 C   0  0  0  0  0  1  0  0  0  0  0  0
  191.3460  177.2250  145.9570 C   0  0  0  0  0  2  0  0  0  0  0  0
  190.1320  176.6590  146.5250 N   0  0  0  0  0  2  0  0  0  0  0  0
  188.8880  178.1030  148.0550 C   0  0  0  0  0  2  0  0  0  0  0  0
  187.6020  177.7070  148.4680 O   0  0  0  0  0  0  0  0  0  0  0  0
  186.6760  178.1710  146.2690 C   0  0  0  0  0  2  0  0  0  0  0  0
  187.8630  177.2870  145.8780 C   0  0  0  0  0  2  0  0  0  0  0  0
  189.1500  177.7270  146.5860 C   0  0  2  0  0  3  0  0  0  0  0  0
  186.6980  178.5220  147.7640 C   0  0  0  0  0  2  0  0  0  0  0  0
  1 11  1  6  0  0  0
  1  8  1  0  0  0  0
  2  8  1  0  0  0  0
  2 14  1  1  0  0  0
  3 18  1  0  0  0  0
  4 10  1  0  0  0  0
  5 11  1  0  0  0  0
  5  6  1  0  0  0  0
  6  2  1  0  0  0  0
  7  9  2  0  0  0  0
  8  3  1  6  0  0  0
  9 17  1  0  0  0  0
 10 17  1  0  0  0  0
 12 19  1  1  0  0  0
 12  3  1  0  0  0  0
 12 16  1  0  0  0  0
 13  1  1  0  0  0  0
 13 19  1  0  0  0  0
 15  4  1  0  0  0  0
 16 15  2  0  0  0  0
 17 27  1  1  0  0  0
 18  7  1  0  0  0  0
 18  4  2  0  0  0  0
 20 24  1  0  0  0  0
 20 26  1  0  0  0  0
 21 20  1  0  0  0  0
 22 16  1  0  0  0  0
 22 24  2  0  0  0  0
 23 25  2  0  0  0  0
 23 21  1  0  0  0  0
 25 22  1  0  0  0  0
 27 28  1  0  0  0  0
 29 30  1  0  0  0  0
 31 34  1  0  0  0  0
 32 31  1  0  0  0  0
 32 33  1  0  0  0  0
 33 28  1  1  0  0  0
 33 29  1  0  0  0  0
 34 30  1  0  0  0  0
M  END
>  <MODEL>
5

>  <REMARK>
 VINA RESULT:      -7.2      4.185      8.383
  Name = 
  4 active torsions:
  status: ('A' for Active; 'I' for Inactive)
    1  A    between atoms: C_3  and  N_13
    2  A    between atoms: C_3  and  C_29
    3  A    between atoms: C_12  and  C_28
    4  A    between atoms: N_13  and  C_33
                            x       y       z     vdW  Elec       q    Type
                         _______ _______ _______ _____ _____    ______ ____

>  <TORSDO>
F 4

$$$$
=
 OpenBabel11052414193D

 34 39  0  0  1  0  0  0  0  0999 V2000
  188.5730  178.6400  138.8300 C   0  0  2  0  0  3  0  0  0  0  0  0
  187.0090  176.8030  138.0480 C   0  0  1  0  0  3  0  0  0  0  0  0
  186.2910  178.4410  139.7800 N   0  0  0  0  0  0  0  0  0  0  0  0
  184.0350  178.3890  140.8080 C   0  0  0  0  0  0  0  0  0  0  0  0
  189.3290  176.9000  137.2590 N   0  0  0  0  0  2  0  0  0  0  0  0
  187.9530  176.6180  136.8610 C   0  0  0  0  0  2  0  0  0  0  0  0
  184.3970  179.4090  138.6280 C   0  0  0  0  0  2  0  0  0  0  0  0
  187.1090  178.2500  138.5700 C   0  0  1  0  0  3  0  0  0  0  0  0
  183.0090  179.9050  138.5830 C   0  0  0  0  0  3  0  0  0  0  0  0
  182.2800  178.1310  140.5630 S   0  0  0  0  0  0  0  0  0  0  0  0
  189.4300  178.3180  137.6040 C   0  0  0  0  0  2  0  0  0  0  0  0
  186.8450  178.2690  141.1090 C   0  0  2  0  0  3  0  0  0  0  0  0
  189.1020  177.9060  140.0560 C   0  0  0  0  0  2  0  0  0  0  0  0
  185.6000  176.4730  137.5940 C   0  0  0  0  0  1  0  0  0  0  0  0
  184.5790  178.1200  141.9540 N   0  0  0  0  0  0  0  0  0  0  0  0
  186.0050  178.1510  142.1740 C   0  0  0  0  0  0  0  0  0  0  0  0
  182.0560  179.5190  139.4380 C   0  0  0  0  0  0  0  0  0  0  0  0
  184.8870  178.7190  139.6640 C   0  0  0  0  0  0  0  0  0  0  0  0
  188.3390  178.3460  141.2950 C   0  0  0  0  0  2  0  0  0  0  0  0
  188.1820  177.3270  145.1370 N   0  0  0  0  0  0  0  0  0  0  0  0
  187.4740  177.8860  146.2900 C   0  0  0  0  0  2  0  0  0  0  0  0
  186.4810  178.0040  143.5730 C   0  0  0  0  0  0  0  0  0  0  0  0
  186.0260  178.1510  145.9820 C   0  0  0  0  0  3  0  0  0  0  0  0
  187.7110  177.5310  143.7990 C   0  0  0  0  0  3  0  0  0  0  0  0
  185.5840  178.2320  144.7250 C   0  0  0  0  0  3  0  0  0  0  0  0
  189.4980  176.7530  145.3350 C   0  0  0  0  0  1  0  0  0  0  0  0
  180.7320  180.2040  139.4170 C   0  0  0  0  0  2  0  0  0  0  0  0
  180.9100  181.6300  139.1980 N   0  0  0  0  0  2  0  0  0  0  0  0
  179.8250  180.7380  137.1970 C   0  0  0  0  0  2  0  0  0  0  0  0
  180.5150  180.7860  135.9710 O   0  0  0  0  0  0  0  0  0  0  0  0
  180.2260  183.1960  135.8240 C   0  0  0  0  0  2  0  0  0  0  0  0
  180.8060  183.0810  137.2370 C   0  0  0  0  0  2  0  0  0  0  0  0
  180.0970  181.9900  138.0490 C   0  0  2  0  0  3  0  0  0  0  0  0
  179.9130  181.8160  135.2260 C   0  0  0  0  0  2  0  0  0  0  0  0
  1 11  1  6  0  0  0
  1 13  1  0  0  0  0
  2 14  1  6  0  0  0
  2  8  1  0  0  0  0
  3 12  1  0  0  0  0
  4 15  1  0  0  0  0
  5 11  1  0  0  0  0
  6  5  1  0  0  0  0
  6  2  1  0  0  0  0
  7 18  1  0  0  0  0
  8  1  1  0  0  0  0
  8  3  1  1  0  0  0
  9  7  1  0  0  0  0
  9 17  2  0  0  0  0
 10  4  1  0  0  0  0
 12 19  1  1  0  0  0
 12 16  1  0  0  0  0
 13 19  1  0  0  0  0
 15 16  2  0  0  0  0
 16 22  1  0  0  0  0
 17 10  1  0  0  0  0
 18  3  1  0  0  0  0
 18  4  2  0  0  0  0
 20 26  1  0  0  0  0
 20 21  1  0  0  0  0
 22 24  2  0  0  0  0
 22 25  1  0  0  0  0
 23 21  1  0  0  0  0
 24 20  1  0  0  0  0
 25 23  2  0  0  0  0
 27 17  1  0  0  0  0
 28 27  1  0  0  0  0
 29 33  1  0  0  0  0
 30 29  1  0  0  0  0
 31 32  1  0  0  0  0
 32 33  1  0  0  0  0
 33 28  1  1  0  0  0
 34 31  1  0  0  0  0
 34 30  1  0  0  0  0
M  END
>  <MODEL>
6

>  <REMARK>
 VINA RESULT:      -7.2      1.000      1.642
  Name = 
  4 active torsions:
  status: ('A' for Active; 'I' for Inactive)
    1  A    between atoms: C_3  and  N_13
    2  A    between atoms: C_3  and  C_29
    3  A    between atoms: C_12  and  C_28
    4  A    between atoms: N_13  and  C_33
                            x       y       z     vdW  Elec       q    Type
                         _______ _______ _______ _____ _____    ______ ____

>  <TORSDO>
F 4

$$$$
=
 OpenBabel11052414193D

 34 39  0  0  1  0  0  0  0  0999 V2000
  186.5330  177.1020  145.2410 C   0  0  2  0  0  3  0  0  0  0  0  0
  185.6810  179.4640  144.8820 C   0  0  1  0  0  3  0  0  0  0  0  0
  186.0800  177.9420  142.9520 N   0  0  0  0  0  0  0  0  0  0  0  0
  185.6530  178.6260  140.6060 C   0  0  0  0  0  0  0  0  0  0  0  0
  186.3120  178.6810  147.1170 N   0  0  0  0  0  2  0  0  0  0  0  0
  185.3460  179.4820  146.3710 C   0  0  0  0  0  2  0  0  0  0  0  0
  183.8380  177.8780  142.0450 C   0  0  0  0  0  2  0  0  0  0  0  0
  185.6610  178.0130  144.3610 C   0  0  1  0  0  3  0  0  0  0  0  0
  182.8800  177.9100  140.9250 C   0  0  0  0  0  3  0  0  0  0  0  0
  184.5890  179.5130  139.4720 S   0  0  0  0  0  0  0  0  0  0  0  0
  186.1650  177.2830  146.7150 C   0  0  0  0  0  2  0  0  0  0  0  0
  187.4630  177.7120  142.5790 C   0  0  2  0  0  3  0  0  0  0  0  0
  188.0070  177.4160  145.0180 C   0  0  0  0  0  2  0  0  0  0  0  0
  184.6680  180.3280  144.1540 C   0  0  0  0  0  1  0  0  0  0  0  0
  186.9220  178.5150  140.3580 N   0  0  0  0  0  0  0  0  0  0  0  0
  187.8610  177.9560  141.3010 C   0  0  0  0  0  0  0  0  0  0  0  0
  183.1440  178.4730  139.7410 C   0  0  0  0  0  0  0  0  0  0  0  0
  185.1310  178.1920  141.9030 C   0  0  0  0  0  0  0  0  0  0  0  0
  188.3980  177.0910  143.5860 C   0  0  0  0  0  2  0  0  0  0  0  0
  190.7660  177.1330  139.0470 N   0  0  0  0  0  0  0  0  0  0  0  0
  191.9570  177.4330  139.8450 C   0  0  0  0  0  2  0  0  0  0  0  0
  189.2460  177.7190  140.8200 C   0  0  0  0  0  0  0  0  0  0  0  0
  191.6420  177.5030  141.3130 C   0  0  0  0  0  3  0  0  0  0  0  0
  189.4490  177.4200  139.5330 C   0  0  0  0  0  3  0  0  0  0  0  0
  190.3920  177.6640  141.7520 C   0  0  0  0  0  3  0  0  0  0  0  0
  190.9320  176.7530  137.6580 C   0  0  0  0  0  1  0  0  0  0  0  0
  182.1770  178.3050  138.6180 C   0  0  0  0  0  2  0  0  0  0  0  0
  181.7830  176.9100  138.5030 N   0  0  0  0  0  2  0  0  0  0  0  0
  183.7580  175.7240  137.6860 C   0  0  0  0  0  2  0  0  0  0  0  0
  184.8540  176.4710  137.2180 O   0  0  0  0  0  0  0  0  0  0  0  0
  183.6400  177.1270  135.2160 C   0  0  0  0  0  2  0  0  0  0  0  0
  182.6170  177.5110  136.2880 C   0  0  0  0  0  2  0  0  0  0  0  0
  182.4210  176.3840  137.3080 C   0  0  2  0  0  3  0  0  0  0  0  0
  184.8300  176.3620  135.8150 C   0  0  0  0  0  2  0  0  0  0  0  0
  1 13  1  1  0  0  0
  1 11  1  0  0  0  0
  2 14  1  6  0  0  0
  2  6  1  0  0  0  0
  4 18  2  0  0  0  0
  6  5  1  0  0  0  0
  8  3  1  6  0  0  0
  8  2  1  0  0  0  0
  8  1  1  0  0  0  0
  9  7  1  0  0  0  0
 10 17  1  0  0  0  0
 10  4  1  0  0  0  0
 11  5  1  0  0  0  0
 12  3  1  0  0  0  0
 12 19  1  6  0  0  0
 15  4  1  0  0  0  0
 15 16  2  0  0  0  0
 16 12  1  0  0  0  0
 17  9  2  0  0  0  0
 18  7  1  0  0  0  0
 18  3  1  0  0  0  0
 19 13  1  0  0  0  0
 20 24  1  0  0  0  0
 20 21  1  0  0  0  0
 21 23  1  0  0  0  0
 22 16  1  0  0  0  0
 22 25  1  0  0  0  0
 23 25  2  0  0  0  0
 24 22  2  0  0  0  0
 26 20  1  0  0  0  0
 27 17  1  0  0  0  0
 28 27  1  0  0  0  0
 30 29  1  0  0  0  0
 31 34  1  0  0  0  0
 31 32  1  0  0  0  0
 32 33  1  0  0  0  0
 33 29  1  0  0  0  0
 33 28  1  1  0  0  0
 34 30  1  0  0  0  0
M  END
>  <MODEL>
7

>  <REMARK>
 VINA RESULT:      -7.1      2.994      6.274
  Name = 
  4 active torsions:
  status: ('A' for Active; 'I' for Inactive)
    1  A    between atoms: C_3  and  N_13
    2  A    between atoms: C_3  and  C_29
    3  A    between atoms: C_12  and  C_28
    4  A    between atoms: N_13  and  C_33
                            x       y       z     vdW  Elec       q    Type
                         _______ _______ _______ _____ _____    ______ ____

>  <TORSDO>
F 4

$$$$
=
 OpenBabel11052414193D

 34 39  0  0  1  0  0  0  0  0999 V2000
  180.3160  178.7370  141.3650 C   0  0  2  0  0  3  0  0  0  0  0  0
  181.2360  180.4980  139.7870 C   0  0  1  0  0  3  0  0  0  0  0  0
  182.6350  178.5660  140.5030 N   0  0  0  0  0  0  0  0  0  0  0  0
  184.9630  178.2420  139.7100 C   0  0  0  0  0  0  0  0  0  0  0  0
  179.0160  180.7500  140.7960 N   0  0  0  0  0  2  0  0  0  0  0  0
  179.7910  180.9440  139.5750 C   0  0  0  0  0  2  0  0  0  0  0  0
  183.0650  177.5830  138.3350 C   0  0  0  0  0  3  0  0  0  0  0  0
  181.2670  179.0100  140.1870 C   0  0  1  0  0  3  0  0  0  0  0  0
  183.9530  176.9600  137.3360 C   0  0  0  0  0  3  0  0  0  0  0  0
  186.1100  178.3520  138.3400 S   0  0  0  0  0  0  0  0  0  0  0  0
  178.9310  179.3150  141.0690 C   0  0  0  0  0  2  0  0  0  0  0  0
  183.1550  178.6050  141.8560 C   0  0  2  0  0  3  0  0  0  0  0  0
  180.8820  179.3410  142.6440 C   0  0  0  0  0  2  0  0  0  0  0  0
  182.0060  180.7430  138.5030 C   0  0  0  0  0  1  0  0  0  0  0  0
  185.3840  178.4010  140.9270 N   0  0  0  0  0  0  0  0  0  0  0  0
  184.4950  178.4840  142.0610 C   0  0  0  0  0  0  0  0  0  0  0  0
  185.2810  177.1220  137.3200 C   0  0  2  0  0  3  0  0  0  0  0  0
  183.5240  178.1660  139.4480 C   0  0  0  0  0  0  0  0  0  0  0  0
  182.1870  178.6540  143.0100 C   0  0  0  0  0  2  0  0  0  0  0  0
  186.9150  177.8400  144.8760 N   0  0  0  0  0  0  0  0  0  0  0  0
  186.4020  178.6270  146.0000 C   0  0  0  0  0  2  0  0  0  0  0  0
  185.1150  178.4790  143.4110 C   0  0  0  0  0  0  0  0  0  0  0  0
  184.9600  179.0030  145.8050 C   0  0  0  0  0  3  0  0  0  0  0  0
  186.3120  177.9100  143.5790 C   0  0  0  0  0  3  0  0  0  0  0  0
  184.3840  178.9600  144.6020 C   0  0  0  0  0  3  0  0  0  0  0  0
  188.1860  177.1580  145.0220 C   0  0  0  0  0  1  0  0  0  0  0  0
  186.1050  176.3160  136.3760 C   0  0  0  0  0  2  0  0  0  0  0  0
  186.8310  175.2850  137.1010 N   0  0  0  0  0  2  0  0  0  0  0  0
  185.7190  174.1990  135.2140 C   0  0  0  0  0  2  0  0  0  0  0  0
  184.3270  173.9980  135.2700 O   0  0  0  0  0  0  0  0  0  0  0  0
  184.5750  172.2530  136.9450 C   0  0  0  0  0  2  0  0  0  0  0  0
  185.4020  173.3670  137.5930 C   0  0  0  0  0  2  0  0  0  0  0  0
  186.3740  174.0030  136.5920 C   0  0  2  0  0  3  0  0  0  0  0  0
  184.1400  172.6270  135.5190 C   0  0  0  0  0  2  0  0  0  0  0  0
  1 11  1  6  0  0  0
  1 13  1  0  0  0  0
  2 14  1  6  0  0  0
  2  8  1  0  0  0  0
  3 12  1  0  0  0  0
  4 15  1  0  0  0  0
  5 11  1  0  0  0  0
  6  2  1  0  0  0  0
  6  5  1  0  0  0  0
  7 18  1  0  0  0  0
  8  3  1  1  0  0  0
  8  1  1  0  0  0  0
  9  7  2  0  0  0  0
 10  4  1  0  0  0  0
 12 16  1  0  0  0  0
 12 19  1  1  0  0  0
 13 19  1  0  0  0  0
 15 16  2  0  0  0  0
 16 22  1  0  0  0  0
 17 27  1  6  0  0  0
 17  9  1  0  0  0  0
 17 10  1  0  0  0  0
 18  4  2  0  0  0  0
 18  3  1  0  0  0  0
 20 26  1  0  0  0  0
 20 21  1  0  0  0  0
 22 24  2  0  0  0  0
 22 25  1  0  0  0  0
 23 21  1  0  0  0  0
 24 20  1  0  0  0  0
 25 23  2  0  0  0  0
 27 28  1  0  0  0  0
 29 30  1  0  0  0  0
 29 33  1  0  0  0  0
 30 34  1  0  0  0  0
 31 32  1  0  0  0  0
 33 28  1  1  0  0  0
 33 32  1  0  0  0  0
 34 31  1  0  0  0  0
M  END
>  <MODEL>
8

>  <REMARK>
 VINA RESULT:      -7.1      2.815      6.983
  Name = 
  4 active torsions:
  status: ('A' for Active; 'I' for Inactive)
    1  A    between atoms: C_3  and  N_13
    2  A    between atoms: C_3  and  C_29
    3  A    between atoms: C_12  and  C_28
    4  A    between atoms: N_13  and  C_33
                            x       y       z     vdW  Elec       q    Type
                         _______ _______ _______ _____ _____    ______ ____

>  <TORSDO>
F 4

$$$$
=
 OpenBabel11052414193D

 34 39  0  0  1  0  0  0  0  0999 V2000
  186.9290  176.3690  136.5680 C   0  0  2  0  0  3  0  0  0  0  0  0
  188.5530  178.3080  136.7640 C   0  0  1  0  0  3  0  0  0  0  0  0
  187.2360  177.5390  138.7330 N   0  0  0  0  0  0  0  0  0  0  0  0
  187.4470  178.5900  140.9700 C   0  0  0  0  0  0  0  0  0  0  0  0
  188.0980  177.2630  134.5940 N   0  0  0  0  0  2  0  0  0  0  0  0
  189.1410  177.8420  135.4340 C   0  0  0  0  0  2  0  0  0  0  0  0
  189.0600  176.9370  140.2020 C   0  0  0  0  0  3  0  0  0  0  0  0
  187.9060  177.1130  137.4930 C   0  0  1  0  0  3  0  0  0  0  0  0
  189.7260  176.9140  141.5180 C   0  0  0  0  0  3  0  0  0  0  0  0
  188.5400  179.3090  142.1910 S   0  0  0  0  0  0  0  0  0  0  0  0
  187.6080  176.0440  135.2360 C   0  0  0  0  0  2  0  0  0  0  0  0
  185.8300  177.8950  138.7550 C   0  0  2  0  0  3  0  0  0  0  0  0
  185.6810  177.2130  136.3370 C   0  0  0  0  0  2  0  0  0  0  0  0
  189.6660  178.9240  137.5900 C   0  0  0  0  0  1  0  0  0  0  0  0
  186.2150  178.9850  140.8840 N   0  0  0  0  0  0  0  0  0  0  0  0
  185.3270  178.5680  139.8260 C   0  0  0  0  0  0  0  0  0  0  0  0
  189.4860  177.8060  142.4850 C   0  0  2  0  0  3  0  0  0  0  0  0
  187.9920  177.6990  139.9430 C   0  0  0  0  0  0  0  0  0  0  0  0
  184.9340  177.4050  137.6460 C   0  0  0  0  0  2  0  0  0  0  0  0
  182.0300  180.3040  139.2660 N   0  0  0  0  0  0  0  0  0  0  0  0
  181.0680  179.5520  140.0730 C   0  0  0  0  0  2  0  0  0  0  0  0
  183.8960  178.9450  139.9510 C   0  0  0  0  0  0  0  0  0  0  0  0
  181.7490  178.7200  141.1230 C   0  0  0  0  0  3  0  0  0  0  0  0
  183.3920  179.8790  139.1370 C   0  0  0  0  0  3  0  0  0  0  0  0
  183.0470  178.4210  141.0420 C   0  0  0  0  0  3  0  0  0  0  0  0
  181.5440  181.3640  138.4040 C   0  0  0  0  0  1  0  0  0  0  0  0
  190.0800  177.5990  143.8360 C   0  0  0  0  0  2  0  0  0  0  0  0
  189.1620  176.8480  144.6770 N   0  0  0  0  0  2  0  0  0  0  0  0
  188.7230  177.8180  146.8770 C   0  0  0  0  0  2  0  0  0  0  0  0
  187.7010  177.2650  147.6710 O   0  0  0  0  0  0  0  0  0  0  0  0
  185.9800  178.1850  146.2210 C   0  0  0  0  0  2  0  0  0  0  0  0
  186.8600  177.4850  145.1830 C   0  0  0  0  0  2  0  0  0  0  0  0
  188.3430  177.8160  145.3860 C   0  0  2  0  0  3  0  0  0  0  0  0
  186.6280  178.1730  147.6140 C   0  0  0  0  0  2  0  0  0  0  0  0
  1 11  1  6  0  0  0
  1  8  1  0  0  0  0
  2  8  1  0  0  0  0
  2 14  1  1  0  0  0
  3 12  1  0  0  0  0
  3 18  1  0  0  0  0
  4 10  1  0  0  0  0
  5 11  1  0  0  0  0
  5  6  1  0  0  0  0
  6  2  1  0  0  0  0
  7  9  2  0  0  0  0
  8  3  1  1  0  0  0
  9 17  1  0  0  0  0
 10 17  1  0  0  0  0
 12 19  1  1  0  0  0
 12 16  1  0  0  0  0
 13  1  1  0  0  0  0
 13 19  1  0  0  0  0
 15  4  1  0  0  0  0
 16 22  1  0  0  0  0
 16 15  2  0  0  0  0
 17 27  1  6  0  0  0
 18  7  1  0  0  0  0
 18  4  2  0  0  0  0
 20 21  1  0  0  0  0
 21 23  1  0  0  0  0
 22 25  1  0  0  0  0
 24 20  1  0  0  0  0
 24 22  2  0  0  0  0
 25 23  2  0  0  0  0
 26 20  1  0  0  0  0
 27 28  1  0  0  0  0
 29 30  1  0  0  0  0
 31 34  1  0  0  0  0
 32 33  1  0  0  0  0
 32 31  1  0  0  0  0
 33 28  1  6  0  0  0
 33 29  1  0  0  0  0
 34 30  1  0  0  0  0
M  END
>  <MODEL>
9

>  <REMARK>
 VINA RESULT:      -7.0      3.109      7.619
  Name = 
  4 active torsions:
  status: ('A' for Active; 'I' for Inactive)
    1  A    between atoms: C_3  and  N_13
    2  A    between atoms: C_3  and  C_29
    3  A    between atoms: C_12  and  C_28
    4  A    between atoms: N_13  and  C_33
                            x       y       z     vdW  Elec       q    Type
                         _______ _______ _______ _____ _____    ______ ____

>  <TORSDO>
F 4

$$$$
