=
 OpenBabel11052415403D

 34 38  0  0  1  0  0  0  0  0999 V2000
  188.7870  176.8510  144.6110 C   0  0  1  0  0  3  0  0  0  0  0  0
  188.4480  176.6680  147.6820 O   0  0  0  0  0  0  0  0  0  0  0  0
  191.6380  177.2280  144.4070 C   0  0  0  0  0  3  0  0  0  0  0  0
  189.4620  177.1230  143.3310 N   0  0  0  0  0  0  0  0  0  0  0  0
  191.0540  177.2380  145.5990 C   0  0  0  0  0  0  0  0  0  0  0  0
  191.7080  177.0110  146.8430 N   0  0  0  0  0  0  0  0  0  0  0  0
  190.7580  177.2670  143.2170 C   0  0  0  0  0  0  0  0  0  0  0  0
  189.5370  176.9010  147.0960 C   0  0  0  0  0  0  0  0  0  0  0  0
  189.6450  177.2470  145.7240 N   0  0  0  0  0  0  0  0  0  0  0  0
  190.8130  176.8130  147.7270 N   0  0  0  0  0  0  0  0  0  0  0  0
  185.9730  178.7000  146.3150 C   0  0  0  0  0  3  0  0  0  0  0  0
  184.7260  178.1150  145.7430 C   0  0  0  0  0  2  0  0  0  0  0  0
  184.5360  178.5180  144.3200 C   0  0  0  0  0  0  0  0  0  0  0  0
  185.4030  178.1750  143.3640 C   0  0  0  0  0  3  0  0  0  0  0  0
  187.1870  178.4150  145.8460 C   0  0  0  0  0  3  0  0  0  0  0  0
  186.7010  177.5050  143.5750 C   0  0  0  0  0  3  0  0  0  0  0  0
  187.4740  177.5620  144.6690 C   0  0  0  0  0  0  0  0  0  0  0  0
  181.9440  178.5580  144.5780 O   0  0  0  0  0  1  0  0  0  0  0  0
  182.8270  178.9750  142.2270 O   0  0  0  0  0  1  0  0  0  0  0  0
  183.0350  179.3530  143.8730 S   0  0  0  0  0  3  0  0  0  0  0  0
  191.3630  177.4540  141.8630 C   0  0  0  0  0  2  0  0  0  0  0  0
  190.3910  176.1230  138.3640 C   0  0  0  0  0  2  0  0  0  0  0  0
  189.3000  177.5810  140.5800 O   0  0  0  0  0  0  0  0  0  0  0  0
  187.0820  177.4150  137.0020 C   0  0  0  0  0  0  0  0  0  0  0  0
  188.3320  176.7820  137.0930 C   0  0  0  0  0  3  0  0  0  0  0  0
  189.0750  176.8380  138.2750 C   0  0  0  0  0  0  0  0  0  0  0  0
  187.3200  178.1510  139.3120 C   0  0  0  0  0  3  0  0  0  0  0  0
  188.5600  177.5160  139.3950 C   0  0  0  0  0  0  0  0  0  0  0  0
  186.5850  178.1010  138.1240 C   0  0  0  0  0  3  0  0  0  0  0  0
  190.5110  176.8420  140.7540 C   0  0  1  0  0  3  0  0  0  0  0  0
  191.2860  176.7400  139.4380 C   0  0  0  0  0  2  0  0  0  0  0  0
  186.3210  177.3610  135.7810 N   0  0  0  0  0  0  0  0  0  0  0  0
  185.0970  176.5780  135.6900 C   0  0  0  0  0  1  0  0  0  0  0  0
  186.7450  178.0870  134.5950 C   0  0  0  0  0  1  0  0  0  0  0  0
  1 17  1  6  0  0  0
  1  9  1  0  0  0  0
  3  5  2  0  0  0  0
  4  1  1  0  0  0  0
  5  9  1  0  0  0  0
  5  6  1  0  0  0  0
  6 10  2  0  0  0  0
  7  4  2  0  0  0  0
  7  3  1  0  0  0  0
  8  2  2  0  0  0  0
  8 10  1  0  0  0  0
  9  8  1  0  0  0  0
 12 11  1  0  0  0  0
 13 12  1  0  0  0  0
 14 16  1  0  0  0  0
 14 13  2  0  0  0  0
 15 11  2  0  0  0  0
 16 17  2  0  0  0  0
 17 15  1  0  0  0  0
 19 20  1  0  0  0  0
 20 13  1  0  0  0  0
 20 18  1  0  0  0  0
 21  7  1  0  0  0  0
 22 31  1  0  0  0  0
 23 30  1  0  0  0  0
 24 25  2  0  0  0  0
 24 29  1  0  0  0  0
 25 26  1  0  0  0  0
 26 22  1  0  0  0  0
 26 28  2  0  0  0  0
 27 28  1  0  0  0  0
 28 23  1  0  0  0  0
 29 27  2  0  0  0  0
 30 21  1  1  0  0  0
 31 30  1  0  0  0  0
 32 24  1  0  0  0  0
 33 32  1  0  0  0  0
 34 32  1  0  0  0  0
M  END
>  <MODEL>
1

>  <REMARK>
 VINA RESULT:      -9.7      0.000      0.000
  Name = 
  5 active torsions:
  status: ('A' for Active; 'I' for Inactive)
    1  A    between atoms: C_1  and  C_34
    2  A    between atoms: C_7  and  N_11
    3  A    between atoms: C_17  and  C_18
    4  A    between atoms: C_18  and  C_30
    5  A    between atoms: S_24  and  C_25
                            x       y       z     vdW  Elec       q    Type
                         _______ _______ _______ _____ _____    ______ ____

>  <TORSDO>
F 5

$$$$
=
 OpenBabel11052415403D

 34 38  0  0  1  0  0  0  0  0999 V2000
  189.1520  178.2470  144.2930 C   0  0  1  0  0  3  0  0  0  0  0  0
  192.1660  177.5480  144.2330 O   0  0  0  0  0  0  0  0  0  0  0  0
  188.4250  177.2730  146.9070 C   0  0  0  0  0  3  0  0  0  0  0  0
  187.7600  178.2290  144.7760 N   0  0  0  0  0  0  0  0  0  0  0  0
  189.6400  177.0360  146.4280 C   0  0  0  0  0  0  0  0  0  0  0  0
  190.7860  176.7010  147.2040 N   0  0  0  0  0  0  0  0  0  0  0  0
  187.4180  177.8180  145.9700 C   0  0  0  0  0  0  0  0  0  0  0  0
  191.3820  177.2510  145.1720 C   0  0  0  0  0  0  0  0  0  0  0  0
  189.9680  177.3310  145.0840 N   0  0  0  0  0  0  0  0  0  0  0  0
  191.8140  176.8270  146.4630 N   0  0  0  0  0  0  0  0  0  0  0  0
  190.4010  176.3480  141.2810 C   0  0  0  0  0  3  0  0  0  0  0  0
  190.5650  177.3800  140.2160 C   0  0  0  0  0  2  0  0  0  0  0  0
  189.2470  177.8830  139.7330 C   0  0  0  0  0  0  0  0  0  0  0  0
  188.3950  178.5240  140.5360 C   0  0  0  0  0  3  0  0  0  0  0  0
  189.8240  176.6060  142.4540 C   0  0  0  0  0  3  0  0  0  0  0  0
  188.5460  178.6970  141.9950 C   0  0  0  0  0  3  0  0  0  0  0  0
  189.2040  177.8940  142.8420 C   0  0  0  0  0  0  0  0  0  0  0  0
  190.1680  177.2330  137.3850 O   0  0  0  0  0  1  0  0  0  0  0  0
  188.7720  179.3600  137.4740 O   0  0  0  0  0  1  0  0  0  0  0  0
  188.8740  177.7450  138.0030 S   0  0  0  0  0  3  0  0  0  0  0  0
  185.9910  177.9180  146.4040 C   0  0  0  0  0  2  0  0  0  0  0  0
  182.8100  179.2850  144.6800 C   0  0  0  0  0  2  0  0  0  0  0  0
  185.3800  178.1710  144.0620 O   0  0  0  0  0  0  0  0  0  0  0  0
  182.6000  178.6550  140.9340 C   0  0  0  0  0  0  0  0  0  0  0  0
  182.2620  179.0180  142.2480 C   0  0  0  0  0  3  0  0  0  0  0  0
  183.1770  178.8550  143.2900 C   0  0  0  0  0  0  0  0  0  0  0  0
  184.8030  177.9750  141.7210 C   0  0  0  0  0  3  0  0  0  0  0  0
  184.4590  178.3430  143.0230 C   0  0  0  0  0  0  0  0  0  0  0  0
  183.8800  178.1310  140.6830 C   0  0  0  0  0  3  0  0  0  0  0  0
  185.1210  178.6500  145.3840 C   0  0  1  0  0  3  0  0  0  0  0  0
  183.6340  178.5380  145.7270 C   0  0  0  0  0  2  0  0  0  0  0  0
  181.6530  178.8190  139.8620 N   0  0  0  0  0  0  0  0  0  0  0  0
  180.3940  178.0900  139.8500 C   0  0  0  0  0  1  0  0  0  0  0  0
  181.9190  179.7210  138.7520 C   0  0  0  0  0  1  0  0  0  0  0  0
  1 17  1  6  0  0  0
  1  4  1  0  0  0  0
  1  9  1  0  0  0  0
  2  8  2  0  0  0  0
  4  7  2  0  0  0  0
  5  3  2  0  0  0  0
  5  6  1  0  0  0  0
  7 21  1  0  0  0  0
  7  3  1  0  0  0  0
  8 10  1  0  0  0  0
  9  8  1  0  0  0  0
  9  5  1  0  0  0  0
 10  6  2  0  0  0  0
 11 15  2  0  0  0  0
 12 11  1  0  0  0  0
 13 12  1  0  0  0  0
 13 14  2  0  0  0  0
 14 16  1  0  0  0  0
 15 17  1  0  0  0  0
 16 17  2  0  0  0  0
 18 20  1  0  0  0  0
 19 20  1  0  0  0  0
 20 13  1  0  0  0  0
 22 31  1  0  0  0  0
 23 30  1  0  0  0  0
 24 25  1  0  0  0  0
 25 26  2  0  0  0  0
 26 22  1  0  0  0  0
 27 28  2  0  0  0  0
 28 26  1  0  0  0  0
 28 23  1  0  0  0  0
 29 24  2  0  0  0  0
 29 27  1  0  0  0  0
 30 31  1  0  0  0  0
 30 21  1  1  0  0  0
 32 24  1  0  0  0  0
 33 32  1  0  0  0  0
 34 32  1  0  0  0  0
M  END
>  <MODEL>
2

>  <REMARK>
 VINA RESULT:      -9.7      2.991      6.036
  Name = 
  5 active torsions:
  status: ('A' for Active; 'I' for Inactive)
    1  A    between atoms: C_1  and  C_34
    2  A    between atoms: C_7  and  N_11
    3  A    between atoms: C_17  and  C_18
    4  A    between atoms: C_18  and  C_30
    5  A    between atoms: S_24  and  C_25
                            x       y       z     vdW  Elec       q    Type
                         _______ _______ _______ _____ _____    ______ ____

>  <TORSDO>
F 5

$$$$
=
 OpenBabel11052415403D

 34 38  0  0  1  0  0  0  0  0999 V2000
  185.2020  178.6060  138.0930 C   0  0  1  0  0  3  0  0  0  0  0  0
  183.1460  177.3650  136.1420 O   0  0  0  0  0  0  0  0  0  0  0  0
  187.4740  176.8880  137.6450 C   0  0  0  0  0  3  0  0  0  0  0  0
  186.4380  178.6990  138.8890 N   0  0  0  0  0  0  0  0  0  0  0  0
  186.3070  176.6010  137.0810 C   0  0  0  0  0  0  0  0  0  0  0  0
  186.1210  175.7630  135.9450 N   0  0  0  0  0  0  0  0  0  0  0  0
  187.4880  177.9470  138.6790 C   0  0  0  0  0  0  0  0  0  0  0  0
  184.2990  176.9050  136.3520 C   0  0  0  0  0  0  0  0  0  0  0  0
  185.1320  177.3080  137.4280 N   0  0  0  0  0  0  0  0  0  0  0  0
  184.9350  175.9420  135.5150 N   0  0  0  0  0  0  0  0  0  0  0  0
  182.9100  177.8870  141.0030 C   0  0  0  0  0  3  0  0  0  0  0  0
  181.5320  177.9980  140.4440 C   0  0  0  0  0  2  0  0  0  0  0  0
  181.1820  179.4120  140.1240 C   0  0  0  0  0  0  0  0  0  0  0  0
  181.8520  180.1180  139.2100 C   0  0  0  0  0  3  0  0  0  0  0  0
  183.9990  178.2290  140.3150 C   0  0  0  0  0  3  0  0  0  0  0  0
  183.0790  179.6860  138.5130 C   0  0  0  0  0  3  0  0  0  0  0  0
  184.0060  178.8280  138.9600 C   0  0  0  0  0  0  0  0  0  0  0  0
  179.6390  181.5060  140.2660 O   0  0  0  0  0  1  0  0  0  0  0  0
  180.2260  180.4120  142.4890 O   0  0  0  0  0  1  0  0  0  0  0  0
  179.7420  180.1170  140.8840 S   0  0  0  0  0  3  0  0  0  0  0  0
  188.7290  178.1730  139.4800 C   0  0  0  0  0  2  0  0  0  0  0  0
  187.6030  177.5710  143.1310 C   0  0  0  0  0  2  0  0  0  0  0  0
  189.9440  177.4960  141.4770 O   0  0  0  0  0  0  0  0  0  0  0  0
  190.4230  177.1470  145.6480 C   0  0  0  0  0  0  0  0  0  0  0  0
  189.1450  177.3110  145.0910 C   0  0  0  0  0  3  0  0  0  0  0  0
  188.9800  177.4340  143.7090 C   0  0  0  0  0  0  0  0  0  0  0  0
  191.3750  177.2100  143.4070 C   0  0  0  0  0  3  0  0  0  0  0  0
  190.1000  177.3700  142.8610 C   0  0  0  0  0  0  0  0  0  0  0  0
  191.5360  177.0980  144.7900 C   0  0  0  0  0  3  0  0  0  0  0  0
  188.6540  177.5330  140.8650 C   0  0  1  0  0  3  0  0  0  0  0  0
  187.6400  178.2480  141.7620 C   0  0  0  0  0  2  0  0  0  0  0  0
  190.5910  177.0260  147.0730 N   0  0  0  0  0  0  0  0  0  0  0  0
  189.6270  177.6040  147.9970 C   0  0  0  0  0  1  0  0  0  0  0  0
  191.7290  176.3210  147.6410 C   0  0  0  0  0  1  0  0  0  0  0  0
  1  4  1  0  0  0  0
  1 17  1  1  0  0  0
  2  8  2  0  0  0  0
  3  7  1  0  0  0  0
  5  9  1  0  0  0  0
  5  3  2  0  0  0  0
  6  5  1  0  0  0  0
  7  4  2  0  0  0  0
  7 21  1  0  0  0  0
  8  9  1  0  0  0  0
  9  1  1  0  0  0  0
 10  6  2  0  0  0  0
 10  8  1  0  0  0  0
 12 11  1  0  0  0  0
 13 12  1  0  0  0  0
 13 20  1  0  0  0  0
 14 13  2  0  0  0  0
 15 11  2  0  0  0  0
 16 17  2  0  0  0  0
 16 14  1  0  0  0  0
 17 15  1  0  0  0  0
 18 20  1  0  0  0  0
 20 19  1  0  0  0  0
 22 26  1  0  0  0  0
 23 28  1  0  0  0  0
 24 32  1  0  0  0  0
 25 24  1  0  0  0  0
 26 25  2  0  0  0  0
 27 29  1  0  0  0  0
 28 27  2  0  0  0  0
 28 26  1  0  0  0  0
 29 24  2  0  0  0  0
 30 21  1  6  0  0  0
 30 23  1  0  0  0  0
 30 31  1  0  0  0  0
 31 22  1  0  0  0  0
 32 34  1  0  0  0  0
 32 33  1  0  0  0  0
M  END
>  <MODEL>
3

>  <REMARK>
 VINA RESULT:      -9.2      2.790      8.099
  Name = 
  5 active torsions:
  status: ('A' for Active; 'I' for Inactive)
    1  A    between atoms: C_1  and  C_34
    2  A    between atoms: C_7  and  N_11
    3  A    between atoms: C_17  and  C_18
    4  A    between atoms: C_18  and  C_30
    5  A    between atoms: S_24  and  C_25
                            x       y       z     vdW  Elec       q    Type
                         _______ _______ _______ _____ _____    ______ ____

>  <TORSDO>
F 5

$$$$
=
 OpenBabel11052415403D

 34 38  0  0  1  0  0  0  0  0999 V2000
  181.9360  179.0890  138.2190 C   0  0  1  0  0  3  0  0  0  0  0  0
  179.2100  177.7190  137.6990 O   0  0  0  0  0  0  0  0  0  0  0  0
  182.9150  177.5170  140.4280 C   0  0  0  0  0  3  0  0  0  0  0  0
  183.1770  179.4180  138.9400 N   0  0  0  0  0  0  0  0  0  0  0  0
  181.6790  177.3310  139.9820 C   0  0  0  0  0  0  0  0  0  0  0  0
  180.8890  176.1650  140.1920 N   0  0  0  0  0  0  0  0  0  0  0  0
  183.6500  178.6990  139.9250 C   0  0  0  0  0  0  0  0  0  0  0  0
  179.9950  177.4160  138.6350 C   0  0  0  0  0  0  0  0  0  0  0  0
  181.1030  178.2070  139.0330 N   0  0  0  0  0  0  0  0  0  0  0  0
  179.8950  176.2150  139.3980 N   0  0  0  0  0  0  0  0  0  0  0  0
  180.5980  181.6990  135.8450 C   0  0  0  0  0  3  0  0  0  0  0  0
  180.8580  183.0030  136.5200 C   0  0  0  0  0  2  0  0  0  0  0  0
  179.9750  183.1910  137.7080 C   0  0  0  0  0  0  0  0  0  0  0  0
  180.0260  182.3770  138.7650 C   0  0  0  0  0  3  0  0  0  0  0  0
  180.7870  180.5240  136.4440 C   0  0  0  0  0  3  0  0  0  0  0  0
  180.8170  181.1350  138.8620 C   0  0  0  0  0  3  0  0  0  0  0  0
  181.1980  180.3360  137.8550 C   0  0  0  0  0  0  0  0  0  0  0  0
  179.0960  185.2580  136.3890 O   0  0  0  0  0  1  0  0  0  0  0  0
  179.7530  185.6900  138.8100 O   0  0  0  0  0  1  0  0  0  0  0  0
  178.9330  184.6260  137.7650 S   0  0  0  0  0  3  0  0  0  0  0  0
  184.9640  179.0620  140.5390 C   0  0  0  0  0  2  0  0  0  0  0  0
  184.8900  178.6630  144.3850 C   0  0  0  0  0  2  0  0  0  0  0  0
  186.5260  178.0560  142.1100 O   0  0  0  0  0  0  0  0  0  0  0  0
  188.1510  177.4930  145.9560 C   0  0  0  0  0  0  0  0  0  0  0  0
  186.8440  177.9810  145.8010 C   0  0  0  0  0  3  0  0  0  0  0  0
  186.3010  178.1760  144.5290 C   0  0  0  0  0  0  0  0  0  0  0  0
  188.3620  177.3760  143.5320 C   0  0  0  0  0  3  0  0  0  0  0  0
  187.0600  177.8590  143.3880 C   0  0  0  0  0  0  0  0  0  0  0  0
  188.9040  177.1940  144.8060 C   0  0  0  0  0  3  0  0  0  0  0  0
  185.1600  178.4250  141.9130 C   0  0  1  0  0  3  0  0  0  0  0  0
  184.6720  179.3440  143.0350 C   0  0  0  0  0  2  0  0  0  0  0  0
  188.7100  177.2980  147.2680 N   0  0  0  0  0  0  0  0  0  0  0  0
  190.0490  176.7560  147.4450 C   0  0  0  0  0  1  0  0  0  0  0  0
  187.9580  177.6380  148.4660 C   0  0  0  0  0  1  0  0  0  0  0  0
  1 17  1  1  0  0  0
  1  4  1  0  0  0  0
  1  9  1  0  0  0  0
  2  8  2  0  0  0  0
  4  7  2  0  0  0  0
  5  6  1  0  0  0  0
  5  3  2  0  0  0  0
  7  3  1  0  0  0  0
  7 21  1  0  0  0  0
  8  9  1  0  0  0  0
  8 10  1  0  0  0  0
  9  5  1  0  0  0  0
 10  6  2  0  0  0  0
 11 15  2  0  0  0  0
 11 12  1  0  0  0  0
 12 13  1  0  0  0  0
 13 20  1  0  0  0  0
 13 14  2  0  0  0  0
 14 16  1  0  0  0  0
 15 17  1  0  0  0  0
 17 16  2  0  0  0  0
 18 20  1  0  0  0  0
 20 19  1  0  0  0  0
 22 26  1  0  0  0  0
 23 28  1  0  0  0  0
 24 32  1  0  0  0  0
 25 24  1  0  0  0  0
 26 25  2  0  0  0  0
 27 29  1  0  0  0  0
 28 27  2  0  0  0  0
 28 26  1  0  0  0  0
 29 24  2  0  0  0  0
 30 21  1  6  0  0  0
 30 23  1  0  0  0  0
 30 31  1  0  0  0  0
 31 22  1  0  0  0  0
 32 33  1  0  0  0  0
 32 34  1  0  0  0  0
M  END
>  <MODEL>
4

>  <REMARK>
 VINA RESULT:      -9.2      5.249      9.789
  Name = 
  5 active torsions:
  status: ('A' for Active; 'I' for Inactive)
    1  A    between atoms: C_1  and  C_34
    2  A    between atoms: C_7  and  N_11
    3  A    between atoms: C_17  and  C_18
    4  A    between atoms: C_18  and  C_30
    5  A    between atoms: S_24  and  C_25
                            x       y       z     vdW  Elec       q    Type
                         _______ _______ _______ _____ _____    ______ ____

>  <TORSDO>
F 5

$$$$
=
 OpenBabel11052415403D

 34 38  0  0  1  0  0  0  0  0999 V2000
  191.5820  174.8840  137.6990 C   0  0  1  0  0  3  0  0  0  0  0  0
  191.6730  172.7150  135.4940 O   0  0  0  0  0  0  0  0  0  0  0  0
  188.9690  176.0120  137.2370 C   0  0  0  0  0  3  0  0  0  0  0  0
  191.0870  176.0670  138.4250 N   0  0  0  0  0  0  0  0  0  0  0  0
  189.4600  175.1150  136.3910 C   0  0  0  0  0  0  0  0  0  0  0  0
  188.6970  174.3250  135.4860 N   0  0  0  0  0  0  0  0  0  0  0  0
  189.8930  176.5730  138.2480 C   0  0  0  0  0  0  0  0  0  0  0  0
  190.7300  173.5340  135.6530 C   0  0  0  0  0  0  0  0  0  0  0  0
  190.8050  174.6840  136.4790 N   0  0  0  0  0  0  0  0  0  0  0  0
  189.4460  173.3920  135.0490 N   0  0  0  0  0  0  0  0  0  0  0  0
  194.5550  176.2930  135.8520 C   0  0  0  0  0  3  0  0  0  0  0  0
  195.4380  175.1200  135.5910 C   0  0  0  0  0  2  0  0  0  0  0  0
  196.0690  174.6190  136.8460 C   0  0  0  0  0  0  0  0  0  0  0  0
  195.3470  174.1350  137.8580 C   0  0  0  0  0  3  0  0  0  0  0  0
  193.4730  176.2260  136.6260 C   0  0  0  0  0  3  0  0  0  0  0  0
  193.8740  174.1550  137.9570 C   0  0  0  0  0  3  0  0  0  0  0  0
  193.0360  175.0340  137.3890 C   0  0  0  0  0  0  0  0  0  0  0  0
  198.1870  175.2550  138.2220 O   0  0  0  0  0  1  0  0  0  0  0  0
  198.3560  175.6090  135.7060 O   0  0  0  0  0  1  0  0  0  0  0  0
  197.8400  174.5370  136.9240 S   0  0  0  0  0  3  0  0  0  0  0  0
  189.4460  177.7220  139.0920 C   0  0  0  0  0  2  0  0  0  0  0  0
  187.8150  177.8500  142.5960 C   0  0  0  0  0  2  0  0  0  0  0  0
  190.2350  177.0370  141.2900 O   0  0  0  0  0  0  0  0  0  0  0  0
  190.1560  177.1040  145.5010 C   0  0  0  0  0  0  0  0  0  0  0  0
  189.0240  177.4880  144.7630 C   0  0  0  0  0  3  0  0  0  0  0  0
  189.0460  177.4730  143.3660 C   0  0  0  0  0  0  0  0  0  0  0  0
  191.3340  176.6700  143.4140 C   0  0  0  0  0  3  0  0  0  0  0  0
  190.2030  177.0500  142.6880 C   0  0  0  0  0  0  0  0  0  0  0  0
  191.3110  176.6970  144.8110 C   0  0  0  0  0  3  0  0  0  0  0  0
  189.0670  177.2930  140.5070 C   0  0  1  0  0  3  0  0  0  0  0  0
  188.1660  178.3260  141.1880 C   0  0  0  0  0  2  0  0  0  0  0  0
  190.1330  177.1260  146.9410 N   0  0  0  0  0  0  0  0  0  0  0  0
  191.3050  176.7540  147.7190 C   0  0  0  0  0  1  0  0  0  0  0  0
  188.9380  177.5210  147.6700 C   0  0  0  0  0  1  0  0  0  0  0  0
  1 17  1  6  0  0  0
  1  4  1  0  0  0  0
  2  8  2  0  0  0  0
  3  7  1  0  0  0  0
  5  9  1  0  0  0  0
  5  3  2  0  0  0  0
  6  5  1  0  0  0  0
  7  4  2  0  0  0  0
  7 21  1  0  0  0  0
  8  9  1  0  0  0  0
  9  1  1  0  0  0  0
 10  6  2  0  0  0  0
 10  8  1  0  0  0  0
 11 15  2  0  0  0  0
 12 11  1  0  0  0  0
 12 13  1  0  0  0  0
 13 20  1  0  0  0  0
 13 14  2  0  0  0  0
 14 16  1  0  0  0  0
 15 17  1  0  0  0  0
 17 16  2  0  0  0  0
 19 20  1  0  0  0  0
 20 18  1  0  0  0  0
 22 26  1  0  0  0  0
 23 28  1  0  0  0  0
 24 32  1  0  0  0  0
 25 24  2  0  0  0  0
 26 25  1  0  0  0  0
 27 29  2  0  0  0  0
 28 26  2  0  0  0  0
 28 27  1  0  0  0  0
 29 24  1  0  0  0  0
 30 21  1  6  0  0  0
 30 31  1  0  0  0  0
 30 23  1  0  0  0  0
 31 22  1  0  0  0  0
 32 34  1  0  0  0  0
 32 33  1  0  0  0  0
M  END
>  <MODEL>
5

>  <REMARK>
 VINA RESULT:      -9.1      4.977     10.598
  Name = 
  5 active torsions:
  status: ('A' for Active; 'I' for Inactive)
    1  A    between atoms: C_1  and  C_34
    2  A    between atoms: C_7  and  N_11
    3  A    between atoms: C_17  and  C_18
    4  A    between atoms: C_18  and  C_30
    5  A    between atoms: S_24  and  C_25
                            x       y       z     vdW  Elec       q    Type
                         _______ _______ _______ _____ _____    ______ ____

>  <TORSDO>
F 5

$$$$
=
 OpenBabel11052415403D

 34 38  0  0  1  0  0  0  0  0999 V2000
  181.9690  177.8470  141.0600 C   0  0  1  0  0  3  0  0  0  0  0  0
  178.9330  177.3790  141.4340 O   0  0  0  0  0  0  0  0  0  0  0  0
  182.6520  179.0080  143.6090 C   0  0  0  0  0  3  0  0  0  0  0  0
  183.3100  178.3770  141.3580 N   0  0  0  0  0  0  0  0  0  0  0  0
  181.3800  178.7800  143.3070 C   0  0  0  0  0  0  0  0  0  0  0  0
  180.3150  178.6620  144.2440 N   0  0  0  0  0  0  0  0  0  0  0  0
  183.6450  178.8800  142.5180 C   0  0  0  0  0  0  0  0  0  0  0  0
  179.6790  177.9410  142.2780 C   0  0  0  0  0  0  0  0  0  0  0  0
  180.9950  178.3920  142.0020 N   0  0  0  0  0  0  0  0  0  0  0  0
  179.3100  178.1680  143.6370 N   0  0  0  0  0  0  0  0  0  0  0  0
  181.3250  177.0430  137.4300 C   0  0  0  0  0  3  0  0  0  0  0  0
  181.9420  178.1680  136.6710 C   0  0  0  0  0  2  0  0  0  0  0  0
  181.1700  179.4330  136.8430 C   0  0  0  0  0  0  0  0  0  0  0  0
  181.0260  180.0190  138.0340 C   0  0  0  0  0  3  0  0  0  0  0  0
  181.2060  177.0450  138.7570 C   0  0  0  0  0  3  0  0  0  0  0  0
  181.4560  179.4590  139.3300 C   0  0  0  0  0  3  0  0  0  0  0  0
  181.5840  178.1640  139.6510 C   0  0  0  0  0  0  0  0  0  0  0  0
  180.1840  181.6430  135.8810 O   0  0  0  0  0  1  0  0  0  0  0  0
  179.0520  179.4980  135.1050 O   0  0  0  0  0  1  0  0  0  0  0  0
  180.5530  180.2490  135.3930 S   0  0  0  0  0  3  0  0  0  0  0  0
  185.0550  179.3130  142.7560 C   0  0  0  0  0  2  0  0  0  0  0  0
  186.4730  177.7820  146.0120 C   0  0  0  0  0  2  0  0  0  0  0  0
  187.1820  178.2490  143.2730 O   0  0  0  0  0  0  0  0  0  0  0  0
  190.1810  176.9320  145.9220 C   0  0  0  0  0  0  0  0  0  0  0  0
  188.8710  177.1500  146.3820 C   0  0  0  0  0  3  0  0  0  0  0  0
  187.8740  177.5920  145.5100 C   0  0  0  0  0  0  0  0  0  0  0  0
  189.4730  177.5910  143.6860 C   0  0  0  0  0  3  0  0  0  0  0  0
  188.1730  177.8010  144.1510 C   0  0  0  0  0  0  0  0  0  0  0  0
  190.4700  177.1590  144.5650 C   0  0  0  0  0  3  0  0  0  0  0  0
  185.8140  178.3550  143.6720 C   0  0  1  0  0  3  0  0  0  0  0  0
  185.7010  178.7710  145.1400 C   0  0  0  0  0  2  0  0  0  0  0  0
  191.2080  176.4820  146.8240 N   0  0  0  0  0  0  0  0  0  0  0  0
  191.4360  177.1450  148.0990 C   0  0  0  0  0  1  0  0  0  0  0  0
  192.0550  175.3460  146.4960 C   0  0  0  0  0  1  0  0  0  0  0  0
  1 17  1  6  0  0  0
  1  4  1  0  0  0  0
  1  9  1  0  0  0  0
  2  8  2  0  0  0  0
  4  7  2  0  0  0  0
  5  3  2  0  0  0  0
  5  6  1  0  0  0  0
  7 21  1  0  0  0  0
  7  3  1  0  0  0  0
  8 10  1  0  0  0  0
  9  8  1  0  0  0  0
  9  5  1  0  0  0  0
 10  6  2  0  0  0  0
 11 15  2  0  0  0  0
 12 13  1  0  0  0  0
 12 11  1  0  0  0  0
 13 14  2  0  0  0  0
 14 16  1  0  0  0  0
 15 17  1  0  0  0  0
 16 17  2  0  0  0  0
 19 20  1  0  0  0  0
 20 18  1  0  0  0  0
 20 13  1  0  0  0  0
 23 30  1  0  0  0  0
 23 28  1  0  0  0  0
 24 25  1  0  0  0  0
 24 32  1  0  0  0  0
 26 22  1  0  0  0  0
 26 25  2  0  0  0  0
 27 28  2  0  0  0  0
 27 29  1  0  0  0  0
 28 26  1  0  0  0  0
 29 24  2  0  0  0  0
 30 21  1  6  0  0  0
 30 31  1  0  0  0  0
 31 22  1  0  0  0  0
 32 33  1  0  0  0  0
 34 32  1  0  0  0  0
M  END
>  <MODEL>
6

>  <REMARK>
 VINA RESULT:      -8.9      4.813      9.081
  Name = 
  5 active torsions:
  status: ('A' for Active; 'I' for Inactive)
    1  A    between atoms: C_1  and  C_34
    2  A    between atoms: C_7  and  N_11
    3  A    between atoms: C_17  and  C_18
    4  A    between atoms: C_18  and  C_30
    5  A    between atoms: S_24  and  C_25
                            x       y       z     vdW  Elec       q    Type
                         _______ _______ _______ _____ _____    ______ ____

>  <TORSDO>
F 5

$$$$
=
 OpenBabel11052415403D

 34 38  0  0  1  0  0  0  0  0999 V2000
  183.9660  178.4200  139.8920 C   0  0  1  0  0  3  0  0  0  0  0  0
  181.3760  176.8110  140.4260 O   0  0  0  0  0  0  0  0  0  0  0  0
  184.8990  177.1510  137.4770 C   0  0  0  0  0  3  0  0  0  0  0  0
  185.2630  178.7430  139.2750 N   0  0  0  0  0  0  0  0  0  0  0  0
  183.8540  176.6500  138.1250 C   0  0  0  0  0  0  0  0  0  0  0  0
  182.8690  175.7890  137.5660 N   0  0  0  0  0  0  0  0  0  0  0  0
  185.6880  178.1980  138.1640 C   0  0  0  0  0  0  0  0  0  0  0  0
  182.1850  176.5740  139.4900 C   0  0  0  0  0  0  0  0  0  0  0  0
  183.4880  177.1280  139.4050 N   0  0  0  0  0  0  0  0  0  0  0  0
  181.8840  175.7420  138.3720 N   0  0  0  0  0  0  0  0  0  0  0  0
  182.8140  179.1440  143.4110 C   0  0  0  0  0  3  0  0  0  0  0  0
  184.0240  179.6590  144.1150 C   0  0  0  0  0  2  0  0  0  0  0  0
  185.0280  178.5800  144.3400 C   0  0  0  0  0  0  0  0  0  0  0  0
  185.6140  177.9350  143.3280 C   0  0  0  0  0  3  0  0  0  0  0  0
  182.8550  178.6280  142.1840 C   0  0  0  0  0  3  0  0  0  0  0  0
  185.2700  178.0730  141.8990 C   0  0  0  0  0  3  0  0  0  0  0  0
  184.0830  178.4190  141.3820 C   0  0  0  0  0  0  0  0  0  0  0  0
  185.6800  179.6340  146.6300 O   0  0  0  0  0  1  0  0  0  0  0  0
  187.1660  177.7280  145.8280 O   0  0  0  0  0  1  0  0  0  0  0  0
  185.5560  178.2520  146.0020 S   0  0  0  0  0  3  0  0  0  0  0  0
  186.9800  178.6530  137.5660 C   0  0  0  0  0  2  0  0  0  0  0  0
  189.6290  176.4180  139.2820 C   0  0  0  0  0  2  0  0  0  0  0  0
  188.0440  178.7620  139.7510 O   0  0  0  0  0  0  0  0  0  0  0  0
  190.1620  177.0930  142.9880 C   0  0  0  0  0  0  0  0  0  0  0  0
  190.2240  176.5000  141.7160 C   0  0  0  0  0  3  0  0  0  0  0  0
  189.5190  177.0450  140.6410 C   0  0  0  0  0  0  0  0  0  0  0  0
  188.6870  178.8070  142.0830 C   0  0  0  0  0  3  0  0  0  0  0  0
  188.7570  178.2130  140.8220 C   0  0  0  0  0  0  0  0  0  0  0  0
  189.3850  178.2520  143.1590 C   0  0  0  0  0  3  0  0  0  0  0  0
  188.1860  178.2660  138.4180 C   0  0  1  0  0  3  0  0  0  0  0  0
  188.4140  176.7530  138.4170 C   0  0  0  0  0  2  0  0  0  0  0  0
  190.8850  176.5260  144.0970 N   0  0  0  0  0  0  0  0  0  0  0  0
  190.8450  177.1390  145.4160 C   0  0  0  0  0  1  0  0  0  0  0  0
  191.6810  175.3190  143.9400 C   0  0  0  0  0  1  0  0  0  0  0  0
  1 17  1  1  0  0  0
  3  5  2  0  0  0  0
  3  7  1  0  0  0  0
  4  1  1  0  0  0  0
  5  9  1  0  0  0  0
  6  5  1  0  0  0  0
  6 10  2  0  0  0  0
  7  4  2  0  0  0  0
  8  2  2  0  0  0  0
  9  8  1  0  0  0  0
  9  1  1  0  0  0  0
 10  8  1  0  0  0  0
 11 12  1  0  0  0  0
 12 13  1  0  0  0  0
 13 20  1  0  0  0  0
 14 13  2  0  0  0  0
 15 11  2  0  0  0  0
 16 14  1  0  0  0  0
 17 16  2  0  0  0  0
 17 15  1  0  0  0  0
 19 20  1  0  0  0  0
 20 18  1  0  0  0  0
 21  7  1  0  0  0  0
 22 26  1  0  0  0  0
 23 28  1  0  0  0  0
 24 29  1  0  0  0  0
 24 32  1  0  0  0  0
 25 24  2  0  0  0  0
 26 28  2  0  0  0  0
 26 25  1  0  0  0  0
 27 29  2  0  0  0  0
 28 27  1  0  0  0  0
 30 21  1  6  0  0  0
 30 23  1  0  0  0  0
 31 30  1  0  0  0  0
 31 22  1  0  0  0  0
 32 33  1  0  0  0  0
 34 32  1  0  0  0  0
M  END
>  <MODEL>
7

>  <REMARK>
 VINA RESULT:      -8.9      2.578      6.947
  Name = 
  5 active torsions:
  status: ('A' for Active; 'I' for Inactive)
    1  A    between atoms: C_1  and  C_34
    2  A    between atoms: C_7  and  N_11
    3  A    between atoms: C_17  and  C_18
    4  A    between atoms: C_18  and  C_30
    5  A    between atoms: S_24  and  C_25
                            x       y       z     vdW  Elec       q    Type
                         _______ _______ _______ _____ _____    ______ ____

>  <TORSDO>
F 5

$$$$
=
 OpenBabel11052415403D

 34 38  0  0  1  0  0  0  0  0999 V2000
  181.3110  178.4870  139.8540 C   0  0  1  0  0  3  0  0  0  0  0  0
  180.0420  179.7360  137.3230 O   0  0  0  0  0  0  0  0  0  0  0  0
  180.2470  180.2180  141.8990 C   0  0  0  0  0  3  0  0  0  0  0  0
  181.7190  178.3920  141.2660 N   0  0  0  0  0  0  0  0  0  0  0  0
  180.0430  180.5050  140.6190 C   0  0  0  0  0  0  0  0  0  0  0  0
  179.0160  181.3500  140.1140 N   0  0  0  0  0  0  0  0  0  0  0  0
  181.2240  179.1500  142.2110 C   0  0  0  0  0  0  0  0  0  0  0  0
  179.9180  180.1980  138.4870 C   0  0  0  0  0  0  0  0  0  0  0  0
  180.7060  179.7900  139.5940 N   0  0  0  0  0  0  0  0  0  0  0  0
  178.9420  181.1710  138.8550 N   0  0  0  0  0  0  0  0  0  0  0  0
  183.1830  176.7980  137.0460 C   0  0  0  0  0  3  0  0  0  0  0  0
  184.5600  176.5830  137.5760 C   0  0  0  0  0  2  0  0  0  0  0  0
  185.3040  177.8690  137.7060 C   0  0  0  0  0  0  0  0  0  0  0  0
  184.8980  178.8430  138.5250 C   0  0  0  0  0  3  0  0  0  0  0  0
  182.2640  177.5150  137.6910 C   0  0  0  0  0  3  0  0  0  0  0  0
  183.6310  178.8640  139.2820 C   0  0  0  0  0  3  0  0  0  0  0  0
  182.4830  178.2530  138.9560 C   0  0  0  0  0  0  0  0  0  0  0  0
  187.3510  176.6100  136.7020 O   0  0  0  0  0  1  0  0  0  0  0  0
  187.8890  178.7260  138.0110 O   0  0  0  0  0  1  0  0  0  0  0  0
  186.8490  178.0400  136.8510 S   0  0  0  0  0  3  0  0  0  0  0  0
  181.6340  178.9230  143.6300 C   0  0  0  0  0  2  0  0  0  0  0  0
  185.4490  178.4980  143.1630 C   0  0  0  0  0  2  0  0  0  0  0  0
  183.4840  178.9040  145.2110 O   0  0  0  0  0  0  0  0  0  0  0  0
  187.4270  177.9830  146.3720 C   0  0  0  0  0  0  0  0  0  0  0  0
  187.0890  178.0710  145.0110 C   0  0  0  0  0  3  0  0  0  0  0  0
  185.7820  178.3700  144.6200 C   0  0  0  0  0  0  0  0  0  0  0  0
  185.1220  178.5200  146.9490 C   0  0  0  0  0  3  0  0  0  0  0  0
  184.7960  178.6090  145.5940 C   0  0  0  0  0  0  0  0  0  0  0  0
  186.4290  178.2100  147.3350 C   0  0  0  0  0  3  0  0  0  0  0  0
  183.1310  179.1310  143.8450 C   0  0  1  0  0  3  0  0  0  0  0  0
  183.9630  178.2510  142.9090 C   0  0  0  0  0  2  0  0  0  0  0  0
  188.7740  177.6690  146.7730 N   0  0  0  0  0  0  0  0  0  0  0  0
  189.7560  177.1950  145.8100 C   0  0  0  0  0  1  0  0  0  0  0  0
  189.2030  177.8160  148.1550 C   0  0  0  0  0  1  0  0  0  0  0  0
  1 17  1  6  0  0  0
  1  4  1  0  0  0  0
  2  8  2  0  0  0  0
  3  7  1  0  0  0  0
  4  7  2  0  0  0  0
  5  3  2  0  0  0  0
  6  5  1  0  0  0  0
  7 21  1  0  0  0  0
  8 10  1  0  0  0  0
  8  9  1  0  0  0  0
  9  1  1  0  0  0  0
  9  5  1  0  0  0  0
 10  6  2  0  0  0  0
 11 12  1  0  0  0  0
 11 15  2  0  0  0  0
 12 13  1  0  0  0  0
 13 14  2  0  0  0  0
 14 16  1  0  0  0  0
 15 17  1  0  0  0  0
 17 16  2  0  0  0  0
 18 20  1  0  0  0  0
 20 13  1  0  0  0  0
 20 19  1  0  0  0  0
 22 26  1  0  0  0  0
 23 28  1  0  0  0  0
 24 32  1  0  0  0  0
 24 29  1  0  0  0  0
 25 24  2  0  0  0  0
 26 25  1  0  0  0  0
 26 28  2  0  0  0  0
 27 29  2  0  0  0  0
 28 27  1  0  0  0  0
 30 21  1  1  0  0  0
 30 23  1  0  0  0  0
 31 22  1  0  0  0  0
 31 30  1  0  0  0  0
 32 34  1  0  0  0  0
 33 32  1  0  0  0  0
M  END
>  <MODEL>
8

>  <REMARK>
 VINA RESULT:      -8.9      4.340      9.872
  Name = 
  5 active torsions:
  status: ('A' for Active; 'I' for Inactive)
    1  A    between atoms: C_1  and  C_34
    2  A    between atoms: C_7  and  N_11
    3  A    between atoms: C_17  and  C_18
    4  A    between atoms: C_18  and  C_30
    5  A    between atoms: S_24  and  C_25
                            x       y       z     vdW  Elec       q    Type
                         _______ _______ _______ _____ _____    ______ ____

>  <TORSDO>
F 5

$$$$
=
 OpenBabel11052415403D

 34 38  0  0  1  0  0  0  0  0999 V2000
  187.3030  177.4510  144.6290 C   0  0  1  0  0  3  0  0  0  0  0  0
  185.7830  177.5050  147.3240 O   0  0  0  0  0  0  0  0  0  0  0  0
  189.9870  178.0220  145.5130 C   0  0  0  0  0  3  0  0  0  0  0  0
  188.4200  177.6630  143.6930 N   0  0  0  0  0  0  0  0  0  0  0  0
  188.9790  178.0900  146.3750 C   0  0  0  0  0  0  0  0  0  0  0  0
  189.0950  178.0180  147.7920 N   0  0  0  0  0  0  0  0  0  0  0  0
  189.6480  177.8930  144.0780 C   0  0  0  0  0  0  0  0  0  0  0  0
  187.0070  177.7680  147.1880 C   0  0  0  0  0  0  0  0  0  0  0  0
  187.6360  178.0040  145.9390 N   0  0  0  0  0  0  0  0  0  0  0  0
  187.9310  177.8300  148.2720 N   0  0  0  0  0  0  0  0  0  0  0  0
  184.0810  179.4020  144.8630 C   0  0  0  0  0  3  0  0  0  0  0  0
  183.1020  178.6270  144.0480 C   0  0  0  0  0  2  0  0  0  0  0  0
  183.4070  178.7190  142.5910 C   0  0  0  0  0  0  0  0  0  0  0  0
  184.5470  178.2530  142.0750 C   0  0  0  0  0  3  0  0  0  0  0  0
  185.3810  179.1150  144.8960 C   0  0  0  0  0  3  0  0  0  0  0  0
  185.6950  177.7340  142.8440 C   0  0  0  0  0  3  0  0  0  0  0  0
  186.0500  178.0650  144.0930 C   0  0  0  0  0  0  0  0  0  0  0  0
  180.9900  179.6750  142.4300 O   0  0  0  0  0  1  0  0  0  0  0  0
  181.6190  177.9600  140.6580 O   0  0  0  0  0  1  0  0  0  0  0  0
  182.1500  179.3390  141.5030 S   0  0  0  0  0  3  0  0  0  0  0  0
  190.7330  178.0100  143.0560 C   0  0  0  0  0  2  0  0  0  0  0  0
  191.0810  176.7530  139.4150 C   0  0  0  0  0  2  0  0  0  0  0  0
  189.1590  177.9070  141.2030 O   0  0  0  0  0  0  0  0  0  0  0  0
  188.1760  177.6230  137.1160 C   0  0  0  0  0  0  0  0  0  0  0  0
  189.4240  177.1750  137.5810 C   0  0  0  0  0  3  0  0  0  0  0  0
  189.7580  177.2720  138.9330 C   0  0  0  0  0  0  0  0  0  0  0  0
  187.5890  178.2530  139.3950 C   0  0  0  0  0  3  0  0  0  0  0  0
  188.8300  177.8020  139.8480 C   0  0  0  0  0  0  0  0  0  0  0  0
  187.2640  178.1640  138.0390 C   0  0  0  0  0  3  0  0  0  0  0  0
  190.3610  177.3440  141.7330 C   0  0  1  0  0  3  0  0  0  0  0  0
  191.5020  177.4320  140.7170 C   0  0  0  0  0  2  0  0  0  0  0  0
  187.8370  177.5270  135.7210 N   0  0  0  0  0  0  0  0  0  0  0  0
  186.4490  177.5030  135.2820 C   0  0  0  0  0  1  0  0  0  0  0  0
  188.8670  177.4530  134.6970 C   0  0  0  0  0  1  0  0  0  0  0  0
  1 17  1  6  0  0  0
  1  9  1  0  0  0  0
  3  5  2  0  0  0  0
  4  7  2  0  0  0  0
  4  1  1  0  0  0  0
  5  6  1  0  0  0  0
  6 10  2  0  0  0  0
  7  3  1  0  0  0  0
  8  2  2  0  0  0  0
  8 10  1  0  0  0  0
  9  5  1  0  0  0  0
  9  8  1  0  0  0  0
 11 15  2  0  0  0  0
 12 11  1  0  0  0  0
 13 12  1  0  0  0  0
 14 13  2  0  0  0  0
 14 16  1  0  0  0  0
 16 17  2  0  0  0  0
 17 15  1  0  0  0  0
 19 20  1  0  0  0  0
 20 18  1  0  0  0  0
 20 13  1  0  0  0  0
 21  7  1  0  0  0  0
 22 31  1  0  0  0  0
 23 30  1  0  0  0  0
 24 25  2  0  0  0  0
 24 29  1  0  0  0  0
 25 26  1  0  0  0  0
 26 22  1  0  0  0  0
 26 28  2  0  0  0  0
 27 28  1  0  0  0  0
 28 23  1  0  0  0  0
 29 27  2  0  0  0  0
 30 21  1  1  0  0  0
 31 30  1  0  0  0  0
 32 24  1  0  0  0  0
 33 32  1  0  0  0  0
 34 32  1  0  0  0  0
M  END
>  <MODEL>
9

>  <REMARK>
 VINA RESULT:      -8.8      1.534      1.905
  Name = 
  5 active torsions:
  status: ('A' for Active; 'I' for Inactive)
    1  A    between atoms: C_1  and  C_34
    2  A    between atoms: C_7  and  N_11
    3  A    between atoms: C_17  and  C_18
    4  A    between atoms: C_18  and  C_30
    5  A    between atoms: S_24  and  C_25
                            x       y       z     vdW  Elec       q    Type
                         _______ _______ _______ _____ _____    ______ ____

>  <TORSDO>
F 5

$$$$
