=
 OpenBabel11052412383D

 30 32  0  0  1  0  0  0  0  0999 V2000
  186.5040  178.1760  137.5720 C   0  0  0  0  0  0  0  0  0  0  0  0
  188.7710  177.0150  136.4750 S   0  0  0  0  0  0  0  0  0  0  0  0
  186.4330  173.2490  136.8630 N   0  0  0  0  0  0  0  0  0  0  0  0
  184.7830  175.6150  135.1900 C   0  0  0  0  0  1  0  0  0  0  0  0
  185.7550  177.9790  138.7780 N   0  0  0  0  0  2  0  0  0  0  0  0
  182.7510  178.8380  138.7050 C   0  0  2  0  0  3  0  0  0  0  0  0
  183.9980  179.7170  138.8000 C   0  0  0  0  0  2  0  0  0  0  0  0
  184.7750  178.5950  140.9250 C   0  0  0  0  0  1  0  0  0  0  0  0
  182.6780  174.2320  137.2590 C   0  0  1  0  0  3  0  0  0  0  0  0
  185.0060  173.1340  136.9540 C   0  0  0  0  0  0  0  0  0  0  0  0
  185.1770  179.0750  139.5410 C   0  0  1  0  0  3  0  0  0  0  0  0
  182.8950  177.8250  137.5710 C   0  0  0  0  0  2  0  0  0  0  0  0
  189.1950  175.6290  137.5680 C   0  0  0  0  0  2  0  0  0  0  0  0
  182.6890  175.7460  139.7020 O   0  0  0  0  0  1  0  0  0  0  0  0
  181.5570  179.7400  138.4540 C   0  0  0  0  0  1  0  0  0  0  0  0
  186.7620  179.3420  137.1700 O   0  0  0  0  0  0  0  0  0  0  0  0
  187.0570  174.3930  136.9640 C   0  0  0  0  0  0  0  0  0  0  0  0
  188.5180  174.4030  137.0770 C   0  0  0  0  0  0  0  0  0  0  0  0
  181.6770  177.0430  137.4020 N   0  0  0  0  0  2  0  0  0  0  0  0
  186.9520  176.9980  136.7550 C   0  0  1  0  0  3  0  0  0  0  0  0
  184.8400  175.6060  136.7180 C   0  0  1  0  0  3  0  0  0  0  0  0
  184.4530  172.0140  136.7980 O   0  0  0  0  0  0  0  0  0  0  0  0
  184.2070  174.3540  137.3160 C   0  0  1  0  0  3  0  0  0  0  0  0
  180.4490  175.0150  138.6000 O   0  0  0  0  0  0  0  0  0  0  0  0
  189.1960  173.3780  136.8010 O   0  0  0  0  0  0  0  0  0  0  0  0
  186.2880  175.6820  137.2160 C   0  0  1  0  0  3  0  0  0  0  0  0
  181.8340  175.5140  138.2600 P   0  0  1  0  0  0  0  0  0  0  0  0
  181.9850  174.0080  135.5940 S   0  0  1  0  0  0  0  0  0  0  0  0
  181.1360  172.4220  135.6710 C   0  0  0  0  0  1  0  0  0  0  0  0
  180.8490  175.0150  135.4820 O   0  0  0  0  0  0  0  0  0  0  0  0
  1  5  1  0  0  0  0
  2 13  1  0  0  0  0
  3 10  1  0  0  0  0
  3 17  2  0  0  0  0
  5 11  1  0  0  0  0
  6 15  1  6  0  0  0
  6  7  1  0  0  0  0
  7 11  1  0  0  0  0
  9 28  1  6  0  0  0
  9 23  1  0  0  0  0
  9 27  1  0  0  0  0
 11  8  1  1  0  0  0
 12  6  1  0  0  0  0
 16  1  2  0  0  0  0
 17 18  1  0  0  0  0
 18 13  1  0  0  0  0
 19 12  1  0  0  0  0
 19 27  1  0  0  0  0
 20  2  1  1  0  0  0
 20 26  1  0  0  0  0
 20  1  1  0  0  0  0
 21  4  1  6  0  0  0
 21 26  1  0  0  0  0
 21 23  1  0  0  0  0
 22 10  2  0  0  0  0
 23 10  1  6  0  0  0
 25 18  2  0  0  0  0
 26 17  1  6  0  0  0
 27 24  2  1  0  0  0
 27 14  1  0  0  0  0
 28 29  1  1  0  0  0
 30 28  2  0  0  0  0
M  END
>  <MODEL>
1

>  <REMARK>
 VINA RESULT:      -5.2      0.000      0.000
  Name = 
  1 active torsions:
  status: ('A' for Active; 'I' for Inactive)
    1  A    between atoms: S_7  and  C_10
                            x       y       z     vdW  Elec       q    Type
                         _______ _______ _______ _____ _____    ______ ____

>  <TORSDO>
F 1

$$$$
=
 OpenBabel11052412383D

 30 32  0  0  1  0  0  0  0  0999 V2000
  185.0870  178.5930  139.5620 C   0  0  0  0  0  0  0  0  0  0  0  0
  186.3820  179.5300  141.8290 S   0  0  0  0  0  0  0  0  0  0  0  0
  189.6320  176.7940  140.5050 N   0  0  0  0  0  0  0  0  0  0  0  0
  188.6900  178.9170  138.1120 C   0  0  0  0  0  1  0  0  0  0  0  0
  184.7100  177.2960  139.0810 N   0  0  0  0  0  2  0  0  0  0  0  0
  184.3640  177.0070  135.9890 C   0  0  2  0  0  3  0  0  0  0  0  0
  183.4300  177.6670  137.0010 C   0  0  0  0  0  2  0  0  0  0  0  0
  183.1830  175.5440  138.3440 C   0  0  0  0  0  1  0  0  0  0  0  0
  189.0230  175.9800  136.7380 C   0  0  1  0  0  3  0  0  0  0  0  0
  189.8450  176.2990  139.1750 C   0  0  0  0  0  0  0  0  0  0  0  0
  183.4510  177.0370  138.3980 C   0  0  1  0  0  3  0  0  0  0  0  0
  185.7960  177.5060  136.1760 C   0  0  0  0  0  2  0  0  0  0  0  0
  186.9360  178.0530  142.7270 C   0  0  0  0  0  2  0  0  0  0  0  0
  186.4680  174.6640  136.7950 O   0  0  0  0  0  1  0  0  0  0  0  0
  183.8680  177.3480  134.5960 C   0  0  0  0  0  1  0  0  0  0  0  0
  184.2800  179.5570  139.4800 O   0  0  0  0  0  0  0  0  0  0  0  0
  188.5410  177.4200  140.8590 C   0  0  0  0  0  0  0  0  0  0  0  0
  188.3070  177.7020  142.2780 C   0  0  0  0  0  0  0  0  0  0  0  0
  186.6840  176.9600  135.1580 N   0  0  0  0  0  2  0  0  0  0  0  0
  186.4580  178.8240  140.1300 C   0  0  1  0  0  3  0  0  0  0  0  0
  187.8950  177.6460  138.4130 C   0  0  1  0  0  3  0  0  0  0  0  0
  190.9360  175.7490  138.8750 O   0  0  0  0  0  0  0  0  0  0  0  0
  188.7150  176.3800  138.1870 C   0  0  1  0  0  3  0  0  0  0  0  0
  187.9160  174.6660  134.6340 O   0  0  0  0  0  0  0  0  0  0  0  0
  189.2400  177.6120  143.1190 O   0  0  0  0  0  0  0  0  0  0  0  0
  187.4060  177.6340  139.8670 C   0  0  1  0  0  3  0  0  0  0  0  0
  187.5130  175.5440  135.7950 P   0  0  1  0  0  0  0  0  0  0  0  0
  190.1590  177.0910  135.8560 S   0  0  1  0  0  0  0  0  0  0  0  0
  191.4590  176.0080  135.2420 C   0  0  0  0  0  1  0  0  0  0  0  0
  189.4220  177.5150  134.5940 O   0  0  0  0  0  0  0  0  0  0  0  0
  2 13  1  0  0  0  0
  3 17  2  0  0  0  0
  5  1  1  0  0  0  0
  6 15  1  6  0  0  0
  6 12  1  0  0  0  0
  6  7  1  0  0  0  0
  7 11  1  0  0  0  0
  9 28  1  6  0  0  0
  9 23  1  0  0  0  0
 10  3  1  0  0  0  0
 11  8  1  6  0  0  0
 11  5  1  0  0  0  0
 16  1  2  0  0  0  0
 17 18  1  0  0  0  0
 18 13  1  0  0  0  0
 18 25  2  0  0  0  0
 19 27  1  0  0  0  0
 19 12  1  0  0  0  0
 20  1  1  1  0  0  0
 20  2  1  0  0  0  0
 21  4  1  1  0  0  0
 21 26  1  0  0  0  0
 22 10  2  0  0  0  0
 23 21  1  0  0  0  0
 23 10  1  1  0  0  0
 26 20  1  0  0  0  0
 26 17  1  1  0  0  0
 27 24  2  6  0  0  0
 27  9  1  0  0  0  0
 27 14  1  0  0  0  0
 28 29  1  6  0  0  0
 30 28  2  0  0  0  0
M  END
>  <MODEL>
2

>  <REMARK>
 VINA RESULT:      -4.3      3.407      5.850
  Name = 
  1 active torsions:
  status: ('A' for Active; 'I' for Inactive)
    1  A    between atoms: S_7  and  C_10
                            x       y       z     vdW  Elec       q    Type
                         _______ _______ _______ _____ _____    ______ ____

>  <TORSDO>
F 1

$$$$
=
 OpenBabel11052412383D

 30 32  0  0  1  0  0  0  0  0999 V2000
  181.1370  175.1110  135.6180 C   0  0  0  0  0  0  0  0  0  0  0  0
  180.3600  177.7690  135.7860 S   0  0  0  0  0  0  0  0  0  0  0  0
  184.2660  178.2690  137.8570 N   0  0  0  0  0  0  0  0  0  0  0  0
  184.5740  176.7960  134.8820 C   0  0  0  0  0  1  0  0  0  0  0  0
  181.5170  174.1110  136.5720 N   0  0  0  0  0  2  0  0  0  0  0  0
  183.3360  171.8020  135.5130 C   0  0  2  0  0  3  0  0  0  0  0  0
  181.8390  172.0180  135.2980 C   0  0  0  0  0  2  0  0  0  0  0  0
  181.3550  171.9970  137.7760 C   0  0  0  0  0  1  0  0  0  0  0  0
  186.4690  175.1720  136.9780 C   0  0  1  0  0  3  0  0  0  0  0  0
  185.4060  177.4030  137.7550 C   0  0  0  0  0  0  0  0  0  0  0  0
  181.1200  172.7150  136.4590 C   0  0  1  0  0  3  0  0  0  0  0  0
  184.1120  173.0810  135.2080 C   0  0  0  0  0  2  0  0  0  0  0  0
  180.5670  178.2350  137.5280 C   0  0  0  0  0  2  0  0  0  0  0  0
  184.9440  172.9960  138.0730 O   0  0  0  0  0  1  0  0  0  0  0  0
  183.7870  170.6820  134.5940 C   0  0  0  0  0  1  0  0  0  0  0  0
  180.3570  174.8200  134.6720 O   0  0  0  0  0  0  0  0  0  0  0  0
  183.0900  177.9460  137.3890 C   0  0  0  0  0  0  0  0  0  0  0  0
  181.9330  178.7820  137.7220 C   0  0  0  0  0  0  0  0  0  0  0  0
  185.5500  172.8660  135.3140 N   0  0  0  0  0  2  0  0  0  0  0  0
  181.6940  176.5020  135.7120 C   0  0  1  0  0  3  0  0  0  0  0  0
  184.1420  176.0130  136.1220 C   0  0  1  0  0  3  0  0  0  0  0  0
  186.5280  177.7860  138.1780 O   0  0  0  0  0  0  0  0  0  0  0  0
  185.2100  176.0160  137.2120 C   0  0  1  0  0  3  0  0  0  0  0  0
  187.3750  172.6230  137.2280 O   0  0  0  0  0  0  0  0  0  0  0  0
  182.0860  179.9370  138.2020 O   0  0  0  0  0  0  0  0  0  0  0  0
  182.8580  176.5970  136.7240 C   0  0  1  0  0  3  0  0  0  0  0  0
  186.1070  173.3760  136.9040 P   0  0  1  0  0  0  0  0  0  0  0  0
  187.5610  175.7680  135.6530 S   0  0  1  0  0  0  0  0  0  0  0  0
  189.0580  176.2900  136.5060 C   0  0  0  0  0  1  0  0  0  0  0  0
  188.0000  174.5250  134.8910 O   0  0  0  0  0  0  0  0  0  0  0  0
  1  5  1  0  0  0  0
  2 13  1  0  0  0  0
  6 15  1  6  0  0  0
  7  6  1  0  0  0  0
  7 11  1  0  0  0  0
  9 28  1  6  0  0  0
  9 23  1  0  0  0  0
 10  3  1  0  0  0  0
 10 22  2  0  0  0  0
 11  5  1  0  0  0  0
 11  8  1  1  0  0  0
 12 19  1  0  0  0  0
 12  6  1  0  0  0  0
 13 18  1  0  0  0  0
 16  1  2  0  0  0  0
 17 18  1  0  0  0  0
 17  3  2  0  0  0  0
 18 25  2  0  0  0  0
 19 27  1  0  0  0  0
 20  1  1  1  0  0  0
 20  2  1  0  0  0  0
 20 26  1  0  0  0  0
 21  4  1  6  0  0  0
 21 26  1  0  0  0  0
 21 23  1  0  0  0  0
 23 10  1  6  0  0  0
 26 17  1  6  0  0  0
 27  9  1  0  0  0  0
 27 24  2  1  0  0  0
 27 14  1  0  0  0  0
 28 29  1  1  0  0  0
 30 28  2  0  0  0  0
M  END
>  <MODEL>
3

>  <REMARK>
 VINA RESULT:      -4.1      2.291      6.675
  Name = 
  1 active torsions:
  status: ('A' for Active; 'I' for Inactive)
    1  A    between atoms: S_7  and  C_10
                            x       y       z     vdW  Elec       q    Type
                         _______ _______ _______ _____ _____    ______ ____

>  <TORSDO>
F 1

$$$$
=
 OpenBabel11052412383D

 30 32  0  0  1  0  0  0  0  0999 V2000
  180.0790  177.9240  140.1160 C   0  0  0  0  0  0  0  0  0  0  0  0
  180.4300  179.7530  142.1720 S   0  0  0  0  0  0  0  0  0  0  0  0
  184.7420  178.8020  141.6210 N   0  0  0  0  0  0  0  0  0  0  0  0
  183.2630  179.7340  138.7820 C   0  0  0  0  0  1  0  0  0  0  0  0
  180.4370  176.5510  139.9180 N   0  0  0  0  0  2  0  0  0  0  0  0
  180.7220  175.6020  136.9540 C   0  0  2  0  0  3  0  0  0  0  0  0
  179.4500  175.8770  137.7550 C   0  0  0  0  0  2  0  0  0  0  0  0
  180.0500  174.1760  139.5230 C   0  0  0  0  0  1  0  0  0  0  0  0
  185.1450  177.1610  138.1060 C   0  0  1  0  0  3  0  0  0  0  0  0
  185.3540  178.2570  140.4440 C   0  0  0  0  0  0  0  0  0  0  0  0
  179.5660  175.5900  139.2570 C   0  0  1  0  0  3  0  0  0  0  0  0
  181.7000  176.7680  137.0870 C   0  0  0  0  0  2  0  0  0  0  0  0
  181.4820  178.9230  143.3970 C   0  0  0  0  0  2  0  0  0  0  0  0
  183.5440  174.7850  138.3440 O   0  0  0  0  0  1  0  0  0  0  0  0
  180.3300  175.4090  135.5010 C   0  0  0  0  0  1  0  0  0  0  0  0
  178.9330  178.3330  139.7890 O   0  0  0  0  0  0  0  0  0  0  0  0
  183.4460  178.8570  141.7830 C   0  0  0  0  0  0  0  0  0  0  0  0
  182.9040  179.2240  143.0940 C   0  0  0  0  0  0  0  0  0  0  0  0
  182.8780  176.5670  136.2510 N   0  0  0  0  0  2  0  0  0  0  0  0
  181.0770  178.8970  140.6760 C   0  0  1  0  0  3  0  0  0  0  0  0
  183.1320  178.3100  139.3230 C   0  0  1  0  0  3  0  0  0  0  0  0
  186.6070  178.2770  140.3180 O   0  0  0  0  0  0  0  0  0  0  0  0
  184.4780  177.5980  139.4160 C   0  0  1  0  0  3  0  0  0  0  0  0
  185.1120  175.1320  136.2980 O   0  0  0  0  0  0  0  0  0  0  0  0
  183.6360  179.7540  143.9720 O   0  0  0  0  0  0  0  0  0  0  0  0
  182.5030  178.3070  140.7220 C   0  0  1  0  0  3  0  0  0  0  0  0
  184.1770  175.8800  137.2190 P   0  0  1  0  0  0  0  0  0  0  0  0
  185.7310  178.5180  137.0480 S   0  0  1  0  0  0  0  0  0  0  0  0
  187.5200  178.5000  137.2460 C   0  0  0  0  0  1  0  0  0  0  0  0
  185.5260  178.0420  135.6170 O   0  0  0  0  0  0  0  0  0  0  0  0
  2 13  1  0  0  0  0
  3 17  2  0  0  0  0
  5  1  1  0  0  0  0
  6 15  1  6  0  0  0
  6 12  1  0  0  0  0
  6  7  1  0  0  0  0
  7 11  1  0  0  0  0
  9 28  1  6  0  0  0
  9 23  1  0  0  0  0
 10  3  1  0  0  0  0
 11  8  1  6  0  0  0
 11  5  1  0  0  0  0
 16  1  2  0  0  0  0
 17 18  1  0  0  0  0
 18 13  1  0  0  0  0
 18 25  2  0  0  0  0
 19 12  1  0  0  0  0
 19 27  1  0  0  0  0
 20  1  1  1  0  0  0
 20 26  1  0  0  0  0
 20  2  1  0  0  0  0
 21  4  1  1  0  0  0
 21 23  1  0  0  0  0
 21 26  1  0  0  0  0
 22 10  2  0  0  0  0
 23 10  1  6  0  0  0
 26 17  1  1  0  0  0
 27 24  2  6  0  0  0
 27  9  1  0  0  0  0
 27 14  1  0  0  0  0
 28 29  1  1  0  0  0
 30 28  2  0  0  0  0
M  END
>  <MODEL>
4

>  <REMARK>
 VINA RESULT:      -3.4      3.234      6.613
  Name = 
  1 active torsions:
  status: ('A' for Active; 'I' for Inactive)
    1  A    between atoms: S_7  and  C_10
                            x       y       z     vdW  Elec       q    Type
                         _______ _______ _______ _____ _____    ______ ____

>  <TORSDO>
F 1

$$$$
=
 OpenBabel11052412383D

 30 32  0  0  1  0  0  0  0  0999 V2000
  180.2440  177.3700  140.5360 C   0  0  0  0  0  0  0  0  0  0  0  0
  181.1990  179.3760  142.1960 S   0  0  0  0  0  0  0  0  0  0  0  0
  185.0770  178.5110  140.1920 N   0  0  0  0  0  0  0  0  0  0  0  0
  182.6290  179.1540  138.0220 C   0  0  0  0  0  1  0  0  0  0  0  0
  180.5870  175.9960  140.3160 N   0  0  0  0  0  2  0  0  0  0  0  0
  179.8480  174.8080  137.5220 C   0  0  2  0  0  3  0  0  0  0  0  0
  178.9330  175.1120  138.7070 C   0  0  0  0  0  2  0  0  0  0  0  0
  180.2230  173.5860  140.2510 C   0  0  0  0  0  1  0  0  0  0  0  0
  184.2910  176.5900  136.8890 C   0  0  1  0  0  3  0  0  0  0  0  0
  185.2580  177.8870  138.9130 C   0  0  0  0  0  0  0  0  0  0  0  0
  179.5950  174.9570  140.0820 C   0  0  1  0  0  3  0  0  0  0  0  0
  180.7390  176.0090  137.2120 C   0  0  0  0  0  2  0  0  0  0  0  0
  182.6660  178.6850  143.0120 C   0  0  0  0  0  2  0  0  0  0  0  0
  183.0220  174.1970  137.8520 O   0  0  0  0  0  1  0  0  0  0  0  0
  178.9750  174.4800  136.3250 C   0  0  0  0  0  1  0  0  0  0  0  0
  179.0340  177.7150  140.6180 O   0  0  0  0  0  0  0  0  0  0  0  0
  183.9240  178.5410  140.8070 C   0  0  0  0  0  0  0  0  0  0  0  0
  183.8650  179.0020  142.1970 C   0  0  0  0  0  0  0  0  0  0  0  0
  181.5500  175.7740  136.0240 N   0  0  0  0  0  2  0  0  0  0  0  0
  181.3170  178.4160  140.6300 C   0  0  1  0  0  3  0  0  0  0  0  0
  182.7830  177.7780  138.6700 C   0  0  1  0  0  3  0  0  0  0  0  0
  186.3790  177.9330  138.3430 O   0  0  0  0  0  0  0  0  0  0  0  0
  184.1120  177.1170  138.3190 C   0  0  1  0  0  3  0  0  0  0  0  0
  183.7330  174.4150  135.3590 O   0  0  0  0  0  0  0  0  0  0  0  0
  184.8300  179.6260  142.7130 O   0  0  0  0  0  0  0  0  0  0  0  0
  182.6980  177.8750  140.1980 C   0  0  1  0  0  3  0  0  0  0  0  0
  183.1470  175.2110  136.5020 P   0  0  1  0  0  0  0  0  0  0  0  0
  184.3800  177.8690  135.6020 S   0  0  1  0  0  0  0  0  0  0  0  0
  185.9080  177.5130  134.7200 C   0  0  0  0  0  1  0  0  0  0  0  0
  183.2960  177.5150  134.5940 O   0  0  0  0  0  0  0  0  0  0  0  0
  1 16  2  0  0  0  0
  2 13  1  0  0  0  0
  3 17  2  0  0  0  0
  5  1  1  0  0  0  0
  6 15  1  6  0  0  0
  6  7  1  0  0  0  0
  7 11  1  0  0  0  0
  9 28  1  6  0  0  0
  9 23  1  0  0  0  0
 10  3  1  0  0  0  0
 11  8  1  6  0  0  0
 11  5  1  0  0  0  0
 12  6  1  0  0  0  0
 17 18  1  0  0  0  0
 18 25  2  0  0  0  0
 18 13  1  0  0  0  0
 19 27  1  0  0  0  0
 19 12  1  0  0  0  0
 20  1  1  1  0  0  0
 20  2  1  0  0  0  0
 21  4  1  6  0  0  0
 21 26  1  0  0  0  0
 22 10  2  0  0  0  0
 23 21  1  0  0  0  0
 23 10  1  6  0  0  0
 26 20  1  0  0  0  0
 26 17  1  6  0  0  0
 27 24  2  6  0  0  0
 27  9  1  0  0  0  0
 27 14  1  0  0  0  0
 28 29  1  6  0  0  0
 30 28  2  0  0  0  0
M  END
>  <MODEL>
5

>  <REMARK>
 VINA RESULT:      -3.2      3.209      6.081
  Name = 
  1 active torsions:
  status: ('A' for Active; 'I' for Inactive)
    1  A    between atoms: S_7  and  C_10
                            x       y       z     vdW  Elec       q    Type
                         _______ _______ _______ _____ _____    ______ ____

>  <TORSDO>
F 1

$$$$
=
 OpenBabel11052412383D

 30 32  0  0  1  0  0  0  0  0999 V2000
  185.1580  178.0750  138.8710 C   0  0  0  0  0  0  0  0  0  0  0  0
  182.4460  178.4660  139.3020 S   0  0  0  0  0  0  0  0  0  0  0  0
  181.9980  175.6770  135.8640 N   0  0  0  0  0  0  0  0  0  0  0  0
  183.9180  174.4270  138.2860 C   0  0  0  0  0  1  0  0  0  0  0  0
  186.0360  178.2520  137.7520 N   0  0  0  0  0  2  0  0  0  0  0  0
  188.6310  176.5120  137.7320 C   0  0  2  0  0  3  0  0  0  0  0  0
  188.3150  177.7520  138.5660 C   0  0  0  0  0  2  0  0  0  0  0  0
  187.9250  179.1790  136.5200 C   0  0  0  0  0  1  0  0  0  0  0  0
  185.3770  173.7730  135.4460 C   0  0  1  0  0  3  0  0  0  0  0  0
  182.9680  174.7270  135.4020 C   0  0  0  0  0  0  0  0  0  0  0  0
  187.3910  178.7660  137.8800 C   0  0  1  0  0  3  0  0  0  0  0  0
  187.4860  175.5050  137.8150 C   0  0  0  0  0  2  0  0  0  0  0  0
  181.7470  178.9040  137.6850 C   0  0  0  0  0  2  0  0  0  0  0  0
  187.2200  175.9010  134.8690 O   0  0  0  0  0  1  0  0  0  0  0  0
  189.9100  175.8980  138.2680 C   0  0  0  0  0  1  0  0  0  0  0  0
  185.5140  178.4480  140.0210 O   0  0  0  0  0  0  0  0  0  0  0  0
  182.2790  176.6030  136.7420 C   0  0  0  0  0  0  0  0  0  0  0  0
  181.3020  177.6640  137.0000 C   0  0  0  0  0  0  0  0  0  0  0  0
  187.8120  174.2740  137.1040 N   0  0  0  0  0  2  0  0  0  0  0  0
  183.8240  177.4080  138.6930 C   0  0  1  0  0  3  0  0  0  0  0  0
  184.4660  175.4220  137.2640 C   0  0  1  0  0  3  0  0  0  0  0  0
  182.6290  173.8230  134.5940 O   0  0  0  0  0  0  0  0  0  0  0  0
  184.3970  174.8870  135.8370 C   0  0  1  0  0  3  0  0  0  0  0  0
  187.9320  173.4150  134.5940 O   0  0  0  0  0  0  0  0  0  0  0  0
  180.1070  177.5520  136.6170 O   0  0  0  0  0  0  0  0  0  0  0  0
  183.6860  176.7420  137.3070 C   0  0  1  0  0  3  0  0  0  0  0  0
  187.1240  174.3280  135.4860 P   0  0  1  0  0  0  0  0  0  0  0  0
  185.0850  172.1710  136.2550 S   0  0  1  0  0  0  0  0  0  0  0  0
  184.4010  171.1310  134.9550 C   0  0  0  0  0  1  0  0  0  0  0  0
  186.4650  171.5760  136.4990 O   0  0  0  0  0  0  0  0  0  0  0  0
  1 16  2  0  0  0  0
  3 17  2  0  0  0  0
  5 11  1  0  0  0  0
  5  1  1  0  0  0  0
  6 12  1  0  0  0  0
  6 15  1  1  0  0  0
  6  7  1  0  0  0  0
  9 27  1  0  0  0  0
  9 23  1  0  0  0  0
  9 28  1  1  0  0  0
 10  3  1  0  0  0  0
 11  8  1  6  0  0  0
 11  7  1  0  0  0  0
 13  2  1  0  0  0  0
 14 27  1  0  0  0  0
 17 18  1  0  0  0  0
 18 13  1  0  0  0  0
 19 12  1  0  0  0  0
 20  1  1  6  0  0  0
 20  2  1  0  0  0  0
 21 26  1  0  0  0  0
 21  4  1  1  0  0  0
 22 10  2  0  0  0  0
 23 10  1  1  0  0  0
 23 21  1  0  0  0  0
 25 18  2  0  0  0  0
 26 17  1  1  0  0  0
 26 20  1  0  0  0  0
 27 24  2  6  0  0  0
 27 19  1  0  0  0  0
 28 29  1  6  0  0  0
 28 30  2  0  0  0  0
M  END
>  <MODEL>
6

>  <REMARK>
 VINA RESULT:      -2.8      2.540      5.477
  Name = 
  1 active torsions:
  status: ('A' for Active; 'I' for Inactive)
    1  A    between atoms: S_7  and  C_10
                            x       y       z     vdW  Elec       q    Type
                         _______ _______ _______ _____ _____    ______ ____

>  <TORSDO>
F 1

$$$$
=
 OpenBabel11052412383D

 30 32  0  0  1  0  0  0  0  0999 V2000
  186.9480  174.9750  135.7000 C   0  0  0  0  0  0  0  0  0  0  0  0
  185.4050  172.8640  134.7730 S   0  0  0  0  0  0  0  0  0  0  0  0
  182.5920  174.1610  137.9680 N   0  0  0  0  0  0  0  0  0  0  0  0
  183.4350  176.6500  135.9160 C   0  0  0  0  0  1  0  0  0  0  0  0
  187.5050  175.3330  136.9710 N   0  0  0  0  0  2  0  0  0  0  0  0
  188.0860  178.3690  137.4270 C   0  0  2  0  0  3  0  0  0  0  0  0
  188.8680  177.3590  136.5900 C   0  0  0  0  0  2  0  0  0  0  0  0
  189.2720  175.8450  138.5710 C   0  0  0  0  0  1  0  0  0  0  0  0
  183.5400  177.8130  138.9590 C   0  0  1  0  0  3  0  0  0  0  0  0
  182.5280  175.4590  138.5750 C   0  0  0  0  0  0  0  0  0  0  0  0
  188.8280  175.9210  137.1210 C   0  0  1  0  0  3  0  0  0  0  0  0
  186.5970  178.3030  137.0940 C   0  0  0  0  0  2  0  0  0  0  0  0
  184.9690  171.8890  136.2410 C   0  0  0  0  0  2  0  0  0  0  0  0
  186.2220  177.5100  139.9470 O   0  0  0  0  0  0  0  0  0  0  0  0
  188.6300  179.7530  137.1250 C   0  0  0  0  0  1  0  0  0  0  0  0
  187.6400  175.0840  134.6520 O   0  0  0  0  0  0  0  0  0  0  0  0
  183.5770  173.7930  137.1910 C   0  0  0  0  0  0  0  0  0  0  0  0
  183.6820  172.3880  136.7870 C   0  0  0  0  0  0  0  0  0  0  0  0
  185.8480  179.3260  137.8130 N   0  0  0  0  0  2  0  0  0  0  0  0
  185.5250  174.5060  135.5980 C   0  0  1  0  0  3  0  0  0  0  0  0
  184.3520  176.2070  137.0570 C   0  0  1  0  0  3  0  0  0  0  0  0
  181.5300  175.7790  139.2730 O   0  0  0  0  0  0  0  0  0  0  0  0
  183.7030  176.3830  138.4250 C   0  0  1  0  0  3  0  0  0  0  0  0
  184.9310  179.7440  140.2700 O   0  0  0  0  0  1  0  0  0  0  0  0
  182.7120  171.5980  136.9310 O   0  0  0  0  0  0  0  0  0  0  0  0
  184.7420  174.7310  136.9100 C   0  0  1  0  0  3  0  0  0  0  0  0
  185.1510  178.6320  139.2720 P   0  0  1  0  0  0  0  0  0  0  0  0
  182.3430  178.8410  138.0570 S   0  0  1  0  0  0  0  0  0  0  0  0
  180.8040  178.6390  138.9670 C   0  0  0  0  0  1  0  0  0  0  0  0
  182.7400  180.2820  138.3430 O   0  0  0  0  0  0  0  0  0  0  0  0
  1  5  1  0  0  0  0
  2 13  1  0  0  0  0
  3 10  1  0  0  0  0
  5 11  1  0  0  0  0
  6 15  1  6  0  0  0
  7 11  1  0  0  0  0
  7  6  1  0  0  0  0
  9 28  1  6  0  0  0
  9 27  1  0  0  0  0
 10 22  2  0  0  0  0
 11  8  1  1  0  0  0
 12  6  1  0  0  0  0
 12 19  1  0  0  0  0
 13 18  1  0  0  0  0
 16  1  2  0  0  0  0
 17  3  2  0  0  0  0
 18 25  2  0  0  0  0
 18 17  1  0  0  0  0
 19 27  1  0  0  0  0
 20  2  1  1  0  0  0
 20  1  1  0  0  0  0
 20 26  1  0  0  0  0
 21  4  1  6  0  0  0
 21 23  1  0  0  0  0
 23 10  1  6  0  0  0
 23  9  1  0  0  0  0
 26 21  1  0  0  0  0
 26 17  1  6  0  0  0
 27 14  2  1  0  0  0
 27 24  1  0  0  0  0
 28 30  2  0  0  0  0
 28 29  1  1  0  0  0
M  END
>  <MODEL>
7

>  <REMARK>
 VINA RESULT:      -2.8      2.449      4.895
  Name = 
  1 active torsions:
  status: ('A' for Active; 'I' for Inactive)
    1  A    between atoms: S_7  and  C_10
                            x       y       z     vdW  Elec       q    Type
                         _______ _______ _______ _____ _____    ______ ____

>  <TORSDO>
F 1

$$$$
=
 OpenBabel11052412383D

 30 32  0  0  1  0  0  0  0  0999 V2000
  187.3440  178.2860  138.6340 C   0  0  0  0  0  0  0  0  0  0  0  0
  184.8390  179.3990  139.0560 S   0  0  0  0  0  0  0  0  0  0  0  0
  185.3620  177.7990  143.1740 N   0  0  0  0  0  0  0  0  0  0  0  0
  187.9120  179.7190  142.2130 C   0  0  0  0  0  1  0  0  0  0  0  0
  187.8980  176.9700  138.7710 N   0  0  0  0  0  2  0  0  0  0  0  0
  190.9850  176.8020  139.2270 C   0  0  2  0  0  3  0  0  0  0  0  0
  190.2200  177.1000  137.9380 C   0  0  0  0  0  2  0  0  0  0  0  0
  188.9680  174.9090  138.0290 C   0  0  0  0  0  1  0  0  0  0  0  0
  189.1650  177.0980  143.6900 C   0  0  1  0  0  3  0  0  0  0  0  0
  186.6040  177.4750  143.8140 C   0  0  0  0  0  0  0  0  0  0  0  0
  188.8550  176.4100  137.8290 C   0  0  1  0  0  3  0  0  0  0  0  0
  190.4680  177.6740  140.3690 C   0  0  0  0  0  2  0  0  0  0  0  0
  183.8340  178.0850  139.8020 C   0  0  0  0  0  2  0  0  0  0  0  0
  189.7050  175.1080  141.6870 O   0  0  0  0  0  0  0  0  0  0  0  0
  192.4550  177.0800  138.9770 C   0  0  0  0  0  1  0  0  0  0  0  0
  187.6140  178.9840  137.6200 O   0  0  0  0  0  0  0  0  0  0  0  0
  185.2730  178.0620  141.8970 C   0  0  0  0  0  0  0  0  0  0  0  0
  183.9490  178.1700  141.2790 C   0  0  0  0  0  0  0  0  0  0  0  0
  191.2500  177.4740  141.5830 N   0  0  0  0  0  2  0  0  0  0  0  0
  186.4720  178.8600  139.7130 C   0  0  1  0  0  3  0  0  0  0  0  0
  187.8030  178.2580  141.7790 C   0  0  1  0  0  3  0  0  0  0  0  0
  186.6400  177.2800  145.0580 O   0  0  0  0  0  0  0  0  0  0  0  0
  187.8290  177.2960  142.9620 C   0  0  1  0  0  3  0  0  0  0  0  0
  191.4680  175.6660  143.5170 O   0  0  0  0  0  1  0  0  0  0  0  0
  182.9130  178.2940  141.9850 O   0  0  0  0  0  0  0  0  0  0  0  0
  186.5040  178.0090  141.0020 C   0  0  1  0  0  3  0  0  0  0  0  0
  190.4340  176.3140  142.6250 P   0  0  1  0  0  0  0  0  0  0  0  0
  189.7590  178.5430  144.6180 S   0  0  1  0  0  0  0  0  0  0  0  0
  189.8140  177.9860  146.3290 C   0  0  0  0  0  1  0  0  0  0  0  0
  191.2270  178.6970  144.2460 O   0  0  0  0  0  0  0  0  0  0  0  0
  1  5  1  0  0  0  0
  2 20  1  0  0  0  0
  2 13  1  0  0  0  0
  3 10  1  0  0  0  0
  6 15  1  6  0  0  0
  6 12  1  0  0  0  0
  7  6  1  0  0  0  0
  9 28  1  6  0  0  0
 10 22  2  0  0  0  0
 11  7  1  0  0  0  0
 11  8  1  1  0  0  0
 11  5  1  0  0  0  0
 12 19  1  0  0  0  0
 13 18  1  0  0  0  0
 16  1  2  0  0  0  0
 17  3  2  0  0  0  0
 18 17  1  0  0  0  0
 18 25  2  0  0  0  0
 19 27  1  0  0  0  0
 20  1  1  6  0  0  0
 20 26  1  0  0  0  0
 21  4  1  1  0  0  0
 21 23  1  0  0  0  0
 23  9  1  0  0  0  0
 23 10  1  1  0  0  0
 26 21  1  0  0  0  0
 26 17  1  1  0  0  0
 27 14  2  6  0  0  0
 27 24  1  0  0  0  0
 27  9  1  0  0  0  0
 28 29  1  1  0  0  0
 30 28  2  0  0  0  0
M  END
>  <MODEL>
8

>  <REMARK>
 VINA RESULT:      -2.3      4.671      8.450
  Name = 
  1 active torsions:
  status: ('A' for Active; 'I' for Inactive)
    1  A    between atoms: S_7  and  C_10
                            x       y       z     vdW  Elec       q    Type
                         _______ _______ _______ _____ _____    ______ ____

>  <TORSDO>
F 1

$$$$
=
 OpenBabel11052412383D

 30 32  0  0  1  0  0  0  0  0999 V2000
  186.2940  178.9190  141.3570 C   0  0  0  0  0  0  0  0  0  0  0  0
  188.5910  178.9950  142.9100 S   0  0  0  0  0  0  0  0  0  0  0  0
  190.1510  176.1490  139.8670 N   0  0  0  0  0  0  0  0  0  0  0  0
  188.9520  178.9470  138.5080 C   0  0  0  0  0  1  0  0  0  0  0  0
  185.4160  177.8790  140.9080 N   0  0  0  0  0  2  0  0  0  0  0  0
  183.7960  178.4590  138.2990 C   0  0  2  0  0  3  0  0  0  0  0  0
  183.5650  178.9960  139.7110 C   0  0  0  0  0  2  0  0  0  0  0  0
  183.3050  176.6800  140.6830 C   0  0  0  0  0  1  0  0  0  0  0  0
  187.8870  176.4500  136.7050 C   0  0  1  0  0  3  0  0  0  0  0  0
  189.6690  175.9810  138.5260 C   0  0  0  0  0  0  0  0  0  0  0  0
  183.9710  178.0360  140.8350 C   0  0  1  0  0  3  0  0  0  0  0  0
  185.2590  178.6260  137.8950 C   0  0  0  0  0  2  0  0  0  0  0  0
  189.0300  177.2630  143.2280 C   0  0  0  0  0  2  0  0  0  0  0  0
  185.3150  175.6480  137.7060 O   0  0  0  0  0  1  0  0  0  0  0  0
  182.8980  179.2290  137.3500 C   0  0  0  0  0  1  0  0  0  0  0  0
  185.8200  180.0020  141.7950 O   0  0  0  0  0  0  0  0  0  0  0  0
  189.5110  176.8500  140.7650 C   0  0  0  0  0  0  0  0  0  0  0  0
  189.9520  176.7960  142.1620 C   0  0  0  0  0  0  0  0  0  0  0  0
  185.4780  178.2080  136.5160 N   0  0  0  0  0  2  0  0  0  0  0  0
  187.7830  178.7460  141.2750 C   0  0  1  0  0  3  0  0  0  0  0  0
  188.0290  177.8070  138.9390 C   0  0  1  0  0  3  0  0  0  0  0  0
  190.3520  175.3380  137.6870 O   0  0  0  0  0  0  0  0  0  0  0  0
  188.3080  176.5150  138.1790 C   0  0  1  0  0  3  0  0  0  0  0  0
  185.7160  175.9410  135.1530 O   0  0  0  0  0  0  0  0  0  0  0  0
  191.0800  176.3270  142.4670 O   0  0  0  0  0  0  0  0  0  0  0  0
  188.1800  177.5120  140.4360 C   0  0  1  0  0  3  0  0  0  0  0  0
  186.0690  176.5510  136.4890 P   0  0  1  0  0  0  0  0  0  0  0  0
  188.8320  177.5260  135.5850 S   0  0  1  0  0  0  0  0  0  0  0  0
  189.8140  176.3890  134.5940 C   0  0  0  0  0  1  0  0  0  0  0  0
  187.8180  178.0790  134.5940 O   0  0  0  0  0  0  0  0  0  0  0  0
  1 16  2  0  0  0  0
  2 13  1  0  0  0  0
  3 17  2  0  0  0  0
  5  1  1  0  0  0  0
  6 15  1  6  0  0  0
  6  7  1  0  0  0  0
  7 11  1  0  0  0  0
  9 28  1  6  0  0  0
  9 23  1  0  0  0  0
 10  3  1  0  0  0  0
 11  8  1  6  0  0  0
 11  5  1  0  0  0  0
 12  6  1  0  0  0  0
 17 18  1  0  0  0  0
 18 25  2  0  0  0  0
 18 13  1  0  0  0  0
 19 12  1  0  0  0  0
 20  1  1  1  0  0  0
 20  2  1  0  0  0  0
 21  4  1  6  0  0  0
 21 26  1  0  0  0  0
 22 10  2  0  0  0  0
 23 10  1  6  0  0  0
 23 21  1  0  0  0  0
 26 17  1  6  0  0  0
 26 20  1  0  0  0  0
 27 24  2  6  0  0  0
 27 19  1  0  0  0  0
 27  9  1  0  0  0  0
 27 14  1  0  0  0  0
 28 29  1  6  0  0  0
 30 28  2  0  0  0  0
M  END
>  <MODEL>
9

>  <REMARK>
 VINA RESULT:      -2.2      3.533      5.214
  Name = 
  1 active torsions:
  status: ('A' for Active; 'I' for Inactive)
    1  A    between atoms: S_7  and  C_10
                            x       y       z     vdW  Elec       q    Type
                         _______ _______ _______ _____ _____    ______ ____

>  <TORSDO>
F 1

$$$$
