=
 OpenBabel11052415163D

 37 44  0  0  1  0  0  0  0  0999 V2000
  181.2880  173.8540  137.2760 O   0  0  0  0  0  0  0  0  0  0  0  0
  185.5380  173.6000  136.5480 C   0  0  0  0  0  0  0  0  0  0  0  0
  184.3540  176.8970  137.7080 C   0  0  0  0  0  0  0  0  0  0  0  0
  180.2640  174.4500  136.5180 C   0  0  2  0  0  3  0  0  0  0  0  0
  181.5920  177.1230  140.5140 C   0  0  0  0  0  2  0  0  0  0  0  0
  186.9570  175.6290  136.3770 C   0  0  0  0  0  3  0  0  0  0  0  0
  182.9870  177.1530  138.3360 C   0  0  2  0  0  3  0  0  0  0  0  0
  179.0220  174.6000  138.7890 C   0  0  2  0  0  3  0  0  0  0  0  0
  184.5580  175.7120  137.0810 C   0  0  0  0  0  0  0  0  0  0  0  0
  183.0170  177.0790  139.9030 C   0  0  1  0  0  3  0  0  0  0  0  0
  187.2780  177.0530  136.3860 C   0  0  0  0  0  3  0  0  0  0  0  0
  178.9310  174.3910  137.2680 C   0  0  0  0  0  2  0  0  0  0  0  0
  183.4920  174.7130  136.7650 C   0  0  1  0  0  3  0  0  0  0  0  0
  186.3660  172.8000  137.5380 C   0  0  0  0  0  1  0  0  0  0  0  0
  185.3210  179.0060  138.6730 C   0  0  0  0  0  3  0  0  0  0  0  0
  186.6230  178.0280  137.0040 C   0  0  0  0  0  3  0  0  0  0  0  0
  184.1140  173.3910  136.8270 N   0  0  0  0  0  2  0  0  0  0  0  0
  179.4560  175.9860  139.3110 C   0  0  1  0  0  3  0  0  0  0  0  0
  180.8610  175.9860  139.8450 C   0  0  1  0  0  3  0  0  0  0  0  0
  185.4190  177.9540  137.8420 C   0  0  0  0  0  0  0  0  0  0  0  0
  181.8430  176.2980  137.7280 C   0  0  2  0  0  3  0  0  0  0  0  0
  185.7980  175.0650  136.7090 C   0  0  0  0  0  0  0  0  0  0  0  0
  183.9990  178.0850  140.5310 C   0  0  1  0  0  3  0  0  0  0  0  0
  185.8440  173.1330  135.1340 C   0  0  0  0  0  1  0  0  0  0  0  0
  180.5620  176.6530  138.4970 C   0  0  1  0  0  3  0  0  0  0  0  0
  179.6570  173.5350  139.4370 O   0  0  0  0  0  1  0  0  0  0  0  0
  182.2680  174.8090  137.6610 C   0  0  1  0  0  3  0  0  0  0  0  0
  184.2290  179.3020  139.6510 C   0  0  0  0  0  2  0  0  0  0  0  0
  182.4880  178.8640  142.4090 C   0  0  0  0  0  3  0  0  0  0  0  0
  183.7480  178.4270  141.9720 C   0  0  0  0  0  0  0  0  0  0  0  0
  184.7840  178.2690  142.8990 C   0  0  0  0  0  3  0  0  0  0  0  0
  185.8700  178.3600  145.4020 Cl  0  0  0  0  0  0  0  0  0  0  0  0
  183.3150  178.9990  144.6800 C   0  0  0  0  0  3  0  0  0  0  0  0
  184.5690  178.5570  144.2490 C   0  0  0  0  0  0  0  0  0  0  0  0
  182.2740  179.1520  143.7600 C   0  0  0  0  0  3  0  0  0  0  0  0
  180.9070  172.4490  135.1800 C   0  0  0  0  0  1  0  0  0  0  0  0
  180.1170  173.7430  135.1820 C   0  0  0  0  0  2  0  0  0  0  0  0
  1 27  1  0  0  0  0
  2 22  1  0  0  0  0
  2 17  1  0  0  0  0
  2 14  1  0  0  0  0
  3 20  1  0  0  0  0
  4 37  1  6  0  0  0
  4 12  1  0  0  0  0
  4  1  1  0  0  0  0
  6 11  1  0  0  0  0
  6 22  2  0  0  0  0
  7  3  1  6  0  0  0
  7 10  1  0  0  0  0
  8 18  1  0  0  0  0
  8 26  1  6  0  0  0
  9  3  2  0  0  0  0
 10  5  1  1  0  0  0
 10 23  1  0  0  0  0
 11 16  2  0  0  0  0
 12  8  1  0  0  0  0
 13 17  1  1  0  0  0
 13  9  1  0  0  0  0
 13 27  1  0  0  0  0
 15 28  1  0  0  0  0
 16 20  1  0  0  0  0
 18 19  1  0  0  0  0
 19  5  1  0  0  0  0
 20 15  2  0  0  0  0
 21  7  1  0  0  0  0
 21 25  1  0  0  0  0
 22  9  1  0  0  0  0
 23 30  1  0  0  0  0
 24  2  1  0  0  0  0
 25 18  1  0  0  0  0
 25 19  1  0  0  0  0
 27 21  1  0  0  0  0
 28 23  1  0  0  0  0
 29 35  1  0  0  0  0
 30 29  2  0  0  0  0
 30 31  1  0  0  0  0
 31 34  2  0  0  0  0
 34 33  1  0  0  0  0
 34 32  1  0  0  0  0
 35 33  2  0  0  0  0
 36 37  1  0  0  0  0
M  END
>  <MODEL>
1

>  <REMARK>
 VINA RESULT:      -8.2      0.000      0.000
  Name = 
  2 active torsions:
  status: ('A' for Active; 'I' for Inactive)
    1  A    between atoms: C_5  and  C_23
    2  A    between atoms: C_6  and  C_31
                            x       y       z     vdW  Elec       q    Type
                         _______ _______ _______ _____ _____    ______ ____

>  <TORSDO>
F 2

$$$$
=
 OpenBabel11052415163D

 37 44  0  0  1  0  0  0  0  0999 V2000
  182.5880  177.3100  137.9680 O   0  0  0  0  0  0  0  0  0  0  0  0
  186.0000  175.2390  136.3190 C   0  0  0  0  0  0  0  0  0  0  0  0
  186.8210  177.9390  138.6960 C   0  0  0  0  0  0  0  0  0  0  0  0
  182.0600  178.5800  137.6760 C   0  0  2  0  0  3  0  0  0  0  0  0
  184.6380  178.4360  141.9430 C   0  0  0  0  0  2  0  0  0  0  0  0
  188.3000  176.1510  136.5120 C   0  0  0  0  0  3  0  0  0  0  0  0
  185.8200  178.5890  139.6460 C   0  0  2  0  0  3  0  0  0  0  0  0
  181.1050  178.4540  140.0830 C   0  0  2  0  0  3  0  0  0  0  0  0
  186.3410  177.1620  137.6940 C   0  0  0  0  0  0  0  0  0  0  0  0
  185.8050  177.9140  141.0640 C   0  0  1  0  0  3  0  0  0  0  0  0
  189.3510  177.0840  136.9090 C   0  0  0  0  0  3  0  0  0  0  0  0
  180.9120  178.9230  138.6310 C   0  0  0  0  0  2  0  0  0  0  0  0
  184.9010  177.0520  137.3070 C   0  0  1  0  0  3  0  0  0  0  0  0
  186.2530  173.8220  136.8020 C   0  0  0  0  0  1  0  0  0  0  0  0
  188.7880  178.7060  140.0590 C   0  0  0  0  0  3  0  0  0  0  0  0
  189.3390  177.9310  137.9300 C   0  0  0  0  0  3  0  0  0  0  0  0
  184.6950  175.6920  136.8100 N   0  0  0  0  0  2  0  0  0  0  0  0
  182.2280  179.1040  140.9180 C   0  0  1  0  0  3  0  0  0  0  0  0
  183.4020  178.1860  141.1140 C   0  0  1  0  0  3  0  0  0  0  0  0
  188.2910  178.1630  138.9350 C   0  0  0  0  0  0  0  0  0  0  0  0
  184.3940  178.7410  139.0520 C   0  0  2  0  0  3  0  0  0  0  0  0
  187.0220  176.1760  136.8820 C   0  0  0  0  0  0  0  0  0  0  0  0
  187.1780  177.9530  141.7590 C   0  0  1  0  0  3  0  0  0  0  0  0
  185.9990  175.2660  134.7990 C   0  0  0  0  0  1  0  0  0  0  0  0
  183.5190  179.3700  140.1470 C   0  0  1  0  0  3  0  0  0  0  0  0
  181.0500  177.0620  140.2060 O   0  0  0  0  0  1  0  0  0  0  0  0
  183.9310  177.4020  138.4240 C   0  0  1  0  0  3  0  0  0  0  0  0
  188.0380  179.1130  141.2880 C   0  0  0  0  0  2  0  0  0  0  0  0
  188.2680  177.2930  143.9490 C   0  0  0  0  0  3  0  0  0  0  0  0
  187.1560  177.7910  143.2520 C   0  0  0  0  0  0  0  0  0  0  0  0
  186.0150  178.1820  143.9620 C   0  0  0  0  0  3  0  0  0  0  0  0
  184.5470  178.5530  146.2340 Cl  0  0  0  0  0  0  0  0  0  0  0  0
  187.0850  177.5630  146.0440 C   0  0  0  0  0  3  0  0  0  0  0  0
  185.9790  178.0650  145.3540 C   0  0  0  0  0  0  0  0  0  0  0  0
  188.2310  177.1770  145.3410 C   0  0  0  0  0  3  0  0  0  0  0  0
  180.7560  179.8930  136.0060 C   0  0  0  0  0  1  0  0  0  0  0  0
  181.5470  178.6220  136.2470 C   0  0  0  0  0  2  0  0  0  0  0  0
  1 27  1  0  0  0  0
  2 14  1  0  0  0  0
  2 17  1  0  0  0  0
  2 22  1  0  0  0  0
  3 20  1  0  0  0  0
  4 37  1  6  0  0  0
  4  1  1  0  0  0  0
  4 12  1  0  0  0  0
  6 22  2  0  0  0  0
  6 11  1  0  0  0  0
  7  3  1  6  0  0  0
  7 10  1  0  0  0  0
  8 26  1  6  0  0  0
  8 18  1  0  0  0  0
  9  3  2  0  0  0  0
 10 23  1  0  0  0  0
 10  5  1  1  0  0  0
 11 16  2  0  0  0  0
 12  8  1  0  0  0  0
 13 17  1  1  0  0  0
 13  9  1  0  0  0  0
 13 27  1  0  0  0  0
 15 28  1  0  0  0  0
 16 20  1  0  0  0  0
 18 19  1  0  0  0  0
 19  5  1  0  0  0  0
 20 15  2  0  0  0  0
 21  7  1  0  0  0  0
 21 25  1  0  0  0  0
 22  9  1  0  0  0  0
 23 30  1  0  0  0  0
 24  2  1  0  0  0  0
 25 18  1  0  0  0  0
 25 19  1  0  0  0  0
 27 21  1  0  0  0  0
 28 23  1  0  0  0  0
 29 35  1  0  0  0  0
 30 29  2  0  0  0  0
 30 31  1  0  0  0  0
 31 34  2  0  0  0  0
 34 33  1  0  0  0  0
 34 32  1  0  0  0  0
 35 33  2  0  0  0  0
 36 37  1  0  0  0  0
M  END
>  <MODEL>
2

>  <REMARK>
 VINA RESULT:      -8.0      2.600      3.744
  Name = 
  2 active torsions:
  status: ('A' for Active; 'I' for Inactive)
    1  A    between atoms: C_5  and  C_23
    2  A    between atoms: C_6  and  C_31
                            x       y       z     vdW  Elec       q    Type
                         _______ _______ _______ _____ _____    ______ ____

>  <TORSDO>
F 2

$$$$
=
 OpenBabel11052415163D

 37 44  0  0  1  0  0  0  0  0999 V2000
  181.8740  177.5390  137.3350 O   0  0  0  0  0  0  0  0  0  0  0  0
  185.2660  174.9740  136.5830 C   0  0  0  0  0  0  0  0  0  0  0  0
  185.9620  177.8720  138.7580 C   0  0  0  0  0  0  0  0  0  0  0  0
  181.5490  178.8030  136.8110 C   0  0  2  0  0  3  0  0  0  0  0  0
  183.3200  178.9780  141.4700 C   0  0  0  0  0  2  0  0  0  0  0  0
  187.5860  175.6920  137.0960 C   0  0  0  0  0  3  0  0  0  0  0  0
  184.8900  178.7260  139.4300 C   0  0  2  0  0  3  0  0  0  0  0  0
  180.1850  179.0740  139.0000 C   0  0  2  0  0  3  0  0  0  0  0  0
  185.5770  177.0190  137.7770 C   0  0  0  0  0  0  0  0  0  0  0  0
  184.5550  178.2440  140.8850 C   0  0  1  0  0  3  0  0  0  0  0  0
  188.6500  176.5700  137.5750 C   0  0  0  0  0  3  0  0  0  0  0  0
  180.3000  179.3680  137.4940 C   0  0  0  0  0  2  0  0  0  0  0  0
  184.2230  176.9900  137.1450 C   0  0  1  0  0  3  0  0  0  0  0  0
  185.2720  173.6140  137.2580 C   0  0  0  0  0  1  0  0  0  0  0  0
  187.7370  178.6280  140.3680 C   0  0  0  0  0  3  0  0  0  0  0  0
  188.5560  177.5390  138.4760 C   0  0  0  0  0  3  0  0  0  0  0  0
  183.9550  175.6020  136.7710 N   0  0  0  0  0  2  0  0  0  0  0  0
  181.2130  179.7230  139.9500 C   0  0  1  0  0  3  0  0  0  0  0  0
  182.2260  178.7350  140.4600 C   0  0  1  0  0  3  0  0  0  0  0  0
  187.3840  177.9920  139.2380 C   0  0  0  0  0  0  0  0  0  0  0  0
  183.6140  178.9290  138.5690 C   0  0  2  0  0  3  0  0  0  0  0  0
  186.2740  175.8800  137.2180 C   0  0  0  0  0  0  0  0  0  0  0  0
  185.7840  178.2480  141.8140 C   0  0  1  0  0  3  0  0  0  0  0  0
  185.5310  174.8050  135.0950 C   0  0  0  0  0  1  0  0  0  0  0  0
  182.6390  179.7700  139.4070 C   0  0  1  0  0  3  0  0  0  0  0  0
  179.9550  177.7200  139.2630 O   0  0  0  0  0  1  0  0  0  0  0  0
  183.1200  177.5670  138.0170 C   0  0  1  0  0  3  0  0  0  0  0  0
  186.8370  179.2560  141.3840 C   0  0  0  0  0  2  0  0  0  0  0  0
  184.2140  178.6280  143.7660 C   0  0  0  0  0  3  0  0  0  0  0  0
  185.4870  178.2820  143.2860 C   0  0  0  0  0  0  0  0  0  0  0  0
  186.4930  177.9260  144.1910 C   0  0  0  0  0  3  0  0  0  0  0  0
  187.4980  177.4820  146.6900 Cl  0  0  0  0  0  0  0  0  0  0  0  0
  184.9680  178.2770  146.0390 C   0  0  0  0  0  3  0  0  0  0  0  0
  186.2350  177.9260  145.5640 C   0  0  0  0  0  0  0  0  0  0  0  0
  183.9570  178.6280  145.1390 C   0  0  0  0  0  3  0  0  0  0  0  0
  180.8050  180.0350  134.7770 C   0  0  0  0  0  1  0  0  0  0  0  0
  181.2990  178.7070  135.3160 C   0  0  0  0  0  2  0  0  0  0  0  0
  1 27  1  0  0  0  0
  2 17  1  0  0  0  0
  2 22  1  0  0  0  0
  2 14  1  0  0  0  0
  3 20  1  0  0  0  0
  4 37  1  6  0  0  0
  4  1  1  0  0  0  0
  4 12  1  0  0  0  0
  6 22  2  0  0  0  0
  6 11  1  0  0  0  0
  7  3  1  6  0  0  0
  7 10  1  0  0  0  0
  8 26  1  6  0  0  0
  8 18  1  0  0  0  0
  9  3  2  0  0  0  0
 10  5  1  1  0  0  0
 10 23  1  0  0  0  0
 11 16  2  0  0  0  0
 12  8  1  0  0  0  0
 13 17  1  1  0  0  0
 13  9  1  0  0  0  0
 13 27  1  0  0  0  0
 15 28  1  0  0  0  0
 16 20  1  0  0  0  0
 18 19  1  0  0  0  0
 19  5  1  0  0  0  0
 20 15  2  0  0  0  0
 21 25  1  0  0  0  0
 21  7  1  0  0  0  0
 22  9  1  0  0  0  0
 23 30  1  0  0  0  0
 24  2  1  0  0  0  0
 25 18  1  0  0  0  0
 25 19  1  0  0  0  0
 27 21  1  0  0  0  0
 28 23  1  0  0  0  0
 29 35  1  0  0  0  0
 30 29  2  0  0  0  0
 30 31  1  0  0  0  0
 31 34  2  0  0  0  0
 34 33  1  0  0  0  0
 34 32  1  0  0  0  0
 35 33  2  0  0  0  0
 36 37  1  0  0  0  0
M  END
>  <MODEL>
3

>  <REMARK>
 VINA RESULT:      -7.9      2.511      3.144
  Name = 
  2 active torsions:
  status: ('A' for Active; 'I' for Inactive)
    1  A    between atoms: C_5  and  C_23
    2  A    between atoms: C_6  and  C_31
                            x       y       z     vdW  Elec       q    Type
                         _______ _______ _______ _____ _____    ______ ____

>  <TORSDO>
F 2

$$$$
=
 OpenBabel11052415163D

 37 44  0  0  1  0  0  0  0  0999 V2000
  182.8700  177.2180  138.0680 O   0  0  0  0  0  0  0  0  0  0  0  0
  185.5490  174.4900  136.0610 C   0  0  0  0  0  0  0  0  0  0  0  0
  187.1950  177.3450  137.7190 C   0  0  0  0  0  0  0  0  0  0  0  0
  182.4200  178.4980  137.6970 C   0  0  2  0  0  3  0  0  0  0  0  0
  185.9250  178.5740  141.2450 C   0  0  0  0  0  2  0  0  0  0  0  0
  187.9090  175.0920  135.5830 C   0  0  0  0  0  3  0  0  0  0  0  0
  186.5260  178.2500  138.7490 C   0  0  2  0  0  3  0  0  0  0  0  0
  182.0680  178.8310  140.2450 C   0  0  2  0  0  3  0  0  0  0  0  0
  186.4090  176.5140  136.9910 C   0  0  0  0  0  0  0  0  0  0  0  0
  186.7850  177.7820  140.2250 C   0  0  1  0  0  3  0  0  0  0  0  0
  189.1150  175.9150  135.5770 C   0  0  0  0  0  3  0  0  0  0  0  0
  181.5800  179.1220  138.8150 C   0  0  0  0  0  2  0  0  0  0  0  0
  184.9150  176.5540  136.9590 C   0  0  1  0  0  3  0  0  0  0  0  0
  185.7640  173.1300  136.7000 C   0  0  0  0  0  1  0  0  0  0  0  0
  189.5020  178.0090  138.4640 C   0  0  0  0  0  3  0  0  0  0  0  0
  189.4380  176.8850  136.4220 C   0  0  0  0  0  3  0  0  0  0  0  0
  184.4560  175.1820  136.7490 N   0  0  0  0  0  2  0  0  0  0  0  0
  183.4210  179.4260  140.6890 C   0  0  1  0  0  3  0  0  0  0  0  0
  184.5070  178.3890  140.7660 C   0  0  1  0  0  3  0  0  0  0  0  0
  188.6940  177.3940  137.5830 C   0  0  0  0  0  0  0  0  0  0  0  0
  185.0220  178.5180  138.4720 C   0  0  2  0  0  3  0  0  0  0  0  0
  186.7680  175.3430  136.2200 C   0  0  0  0  0  0  0  0  0  0  0  0
  188.2820  177.7220  140.5800 C   0  0  1  0  0  3  0  0  0  0  0  0
  185.1830  174.3120  134.5950 C   0  0  0  0  0  1  0  0  0  0  0  0
  184.5080  179.4040  139.6170 C   0  0  1  0  0  3  0  0  0  0  0  0
  181.9020  177.4890  140.6030 O   0  0  0  0  0  1  0  0  0  0  0  0
  184.2860  177.1830  138.1910 C   0  0  1  0  0  3  0  0  0  0  0  0
  189.1170  178.6780  139.7450 C   0  0  0  0  0  2  0  0  0  0  0  0
  187.7310  177.2320  143.0040 C   0  0  0  0  0  3  0  0  0  0  0  0
  188.6050  177.7690  142.0460 C   0  0  0  0  0  0  0  0  0  0  0  0
  189.8220  178.3260  142.4570 C   0  0  0  0  0  3  0  0  0  0  0  0
  191.6790  179.0590  144.3190 Cl  0  0  0  0  0  0  0  0  0  0  0  0
  189.2810  177.8290  144.7650 C   0  0  0  0  0  3  0  0  0  0  0  0
  190.1570  178.3580  143.8130 C   0  0  0  0  0  0  0  0  0  0  0  0
  188.0680  177.2650  144.3600 C   0  0  0  0  0  3  0  0  0  0  0  0
  180.7960  179.6970  136.2370 C   0  0  0  0  0  1  0  0  0  0  0  0
  181.5850  178.4170  136.4320 C   0  0  0  0  0  2  0  0  0  0  0  0
  1 27  1  0  0  0  0
  2 22  1  0  0  0  0
  2 14  1  0  0  0  0
  2 17  1  0  0  0  0
  4 37  1  6  0  0  0
  4  1  1  0  0  0  0
  4 12  1  0  0  0  0
  6 22  2  0  0  0  0
  7  3  1  6  0  0  0
  7 10  1  0  0  0  0
  8 26  1  6  0  0  0
  8 18  1  0  0  0  0
  9  3  2  0  0  0  0
 10 23  1  0  0  0  0
 10  5  1  1  0  0  0
 11  6  1  0  0  0  0
 11 16  2  0  0  0  0
 12  8  1  0  0  0  0
 13 17  1  1  0  0  0
 13  9  1  0  0  0  0
 13 27  1  0  0  0  0
 15 28  1  0  0  0  0
 16 20  1  0  0  0  0
 18 19  1  0  0  0  0
 19  5  1  0  0  0  0
 20  3  1  0  0  0  0
 20 15  2  0  0  0  0
 21  7  1  0  0  0  0
 21 25  1  0  0  0  0
 22  9  1  0  0  0  0
 23 30  1  0  0  0  0
 24  2  1  0  0  0  0
 25 18  1  0  0  0  0
 25 19  1  0  0  0  0
 27 21  1  0  0  0  0
 28 23  1  0  0  0  0
 29 35  1  0  0  0  0
 30 31  1  0  0  0  0
 30 29  2  0  0  0  0
 31 34  2  0  0  0  0
 34 32  1  0  0  0  0
 34 33  1  0  0  0  0
 35 33  2  0  0  0  0
 36 37  1  0  0  0  0
M  END
>  <MODEL>
4

>  <REMARK>
 VINA RESULT:      -7.8      2.894      4.306
  Name = 
  2 active torsions:
  status: ('A' for Active; 'I' for Inactive)
    1  A    between atoms: C_5  and  C_23
    2  A    between atoms: C_6  and  C_31
                            x       y       z     vdW  Elec       q    Type
                         _______ _______ _______ _____ _____    ______ ____

>  <TORSDO>
F 2

$$$$
=
 OpenBabel11052415163D

 37 44  0  0  1  0  0  0  0  0999 V2000
  180.4470  177.6750  140.2460 O   0  0  0  0  0  0  0  0  0  0  0  0
  182.9130  175.4700  137.4700 C   0  0  0  0  0  0  0  0  0  0  0  0
  184.6910  178.0530  139.4150 C   0  0  0  0  0  0  0  0  0  0  0  0
  179.9270  178.9800  140.1710 C   0  0  2  0  0  3  0  0  0  0  0  0
  183.8450  178.5750  143.2310 C   0  0  0  0  0  2  0  0  0  0  0  0
  185.1820  176.2510  136.8330 C   0  0  0  0  0  3  0  0  0  0  0  0
  184.1360  178.7290  140.6650 C   0  0  2  0  0  3  0  0  0  0  0  0
  179.8880  178.8370  142.7600 C   0  0  2  0  0  3  0  0  0  0  0  0
  183.8380  177.3320  138.6460 C   0  0  0  0  0  0  0  0  0  0  0  0
  184.5870  178.0160  141.9890 C   0  0  1  0  0  3  0  0  0  0  0  0
  186.3590  177.1150  136.8340 C   0  0  0  0  0  3  0  0  0  0  0  0
  179.2190  179.3560  141.4760 C   0  0  0  0  0  2  0  0  0  0  0  0
  182.3510  177.3110  138.7990 C   0  0  1  0  0  3  0  0  0  0  0  0
  183.2350  174.0290  137.8200 C   0  0  0  0  0  1  0  0  0  0  0  0
  187.0570  178.6740  139.9890 C   0  0  0  0  0  3  0  0  0  0  0  0
  186.7640  177.9320  137.7980 C   0  0  0  0  0  3  0  0  0  0  0  0
  181.8990  175.9790  138.3980 N   0  0  0  0  0  2  0  0  0  0  0  0
  181.2730  179.4010  143.1420 C   0  0  1  0  0  3  0  0  0  0  0  0
  182.3820  178.4160  142.8980 C   0  0  1  0  0  3  0  0  0  0  0  0
  186.1600  178.1910  139.1130 C   0  0  0  0  0  0  0  0  0  0  0  0
  182.6040  178.9750  140.6220 C   0  0  2  0  0  3  0  0  0  0  0  0
  184.1240  176.3350  137.6360 C   0  0  0  0  0  0  0  0  0  0  0  0
  186.1170  177.9600  142.1470 C   0  0  1  0  0  3  0  0  0  0  0  0
  182.3710  175.5410  136.0500 C   0  0  0  0  0  1  0  0  0  0  0  0
  182.2170  179.6190  141.9620 C   0  0  1  0  0  3  0  0  0  0  0  0
  179.7970  177.4460  142.8840 O   0  0  0  0  0  1  0  0  0  0  0  0
  181.8670  177.6820  140.1910 C   0  0  1  0  0  3  0  0  0  0  0  0
  186.8210  179.0860  141.4070 C   0  0  0  0  0  2  0  0  0  0  0  0
  187.8690  177.1680  143.7970 C   0  0  0  0  0  3  0  0  0  0  0  0
  186.6200  177.7580  143.5480 C   0  0  0  0  0  0  0  0  0  0  0  0
  185.8400  178.2020  144.6210 C   0  0  0  0  0  3  0  0  0  0  0  0
  185.3140  178.6030  147.2700 Cl  0  0  0  0  0  0  0  0  0  0  0  0
  187.5370  177.4540  146.1780 C   0  0  0  0  0  3  0  0  0  0  0  0
  186.2960  178.0480  145.9330 C   0  0  0  0  0  0  0  0  0  0  0  0
  188.3250  177.0140  145.1090 C   0  0  0  0  0  3  0  0  0  0  0  0
  179.6180  179.6900  137.8030 C   0  0  0  0  0  1  0  0  0  0  0  0
  178.9420  179.0900  139.0210 C   0  0  0  0  0  2  0  0  0  0  0  0
  2 22  1  0  0  0  0
  2 14  1  0  0  0  0
  2 17  1  0  0  0  0
  4 37  1  6  0  0  0
  4  1  1  0  0  0  0
  4 12  1  0  0  0  0
  6 11  1  0  0  0  0
  6 22  2  0  0  0  0
  7  3  1  6  0  0  0
  7 10  1  0  0  0  0
  8 26  1  6  0  0  0
  8 18  1  0  0  0  0
  9 13  1  0  0  0  0
  9  3  2  0  0  0  0
 10 23  1  0  0  0  0
 10  5  1  1  0  0  0
 11 16  2  0  0  0  0
 12  8  1  0  0  0  0
 13 17  1  1  0  0  0
 13 27  1  0  0  0  0
 15 28  1  0  0  0  0
 16 20  1  0  0  0  0
 19 18  1  0  0  0  0
 19  5  1  0  0  0  0
 20  3  1  0  0  0  0
 20 15  2  0  0  0  0
 21  7  1  0  0  0  0
 21 25  1  0  0  0  0
 22  9  1  0  0  0  0
 23 30  1  0  0  0  0
 24  2  1  0  0  0  0
 25 19  1  0  0  0  0
 25 18  1  0  0  0  0
 27  1  1  0  0  0  0
 27 21  1  0  0  0  0
 28 23  1  0  0  0  0
 29 35  1  0  0  0  0
 30 29  2  0  0  0  0
 30 31  1  0  0  0  0
 31 34  2  0  0  0  0
 34 33  1  0  0  0  0
 34 32  1  0  0  0  0
 35 33  2  0  0  0  0
 36 37  1  0  0  0  0
M  END
>  <MODEL>
5

>  <REMARK>
 VINA RESULT:      -7.6      2.309      4.152
  Name = 
  2 active torsions:
  status: ('A' for Active; 'I' for Inactive)
    1  A    between atoms: C_5  and  C_23
    2  A    between atoms: C_6  and  C_31
                            x       y       z     vdW  Elec       q    Type
                         _______ _______ _______ _____ _____    ______ ____

>  <TORSDO>
F 2

$$$$
=
 OpenBabel11052415163D

 37 44  0  0  1  0  0  0  0  0999 V2000
  191.2160  175.9650  138.9530 O   0  0  0  0  0  0  0  0  0  0  0  0
  188.9170  177.0800  142.4360 C   0  0  0  0  0  0  0  0  0  0  0  0
  187.2680  177.7550  139.2040 C   0  0  0  0  0  0  0  0  0  0  0  0
  191.9350  176.7570  138.0400 C   0  0  2  0  0  3  0  0  0  0  0  0
  187.5620  175.1470  136.2610 C   0  0  0  0  0  2  0  0  0  0  0  0
  186.9260  178.5540  142.2700 C   0  0  0  0  0  3  0  0  0  0  0  0
  187.7120  177.1690  137.8680 C   0  0  2  0  0  3  0  0  0  0  0  0
  191.5360  174.7820  136.4080 C   0  0  2  0  0  3  0  0  0  0  0  0
  188.1120  177.6510  140.2600 C   0  0  2  0  0  3  0  0  0  0  0  0
  186.9520  175.8450  137.5040 C   0  0  1  0  0  3  0  0  0  0  0  0
  185.9110  179.3790  141.6210 C   0  0  0  0  0  3  0  0  0  0  0  0
  192.4740  175.9020  136.8900 C   0  0  0  0  0  2  0  0  0  0  0  0
  189.5340  177.1970  140.1820 C   0  0  1  0  0  3  0  0  0  0  0  0
  188.3250  175.9560  143.2670 C   0  0  0  0  0  1  0  0  0  0  0  0
  184.9640  178.2700  138.3440 C   0  0  0  0  0  2  0  0  0  0  0  0
  185.4870  179.3050  140.3660 C   0  0  0  0  0  3  0  0  0  0  0  0
  189.8350  176.5160  141.4420 N   0  0  0  0  0  2  0  0  0  0  0  0
  190.2110  175.1820  135.7250 C   0  0  1  0  0  3  0  0  0  0  0  0
  189.0180  174.9600  136.6120 C   0  0  1  0  0  3  0  0  0  0  0  0
  185.9050  178.3890  139.2960 C   0  0  0  0  0  0  0  0  0  0  0  0
  189.2510  177.0220  137.7240 C   0  0  2  0  0  3  0  0  0  0  0  0
  187.8420  177.7930  141.6750 C   0  0  0  0  0  0  0  0  0  0  0  0
  185.4250  176.0340  137.4300 C   0  0  1  0  0  3  0  0  0  0  0  0
  189.6830  178.0340  143.3390 C   0  0  0  0  0  1  0  0  0  0  0  0
  189.5130  176.3870  136.3490 C   0  0  1  0  0  3  0  0  0  0  0  0
  191.3920  173.7630  137.3560 O   0  0  0  0  0  1  0  0  0  0  0  0
  189.8400  176.3250  138.9770 C   0  0  1  0  0  3  0  0  0  0  0  0
  185.0300  177.4600  137.0880 C   0  0  0  0  0  2  0  0  0  0  0  0
  184.2650  175.2480  135.3190 C   0  0  0  0  0  3  0  0  0  0  0  0
  184.6800  174.9990  136.6360 C   0  0  0  0  0  0  0  0  0  0  0  0
  184.4290  173.7490  137.2140 C   0  0  0  0  0  3  0  0  0  0  0  0
  183.4460  171.2020  137.2180 Cl  0  0  0  0  0  0  0  0  0  0  0  0
  183.3410  173.0150  135.1790 C   0  0  0  0  0  3  0  0  0  0  0  0
  183.7580  172.7610  136.4880 C   0  0  0  0  0  0  0  0  0  0  0  0
  183.5950  174.2590  134.5940 C   0  0  0  0  0  3  0  0  0  0  0  0
  193.1480  177.0390  140.1980 C   0  0  0  0  0  1  0  0  0  0  0  0
  193.0960  177.4430  138.7370 C   0  0  0  0  0  2  0  0  0  0  0  0
  1 27  1  0  0  0  0
  2 14  1  0  0  0  0
  2 24  1  0  0  0  0
  3 20  2  0  0  0  0
  4 37  1  1  0  0  0
  4  1  1  0  0  0  0
  5 19  1  0  0  0  0
  7  3  1  1  0  0  0
  8 12  1  0  0  0  0
  8 26  1  1  0  0  0
  9  3  1  1  0  0  0
  9 22  1  0  0  0  0
 10  5  1  6  0  0  0
 10  7  1  0  0  0  0
 11  6  1  0  0  0  0
 12  4  1  0  0  0  0
 13  9  1  0  0  0  0
 13 17  1  1  0  0  0
 15 20  1  0  0  0  0
 16 11  2  0  0  0  0
 17  2  1  0  0  0  0
 18 25  1  0  0  0  0
 18  8  1  0  0  0  0
 18 19  1  0  0  0  0
 20 16  1  0  0  0  0
 21  7  1  0  0  0  0
 21 27  1  0  0  0  0
 22  6  2  0  0  0  0
 22  2  1  0  0  0  0
 23 10  1  0  0  0  0
 25 19  1  0  0  0  0
 25 21  1  0  0  0  0
 27 13  1  0  0  0  0
 28 23  1  0  0  0  0
 28 15  1  0  0  0  0
 29 30  1  0  0  0  0
 30 31  2  0  0  0  0
 30 23  1  0  0  0  0
 33 34  2  0  0  0  0
 34 31  1  0  0  0  0
 34 32  1  0  0  0  0
 35 33  1  0  0  0  0
 35 29  2  0  0  0  0
 37 36  1  0  0  0  0
M  END
>  <MODEL>
6

>  <REMARK>
 VINA RESULT:      -7.2      4.495      8.672
  Name = 
  2 active torsions:
  status: ('A' for Active; 'I' for Inactive)
    1  A    between atoms: C_5  and  C_23
    2  A    between atoms: C_6  and  C_31
                            x       y       z     vdW  Elec       q    Type
                         _______ _______ _______ _____ _____    ______ ____

>  <TORSDO>
F 2

$$$$
=
 OpenBabel11052415163D

 37 44  0  0  1  0  0  0  0  0999 V2000
  191.4900  175.3640  137.9490 O   0  0  0  0  0  0  0  0  0  0  0  0
  189.9390  176.8190  141.7080 C   0  0  0  0  0  0  0  0  0  0  0  0
  187.7050  177.3070  138.8120 C   0  0  0  0  0  0  0  0  0  0  0  0
  192.0340  176.0580  136.8530 C   0  0  2  0  0  3  0  0  0  0  0  0
  187.3660  174.4760  136.0870 C   0  0  0  0  0  2  0  0  0  0  0  0
  187.9850  178.3470  141.8110 C   0  0  0  0  0  3  0  0  0  0  0  0
  187.8680  176.6070  137.4660 C   0  0  2  0  0  3  0  0  0  0  0  0
  191.2830  173.9810  135.4940 C   0  0  2  0  0  3  0  0  0  0  0  0
  188.7370  177.2530  139.6900 C   0  0  2  0  0  3  0  0  0  0  0  0
  187.0240  175.2870  137.3640 C   0  0  1  0  0  3  0  0  0  0  0  0
  186.8790  179.1560  141.3060 C   0  0  0  0  0  3  0  0  0  0  0  0
  192.3200  175.1000  135.6930 C   0  0  0  0  0  2  0  0  0  0  0  0
  190.1070  176.7440  139.3760 C   0  0  1  0  0  3  0  0  0  0  0  0
  189.4980  175.7830  142.7260 C   0  0  0  0  0  1  0  0  0  0  0  0
  185.2880  177.8380  138.3730 C   0  0  0  0  0  2  0  0  0  0  0  0
  186.2170  179.0030  140.1660 C   0  0  0  0  0  3  0  0  0  0  0  0
  190.6330  176.1490  140.6040 N   0  0  0  0  0  2  0  0  0  0  0  0
  189.8590  174.3750  135.0490 C   0  0  1  0  0  3  0  0  0  0  0  0
  188.8570  174.2640  136.1650 C   0  0  1  0  0  3  0  0  0  0  0  0
  186.4000  177.9950  139.1130 C   0  0  0  0  0  0  0  0  0  0  0  0
  189.3460  176.3940  137.0400 C   0  0  2  0  0  3  0  0  0  0  0  0
  188.7510  177.5110  141.1140 C   0  0  0  0  0  0  0  0  0  0  0  0
  185.5170  175.5240  137.5710 C   0  0  1  0  0  3  0  0  0  0  0  0
  190.8860  177.8100  142.3670 C   0  0  0  0  0  1  0  0  0  0  0  0
  189.3210  175.6480  135.6970 C   0  0  1  0  0  3  0  0  0  0  0  0
  191.3060  173.0420  136.5310 O   0  0  0  0  0  1  0  0  0  0  0  0
  190.1540  175.7720  138.2080 C   0  0  1  0  0  3  0  0  0  0  0  0
  185.0910  176.9340  137.1970 C   0  0  0  0  0  2  0  0  0  0  0  0
  184.7700  173.1110  137.3740 C   0  0  0  0  0  3  0  0  0  0  0  0
  184.6090  174.4600  137.0220 C   0  0  0  0  0  0  0  0  0  0  0  0
  183.5610  174.8320  136.1740 C   0  0  0  0  0  3  0  0  0  0  0  0
  181.3810  174.3360  134.6060 Cl  0  0  0  0  0  0  0  0  0  0  0  0
  182.8550  172.5210  136.0160 C   0  0  0  0  0  3  0  0  0  0  0  0
  182.6880  173.8640  135.6700 C   0  0  0  0  0  0  0  0  0  0  0  0
  183.8970  172.1440  136.8690 C   0  0  0  0  0  3  0  0  0  0  0  0
  194.3320  176.6890  136.1250 C   0  0  0  0  0  1  0  0  0  0  0  0
  193.3230  176.7530  137.2560 C   0  0  0  0  0  2  0  0  0  0  0  0
  1 27  1  0  0  0  0
  2 24  1  0  0  0  0
  2 14  1  0  0  0  0
  3 20  2  0  0  0  0
  4 37  1  1  0  0  0
  4  1  1  0  0  0  0
  5 19  1  0  0  0  0
  7  3  1  1  0  0  0
  8 12  1  0  0  0  0
  8 26  1  1  0  0  0
  9  3  1  1  0  0  0
  9 22  1  0  0  0  0
 10  5  1  6  0  0  0
 10  7  1  0  0  0  0
 10 23  1  0  0  0  0
 11  6  1  0  0  0  0
 12  4  1  0  0  0  0
 13  9  1  0  0  0  0
 13 17  1  1  0  0  0
 15 20  1  0  0  0  0
 16 11  2  0  0  0  0
 17  2  1  0  0  0  0
 18  8  1  0  0  0  0
 18 25  1  0  0  0  0
 18 19  1  0  0  0  0
 20 16  1  0  0  0  0
 21  7  1  0  0  0  0
 21 27  1  0  0  0  0
 22  2  1  0  0  0  0
 22  6  2  0  0  0  0
 25 19  1  0  0  0  0
 25 21  1  0  0  0  0
 27 13  1  0  0  0  0
 28 23  1  0  0  0  0
 28 15  1  0  0  0  0
 30 29  1  0  0  0  0
 30 23  1  0  0  0  0
 31 30  2  0  0  0  0
 32 34  1  0  0  0  0
 33 35  1  0  0  0  0
 34 33  2  0  0  0  0
 34 31  1  0  0  0  0
 35 29  2  0  0  0  0
 36 37  1  0  0  0  0
M  END
>  <MODEL>
7

>  <REMARK>
 VINA RESULT:      -6.6      4.727      8.678
  Name = 
  2 active torsions:
  status: ('A' for Active; 'I' for Inactive)
    1  A    between atoms: C_5  and  C_23
    2  A    between atoms: C_6  and  C_31
                            x       y       z     vdW  Elec       q    Type
                         _______ _______ _______ _____ _____    ______ ____

>  <TORSDO>
F 2

$$$$
=
 OpenBabel11052415163D

 37 44  0  0  1  0  0  0  0  0999 V2000
  185.2210  176.2510  137.1810 O   0  0  0  0  0  0  0  0  0  0  0  0
  188.0110  173.0100  136.5770 C   0  0  0  0  0  0  0  0  0  0  0  0
  189.4980  176.1100  137.9140 C   0  0  0  0  0  0  0  0  0  0  0  0
  185.0020  177.4210  136.4320 C   0  0  2  0  0  3  0  0  0  0  0  0
  187.5640  178.2070  140.6390 C   0  0  0  0  0  2  0  0  0  0  0  0
  190.4650  173.3790  136.5880 C   0  0  0  0  0  3  0  0  0  0  0  0
  188.7000  177.2640  138.5130 C   0  0  2  0  0  3  0  0  0  0  0  0
  184.0960  178.3740  138.6670 C   0  0  2  0  0  3  0  0  0  0  0  0
  188.8260  175.1620  137.2170 C   0  0  0  0  0  0  0  0  0  0  0  0
  188.5550  177.1560  140.0730 C   0  0  1  0  0  3  0  0  0  0  0  0
  191.7150  174.1260  136.7020 C   0  0  0  0  0  3  0  0  0  0  0  0
  183.9890  178.3310  137.1330 C   0  0  0  0  0  2  0  0  0  0  0  0
  187.3930  175.2550  136.8010 C   0  0  1  0  0  3  0  0  0  0  0  0
  187.9320  171.8370  137.5380 C   0  0  0  0  0  1  0  0  0  0  0  0
  191.6190  176.8380  139.0490 C   0  0  0  0  0  3  0  0  0  0  0  0
  191.9250  175.2580  137.3620 C   0  0  0  0  0  3  0  0  0  0  0  0
  186.8610  173.8920  136.7950 N   0  0  0  0  0  2  0  0  0  0  0  0
  185.3590  179.0020  139.2930 C   0  0  1  0  0  3  0  0  0  0  0  0
  186.2870  177.9700  139.8710 C   0  0  1  0  0  3  0  0  0  0  0  0
  190.9840  176.0620  138.1540 C   0  0  0  0  0  0  0  0  0  0  0  0
  187.3380  177.5190  137.8130 C   0  0  2  0  0  3  0  0  0  0  0  0
  189.2380  173.8250  136.8440 C   0  0  0  0  0  0  0  0  0  0  0  0
  189.9130  177.1220  140.7980 C   0  0  1  0  0  3  0  0  0  0  0  0
  187.9840  172.4980  135.1450 C   0  0  0  0  0  1  0  0  0  0  0  0
  186.6600  178.6760  138.5630 C   0  0  1  0  0  3  0  0  0  0  0  0
  183.7170  177.1670  139.2620 O   0  0  0  0  0  1  0  0  0  0  0  0
  186.5580  176.1880  137.6610 C   0  0  1  0  0  3  0  0  0  0  0  0
  191.0130  177.8120  140.0080 C   0  0  0  0  0  2  0  0  0  0  0  0
  190.9420  178.2220  142.8350 C   0  0  0  0  0  3  0  0  0  0  0  0
  189.8860  177.5080  142.2490 C   0  0  0  0  0  0  0  0  0  0  0  0
  188.7650  177.1780  143.0190 C   0  0  0  0  0  3  0  0  0  0  0  0
  187.3010  177.1280  145.3230 Cl  0  0  0  0  0  0  0  0  0  0  0  0
  189.7610  178.2520  144.9470 C   0  0  0  0  0  3  0  0  0  0  0  0
  188.7040  177.5470  144.3660 C   0  0  0  0  0  0  0  0  0  0  0  0
  190.8810  178.5910  144.1810 C   0  0  0  0  0  3  0  0  0  0  0  0
  184.1510  175.5940  134.9670 C   0  0  0  0  0  1  0  0  0  0  0  0
  184.4840  177.0720  135.0480 C   0  0  0  0  0  2  0  0  0  0  0  0
  1 27  1  0  0  0  0
  2 17  1  0  0  0  0
  2 22  1  0  0  0  0
  2 14  1  0  0  0  0
  3 20  1  0  0  0  0
  4 37  1  6  0  0  0
  4 12  1  0  0  0  0
  4  1  1  0  0  0  0
  6 11  1  0  0  0  0
  6 22  2  0  0  0  0
  7  3  1  6  0  0  0
  7 10  1  0  0  0  0
  8 26  1  6  0  0  0
  8 18  1  0  0  0  0
  9  3  2  0  0  0  0
 10  5  1  1  0  0  0
 10 23  1  0  0  0  0
 11 16  2  0  0  0  0
 12  8  1  0  0  0  0
 13 17  1  1  0  0  0
 13  9  1  0  0  0  0
 13 27  1  0  0  0  0
 15 28  1  0  0  0  0
 16 20  1  0  0  0  0
 18 19  1  0  0  0  0
 19  5  1  0  0  0  0
 20 15  2  0  0  0  0
 21  7  1  0  0  0  0
 21 25  1  0  0  0  0
 22  9  1  0  0  0  0
 23 30  1  0  0  0  0
 24  2  1  0  0  0  0
 25 18  1  0  0  0  0
 25 19  1  0  0  0  0
 27 21  1  0  0  0  0
 28 23  1  0  0  0  0
 29 35  1  0  0  0  0
 30 29  2  0  0  0  0
 30 31  1  0  0  0  0
 31 34  2  0  0  0  0
 34 33  1  0  0  0  0
 34 32  1  0  0  0  0
 35 33  2  0  0  0  0
 36 37  1  0  0  0  0
M  END
>  <MODEL>
8

>  <REMARK>
 VINA RESULT:      -6.5      3.586      5.436
  Name = 
  2 active torsions:
  status: ('A' for Active; 'I' for Inactive)
    1  A    between atoms: C_5  and  C_23
    2  A    between atoms: C_6  and  C_31
                            x       y       z     vdW  Elec       q    Type
                         _______ _______ _______ _____ _____    ______ ____

>  <TORSDO>
F 2

$$$$
=
 OpenBabel11052415163D

 37 44  0  0  1  0  0  0  0  0999 V2000
  186.6920  178.5770  142.0580 O   0  0  0  0  0  0  0  0  0  0  0  0
  188.5130  178.4620  138.1430 C   0  0  0  0  0  0  0  0  0  0  0  0
  184.9290  177.5850  138.2160 C   0  0  0  0  0  0  0  0  0  0  0  0
  186.3230  177.5340  142.9260 C   0  0  2  0  0  3  0  0  0  0  0  0
  182.4570  179.5950  140.5410 C   0  0  0  0  0  2  0  0  0  0  0  0
  187.4000  177.3600  136.2170 C   0  0  0  0  0  3  0  0  0  0  0  0
  183.9950  177.8610  139.3900 C   0  0  2  0  0  3  0  0  0  0  0  0
  184.6360  179.2620  143.8710 C   0  0  2  0  0  3  0  0  0  0  0  0
  186.2640  177.7040  138.4190 C   0  0  2  0  0  3  0  0  0  0  0  0
  183.2300  179.2250  139.2480 C   0  0  1  0  0  3  0  0  0  0  0  0
  186.3550  176.6380  135.4980 C   0  0  0  0  0  3  0  0  0  0  0  0
  185.5850  178.0840  144.1500 C   0  0  0  0  0  2  0  0  0  0  0  0
  186.9190  177.8780  139.7530 C   0  0  1  0  0  3  0  0  0  0  0  0
  188.8640  179.7920  137.5010 C   0  0  0  0  0  1  0  0  0  0  0  0
  183.0180  177.3600  136.6000 C   0  0  0  0  0  2  0  0  0  0  0  0
  185.0610  176.5850  135.7860 C   0  0  0  0  0  3  0  0  0  0  0  0
  188.1180  178.6860  139.5370 N   0  0  0  0  0  2  0  0  0  0  0  0
  183.3810  179.0020  143.0110 C   0  0  1  0  0  3  0  0  0  0  0  0
  183.5060  179.5720  141.6250 C   0  0  1  0  0  3  0  0  0  0  0  0
  184.3250  177.2280  136.8840 C   0  0  0  0  0  0  0  0  0  0  0  0
  184.6670  177.7060  140.7810 C   0  0  2  0  0  3  0  0  0  0  0  0
  187.3370  177.8400  137.4570 C   0  0  0  0  0  0  0  0  0  0  0  0
  182.3800  179.3030  137.9670 C   0  0  1  0  0  3  0  0  0  0  0  0
  189.7250  177.5430  138.1090 C   0  0  0  0  0  1  0  0  0  0  0  0
  183.6040  178.0570  141.8330 C   0  0  1  0  0  3  0  0  0  0  0  0
  185.3240  180.4280  143.5190 O   0  0  0  0  0  1  0  0  0  0  0  0
  186.0110  178.4780  140.8140 C   0  0  1  0  0  3  0  0  0  0  0  0
  181.9460  177.9340  137.4710 C   0  0  0  0  0  2  0  0  0  0  0  0
  179.9420  179.9360  138.2390 C   0  0  0  0  0  3  0  0  0  0  0  0
  181.2700  180.3140  137.9830 C   0  0  0  0  0  0  0  0  0  0  0  0
  181.5760  181.6630  137.7750 C   0  0  0  0  0  3  0  0  0  0  0  0
  180.9540  184.3120  137.5460 Cl  0  0  0  0  0  0  0  0  0  0  0  0
  179.2420  182.2460  138.0580 C   0  0  0  0  0  3  0  0  0  0  0  0
  180.5640  182.6270  137.8100 C   0  0  0  0  0  0  0  0  0  0  0  0
  178.9310  180.9000  138.2730 C   0  0  0  0  0  3  0  0  0  0  0  0
  188.0440  177.3160  144.7140 C   0  0  0  0  0  1  0  0  0  0  0  0
  187.5520  176.7710  143.3870 C   0  0  0  0  0  2  0  0  0  0  0  0
  1  4  1  0  0  0  0
  2 17  1  0  0  0  0
  3  9  1  0  0  0  0
  4 37  1  1  0  0  0
  4 12  1  0  0  0  0
  5 19  1  0  0  0  0
  6 22  2  0  0  0  0
  7  3  1  6  0  0  0
  7 21  1  0  0  0  0
  8 26  1  6  0  0  0
  8 12  1  0  0  0  0
  9 22  1  6  0  0  0
  9 13  1  0  0  0  0
 10  7  1  0  0  0  0
 10  5  1  1  0  0  0
 11 16  2  0  0  0  0
 11  6  1  0  0  0  0
 13 17  1  6  0  0  0
 13 27  1  0  0  0  0
 14  2  1  0  0  0  0
 15 20  1  0  0  0  0
 15 28  1  0  0  0  0
 16 20  1  0  0  0  0
 18  8  1  0  0  0  0
 19 25  1  0  0  0  0
 19 18  1  0  0  0  0
 20  3  2  0  0  0  0
 21 27  1  0  0  0  0
 21 25  1  0  0  0  0
 22  2  1  0  0  0  0
 23 30  1  0  0  0  0
 23 10  1  0  0  0  0
 24  2  1  0  0  0  0
 25 18  1  0  0  0  0
 27  1  1  0  0  0  0
 28 23  1  0  0  0  0
 29 35  1  0  0  0  0
 30 29  2  0  0  0  0
 31 34  2  0  0  0  0
 31 30  1  0  0  0  0
 32 34  1  0  0  0  0
 33 35  2  0  0  0  0
 34 33  1  0  0  0  0
 37 36  1  0  0  0  0
M  END
>  <MODEL>
9

>  <REMARK>
 VINA RESULT:      -6.4      3.903      6.552
  Name = 
  2 active torsions:
  status: ('A' for Active; 'I' for Inactive)
    1  A    between atoms: C_5  and  C_23
    2  A    between atoms: C_6  and  C_31
                            x       y       z     vdW  Elec       q    Type
                         _______ _______ _______ _____ _____    ______ ____

>  <TORSDO>
F 2

$$$$
