=
 OpenBabel11052413293D

 28 32  0  0  0  0  0  0  0  0999 V2000
  189.7280  176.8730  142.6120 N   0  0  0  0  0  0  0  0  0  0  0  0
  184.6900  178.3360  142.6550 C   0  0  0  0  0  3  0  0  0  0  0  0
  188.8810  177.6000  147.4290 C   0  0  0  0  0  1  0  0  0  0  0  0
  184.3690  178.6830  145.0730 C   0  0  0  0  0  0  0  0  0  0  0  0
  186.5780  177.9510  144.3560 C   0  0  0  0  0  0  0  0  0  0  0  0
  182.5040  179.0680  143.4150 C   0  0  0  0  0  0  0  0  0  0  0  0
  185.1810  178.3340  144.0500 C   0  0  0  0  0  0  0  0  0  0  0  0
  186.1730  178.3220  146.7120 C   0  0  0  0  0  3  0  0  0  0  0  0
  182.9310  179.0870  144.8560 C   0  0  0  0  0  2  0  0  0  0  0  0
  189.2880  177.2370  144.9730 C   0  0  0  0  0  0  0  0  0  0  0  0
  187.4340  177.5940  143.3960 C   0  0  0  0  0  3  0  0  0  0  0  0
  184.8550  178.6780  146.3910 O   0  0  0  0  0  0  0  0  0  0  0  0
  191.6440  177.0310  144.1030 C   0  0  0  0  0  2  0  0  0  0  0  0
  188.3970  177.5980  146.0510 N   0  0  0  0  0  0  0  0  0  0  0  0
  190.7060  176.8140  145.2840 C   0  0  0  0  0  2  0  0  0  0  0  0
  181.3260  179.3910  143.1150 O   0  0  0  0  0  0  0  0  0  0  0  0
  183.4400  178.6790  142.3560 C   0  0  0  0  0  3  0  0  0  0  0  0
  187.0370  177.9660  145.7550 C   0  0  0  0  0  0  0  0  0  0  0  0
  191.0570  176.3350  142.8880 C   0  0  0  0  0  2  0  0  0  0  0  0
  188.8360  177.2160  143.6950 C   0  0  0  0  0  0  0  0  0  0  0  0
  189.3810  177.1700  141.2280 C   0  0  0  0  0  2  0  0  0  0  0  0
  190.5600  176.9560  140.3390 C   0  0  0  0  0  0  0  0  0  0  0  0
  192.7550  176.6000  138.6410 C   0  0  0  0  0  0  0  0  0  0  0  0
  191.7800  177.5750  140.6320 C   0  0  0  0  0  3  0  0  0  0  0  0
  190.4370  176.1660  139.1910 C   0  0  0  0  0  3  0  0  0  0  0  0
  191.5340  175.9860  138.3440 C   0  0  0  0  0  3  0  0  0  0  0  0
  193.8180  176.4260  137.8200 F   0  0  0  0  0  0  0  0  0  0  0  0
  192.8780  177.3950  139.7850 C   0  0  0  0  0  3  0  0  0  0  0  0
  1 19  1  0  0  0  0
  1 20  1  0  0  0  0
  2  7  1  0  0  0  0
  4 12  1  0  0  0  0
  5 18  1  0  0  0  0
  6  9  1  0  0  0  0
  7  5  1  0  0  0  0
  7  4  2  0  0  0  0
  9  4  1  0  0  0  0
 10 15  1  0  0  0  0
 10 14  1  0  0  0  0
 11 20  1  0  0  0  0
 11  5  2  0  0  0  0
 12  8  1  0  0  0  0
 13 15  1  0  0  0  0
 14  3  1  0  0  0  0
 16  6  2  0  0  0  0
 17  2  2  0  0  0  0
 17  6  1  0  0  0  0
 18 14  1  0  0  0  0
 18  8  2  0  0  0  0
 19 13  1  0  0  0  0
 20 10  2  0  0  0  0
 21  1  1  0  0  0  0
 22 24  1  0  0  0  0
 22 21  1  0  0  0  0
 23 28  1  0  0  0  0
 25 22  2  0  0  0  0
 26 23  2  0  0  0  0
 26 25  1  0  0  0  0
 27 23  1  0  0  0  0
 28 24  2  0  0  0  0
M  END
>  <MODEL>
1

>  <REMARK>
 VINA RESULT:     -10.6      0.000      0.000
  Name = 
  2 active torsions:
  status: ('A' for Active; 'I' for Inactive)
    1  A    between atoms: N_1  and  C_2
    2  A    between atoms: C_2  and  C_3
                            x       y       z     vdW  Elec       q    Type
                         _______ _______ _______ _____ _____    ______ ____

>  <TORSDO>
F 2

$$$$
=
 OpenBabel11052413293D

 28 32  0  0  0  0  0  0  0  0999 V2000
  187.3570  178.1850  140.8710 N   0  0  0  0  0  0  0  0  0  0  0  0
  190.5500  177.0360  144.8720 C   0  0  0  0  0  3  0  0  0  0  0  0
  184.3750  178.6980  144.7810 C   0  0  0  0  0  1  0  0  0  0  0  0
  188.9840  177.3060  146.7550 C   0  0  0  0  0  0  0  0  0  0  0  0
  188.0980  177.7270  144.5270 C   0  0  0  0  0  0  0  0  0  0  0  0
  191.3890  176.6240  147.1120 C   0  0  0  0  0  0  0  0  0  0  0  0
  189.2150  177.3530  145.4240 C   0  0  0  0  0  0  0  0  0  0  0  0
  186.6310  177.9620  146.4350 C   0  0  0  0  0  3  0  0  0  0  0  0
  190.0620  176.9350  147.7440 C   0  0  0  0  0  2  0  0  0  0  0  0
  185.9120  178.4300  142.8060 C   0  0  0  0  0  0  0  0  0  0  0  0
  188.2540  177.7950  143.2030 C   0  0  0  0  0  3  0  0  0  0  0  0
  187.7080  177.6070  147.2600 O   0  0  0  0  0  0  0  0  0  0  0  0
  184.9590  178.2970  140.4770 C   0  0  0  0  0  2  0  0  0  0  0  0
  185.6930  178.3880  144.2340 N   0  0  0  0  0  0  0  0  0  0  0  0
  184.7820  178.8430  141.8900 C   0  0  0  0  0  2  0  0  0  0  0  0
  192.3610  176.2990  147.8410 O   0  0  0  0  0  0  0  0  0  0  0  0
  191.5670  176.6950  145.6590 C   0  0  0  0  0  3  0  0  0  0  0  0
  186.7790  178.0300  145.1080 C   0  0  0  0  0  0  0  0  0  0  0  0
  186.3310  178.7050  139.9710 C   0  0  0  0  0  2  0  0  0  0  0  0
  187.1390  178.1630  142.2980 C   0  0  0  0  0  0  0  0  0  0  0  0
  188.5440  177.5770  140.2800 C   0  0  0  0  0  2  0  0  0  0  0  0
  188.4900  177.6730  138.7930 C   0  0  0  0  0  0  0  0  0  0  0  0
  188.4430  177.8290  135.9990 C   0  0  0  0  0  0  0  0  0  0  0  0
  187.9590  176.6190  138.0410 C   0  0  0  0  0  3  0  0  0  0  0  0
  189.0070  178.8000  138.1440 C   0  0  0  0  0  3  0  0  0  0  0  0
  188.9810  178.8790  136.7490 C   0  0  0  0  0  3  0  0  0  0  0  0
  188.4180  177.9050  134.6470 F   0  0  0  0  0  0  0  0  0  0  0  0
  187.9330  176.6980  136.6450 C   0  0  0  0  0  3  0  0  0  0  0  0
  1 20  1  0  0  0  0
  2  7  1  0  0  0  0
  2 17  2  0  0  0  0
  4 12  1  0  0  0  0
  4  9  1  0  0  0  0
  5 18  1  0  0  0  0
  5  7  1  0  0  0  0
  6  9  1  0  0  0  0
  6 16  2  0  0  0  0
  7  4  2  0  0  0  0
  8 12  1  0  0  0  0
 10 14  1  0  0  0  0
 11  5  2  0  0  0  0
 13 15  1  0  0  0  0
 14  3  1  0  0  0  0
 14 18  1  0  0  0  0
 15 10  1  0  0  0  0
 17  6  1  0  0  0  0
 18  8  2  0  0  0  0
 19 13  1  0  0  0  0
 19  1  1  0  0  0  0
 20 10  2  0  0  0  0
 20 11  1  0  0  0  0
 21  1  1  0  0  0  0
 22 21  1  0  0  0  0
 23 28  2  0  0  0  0
 23 26  1  0  0  0  0
 24 22  2  0  0  0  0
 25 22  1  0  0  0  0
 26 25  2  0  0  0  0
 27 23  1  0  0  0  0
 28 24  1  0  0  0  0
M  END
>  <MODEL>
2

>  <REMARK>
 VINA RESULT:     -10.2      2.916      5.603
  Name = 
  2 active torsions:
  status: ('A' for Active; 'I' for Inactive)
    1  A    between atoms: N_1  and  C_2
    2  A    between atoms: C_2  and  C_3
                            x       y       z     vdW  Elec       q    Type
                         _______ _______ _______ _____ _____    ______ ____

>  <TORSDO>
F 2

$$$$
=
 OpenBabel11052413293D

 28 32  0  0  0  0  0  0  0  0999 V2000
  189.8730  177.7020  140.3950 N   0  0  0  0  0  0  0  0  0  0  0  0
  185.6190  178.6010  143.3320 C   0  0  0  0  0  3  0  0  0  0  0  0
  191.4810  176.6160  144.9430 C   0  0  0  0  0  1  0  0  0  0  0  0
  186.5160  178.0480  145.5590 C   0  0  0  0  0  0  0  0  0  0  0  0
  188.0420  177.8150  143.6760 C   0  0  0  0  0  0  0  0  0  0  0  0
  184.1350  178.8210  145.2390 C   0  0  0  0  0  0  0  0  0  0  0  0
  186.7100  178.1540  144.2260 C   0  0  0  0  0  0  0  0  0  0  0  0
  188.8390  177.2990  145.9000 C   0  0  0  0  0  3  0  0  0  0  0  0
  185.1930  178.3720  146.2070 C   0  0  0  0  0  2  0  0  0  0  0  0
  190.6400  177.1750  142.6380 C   0  0  0  0  0  0  0  0  0  0  0  0
  188.3040  177.8950  142.3690 C   0  0  0  0  0  3  0  0  0  0  0  0
  187.5660  177.6250  146.3910 O   0  0  0  0  0  0  0  0  0  0  0  0
  192.2720  177.4980  140.7450 C   0  0  0  0  0  2  0  0  0  0  0  0
  190.4050  177.0540  144.0590 N   0  0  0  0  0  0  0  0  0  0  0  0
  191.9890  176.7990  142.0700 C   0  0  0  0  0  2  0  0  0  0  0  0
  182.9910  179.1230  145.6680 O   0  0  0  0  0  0  0  0  0  0  0  0
  184.4150  178.9130  143.8030 C   0  0  0  0  0  3  0  0  0  0  0  0
  189.1090  177.3790  144.5930 C   0  0  0  0  0  0  0  0  0  0  0  0
  191.1160  177.2240  139.7990 C   0  0  0  0  0  2  0  0  0  0  0  0
  189.6370  177.5620  141.8130 C   0  0  0  0  0  0  0  0  0  0  0  0
  188.9410  178.4340  139.5450 C   0  0  0  0  0  2  0  0  0  0  0  0
  188.7780  177.7390  138.2350 C   0  0  0  0  0  0  0  0  0  0  0  0
  188.5250  176.4160  135.7830 C   0  0  0  0  0  0  0  0  0  0  0  0
  188.2720  176.4350  138.1910 C   0  0  0  0  0  3  0  0  0  0  0  0
  189.1650  178.3770  137.0510 C   0  0  0  0  0  3  0  0  0  0  0  0
  189.0370  177.7170  135.8260 C   0  0  0  0  0  3  0  0  0  0  0  0
  188.4010  175.7770  134.5950 F   0  0  0  0  0  0  0  0  0  0  0  0
  188.1430  175.7750  136.9650 C   0  0  0  0  0  3  0  0  0  0  0  0
  1 20  1  0  0  0  0
  2 17  2  0  0  0  0
  2  7  1  0  0  0  0
  4  9  1  0  0  0  0
  4 12  1  0  0  0  0
  5  7  1  0  0  0  0
  5 18  1  0  0  0  0
  6 16  2  0  0  0  0
  6  9  1  0  0  0  0
  7  4  2  0  0  0  0
  8 12  1  0  0  0  0
 10 14  1  0  0  0  0
 11  5  2  0  0  0  0
 13 15  1  0  0  0  0
 14 18  1  0  0  0  0
 14  3  1  0  0  0  0
 15 10  1  0  0  0  0
 17  6  1  0  0  0  0
 18  8  2  0  0  0  0
 19  1  1  0  0  0  0
 19 13  1  0  0  0  0
 20 11  1  0  0  0  0
 20 10  2  0  0  0  0
 21  1  1  0  0  0  0
 22 21  1  0  0  0  0
 23 26  2  0  0  0  0
 23 28  1  0  0  0  0
 24 22  1  0  0  0  0
 25 22  2  0  0  0  0
 26 25  1  0  0  0  0
 27 23  1  0  0  0  0
 28 24  2  0  0  0  0
M  END
>  <MODEL>
3

>  <REMARK>
 VINA RESULT:     -10.0      2.252      3.244
  Name = 
  2 active torsions:
  status: ('A' for Active; 'I' for Inactive)
    1  A    between atoms: N_1  and  C_2
    2  A    between atoms: C_2  and  C_3
                            x       y       z     vdW  Elec       q    Type
                         _______ _______ _______ _____ _____    ______ ____

>  <TORSDO>
F 2

$$$$
=
 OpenBabel11052413293D

 28 32  0  0  0  0  0  0  0  0999 V2000
  186.8520  178.4240  140.4590 N   0  0  0  0  0  0  0  0  0  0  0  0
  187.2520  177.9980  145.6730 C   0  0  0  0  0  3  0  0  0  0  0  0
  191.5530  177.0080  141.0440 C   0  0  0  0  0  1  0  0  0  0  0  0
  189.6090  177.3060  145.8630 C   0  0  0  0  0  0  0  0  0  0  0  0
  188.7530  177.6710  143.6120 C   0  0  0  0  0  0  0  0  0  0  0  0
  188.1490  177.6260  147.8970 C   0  0  0  0  0  0  0  0  0  0  0  0
  188.5620  177.6490  145.0800 C   0  0  0  0  0  0  0  0  0  0  0  0
  191.0580  176.9950  143.8940 C   0  0  0  0  0  3  0  0  0  0  0  0
  189.5060  177.2570  147.3670 C   0  0  0  0  0  2  0  0  0  0  0  0
  189.1580  177.7290  140.7720 C   0  0  0  0  0  0  0  0  0  0  0  0
  187.7630  177.9980  142.7790 C   0  0  0  0  0  3  0  0  0  0  0  0
  190.8450  176.9810  145.2810 O   0  0  0  0  0  0  0  0  0  0  0  0
  188.3640  178.6540  138.5670 C   0  0  0  0  0  2  0  0  0  0  0  0
  190.2590  177.3500  141.6270 N   0  0  0  0  0  0  0  0  0  0  0  0
  189.3410  177.7200  139.2710 C   0  0  0  0  0  2  0  0  0  0  0  0
  187.9480  177.6240  149.1390 O   0  0  0  0  0  0  0  0  0  0  0  0
  187.0570  177.9880  146.9890 C   0  0  0  0  0  3  0  0  0  0  0  0
  190.0720  177.3240  143.0540 C   0  0  0  0  0  0  0  0  0  0  0  0
  186.9550  178.3000  139.0080 C   0  0  0  0  0  2  0  0  0  0  0  0
  187.9500  178.0270  141.3090 C   0  0  0  0  0  0  0  0  0  0  0  0
  185.6690  179.0740  141.0100 C   0  0  0  0  0  2  0  0  0  0  0  0
  184.4530  178.6760  140.2440 C   0  0  0  0  0  0  0  0  0  0  0  0
  182.1400  177.9580  138.8430 C   0  0  0  0  0  0  0  0  0  0  0  0
  184.0000  179.4700  139.1850 C   0  0  0  0  0  3  0  0  0  0  0  0
  183.7420  177.5260  140.6070 C   0  0  0  0  0  3  0  0  0  0  0  0
  182.5880  177.1660  139.9050 C   0  0  0  0  0  3  0  0  0  0  0  0
  181.0210  177.6090  138.1640 F   0  0  0  0  0  0  0  0  0  0  0  0
  182.8450  179.1100  138.4830 C   0  0  0  0  0  3  0  0  0  0  0  0
  1 21  1  0  0  0  0
  1 20  1  0  0  0  0
  2 17  2  0  0  0  0
  3 14  1  0  0  0  0
  4  9  1  0  0  0  0
  5  7  1  0  0  0  0
  6 16  2  0  0  0  0
  7  2  1  0  0  0  0
  7  4  2  0  0  0  0
  8 12  1  0  0  0  0
  9  6  1  0  0  0  0
 10 20  2  0  0  0  0
 10 14  1  0  0  0  0
 11  5  2  0  0  0  0
 12  4  1  0  0  0  0
 13 19  1  0  0  0  0
 13 15  1  0  0  0  0
 14 18  1  0  0  0  0
 15 10  1  0  0  0  0
 17  6  1  0  0  0  0
 18  5  1  0  0  0  0
 18  8  2  0  0  0  0
 19  1  1  0  0  0  0
 20 11  1  0  0  0  0
 22 25  1  0  0  0  0
 22 21  1  0  0  0  0
 23 26  1  0  0  0  0
 24 22  2  0  0  0  0
 26 25  2  0  0  0  0
 27 23  1  0  0  0  0
 28 23  2  0  0  0  0
 28 24  1  0  0  0  0
M  END
>  <MODEL>
4

>  <REMARK>
 VINA RESULT:      -9.8      3.698      6.688
  Name = 
  2 active torsions:
  status: ('A' for Active; 'I' for Inactive)
    1  A    between atoms: N_1  and  C_2
    2  A    between atoms: C_2  and  C_3
                            x       y       z     vdW  Elec       q    Type
                         _______ _______ _______ _____ _____    ______ ____

>  <TORSDO>
F 2

$$$$
=
 OpenBabel11052413293D

 28 32  0  0  0  0  0  0  0  0999 V2000
  189.7900  177.6950  140.1230 N   0  0  0  0  0  0  0  0  0  0  0  0
  184.9800  178.7080  141.9570 C   0  0  0  0  0  3  0  0  0  0  0  0
  190.2890  176.7820  144.9560 C   0  0  0  0  0  1  0  0  0  0  0  0
  185.3300  178.2400  144.3500 C   0  0  0  0  0  0  0  0  0  0  0  0
  187.2490  177.9340  142.8820 C   0  0  0  0  0  0  0  0  0  0  0  0
  183.0960  179.0030  143.4580 C   0  0  0  0  0  0  0  0  0  0  0  0
  185.8290  178.2950  143.0950 C   0  0  0  0  0  0  0  0  0  0  0  0
  187.5030  177.5030  145.2490 C   0  0  0  0  0  3  0  0  0  0  0  0
  183.8960  178.5900  144.6600 C   0  0  0  0  0  2  0  0  0  0  0  0
  190.0110  177.2530  142.5000 C   0  0  0  0  0  0  0  0  0  0  0  0
  187.8070  177.9640  141.6700 C   0  0  0  0  0  3  0  0  0  0  0  0
  186.1540  177.8480  145.4180 O   0  0  0  0  0  0  0  0  0  0  0  0
  192.0400  177.5030  141.0270 C   0  0  0  0  0  2  0  0  0  0  0  0
  189.4520  177.1870  143.8310 N   0  0  0  0  0  0  0  0  0  0  0  0
  191.4510  176.8540  142.2750 C   0  0  0  0  0  2  0  0  0  0  0  0
  181.8870  179.3210  143.5980 O   0  0  0  0  0  0  0  0  0  0  0  0
  183.7020  179.0390  142.1240 C   0  0  0  0  0  3  0  0  0  0  0  0
  188.0700  177.5330  144.0380 C   0  0  0  0  0  0  0  0  0  0  0  0
  191.1330  177.1930  139.8490 C   0  0  0  0  0  2  0  0  0  0  0  0
  189.2300  177.6100  141.4510 C   0  0  0  0  0  0  0  0  0  0  0  0
  189.0870  178.3940  139.0530 C   0  0  0  0  0  2  0  0  0  0  0  0
  188.2110  177.4500  138.3020 C   0  0  0  0  0  0  0  0  0  0  0  0
  186.5840  175.7000  136.8450 C   0  0  0  0  0  0  0  0  0  0  0  0
  188.7050  176.2030  137.9000 C   0  0  0  0  0  3  0  0  0  0  0  0
  186.9050  177.8230  137.9660 C   0  0  0  0  0  3  0  0  0  0  0  0
  186.0910  176.9480  137.2390 C   0  0  0  0  0  3  0  0  0  0  0  0
  185.7960  174.8530  136.1410 F   0  0  0  0  0  0  0  0  0  0  0  0
  187.8910  175.3280  137.1740 C   0  0  0  0  0  3  0  0  0  0  0  0
  1 20  1  0  0  0  0
  2 17  2  0  0  0  0
  2  7  1  0  0  0  0
  4  9  1  0  0  0  0
  4 12  1  0  0  0  0
  5  7  1  0  0  0  0
  5 18  1  0  0  0  0
  6 16  2  0  0  0  0
  6  9  1  0  0  0  0
  7  4  2  0  0  0  0
  8 12  1  0  0  0  0
 10 14  1  0  0  0  0
 11  5  2  0  0  0  0
 13 15  1  0  0  0  0
 14 18  1  0  0  0  0
 14  3  1  0  0  0  0
 15 10  1  0  0  0  0
 17  6  1  0  0  0  0
 18  8  2  0  0  0  0
 19  1  1  0  0  0  0
 19 13  1  0  0  0  0
 20 11  1  0  0  0  0
 20 10  2  0  0  0  0
 21  1  1  0  0  0  0
 22 21  1  0  0  0  0
 23 28  2  0  0  0  0
 23 26  1  0  0  0  0
 24 22  2  0  0  0  0
 25 22  1  0  0  0  0
 26 25  2  0  0  0  0
 27 23  1  0  0  0  0
 28 24  1  0  0  0  0
M  END
>  <MODEL>
5

>  <REMARK>
 VINA RESULT:      -9.7      2.566      3.373
  Name = 
  2 active torsions:
  status: ('A' for Active; 'I' for Inactive)
    1  A    between atoms: N_1  and  C_2
    2  A    between atoms: C_2  and  C_3
                            x       y       z     vdW  Elec       q    Type
                         _______ _______ _______ _____ _____    ______ ____

>  <TORSDO>
F 2

$$$$
=
 OpenBabel11052413293D

 28 32  0  0  0  0  0  0  0  0999 V2000
  186.6330  178.3690  138.6690 N   0  0  0  0  0  0  0  0  0  0  0  0
  185.2570  178.4840  143.7310 C   0  0  0  0  0  3  0  0  0  0  0  0
  190.8840  177.2720  140.9430 C   0  0  0  0  0  1  0  0  0  0  0  0
  187.4230  177.9420  144.7720 C   0  0  0  0  0  0  0  0  0  0  0  0
  187.3710  178.0350  142.3390 C   0  0  0  0  0  0  0  0  0  0  0  0
  185.3580  178.3840  146.1540 C   0  0  0  0  0  0  0  0  0  0  0  0
  186.6960  178.1490  143.6520 C   0  0  0  0  0  0  0  0  0  0  0  0
  189.4570  177.5150  143.4470 C   0  0  0  0  0  3  0  0  0  0  0  0
  186.8200  178.0370  146.1510 C   0  0  0  0  0  2  0  0  0  0  0  0
  188.7090  177.8330  139.8090 C   0  0  0  0  0  0  0  0  0  0  0  0
  186.7140  178.2250  141.1930 C   0  0  0  0  0  3  0  0  0  0  0  0
  188.7890  177.6280  144.6750 O   0  0  0  0  0  0  0  0  0  0  0  0
  188.6900  178.4910  137.3760 C   0  0  0  0  0  2  0  0  0  0  0  0
  189.4630  177.6010  141.0190 N   0  0  0  0  0  0  0  0  0  0  0  0
  189.3880  177.6860  138.4650 C   0  0  0  0  0  2  0  0  0  0  0  0
  184.7490  178.4940  147.2490 O   0  0  0  0  0  0  0  0  0  0  0  0
  184.6300  178.5950  144.8990 C   0  0  0  0  0  3  0  0  0  0  0  0
  188.8060  177.7060  142.2950 C   0  0  0  0  0  0  0  0  0  0  0  0
  187.2210  178.1070  137.3590 C   0  0  0  0  0  2  0  0  0  0  0  0
  187.3860  178.1180  139.8760 C   0  0  0  0  0  0  0  0  0  0  0  0
  185.3220  179.0060  138.7180 C   0  0  0  0  0  2  0  0  0  0  0  0
  184.2610  177.9920  138.9860 C   0  0  0  0  0  0  0  0  0  0  0  0
  182.2340  176.1220  139.4590 C   0  0  0  0  0  0  0  0  0  0  0  0
  184.0710  176.9260  138.1000 C   0  0  0  0  0  3  0  0  0  0  0  0
  183.4300  178.1270  140.1030 C   0  0  0  0  0  3  0  0  0  0  0  0
  182.4180  177.1920  140.3410 C   0  0  0  0  0  3  0  0  0  0  0  0
  181.2540  175.2160  139.6890 F   0  0  0  0  0  0  0  0  0  0  0  0
  183.0600  175.9900  138.3380 C   0  0  0  0  0  3  0  0  0  0  0  0
  1 21  1  0  0  0  0
  1 20  1  0  0  0  0
  2 17  2  0  0  0  0
  3 14  1  0  0  0  0
  4  9  1  0  0  0  0
  5  7  1  0  0  0  0
  6 16  2  0  0  0  0
  7  2  1  0  0  0  0
  7  4  2  0  0  0  0
  8 12  1  0  0  0  0
  9  6  1  0  0  0  0
 10 20  2  0  0  0  0
 10 14  1  0  0  0  0
 11  5  2  0  0  0  0
 12  4  1  0  0  0  0
 13 15  1  0  0  0  0
 14 18  1  0  0  0  0
 15 10  1  0  0  0  0
 17  6  1  0  0  0  0
 18  5  1  0  0  0  0
 18  8  2  0  0  0  0
 19 13  1  0  0  0  0
 19  1  1  0  0  0  0
 20 11  1  0  0  0  0
 21 22  1  0  0  0  0
 22 25  1  0  0  0  0
 23 27  1  0  0  0  0
 23 26  1  0  0  0  0
 24 28  1  0  0  0  0
 24 22  2  0  0  0  0
 25 26  2  0  0  0  0
 28 23  2  0  0  0  0
M  END
>  <MODEL>
6

>  <REMARK>
 VINA RESULT:      -9.5      3.646      6.277
  Name = 
  2 active torsions:
  status: ('A' for Active; 'I' for Inactive)
    1  A    between atoms: N_1  and  C_2
    2  A    between atoms: C_2  and  C_3
                            x       y       z     vdW  Elec       q    Type
                         _______ _______ _______ _____ _____    ______ ____

>  <TORSDO>
F 2

$$$$
=
 OpenBabel11052413293D

 28 32  0  0  0  0  0  0  0  0999 V2000
  189.8460  177.8910  139.7970 N   0  0  0  0  0  0  0  0  0  0  0  0
  191.3250  176.8130  144.7130 C   0  0  0  0  0  3  0  0  0  0  0  0
  185.6290  178.4540  142.3150 C   0  0  0  0  0  1  0  0  0  0  0  0
  189.1750  177.1060  145.8780 C   0  0  0  0  0  0  0  0  0  0  0  0
  189.1780  177.4900  143.4740 C   0  0  0  0  0  0  0  0  0  0  0  0
  191.2730  176.4370  147.1110 C   0  0  0  0  0  0  0  0  0  0  0  0
  189.8820  177.1340  144.7270 C   0  0  0  0  0  0  0  0  0  0  0  0
  187.1090  177.7510  144.6990 C   0  0  0  0  0  3  0  0  0  0  0  0
  189.8070  176.7540  147.2010 C   0  0  0  0  0  2  0  0  0  0  0  0
  187.7870  178.1610  141.0550 C   0  0  0  0  0  0  0  0  0  0  0  0
  189.8140  177.5390  142.3010 C   0  0  0  0  0  3  0  0  0  0  0  0
  187.8030  177.4110  145.8690 O   0  0  0  0  0  0  0  0  0  0  0  0
  187.7650  177.9900  138.5410 C   0  0  0  0  0  2  0  0  0  0  0  0
  187.0550  178.1410  142.3000 N   0  0  0  0  0  0  0  0  0  0  0  0
  187.0790  178.5560  139.7790 C   0  0  0  0  0  2  0  0  0  0  0  0
  191.9050  176.1250  148.1530 O   0  0  0  0  0  0  0  0  0  0  0  0
  191.9780  176.4870  145.8260 C   0  0  0  0  0  3  0  0  0  0  0  0
  187.7390  177.7990  143.5200 C   0  0  0  0  0  0  0  0  0  0  0  0
  189.2280  178.3940  138.5730 C   0  0  0  0  0  2  0  0  0  0  0  0
  189.1150  177.8890  141.0420 C   0  0  0  0  0  0  0  0  0  0  0  0
  191.1650  177.2780  139.6970 C   0  0  0  0  0  2  0  0  0  0  0  0
  191.2260  176.3640  138.5200 C   0  0  0  0  0  0  0  0  0  0  0  0
  191.3690  174.6110  136.3440 C   0  0  0  0  0  0  0  0  0  0  0  0
  190.1980  175.4420  138.2940 C   0  0  0  0  0  3  0  0  0  0  0  0
  192.3300  176.4010  137.6610 C   0  0  0  0  0  3  0  0  0  0  0  0
  192.4010  175.5270  136.5720 C   0  0  0  0  0  3  0  0  0  0  0  0
  191.4370  173.7640  135.2890 F   0  0  0  0  0  0  0  0  0  0  0  0
  190.2680  174.5680  137.2050 C   0  0  0  0  0  3  0  0  0  0  0  0
  1 20  1  0  0  0  0
  2  7  1  0  0  0  0
  2 17  2  0  0  0  0
  4  9  1  0  0  0  0
  5 18  1  0  0  0  0
  5  7  1  0  0  0  0
  6  9  1  0  0  0  0
  6 16  2  0  0  0  0
  7  4  2  0  0  0  0
  8 12  1  0  0  0  0
 10 14  1  0  0  0  0
 11  5  2  0  0  0  0
 12  4  1  0  0  0  0
 13 19  1  0  0  0  0
 13 15  1  0  0  0  0
 14  3  1  0  0  0  0
 14 18  1  0  0  0  0
 15 10  1  0  0  0  0
 17  6  1  0  0  0  0
 18  8  2  0  0  0  0
 19  1  1  0  0  0  0
 20 10  2  0  0  0  0
 20 11  1  0  0  0  0
 21  1  1  0  0  0  0
 22 21  1  0  0  0  0
 23 26  2  0  0  0  0
 23 28  1  0  0  0  0
 24 22  1  0  0  0  0
 25 22  2  0  0  0  0
 26 25  1  0  0  0  0
 27 23  1  0  0  0  0
 28 24  2  0  0  0  0
M  END
>  <MODEL>
7

>  <REMARK>
 VINA RESULT:      -9.4      2.489      5.420
  Name = 
  2 active torsions:
  status: ('A' for Active; 'I' for Inactive)
    1  A    between atoms: N_1  and  C_2
    2  A    between atoms: C_2  and  C_3
                            x       y       z     vdW  Elec       q    Type
                         _______ _______ _______ _____ _____    ______ ____

>  <TORSDO>
F 2

$$$$
=
 OpenBabel11052413293D

 28 32  0  0  0  0  0  0  0  0999 V2000
  189.5830  177.7120  139.3880 N   0  0  0  0  0  0  0  0  0  0  0  0
  189.2050  177.3180  144.6060 C   0  0  0  0  0  3  0  0  0  0  0  0
  184.8320  178.8220  140.1880 C   0  0  0  0  0  1  0  0  0  0  0  0
  186.8230  177.8720  144.9020 C   0  0  0  0  0  0  0  0  0  0  0  0
  187.6760  177.8930  142.6220 C   0  0  0  0  0  0  0  0  0  0  0  0
  188.3100  177.3070  146.8620 C   0  0  0  0  0  0  0  0  0  0  0  0
  187.8770  177.6980  144.0750 C   0  0  0  0  0  0  0  0  0  0  0  0
  185.3470  178.4200  143.0060 C   0  0  0  0  0  3  0  0  0  0  0  0
  186.9350  177.6950  146.3960 C   0  0  0  0  0  2  0  0  0  0  0  0
  187.2530  178.2530  139.8060 C   0  0  0  0  0  0  0  0  0  0  0  0
  188.6730  177.7390  141.7470 C   0  0  0  0  0  3  0  0  0  0  0  0
  185.5690  178.2300  144.3780 O   0  0  0  0  0  0  0  0  0  0  0  0
  188.0680  177.7100  137.4850 C   0  0  0  0  0  2  0  0  0  0  0  0
  186.1440  178.4490  140.7110 N   0  0  0  0  0  0  0  0  0  0  0  0
  187.0580  178.4830  138.3250 C   0  0  0  0  0  2  0  0  0  0  0  0
  188.5200  177.1280  148.0890 O   0  0  0  0  0  0  0  0  0  0  0  0
  189.4090  177.1340  145.9080 C   0  0  0  0  0  3  0  0  0  0  0  0
  186.3400  178.2650  142.1250 C   0  0  0  0  0  0  0  0  0  0  0  0
  189.4640  178.0520  137.9730 C   0  0  0  0  0  2  0  0  0  0  0  0
  188.4760  177.9270  140.2900 C   0  0  0  0  0  0  0  0  0  0  0  0
  190.7960  177.0360  139.8320 C   0  0  0  0  0  2  0  0  0  0  0  0
  191.4440  176.3280  138.6900 C   0  0  0  0  0  0  0  0  0  0  0  0
  192.6330  175.0350  136.5120 C   0  0  0  0  0  0  0  0  0  0  0  0
  192.6930  176.7500  138.2200 C   0  0  0  0  0  3  0  0  0  0  0  0
  190.7870  175.2640  138.0630 C   0  0  0  0  0  3  0  0  0  0  0  0
  191.3820  174.6160  136.9760 C   0  0  0  0  0  3  0  0  0  0  0  0
  193.2090  174.4080  135.4590 F   0  0  0  0  0  0  0  0  0  0  0  0
  193.2880  176.1030  137.1340 C   0  0  0  0  0  3  0  0  0  0  0  0
  1 21  1  0  0  0  0
  1 20  1  0  0  0  0
  2 17  2  0  0  0  0
  3 14  1  0  0  0  0
  4  9  1  0  0  0  0
  5  7  1  0  0  0  0
  6 16  2  0  0  0  0
  7  2  1  0  0  0  0
  7  4  2  0  0  0  0
  8 12  1  0  0  0  0
  9  6  1  0  0  0  0
 10 20  2  0  0  0  0
 10 14  1  0  0  0  0
 11  5  2  0  0  0  0
 12  4  1  0  0  0  0
 13 19  1  0  0  0  0
 13 15  1  0  0  0  0
 14 18  1  0  0  0  0
 15 10  1  0  0  0  0
 17  6  1  0  0  0  0
 18  5  1  0  0  0  0
 18  8  2  0  0  0  0
 19  1  1  0  0  0  0
 20 11  1  0  0  0  0
 22 21  1  0  0  0  0
 23 26  2  0  0  0  0
 23 28  1  0  0  0  0
 24 22  1  0  0  0  0
 25 22  2  0  0  0  0
 26 25  1  0  0  0  0
 27 23  1  0  0  0  0
 28 24  2  0  0  0  0
M  END
>  <MODEL>
8

>  <REMARK>
 VINA RESULT:      -9.4      2.227      4.783
  Name = 
  2 active torsions:
  status: ('A' for Active; 'I' for Inactive)
    1  A    between atoms: N_1  and  C_2
    2  A    between atoms: C_2  and  C_3
                            x       y       z     vdW  Elec       q    Type
                         _______ _______ _______ _____ _____    ______ ____

>  <TORSDO>
F 2

$$$$
=
 OpenBabel11052413293D

 28 32  0  0  0  0  0  0  0  0999 V2000
  189.2000  177.3280  140.7720 N   0  0  0  0  0  0  0  0  0  0  0  0
  184.2640  178.5380  142.0730 C   0  0  0  0  0  3  0  0  0  0  0  0
  189.3520  177.2110  145.7130 C   0  0  0  0  0  1  0  0  0  0  0  0
  184.4420  178.4660  144.5290 C   0  0  0  0  0  0  0  0  0  0  0  0
  186.4640  177.9620  143.2700 C   0  0  0  0  0  0  0  0  0  0  0  0
  182.2740  179.0360  143.3700 C   0  0  0  0  0  0  0  0  0  0  0  0
  185.0310  178.3280  143.3210 C   0  0  0  0  0  0  0  0  0  0  0  0
  186.5480  177.9200  145.6870 C   0  0  0  0  0  3  0  0  0  0  0  0
  182.9870  178.8360  144.6770 C   0  0  0  0  0  2  0  0  0  0  0  0
  189.2500  177.2770  143.2000 C   0  0  0  0  0  0  0  0  0  0  0  0
  187.1090  177.8070  142.1120 C   0  0  0  0  0  3  0  0  0  0  0  0
  185.1890  178.2650  145.7020 O   0  0  0  0  0  0  0  0  0  0  0  0
  191.3800  177.3220  141.8530 C   0  0  0  0  0  2  0  0  0  0  0  0
  188.5960  177.4150  144.4800 N   0  0  0  0  0  0  0  0  0  0  0  0
  190.7060  176.8730  143.1440 C   0  0  0  0  0  2  0  0  0  0  0  0
  181.0560  179.3520  143.3710 O   0  0  0  0  0  0  0  0  0  0  0  0
  182.9760  178.8690  142.0940 C   0  0  0  0  0  3  0  0  0  0  0  0
  187.2010  177.7660  144.5300 C   0  0  0  0  0  0  0  0  0  0  0  0
  190.5630  176.8120  140.6800 C   0  0  0  0  0  2  0  0  0  0  0  0
  188.5460  177.4470  142.0540 C   0  0  0  0  0  0  0  0  0  0  0  0
  188.5740  177.8340  139.5570 C   0  0  0  0  0  2  0  0  0  0  0  0
  188.9810  177.0120  138.3810 C   0  0  0  0  0  0  0  0  0  0  0  0
  189.7790  175.4380  136.2090 C   0  0  0  0  0  0  0  0  0  0  0  0
  188.2340  175.8860  138.0190 C   0  0  0  0  0  3  0  0  0  0  0  0
  190.1340  177.3440  137.6600 C   0  0  0  0  0  3  0  0  0  0  0  0
  190.5310  176.5590  136.5740 C   0  0  0  0  0  3  0  0  0  0  0  0
  190.1640  174.6770  135.1570 F   0  0  0  0  0  0  0  0  0  0  0  0
  188.6310  175.1010  136.9320 C   0  0  0  0  0  3  0  0  0  0  0  0
  1 20  1  0  0  0  0
  2 17  2  0  0  0  0
  2  7  1  0  0  0  0
  4  9  1  0  0  0  0
  4 12  1  0  0  0  0
  5  7  1  0  0  0  0
  5 18  1  0  0  0  0
  6 16  2  0  0  0  0
  6  9  1  0  0  0  0
  7  4  2  0  0  0  0
  8 12  1  0  0  0  0
 10 14  1  0  0  0  0
 11  5  2  0  0  0  0
 13 15  1  0  0  0  0
 14 18  1  0  0  0  0
 14  3  1  0  0  0  0
 15 10  1  0  0  0  0
 17  6  1  0  0  0  0
 18  8  2  0  0  0  0
 19  1  1  0  0  0  0
 19 13  1  0  0  0  0
 20 11  1  0  0  0  0
 20 10  2  0  0  0  0
 21  1  1  0  0  0  0
 22 21  1  0  0  0  0
 23 26  2  0  0  0  0
 23 28  1  0  0  0  0
 24 22  1  0  0  0  0
 25 22  2  0  0  0  0
 26 25  1  0  0  0  0
 27 23  1  0  0  0  0
 28 24  2  0  0  0  0
M  END
>  <MODEL>
9

>  <REMARK>
 VINA RESULT:      -9.4      1.696      2.326
  Name = 
  2 active torsions:
  status: ('A' for Active; 'I' for Inactive)
    1  A    between atoms: N_1  and  C_2
    2  A    between atoms: C_2  and  C_3
                            x       y       z     vdW  Elec       q    Type
                         _______ _______ _______ _____ _____    ______ ____

>  <TORSDO>
F 2

$$$$
