=
 OpenBabel11052414223D

 34 38  0  0  1  0  0  0  0  0999 V2000
  189.9870  177.6570  146.6710 C   0  0  2  0  0  3  0  0  0  0  0  0
  187.5250  178.1930  147.0480 C   0  0  1  0  0  3  0  0  0  0  0  0
  188.4330  177.1170  144.8490 C   0  0  2  0  0  3  0  0  0  0  0  0
  189.0790  177.8760  149.0040 C   0  0  0  0  0  2  0  0  0  0  0  0
  189.3220  175.8740  142.5570 S   0  0  1  0  0  0  0  0  0  0  0  0
  189.7970  175.9210  139.9960 F   0  0  0  0  0  0  0  0  0  0  0  0
  187.7850  177.3920  148.3200 C   0  0  0  0  0  2  0  0  0  0  0  0
  186.0260  176.8950  145.4550 C   0  0  0  0  0  2  0  0  0  0  0  0
  190.7380  178.2930  139.8410 F   0  0  0  0  0  0  0  0  0  0  0  0
  188.6760  178.0920  146.0130 C   0  0  2  0  0  3  0  0  0  0  0  0
  191.8330  178.1320  141.7910 F   0  0  0  0  0  0  0  0  0  0  0  0
  190.1790  178.3260  148.0240 C   0  0  0  0  0  2  0  0  0  0  0  0
  189.5630  177.2180  143.7860 C   0  0  1  0  0  0  0  0  0  0  0  0
  190.3880  176.3430  141.1750 C   0  0  1  0  0  3  0  0  0  0  0  0
  191.1350  177.8840  145.7040 C   0  0  0  0  0  2  0  0  0  0  0  0
  186.1110  178.0110  146.4920 C   0  0  0  0  0  2  0  0  0  0  0  0
  189.4950  178.6000  141.8380 C   0  0  0  0  0  2  0  0  0  0  0  0
  190.6390  177.8550  141.1490 C   0  0  0  0  0  0  0  0  0  0  0  0
  189.5880  178.5430  143.2470 O   0  0  0  0  0  0  0  0  0  0  0  0
  190.0040  174.6470  143.1500 O   0  0  0  0  0  0  0  0  0  0  0  0
  186.9980  177.1470  144.3050 C   0  0  1  0  0  3  0  0  0  0  0  0
  190.9220  176.9810  144.4830 C   0  0  0  0  0  2  0  0  0  0  0  0
  186.6690  178.4390  143.5560 C   0  0  0  0  0  2  0  0  0  0  0  0
  185.1830  178.5030  143.2370 C   0  0  1  0  0  3  0  0  0  0  0  0
  184.5820  179.7850  143.7870 C   0  0  0  0  0  1  0  0  0  0  0  0
  183.7070  178.3590  141.2440 C   0  0  0  0  0  3  0  0  0  0  0  0
  184.9380  178.3790  141.7640 C   0  0  0  0  0  3  0  0  0  0  0  0
  184.4850  180.2860  139.0250 O   0  0  0  0  0  0  0  0  0  0  0  0
  183.4960  178.2300  139.7690 C   0  0  2  0  0  3  0  0  0  0  0  0
  183.4400  179.5890  139.1120 C   0  0  0  0  0  0  0  0  0  0  0  0
  181.1320  179.3740  138.5400 C   0  0  0  0  0  3  0  0  0  0  0  0
  181.1440  177.9710  138.9810 C   0  0  0  0  0  3  0  0  0  0  0  0
  182.2380  177.4370  139.5270 C   0  0  0  0  0  3  0  0  0  0  0  0
  182.2040  180.1030  138.6000 N   0  0  0  0  0  0  0  0  0  0  0  0
  1 15  1  6  0  0  0
  1 12  1  0  0  0  0
  2 16  1  6  0  0  0
  2  7  1  0  0  0  0
  3 10  1  0  0  0  0
  5 20  2  0  0  0  0
  5 13  1  0  0  0  0
  6 14  1  0  0  0  0
  7  4  1  0  0  0  0
  8 16  1  0  0  0  0
  9 18  1  0  0  0  0
 10  1  1  0  0  0  0
 10  2  1  0  0  0  0
 12  4  1  0  0  0  0
 13 22  1  0  0  0  0
 13  3  1  0  0  0  0
 14  5  1  0  0  0  0
 17 19  1  0  0  0  0
 18 14  1  0  0  0  0
 18 11  1  0  0  0  0
 18 17  1  0  0  0  0
 19 13  1  0  0  0  0
 21  3  1  0  0  0  0
 21  8  1  0  0  0  0
 22 15  1  0  0  0  0
 23 21  1  0  0  0  0
 24 23  1  0  0  0  0
 24 25  1  0  0  0  0
 26 27  2  0  0  0  0
 27 24  1  0  0  0  0
 28 30  2  0  0  0  0
 29 26  1  0  0  0  0
 30 29  1  0  0  0  0
 31 34  2  0  0  0  0
 31 32  1  0  0  0  0
 32 33  2  0  0  0  0
 33 29  1  0  0  0  0
 34 30  1  0  0  0  0
M  END
>  <MODEL>
1

>  <REMARK>
 VINA RESULT:      -7.7      0.000      0.000
  Name = 
  4 active torsions:
  status: ('A' for Active; 'I' for Inactive)
    1  A    between atoms: C_3  and  C_13
    2  A    between atoms: C_5  and  C_18
    3  A    between atoms: C_5  and  C_31
    4  A    between atoms: C_17  and  C_18
                            x       y       z     vdW  Elec       q    Type
                         _______ _______ _______ _____ _____    ______ ____

>  <TORSDO>
F 4

$$$$
=
 OpenBabel11052414223D

 34 38  0  0  1  0  0  0  0  0999 V2000
  189.7350  177.5690  146.7450 C   0  0  2  0  0  3  0  0  0  0  0  0
  187.2730  178.2230  146.6880 C   0  0  1  0  0  3  0  0  0  0  0  0
  188.5020  177.1030  144.6750 C   0  0  2  0  0  3  0  0  0  0  0  0
  188.4420  177.8320  148.8840 C   0  0  0  0  0  2  0  0  0  0  0  0
  189.7210  175.8170  142.5650 S   0  0  1  0  0  0  0  0  0  0  0  0
  190.6410  175.8400  140.1280 F   0  0  0  0  0  0  0  0  0  0  0  0
  187.2670  177.4110  147.9800 C   0  0  0  0  0  2  0  0  0  0  0  0
  186.0180  176.9980  144.8460 C   0  0  0  0  0  2  0  0  0  0  0  0
  191.7060  178.1640  140.1600 F   0  0  0  0  0  0  0  0  0  0  0  0
  188.5820  178.0660  145.8710 C   0  0  2  0  0  3  0  0  0  0  0  0
  192.4310  177.9510  142.2700 F   0  0  0  0  0  0  0  0  0  0  0  0
  189.7170  178.2290  148.1170 C   0  0  0  0  0  2  0  0  0  0  0  0
  189.8050  177.1490  143.8280 C   0  0  1  0  0  0  0  0  0  0  0  0
  191.0350  176.2340  141.3960 C   0  0  1  0  0  3  0  0  0  0  0  0
  191.0450  177.7390  145.9970 C   0  0  0  0  0  2  0  0  0  0  0  0
  185.9720  178.1090  145.8910 C   0  0  0  0  0  2  0  0  0  0  0  0
  190.1470  178.5320  141.9090 C   0  0  0  0  0  2  0  0  0  0  0  0
  191.3580  177.7320  141.4260 C   0  0  0  0  0  0  0  0  0  0  0  0
  189.9870  178.4710  143.3120 O   0  0  0  0  0  0  0  0  0  0  0  0
  190.2280  174.5590  143.2590 O   0  0  0  0  0  0  0  0  0  0  0  0
  187.1890  177.2030  143.8870 C   0  0  1  0  0  3  0  0  0  0  0  0
  191.0070  176.8470  144.7510 C   0  0  0  0  0  2  0  0  0  0  0  0
  187.0580  178.5080  143.1020 C   0  0  0  0  0  2  0  0  0  0  0  0
  185.8230  178.4720  142.2150 C   0  0  1  0  0  3  0  0  0  0  0  0
  184.7540  179.4000  142.7650 C   0  0  0  0  0  1  0  0  0  0  0  0
  187.0700  178.1360  140.0930 C   0  0  0  0  0  3  0  0  0  0  0  0
  186.1630  178.8200  140.7970 C   0  0  0  0  0  3  0  0  0  0  0  0
  185.4050  177.7320  137.5810 O   0  0  0  0  0  0  0  0  0  0  0  0
  187.3910  178.5110  138.6810 C   0  0  2  0  0  3  0  0  0  0  0  0
  186.6530  177.6230  137.7060 C   0  0  0  0  0  0  0  0  0  0  0  0
  188.6540  176.5820  136.9230 C   0  0  0  0  0  3  0  0  0  0  0  0
  189.4640  177.5360  137.6950 C   0  0  0  0  0  3  0  0  0  0  0  0
  188.8830  178.4380  138.4880 C   0  0  0  0  0  3  0  0  0  0  0  0
  187.3580  176.6430  136.9340 N   0  0  0  0  0  0  0  0  0  0  0  0
  1 15  1  6  0  0  0
  1 12  1  0  0  0  0
  2 16  1  6  0  0  0
  2  7  1  0  0  0  0
  3 10  1  0  0  0  0
  5 20  2  0  0  0  0
  5 13  1  0  0  0  0
  6 14  1  0  0  0  0
  7  4  1  0  0  0  0
  8 16  1  0  0  0  0
  9 18  1  0  0  0  0
 10  2  1  0  0  0  0
 10  1  1  0  0  0  0
 12  4  1  0  0  0  0
 13  3  1  0  0  0  0
 13 22  1  0  0  0  0
 14 18  1  0  0  0  0
 14  5  1  0  0  0  0
 17 19  1  0  0  0  0
 18 17  1  0  0  0  0
 18 11  1  0  0  0  0
 19 13  1  0  0  0  0
 21  3  1  0  0  0  0
 21  8  1  0  0  0  0
 22 15  1  0  0  0  0
 23 21  1  0  0  0  0
 24 25  1  0  0  0  0
 24 23  1  0  0  0  0
 26 27  2  0  0  0  0
 27 24  1  0  0  0  0
 28 30  2  0  0  0  0
 29 26  1  0  0  0  0
 30 29  1  0  0  0  0
 31 34  2  0  0  0  0
 31 32  1  0  0  0  0
 32 33  2  0  0  0  0
 33 29  1  0  0  0  0
 34 30  1  0  0  0  0
M  END
>  <MODEL>
2

>  <REMARK>
 VINA RESULT:      -7.7      2.198      2.935
  Name = 
  4 active torsions:
  status: ('A' for Active; 'I' for Inactive)
    1  A    between atoms: C_3  and  C_13
    2  A    between atoms: C_5  and  C_18
    3  A    between atoms: C_5  and  C_31
    4  A    between atoms: C_17  and  C_18
                            x       y       z     vdW  Elec       q    Type
                         _______ _______ _______ _____ _____    ______ ____

>  <TORSDO>
F 4

$$$$
=
 OpenBabel11052414223D

 34 38  0  0  1  0  0  0  0  0999 V2000
  190.5750  177.5230  139.3930 C   0  0  2  0  0  3  0  0  0  0  0  0
  188.0430  177.7980  139.3200 C   0  0  1  0  0  3  0  0  0  0  0  0
  189.4390  177.9930  141.5170 C   0  0  2  0  0  3  0  0  0  0  0  0
  189.4300  178.1580  137.2480 C   0  0  0  0  0  2  0  0  0  0  0  0
  190.8770  178.3240  143.8450 S   0  0  1  0  0  0  0  0  0  0  0  0
  191.5510  177.5030  146.2230 F   0  0  0  0  0  0  0  0  0  0  0  0
  188.4160  178.7910  138.2220 C   0  0  0  0  0  2  0  0  0  0  0  0
  187.1700  179.0140  141.3770 C   0  0  0  0  0  2  0  0  0  0  0  0
  191.7310  175.0050  145.7120 F   0  0  0  0  0  0  0  0  0  0  0  0
  189.2610  177.3150  140.1490 C   0  0  2  0  0  3  0  0  0  0  0  0
  192.6350  175.3450  143.6890 F   0  0  0  0  0  0  0  0  0  0  0  0
  190.4250  177.1910  137.9160 C   0  0  0  0  0  2  0  0  0  0  0  0
  190.5770  177.3200  142.3340 C   0  0  1  0  0  0  0  0  0  0  0  0
  191.8720  177.2460  144.9010 C   0  0  1  0  0  3  0  0  0  0  0  0
  191.6840  176.7530  140.0880 C   0  0  0  0  0  2  0  0  0  0  0  0
  186.8120  178.2160  140.1250 C   0  0  0  0  0  2  0  0  0  0  0  0
  190.2720  175.5650  143.9280 C   0  0  0  0  0  2  0  0  0  0  0  0
  191.6490  175.7690  144.5620 C   0  0  0  0  0  0  0  0  0  0  0  0
  190.2460  175.9480  142.5670 O   0  0  0  0  0  0  0  0  0  0  0  0
  191.8430  179.4240  143.4230 O   0  0  0  0  0  0  0  0  0  0  0  0
  188.1210  178.2220  142.2710 C   0  0  1  0  0  3  0  0  0  0  0  0
  191.8720  177.3410  141.4910 C   0  0  0  0  0  2  0  0  0  0  0  0
  187.4830  176.9260  142.7710 C   0  0  0  0  0  2  0  0  0  0  0  0
  186.7920  177.1550  144.1060 C   0  0  1  0  0  3  0  0  0  0  0  0
  187.8130  177.5120  145.1720 C   0  0  0  0  0  1  0  0  0  0  0  0
  184.6470  178.0560  143.2330 C   0  0  0  0  0  3  0  0  0  0  0  0
  185.7340  178.2120  143.9940 C   0  0  0  0  0  3  0  0  0  0  0  0
  183.0550  179.3780  145.4600 O   0  0  0  0  0  0  0  0  0  0  0  0
  183.6120  179.1310  143.1390 C   0  0  2  0  0  3  0  0  0  0  0  0
  182.6570  179.0640  144.3070 C   0  0  0  0  0  0  0  0  0  0  0  0
  180.8070  178.4260  142.9400 C   0  0  0  0  0  3  0  0  0  0  0  0
  181.6100  178.6540  141.7300 C   0  0  0  0  0  3  0  0  0  0  0  0
  182.8960  179.0000  141.8200 C   0  0  0  0  0  3  0  0  0  0  0  0
  181.3050  178.6280  144.1210 N   0  0  0  0  0  0  0  0  0  0  0  0
  1 12  1  6  0  0  0
  1 15  1  0  0  0  0
  1 10  1  0  0  0  0
  2  7  1  1  0  0  0
  2 16  1  0  0  0  0
  2 10  1  0  0  0  0
  3 21  1  0  0  0  0
  3 13  1  0  0  0  0
  4 12  1  0  0  0  0
  4  7  1  0  0  0  0
  5 14  1  0  0  0  0
  8 21  1  0  0  0  0
 10  3  1  0  0  0  0
 11 18  1  0  0  0  0
 13 19  1  0  0  0  0
 13  5  1  0  0  0  0
 14  6  1  0  0  0  0
 15 22  1  0  0  0  0
 16  8  1  0  0  0  0
 17 18  1  0  0  0  0
 18 14  1  0  0  0  0
 18  9  1  0  0  0  0
 19 17  1  0  0  0  0
 20  5  2  0  0  0  0
 21 23  1  0  0  0  0
 22 13  1  0  0  0  0
 23 24  1  0  0  0  0
 24 25  1  0  0  0  0
 26 27  2  0  0  0  0
 27 24  1  0  0  0  0
 29 26  1  0  0  0  0
 29 30  1  0  0  0  0
 30 28  2  0  0  0  0
 31 34  2  0  0  0  0
 32 33  2  0  0  0  0
 32 31  1  0  0  0  0
 33 29  1  0  0  0  0
 34 30  1  0  0  0  0
M  END
>  <MODEL>
3

>  <REMARK>
 VINA RESULT:      -7.4      2.841      5.451
  Name = 
  4 active torsions:
  status: ('A' for Active; 'I' for Inactive)
    1  A    between atoms: C_3  and  C_13
    2  A    between atoms: C_5  and  C_18
    3  A    between atoms: C_5  and  C_31
    4  A    between atoms: C_17  and  C_18
                            x       y       z     vdW  Elec       q    Type
                         _______ _______ _______ _____ _____    ______ ____

>  <TORSDO>
F 4

$$$$
=
 OpenBabel11052414223D

 34 38  0  0  1  0  0  0  0  0999 V2000
  189.3440  177.4370  146.7840 C   0  0  2  0  0  3  0  0  0  0  0  0
  187.0240  178.4740  146.5970 C   0  0  1  0  0  3  0  0  0  0  0  0
  188.2330  177.3050  144.6000 C   0  0  2  0  0  3  0  0  0  0  0  0
  187.9310  177.7630  148.8370 C   0  0  0  0  0  2  0  0  0  0  0  0
  189.4140  175.9800  142.4920 S   0  0  1  0  0  0  0  0  0  0  0  0
  190.5280  176.0150  140.1370 F   0  0  0  0  0  0  0  0  0  0  0  0
  186.7860  177.5910  147.8200 C   0  0  0  0  0  2  0  0  0  0  0  0
  185.7560  177.5820  144.5800 C   0  0  0  0  0  2  0  0  0  0  0  0
  191.9280  178.1340  140.4240 F   0  0  0  0  0  0  0  0  0  0  0  0
  188.3580  178.1650  145.8680 C   0  0  2  0  0  3  0  0  0  0  0  0
  192.4330  177.6750  142.5590 F   0  0  0  0  0  0  0  0  0  0  0  0
  189.3120  178.0020  148.1970 C   0  0  0  0  0  2  0  0  0  0  0  0
  189.5940  177.1990  143.8560 C   0  0  1  0  0  0  0  0  0  0  0  0
  190.8700  176.2590  141.4570 C   0  0  1  0  0  3  0  0  0  0  0  0
  190.7230  177.4460  146.1480 C   0  0  0  0  0  2  0  0  0  0  0  0
  185.7930  178.6170  145.7010 C   0  0  0  0  0  2  0  0  0  0  0  0
  190.3020  178.6310  142.0780 C   0  0  0  0  0  2  0  0  0  0  0  0
  191.4130  177.6820  141.6250 C   0  0  0  0  0  0  0  0  0  0  0  0
  190.0180  178.5060  143.4570 O   0  0  0  0  0  0  0  0  0  0  0  0
  189.6650  174.6160  143.1230 O   0  0  0  0  0  0  0  0  0  0  0  0
  187.0210  177.6600  143.7280 C   0  0  1  0  0  3  0  0  0  0  0  0
  190.6550  176.6530  144.8380 C   0  0  0  0  0  2  0  0  0  0  0  0
  187.1560  179.0170  143.0380 C   0  0  0  0  0  2  0  0  0  0  0  0
  186.4070  179.0160  141.7140 C   0  0  1  0  0  3  0  0  0  0  0  0
  187.2260  178.3090  140.6480 C   0  0  0  0  0  1  0  0  0  0  0  0
  183.9490  178.9580  141.3570 C   0  0  0  0  0  3  0  0  0  0  0  0
  185.0520  178.3920  141.8570 C   0  0  0  0  0  3  0  0  0  0  0  0
  181.8790  178.2870  139.2350 O   0  0  0  0  0  0  0  0  0  0  0  0
  182.6100  178.3130  141.5200 C   0  0  2  0  0  3  0  0  0  0  0  0
  181.6780  178.7150  140.4020 C   0  0  0  0  0  0  0  0  0  0  0  0
  180.2430  179.9540  141.8540 C   0  0  0  0  0  3  0  0  0  0  0  0
  180.9800  179.4540  143.0240 C   0  0  0  0  0  3  0  0  0  0  0  0
  182.0570  178.6810  142.8720 C   0  0  0  0  0  3  0  0  0  0  0  0
  180.5750  179.5950  140.6510 N   0  0  0  0  0  0  0  0  0  0  0  0
  1 15  1  6  0  0  0
  1 12  1  0  0  0  0
  2 16  1  6  0  0  0
  2  7  1  0  0  0  0
  3 10  1  0  0  0  0
  5 20  2  0  0  0  0
  5 13  1  0  0  0  0
  6 14  1  0  0  0  0
  7  4  1  0  0  0  0
  8 16  1  0  0  0  0
  9 18  1  0  0  0  0
 10  2  1  0  0  0  0
 10  1  1  0  0  0  0
 12  4  1  0  0  0  0
 13  3  1  0  0  0  0
 13 22  1  0  0  0  0
 14 18  1  0  0  0  0
 14  5  1  0  0  0  0
 17 19  1  0  0  0  0
 18 17  1  0  0  0  0
 18 11  1  0  0  0  0
 19 13  1  0  0  0  0
 21  8  1  0  0  0  0
 21  3  1  0  0  0  0
 22 15  1  0  0  0  0
 23 21  1  0  0  0  0
 24 27  1  0  0  0  0
 24 23  1  0  0  0  0
 25 24  1  0  0  0  0
 26 29  1  0  0  0  0
 26 27  2  0  0  0  0
 28 30  2  0  0  0  0
 29 33  1  0  0  0  0
 30 34  1  0  0  0  0
 30 29  1  0  0  0  0
 31 32  1  0  0  0  0
 33 32  2  0  0  0  0
 34 31  2  0  0  0  0
M  END
>  <MODEL>
4

>  <REMARK>
 VINA RESULT:      -7.3      1.485      1.796
  Name = 
  4 active torsions:
  status: ('A' for Active; 'I' for Inactive)
    1  A    between atoms: C_3  and  C_13
    2  A    between atoms: C_5  and  C_18
    3  A    between atoms: C_5  and  C_31
    4  A    between atoms: C_17  and  C_18
                            x       y       z     vdW  Elec       q    Type
                         _______ _______ _______ _____ _____    ______ ____

>  <TORSDO>
F 4

$$$$
=
 OpenBabel11052414223D

 34 38  0  0  1  0  0  0  0  0999 V2000
  191.4350  175.7240  135.7400 C   0  0  2  0  0  3  0  0  0  0  0  0
  192.4660  176.7490  137.8320 C   0  0  1  0  0  3  0  0  0  0  0  0
  189.9360  176.1330  137.6400 C   0  0  2  0  0  3  0  0  0  0  0  0
  193.9010  175.5090  136.1750 C   0  0  0  0  0  2  0  0  0  0  0  0
  187.2840  175.3930  137.5310 S   0  0  1  0  0  0  0  0  0  0  0  0
  184.7590  176.0300  137.4550 F   0  0  0  0  0  0  0  0  0  0  0  0
  193.4350  175.5850  137.6420 C   0  0  0  0  0  2  0  0  0  0  0  0
  191.0020  176.3780  139.8790 C   0  0  0  0  0  2  0  0  0  0  0  0
  184.9310  178.0250  135.8660 F   0  0  0  0  0  0  0  0  0  0  0  0
  191.2030  176.6480  136.9370 C   0  0  2  0  0  3  0  0  0  0  0  0
  186.4980  177.0500  134.5940 F   0  0  0  0  0  0  0  0  0  0  0  0
  192.8250  175.9160  135.1500 C   0  0  0  0  0  2  0  0  0  0  0  0
  188.6970  176.2320  136.7070 C   0  0  1  0  0  0  0  0  0  0  0  0
  185.8390  175.9390  136.5930 C   0  0  1  0  0  3  0  0  0  0  0  0
  190.3100  175.9080  134.7370 C   0  0  0  0  0  2  0  0  0  0  0  0
  192.2160  177.0990  139.3000 C   0  0  0  0  0  2  0  0  0  0  0  0
  187.1730  178.0720  136.6400 C   0  0  0  0  0  2  0  0  0  0  0  0
  186.0960  177.2800  135.8970 C   0  0  0  0  0  0  0  0  0  0  0  0
  188.4760  177.6010  136.3580 O   0  0  0  0  0  0  0  0  0  0  0  0
  187.4190  173.9170  137.1780 O   0  0  0  0  0  0  0  0  0  0  0  0
  189.7490  176.6830  139.0610 C   0  0  1  0  0  3  0  0  0  0  0  0
  188.9990  175.4690  135.3980 C   0  0  0  0  0  2  0  0  0  0  0  0
  189.4020  178.1710  139.0870 C   0  0  0  0  0  2  0  0  0  0  0  0
  188.6050  178.5080  140.3370 C   0  0  1  0  0  3  0  0  0  0  0  0
  187.1230  178.2800  140.0930 C   0  0  0  0  0  1  0  0  0  0  0  0
  188.2490  177.2170  142.4300 C   0  0  0  0  0  3  0  0  0  0  0  0
  189.0860  177.7190  141.5170 C   0  0  0  0  0  3  0  0  0  0  0  0
  187.6590  177.5970  145.3870 O   0  0  0  0  0  0  0  0  0  0  0  0
  188.7600  176.4370  143.5990 C   0  0  2  0  0  3  0  0  0  0  0  0
  188.7530  177.2790  144.8530 C   0  0  0  0  0  0  0  0  0  0  0  0
  191.1360  177.3240  145.0040 C   0  0  0  0  0  3  0  0  0  0  0  0
  191.2330  176.3500  143.9070 C   0  0  0  0  0  3  0  0  0  0  0  0
  190.1380  175.9240  143.2740 C   0  0  0  0  0  3  0  0  0  0  0  0
  189.9810  177.7350  145.4320 N   0  0  0  0  0  0  0  0  0  0  0  0
  1 15  1  6  0  0  0
  1 10  1  0  0  0  0
  2  7  1  1  0  0  0
  2 16  1  0  0  0  0
  3 21  1  0  0  0  0
  4  7  1  0  0  0  0
  9 18  1  0  0  0  0
 10  3  1  0  0  0  0
 10  2  1  0  0  0  0
 11 18  1  0  0  0  0
 12  1  1  0  0  0  0
 12  4  1  0  0  0  0
 13  5  1  0  0  0  0
 13  3  1  0  0  0  0
 14  6  1  0  0  0  0
 14  5  1  0  0  0  0
 15 22  1  0  0  0  0
 16  8  1  0  0  0  0
 18 14  1  0  0  0  0
 18 17  1  0  0  0  0
 19 17  1  0  0  0  0
 19 13  1  0  0  0  0
 20  5  2  0  0  0  0
 21 23  1  0  0  0  0
 21  8  1  0  0  0  0
 22 13  1  0  0  0  0
 23 24  1  0  0  0  0
 24 27  1  0  0  0  0
 25 24  1  0  0  0  0
 26 29  1  0  0  0  0
 27 26  2  0  0  0  0
 29 30  1  0  0  0  0
 30 28  2  0  0  0  0
 30 34  1  0  0  0  0
 31 34  2  0  0  0  0
 32 31  1  0  0  0  0
 33 29  1  0  0  0  0
 33 32  2  0  0  0  0
M  END
>  <MODEL>
5

>  <REMARK>
 VINA RESULT:      -7.1      4.633      8.585
  Name = 
  4 active torsions:
  status: ('A' for Active; 'I' for Inactive)
    1  A    between atoms: C_3  and  C_13
    2  A    between atoms: C_5  and  C_18
    3  A    between atoms: C_5  and  C_31
    4  A    between atoms: C_17  and  C_18
                            x       y       z     vdW  Elec       q    Type
                         _______ _______ _______ _____ _____    ______ ____

>  <TORSDO>
F 4

$$$$
=
 OpenBabel11052414223D

 34 38  0  0  1  0  0  0  0  0999 V2000
  187.6260  177.8700  146.4190 C   0  0  2  0  0  3  0  0  0  0  0  0
  185.5020  178.9000  145.4610 C   0  0  1  0  0  3  0  0  0  0  0  0
  187.2380  177.5970  144.0110 C   0  0  2  0  0  3  0  0  0  0  0  0
  185.6590  178.3370  147.9110 C   0  0  0  0  0  2  0  0  0  0  0  0
  188.9780  176.1300  142.4570 S   0  0  1  0  0  0  0  0  0  0  0  0
  190.7620  176.0030  140.5630 F   0  0  0  0  0  0  0  0  0  0  0  0
  184.8780  178.1020  146.6030 C   0  0  0  0  0  2  0  0  0  0  0  0
  184.8940  177.8810  143.2110 C   0  0  0  0  0  2  0  0  0  0  0  0
  192.0560  178.1320  141.1360 F   0  0  0  0  0  0  0  0  0  0  0  0
  186.9870  178.5380  145.2000 C   0  0  2  0  0  3  0  0  0  0  0  0
  191.8690  177.8140  143.3470 F   0  0  0  0  0  0  0  0  0  0  0  0
  187.1750  178.5280  147.7150 C   0  0  0  0  0  2  0  0  0  0  0  0
  188.7580  177.4360  143.7310 C   0  0  1  0  0  0  0  0  0  0  0  0
  190.6870  176.3340  141.9060 C   0  0  1  0  0  3  0  0  0  0  0  0
  189.1330  177.8310  146.2400 C   0  0  0  0  0  2  0  0  0  0  0  0
  184.6090  178.9890  144.2220 C   0  0  0  0  0  2  0  0  0  0  0  0
  190.0130  178.7430  142.1730 C   0  0  0  0  0  2  0  0  0  0  0  0
  191.1860  177.7620  142.1450 C   0  0  0  0  0  0  0  0  0  0  0  0
  189.3150  178.7120  143.4020 O   0  0  0  0  0  0  0  0  0  0  0  0
  188.9880  174.8100  143.2190 O   0  0  0  0  0  0  0  0  0  0  0  0
  186.3610  177.8980  142.7870 C   0  0  1  0  0  3  0  0  0  0  0  0
  189.4520  176.9530  145.0250 C   0  0  0  0  0  2  0  0  0  0  0  0
  186.7350  179.2050  142.0900 C   0  0  0  0  0  2  0  0  0  0  0  0
  186.4550  179.1090  140.5980 C   0  0  1  0  0  3  0  0  0  0  0  0
  187.5020  178.2410  139.9210 C   0  0  0  0  0  1  0  0  0  0  0  0
  184.1970  179.2490  139.5710 C   0  0  0  0  0  3  0  0  0  0  0  0
  185.0730  178.5910  140.3370 C   0  0  0  0  0  3  0  0  0  0  0  0
  181.9150  180.4610  137.9690 O   0  0  0  0  0  0  0  0  0  0  0  0
  182.8230  178.7080  139.3330 C   0  0  2  0  0  3  0  0  0  0  0  0
  181.8450  179.8250  139.0530 C   0  0  0  0  0  0  0  0  0  0  0  0
  180.6430  179.4720  141.0860 C   0  0  0  0  0  3  0  0  0  0  0  0
  181.4220  178.2530  141.3460 C   0  0  0  0  0  3  0  0  0  0  0  0
  182.4120  177.8880  140.5280 C   0  0  0  0  0  3  0  0  0  0  0  0
  180.8470  180.1810  140.0180 N   0  0  0  0  0  0  0  0  0  0  0  0
  1 15  1  6  0  0  0
  1 12  1  0  0  0  0
  2 16  1  6  0  0  0
  2  7  1  0  0  0  0
  3 10  1  0  0  0  0
  5 20  2  0  0  0  0
  5 13  1  0  0  0  0
  6 14  1  0  0  0  0
  7  4  1  0  0  0  0
  8 16  1  0  0  0  0
  9 18  1  0  0  0  0
 10  2  1  0  0  0  0
 10  1  1  0  0  0  0
 12  4  1  0  0  0  0
 13  3  1  0  0  0  0
 13 22  1  0  0  0  0
 14 18  1  0  0  0  0
 14  5  1  0  0  0  0
 17 19  1  0  0  0  0
 18 17  1  0  0  0  0
 18 11  1  0  0  0  0
 19 13  1  0  0  0  0
 21  8  1  0  0  0  0
 21  3  1  0  0  0  0
 22 15  1  0  0  0  0
 23 21  1  0  0  0  0
 24 23  1  0  0  0  0
 25 24  1  0  0  0  0
 26 27  2  0  0  0  0
 27 24  1  0  0  0  0
 28 30  2  0  0  0  0
 29 26  1  0  0  0  0
 29 33  1  0  0  0  0
 30 29  1  0  0  0  0
 30 34  1  0  0  0  0
 31 32  1  0  0  0  0
 33 32  2  0  0  0  0
 34 31  2  0  0  0  0
M  END
>  <MODEL>
6

>  <REMARK>
 VINA RESULT:      -6.9      1.398      2.187
  Name = 
  4 active torsions:
  status: ('A' for Active; 'I' for Inactive)
    1  A    between atoms: C_3  and  C_13
    2  A    between atoms: C_5  and  C_18
    3  A    between atoms: C_5  and  C_31
    4  A    between atoms: C_17  and  C_18
                            x       y       z     vdW  Elec       q    Type
                         _______ _______ _______ _____ _____    ______ ____

>  <TORSDO>
F 4

$$$$
=
 OpenBabel11052414223D

 34 38  0  0  1  0  0  0  0  0999 V2000
  185.0090  178.4530  139.6870 C   0  0  2  0  0  3  0  0  0  0  0  0
  185.9830  178.1880  142.0260 C   0  0  1  0  0  3  0  0  0  0  0  0
  187.4540  178.3570  139.8750 C   0  0  2  0  0  3  0  0  0  0  0  0
  183.6710  179.1320  141.7030 C   0  0  0  0  0  2  0  0  0  0  0  0
  189.0540  178.6490  137.6510 S   0  0  1  0  0  0  0  0  0  0  0  0
  190.7430  177.6570  135.9330 F   0  0  0  0  0  0  0  0  0  0  0  0
  185.0740  179.3860  142.2880 C   0  0  0  0  0  2  0  0  0  0  0  0
  188.4300  178.8780  142.1080 C   0  0  0  0  0  2  0  0  0  0  0  0
  189.6670  175.3560  135.6480 F   0  0  0  0  0  0  0  0  0  0  0  0
  186.1480  177.8620  140.5190 C   0  0  2  0  0  3  0  0  0  0  0  0
  187.5800  176.1690  135.7350 F   0  0  0  0  0  0  0  0  0  0  0  0
  183.6700  178.3140  140.3980 C   0  0  0  0  0  2  0  0  0  0  0  0
  187.5970  177.8330  138.4190 C   0  0  1  0  0  0  0  0  0  0  0  0
  189.3780  177.6680  136.1680 C   0  0  1  0  0  3  0  0  0  0  0  0
  185.0330  177.8470  138.2950 C   0  0  0  0  0  2  0  0  0  0  0  0
  187.2730  178.2120  142.8480 C   0  0  0  0  0  2  0  0  0  0  0  0
  188.7570  175.8420  137.7840 C   0  0  0  0  0  2  0  0  0  0  0  0
  188.8370  176.2420  136.3090 C   0  0  0  0  0  0  0  0  0  0  0  0
  187.6330  176.4030  138.4320 O   0  0  0  0  0  0  0  0  0  0  0  0
  188.5440  179.9790  137.1120 O   0  0  0  0  0  0  0  0  0  0  0  0
  188.6890  178.1880  140.7710 C   0  0  1  0  0  3  0  0  0  0  0  0
  186.3450  178.2530  137.6150 C   0  0  0  0  0  2  0  0  0  0  0  0
  189.0990  176.7270  140.9570 C   0  0  0  0  0  2  0  0  0  0  0  0
  190.5520  176.6350  141.3940 C   0  0  1  0  0  3  0  0  0  0  0  0
  191.4610  177.2100  140.3210 C   0  0  0  0  0  1  0  0  0  0  0  0
  190.9380  176.6440  143.8490 C   0  0  0  0  0  3  0  0  0  0  0  0
  190.7680  177.3220  142.7100 C   0  0  0  0  0  3  0  0  0  0  0  0
  192.4310  175.7100  146.3270 O   0  0  0  0  0  0  0  0  0  0  0  0
  191.1460  177.3570  145.1460 C   0  0  2  0  0  3  0  0  0  0  0  0
  191.3630  176.3750  146.2730 C   0  0  0  0  0  0  0  0  0  0  0  0
  189.3030  176.9330  147.3440 C   0  0  0  0  0  3  0  0  0  0  0  0
  189.1030  178.0430  146.4010 C   0  0  0  0  0  3  0  0  0  0  0  0
  189.9620  178.2530  145.4020 C   0  0  0  0  0  3  0  0  0  0  0  0
  190.3570  176.1780  147.2740 N   0  0  0  0  0  0  0  0  0  0  0  0
  1 15  1  6  0  0  0
  1 12  1  0  0  0  0
  1 10  1  0  0  0  0
  2  7  1  6  0  0  0
  2 16  1  0  0  0  0
  3 10  1  0  0  0  0
  3 21  1  0  0  0  0
  4  7  1  0  0  0  0
  5 13  1  0  0  0  0
  6 14  1  0  0  0  0
  8 16  1  0  0  0  0
  9 18  1  0  0  0  0
 10  2  1  0  0  0  0
 11 18  1  0  0  0  0
 12  4  1  0  0  0  0
 13 19  1  0  0  0  0
 13  3  1  0  0  0  0
 14 18  1  0  0  0  0
 14  5  1  0  0  0  0
 17 19  1  0  0  0  0
 18 17  1  0  0  0  0
 20  5  2  0  0  0  0
 21 23  1  0  0  0  0
 21  8  1  0  0  0  0
 22 15  1  0  0  0  0
 22 13  1  0  0  0  0
 23 24  1  0  0  0  0
 24 27  1  0  0  0  0
 25 24  1  0  0  0  0
 26 29  1  0  0  0  0
 27 26  2  0  0  0  0
 29 33  1  0  0  0  0
 29 30  1  0  0  0  0
 30 28  2  0  0  0  0
 30 34  1  0  0  0  0
 32 31  1  0  0  0  0
 33 32  2  0  0  0  0
 34 31  2  0  0  0  0
M  END
>  <MODEL>
7

>  <REMARK>
 VINA RESULT:      -6.8      3.617      7.764
  Name = 
  4 active torsions:
  status: ('A' for Active; 'I' for Inactive)
    1  A    between atoms: C_3  and  C_13
    2  A    between atoms: C_5  and  C_18
    3  A    between atoms: C_5  and  C_31
    4  A    between atoms: C_17  and  C_18
                            x       y       z     vdW  Elec       q    Type
                         _______ _______ _______ _____ _____    ______ ____

>  <TORSDO>
F 4

$$$$
=
 OpenBabel11052414223D

 34 38  0  0  1  0  0  0  0  0999 V2000
  182.3210  179.0260  142.8100 C   0  0  2  0  0  3  0  0  0  0  0  0
  184.7300  178.2500  142.5150 C   0  0  1  0  0  3  0  0  0  0  0  0
  183.2150  178.9960  140.5240 C   0  0  2  0  0  3  0  0  0  0  0  0
  183.9350  179.1410  144.7330 C   0  0  0  0  0  2  0  0  0  0  0  0
  181.6970  179.8830  138.4030 S   0  0  1  0  0  0  0  0  0  0  0  0
  180.3990  179.4080  136.1950 F   0  0  0  0  0  0  0  0  0  0  0  0
  184.9570  179.3090  143.5920 C   0  0  0  0  0  2  0  0  0  0  0  0
  185.6960  179.0080  140.2880 C   0  0  0  0  0  2  0  0  0  0  0  0
  179.3110  177.1970  136.8770 F   0  0  0  0  0  0  0  0  0  0  0  0
  183.3100  178.3030  141.8940 C   0  0  2  0  0  3  0  0  0  0  0  0
  178.9370  177.8740  138.9810 F   0  0  0  0  0  0  0  0  0  0  0  0
  182.5460  178.6610  144.2700 C   0  0  0  0  0  2  0  0  0  0  0  0
  181.7930  178.8430  139.9150 C   0  0  1  0  0  0  0  0  0  0  0  0
  180.2060  179.3030  137.5620 C   0  0  1  0  0  3  0  0  0  0  0  0
  180.9050  178.7730  142.3230 C   0  0  0  0  0  2  0  0  0  0  0  0
  185.8880  178.1330  141.5230 C   0  0  0  0  0  2  0  0  0  0  0  0
  181.1240  177.1160  138.4050 C   0  0  0  0  0  2  0  0  0  0  0  0
  179.8650  177.8620  137.9560 C   0  0  0  0  0  0  0  0  0  0  0  0
  181.5070  177.4550  139.7230 O   0  0  0  0  0  0  0  0  0  0  0  0
  181.3290  181.2800  138.8860 O   0  0  0  0  0  0  0  0  0  0  0  0
  184.3830  178.6710  139.5840 C   0  0  1  0  0  3  0  0  0  0  0  0
  180.7590  179.3880  140.9270 C   0  0  0  0  0  2  0  0  0  0  0  0
  184.3640  177.2280  139.0800 C   0  0  0  0  0  2  0  0  0  0  0  0
  185.0860  177.1220  137.7460 C   0  0  1  0  0  3  0  0  0  0  0  0
  184.3200  177.8760  136.6730 C   0  0  0  0  0  1  0  0  0  0  0  0
  187.5480  176.8440  137.5570 C   0  0  0  0  0  3  0  0  0  0  0  0
  186.4970  177.6160  137.8510 C   0  0  0  0  0  3  0  0  0  0  0  0
  190.1620  175.5010  136.7820 O   0  0  0  0  0  0  0  0  0  0  0  0
  188.9450  177.3640  137.6770 C   0  0  2  0  0  3  0  0  0  0  0  0
  189.9360  176.2290  137.7830 C   0  0  0  0  0  0  0  0  0  0  0  0
  190.5170  176.7610  140.0370 C   0  0  0  0  0  3  0  0  0  0  0  0
  189.7250  177.9960  139.9600 C   0  0  0  0  0  3  0  0  0  0  0  0
  189.0170  178.2860  138.8660 C   0  0  0  0  0  3  0  0  0  0  0  0
  190.6090  175.9610  139.0190 N   0  0  0  0  0  0  0  0  0  0  0  0
  1 15  1  6  0  0  0
  1 12  1  0  0  0  0
  2 16  1  6  0  0  0
  2  7  1  0  0  0  0
  3 10  1  0  0  0  0
  5 20  2  0  0  0  0
  5 13  1  0  0  0  0
  6 14  1  0  0  0  0
  7  4  1  0  0  0  0
  8 16  1  0  0  0  0
  9 18  1  0  0  0  0
 10  2  1  0  0  0  0
 10  1  1  0  0  0  0
 12  4  1  0  0  0  0
 13  3  1  0  0  0  0
 13 22  1  0  0  0  0
 14 18  1  0  0  0  0
 14  5  1  0  0  0  0
 17 19  1  0  0  0  0
 18 17  1  0  0  0  0
 18 11  1  0  0  0  0
 19 13  1  0  0  0  0
 21  8  1  0  0  0  0
 21  3  1  0  0  0  0
 22 15  1  0  0  0  0
 23 21  1  0  0  0  0
 24 27  1  0  0  0  0
 24 23  1  0  0  0  0
 25 24  1  0  0  0  0
 26 29  1  0  0  0  0
 26 27  2  0  0  0  0
 28 30  2  0  0  0  0
 29 30  1  0  0  0  0
 29 33  1  0  0  0  0
 30 34  1  0  0  0  0
 32 31  1  0  0  0  0
 33 32  2  0  0  0  0
 34 31  2  0  0  0  0
M  END
>  <MODEL>
8

>  <REMARK>
 VINA RESULT:      -6.8      5.487      8.486
  Name = 
  4 active torsions:
  status: ('A' for Active; 'I' for Inactive)
    1  A    between atoms: C_3  and  C_13
    2  A    between atoms: C_5  and  C_18
    3  A    between atoms: C_5  and  C_31
    4  A    between atoms: C_17  and  C_18
                            x       y       z     vdW  Elec       q    Type
                         _______ _______ _______ _____ _____    ______ ____

>  <TORSDO>
F 4

$$$$
=
 OpenBabel11052414223D

 34 38  0  0  1  0  0  0  0  0999 V2000
  185.4300  178.2590  144.2920 C   0  0  2  0  0  3  0  0  0  0  0  0
  184.9260  179.2010  141.9780 C   0  0  1  0  0  3  0  0  0  0  0  0
  187.0180  177.7270  142.4970 C   0  0  2  0  0  3  0  0  0  0  0  0
  183.0830  178.9080  143.6700 C   0  0  0  0  0  2  0  0  0  0  0  0
  189.1770  176.0800  142.9640 S   0  0  1  0  0  0  0  0  0  0  0  0
  191.7500  175.7270  143.1710 F   0  0  0  0  0  0  0  0  0  0  0  0
  183.5790  178.5390  142.2580 C   0  0  0  0  0  2  0  0  0  0  0  0
  186.1850  177.9470  140.1580 C   0  0  0  0  0  2  0  0  0  0  0  0
  192.3190  177.8920  144.4060 F   0  0  0  0  0  0  0  0  0  0  0  0
  186.0290  178.7960  142.9900 C   0  0  2  0  0  3  0  0  0  0  0  0
  190.4660  177.8210  145.6650 F   0  0  0  0  0  0  0  0  0  0  0  0
  184.2070  179.0600  144.7130 C   0  0  0  0  0  2  0  0  0  0  0  0
  188.1760  177.5210  143.5130 C   0  0  1  0  0  0  0  0  0  0  0  0
  190.6970  176.2040  143.9340 C   0  0  1  0  0  3  0  0  0  0  0  0
  186.5130  178.1850  145.3530 C   0  0  0  0  0  2  0  0  0  0  0  0
  185.3280  179.1620  140.5030 C   0  0  0  0  0  2  0  0  0  0  0  0
  190.2890  178.6360  143.4310 C   0  0  0  0  0  2  0  0  0  0  0  0
  190.9590  177.6450  144.3850 C   0  0  0  0  0  0  0  0  0  0  0  0
  188.8980  178.7460  143.6620 O   0  0  0  0  0  0  0  0  0  0  0  0
  188.4750  174.8520  143.5300 O   0  0  0  0  0  0  0  0  0  0  0  0
  187.4370  177.9020  141.0310 C   0  0  1  0  0  3  0  0  0  0  0  0
  187.5710  177.1750  144.8920 C   0  0  0  0  0  2  0  0  0  0  0  0
  188.3310  179.1200  140.8040 C   0  0  0  0  0  2  0  0  0  0  0  0
  189.4150  178.8020  139.7860 C   0  0  1  0  0  3  0  0  0  0  0  0
  190.0490  177.4570  140.0970 C   0  0  0  0  0  1  0  0  0  0  0  0
  189.0230  177.8100  137.5420 C   0  0  0  0  0  3  0  0  0  0  0  0
  188.8730  178.8330  138.3890 C   0  0  0  0  0  3  0  0  0  0  0  0
  186.1240  177.8830  136.6310 O   0  0  0  0  0  0  0  0  0  0  0  0
  188.4750  177.8740  136.1520 C   0  0  2  0  0  3  0  0  0  0  0  0
  187.0880  177.2790  136.0920 C   0  0  0  0  0  0  0  0  0  0  0  0
  187.7860  175.4290  134.7540 C   0  0  0  0  0  3  0  0  0  0  0  0
  189.1170  176.0330  134.5970 C   0  0  0  0  0  3  0  0  0  0  0  0
  189.4280  177.1700  135.2220 C   0  0  0  0  0  3  0  0  0  0  0  0
  186.8590  176.0230  135.4420 N   0  0  0  0  0  0  0  0  0  0  0  0
  1 12  1  1  0  0  0
  1 15  1  0  0  0  0
  2 16  1  6  0  0  0
  2  7  1  0  0  0  0
  2 10  1  0  0  0  0
  3 10  1  0  0  0  0
  3 13  1  0  0  0  0
  4 12  1  0  0  0  0
  5 13  1  0  0  0  0
  5 20  2  0  0  0  0
  5 14  1  0  0  0  0
  6 14  1  0  0  0  0
  7  4  1  0  0  0  0
  8 16  1  0  0  0  0
  8 21  1  0  0  0  0
 10  1  1  0  0  0  0
 13 19  1  0  0  0  0
 13 22  1  0  0  0  0
 14 18  1  0  0  0  0
 17 19  1  0  0  0  0
 17 18  1  0  0  0  0
 18  9  1  0  0  0  0
 18 11  1  0  0  0  0
 21  3  1  0  0  0  0
 22 15  1  0  0  0  0
 23 21  1  0  0  0  0
 24 25  1  0  0  0  0
 24 23  1  0  0  0  0
 26 27  2  0  0  0  0
 27 24  1  0  0  0  0
 29 26  1  0  0  0  0
 30 29  1  0  0  0  0
 30 28  2  0  0  0  0
 31 34  2  0  0  0  0
 32 31  1  0  0  0  0
 32 33  2  0  0  0  0
 33 29  1  0  0  0  0
 34 30  1  0  0  0  0
M  END
>  <MODEL>
9

>  <REMARK>
 VINA RESULT:      -6.7      3.217      5.326
  Name = 
  4 active torsions:
  status: ('A' for Active; 'I' for Inactive)
    1  A    between atoms: C_3  and  C_13
    2  A    between atoms: C_5  and  C_18
    3  A    between atoms: C_5  and  C_31
    4  A    between atoms: C_17  and  C_18
                            x       y       z     vdW  Elec       q    Type
                         _______ _______ _______ _____ _____    ______ ____

>  <TORSDO>
F 4

$$$$
