=
 OpenBabel11052415183D

 37 41  0  0  1  0  0  0  0  0999 V2000
  180.0050  174.0350  136.4440 C   0  0  0  0  0  0  0  0  0  0  0  0
  183.7110  174.1260  136.8490 C   0  0  0  0  0  0  0  0  0  0  0  0
  181.8240  172.3910  135.5500 C   0  0  0  0  0  2  0  0  0  0  0  0
  184.3080  175.2440  136.4020 C   0  0  0  0  0  3  0  0  0  0  0  0
  182.2680  174.2040  137.3550 C   0  0  1  0  0  3  0  0  0  0  0  0
  185.7010  175.3070  136.0620 N   0  0  0  0  0  0  0  0  0  0  0  0
  182.5710  171.2830  136.1780 C   0  0  0  0  0  3  0  0  0  0  0  0
  181.7150  175.5670  137.3070 N   0  0  1  0  0  0  0  0  0  0  0  0
  178.9310  173.5730  137.4290 C   0  0  0  0  0  1  0  0  0  0  0  0
  185.6030  172.7730  137.8310 C   0  0  0  0  0  2  0  0  0  0  0  0
  183.7370  171.4980  136.7970 C   0  0  0  0  0  3  0  0  0  0  0  0
  180.3630  175.4760  136.7360 C   0  0  0  0  0  2  0  0  0  0  0  0
  184.4800  172.8160  136.8180 C   0  0  1  0  0  3  0  0  0  0  0  0
  181.2780  173.2440  136.6980 C   0  0  1  0  0  3  0  0  0  0  0  0
  186.6820  174.9250  137.1010 C   0  0  1  0  0  3  0  0  0  0  0  0
  179.4580  173.9220  135.0130 C   0  0  0  0  0  1  0  0  0  0  0  0
  186.8380  173.4050  137.2310 C   0  0  0  0  0  2  0  0  0  0  0  0
  189.0940  174.9450  136.3180 C   0  0  0  0  0  3  0  0  0  0  0  0
  188.0170  175.5920  136.9640 C   0  0  0  0  0  0  0  0  0  0  0  0
  188.2190  176.8260  137.5760 C   0  0  0  0  0  3  0  0  0  0  0  0
  189.6680  178.6320  138.1350 F   0  0  0  0  0  0  0  0  0  0  0  0
  190.5450  176.7930  136.8990 C   0  0  0  0  0  3  0  0  0  0  0  0
  189.4820  177.4330  137.5440 C   0  0  0  0  0  0  0  0  0  0  0  0
  190.3530  175.5490  136.2830 C   0  0  0  0  0  3  0  0  0  0  0  0
  180.7100  177.2360  138.9810 C   0  0  0  0  0  2  0  0  0  0  0  0
  181.1710  178.5960  138.4380 C   0  0  1  0  0  3  0  0  0  0  0  0
  182.6050  178.9190  138.8590 C   0  0  0  0  0  2  0  0  0  0  0  0
  183.1240  176.4780  139.1480 C   0  0  0  0  0  2  0  0  0  0  0  0
  183.5710  177.7930  138.4870 C   0  0  2  0  0  3  0  0  0  0  0  0
  181.7090  176.0860  138.6940 C   0  0  2  0  0  3  0  0  0  0  0  0
  184.9950  178.1860  138.8940 C   0  0  2  0  0  3  0  0  0  0  0  0
  185.0100  178.9260  140.2170 C   0  0  0  0  0  1  0  0  0  0  0  0
  185.6100  178.9500  137.9170 F   0  0  0  0  0  0  0  0  0  0  0  0
  181.0270  178.6590  137.0090 N   0  0  0  0  0  0  0  0  0  0  0  0
  180.9410  179.7140  136.4550 O   0  0  0  0  0  0  0  0  0  0  0  0
  186.0740  176.0910  134.8850 C   0  0  0  0  0  2  0  0  0  0  0  0
  185.3860  177.4480  134.9230 C   0  0  0  0  0  1  0  0  0  0  0  0
  1 14  1  0  0  0  0
  1 12  1  0  0  0  0
  1  9  1  0  0  0  0
  3  7  1  0  0  0  0
  4  2  2  0  0  0  0
  5  2  1  6  0  0  0
  6  4  1  0  0  0  0
  6 15  1  0  0  0  0
  7 11  2  0  0  0  0
  8 12  1  1  0  0  0
  8  5  1  0  0  0  0
  8 30  1  0  0  0  0
 13 11  1  1  0  0  0
 13  2  1  0  0  0  0
 13 10  1  0  0  0  0
 14  3  1  6  0  0  0
 14  5  1  0  0  0  0
 15 19  1  6  0  0  0
 15 17  1  0  0  0  0
 16  1  1  0  0  0  0
 17 10  1  0  0  0  0
 18 19  1  0  0  0  0
 19 20  2  0  0  0  0
 22 23  2  0  0  0  0
 23 20  1  0  0  0  0
 23 21  1  0  0  0  0
 24 18  2  0  0  0  0
 24 22  1  0  0  0  0
 26 34  1  6  0  0  0
 26 27  1  0  0  0  0
 26 25  1  0  0  0  0
 29 27  1  0  0  0  0
 29 31  1  1  0  0  0
 29 28  1  0  0  0  0
 30 25  1  6  0  0  0
 30 28  1  0  0  0  0
 31 32  1  1  0  0  0
 33 31  1  0  0  0  0
 35 34  2  0  0  0  0
 36 37  1  0  0  0  0
 36  6  1  0  0  0  0
M  END
>  <MODEL>
1

>  <REMARK>
 VINA RESULT:      -5.5      0.000      0.000
  Name = 
  5 active torsions:
  status: ('A' for Active; 'I' for Inactive)
    1  A    between atoms: C_5  and  N_12
    2  A    between atoms: C_6  and  C_31
    3  A    between atoms: C_7  and  N_14
    4  A    between atoms: C_11  and  C_33
    5  A    between atoms: N_20  and  C_36
                            x       y       z     vdW  Elec       q    Type
                         _______ _______ _______ _____ _____    ______ ____

>  <TORSDO>
F 5

$$$$
=
 OpenBabel11052415183D

 37 41  0  0  1  0  0  0  0  0999 V2000
  180.2220  176.5620  136.3830 C   0  0  0  0  0  0  0  0  0  0  0  0
  183.8580  175.8810  136.8480 C   0  0  0  0  0  0  0  0  0  0  0  0
  181.9410  175.4750  134.7470 C   0  0  0  0  0  2  0  0  0  0  0  0
  184.6090  176.9570  137.1380 C   0  0  0  0  0  3  0  0  0  0  0  0
  182.3880  175.8620  137.2760 C   0  0  1  0  0  3  0  0  0  0  0  0
  186.0290  177.0040  136.9260 N   0  0  0  0  0  0  0  0  0  0  0  0
  182.5030  174.1150  134.6410 C   0  0  0  0  0  3  0  0  0  0  0  0
  181.9860  177.0750  138.0070 N   0  0  1  0  0  0  0  0  0  0  0  0
  179.0130  175.7810  136.9000 C   0  0  0  0  0  1  0  0  0  0  0  0
  185.4930  173.9590  136.9160 C   0  0  0  0  0  2  0  0  0  0  0  0
  183.6180  173.7740  135.2970 C   0  0  0  0  0  3  0  0  0  0  0  0
  180.6960  177.5160  137.4580 C   0  0  0  0  0  2  0  0  0  0  0  0
  184.4880  174.7260  136.0870 C   0  0  1  0  0  3  0  0  0  0  0  0
  181.3740  175.5960  136.1640 C   0  0  1  0  0  3  0  0  0  0  0  0
  186.8560  175.9670  137.5790 C   0  0  1  0  0  3  0  0  0  0  0  0
  179.8110  177.3580  135.1350 C   0  0  0  0  0  1  0  0  0  0  0  0
  186.8410  174.6370  136.8150 C   0  0  0  0  0  2  0  0  0  0  0  0
  189.3270  176.0630  137.0160 C   0  0  0  0  0  3  0  0  0  0  0  0
  188.2600  176.3970  137.8800 C   0  0  0  0  0  0  0  0  0  0  0  0
  188.5230  177.0460  139.0830 C   0  0  0  0  0  3  0  0  0  0  0  0
  190.0830  178.0130  140.6000 F   0  0  0  0  0  0  0  0  0  0  0  0
  190.8920  177.0530  138.5750 C   0  0  0  0  0  3  0  0  0  0  0  0
  189.8370  177.3790  139.4350 C   0  0  0  0  0  0  0  0  0  0  0  0
  190.6390  176.3970  137.3630 C   0  0  0  0  0  3  0  0  0  0  0  0
  180.8290  177.4740  140.2650 C   0  0  0  0  0  2  0  0  0  0  0  0
  181.2420  178.9090  140.6200 C   0  0  1  0  0  3  0  0  0  0  0  0
  182.6380  178.9620  141.2390 C   0  0  0  0  0  2  0  0  0  0  0  0
  183.2700  176.8010  140.1250 C   0  0  0  0  0  2  0  0  0  0  0  0
  183.6760  178.2680  140.3560 C   0  0  2  0  0  3  0  0  0  0  0  0
  181.8960  176.7120  139.4400 C   0  0  2  0  0  3  0  0  0  0  0  0
  185.0590  178.3860  141.0030 C   0  0  2  0  0  3  0  0  0  0  0  0
  185.0030  179.1820  142.2920 C   0  0  0  0  0  1  0  0  0  0  0  0
  185.9790  178.9520  140.1370 F   0  0  0  0  0  0  0  0  0  0  0  0
  181.1530  179.7730  139.4730 N   0  0  0  0  0  0  0  0  0  0  0  0
  180.7120  180.8770  139.5790 O   0  0  0  0  0  0  0  0  0  0  0  0
  186.5950  178.2540  136.4230 C   0  0  0  0  0  2  0  0  0  0  0  0
  186.8100  178.1630  134.9190 C   0  0  0  0  0  1  0  0  0  0  0  0
  1  9  1  0  0  0  0
  1 12  1  0  0  0  0
  2  4  2  0  0  0  0
  5  2  1  6  0  0  0
  5  8  1  0  0  0  0
  6  4  1  0  0  0  0
  6 15  1  0  0  0  0
  7  3  1  0  0  0  0
  7 11  2  0  0  0  0
  8 12  1  6  0  0  0
  8 30  1  0  0  0  0
 13 11  1  1  0  0  0
 13  2  1  0  0  0  0
 13 10  1  0  0  0  0
 14  3  1  6  0  0  0
 14  1  1  0  0  0  0
 14  5  1  0  0  0  0
 15 19  1  6  0  0  0
 16  1  1  0  0  0  0
 17 10  1  0  0  0  0
 17 15  1  0  0  0  0
 18 24  2  0  0  0  0
 18 19  1  0  0  0  0
 19 20  2  0  0  0  0
 20 23  1  0  0  0  0
 22 23  2  0  0  0  0
 23 21  1  0  0  0  0
 24 22  1  0  0  0  0
 25 26  1  0  0  0  0
 26 34  1  6  0  0  0
 26 27  1  0  0  0  0
 28 29  1  0  0  0  0
 29 31  1  1  0  0  0
 29 27  1  0  0  0  0
 30 28  1  1  0  0  0
 30 25  1  0  0  0  0
 31 32  1  1  0  0  0
 33 31  1  0  0  0  0
 34 35  2  0  0  0  0
 36  6  1  0  0  0  0
 37 36  1  0  0  0  0
M  END
>  <MODEL>
2

>  <REMARK>
 VINA RESULT:      -4.9      1.818      2.137
  Name = 
  5 active torsions:
  status: ('A' for Active; 'I' for Inactive)
    1  A    between atoms: C_5  and  N_12
    2  A    between atoms: C_6  and  C_31
    3  A    between atoms: C_7  and  N_14
    4  A    between atoms: C_11  and  C_33
    5  A    between atoms: N_20  and  C_36
                            x       y       z     vdW  Elec       q    Type
                         _______ _______ _______ _____ _____    ______ ____

>  <TORSDO>
F 5

$$$$
=
 OpenBabel11052415183D

 37 41  0  0  1  0  0  0  0  0999 V2000
  191.8560  175.9530  138.1210 C   0  0  0  0  0  0  0  0  0  0  0  0
  188.4220  176.8980  137.0160 C   0  0  0  0  0  0  0  0  0  0  0  0
  190.7020  175.6400  135.8010 C   0  0  0  0  0  2  0  0  0  0  0  0
  187.4220  176.3640  137.7380 C   0  0  0  0  0  3  0  0  0  0  0  0
  189.7720  177.1570  137.6920 C   0  0  1  0  0  3  0  0  0  0  0  0
  186.0800  176.2350  137.2430 N   0  0  0  0  0  0  0  0  0  0  0  0
  190.4670  176.5550  134.6650 C   0  0  0  0  0  3  0  0  0  0  0  0
  189.7790  176.7940  139.1180 N   0  0  1  0  0  0  0  0  0  0  0  0
  193.1010  176.8260  138.2780 C   0  0  0  0  0  1  0  0  0  0  0  0
  187.2460  178.3730  135.3380 C   0  0  0  0  0  2  0  0  0  0  0  0
  189.3590  177.2990  134.5940 C   0  0  0  0  0  3  0  0  0  0  0  0
  191.0190  176.0470  139.3780 C   0  0  0  0  0  2  0  0  0  0  0  0
  188.1880  177.2080  135.5470 C   0  0  1  0  0  3  0  0  0  0  0  0
  190.9880  176.5290  137.0140 C   0  0  1  0  0  3  0  0  0  0  0  0
  185.3960  177.4610  136.7800 C   0  0  1  0  0  3  0  0  0  0  0  0
  192.2880  174.4960  137.8990 C   0  0  0  0  0  1  0  0  0  0  0  0
  185.8200  177.8700  135.3640 C   0  0  0  0  0  2  0  0  0  0  0  0
  183.0900  177.0670  135.8010 C   0  0  0  0  0  3  0  0  0  0  0  0
  183.9030  177.4190  136.9020 C   0  0  0  0  0  0  0  0  0  0  0  0
  183.3120  177.8330  138.0920 C   0  0  0  0  0  3  0  0  0  0  0  0
  181.3520  178.2900  139.3650 F   0  0  0  0  0  0  0  0  0  0  0  0
  181.1140  177.5380  137.1170 C   0  0  0  0  0  3  0  0  0  0  0  0
  181.9170  177.8920  138.2060 C   0  0  0  0  0  0  0  0  0  0  0  0
  181.6990  177.1220  135.9130 C   0  0  0  0  0  3  0  0  0  0  0  0
  190.5850  178.1170  141.1660 C   0  0  0  0  0  2  0  0  0  0  0  0
  190.0080  177.3220  142.3460 C   0  0  1  0  0  3  0  0  0  0  0  0
  188.5420  177.6690  142.6020 C   0  0  0  0  0  2  0  0  0  0  0  0
  188.2510  178.4230  140.2230 C   0  0  0  0  0  2  0  0  0  0  0  0
  187.6950  177.5190  141.3370 C   0  0  2  0  0  3  0  0  0  0  0  0
  189.7070  178.0550  139.8910 C   0  0  2  0  0  3  0  0  0  0  0  0
  186.2320  177.8390  141.6600 C   0  0  2  0  0  3  0  0  0  0  0  0
  185.6920  178.9360  140.7630 C   0  0  0  0  0  1  0  0  0  0  0  0
  186.0700  178.1920  142.9890 F   0  0  0  0  0  0  0  0  0  0  0  0
  190.1760  175.9070  142.1480 N   0  0  0  0  0  0  0  0  0  0  0  0
  190.5660  175.2130  143.0380 O   0  0  0  0  0  0  0  0  0  0  0  0
  185.3510  175.0130  137.5820 C   0  0  0  0  0  2  0  0  0  0  0  0
  186.1550  173.7920  137.1610 C   0  0  0  0  0  1  0  0  0  0  0  0
  1  9  1  0  0  0  0
  1 12  1  0  0  0  0
  2  4  2  0  0  0  0
  5  2  1  6  0  0  0
  5  8  1  0  0  0  0
  6 36  1  0  0  0  0
  6  4  1  0  0  0  0
  7  3  1  0  0  0  0
  8 12  1  1  0  0  0
  8 30  1  0  0  0  0
 10 17  1  0  0  0  0
 10 13  1  0  0  0  0
 11  7  2  0  0  0  0
 13 11  1  1  0  0  0
 13  2  1  0  0  0  0
 14  3  1  6  0  0  0
 14  5  1  0  0  0  0
 14  1  1  0  0  0  0
 15 19  1  6  0  0  0
 15  6  1  0  0  0  0
 16  1  1  0  0  0  0
 17 15  1  0  0  0  0
 18 24  2  0  0  0  0
 18 19  1  0  0  0  0
 19 20  2  0  0  0  0
 20 23  1  0  0  0  0
 22 23  2  0  0  0  0
 23 21  1  0  0  0  0
 24 22  1  0  0  0  0
 25 26  1  0  0  0  0
 26 34  1  6  0  0  0
 26 27  1  0  0  0  0
 28 29  1  0  0  0  0
 29 31  1  1  0  0  0
 29 27  1  0  0  0  0
 30 28  1  1  0  0  0
 30 25  1  0  0  0  0
 31 32  1  6  0  0  0
 31 33  1  0  0  0  0
 34 35  2  0  0  0  0
 37 36  1  0  0  0  0
M  END
>  <MODEL>
3

>  <REMARK>
 VINA RESULT:      -4.8      3.498      8.042
  Name = 
  5 active torsions:
  status: ('A' for Active; 'I' for Inactive)
    1  A    between atoms: C_5  and  N_12
    2  A    between atoms: C_6  and  C_31
    3  A    between atoms: C_7  and  N_14
    4  A    between atoms: C_11  and  C_33
    5  A    between atoms: N_20  and  C_36
                            x       y       z     vdW  Elec       q    Type
                         _______ _______ _______ _____ _____    ______ ____

>  <TORSDO>
F 5

$$$$
=
 OpenBabel11052415183D

 37 41  0  0  1  0  0  0  0  0999 V2000
  183.4120  171.9010  135.8930 C   0  0  0  0  0  0  0  0  0  0  0  0
  181.6550  175.1490  136.4110 C   0  0  0  0  0  0  0  0  0  0  0  0
  180.8840  172.3820  136.3300 C   0  0  0  0  0  2  0  0  0  0  0  0
  182.1130  175.8900  137.4340 C   0  0  0  0  0  3  0  0  0  0  0  0
  182.6190  174.2050  135.6860 C   0  0  1  0  0  3  0  0  0  0  0  0
  181.3360  176.9180  138.0680 N   0  0  0  0  0  0  0  0  0  0  0  0
  179.7810  172.8250  135.4550 C   0  0  0  0  0  3  0  0  0  0  0  0
  183.9890  174.2620  136.2200 N   0  0  1  0  0  0  0  0  0  0  0  0
  183.8840  171.2480  134.5940 C   0  0  0  0  0  1  0  0  0  0  0  0
  179.8540  176.5840  135.3740 C   0  0  0  0  0  2  0  0  0  0  0  0
  179.5180  174.1240  135.2770 C   0  0  0  0  0  3  0  0  0  0  0  0
  184.4640  172.8790  136.3700 C   0  0  0  0  0  2  0  0  0  0  0  0
  180.1910  175.2570  136.0190 C   0  0  1  0  0  3  0  0  0  0  0  0
  182.1810  172.7430  135.6010 C   0  0  1  0  0  3  0  0  0  0  0  0
  180.8090  178.0060  137.2160 C   0  0  1  0  0  3  0  0  0  0  0  0
  183.2030  170.8130  136.9560 C   0  0  0  0  0  1  0  0  0  0  0  0
  179.5440  177.5960  136.4540 C   0  0  0  0  0  2  0  0  0  0  0  0
  179.3940  179.5900  138.6030 C   0  0  0  0  0  3  0  0  0  0  0  0
  180.6060  179.3070  137.9330 C   0  0  0  0  0  0  0  0  0  0  0  0
  181.5920  180.2860  137.8460 C   0  0  0  0  0  3  0  0  0  0  0  0
  182.3540  182.4860  138.3440 F   0  0  0  0  0  0  0  0  0  0  0  0
  180.1940  181.8210  139.0960 C   0  0  0  0  0  3  0  0  0  0  0  0
  181.3910  181.5440  138.4280 C   0  0  0  0  0  0  0  0  0  0  0  0
  179.1940  180.8430  139.1870 C   0  0  0  0  0  3  0  0  0  0  0  0
  186.1900  174.4410  134.9080 C   0  0  0  0  0  2  0  0  0  0  0  0
  187.2380  174.6520  136.0100 C   0  0  1  0  0  3  0  0  0  0  0  0
  187.3000  176.1110  136.4620 C   0  0  0  0  0  2  0  0  0  0  0  0
  184.9410  176.5040  135.6920 C   0  0  0  0  0  2  0  0  0  0  0  0
  185.9220  176.6360  136.8690 C   0  0  2  0  0  3  0  0  0  0  0  0
  184.8020  175.0360  135.2530 C   0  0  2  0  0  3  0  0  0  0  0  0
  186.0490  178.0850  137.3510 C   0  0  2  0  0  3  0  0  0  0  0  0
  187.3260  178.7290  136.8450 C   0  0  0  0  0  1  0  0  0  0  0  0
  185.9920  178.1690  138.7310 F   0  0  0  0  0  0  0  0  0  0  0  0
  187.0000  173.7760  137.1250 N   0  0  0  0  0  0  0  0  0  0  0  0
  187.6020  172.7490  137.2270 O   0  0  0  0  0  0  0  0  0  0  0  0
  181.4370  177.0410  139.5210 C   0  0  0  0  0  2  0  0  0  0  0  0
  182.8970  177.0170  139.9480 C   0  0  0  0  0  1  0  0  0  0  0  0
  1 12  1  0  0  0  0
  1 16  1  0  0  0  0
  2  4  2  0  0  0  0
  4  6  1  0  0  0  0
  5  8  1  0  0  0  0
  5  2  1  1  0  0  0
  6 36  1  0  0  0  0
  7  3  1  0  0  0  0
  8 12  1  6  0  0  0
  9  1  1  0  0  0  0
 10 13  1  0  0  0  0
 10 17  1  0  0  0  0
 11  7  2  0  0  0  0
 13 11  1  6  0  0  0
 13  2  1  0  0  0  0
 14  5  1  0  0  0  0
 14  1  1  0  0  0  0
 14  3  1  1  0  0  0
 15 19  1  1  0  0  0
 15  6  1  0  0  0  0
 17 15  1  0  0  0  0
 18 24  1  0  0  0  0
 19 18  2  0  0  0  0
 20 19  1  0  0  0  0
 20 23  2  0  0  0  0
 21 23  1  0  0  0  0
 22 24  2  0  0  0  0
 23 22  1  0  0  0  0
 25 26  1  0  0  0  0
 26 27  1  0  0  0  0
 26 34  1  1  0  0  0
 27 29  1  0  0  0  0
 28 29  1  0  0  0  0
 29 31  1  6  0  0  0
 30 25  1  1  0  0  0
 30 28  1  0  0  0  0
 30  8  1  0  0  0  0
 31 32  1  1  0  0  0
 31 33  1  0  0  0  0
 34 35  2  0  0  0  0
 36 37  1  0  0  0  0
M  END
>  <MODEL>
4

>  <REMARK>
 VINA RESULT:      -4.1      2.424      6.434
  Name = 
  5 active torsions:
  status: ('A' for Active; 'I' for Inactive)
    1  A    between atoms: C_5  and  N_12
    2  A    between atoms: C_6  and  C_31
    3  A    between atoms: C_7  and  N_14
    4  A    between atoms: C_11  and  C_33
    5  A    between atoms: N_20  and  C_36
                            x       y       z     vdW  Elec       q    Type
                         _______ _______ _______ _____ _____    ______ ____

>  <TORSDO>
F 5

$$$$
=
 OpenBabel11052415183D

 37 41  0  0  1  0  0  0  0  0999 V2000
  186.3910  176.8030  135.6530 C   0  0  0  0  0  0  0  0  0  0  0  0
  184.4840  177.8610  138.6780 C   0  0  0  0  0  0  0  0  0  0  0  0
  186.9870  178.5840  137.4660 C   0  0  0  0  0  2  0  0  0  0  0  0
  183.2430  178.3200  138.4400 C   0  0  0  0  0  3  0  0  0  0  0  0
  185.0910  176.8280  137.7240 C   0  0  1  0  0  3  0  0  0  0  0  0
  182.5280  179.1600  139.3590 N   0  0  0  0  0  0  0  0  0  0  0  0
  187.5530  178.4810  138.8260 C   0  0  0  0  0  3  0  0  0  0  0  0
  184.1750  176.4400  136.6390 N   0  0  1  0  0  0  0  0  0  0  0  0
  187.2630  175.5660  135.4370 C   0  0  0  0  0  1  0  0  0  0  0  0
  184.6860  177.9210  141.1940 C   0  0  0  0  0  2  0  0  0  0  0  0
  186.7630  178.3380  139.8950 C   0  0  0  0  0  3  0  0  0  0  0  0
  184.9450  176.4470  135.3870 C   0  0  0  0  0  2  0  0  0  0  0  0
  185.2520  178.3980  139.8740 C   0  0  1  0  0  3  0  0  0  0  0  0
  186.4460  177.1940  137.1210 C   0  0  1  0  0  3  0  0  0  0  0  0
  182.3250  178.6590  140.7350 C   0  0  1  0  0  3  0  0  0  0  0  0
  186.8350  177.9080  134.6820 C   0  0  0  0  0  1  0  0  0  0  0  0
  183.5660  178.8450  141.6160 C   0  0  0  0  0  2  0  0  0  0  0  0
  180.3020  180.1860  140.8000 C   0  0  0  0  0  3  0  0  0  0  0  0
  181.1010  179.1950  141.4130 C   0  0  0  0  0  0  0  0  0  0  0  0
  180.8110  178.7780  142.7090 C   0  0  0  0  0  3  0  0  0  0  0  0
  179.4480  178.9160  144.6580 F   0  0  0  0  0  0  0  0  0  0  0  0
  178.9330  180.3070  142.7930 C   0  0  0  0  0  3  0  0  0  0  0  0
  179.7260  179.3300  143.4030 C   0  0  0  0  0  0  0  0  0  0  0  0
  179.2170  180.7350  141.4890 C   0  0  0  0  0  3  0  0  0  0  0  0
  183.0140  174.3090  135.7970 C   0  0  0  0  0  2  0  0  0  0  0  0
  181.6100  174.8020  135.4190 C   0  0  1  0  0  3  0  0  0  0  0  0
  180.6980  174.9090  136.6410 C   0  0  0  0  0  2  0  0  0  0  0  0
  182.6810  175.1560  138.1640 C   0  0  0  0  0  2  0  0  0  0  0  0
  181.3280  175.7580  137.7460 C   0  0  2  0  0  3  0  0  0  0  0  0
  183.6490  175.0960  136.9710 C   0  0  2  0  0  3  0  0  0  0  0  0
  180.3570  175.8650  138.9260 C   0  0  2  0  0  3  0  0  0  0  0  0
  179.4430  177.0670  138.7860 C   0  0  0  0  0  1  0  0  0  0  0  0
  181.0290  175.9190  140.1340 F   0  0  0  0  0  0  0  0  0  0  0  0
  181.6730  176.0530  134.7120 N   0  0  0  0  0  0  0  0  0  0  0  0
  180.8300  176.8830  134.8730 O   0  0  0  0  0  0  0  0  0  0  0  0
  181.7270  180.2470  138.7970 C   0  0  0  0  0  2  0  0  0  0  0  0
  181.2220  179.8630  137.4140 C   0  0  0  0  0  1  0  0  0  0  0  0
  1 14  1  0  0  0  0
  2 13  1  0  0  0  0
  3  7  1  0  0  0  0
  4  2  2  0  0  0  0
  4  6  1  0  0  0  0
  5  2  1  6  0  0  0
  6 15  1  0  0  0  0
  7 11  2  0  0  0  0
  8 12  1  6  0  0  0
  8 30  1  0  0  0  0
  8  5  1  0  0  0  0
  9  1  1  0  0  0  0
 10 17  1  0  0  0  0
 12  1  1  0  0  0  0
 13 11  1  6  0  0  0
 13 10  1  0  0  0  0
 14  3  1  6  0  0  0
 14  5  1  0  0  0  0
 15 19  1  1  0  0  0
 15 17  1  0  0  0  0
 16  1  1  0  0  0  0
 18 19  2  0  0  0  0
 18 24  1  0  0  0  0
 19 20  1  0  0  0  0
 20 23  2  0  0  0  0
 22 23  1  0  0  0  0
 23 21  1  0  0  0  0
 24 22  2  0  0  0  0
 26 34  1  1  0  0  0
 26 25  1  0  0  0  0
 26 27  1  0  0  0  0
 27 29  1  0  0  0  0
 29 28  1  0  0  0  0
 29 31  1  1  0  0  0
 30 25  1  6  0  0  0
 30 28  1  0  0  0  0
 31 32  1  6  0  0  0
 31 33  1  0  0  0  0
 34 35  2  0  0  0  0
 36  6  1  0  0  0  0
 37 36  1  0  0  0  0
M  END
>  <MODEL>
5

>  <REMARK>
 VINA RESULT:      -4.0      2.882      7.320
  Name = 
  5 active torsions:
  status: ('A' for Active; 'I' for Inactive)
    1  A    between atoms: C_5  and  N_12
    2  A    between atoms: C_6  and  C_31
    3  A    between atoms: C_7  and  N_14
    4  A    between atoms: C_11  and  C_33
    5  A    between atoms: N_20  and  C_36
                            x       y       z     vdW  Elec       q    Type
                         _______ _______ _______ _____ _____    ______ ____

>  <TORSDO>
F 5

$$$$
=
 OpenBabel11052415183D

 37 41  0  0  1  0  0  0  0  0999 V2000
  186.6520  175.9560  135.6040 C   0  0  0  0  0  0  0  0  0  0  0  0
  183.8630  177.4270  137.5960 C   0  0  0  0  0  0  0  0  0  0  0  0
  184.0780  175.9010  135.1700 C   0  0  0  0  0  2  0  0  0  0  0  0
  183.7930  177.0160  138.8730 C   0  0  0  0  0  3  0  0  0  0  0  0
  185.2260  177.4640  136.8990 C   0  0  1  0  0  3  0  0  0  0  0  0
  182.5950  177.1000  139.6600 N   0  0  0  0  0  0  0  0  0  0  0  0
  183.1370  176.8820  134.5950 C   0  0  0  0  0  3  0  0  0  0  0  0
  186.3320  177.0490  137.7770 N   0  0  1  0  0  0  0  0  0  0  0  0
  187.6090  176.6350  134.6240 C   0  0  0  0  0  1  0  0  0  0  0  0
  181.9990  179.1190  137.3960 C   0  0  0  0  0  2  0  0  0  0  0  0
  182.5160  177.7800  135.3670 C   0  0  0  0  0  3  0  0  0  0  0  0
  187.1790  176.1220  137.0130 C   0  0  0  0  0  2  0  0  0  0  0  0
  182.5830  177.8230  136.8780 C   0  0  1  0  0  3  0  0  0  0  0  0
  185.3220  176.6930  135.5830 C   0  0  1  0  0  3  0  0  0  0  0  0
  181.9650  178.4290  139.8150 C   0  0  1  0  0  3  0  0  0  0  0  0
  186.5580  174.4610  135.2640 C   0  0  0  0  0  1  0  0  0  0  0  0
  181.1260  178.8260  138.5950 C   0  0  0  0  0  2  0  0  0  0  0  0
  179.7790  178.7490  141.0590 C   0  0  0  0  0  3  0  0  0  0  0  0
  181.1830  178.5970  141.0820 C   0  0  0  0  0  0  0  0  0  0  0  0
  181.8690  178.7060  142.2880 C   0  0  0  0  0  3  0  0  0  0  0  0
  181.8460  179.0560  144.6440 F   0  0  0  0  0  0  0  0  0  0  0  0
  179.7820  179.1010  143.4540 C   0  0  0  0  0  3  0  0  0  0  0  0
  181.1730  178.9560  143.4780 C   0  0  0  0  0  0  0  0  0  0  0  0
  179.0820  178.9950  142.2440 C   0  0  0  0  0  3  0  0  0  0  0  0
  188.5570  178.3320  137.7970 C   0  0  0  0  0  2  0  0  0  0  0  0
  189.4490  177.4700  138.7010 C   0  0  1  0  0  3  0  0  0  0  0  0
  189.1890  177.7440  140.1820 C   0  0  0  0  0  2  0  0  0  0  0  0
  186.8700  178.5690  139.6760 C   0  0  0  0  0  2  0  0  0  0  0  0
  187.7070  177.6020  140.5330 C   0  0  2  0  0  3  0  0  0  0  0  0
  187.0560  178.2770  138.1780 C   0  0  2  0  0  3  0  0  0  0  0  0
  187.5110  177.8460  142.0330 C   0  0  2  0  0  3  0  0  0  0  0  0
  186.2250  178.6010  142.3080 C   0  0  0  0  0  1  0  0  0  0  0  0
  188.5850  178.5240  142.5820 F   0  0  0  0  0  0  0  0  0  0  0  0
  189.2950  176.0720  138.4000 N   0  0  0  0  0  0  0  0  0  0  0  0
  190.2480  175.3550  138.3500 O   0  0  0  0  0  0  0  0  0  0  0  0
  182.2980  175.9840  140.5570 C   0  0  0  0  0  2  0  0  0  0  0  0
  181.0720  175.2290  140.0640 C   0  0  0  0  0  1  0  0  0  0  0  0
  1 12  1  0  0  0  0
  2  4  2  0  0  0  0
  4  6  1  0  0  0  0
  5  2  1  1  0  0  0
  5  8  1  0  0  0  0
  6 15  1  0  0  0  0
  6 36  1  0  0  0  0
  7  3  1  0  0  0  0
  7 11  2  0  0  0  0
  8 12  1  6  0  0  0
  8 30  1  0  0  0  0
  9  1  1  0  0  0  0
 10 17  1  0  0  0  0
 13 11  1  6  0  0  0
 13 10  1  0  0  0  0
 13  2  1  0  0  0  0
 14  3  1  1  0  0  0
 14  1  1  0  0  0  0
 14  5  1  0  0  0  0
 15 19  1  1  0  0  0
 16  1  1  0  0  0  0
 17 15  1  0  0  0  0
 18 19  2  0  0  0  0
 18 24  1  0  0  0  0
 19 20  1  0  0  0  0
 20 23  2  0  0  0  0
 22 23  1  0  0  0  0
 23 21  1  0  0  0  0
 24 22  2  0  0  0  0
 25 26  1  0  0  0  0
 26 34  1  1  0  0  0
 26 27  1  0  0  0  0
 27 29  1  0  0  0  0
 28 29  1  0  0  0  0
 29 31  1  1  0  0  0
 30 25  1  1  0  0  0
 30 28  1  0  0  0  0
 31 32  1  6  0  0  0
 31 33  1  0  0  0  0
 35 34  2  0  0  0  0
 37 36  1  0  0  0  0
M  END
>  <MODEL>
6

>  <REMARK>
 VINA RESULT:      -3.9      3.347      7.429
  Name = 
  5 active torsions:
  status: ('A' for Active; 'I' for Inactive)
    1  A    between atoms: C_5  and  N_12
    2  A    between atoms: C_6  and  C_31
    3  A    between atoms: C_7  and  N_14
    4  A    between atoms: C_11  and  C_33
    5  A    between atoms: N_20  and  C_36
                            x       y       z     vdW  Elec       q    Type
                         _______ _______ _______ _____ _____    ______ ____

>  <TORSDO>
F 5

$$$$
=
 OpenBabel11052415183D

 37 41  0  0  1  0  0  0  0  0999 V2000
  186.9740  174.4060  136.0400 C   0  0  0  0  0  0  0  0  0  0  0  0
  184.8530  177.0900  137.5230 C   0  0  0  0  0  0  0  0  0  0  0  0
  187.5170  176.9240  136.4600 C   0  0  0  0  0  2  0  0  0  0  0  0
  183.6830  177.3060  136.8970 C   0  0  0  0  0  3  0  0  0  0  0  0
  185.4720  175.6900  137.4800 C   0  0  1  0  0  3  0  0  0  0  0  0
  182.9450  178.5320  137.0160 N   0  0  0  0  0  0  0  0  0  0  0  0
  187.9290  177.6750  137.6620 C   0  0  0  0  0  3  0  0  0  0  0  0
  184.6460  174.7180  136.7450 N   0  0  1  0  0  0  0  0  0  0  0  0
  187.7640  173.2960  136.7340 C   0  0  0  0  0  1  0  0  0  0  0  0
  184.7980  178.6760  139.4870 C   0  0  0  0  0  2  0  0  0  0  0  0
  187.0240  178.2150  138.4850 C   0  0  0  0  0  3  0  0  0  0  0  0
  185.5400  173.9590  135.8580 C   0  0  0  0  0  2  0  0  0  0  0  0
  185.5330  178.2470  138.2360 C   0  0  1  0  0  3  0  0  0  0  0  0
  186.9070  175.6120  136.9610 C   0  0  1  0  0  3  0  0  0  0  0  0
  182.5620  178.9760  138.3730 C   0  0  1  0  0  3  0  0  0  0  0  0
  187.6020  174.6870  134.6660 C   0  0  0  0  0  1  0  0  0  0  0  0
  183.7160  179.6640  139.1130 C   0  0  0  0  0  2  0  0  0  0  0  0
  180.0940  179.2760  138.8740 C   0  0  0  0  0  3  0  0  0  0  0  0
  181.3200  179.8130  138.4200 C   0  0  0  0  0  0  0  0  0  0  0  0
  181.3600  181.1080  137.9110 C   0  0  0  0  0  3  0  0  0  0  0  0
  180.2420  183.1400  137.3670 F   0  0  0  0  0  0  0  0  0  0  0  0
  178.9830  181.3520  138.3120 C   0  0  0  0  0  3  0  0  0  0  0  0
  180.1940  181.8830  137.8570 C   0  0  0  0  0  0  0  0  0  0  0  0
  178.9310  180.0480  138.8240 C   0  0  0  0  0  3  0  0  0  0  0  0
  183.4520  172.4980  137.2340 C   0  0  0  0  0  2  0  0  0  0  0  0
  182.1490  172.6180  136.4320 C   0  0  1  0  0  3  0  0  0  0  0  0
  181.0960  173.4370  137.1780 C   0  0  0  0  0  2  0  0  0  0  0  0
  182.8770  174.6210  138.4970 C   0  0  0  0  0  2  0  0  0  0  0  0
  181.6380  174.8030  137.6040 C   0  0  2  0  0  3  0  0  0  0  0  0
  183.9850  173.8570  137.7520 C   0  0  2  0  0  3  0  0  0  0  0  0
  180.5320  175.5950  138.3090 C   0  0  2  0  0  3  0  0  0  0  0  0
  180.8600  175.8230  139.7720 C   0  0  0  0  0  1  0  0  0  0  0  0
  179.3040  174.9690  138.1910 F   0  0  0  0  0  0  0  0  0  0  0  0
  182.3940  173.1630  135.1240 N   0  0  0  0  0  0  0  0  0  0  0  0
  181.5890  173.8760  134.6040 O   0  0  0  0  0  0  0  0  0  0  0  0
  182.2950  179.0470  135.8110 C   0  0  0  0  0  2  0  0  0  0  0  0
  181.3700  177.9910  135.2240 C   0  0  0  0  0  1  0  0  0  0  0  0
  1  9  1  0  0  0  0
  1 14  1  0  0  0  0
  2 13  1  0  0  0  0
  3  7  1  0  0  0  0
  4  6  1  0  0  0  0
  4  2  2  0  0  0  0
  5  2  1  6  0  0  0
  6 15  1  0  0  0  0
  7 11  2  0  0  0  0
  8 12  1  6  0  0  0
  8  5  1  0  0  0  0
  8 30  1  0  0  0  0
 12  1  1  0  0  0  0
 13 11  1  1  0  0  0
 13 10  1  0  0  0  0
 14  3  1  6  0  0  0
 14  5  1  0  0  0  0
 15 19  1  6  0  0  0
 15 17  1  0  0  0  0
 16  1  1  0  0  0  0
 17 10  1  0  0  0  0
 19 18  2  0  0  0  0
 20 19  1  0  0  0  0
 21 23  1  0  0  0  0
 22 24  2  0  0  0  0
 23 20  2  0  0  0  0
 23 22  1  0  0  0  0
 24 18  1  0  0  0  0
 26 34  1  6  0  0  0
 26 27  1  0  0  0  0
 26 25  1  0  0  0  0
 27 29  1  0  0  0  0
 29 31  1  1  0  0  0
 29 28  1  0  0  0  0
 30 25  1  6  0  0  0
 30 28  1  0  0  0  0
 31 32  1  1  0  0  0
 33 31  1  0  0  0  0
 35 34  2  0  0  0  0
 36  6  1  0  0  0  0
 37 36  1  0  0  0  0
M  END
>  <MODEL>
7

>  <REMARK>
 VINA RESULT:      -3.6      2.822      6.951
  Name = 
  5 active torsions:
  status: ('A' for Active; 'I' for Inactive)
    1  A    between atoms: C_5  and  N_12
    2  A    between atoms: C_6  and  C_31
    3  A    between atoms: C_7  and  N_14
    4  A    between atoms: C_11  and  C_33
    5  A    between atoms: N_20  and  C_36
                            x       y       z     vdW  Elec       q    Type
                         _______ _______ _______ _____ _____    ______ ____

>  <TORSDO>
F 5

$$$$
=
 OpenBabel11052415183D

 37 41  0  0  1  0  0  0  0  0999 V2000
  182.4810  177.6450  139.4660 C   0  0  0  0  0  0  0  0  0  0  0  0
  184.4580  178.3350  142.5510 C   0  0  0  0  0  0  0  0  0  0  0  0
  181.7200  177.6910  141.9620 C   0  0  0  0  0  2  0  0  0  0  0  0
  185.5140  177.5270  142.7460 C   0  0  0  0  0  3  0  0  0  0  0  0
  183.9940  178.6210  141.1200 C   0  0  1  0  0  3  0  0  0  0  0  0
  186.1240  177.3280  144.0310 N   0  0  0  0  0  0  0  0  0  0  0  0
  181.3750  178.7900  142.8860 C   0  0  0  0  0  3  0  0  0  0  0  0
  184.8280  177.9610  140.1020 N   0  0  1  0  0  0  0  0  0  0  0  0
  181.9050  178.6230  138.4410 C   0  0  0  0  0  1  0  0  0  0  0  0
  184.5730  179.9670  144.4740 C   0  0  0  0  0  2  0  0  0  0  0  0
  182.3070  179.3750  143.6450 C   0  0  0  0  0  3  0  0  0  0  0  0
  183.9230  177.3500  139.1180 C   0  0  0  0  0  2  0  0  0  0  0  0
  183.7460  178.9220  143.7580 C   0  0  1  0  0  3  0  0  0  0  0  0
  182.5250  178.3250  140.8240 C   0  0  1  0  0  3  0  0  0  0  0  0
  186.6150  178.5220  144.7520 C   0  0  1  0  0  3  0  0  0  0  0  0
  181.6670  176.3430  139.4300 C   0  0  0  0  0  1  0  0  0  0  0  0
  185.4890  179.2820  145.4640 C   0  0  0  0  0  2  0  0  0  0  0  0
  189.0390  177.9260  145.1960 C   0  0  0  0  0  3  0  0  0  0  0  0
  187.7550  178.2530  145.6860 C   0  0  0  0  0  0  0  0  0  0  0  0
  187.5120  178.2260  147.0560 C   0  0  0  0  0  3  0  0  0  0  0  0
  188.2930  177.8690  149.2770 F   0  0  0  0  0  0  0  0  0  0  0  0
  189.8080  177.5700  147.4630 C   0  0  0  0  0  3  0  0  0  0  0  0
  188.5360  177.8870  147.9500 C   0  0  0  0  0  0  0  0  0  0  0  0
  190.0630  177.5910  146.0850 C   0  0  0  0  0  3  0  0  0  0  0  0
  185.9500  178.8760  137.9810 C   0  0  0  0  0  2  0  0  0  0  0  0
  186.9610  177.7790  137.6200 C   0  0  1  0  0  3  0  0  0  0  0  0
  188.2440  177.8970  138.4420 C   0  0  0  0  0  2  0  0  0  0  0  0
  187.0250  179.1240  140.2640 C   0  0  0  0  0  2  0  0  0  0  0  0
  187.9530  177.9400  139.9420 C   0  0  2  0  0  3  0  0  0  0  0  0
  185.6940  179.0020  139.5040 C   0  0  2  0  0  3  0  0  0  0  0  0
  189.2730  178.0160  140.7170 C   0  0  2  0  0  3  0  0  0  0  0  0
  190.0920  176.7520  140.5460 C   0  0  0  0  0  1  0  0  0  0  0  0
  189.0590  178.2630  142.0620 F   0  0  0  0  0  0  0  0  0  0  0  0
  186.3790  176.4720  137.7570 N   0  0  0  0  0  0  0  0  0  0  0  0
  186.8730  175.5290  137.2150 O   0  0  0  0  0  0  0  0  0  0  0  0
  186.5660  175.9750  144.3660 C   0  0  0  0  0  2  0  0  0  0  0  0
  187.8270  175.6300  143.5870 C   0  0  0  0  0  1  0  0  0  0  0  0
  1 14  1  0  0  0  0
  2  4  2  0  0  0  0
  2 13  1  0  0  0  0
  3  7  1  0  0  0  0
  4  6  1  0  0  0  0
  5  2  1  1  0  0  0
  6 36  1  0  0  0  0
  6 15  1  0  0  0  0
  7 11  2  0  0  0  0
  8 12  1  6  0  0  0
  8  5  1  0  0  0  0
  9  1  1  0  0  0  0
 10 17  1  0  0  0  0
 12  1  1  0  0  0  0
 13 11  1  6  0  0  0
 13 10  1  0  0  0  0
 14  5  1  0  0  0  0
 14  3  1  1  0  0  0
 15 17  1  0  0  0  0
 15 19  1  1  0  0  0
 16  1  1  0  0  0  0
 18 19  2  0  0  0  0
 18 24  1  0  0  0  0
 19 20  1  0  0  0  0
 20 23  2  0  0  0  0
 22 23  1  0  0  0  0
 23 21  1  0  0  0  0
 24 22  2  0  0  0  0
 26 34  1  1  0  0  0
 26 25  1  0  0  0  0
 26 27  1  0  0  0  0
 27 29  1  0  0  0  0
 29 28  1  0  0  0  0
 29 31  1  1  0  0  0
 30 25  1  6  0  0  0
 30  8  1  0  0  0  0
 30 28  1  0  0  0  0
 31 32  1  1  0  0  0
 31 33  1  0  0  0  0
 35 34  2  0  0  0  0
 37 36  1  0  0  0  0
M  END
>  <MODEL>
8

>  <REMARK>
 VINA RESULT:      -3.6      4.908      7.801
  Name = 
  5 active torsions:
  status: ('A' for Active; 'I' for Inactive)
    1  A    between atoms: C_5  and  N_12
    2  A    between atoms: C_6  and  C_31
    3  A    between atoms: C_7  and  N_14
    4  A    between atoms: C_11  and  C_33
    5  A    between atoms: N_20  and  C_36
                            x       y       z     vdW  Elec       q    Type
                         _______ _______ _______ _____ _____    ______ ____

>  <TORSDO>
F 5

$$$$
=
 OpenBabel11052415183D

 37 41  0  0  1  0  0  0  0  0999 V2000
  186.2450  177.2190  137.4820 C   0  0  0  0  0  0  0  0  0  0  0  0
  186.3650  178.0990  141.1040 C   0  0  0  0  0  0  0  0  0  0  0  0
  184.2990  177.4940  139.2000 C   0  0  0  0  0  2  0  0  0  0  0  0
  187.1050  177.2780  141.8680 C   0  0  0  0  0  3  0  0  0  0  0  0
  186.7370  178.2800  139.6290 C   0  0  1  0  0  3  0  0  0  0  0  0
  186.9380  177.1670  143.2900 N   0  0  0  0  0  0  0  0  0  0  0  0
  183.6000  178.6760  139.7430 C   0  0  0  0  0  3  0  0  0  0  0  0
  187.9310  177.5120  139.2390 N   0  0  1  0  0  0  0  0  0  0  0  0
  186.3590  178.1270  136.2570 C   0  0  0  0  0  1  0  0  0  0  0  0
  185.5730  179.8800  142.7090 C   0  0  0  0  0  2  0  0  0  0  0  0
  184.0380  179.2920  140.8460 C   0  0  0  0  0  3  0  0  0  0  0  0
  187.6330  176.8510  137.9610 C   0  0  0  0  0  2  0  0  0  0  0  0
  185.1710  178.8060  141.7230 C   0  0  1  0  0  3  0  0  0  0  0  0
  185.6220  178.0070  138.6220 C   0  0  1  0  0  3  0  0  0  0  0  0
  187.0630  178.4000  144.0950 C   0  0  1  0  0  3  0  0  0  0  0  0
  185.4810  175.9440  137.0950 C   0  0  0  0  0  1  0  0  0  0  0  0
  185.7870  179.2510  144.0670 C   0  0  0  0  0  2  0  0  0  0  0  0
  186.6640  178.3960  146.6000 C   0  0  0  0  0  3  0  0  0  0  0  0
  187.5260  178.1740  145.5030 C   0  0  0  0  0  0  0  0  0  0  0  0
  188.8580  177.8380  145.7280 C   0  0  0  0  0  3  0  0  0  0  0  0
  190.6350  177.3780  147.2450 F   0  0  0  0  0  0  0  0  0  0  0  0
  188.4880  177.9240  148.1210 C   0  0  0  0  0  3  0  0  0  0  0  0
  189.3440  177.7100  147.0360 C   0  0  0  0  0  0  0  0  0  0  0  0
  187.1450  178.2650  147.9050 C   0  0  0  0  0  3  0  0  0  0  0  0
  190.1870  178.0800  138.1510 C   0  0  0  0  0  2  0  0  0  0  0  0
  191.1240  176.9970  138.7050 C   0  0  1  0  0  3  0  0  0  0  0  0
  191.6260  177.3430  140.1070 C   0  0  0  0  0  2  0  0  0  0  0  0
  189.6300  178.8150  140.5140 C   0  0  0  0  0  2  0  0  0  0  0  0
  190.4710  177.6480  141.0620 C   0  0  2  0  0  3  0  0  0  0  0  0
  189.0520  178.4730  139.1300 C   0  0  2  0  0  3  0  0  0  0  0  0
  191.0270  177.9470  142.4580 C   0  0  2  0  0  3  0  0  0  0  0  0
  191.4180  176.6750  143.1840 C   0  0  0  0  0  1  0  0  0  0  0  0
  190.1270  178.6700  143.2200 F   0  0  0  0  0  0  0  0  0  0  0  0
  190.4910  175.7060  138.6880 N   0  0  0  0  0  0  0  0  0  0  0  0
  190.8090  174.8870  137.8790 O   0  0  0  0  0  0  0  0  0  0  0  0
  187.0450  175.8330  143.8800 C   0  0  0  0  0  2  0  0  0  0  0  0
  188.3230  175.1540  143.4100 C   0  0  0  0  0  1  0  0  0  0  0  0
  1 12  1  0  0  0  0
  1 14  1  0  0  0  0
  2 13  1  0  0  0  0
  2  4  2  0  0  0  0
  3  7  1  0  0  0  0
  4  6  1  0  0  0  0
  5  2  1  1  0  0  0
  6 36  1  0  0  0  0
  6 15  1  0  0  0  0
  7 11  2  0  0  0  0
  8 12  1  6  0  0  0
  8  5  1  0  0  0  0
  9  1  1  0  0  0  0
 10 17  1  0  0  0  0
 13 11  1  6  0  0  0
 13 10  1  0  0  0  0
 14  3  1  1  0  0  0
 14  5  1  0  0  0  0
 15 19  1  1  0  0  0
 16  1  1  0  0  0  0
 17 15  1  0  0  0  0
 18 24  1  0  0  0  0
 19 20  1  0  0  0  0
 19 18  2  0  0  0  0
 20 23  2  0  0  0  0
 23 21  1  0  0  0  0
 23 22  1  0  0  0  0
 24 22  2  0  0  0  0
 25 26  1  0  0  0  0
 26 34  1  1  0  0  0
 26 27  1  0  0  0  0
 27 29  1  0  0  0  0
 28 29  1  0  0  0  0
 29 31  1  1  0  0  0
 30 25  1  6  0  0  0
 30  8  1  0  0  0  0
 30 28  1  0  0  0  0
 31 32  1  1  0  0  0
 31 33  1  0  0  0  0
 35 34  2  0  0  0  0
 37 36  1  0  0  0  0
M  END
>  <MODEL>
9

>  <REMARK>
 VINA RESULT:      -3.4      4.983      8.523
  Name = 
  5 active torsions:
  status: ('A' for Active; 'I' for Inactive)
    1  A    between atoms: C_5  and  N_12
    2  A    between atoms: C_6  and  C_31
    3  A    between atoms: C_7  and  N_14
    4  A    between atoms: C_11  and  C_33
    5  A    between atoms: N_20  and  C_36
                            x       y       z     vdW  Elec       q    Type
                         _______ _______ _______ _____ _____    ______ ____

>  <TORSDO>
F 5

$$$$
