=
 OpenBabel11052416533D

 32 37  0  0  1  0  0  0  0  0999 V2000
  185.3060  178.9250  141.4920 C   0  0  1  0  0  3  0  0  0  0  0  0
  180.9630  177.7080  140.0260 C   0  0  0  0  0  2  0  0  0  0  0  0
  181.9740  176.5810  140.1910 C   0  0  0  0  0  2  0  0  0  0  0  0
  187.3630  178.5310  140.0600 C   0  0  2  0  0  3  0  0  0  0  0  0
  187.8460  178.2680  138.6660 C   0  0  0  0  0  0  0  0  0  0  0  0
  185.2800  178.3450  143.9090 C   0  0  0  0  0  0  0  0  0  0  0  0
  183.1910  178.9960  142.8550 C   0  0  0  0  0  3  0  0  0  0  0  0
  187.7340  177.8990  136.3720 C   0  0  0  0  0  0  0  0  0  0  0  0
  181.5290  179.0320  140.5510 C   0  0  0  0  0  2  0  0  0  0  0  0
  183.8280  178.8900  141.5670 N   0  0  0  0  0  0  0  0  0  0  0  0
  183.0540  179.1930  140.3530 C   0  0  1  0  0  3  0  0  0  0  0  0
  185.0480  178.5900  138.9820 C   0  0  2  0  0  3  0  0  0  0  0  0
  189.1130  178.0660  136.4890 C   0  0  0  0  0  3  0  0  0  0  0  0
  183.8660  178.7410  143.9740 C   0  0  0  0  0  3  0  0  0  0  0  0
  189.4300  178.3690  138.1190 S   0  0  0  0  0  0  0  0  0  0  0  0
  183.2320  176.8430  139.3570 C   0  0  0  0  0  2  0  0  0  0  0  0
  183.5550  178.3440  139.1800 C   0  0  1  0  0  3  0  0  0  0  0  0
  185.5490  177.8700  137.7250 C   0  0  0  0  0  2  0  0  0  0  0  0
  185.9360  178.3740  142.7480 C   0  0  0  0  0  3  0  0  0  0  0  0
  188.1260  177.7790  140.9570 O   0  0  0  0  0  1  0  0  0  0  0  0
  187.0810  177.6120  135.0640 C   0  0  0  0  0  1  0  0  0  0  0  0
  185.8610  178.2040  140.2420 C   0  0  2  0  0  3  0  0  0  0  0  0
  187.0280  178.0330  137.5760 C   0  0  0  0  0  0  0  0  0  0  0  0
  185.9590  177.8280  145.1280 C   0  0  0  0  0  2  0  0  0  0  0  0
  187.3680  177.3790  144.7910 C   0  0  0  0  0  2  0  0  0  0  0  0
  188.3230  177.8420  145.8720 C   0  0  2  0  0  3  0  0  0  0  0  0
  189.5240  178.2690  145.2750 O   0  0  0  0  0  0  0  0  0  0  0  0
  189.5330  176.9920  145.8650 C   0  0  1  0  0  3  0  0  0  0  0  0
  190.2270  177.0710  147.2120 C   0  0  0  0  0  2  0  0  0  0  0  0
  191.5530  176.4870  147.1200 N   0  0  0  0  0  0  0  0  0  0  0  0
  192.0230  176.0520  145.9030 O   0  0  0  0  0  0  0  0  0  0  0  0
  192.3290  176.5500  148.0950 O   0  0  0  0  0  0  0  0  0  0  0  0
  1 10  1  0  0  0  0
  1 19  1  1  0  0  0
  2  3  1  0  0  0  0
  2  9  1  0  0  0  0
  4 22  1  0  0  0  0
  4 20  1  1  0  0  0
  5  4  1  0  0  0  0
  6 14  1  0  0  0  0
  6 24  1  0  0  0  0
  7 14  2  0  0  0  0
  8 13  2  0  0  0  0
  8 23  1  0  0  0  0
 10  7  1  0  0  0  0
 11  9  1  1  0  0  0
 11 10  1  0  0  0  0
 12 18  1  6  0  0  0
 12 17  1  0  0  0  0
 12 22  1  0  0  0  0
 13 15  1  0  0  0  0
 15  5  1  0  0  0  0
 16  3  1  0  0  0  0
 17 16  1  1  0  0  0
 17 11  1  0  0  0  0
 19  6  2  0  0  0  0
 21  8  1  0  0  0  0
 22  1  1  0  0  0  0
 23 18  1  0  0  0  0
 23  5  2  0  0  0  0
 25 24  1  0  0  0  0
 25 26  1  0  0  0  0
 27 28  1  0  0  0  0
 27 26  1  0  0  0  0
 28 26  1  0  0  0  0
 28 29  1  0  0  0  0
 30 29  1  0  0  0  0
 30 32  2  0  0  0  0
 31 30  2  0  0  0  0
M  END
>  <MODEL>
1

>  <REMARK>
 VINA RESULT:      -8.7      0.000      0.000
  Name = 
  5 active torsions:
  status: ('A' for Active; 'I' for Inactive)
    1  A    between atoms: N_1  and  C_10
    2  A    between atoms: C_2  and  C_19
    3  A    between atoms: C_8  and  C_23
    4  A    between atoms: C_10  and  C_24
    5  A    between atoms: C_19  and  C_23
                            x       y       z     vdW  Elec       q    Type
                         _______ _______ _______ _____ _____    ______ ____

>  <TORSDO>
F 5

$$$$
=
 OpenBabel11052416533D

 32 37  0  0  1  0  0  0  0  0999 V2000
  187.8380  177.2230  142.4470 C   0  0  1  0  0  3  0  0  0  0  0  0
  191.5400  177.5250  145.3960 C   0  0  0  0  0  2  0  0  0  0  0  0
  191.2670  178.7320  144.5090 C   0  0  0  0  0  2  0  0  0  0  0  0
  188.1200  177.3300  139.9280 C   0  0  2  0  0  3  0  0  0  0  0  0
  189.1000  177.1830  138.8030 C   0  0  0  0  0  0  0  0  0  0  0  0
  186.0700  178.5280  143.6090 C   0  0  0  0  0  0  0  0  0  0  0  0
  187.7430  177.3950  144.9570 C   0  0  0  0  0  3  0  0  0  0  0  0
  191.1360  176.8020  137.7450 C   0  0  0  0  0  0  0  0  0  0  0  0
  190.4180  176.4880  145.2700 C   0  0  0  0  0  2  0  0  0  0  0  0
  188.5120  177.1470  143.7630 N   0  0  0  0  0  0  0  0  0  0  0  0
  189.7820  176.4100  143.8630 C   0  0  1  0  0  3  0  0  0  0  0  0
  190.1110  176.7290  141.4110 C   0  0  2  0  0  3  0  0  0  0  0  0
  190.3130  176.8040  136.6200 C   0  0  0  0  0  3  0  0  0  0  0  0
  186.5840  178.0470  144.9000 C   0  0  0  0  0  3  0  0  0  0  0  0
  188.7370  177.0580  137.1690 S   0  0  0  0  0  0  0  0  0  0  0  0
  191.2470  178.3350  143.0300 C   0  0  0  0  0  2  0  0  0  0  0  0
  190.7580  176.8900  142.7840 C   0  0  1  0  0  3  0  0  0  0  0  0
  191.1140  177.0600  140.3020 C   0  0  0  0  0  2  0  0  0  0  0  0
  186.6830  178.1940  142.4730 C   0  0  0  0  0  3  0  0  0  0  0  0
  187.2550  178.3900  139.6460 O   0  0  0  0  0  1  0  0  0  0  0  0
  192.6090  176.6050  137.6460 C   0  0  0  0  0  1  0  0  0  0  0  0
  188.8110  177.5610  141.2940 C   0  0  2  0  0  3  0  0  0  0  0  0
  190.4600  176.9900  138.9590 C   0  0  0  0  0  0  0  0  0  0  0  0
  184.9100  179.4590  143.5770 C   0  0  0  0  0  2  0  0  0  0  0  0
  183.6180  178.6780  143.4270 C   0  0  0  0  0  2  0  0  0  0  0  0
  182.8170  179.2370  142.2680 C   0  0  2  0  0  3  0  0  0  0  0  0
  181.7790  178.3420  141.9500 O   0  0  0  0  0  0  0  0  0  0  0  0
  182.9080  178.3200  141.1120 C   0  0  1  0  0  3  0  0  0  0  0  0
  182.5920  179.0700  139.8320 C   0  0  0  0  0  2  0  0  0  0  0  0
  183.7840  179.1700  139.0090 N   0  0  0  0  0  0  0  0  0  0  0  0
  184.0070  178.2450  138.0170 O   0  0  0  0  0  0  0  0  0  0  0  0
  184.5020  180.1870  139.0780 O   0  0  0  0  0  0  0  0  0  0  0  0
  1 19  1  1  0  0  0
  1 10  1  0  0  0  0
  3  2  1  0  0  0  0
  4 20  1  6  0  0  0
  4 22  1  0  0  0  0
  5 23  2  0  0  0  0
  5  4  1  0  0  0  0
  6 14  1  0  0  0  0
  8 23  1  0  0  0  0
  9  2  1  0  0  0  0
 10 11  1  0  0  0  0
 10  7  1  0  0  0  0
 11  9  1  1  0  0  0
 12 18  1  6  0  0  0
 12 17  1  0  0  0  0
 13 15  1  0  0  0  0
 13  8  2  0  0  0  0
 14  7  2  0  0  0  0
 15  5  1  0  0  0  0
 16  3  1  0  0  0  0
 17 16  1  1  0  0  0
 17 11  1  0  0  0  0
 19  6  2  0  0  0  0
 21  8  1  0  0  0  0
 22 12  1  0  0  0  0
 22  1  1  0  0  0  0
 23 18  1  0  0  0  0
 24  6  1  0  0  0  0
 25 24  1  0  0  0  0
 26 25  1  0  0  0  0
 27 26  1  0  0  0  0
 28 27  1  0  0  0  0
 28 26  1  0  0  0  0
 29 28  1  0  0  0  0
 30 32  2  0  0  0  0
 30 29  1  0  0  0  0
 31 30  2  0  0  0  0
M  END
>  <MODEL>
2

>  <REMARK>
 VINA RESULT:      -8.5      3.212      6.979
  Name = 
  5 active torsions:
  status: ('A' for Active; 'I' for Inactive)
    1  A    between atoms: N_1  and  C_10
    2  A    between atoms: C_2  and  C_19
    3  A    between atoms: C_8  and  C_23
    4  A    between atoms: C_10  and  C_24
    5  A    between atoms: C_19  and  C_23
                            x       y       z     vdW  Elec       q    Type
                         _______ _______ _______ _____ _____    ______ ____

>  <TORSDO>
F 5

$$$$
=
 OpenBabel11052416533D

 32 37  0  0  1  0  0  0  0  0999 V2000
  187.8020  177.2770  142.2910 C   0  0  1  0  0  3  0  0  0  0  0  0
  191.3590  177.6240  145.4090 C   0  0  0  0  0  2  0  0  0  0  0  0
  191.1370  178.8130  144.4830 C   0  0  0  0  0  2  0  0  0  0  0  0
  188.2050  177.3260  139.7870 C   0  0  2  0  0  3  0  0  0  0  0  0
  189.2370  177.1490  138.7140 C   0  0  0  0  0  0  0  0  0  0  0  0
  185.9880  178.6170  143.3380 C   0  0  0  0  0  0  0  0  0  0  0  0
  187.5870  177.5050  144.7890 C   0  0  0  0  0  3  0  0  0  0  0  0
  191.3190  176.7340  137.7640 C   0  0  0  0  0  0  0  0  0  0  0  0
  190.2370  176.5910  145.2510 C   0  0  0  0  0  2  0  0  0  0  0  0
  188.4110  177.2260  143.6400 N   0  0  0  0  0  0  0  0  0  0  0  0
  189.6700  176.4850  143.8170 C   0  0  1  0  0  3  0  0  0  0  0  0
  190.1180  176.7480  141.3780 C   0  0  2  0  0  3  0  0  0  0  0  0
  190.5520  176.7160  136.6010 C   0  0  0  0  0  3  0  0  0  0  0  0
  186.4360  178.1620  144.6610 C   0  0  0  0  0  3  0  0  0  0  0  0
  188.9530  176.9900  137.0680 S   0  0  0  0  0  0  0  0  0  0  0  0
  191.1850  178.3830  143.0130 C   0  0  0  0  0  2  0  0  0  0  0  0
  190.7000  176.9350  142.7760 C   0  0  1  0  0  3  0  0  0  0  0  0
  191.1760  177.0480  140.3110 C   0  0  0  0  0  2  0  0  0  0  0  0
  186.6530  178.2550  142.2400 C   0  0  0  0  0  3  0  0  0  0  0  0
  187.3620  178.3840  139.4400 O   0  0  0  0  0  1  0  0  0  0  0  0
  192.7950  176.5260  137.7410 C   0  0  0  0  0  1  0  0  0  0  0  0
  188.8310  177.5840  141.1790 C   0  0  2  0  0  3  0  0  0  0  0  0
  190.5870  176.9530  138.9400 C   0  0  0  0  0  0  0  0  0  0  0  0
  184.8370  179.5530  143.2290 C   0  0  0  0  0  2  0  0  0  0  0  0
  183.8780  179.3390  144.3850 C   0  0  0  0  0  2  0  0  0  0  0  0
  182.7220  178.4690  143.9330 C   0  0  2  0  0  3  0  0  0  0  0  0
  182.2620  178.9250  142.6840 O   0  0  0  0  0  0  0  0  0  0  0  0
  181.5000  179.2910  143.8070 C   0  0  1  0  0  3  0  0  0  0  0  0
  180.2710  178.4040  143.8860 C   0  0  0  0  0  2  0  0  0  0  0  0
  179.3190  178.7860  142.8580 N   0  0  0  0  0  0  0  0  0  0  0  0
  179.0060  180.1130  142.6790 O   0  0  0  0  0  0  0  0  0  0  0  0
  178.9310  177.9430  142.0260 O   0  0  0  0  0  0  0  0  0  0  0  0
  1 19  1  1  0  0  0
  1 10  1  0  0  0  0
  3  2  1  0  0  0  0
  4 20  1  6  0  0  0
  4 22  1  0  0  0  0
  5 23  2  0  0  0  0
  5  4  1  0  0  0  0
  6 14  1  0  0  0  0
  8 23  1  0  0  0  0
  9  2  1  0  0  0  0
 10 11  1  0  0  0  0
 10  7  1  0  0  0  0
 11  9  1  1  0  0  0
 12 18  1  6  0  0  0
 12 17  1  0  0  0  0
 13 15  1  0  0  0  0
 13  8  2  0  0  0  0
 14  7  2  0  0  0  0
 15  5  1  0  0  0  0
 16  3  1  0  0  0  0
 17 16  1  1  0  0  0
 17 11  1  0  0  0  0
 19  6  2  0  0  0  0
 21  8  1  0  0  0  0
 22 12  1  0  0  0  0
 22  1  1  0  0  0  0
 23 18  1  0  0  0  0
 24  6  1  0  0  0  0
 24 25  1  0  0  0  0
 26 25  1  0  0  0  0
 27 28  1  0  0  0  0
 27 26  1  0  0  0  0
 28 29  1  0  0  0  0
 28 26  1  0  0  0  0
 30 29  1  0  0  0  0
 31 30  2  0  0  0  0
 32 30  2  0  0  0  0
M  END
>  <MODEL>
3

>  <REMARK>
 VINA RESULT:      -8.4      3.708      7.276
  Name = 
  5 active torsions:
  status: ('A' for Active; 'I' for Inactive)
    1  A    between atoms: N_1  and  C_10
    2  A    between atoms: C_2  and  C_19
    3  A    between atoms: C_8  and  C_23
    4  A    between atoms: C_10  and  C_24
    5  A    between atoms: C_19  and  C_23
                            x       y       z     vdW  Elec       q    Type
                         _______ _______ _______ _____ _____    ______ ____

>  <TORSDO>
F 5

$$$$
=
 OpenBabel11052416533D

 32 37  0  0  1  0  0  0  0  0999 V2000
  188.3190  178.3510  141.0920 C   0  0  1  0  0  3  0  0  0  0  0  0
  191.6870  176.1180  143.5750 C   0  0  0  0  0  2  0  0  0  0  0  0
  190.4460  175.3100  143.2170 C   0  0  0  0  0  2  0  0  0  0  0  0
  185.9820  178.6990  142.0160 C   0  0  2  0  0  3  0  0  0  0  0  0
  185.1560  178.7270  143.2670 C   0  0  0  0  0  0  0  0  0  0  0  0
  188.6870  177.5430  138.7700 C   0  0  0  0  0  0  0  0  0  0  0  0
  190.5990  177.6840  140.2590 C   0  0  0  0  0  3  0  0  0  0  0  0
  184.6620  178.5760  145.5350 C   0  0  0  0  0  0  0  0  0  0  0  0
  191.6650  177.4870  142.8860 C   0  0  0  0  0  2  0  0  0  0  0  0
  189.7000  177.8940  141.3660 N   0  0  0  0  0  0  0  0  0  0  0  0
  190.2520  178.0900  142.7170 C   0  0  1  0  0  3  0  0  0  0  0  0
  187.9240  178.2140  143.6030 C   0  0  2  0  0  3  0  0  0  0  0  0
  183.4530  179.1110  145.0930 C   0  0  0  0  0  3  0  0  0  0  0  0
  190.1340  177.5170  139.0240 C   0  0  0  0  0  3  0  0  0  0  0  0
  183.5960  179.3230  143.4240 S   0  0  0  0  0  0  0  0  0  0  0  0
  189.1760  175.9990  143.7250 C   0  0  0  0  0  2  0  0  0  0  0  0
  189.2830  177.5400  143.7680 C   0  0  1  0  0  3  0  0  0  0  0  0
  186.9760  177.7960  144.7320 C   0  0  0  0  0  2  0  0  0  0  0  0
  187.8370  177.8740  139.7430 C   0  0  0  0  0  3  0  0  0  0  0  0
  185.2400  178.1040  140.9920 O   0  0  0  0  0  1  0  0  0  0  0  0
  184.9050  178.2530  146.9690 C   0  0  0  0  0  1  0  0  0  0  0  0
  187.3220  177.9460  142.2020 C   0  0  2  0  0  3  0  0  0  0  0  0
  185.6160  178.3830  144.5250 C   0  0  0  0  0  0  0  0  0  0  0  0
  188.1610  177.1170  137.4440 C   0  0  0  0  0  2  0  0  0  0  0  0
  186.8370  177.8020  137.1630 C   0  0  0  0  0  2  0  0  0  0  0  0
  185.7440  176.7610  137.0290 C   0  0  2  0  0  3  0  0  0  0  0  0
  184.7150  177.2740  136.2180 O   0  0  0  0  0  0  0  0  0  0  0  0
  184.4870  177.2820  137.6050 C   0  0  1  0  0  3  0  0  0  0  0  0
  183.5670  176.1310  137.9660 C   0  0  0  0  0  2  0  0  0  0  0  0
  182.5780  176.5720  138.9330 N   0  0  0  0  0  0  0  0  0  0  0  0
  181.9180  175.6440  139.7030 O   0  0  0  0  0  0  0  0  0  0  0  0
  182.4630  177.7860  139.1940 O   0  0  0  0  0  0  0  0  0  0  0  0
  1 19  1  6  0  0  0
  1 10  1  0  0  0  0
  1 22  1  0  0  0  0
  3  2  1  0  0  0  0
  3 16  1  0  0  0  0
  4 20  1  6  0  0  0
  4 22  1  0  0  0  0
  4  5  1  0  0  0  0
  5 15  1  0  0  0  0
  5 23  2  0  0  0  0
  6 14  1  0  0  0  0
  6 19  2  0  0  0  0
  7 10  1  0  0  0  0
  8 21  1  0  0  0  0
  9  2  1  0  0  0  0
 10 11  1  0  0  0  0
 11  9  1  6  0  0  0
 11 17  1  0  0  0  0
 12 17  1  0  0  0  0
 12 18  1  1  0  0  0
 13  8  2  0  0  0  0
 14  7  2  0  0  0  0
 15 13  1  0  0  0  0
 17 16  1  6  0  0  0
 22 12  1  0  0  0  0
 23 18  1  0  0  0  0
 23  8  1  0  0  0  0
 24  6  1  0  0  0  0
 25 24  1  0  0  0  0
 26 25  1  0  0  0  0
 26 28  1  0  0  0  0
 27 26  1  0  0  0  0
 27 28  1  0  0  0  0
 28 29  1  0  0  0  0
 29 30  1  0  0  0  0
 30 32  2  0  0  0  0
 30 31  2  0  0  0  0
M  END
>  <MODEL>
4

>  <REMARK>
 VINA RESULT:      -8.2      3.735      8.504
  Name = 
  5 active torsions:
  status: ('A' for Active; 'I' for Inactive)
    1  A    between atoms: N_1  and  C_10
    2  A    between atoms: C_2  and  C_19
    3  A    between atoms: C_8  and  C_23
    4  A    between atoms: C_10  and  C_24
    5  A    between atoms: C_19  and  C_23
                            x       y       z     vdW  Elec       q    Type
                         _______ _______ _______ _____ _____    ______ ____

>  <TORSDO>
F 5

$$$$
=
 OpenBabel11052416533D

 32 37  0  0  1  0  0  0  0  0999 V2000
  184.4270  179.0550  141.7460 C   0  0  1  0  0  3  0  0  0  0  0  0
  180.4680  177.4590  139.6790 C   0  0  0  0  0  2  0  0  0  0  0  0
  181.4920  176.4140  140.1020 C   0  0  0  0  0  2  0  0  0  0  0  0
  186.7160  178.6930  140.7150 C   0  0  2  0  0  3  0  0  0  0  0  0
  187.4450  178.3630  139.4470 C   0  0  0  0  0  0  0  0  0  0  0  0
  184.0160  178.6490  144.1640 C   0  0  0  0  0  0  0  0  0  0  0  0
  182.1080  179.0870  142.7270 C   0  0  0  0  0  3  0  0  0  0  0  0
  187.7460  177.8240  137.2040 C   0  0  0  0  0  0  0  0  0  0  0  0
  180.8670  178.8510  140.1820 C   0  0  0  0  0  2  0  0  0  0  0  0
  182.9610  178.9310  141.5750 N   0  0  0  0  0  0  0  0  0  0  0  0
  182.3920  179.0960  140.2280 C   0  0  1  0  0  3  0  0  0  0  0  0
  184.6210  178.5250  139.2640 C   0  0  2  0  0  3  0  0  0  0  0  0
  189.0740  178.0880  137.5360 C   0  0  0  0  0  3  0  0  0  0  0  0
  182.5940  178.9570  143.9590 C   0  0  0  0  0  3  0  0  0  0  0  0
  189.0910  178.5260  139.1660 S   0  0  0  0  0  0  0  0  0  0  0  0
  182.8590  176.6970  139.4710 C   0  0  0  0  0  2  0  0  0  0  0  0
  183.1300  178.1990  139.2290 C   0  0  1  0  0  3  0  0  0  0  0  0
  185.3660  177.7510  138.1720 C   0  0  0  0  0  2  0  0  0  0  0  0
  184.8590  178.6380  143.1310 C   0  0  0  0  0  3  0  0  0  0  0  0
  187.3510  178.0590  141.7850 O   0  0  0  0  0  1  0  0  0  0  0  0
  187.3430  177.4030  135.8330 C   0  0  0  0  0  1  0  0  0  0  0  0
  185.2240  178.2840  140.6690 C   0  0  2  0  0  3  0  0  0  0  0  0
  186.8380  177.9990  138.2590 C   0  0  0  0  0  0  0  0  0  0  0  0
  184.5020  178.2670  145.5170 C   0  0  0  0  0  2  0  0  0  0  0  0
  185.9440  178.7020  145.6980 C   0  0  0  0  0  2  0  0  0  0  0  0
  186.8590  177.5020  145.5650 C   0  0  2  0  0  3  0  0  0  0  0  0
  187.8010  177.5230  146.6100 O   0  0  0  0  0  0  0  0  0  0  0  0
  188.2490  177.9570  145.3500 C   0  0  1  0  0  3  0  0  0  0  0  0
  189.0600  176.8510  144.7010 C   0  0  0  0  0  2  0  0  0  0  0  0
  190.2950  177.3930  144.1630 N   0  0  0  0  0  0  0  0  0  0  0  0
  191.3380  177.6800  145.0100 O   0  0  0  0  0  0  0  0  0  0  0  0
  190.4740  177.4220  142.9290 O   0  0  0  0  0  0  0  0  0  0  0  0
  1 19  1  1  0  0  0
  2  3  1  0  0  0  0
  2  9  1  0  0  0  0
  4 20  1  1  0  0  0
  5  4  1  0  0  0  0
  6 24  1  0  0  0  0
  7 14  2  0  0  0  0
  8 13  2  0  0  0  0
  8 23  1  0  0  0  0
 10  1  1  0  0  0  0
 10  7  1  0  0  0  0
 11  9  1  1  0  0  0
 11 10  1  0  0  0  0
 12 18  1  6  0  0  0
 12 22  1  0  0  0  0
 13 15  1  0  0  0  0
 14  6  1  0  0  0  0
 15  5  1  0  0  0  0
 16  3  1  0  0  0  0
 17 12  1  0  0  0  0
 17 16  1  1  0  0  0
 17 11  1  0  0  0  0
 18 23  1  0  0  0  0
 19  6  2  0  0  0  0
 21  8  1  0  0  0  0
 22  4  1  0  0  0  0
 22  1  1  0  0  0  0
 23  5  2  0  0  0  0
 24 25  1  0  0  0  0
 26 25  1  0  0  0  0
 26 27  1  0  0  0  0
 28 26  1  0  0  0  0
 28 27  1  0  0  0  0
 29 28  1  0  0  0  0
 30 29  1  0  0  0  0
 30 31  2  0  0  0  0
 32 30  2  0  0  0  0
M  END
>  <MODEL>
5

>  <REMARK>
 VINA RESULT:      -8.1      1.338      1.671
  Name = 
  5 active torsions:
  status: ('A' for Active; 'I' for Inactive)
    1  A    between atoms: N_1  and  C_10
    2  A    between atoms: C_2  and  C_19
    3  A    between atoms: C_8  and  C_23
    4  A    between atoms: C_10  and  C_24
    5  A    between atoms: C_19  and  C_23
                            x       y       z     vdW  Elec       q    Type
                         _______ _______ _______ _____ _____    ______ ____

>  <TORSDO>
F 5

$$$$
=
 OpenBabel11052416533D

 32 37  0  0  1  0  0  0  0  0999 V2000
  188.3270  178.4040  140.9600 C   0  0  1  0  0  3  0  0  0  0  0  0
  191.6140  176.0960  143.4840 C   0  0  0  0  0  2  0  0  0  0  0  0
  190.3730  175.3080  143.0860 C   0  0  0  0  0  2  0  0  0  0  0  0
  185.9740  178.7650  141.8370 C   0  0  2  0  0  3  0  0  0  0  0  0
  185.1210  178.7830  143.0690 C   0  0  0  0  0  0  0  0  0  0  0  0
  188.7390  177.6270  138.6350 C   0  0  0  0  0  0  0  0  0  0  0  0
  190.6190  177.7240  140.1690 C   0  0  0  0  0  3  0  0  0  0  0  0
  184.5740  178.6050  145.3230 C   0  0  0  0  0  0  0  0  0  0  0  0
  191.6230  177.4760  142.8160 C   0  0  0  0  0  2  0  0  0  0  0  0
  189.6970  177.9280  141.2580 N   0  0  0  0  0  0  0  0  0  0  0  0
  190.2200  178.0970  142.6230 C   0  0  1  0  0  3  0  0  0  0  0  0
  187.8740  178.2340  143.4590 C   0  0  2  0  0  3  0  0  0  0  0  0
  183.3820  179.1600  144.8620 C   0  0  0  0  0  3  0  0  0  0  0  0
  190.1800  177.5800  138.9210 C   0  0  0  0  0  3  0  0  0  0  0  0
  183.5640  179.3950  143.2010 S   0  0  0  0  0  0  0  0  0  0  0  0
  189.0990  176.0030  143.5750 C   0  0  0  0  0  2  0  0  0  0  0  0
  189.2220  177.5420  143.6450 C   0  0  1  0  0  3  0  0  0  0  0  0
  186.8960  177.8100  144.5600 C   0  0  0  0  0  2  0  0  0  0  0  0
  187.8710  177.9530  139.5940 C   0  0  0  0  0  3  0  0  0  0  0  0
  185.2490  178.1940  140.7880 O   0  0  0  0  0  1  0  0  0  0  0  0
  184.7810  178.2570  146.7570 C   0  0  0  0  0  1  0  0  0  0  0  0
  187.3010  177.9940  142.0410 C   0  0  2  0  0  3  0  0  0  0  0  0
  185.5480  178.4160  144.3320 C   0  0  0  0  0  0  0  0  0  0  0  0
  188.2390  177.2270  137.2920 C   0  0  0  0  0  2  0  0  0  0  0  0
  186.7970  176.7630  137.3880 C   0  0  0  0  0  2  0  0  0  0  0  0
  186.7170  175.2820  137.0760 C   0  0  2  0  0  3  0  0  0  0  0  0
  185.8690  175.0880  135.9700 O   0  0  0  0  0  0  0  0  0  0  0  0
  185.3240  174.8140  137.2370 C   0  0  1  0  0  3  0  0  0  0  0  0
  185.3060  173.3130  137.4570 C   0  0  0  0  0  2  0  0  0  0  0  0
  183.9700  172.7940  137.2190 N   0  0  0  0  0  0  0  0  0  0  0  0
  182.9580  173.6560  136.8690 O   0  0  0  0  0  0  0  0  0  0  0  0
  183.7860  171.5630  137.1500 O   0  0  0  0  0  0  0  0  0  0  0  0
  1 19  1  6  0  0  0
  1 10  1  0  0  0  0
  1 22  1  0  0  0  0
  3  2  1  0  0  0  0
  3 16  1  0  0  0  0
  4 20  1  6  0  0  0
  4 22  1  0  0  0  0
  4  5  1  0  0  0  0
  5 15  1  0  0  0  0
  5 23  2  0  0  0  0
  6 14  1  0  0  0  0
  6 19  2  0  0  0  0
  7 10  1  0  0  0  0
  8 21  1  0  0  0  0
  9  2  1  0  0  0  0
 10 11  1  0  0  0  0
 11  9  1  6  0  0  0
 11 17  1  0  0  0  0
 12 17  1  0  0  0  0
 12 18  1  1  0  0  0
 13  8  2  0  0  0  0
 14  7  2  0  0  0  0
 15 13  1  0  0  0  0
 17 16  1  6  0  0  0
 22 12  1  0  0  0  0
 23 18  1  0  0  0  0
 23  8  1  0  0  0  0
 24 25  1  0  0  0  0
 24  6  1  0  0  0  0
 26 28  1  0  0  0  0
 26 25  1  0  0  0  0
 27 26  1  0  0  0  0
 27 28  1  0  0  0  0
 28 29  1  0  0  0  0
 30 29  1  0  0  0  0
 31 30  2  0  0  0  0
 32 30  2  0  0  0  0
M  END
>  <MODEL>
6

>  <REMARK>
 VINA RESULT:      -8.1      4.080      8.636
  Name = 
  5 active torsions:
  status: ('A' for Active; 'I' for Inactive)
    1  A    between atoms: N_1  and  C_10
    2  A    between atoms: C_2  and  C_19
    3  A    between atoms: C_8  and  C_23
    4  A    between atoms: C_10  and  C_24
    5  A    between atoms: C_19  and  C_23
                            x       y       z     vdW  Elec       q    Type
                         _______ _______ _______ _____ _____    ______ ____

>  <TORSDO>
F 5

$$$$
=
 OpenBabel11052416533D

 32 37  0  0  1  0  0  0  0  0999 V2000
  188.2530  178.3570  141.0390 C   0  0  1  0  0  3  0  0  0  0  0  0
  191.6590  176.1220  143.4680 C   0  0  0  0  0  2  0  0  0  0  0  0
  190.4130  175.3150  143.1280 C   0  0  0  0  0  2  0  0  0  0  0  0
  185.9300  178.7040  141.9990 C   0  0  2  0  0  3  0  0  0  0  0  0
  185.1240  178.7300  143.2630 C   0  0  0  0  0  0  0  0  0  0  0  0
  188.5850  177.5510  138.7110 C   0  0  0  0  0  0  0  0  0  0  0  0
  190.5200  177.6920  140.1710 C   0  0  0  0  0  3  0  0  0  0  0  0
  184.6650  178.5780  145.5380 C   0  0  0  0  0  0  0  0  0  0  0  0
  191.6270  177.4930  142.7800 C   0  0  0  0  0  2  0  0  0  0  0  0
  189.6380  177.9010  141.2910 N   0  0  0  0  0  0  0  0  0  0  0  0
  190.2110  178.0950  142.6330 C   0  0  1  0  0  3  0  0  0  0  0  0
  187.8960  178.2180  143.5560 C   0  0  2  0  0  3  0  0  0  0  0  0
  183.4500  179.1130  145.1150 C   0  0  0  0  0  3  0  0  0  0  0  0
  190.0360  177.5250  138.9420 C   0  0  0  0  0  3  0  0  0  0  0  0
  183.5660  179.3270  143.4450 S   0  0  0  0  0  0  0  0  0  0  0  0
  189.1510  176.0030  143.6560 C   0  0  0  0  0  2  0  0  0  0  0  0
  189.2580  177.5440  143.6990 C   0  0  1  0  0  3  0  0  0  0  0  0
  186.9660  177.7990  144.6990 C   0  0  0  0  0  2  0  0  0  0  0  0
  187.7500  177.8810  139.6970 C   0  0  0  0  0  3  0  0  0  0  0  0
  185.1730  178.1100  140.9870 O   0  0  0  0  0  1  0  0  0  0  0  0
  184.9310  178.2530  146.9680 C   0  0  0  0  0  1  0  0  0  0  0  0
  187.2730  177.9510  142.1640 C   0  0  2  0  0  3  0  0  0  0  0  0
  185.6030  178.3860  144.5130 C   0  0  0  0  0  0  0  0  0  0  0  0
  188.0390  177.1260  137.3930 C   0  0  0  0  0  2  0  0  0  0  0  0
  188.0070  175.6120  137.3050 C   0  0  0  0  0  2  0  0  0  0  0  0
  189.0100  175.1410  136.2720 C   0  0  2  0  0  3  0  0  0  0  0  0
  188.5890  173.9040  135.7500 O   0  0  0  0  0  0  0  0  0  0  0  0
  189.6150  173.8660  136.7110 C   0  0  1  0  0  3  0  0  0  0  0  0
  190.9460  173.6570  136.0120 C   0  0  0  0  0  2  0  0  0  0  0  0
  192.0310  173.7670  136.9700 N   0  0  0  0  0  0  0  0  0  0  0  0
  193.2600  173.2280  136.6720 O   0  0  0  0  0  0  0  0  0  0  0  0
  191.9050  174.5030  137.9680 O   0  0  0  0  0  0  0  0  0  0  0  0
  1 19  1  6  0  0  0
  1 10  1  0  0  0  0
  1 22  1  0  0  0  0
  3  2  1  0  0  0  0
  3 16  1  0  0  0  0
  4 20  1  6  0  0  0
  4 22  1  0  0  0  0
  4  5  1  0  0  0  0
  5 15  1  0  0  0  0
  5 23  2  0  0  0  0
  6 14  1  0  0  0  0
  6 19  2  0  0  0  0
  7 10  1  0  0  0  0
  8 21  1  0  0  0  0
  9  2  1  0  0  0  0
 10 11  1  0  0  0  0
 11  9  1  6  0  0  0
 11 17  1  0  0  0  0
 12 17  1  0  0  0  0
 12 18  1  1  0  0  0
 13  8  2  0  0  0  0
 14  7  2  0  0  0  0
 15 13  1  0  0  0  0
 17 16  1  6  0  0  0
 22 12  1  0  0  0  0
 23 18  1  0  0  0  0
 23  8  1  0  0  0  0
 24  6  1  0  0  0  0
 25 24  1  0  0  0  0
 26 28  1  0  0  0  0
 26 25  1  0  0  0  0
 27 26  1  0  0  0  0
 27 28  1  0  0  0  0
 29 28  1  0  0  0  0
 29 30  1  0  0  0  0
 30 32  2  0  0  0  0
 31 30  2  0  0  0  0
M  END
>  <MODEL>
7

>  <REMARK>
 VINA RESULT:      -8.0      4.081      8.249
  Name = 
  5 active torsions:
  status: ('A' for Active; 'I' for Inactive)
    1  A    between atoms: N_1  and  C_10
    2  A    between atoms: C_2  and  C_19
    3  A    between atoms: C_8  and  C_23
    4  A    between atoms: C_10  and  C_24
    5  A    between atoms: C_19  and  C_23
                            x       y       z     vdW  Elec       q    Type
                         _______ _______ _______ _____ _____    ______ ____

>  <TORSDO>
F 5

$$$$
=
 OpenBabel11052416533D

 32 37  0  0  1  0  0  0  0  0999 V2000
  188.0190  178.2040  139.8000 C   0  0  1  0  0  3  0  0  0  0  0  0
  184.6840  176.9230  136.6800 C   0  0  0  0  0  2  0  0  0  0  0  0
  185.3260  175.8100  137.4970 C   0  0  0  0  0  2  0  0  0  0  0  0
  190.4140  177.3910  139.6110 C   0  0  2  0  0  3  0  0  0  0  0  0
  191.4310  176.7980  138.6820 C   0  0  0  0  0  0  0  0  0  0  0  0
  186.8110  178.1820  141.9730 C   0  0  0  0  0  0  0  0  0  0  0  0
  185.5540  178.6910  139.9580 C   0  0  0  0  0  3  0  0  0  0  0  0
  192.3160  175.9310  136.7140 C   0  0  0  0  0  0  0  0  0  0  0  0
  185.1450  178.3000  137.1730 C   0  0  0  0  0  2  0  0  0  0  0  0
  186.6810  178.2660  139.1670 N   0  0  0  0  0  0  0  0  0  0  0  0
  186.5980  178.3310  137.7000 C   0  0  1  0  0  3  0  0  0  0  0  0
  188.8800  177.3300  137.5700 C   0  0  2  0  0  3  0  0  0  0  0  0
  193.4990  176.0460  137.4420 C   0  0  0  0  0  3  0  0  0  0  0  0
  185.6000  178.6570  141.2880 C   0  0  0  0  0  3  0  0  0  0  0  0
  193.0850  176.6890  138.9460 S   0  0  0  0  0  0  0  0  0  0  0  0
  186.8480  175.8110  137.3300 C   0  0  0  0  0  2  0  0  0  0  0  0
  187.4410  177.2150  137.0730 C   0  0  1  0  0  3  0  0  0  0  0  0
  189.7800  176.3220  136.8480 C   0  0  0  0  0  2  0  0  0  0  0  0
  187.9180  177.9160  141.2780 C   0  0  0  0  0  3  0  0  0  0  0  0
  190.5620  176.8200  140.8760 O   0  0  0  0  0  1  0  0  0  0  0  0
  192.2930  175.3940  135.3240 C   0  0  0  0  0  1  0  0  0  0  0  0
  188.9630  177.1940  139.1100 C   0  0  2  0  0  3  0  0  0  0  0  0
  191.1710  176.3690  137.3940 C   0  0  0  0  0  0  0  0  0  0  0  0
  186.7760  177.9160  143.4360 C   0  0  0  0  0  2  0  0  0  0  0  0
  187.9670  177.0690  143.8420 C   0  0  0  0  0  2  0  0  0  0  0  0
  188.4310  177.4720  145.2270 C   0  0  2  0  0  3  0  0  0  0  0  0
  189.5300  178.3430  145.1100 O   0  0  0  0  0  0  0  0  0  0  0  0
  189.8170  177.0070  145.4440 C   0  0  1  0  0  3  0  0  0  0  0  0
  190.1040  176.9150  146.9310 C   0  0  0  0  0  2  0  0  0  0  0  0
  191.4850  176.5180  147.1440 N   0  0  0  0  0  0  0  0  0  0  0  0
  192.1480  175.8100  146.1690 O   0  0  0  0  0  0  0  0  0  0  0  0
  192.1190  176.9720  148.1160 O   0  0  0  0  0  0  0  0  0  0  0  0
  1 19  1  1  0  0  0
  2  9  1  0  0  0  0
  2  3  1  0  0  0  0
  4 20  1  1  0  0  0
  5 15  1  0  0  0  0
  5  4  1  0  0  0  0
  6 24  1  0  0  0  0
  7 14  2  0  0  0  0
  8 23  1  0  0  0  0
  8 13  2  0  0  0  0
 10  1  1  0  0  0  0
 10  7  1  0  0  0  0
 11  9  1  1  0  0  0
 11 10  1  0  0  0  0
 12 18  1  6  0  0  0
 12 22  1  0  0  0  0
 13 15  1  0  0  0  0
 14  6  1  0  0  0  0
 16  3  1  0  0  0  0
 17 16  1  1  0  0  0
 17 12  1  0  0  0  0
 17 11  1  0  0  0  0
 18 23  1  0  0  0  0
 19  6  2  0  0  0  0
 21  8  1  0  0  0  0
 22  4  1  0  0  0  0
 22  1  1  0  0  0  0
 23  5  2  0  0  0  0
 24 25  1  0  0  0  0
 25 26  1  0  0  0  0
 26 28  1  0  0  0  0
 27 26  1  0  0  0  0
 27 28  1  0  0  0  0
 28 29  1  0  0  0  0
 29 30  1  0  0  0  0
 30 32  2  0  0  0  0
 31 30  2  0  0  0  0
M  END
>  <MODEL>
8

>  <REMARK>
 VINA RESULT:      -7.7      2.198      3.532
  Name = 
  5 active torsions:
  status: ('A' for Active; 'I' for Inactive)
    1  A    between atoms: N_1  and  C_10
    2  A    between atoms: C_2  and  C_19
    3  A    between atoms: C_8  and  C_23
    4  A    between atoms: C_10  and  C_24
    5  A    between atoms: C_19  and  C_23
                            x       y       z     vdW  Elec       q    Type
                         _______ _______ _______ _____ _____    ______ ____

>  <TORSDO>
F 5

$$$$
=
 OpenBabel11052416533D

 32 37  0  0  1  0  0  0  0  0999 V2000
  186.6110  178.6270  141.2070 C   0  0  1  0  0  3  0  0  0  0  0  0
  182.6150  178.4110  138.6610 C   0  0  0  0  0  2  0  0  0  0  0  0
  183.2610  177.0860  139.0410 C   0  0  0  0  0  2  0  0  0  0  0  0
  188.8110  177.7210  140.3270 C   0  0  2  0  0  3  0  0  0  0  0  0
  189.5540  177.3100  139.0920 C   0  0  0  0  0  0  0  0  0  0  0  0
  185.8430  178.1420  143.5220 C   0  0  0  0  0  0  0  0  0  0  0  0
  184.2980  179.2300  141.9970 C   0  0  0  0  0  3  0  0  0  0  0  0
  189.9390  176.9080  136.8330 C   0  0  0  0  0  0  0  0  0  0  0  0
  183.3240  179.5830  139.3510 C   0  0  0  0  0  2  0  0  0  0  0  0
  185.1950  178.9400  140.9070 N   0  0  0  0  0  0  0  0  0  0  0  0
  184.8440  179.3780  139.5470 C   0  0  1  0  0  3  0  0  0  0  0  0
  186.9210  178.2840  138.7040 C   0  0  2  0  0  3  0  0  0  0  0  0
  191.2440  176.7520  137.2980 C   0  0  0  0  0  3  0  0  0  0  0  0
  184.5910  178.8590  143.2410 C   0  0  0  0  0  3  0  0  0  0  0  0
  191.2030  177.0220  138.9640 S   0  0  0  0  0  0  0  0  0  0  0  0
  184.7130  177.0220  138.5580 C   0  0  0  0  0  2  0  0  0  0  0  0
  185.4120  178.4000  138.5130 C   0  0  1  0  0  3  0  0  0  0  0  0
  187.5400  177.4300  137.5930 C   0  0  0  0  0  2  0  0  0  0  0  0
  186.7580  177.9830  142.5650 C   0  0  0  0  0  3  0  0  0  0  0  0
  189.1270  176.8390  141.3640 O   0  0  0  0  0  1  0  0  0  0  0  0
  189.5880  176.7410  135.3950 C   0  0  0  0  0  1  0  0  0  0  0  0
  187.2780  177.7590  140.1160 C   0  0  2  0  0  3  0  0  0  0  0  0
  189.0050  177.2390  137.8250 C   0  0  0  0  0  0  0  0  0  0  0  0
  186.0550  177.5190  144.8560 C   0  0  0  0  0  2  0  0  0  0  0  0
  187.2840  178.1110  145.5200 C   0  0  0  0  0  2  0  0  0  0  0  0
  188.4350  177.1300  145.4280 C   0  0  2  0  0  3  0  0  0  0  0  0
  189.2170  177.2250  146.5940 O   0  0  0  0  0  0  0  0  0  0  0  0
  189.7180  177.8640  145.4460 C   0  0  1  0  0  3  0  0  0  0  0  0
  190.8120  177.0070  144.8360 C   0  0  0  0  0  2  0  0  0  0  0  0
  191.5680  177.7850  143.8700 N   0  0  0  0  0  0  0  0  0  0  0  0
  192.0550  177.1760  142.7380 O   0  0  0  0  0  0  0  0  0  0  0  0
  191.6150  179.0260  143.9730 O   0  0  0  0  0  0  0  0  0  0  0  0
  1 19  1  1  0  0  0
  2  3  1  0  0  0  0
  2  9  1  0  0  0  0
  4 20  1  1  0  0  0
  5  4  1  0  0  0  0
  6 24  1  0  0  0  0
  7 14  2  0  0  0  0
  8 13  2  0  0  0  0
  8 23  1  0  0  0  0
 10  1  1  0  0  0  0
 10  7  1  0  0  0  0
 11  9  1  1  0  0  0
 11 10  1  0  0  0  0
 12 18  1  6  0  0  0
 12 22  1  0  0  0  0
 13 15  1  0  0  0  0
 14  6  1  0  0  0  0
 15  5  1  0  0  0  0
 16  3  1  0  0  0  0
 17 16  1  1  0  0  0
 17 12  1  0  0  0  0
 17 11  1  0  0  0  0
 18 23  1  0  0  0  0
 19  6  2  0  0  0  0
 21  8  1  0  0  0  0
 22  4  1  0  0  0  0
 22  1  1  0  0  0  0
 23  5  2  0  0  0  0
 24 25  1  0  0  0  0
 26 28  1  0  0  0  0
 26 25  1  0  0  0  0
 26 27  1  0  0  0  0
 28 27  1  0  0  0  0
 29 28  1  0  0  0  0
 30 32  2  0  0  0  0
 30 29  1  0  0  0  0
 31 30  2  0  0  0  0
M  END
>  <MODEL>
9

>  <REMARK>
 VINA RESULT:      -7.7      1.689      2.099
  Name = 
  5 active torsions:
  status: ('A' for Active; 'I' for Inactive)
    1  A    between atoms: N_1  and  C_10
    2  A    between atoms: C_2  and  C_19
    3  A    between atoms: C_8  and  C_23
    4  A    between atoms: C_10  and  C_24
    5  A    between atoms: C_19  and  C_23
                            x       y       z     vdW  Elec       q    Type
                         _______ _______ _______ _____ _____    ______ ____

>  <TORSDO>
F 5

$$$$
