=
 OpenBabel11052413523D

 27 31  0  0  1  0  0  0  0  0999 V2000
  188.4270  178.0950  141.2500 N   0  0  0  0  0  0  0  0  0  0  0  0
  187.2380  178.4590  141.9430 C   0  0  0  0  0  0  0  0  0  0  0  0
  188.6090  177.3920  143.5330 C   0  0  2  0  0  3  0  0  0  0  0  0
  183.9620  179.0420  144.3510 C   0  0  0  0  0  3  0  0  0  0  0  0
  183.9740  178.6750  145.7790 C   0  0  0  0  0  3  0  0  0  0  0  0
  186.1270  178.9630  141.3990 C   0  0  0  0  0  3  0  0  0  0  0  0
  186.2230  177.6140  145.5360 C   0  0  0  0  0  3  0  0  0  0  0  0
  191.2460  176.3820  143.3040 C   0  0  2  0  0  3  0  0  0  0  0  0
  189.1670  178.3910  145.9080 C   0  0  0  0  0  1  0  0  0  0  0  0
  191.2390  174.8880  143.5530 C   0  0  0  0  0  1  0  0  0  0  0  0
  186.2590  178.2290  144.1620 C   0  0  0  0  0  0  0  0  0  0  0  0
  185.0160  178.0440  146.3310 C   0  0  0  0  0  3  0  0  0  0  0  0
  185.0320  178.8370  143.5850 C   0  0  1  0  0  3  0  0  0  0  0  0
  189.4030  177.7920  142.2930 C   0  0  1  0  0  3  0  0  0  0  0  0
  187.3260  178.1370  143.3570 C   0  0  0  0  0  0  0  0  0  0  0  0
  190.7880  177.1190  144.5670 C   0  0  0  0  0  3  0  0  0  0  0  0
  185.0120  179.1930  142.2240 O   0  0  0  0  0  0  0  0  0  0  0  0
  191.2960  177.0980  141.0020 O   0  0  0  0  0  1  0  0  0  0  0  0
  190.4270  176.6960  142.0160 C   0  0  1  0  0  3  0  0  0  0  0  0
  189.5370  177.6060  144.6950 C   0  0  0  0  0  0  0  0  0  0  0  0
  188.7840  178.5870  139.9220 C   0  0  0  0  0  2  0  0  0  0  0  0
  187.4640  175.9020  136.8460 C   0  0  0  0  0  3  0  0  0  0  0  0
  188.3170  177.6420  138.8650 C   0  0  0  0  0  0  0  0  0  0  0  0
  187.0810  177.8440  138.2430 C   0  0  0  0  0  3  0  0  0  0  0  0
  186.6530  176.9730  137.2350 C   0  0  0  0  0  3  0  0  0  0  0  0
  188.7030  175.7020  137.4640 C   0  0  0  0  0  3  0  0  0  0  0  0
  189.1300  176.5730  138.4710 C   0  0  0  0  0  3  0  0  0  0  0  0
  1  2  1  0  0  0  0
  2 15  1  0  0  0  0
  3 15  1  1  0  0  0
  3 20  1  0  0  0  0
  4  5  2  0  0  0  0
  5 12  1  0  0  0  0
  6  2  2  0  0  0  0
  6 17  1  0  0  0  0
  7 12  2  0  0  0  0
  8 10  1  1  0  0  0
  8 16  1  0  0  0  0
 11  7  1  0  0  0  0
 13 11  1  0  0  0  0
 13  4  1  6  0  0  0
 14  1  1  6  0  0  0
 14  3  1  0  0  0  0
 15 11  2  0  0  0  0
 16 20  2  0  0  0  0
 17 13  1  0  0  0  0
 19 18  1  6  0  0  0
 19 14  1  0  0  0  0
 19  8  1  0  0  0  0
 20  9  1  0  0  0  0
 21  1  1  0  0  0  0
 22 25  2  0  0  0  0
 22 26  1  0  0  0  0
 23 21  1  0  0  0  0
 24 23  2  0  0  0  0
 25 24  1  0  0  0  0
 26 27  2  0  0  0  0
 27 23  1  0  0  0  0
M  END
>  <MODEL>
1

>  <REMARK>
 VINA RESULT:      -9.0      0.000      0.000
  Name = 
  2 active torsions:
  status: ('A' for Active; 'I' for Inactive)
    1  A    between atoms: N_1  and  C_15
    2  A    between atoms: C_9  and  C_15
                            x       y       z     vdW  Elec       q    Type
                         _______ _______ _______ _____ _____    ______ ____

>  <TORSDO>
F 2

$$$$
=
 OpenBabel11052413523D

 27 31  0  0  1  0  0  0  0  0999 V2000
  186.4180  178.5350  141.4600 N   0  0  0  0  0  0  0  0  0  0  0  0
  186.3760  178.4290  142.8800 C   0  0  0  0  0  0  0  0  0  0  0  0
  188.5270  177.7100  142.2430 C   0  0  2  0  0  3  0  0  0  0  0  0
  186.7240  177.6930  146.9060 C   0  0  0  0  0  3  0  0  0  0  0  0
  187.9850  177.2130  147.5000 C   0  0  0  0  0  3  0  0  0  0  0  0
  185.3030  178.6000  143.6550 C   0  0  0  0  0  3  0  0  0  0  0  0
  189.0100  176.9590  145.2360 C   0  0  0  0  0  2  0  0  0  0  0  0
  189.7570  177.6280  139.6930 C   0  0  2  0  0  3  0  0  0  0  0  0
  190.7600  178.6000  143.3240 C   0  0  0  0  0  1  0  0  0  0  0  0
  190.0940  176.1940  139.3390 C   0  0  0  0  0  1  0  0  0  0  0  0
  187.7990  177.6830  144.7110 C   0  0  0  0  0  0  0  0  0  0  0  0
  189.0410  176.8990  146.7420 C   0  0  0  0  0  3  0  0  0  0  0  0
  186.6290  177.9180  145.5970 C   0  0  0  0  0  0  0  0  0  0  0  0
  187.8340  178.4620  141.1110 C   0  0  1  0  0  3  0  0  0  0  0  0
  187.6600  178.0170  143.4210 C   0  0  0  0  0  0  0  0  0  0  0  0
  190.5440  178.0530  140.9370 C   0  0  0  0  0  3  0  0  0  0  0  0
  185.4220  178.3790  145.0390 O   0  0  0  0  0  0  0  0  0  0  0  0
  187.7500  178.5420  138.7200 O   0  0  0  0  0  1  0  0  0  0  0  0
  188.2100  177.7850  139.7970 C   0  0  1  0  0  3  0  0  0  0  0  0
  189.9760  178.0970  142.1600 C   0  0  0  0  0  0  0  0  0  0  0  0
  185.4200  179.2420  140.6620 C   0  0  0  0  0  2  0  0  0  0  0  0
  182.8270  176.5070  138.6120 C   0  0  0  0  0  3  0  0  0  0  0  0
  184.5300  178.2770  139.9530 C   0  0  0  0  0  0  0  0  0  0  0  0
  183.5130  177.6180  140.6520 C   0  0  0  0  0  3  0  0  0  0  0  0
  182.6630  176.7320  139.9830 C   0  0  0  0  0  3  0  0  0  0  0  0
  183.8390  177.1690  137.9100 C   0  0  0  0  0  3  0  0  0  0  0  0
  184.6890  178.0550  138.5800 C   0  0  0  0  0  3  0  0  0  0  0  0
  1  2  1  0  0  0  0
  2 15  1  0  0  0  0
  2  6  2  0  0  0  0
  3 20  1  1  0  0  0
  3 15  1  0  0  0  0
  4  5  1  0  0  0  0
  6 17  1  0  0  0  0
  7 12  1  0  0  0  0
  8 10  1  1  0  0  0
  8 19  1  0  0  0  0
  8 16  1  0  0  0  0
 11  7  1  0  0  0  0
 11 13  1  0  0  0  0
 12  5  2  0  0  0  0
 13  4  2  0  0  0  0
 14  1  1  1  0  0  0
 14  3  1  0  0  0  0
 15 11  2  0  0  0  0
 16 20  2  0  0  0  0
 17 13  1  0  0  0  0
 19 18  1  6  0  0  0
 19 14  1  0  0  0  0
 20  9  1  0  0  0  0
 21  1  1  0  0  0  0
 22 25  1  0  0  0  0
 23 24  1  0  0  0  0
 23 21  1  0  0  0  0
 25 24  2  0  0  0  0
 26 27  1  0  0  0  0
 26 22  2  0  0  0  0
 27 23  2  0  0  0  0
M  END
>  <MODEL>
2

>  <REMARK>
 VINA RESULT:      -8.3      2.170      3.561
  Name = 
  2 active torsions:
  status: ('A' for Active; 'I' for Inactive)
    1  A    between atoms: N_1  and  C_15
    2  A    between atoms: C_9  and  C_15
                            x       y       z     vdW  Elec       q    Type
                         _______ _______ _______ _____ _____    ______ ____

>  <TORSDO>
F 2

$$$$
=
 OpenBabel11052413523D

 27 31  0  0  1  0  0  0  0  0999 V2000
  188.6890  177.6040  138.7100 N   0  0  0  0  0  0  0  0  0  0  0  0
  188.6790  177.8000  140.1210 C   0  0  0  0  0  0  0  0  0  0  0  0
  190.7040  176.6980  139.6380 C   0  0  2  0  0  3  0  0  0  0  0  0
  189.0620  177.8780  144.2100 C   0  0  0  0  0  3  0  0  0  0  0  0
  190.2730  177.3760  144.8850 C   0  0  0  0  0  3  0  0  0  0  0  0
  187.6600  178.2630  140.8490 C   0  0  0  0  0  3  0  0  0  0  0  0
  191.1860  176.5290  142.7190 C   0  0  0  0  0  2  0  0  0  0  0  0
  191.8330  175.9340  137.1540 C   0  0  2  0  0  3  0  0  0  0  0  0
  193.0630  177.5030  140.4960 C   0  0  0  0  0  1  0  0  0  0  0  0
  191.9800  174.4270  137.1080 C   0  0  0  0  0  1  0  0  0  0  0  0
  190.0570  177.2770  142.0600 C   0  0  0  0  0  0  0  0  0  0  0  0
  191.2580  176.7800  144.2040 C   0  0  0  0  0  3  0  0  0  0  0  0
  188.9530  177.8360  142.8830 C   0  0  0  0  0  0  0  0  0  0  0  0
  190.0730  177.2810  138.3760 C   0  0  1  0  0  3  0  0  0  0  0  0
  189.9190  177.3500  140.7290 C   0  0  0  0  0  0  0  0  0  0  0  0
  192.7050  176.5040  138.2780 C   0  0  0  0  0  3  0  0  0  0  0  0
  187.7960  178.3210  142.2470 O   0  0  0  0  0  0  0  0  0  0  0  0
  189.9230  176.8720  136.0220 O   0  0  0  0  0  1  0  0  0  0  0  0
  190.3210  176.3040  137.2320 C   0  0  1  0  0  3  0  0  0  0  0  0
  192.1860  176.8730  139.4670 C   0  0  0  0  0  0  0  0  0  0  0  0
  187.7600  178.2500  137.7870 C   0  0  0  0  0  2  0  0  0  0  0  0
  184.2390  175.8730  137.1900 C   0  0  0  0  0  3  0  0  0  0  0  0
  186.5370  177.4160  137.5960 C   0  0  0  0  0  0  0  0  0  0  0  0
  185.2800  177.9280  137.9380 C   0  0  0  0  0  3  0  0  0  0  0  0
  184.1310  177.1560  137.7360 C   0  0  0  0  0  3  0  0  0  0  0  0
  185.4940  175.3620  136.8440 C   0  0  0  0  0  3  0  0  0  0  0  0
  186.6420  176.1340  137.0450 C   0  0  0  0  0  3  0  0  0  0  0  0
  1  2  1  0  0  0  0
  2 15  1  0  0  0  0
  2  6  2  0  0  0  0
  3 20  1  1  0  0  0
  3 15  1  0  0  0  0
  4  5  1  0  0  0  0
  6 17  1  0  0  0  0
  7 12  1  0  0  0  0
  8 10  1  1  0  0  0
  8 19  1  0  0  0  0
  8 16  1  0  0  0  0
 11  7  1  0  0  0  0
 11 13  1  0  0  0  0
 12  5  2  0  0  0  0
 13  4  2  0  0  0  0
 14  1  1  1  0  0  0
 14  3  1  0  0  0  0
 15 11  2  0  0  0  0
 16 20  2  0  0  0  0
 17 13  1  0  0  0  0
 19 18  1  6  0  0  0
 19 14  1  0  0  0  0
 20  9  1  0  0  0  0
 21  1  1  0  0  0  0
 22 25  1  0  0  0  0
 23 21  1  0  0  0  0
 23 24  1  0  0  0  0
 25 24  2  0  0  0  0
 26 27  1  0  0  0  0
 26 22  2  0  0  0  0
 27 23  2  0  0  0  0
M  END
>  <MODEL>
3

>  <REMARK>
 VINA RESULT:      -7.6      2.476      4.571
  Name = 
  2 active torsions:
  status: ('A' for Active; 'I' for Inactive)
    1  A    between atoms: N_1  and  C_15
    2  A    between atoms: C_9  and  C_15
                            x       y       z     vdW  Elec       q    Type
                         _______ _______ _______ _____ _____    ______ ____

>  <TORSDO>
F 2

$$$$
=
 OpenBabel11052413523D

 27 31  0  0  1  0  0  0  0  0999 V2000
  187.4580  178.0640  139.4310 N   0  0  0  0  0  0  0  0  0  0  0  0
  187.2300  178.1570  140.8340 C   0  0  0  0  0  0  0  0  0  0  0  0
  189.3270  177.1120  140.5900 C   0  0  2  0  0  3  0  0  0  0  0  0
  186.9830  177.9370  144.9280 C   0  0  0  0  0  3  0  0  0  0  0  0
  188.0870  177.3980  145.7430 C   0  0  0  0  0  3  0  0  0  0  0  0
  186.1020  178.5550  141.4280 C   0  0  0  0  0  3  0  0  0  0  0  0
  189.3370  176.7210  143.6890 C   0  0  0  0  0  3  0  0  0  0  0  0
  190.8360  176.5430  138.2610 C   0  0  2  0  0  3  0  0  0  0  0  0
  191.5100  177.8730  141.8550 C   0  0  0  0  0  1  0  0  0  0  0  0
  191.0190  175.0450  138.1310 C   0  0  0  0  0  1  0  0  0  0  0  0
  188.3060  177.5040  142.9190 C   0  0  0  0  0  0  0  0  0  0  0  0
  189.1760  176.8630  145.1810 C   0  0  0  0  0  3  0  0  0  0  0  0
  187.0790  177.9920  143.6010 C   0  0  1  0  0  3  0  0  0  0  0  0
  188.8830  177.7800  139.2910 C   0  0  1  0  0  3  0  0  0  0  0  0
  188.3710  177.6750  141.5920 C   0  0  0  0  0  0  0  0  0  0  0  0
  191.5150  177.0370  139.5430 C   0  0  0  0  0  3  0  0  0  0  0  0
  186.0220  178.5110  142.8310 O   0  0  0  0  0  0  0  0  0  0  0  0
  189.1020  177.5440  136.9190 O   0  0  0  0  0  1  0  0  0  0  0  0
  189.3230  176.8920  138.1320 C   0  0  1  0  0  3  0  0  0  0  0  0
  190.8140  177.3130  140.6610 C   0  0  0  0  0  0  0  0  0  0  0  0
  186.6680  178.7690  138.4250 C   0  0  0  0  0  2  0  0  0  0  0  0
  183.3740  176.3260  137.1630 C   0  0  0  0  0  3  0  0  0  0  0  0
  185.5200  177.9290  137.9710 C   0  0  0  0  0  0  0  0  0  0  0  0
  185.7520  176.7850  137.1990 C   0  0  0  0  0  3  0  0  0  0  0  0
  184.6790  175.9840  136.7940 C   0  0  0  0  0  3  0  0  0  0  0  0
  183.1410  177.4660  137.9380 C   0  0  0  0  0  3  0  0  0  0  0  0
  184.2140  178.2660  138.3430 C   0  0  0  0  0  3  0  0  0  0  0  0
  1  2  1  0  0  0  0
  2  6  2  0  0  0  0
  2 15  1  0  0  0  0
  3 20  1  1  0  0  0
  3 15  1  0  0  0  0
  4  5  2  0  0  0  0
  6 17  1  0  0  0  0
  7 12  2  0  0  0  0
  8 10  1  1  0  0  0
  8 16  1  0  0  0  0
 11 13  1  0  0  0  0
 11  7  1  0  0  0  0
 12  5  1  0  0  0  0
 13  4  1  6  0  0  0
 14  1  1  1  0  0  0
 14  3  1  0  0  0  0
 15 11  2  0  0  0  0
 16 20  2  0  0  0  0
 17 13  1  0  0  0  0
 19 18  1  6  0  0  0
 19  8  1  0  0  0  0
 19 14  1  0  0  0  0
 20  9  1  0  0  0  0
 21  1  1  0  0  0  0
 22 26  1  0  0  0  0
 23 27  1  0  0  0  0
 23 21  1  0  0  0  0
 24 23  2  0  0  0  0
 25 22  2  0  0  0  0
 25 24  1  0  0  0  0
 26 27  2  0  0  0  0
M  END
>  <MODEL>
4

>  <REMARK>
 VINA RESULT:      -7.3      1.957      3.686
  Name = 
  2 active torsions:
  status: ('A' for Active; 'I' for Inactive)
    1  A    between atoms: N_1  and  C_15
    2  A    between atoms: C_9  and  C_15
                            x       y       z     vdW  Elec       q    Type
                         _______ _______ _______ _____ _____    ______ ____

>  <TORSDO>
F 2

$$$$
=
 OpenBabel11052413523D

 27 31  0  0  1  0  0  0  0  0999 V2000
  188.7950  177.9910  139.5070 N   0  0  0  0  0  0  0  0  0  0  0  0
  190.0840  177.5010  139.1510 C   0  0  0  0  0  0  0  0  0  0  0  0
  188.6800  177.0030  137.3270 C   0  0  2  0  0  3  0  0  0  0  0  0
  193.4900  175.7000  137.7260 C   0  0  0  0  0  3  0  0  0  0  0  0
  193.5400  175.0880  136.3860 C   0  0  0  0  0  3  0  0  0  0  0  0
  191.1560  177.4450  139.9450 C   0  0  0  0  0  3  0  0  0  0  0  0
  191.0920  175.4690  136.0680 C   0  0  0  0  0  2  0  0  0  0  0  0
  185.9530  177.6310  136.8820 C   0  0  2  0  0  3  0  0  0  0  0  0
  189.2530  177.5850  134.8210 C   0  0  0  0  0  1  0  0  0  0  0  0
  185.1520  176.3500  136.7620 C   0  0  0  0  0  1  0  0  0  0  0  0
  191.1540  176.2980  137.3230 C   0  0  0  0  0  0  0  0  0  0  0  0
  192.4510  175.0020  135.6140 C   0  0  0  0  0  3  0  0  0  0  0  0
  192.3730  176.2720  138.1740 C   0  0  0  0  0  0  0  0  0  0  0  0
  188.0400  178.0280  138.2580 C   0  0  1  0  0  3  0  0  0  0  0  0
  190.0970  176.9690  137.7990 C   0  0  0  0  0  0  0  0  0  0  0  0
  186.9790  177.7070  135.7460 C   0  0  0  0  0  3  0  0  0  0  0  0
  192.3350  176.8560  139.4530 O   0  0  0  0  0  0  0  0  0  0  0  0
  185.8870  178.7560  139.0130 O   0  0  0  0  0  1  0  0  0  0  0  0
  186.5440  177.7390  138.3200 C   0  0  1  0  0  3  0  0  0  0  0  0
  188.2800  177.4120  135.9380 C   0  0  0  0  0  0  0  0  0  0  0  0
  188.5400  178.8790  140.6380 C   0  0  0  0  0  2  0  0  0  0  0  0
  186.8940  176.7340  143.9690 C   0  0  0  0  0  3  0  0  0  0  0  0
  187.9590  178.1210  141.7850 C   0  0  0  0  0  0  0  0  0  0  0  0
  188.6700  177.0590  142.3550 C   0  0  0  0  0  3  0  0  0  0  0  0
  188.1370  176.3650  143.4460 C   0  0  0  0  0  3  0  0  0  0  0  0
  186.1840  177.7980  143.4050 C   0  0  0  0  0  3  0  0  0  0  0  0
  186.7180  178.4930  142.3140 C   0  0  0  0  0  3  0  0  0  0  0  0
  1 21  1  0  0  0  0
  2  1  1  0  0  0  0
  2  6  2  0  0  0  0
  3 20  1  6  0  0  0
  3 15  1  0  0  0  0
  3 14  1  0  0  0  0
  4 13  2  0  0  0  0
  5  4  1  0  0  0  0
  7 11  1  0  0  0  0
  8 10  1  1  0  0  0
  8 19  1  0  0  0  0
  9 20  1  0  0  0  0
 11 15  2  0  0  0  0
 11 13  1  0  0  0  0
 12  7  1  0  0  0  0
 12  5  2  0  0  0  0
 13 17  1  0  0  0  0
 14 19  1  0  0  0  0
 14  1  1  1  0  0  0
 15  2  1  0  0  0  0
 16 20  2  0  0  0  0
 16  8  1  0  0  0  0
 17  6  1  0  0  0  0
 19 18  1  1  0  0  0
 21 23  1  0  0  0  0
 23 27  2  0  0  0  0
 23 24  1  0  0  0  0
 24 25  2  0  0  0  0
 25 22  1  0  0  0  0
 26 22  2  0  0  0  0
 27 26  1  0  0  0  0
M  END
>  <MODEL>
5

>  <REMARK>
 VINA RESULT:      -7.3      2.317      7.987
  Name = 
  2 active torsions:
  status: ('A' for Active; 'I' for Inactive)
    1  A    between atoms: N_1  and  C_15
    2  A    between atoms: C_9  and  C_15
                            x       y       z     vdW  Elec       q    Type
                         _______ _______ _______ _____ _____    ______ ____

>  <TORSDO>
F 2

$$$$
=
 OpenBabel11052413523D

 27 31  0  0  1  0  0  0  0  0999 V2000
  184.6690  178.8740  141.6810 N   0  0  0  0  0  0  0  0  0  0  0  0
  185.7350  178.6270  140.7700 C   0  0  0  0  0  0  0  0  0  0  0  0
  186.6210  178.2410  142.9180 C   0  0  2  0  0  3  0  0  0  0  0  0
  189.1950  178.0340  138.6370 C   0  0  0  0  0  3  0  0  0  0  0  0
  190.4470  177.6120  139.2920 C   0  0  0  0  0  3  0  0  0  0  0  0
  185.7220  178.8580  139.4550 C   0  0  0  0  0  3  0  0  0  0  0  0
  189.4010  177.8480  141.5480 C   0  0  0  0  0  3  0  0  0  0  0  0
  185.3710  178.3000  145.4590 C   0  0  2  0  0  3  0  0  0  0  0  0
  187.9590  176.0730  143.5940 C   0  0  0  0  0  1  0  0  0  0  0  0
  186.0100  179.3780  146.3120 C   0  0  0  0  0  1  0  0  0  0  0  0
  188.0950  178.0270  140.8190 C   0  0  0  0  0  0  0  0  0  0  0  0
  190.5380  177.5030  140.6210 C   0  0  0  0  0  3  0  0  0  0  0  0
  188.0850  178.2290  139.3470 C   0  0  1  0  0  3  0  0  0  0  0  0
  185.0960  178.2780  142.9440 C   0  0  1  0  0  3  0  0  0  0  0  0
  186.9230  178.1520  141.4570 C   0  0  0  0  0  0  0  0  0  0  0  0
  186.4120  177.2300  145.1140 C   0  0  0  0  0  3  0  0  0  0  0  0
  186.8940  178.6280  138.7130 O   0  0  0  0  0  0  0  0  0  0  0  0
  183.2810  178.8570  144.3940 O   0  0  0  0  0  1  0  0  0  0  0  0
  184.6630  178.9590  144.2370 C   0  0  1  0  0  3  0  0  0  0  0  0
  187.0180  177.1860  143.9100 C   0  0  0  0  0  0  0  0  0  0  0  0
  183.2710  179.0240  141.2850 C   0  0  0  0  0  2  0  0  0  0  0  0
  182.3310  176.5660  137.8970 C   0  0  0  0  0  3  0  0  0  0  0  0
  182.9620  178.1690  140.1010 C   0  0  0  0  0  0  0  0  0  0  0  0
  182.9880  176.7750  140.2190 C   0  0  0  0  0  3  0  0  0  0  0  0
  182.6740  175.9730  139.1160 C   0  0  0  0  0  3  0  0  0  0  0  0
  182.3000  177.9590  137.7790 C   0  0  0  0  0  3  0  0  0  0  0  0
  182.6130  178.7600  138.8820 C   0  0  0  0  0  3  0  0  0  0  0  0
  2 15  1  0  0  0  0
  2  1  1  0  0  0  0
  3 15  1  6  0  0  0
  3 14  1  0  0  0  0
  3 20  1  0  0  0  0
  4  5  2  0  0  0  0
  5 12  1  0  0  0  0
  6  2  2  0  0  0  0
  8 10  1  6  0  0  0
  9 20  1  0  0  0  0
 11 15  2  0  0  0  0
 11  7  1  0  0  0  0
 12  7  2  0  0  0  0
 13  4  1  1  0  0  0
 13 11  1  0  0  0  0
 14  1  1  6  0  0  0
 14 19  1  0  0  0  0
 16  8  1  0  0  0  0
 17 13  1  0  0  0  0
 17  6  1  0  0  0  0
 19 18  1  1  0  0  0
 19  8  1  0  0  0  0
 20 16  2  0  0  0  0
 21  1  1  0  0  0  0
 22 25  1  0  0  0  0
 23 24  1  0  0  0  0
 23 21  1  0  0  0  0
 25 24  2  0  0  0  0
 26 22  2  0  0  0  0
 26 27  1  0  0  0  0
 27 23  2  0  0  0  0
M  END
>  <MODEL>
6

>  <REMARK>
 VINA RESULT:      -7.2      2.571      5.545
  Name = 
  2 active torsions:
  status: ('A' for Active; 'I' for Inactive)
    1  A    between atoms: N_1  and  C_15
    2  A    between atoms: C_9  and  C_15
                            x       y       z     vdW  Elec       q    Type
                         _______ _______ _______ _____ _____    ______ ____

>  <TORSDO>
F 2

$$$$
=
 OpenBabel11052413523D

 27 31  0  0  1  0  0  0  0  0999 V2000
  185.3000  178.8900  140.6950 N   0  0  0  0  0  0  0  0  0  0  0  0
  186.5660  178.5580  140.1360 C   0  0  0  0  0  0  0  0  0  0  0  0
  186.8130  178.3350  142.4670 C   0  0  2  0  0  3  0  0  0  0  0  0
  190.4580  177.7540  139.0950 C   0  0  0  0  0  3  0  0  0  0  0  0
  191.4660  177.3720  140.1010 C   0  0  0  0  0  3  0  0  0  0  0  0
  186.9240  178.6830  138.8550 C   0  0  0  0  0  3  0  0  0  0  0  0
  189.8470  177.8000  141.9550 C   0  0  0  0  0  3  0  0  0  0  0  0
  184.9140  178.6120  144.5510 C   0  0  2  0  0  3  0  0  0  0  0  0
  187.8390  176.2120  143.6460 C   0  0  0  0  0  1  0  0  0  0  0  0
  185.3290  179.7470  145.4660 C   0  0  0  0  0  1  0  0  0  0  0  0
  188.8000  177.9360  140.8820 C   0  0  0  0  0  0  0  0  0  0  0  0
  191.1840  177.3680  141.4080 C   0  0  0  0  0  3  0  0  0  0  0  0
  189.2030  178.0190  139.4540 C   0  0  1  0  0  3  0  0  0  0  0  0
  185.3420  178.3920  142.0670 C   0  0  1  0  0  3  0  0  0  0  0  0
  187.5030  178.1250  141.1580 C   0  0  0  0  0  0  0  0  0  0  0  0
  185.9730  177.5050  144.5880 C   0  0  0  0  0  3  0  0  0  0  0  0
  188.2470  178.3800  138.4870 O   0  0  0  0  0  0  0  0  0  0  0  0
  183.2190  179.1070  142.9100 O   0  0  0  0  0  1  0  0  0  0  0  0
  184.5930  179.1800  143.1360 C   0  0  1  0  0  3  0  0  0  0  0  0
  186.8850  177.3570  143.6060 C   0  0  0  0  0  0  0  0  0  0  0  0
  184.0710  179.0250  139.9170 C   0  0  0  0  0  2  0  0  0  0  0  0
  182.7950  175.2480  138.3320 C   0  0  0  0  0  3  0  0  0  0  0  0
  183.6410  177.7020  139.3740 C   0  0  0  0  0  0  0  0  0  0  0  0
  182.7280  176.9170  140.0850 C   0  0  0  0  0  3  0  0  0  0  0  0
  182.3060  175.6890  139.5650 C   0  0  0  0  0  3  0  0  0  0  0  0
  183.7040  176.0340  137.6170 C   0  0  0  0  0  3  0  0  0  0  0  0
  184.1250  177.2620  138.1370 C   0  0  0  0  0  3  0  0  0  0  0  0
  2  1  1  0  0  0  0
  2 15  1  0  0  0  0
  3 15  1  6  0  0  0
  3 20  1  0  0  0  0
  4  5  2  0  0  0  0
  5 12  1  0  0  0  0
  6  2  2  0  0  0  0
  8 16  1  0  0  0  0
  8 10  1  1  0  0  0
 11 15  2  0  0  0  0
 11  7  1  0  0  0  0
 12  7  2  0  0  0  0
 13  4  1  1  0  0  0
 13 11  1  0  0  0  0
 14  1  1  6  0  0  0
 14  3  1  0  0  0  0
 14 19  1  0  0  0  0
 17  6  1  0  0  0  0
 17 13  1  0  0  0  0
 19 18  1  6  0  0  0
 19  8  1  0  0  0  0
 20  9  1  0  0  0  0
 20 16  2  0  0  0  0
 21  1  1  0  0  0  0
 22 25  1  0  0  0  0
 23 21  1  0  0  0  0
 23 24  1  0  0  0  0
 25 24  2  0  0  0  0
 26 27  1  0  0  0  0
 26 22  2  0  0  0  0
 27 23  2  0  0  0  0
M  END
>  <MODEL>
7

>  <REMARK>
 VINA RESULT:      -7.2      2.404      5.483
  Name = 
  2 active torsions:
  status: ('A' for Active; 'I' for Inactive)
    1  A    between atoms: N_1  and  C_15
    2  A    between atoms: C_9  and  C_15
                            x       y       z     vdW  Elec       q    Type
                         _______ _______ _______ _____ _____    ______ ____

>  <TORSDO>
F 2

$$$$
=
 OpenBabel11052413523D

 27 31  0  0  1  0  0  0  0  0999 V2000
  188.3100  178.0630  140.2350 N   0  0  0  0  0  0  0  0  0  0  0  0
  189.3610  177.3180  139.6300 C   0  0  0  0  0  0  0  0  0  0  0  0
  187.5020  177.0850  138.2030 C   0  0  2  0  0  3  0  0  0  0  0  0
  191.9290  174.8430  137.5910 C   0  0  0  0  0  3  0  0  0  0  0  0
  191.5470  174.2120  136.3140 C   0  0  0  0  0  3  0  0  0  0  0  0
  190.5570  177.0590  140.1640 C   0  0  0  0  0  3  0  0  0  0  0  0
  189.2130  175.0760  136.5310 C   0  0  0  0  0  2  0  0  0  0  0  0
  184.9210  178.2430  138.3430 C   0  0  2  0  0  3  0  0  0  0  0  0
  187.5790  177.5000  135.6010 C   0  0  0  0  0  1  0  0  0  0  0  0
  183.8830  177.1490  138.4870 C   0  0  0  0  0  1  0  0  0  0  0  0
  189.7250  175.8940  137.6870 C   0  0  0  0  0  0  0  0  0  0  0  0
  190.3130  174.3360  135.8140 C   0  0  0  0  0  3  0  0  0  0  0  0
  191.0790  175.6360  138.2410 C   0  0  0  0  0  0  0  0  0  0  0  0
  187.3060  178.2330  139.1880 C   0  0  1  0  0  3  0  0  0  0  0  0
  188.9570  176.7730  138.3450 C   0  0  0  0  0  0  0  0  0  0  0  0
  185.6490  178.0930  137.0030 C   0  0  0  0  0  3  0  0  0  0  0  0
  191.4530  176.2360  139.4570 O   0  0  0  0  0  0  0  0  0  0  0  0
  185.5710  179.3920  140.3610 O   0  0  0  0  0  1  0  0  0  0  0  0
  185.8390  178.2530  139.6030 C   0  0  1  0  0  3  0  0  0  0  0  0
  186.8770  177.5440  136.9160 C   0  0  0  0  0  0  0  0  0  0  0  0
  188.5010  179.0030  141.3370 C   0  0  0  0  0  2  0  0  0  0  0  0
  188.2080  177.0370  145.1390 C   0  0  0  0  0  3  0  0  0  0  0  0
  188.4030  178.3030  142.6520 C   0  0  0  0  0  0  0  0  0  0  0  0
  189.5250  178.2150  143.4830 C   0  0  0  0  0  3  0  0  0  0  0  0
  189.4280  177.5810  144.7260 C   0  0  0  0  0  3  0  0  0  0  0  0
  187.0840  177.1280  144.3120 C   0  0  0  0  0  3  0  0  0  0  0  0
  187.1820  177.7630  143.0690 C   0  0  0  0  0  3  0  0  0  0  0  0
  1 21  1  0  0  0  0
  2  6  2  0  0  0  0
  2  1  1  0  0  0  0
  3 20  1  6  0  0  0
  3 15  1  0  0  0  0
  3 14  1  0  0  0  0
  4 13  2  0  0  0  0
  5  4  1  0  0  0  0
  7 11  1  0  0  0  0
  8 10  1  1  0  0  0
  8 19  1  0  0  0  0
  9 20  1  0  0  0  0
 11 13  1  0  0  0  0
 11 15  2  0  0  0  0
 12  5  2  0  0  0  0
 12  7  1  0  0  0  0
 13 17  1  0  0  0  0
 14 19  1  0  0  0  0
 14  1  1  1  0  0  0
 15  2  1  0  0  0  0
 16  8  1  0  0  0  0
 17  6  1  0  0  0  0
 19 18  1  6  0  0  0
 20 16  2  0  0  0  0
 21 23  1  0  0  0  0
 23 27  2  0  0  0  0
 23 24  1  0  0  0  0
 24 25  2  0  0  0  0
 25 22  1  0  0  0  0
 26 22  2  0  0  0  0
 27 26  1  0  0  0  0
M  END
>  <MODEL>
8

>  <REMARK>
 VINA RESULT:      -7.1      1.915      7.678
  Name = 
  2 active torsions:
  status: ('A' for Active; 'I' for Inactive)
    1  A    between atoms: N_1  and  C_15
    2  A    between atoms: C_9  and  C_15
                            x       y       z     vdW  Elec       q    Type
                         _______ _______ _______ _____ _____    ______ ____

>  <TORSDO>
F 2

$$$$
=
 OpenBabel11052413523D

 27 31  0  0  1  0  0  0  0  0999 V2000
  184.5720  179.0020  141.5730 N   0  0  0  0  0  0  0  0  0  0  0  0
  185.3020  178.6840  140.3930 C   0  0  0  0  0  0  0  0  0  0  0  0
  183.0480  178.2110  139.9010 C   0  0  2  0  0  3  0  0  0  0  0  0
  186.9180  177.3840  136.8470 C   0  0  0  0  0  3  0  0  0  0  0  0
  186.0720  176.9060  135.7390 C   0  0  0  0  0  3  0  0  0  0  0  0
  186.6310  178.6670  140.2650 C   0  0  0  0  0  3  0  0  0  0  0  0
  184.0290  177.0590  137.1700 C   0  0  0  0  0  2  0  0  0  0  0  0
  180.7100  178.5900  141.4560 C   0  0  2  0  0  3  0  0  0  0  0  0
  181.7940  179.0770  137.7510 C   0  0  0  0  0  1  0  0  0  0  0  0
  180.0550  177.2500  141.7190 C   0  0  0  0  0  1  0  0  0  0  0  0
  184.9000  177.7710  138.1700 C   0  0  0  0  0  0  0  0  0  0  0  0
  184.7470  176.7780  135.8740 C   0  0  0  0  0  3  0  0  0  0  0  0
  186.3750  177.7940  137.9920 C   0  0  0  0  0  0  0  0  0  0  0  0
  183.1750  179.0750  141.1530 C   0  0  1  0  0  3  0  0  0  0  0  0
  184.4190  178.2830  139.3120 C   0  0  0  0  0  0  0  0  0  0  0  0
  180.7140  178.8770  139.9500 C   0  0  0  0  0  3  0  0  0  0  0  0
  187.1910  178.2520  139.0430 O   0  0  0  0  0  0  0  0  0  0  0  0
  182.0640  179.5030  143.2300 O   0  0  0  0  0  1  0  0  0  0  0  0
  182.1080  178.6270  142.1450 C   0  0  1  0  0  3  0  0  0  0  0  0
  181.8170  178.7020  139.1940 C   0  0  0  0  0  0  0  0  0  0  0  0
  185.1210  179.7520  142.6990 C   0  0  0  0  0  2  0  0  0  0  0  0
  186.4080  177.1310  145.8430 C   0  0  0  0  0  3  0  0  0  0  0  0
  185.5560  178.8280  143.7880 C   0  0  0  0  0  0  0  0  0  0  0  0
  186.5530  177.8780  143.5440 C   0  0  0  0  0  3  0  0  0  0  0  0
  186.9780  177.0280  144.5700 C   0  0  0  0  0  3  0  0  0  0  0  0
  185.4140  178.0830  146.0900 C   0  0  0  0  0  3  0  0  0  0  0  0
  184.9900  178.9330  145.0640 C   0  0  0  0  0  3  0  0  0  0  0  0
  1 21  1  0  0  0  0
  2  1  1  0  0  0  0
  3 20  1  6  0  0  0
  3 14  1  0  0  0  0
  4 13  2  0  0  0  0
  5 12  2  0  0  0  0
  5  4  1  0  0  0  0
  6  2  2  0  0  0  0
  7 11  1  0  0  0  0
  8 10  1  6  0  0  0
  8 19  1  0  0  0  0
  9 20  1  0  0  0  0
 11 15  2  0  0  0  0
 12  7  1  0  0  0  0
 13 11  1  0  0  0  0
 13 17  1  0  0  0  0
 14  1  1  1  0  0  0
 14 19  1  0  0  0  0
 15  3  1  0  0  0  0
 15  2  1  0  0  0  0
 16  8  1  0  0  0  0
 17  6  1  0  0  0  0
 19 18  1  1  0  0  0
 20 16  2  0  0  0  0
 21 23  1  0  0  0  0
 22 26  1  0  0  0  0
 23 27  1  0  0  0  0
 24 23  2  0  0  0  0
 24 25  1  0  0  0  0
 25 22  2  0  0  0  0
 27 26  2  0  0  0  0
M  END
>  <MODEL>
9

>  <REMARK>
 VINA RESULT:      -6.7      2.953      7.992
  Name = 
  2 active torsions:
  status: ('A' for Active; 'I' for Inactive)
    1  A    between atoms: N_1  and  C_15
    2  A    between atoms: C_9  and  C_15
                            x       y       z     vdW  Elec       q    Type
                         _______ _______ _______ _____ _____    ______ ____

>  <TORSDO>
F 2

$$$$
