=
 OpenBabel11052412503D

 25 27  0  0  1  0  0  0  0  0999 V2000
  185.7580  178.2170  144.9650 N   0  0  0  0  0  0  0  0  0  0  0  0
  187.0570  177.8080  145.0330 C   0  0  0  0  0  0  0  0  0  0  0  0
  185.6830  178.6540  147.3020 C   0  0  0  0  0  3  0  0  0  0  0  0
  184.8870  178.3190  143.9390 C   0  0  0  0  0  0  0  0  0  0  0  0
  186.9820  178.2490  147.3960 N   0  0  0  0  0  0  0  0  0  0  0  0
  183.6980  178.8060  144.4540 C   0  0  0  0  0  0  0  0  0  0  0  0
  189.0200  177.4080  146.4040 C   0  0  0  0  0  0  0  0  0  0  0  0
  189.7260  177.4070  147.7180 C   0  0  0  0  0  1  0  0  0  0  0  0
  187.7710  177.3740  143.9130 C   0  0  0  0  0  3  0  0  0  0  0  0
  185.0750  178.6300  146.0500 C   0  0  0  0  0  0  0  0  0  0  0  0
  183.8050  179.0020  145.7880 N   0  0  0  0  0  0  0  0  0  0  0  0
  189.6860  176.9930  145.2930 N   0  0  0  0  0  0  0  0  0  0  0  0
  189.1010  176.9730  144.0650 C   0  0  0  0  0  0  0  0  0  0  0  0
  187.6860  177.8270  146.3000 C   0  0  0  0  0  0  0  0  0  0  0  0
  181.5410  179.3080  143.1020 N   0  0  0  0  0  0  0  0  0  0  0  0
  182.5020  179.0840  143.7050 C   0  0  0  0  0  0  0  0  0  0  0  0
  185.6340  179.2930  141.8000 C   0  0  0  0  0  1  0  0  0  0  0  0
  185.1800  178.0280  142.5010 C   0  0  0  0  0  2  0  0  0  0  0  0
  189.8670  176.4890  142.8850 C   0  0  0  0  0  2  0  0  0  0  0  0
  189.0480  176.6820  141.6210 C   0  0  0  0  0  2  0  0  0  0  0  0
  189.7470  177.6470  140.6760 C   0  0  2  0  0  3  0  0  0  0  0  0
  188.7620  178.1470  139.6370 C   0  0  0  0  0  1  0  0  0  0  0  0
  190.9170  176.9990  140.0070 C   0  0  0  0  0  0  0  0  0  0  0  0
  190.7110  175.9180  139.1620 O   0  0  0  0  0  0  0  0  0  0  0  0
  192.0870  177.4210  140.2070 O   0  0  0  0  0  1  0  0  0  0  0  0
  1  2  1  0  0  0  0
  1 10  1  0  0  0  0
  2 14  1  0  0  0  0
  3  5  2  0  0  0  0
  4  6  2  0  0  0  0
  4  1  1  0  0  0  0
  6 11  1  0  0  0  0
  7  8  1  0  0  0  0
  9 13  1  0  0  0  0
  9  2  2  0  0  0  0
 10  3  1  0  0  0  0
 11 10  2  0  0  0  0
 12  7  1  0  0  0  0
 13 12  2  0  0  0  0
 14  7  2  0  0  0  0
 14  5  1  0  0  0  0
 15 16  3  0  0  0  0
 16  6  1  0  0  0  0
 17 18  1  0  0  0  0
 18  4  1  0  0  0  0
 19 13  1  0  0  0  0
 20 19  1  0  0  0  0
 21 22  1  6  0  0  0
 21 20  1  0  0  0  0
 23 25  1  0  0  0  0
 23 21  1  0  0  0  0
 24 23  2  0  0  0  0
M  END
>  <MODEL>
1

>  <REMARK>
 VINA RESULT:      -8.3      0.000      0.000
  Name = 
  6 active torsions:
  status: ('A' for Active; 'I' for Inactive)
    1  A    between atoms: C_2  and  C_21
    2  A    between atoms: C_5  and  C_22
    3  A    between atoms: C_6  and  C_15
    4  A    between atoms: C_6  and  C_23
    5  A    between atoms: C_10  and  C_11
    6  A    between atoms: C_15  and  C_21
                            x       y       z     vdW  Elec       q    Type
                         _______ _______ _______ _____ _____    ______ ____

>  <TORSDO>
F 6

$$$$
=
 OpenBabel11052412503D

 25 27  0  0  1  0  0  0  0  0999 V2000
  188.3230  177.5430  145.7150 N   0  0  0  0  0  0  0  0  0  0  0  0
  187.3900  177.8700  144.7760 C   0  0  0  0  0  0  0  0  0  0  0  0
  186.7860  177.9050  147.4930 C   0  0  0  0  0  3  0  0  0  0  0  0
  189.6140  177.1630  145.6220 C   0  0  0  0  0  0  0  0  0  0  0  0
  185.8350  178.2380  146.5730 N   0  0  0  0  0  0  0  0  0  0  0  0
  190.0740  176.9470  146.9100 C   0  0  0  0  0  0  0  0  0  0  0  0
  185.1190  178.5770  144.2900 C   0  0  0  0  0  0  0  0  0  0  0  0
  183.7450  178.9680  144.7190 C   0  0  0  0  0  1  0  0  0  0  0  0
  187.6640  177.8660  143.4060 C   0  0  0  0  0  3  0  0  0  0  0  0
  188.0520  177.5530  147.0340 C   0  0  0  0  0  0  0  0  0  0  0  0
  189.0950  177.1950  147.8100 N   0  0  0  0  0  0  0  0  0  0  0  0
  185.4200  178.5610  142.9630 N   0  0  0  0  0  0  0  0  0  0  0  0
  186.6530  178.2120  142.5060 C   0  0  0  0  0  0  0  0  0  0  0  0
  186.1000  178.2310  145.2300 C   0  0  0  0  0  0  0  0  0  0  0  0
  192.4590  176.1620  147.5690 N   0  0  0  0  0  0  0  0  0  0  0  0
  191.3960  176.5120  147.2750 C   0  0  0  0  0  0  0  0  0  0  0  0
  191.2140  178.1710  144.0390 C   0  0  0  0  0  1  0  0  0  0  0  0
  190.3810  176.9450  144.3560 C   0  0  0  0  0  2  0  0  0  0  0  0
  186.9360  178.2320  141.0450 C   0  0  0  0  0  2  0  0  0  0  0  0
  188.4030  178.5500  140.8070 C   0  0  0  0  0  2  0  0  0  0  0  0
  189.0190  177.5350  139.8580 C   0  0  2  0  0  3  0  0  0  0  0  0
  190.2560  176.9280  140.4920 C   0  0  0  0  0  1  0  0  0  0  0  0
  189.3690  178.1620  138.5450 C   0  0  0  0  0  0  0  0  0  0  0  0
  190.1200  177.4470  137.6220 O   0  0  0  0  0  0  0  0  0  0  0  0
  188.9930  179.3330  138.2710 O   0  0  0  0  0  1  0  0  0  0  0  0
  1 10  1  0  0  0  0
  2 14  1  0  0  0  0
  2  1  1  0  0  0  0
  4  1  1  0  0  0  0
  4  6  2  0  0  0  0
  5  3  2  0  0  0  0
  6 16  1  0  0  0  0
  6 11  1  0  0  0  0
  7  8  1  0  0  0  0
  7 14  2  0  0  0  0
  9  2  2  0  0  0  0
 10  3  1  0  0  0  0
 10 11  2  0  0  0  0
 12  7  1  0  0  0  0
 13 12  2  0  0  0  0
 13  9  1  0  0  0  0
 14  5  1  0  0  0  0
 16 15  3  0  0  0  0
 17 18  1  0  0  0  0
 18  4  1  0  0  0  0
 19 13  1  0  0  0  0
 20 19  1  0  0  0  0
 21 22  1  1  0  0  0
 21 20  1  0  0  0  0
 23 21  1  0  0  0  0
 24 23  2  0  0  0  0
 25 23  1  0  0  0  0
M  END
>  <MODEL>
2

>  <REMARK>
 VINA RESULT:      -8.2      1.749      4.952
  Name = 
  6 active torsions:
  status: ('A' for Active; 'I' for Inactive)
    1  A    between atoms: C_2  and  C_21
    2  A    between atoms: C_5  and  C_22
    3  A    between atoms: C_6  and  C_15
    4  A    between atoms: C_6  and  C_23
    5  A    between atoms: C_10  and  C_11
    6  A    between atoms: C_15  and  C_21
                            x       y       z     vdW  Elec       q    Type
                         _______ _______ _______ _____ _____    ______ ____

>  <TORSDO>
F 6

$$$$
=
 OpenBabel11052412503D

 25 27  0  0  1  0  0  0  0  0999 V2000
  185.7660  178.1870  144.8070 N   0  0  0  0  0  0  0  0  0  0  0  0
  187.0610  177.7610  144.8480 C   0  0  0  0  0  0  0  0  0  0  0  0
  185.7360  178.5960  147.1500 C   0  0  0  0  0  3  0  0  0  0  0  0
  184.8800  178.3120  143.7970 C   0  0  0  0  0  0  0  0  0  0  0  0
  187.0310  178.1730  147.2170 N   0  0  0  0  0  0  0  0  0  0  0  0
  183.7060  178.8070  144.3390 C   0  0  0  0  0  0  0  0  0  0  0  0
  189.0420  177.3200  146.1810 C   0  0  0  0  0  0  0  0  0  0  0  0
  189.7700  177.2930  147.4820 C   0  0  0  0  0  1  0  0  0  0  0  0
  187.7510  177.3320  143.7110 C   0  0  0  0  0  3  0  0  0  0  0  0
  185.1070  178.5940  145.9080 C   0  0  0  0  0  0  0  0  0  0  0  0
  183.8380  178.9860  145.6720 N   0  0  0  0  0  0  0  0  0  0  0  0
  189.6840  176.9100  145.0530 N   0  0  0  0  0  0  0  0  0  0  0  0
  189.0770  176.9120  143.8350 C   0  0  0  0  0  0  0  0  0  0  0  0
  187.7110  177.7560  146.1040 C   0  0  0  0  0  0  0  0  0  0  0  0
  181.5330  179.3520  143.0280 N   0  0  0  0  0  0  0  0  0  0  0  0
  182.5010  179.1090  143.6130 C   0  0  0  0  0  0  0  0  0  0  0  0
  185.6410  179.2930  141.6670 C   0  0  0  0  0  1  0  0  0  0  0  0
  185.1450  178.0350  142.3510 C   0  0  0  0  0  2  0  0  0  0  0  0
  189.8180  176.4330  142.6360 C   0  0  0  0  0  2  0  0  0  0  0  0
  189.0710  176.8300  141.3750 C   0  0  0  0  0  2  0  0  0  0  0  0
  190.0350  176.9690  140.2080 C   0  0  2  0  0  3  0  0  0  0  0  0
  191.3760  177.4670  140.7100 C   0  0  0  0  0  1  0  0  0  0  0  0
  189.4970  177.9010  139.1680 C   0  0  0  0  0  0  0  0  0  0  0  0
  188.4870  178.7920  139.5040 O   0  0  0  0  0  1  0  0  0  0  0  0
  189.9480  177.8820  137.9920 O   0  0  0  0  0  0  0  0  0  0  0  0
  1  2  1  0  0  0  0
  1 10  1  0  0  0  0
  2 14  1  0  0  0  0
  3  5  2  0  0  0  0
  4  6  2  0  0  0  0
  4  1  1  0  0  0  0
  6 11  1  0  0  0  0
  7  8  1  0  0  0  0
  9 13  1  0  0  0  0
  9  2  2  0  0  0  0
 10  3  1  0  0  0  0
 11 10  2  0  0  0  0
 12  7  1  0  0  0  0
 13 12  2  0  0  0  0
 14  7  2  0  0  0  0
 14  5  1  0  0  0  0
 15 16  3  0  0  0  0
 16  6  1  0  0  0  0
 17 18  1  0  0  0  0
 18  4  1  0  0  0  0
 19 13  1  0  0  0  0
 20 19  1  0  0  0  0
 21 22  1  1  0  0  0
 21 20  1  0  0  0  0
 23 24  1  0  0  0  0
 23 21  1  0  0  0  0
 25 23  2  0  0  0  0
M  END
>  <MODEL>
3

>  <REMARK>
 VINA RESULT:      -8.1      0.946      1.209
  Name = 
  6 active torsions:
  status: ('A' for Active; 'I' for Inactive)
    1  A    between atoms: C_2  and  C_21
    2  A    between atoms: C_5  and  C_22
    3  A    between atoms: C_6  and  C_15
    4  A    between atoms: C_6  and  C_23
    5  A    between atoms: C_10  and  C_11
    6  A    between atoms: C_15  and  C_21
                            x       y       z     vdW  Elec       q    Type
                         _______ _______ _______ _____ _____    ______ ____

>  <TORSDO>
F 6

$$$$
=
 OpenBabel11052412503D

 25 27  0  0  1  0  0  0  0  0999 V2000
  188.5860  177.4520  145.3840 N   0  0  0  0  0  0  0  0  0  0  0  0
  187.7950  177.7600  144.3170 C   0  0  0  0  0  0  0  0  0  0  0  0
  186.7680  177.6560  146.9030 C   0  0  0  0  0  3  0  0  0  0  0  0
  189.8980  177.1520  145.4870 C   0  0  0  0  0  0  0  0  0  0  0  0
  185.9550  177.9670  145.8530 N   0  0  0  0  0  0  0  0  0  0  0  0
  190.1610  176.9140  146.8250 C   0  0  0  0  0  0  0  0  0  0  0  0
  185.5880  178.3510  143.4950 C   0  0  0  0  0  0  0  0  0  0  0  0
  184.1410  178.6440  143.7100 C   0  0  0  0  0  1  0  0  0  0  0  0
  188.2810  177.8240  143.0090 C   0  0  0  0  0  3  0  0  0  0  0  0
  188.1100  177.3960  146.6420 C   0  0  0  0  0  0  0  0  0  0  0  0
  189.0400  177.0700  147.5640 N   0  0  0  0  0  0  0  0  0  0  0  0
  186.0940  178.4030  142.2330 N   0  0  0  0  0  0  0  0  0  0  0  0
  187.4040  178.1450  141.9690 C   0  0  0  0  0  0  0  0  0  0  0  0
  186.4280  178.0270  144.5700 C   0  0  0  0  0  0  0  0  0  0  0  0
  192.4580  176.2450  147.8330 N   0  0  0  0  0  0  0  0  0  0  0  0
  191.4340  176.5440  147.3840 C   0  0  0  0  0  0  0  0  0  0  0  0
  191.6070  178.3370  144.1620 C   0  0  0  0  0  1  0  0  0  0  0  0
  190.8670  177.0280  144.3540 C   0  0  0  0  0  2  0  0  0  0  0  0
  187.9120  178.2370  140.5740 C   0  0  0  0  0  2  0  0  0  0  0  0
  189.1850  177.4200  140.4320 C   0  0  0  0  0  2  0  0  0  0  0  0
  189.9670  177.8620  139.2050 C   0  0  2  0  0  3  0  0  0  0  0  0
  189.0830  178.7160  138.3170 C   0  0  0  0  0  1  0  0  0  0  0  0
  190.4840  176.6860  138.4390 C   0  0  0  0  0  0  0  0  0  0  0  0
  190.7240  176.8070  137.0770 O   0  0  0  0  0  0  0  0  0  0  0  0
  190.6990  175.5860  139.0150 O   0  0  0  0  0  1  0  0  0  0  0  0
  1  4  1  0  0  0  0
  1 10  1  0  0  0  0
  2 14  1  0  0  0  0
  2  1  1  0  0  0  0
  4  6  2  0  0  0  0
  5  3  2  0  0  0  0
  6 16  1  0  0  0  0
  6 11  1  0  0  0  0
  7  8  1  0  0  0  0
  7 14  2  0  0  0  0
  9  2  2  0  0  0  0
 10  3  1  0  0  0  0
 10 11  2  0  0  0  0
 12  7  1  0  0  0  0
 13 12  2  0  0  0  0
 13  9  1  0  0  0  0
 14  5  1  0  0  0  0
 16 15  3  0  0  0  0
 17 18  1  0  0  0  0
 18  4  1  0  0  0  0
 19 13  1  0  0  0  0
 20 19  1  0  0  0  0
 21 22  1  6  0  0  0
 21 20  1  0  0  0  0
 23 25  1  0  0  0  0
 23 21  1  0  0  0  0
 24 23  2  0  0  0  0
M  END
>  <MODEL>
4

>  <REMARK>
 VINA RESULT:      -7.9      1.699      4.950
  Name = 
  6 active torsions:
  status: ('A' for Active; 'I' for Inactive)
    1  A    between atoms: C_2  and  C_21
    2  A    between atoms: C_5  and  C_22
    3  A    between atoms: C_6  and  C_15
    4  A    between atoms: C_6  and  C_23
    5  A    between atoms: C_10  and  C_11
    6  A    between atoms: C_15  and  C_21
                            x       y       z     vdW  Elec       q    Type
                         _______ _______ _______ _____ _____    ______ ____

>  <TORSDO>
F 6

$$$$
=
 OpenBabel11052412503D

 25 27  0  0  1  0  0  0  0  0999 V2000
  189.2480  177.3450  144.0790 N   0  0  0  0  0  0  0  0  0  0  0  0
  188.3440  177.6350  145.0580 C   0  0  0  0  0  0  0  0  0  0  0  0
  190.9820  176.9850  145.6670 C   0  0  0  0  0  3  0  0  0  0  0  0
  189.1490  177.2930  142.7350 C   0  0  0  0  0  0  0  0  0  0  0  0
  190.0970  177.2730  146.6650 N   0  0  0  0  0  0  0  0  0  0  0  0
  190.3920  176.9330  142.2440 C   0  0  0  0  0  0  0  0  0  0  0  0
  187.8900  177.8930  147.4300 C   0  0  0  0  0  0  0  0  0  0  0  0
  188.3160  177.8690  148.8590 C   0  0  0  0  0  1  0  0  0  0  0  0
  187.0150  177.9680  144.7840 C   0  0  0  0  0  3  0  0  0  0  0  0
  190.5280  177.0290  144.3520 C   0  0  0  0  0  0  0  0  0  0  0  0
  191.2720  176.7670  143.2570 N   0  0  0  0  0  0  0  0  0  0  0  0
  186.6020  178.2130  147.1270 N   0  0  0  0  0  0  0  0  0  0  0  0
  186.1500  178.2510  145.8440 C   0  0  0  0  0  0  0  0  0  0  0  0
  188.7930  177.5960  146.3990 C   0  0  0  0  0  0  0  0  0  0  0  0
  191.0060  176.5920  139.7450 N   0  0  0  0  0  0  0  0  0  0  0  0
  190.7320  176.7430  140.8590 C   0  0  0  0  0  0  0  0  0  0  0  0
  187.9600  178.8700  141.2580 C   0  0  0  0  0  1  0  0  0  0  0  0
  187.9050  177.5140  141.9320 C   0  0  0  0  0  2  0  0  0  0  0  0
  184.7370  178.6280  145.5660 C   0  0  0  0  0  2  0  0  0  0  0  0
  184.6420  179.3220  144.2180 C   0  0  0  0  0  2  0  0  0  0  0  0
  183.8260  178.4860  143.2460 C   0  0  2  0  0  3  0  0  0  0  0  0
  184.3980  178.6260  141.8480 C   0  0  0  0  0  1  0  0  0  0  0  0
  182.3870  178.8920  143.2560 C   0  0  0  0  0  0  0  0  0  0  0  0
  181.7490  179.1890  142.0590 O   0  0  0  0  0  0  0  0  0  0  0  0
  181.7480  178.9710  144.3400 O   0  0  0  0  0  1  0  0  0  0  0  0
  1 10  1  0  0  0  0
  1  2  1  0  0  0  0
  2 14  1  0  0  0  0
  3  5  2  0  0  0  0
  4  1  1  0  0  0  0
  6  4  2  0  0  0  0
  6 11  1  0  0  0  0
  7  8  1  0  0  0  0
  9  2  2  0  0  0  0
  9 13  1  0  0  0  0
 10  3  1  0  0  0  0
 11 10  2  0  0  0  0
 12  7  1  0  0  0  0
 13 12  2  0  0  0  0
 14  5  1  0  0  0  0
 14  7  2  0  0  0  0
 15 16  3  0  0  0  0
 16  6  1  0  0  0  0
 17 18  1  0  0  0  0
 18  4  1  0  0  0  0
 19 13  1  0  0  0  0
 20 19  1  0  0  0  0
 21 22  1  6  0  0  0
 21 23  1  0  0  0  0
 21 20  1  0  0  0  0
 23 25  1  0  0  0  0
 24 23  2  0  0  0  0
M  END
>  <MODEL>
5

>  <REMARK>
 VINA RESULT:      -7.7      3.458      6.090
  Name = 
  6 active torsions:
  status: ('A' for Active; 'I' for Inactive)
    1  A    between atoms: C_2  and  C_21
    2  A    between atoms: C_5  and  C_22
    3  A    between atoms: C_6  and  C_15
    4  A    between atoms: C_6  and  C_23
    5  A    between atoms: C_10  and  C_11
    6  A    between atoms: C_15  and  C_21
                            x       y       z     vdW  Elec       q    Type
                         _______ _______ _______ _____ _____    ______ ____

>  <TORSDO>
F 6

$$$$
=
 OpenBabel11052412503D

 25 27  0  0  1  0  0  0  0  0999 V2000
  186.9720  177.9710  142.6360 N   0  0  0  0  0  0  0  0  0  0  0  0
  188.2200  177.4940  142.3610 C   0  0  0  0  0  0  0  0  0  0  0  0
  186.6520  178.6730  140.3860 C   0  0  0  0  0  3  0  0  0  0  0  0
  186.2400  178.0070  143.7690 C   0  0  0  0  0  0  0  0  0  0  0  0
  187.8980  178.2050  140.0870 N   0  0  0  0  0  0  0  0  0  0  0  0
  185.0300  178.6020  143.4580 C   0  0  0  0  0  0  0  0  0  0  0  0
  189.9750  177.1440  140.7200 C   0  0  0  0  0  0  0  0  0  0  0  0
  190.5210  177.2570  139.3360 C   0  0  0  0  0  1  0  0  0  0  0  0
  189.0330  176.9010  143.3310 C   0  0  0  0  0  3  0  0  0  0  0  0
  186.1980  178.5440  141.6960 C   0  0  0  0  0  0  0  0  0  0  0  0
  184.9940  178.9490  142.1510 N   0  0  0  0  0  0  0  0  0  0  0  0
  190.7390  176.5710  141.6890 N   0  0  0  0  0  0  0  0  0  0  0  0
  190.2990  176.4360  142.9700 C   0  0  0  0  0  0  0  0  0  0  0  0
  188.6940  177.6200  141.0340 C   0  0  0  0  0  0  0  0  0  0  0  0
  183.0620  179.0070  145.1010 N   0  0  0  0  0  0  0  0  0  0  0  0
  183.9390  178.8270  144.3690 C   0  0  0  0  0  0  0  0  0  0  0  0
  186.6770  178.5410  146.1360 C   0  0  0  0  0  1  0  0  0  0  0  0
  186.6380  177.4400  145.0950 C   0  0  0  0  0  2  0  0  0  0  0  0
  191.1840  175.8210  143.9970 C   0  0  0  0  0  2  0  0  0  0  0  0
  191.5110  176.8410  145.0750 C   0  0  0  0  0  2  0  0  0  0  0  0
  190.9640  176.3870  146.4190 C   0  0  2  0  0  3  0  0  0  0  0  0
  189.9480  177.3940  146.9230 C   0  0  0  0  0  1  0  0  0  0  0  0
  192.0610  176.2170  147.4220 C   0  0  0  0  0  0  0  0  0  0  0  0
  192.1840  177.1270  148.4640 O   0  0  0  0  0  1  0  0  0  0  0  0
  192.8770  175.2620  147.3280 O   0  0  0  0  0  0  0  0  0  0  0  0
  1  4  1  0  0  0  0
  2  1  1  0  0  0  0
  2  9  1  0  0  0  0
  3 10  1  0  0  0  0
  4 18  1  0  0  0  0
  5  3  2  0  0  0  0
  5 14  1  0  0  0  0
  6  4  2  0  0  0  0
  6 16  1  0  0  0  0
  7 14  1  0  0  0  0
  7 12  2  0  0  0  0
  8  7  1  0  0  0  0
 10 11  2  0  0  0  0
 10  1  1  0  0  0  0
 11  6  1  0  0  0  0
 12 13  1  0  0  0  0
 13  9  2  0  0  0  0
 13 19  1  0  0  0  0
 14  2  2  0  0  0  0
 16 15  3  0  0  0  0
 18 17  1  0  0  0  0
 19 20  1  0  0  0  0
 20 21  1  0  0  0  0
 21 22  1  1  0  0  0
 21 23  1  0  0  0  0
 23 24  1  0  0  0  0
 25 23  2  0  0  0  0
M  END
>  <MODEL>
6

>  <REMARK>
 VINA RESULT:      -7.7      2.963      5.157
  Name = 
  6 active torsions:
  status: ('A' for Active; 'I' for Inactive)
    1  A    between atoms: C_2  and  C_21
    2  A    between atoms: C_5  and  C_22
    3  A    between atoms: C_6  and  C_15
    4  A    between atoms: C_6  and  C_23
    5  A    between atoms: C_10  and  C_11
    6  A    between atoms: C_15  and  C_21
                            x       y       z     vdW  Elec       q    Type
                         _______ _______ _______ _____ _____    ______ ____

>  <TORSDO>
F 6

$$$$
=
 OpenBabel11052412503D

 25 27  0  0  1  0  0  0  0  0999 V2000
  189.6390  177.5750  142.6310 N   0  0  0  0  0  0  0  0  0  0  0  0
  188.6880  177.9290  141.7200 C   0  0  0  0  0  0  0  0  0  0  0  0
  191.2370  177.1440  140.9230 C   0  0  0  0  0  3  0  0  0  0  0  0
  189.6300  177.5100  143.9780 C   0  0  0  0  0  0  0  0  0  0  0  0
  190.3030  177.4920  139.9920 N   0  0  0  0  0  0  0  0  0  0  0  0
  190.8870  177.0930  144.3790 C   0  0  0  0  0  0  0  0  0  0  0  0
  188.0840  178.2370  139.3880 C   0  0  0  0  0  0  0  0  0  0  0  0
  188.4070  178.2020  137.9320 C   0  0  0  0  0  1  0  0  0  0  0  0
  187.3990  178.3230  142.0880 C   0  0  0  0  0  3  0  0  0  0  0  0
  190.8770  177.1920  142.2660 C   0  0  0  0  0  0  0  0  0  0  0  0
  191.6820  176.8850  143.3050 N   0  0  0  0  0  0  0  0  0  0  0  0
  186.8390  178.6180  139.7820 N   0  0  0  0  0  0  0  0  0  0  0  0
  186.4820  178.6730  141.0940 C   0  0  0  0  0  0  0  0  0  0  0  0
  189.0410  177.8830  140.3510 C   0  0  0  0  0  0  0  0  0  0  0  0
  191.6730  176.7540  146.8290 N   0  0  0  0  0  0  0  0  0  0  0  0
  191.3230  176.9050  145.7370 C   0  0  0  0  0  0  0  0  0  0  0  0
  187.4930  176.7530  144.9490 C   0  0  0  0  0  1  0  0  0  0  0  0
  188.4920  177.8900  144.8730 C   0  0  0  0  0  2  0  0  0  0  0  0
  185.0990  179.0750  141.4710 C   0  0  0  0  0  2  0  0  0  0  0  0
  184.6690  178.3340  142.7250 C   0  0  0  0  0  2  0  0  0  0  0  0
  183.8200  179.2340  143.6090 C   0  0  2  0  0  3  0  0  0  0  0  0
  184.1760  179.0030  145.0650 C   0  0  0  0  0  1  0  0  0  0  0  0
  182.3610  178.9880  143.3910 C   0  0  0  0  0  0  0  0  0  0  0  0
  181.8180  179.1640  142.1250 O   0  0  0  0  0  0  0  0  0  0  0  0
  181.6190  178.6280  144.3430 O   0  0  0  0  0  1  0  0  0  0  0  0
  1  4  1  0  0  0  0
  2  9  1  0  0  0  0
  2  1  1  0  0  0  0
  3 10  1  0  0  0  0
  4  6  2  0  0  0  0
  4 18  1  0  0  0  0
  5 14  1  0  0  0  0
  5  3  2  0  0  0  0
  6 16  1  0  0  0  0
  7 12  2  0  0  0  0
  7 14  1  0  0  0  0
  8  7  1  0  0  0  0
 10  1  1  0  0  0  0
 10 11  2  0  0  0  0
 11  6  1  0  0  0  0
 12 13  1  0  0  0  0
 13 19  1  0  0  0  0
 13  9  2  0  0  0  0
 14  2  2  0  0  0  0
 16 15  3  0  0  0  0
 18 17  1  0  0  0  0
 19 20  1  0  0  0  0
 20 21  1  0  0  0  0
 21 22  1  1  0  0  0
 23 21  1  0  0  0  0
 23 25  1  0  0  0  0
 24 23  2  0  0  0  0
M  END
>  <MODEL>
7

>  <REMARK>
 VINA RESULT:      -7.6      3.905      7.318
  Name = 
  6 active torsions:
  status: ('A' for Active; 'I' for Inactive)
    1  A    between atoms: C_2  and  C_21
    2  A    between atoms: C_5  and  C_22
    3  A    between atoms: C_6  and  C_15
    4  A    between atoms: C_6  and  C_23
    5  A    between atoms: C_10  and  C_11
    6  A    between atoms: C_15  and  C_21
                            x       y       z     vdW  Elec       q    Type
                         _______ _______ _______ _____ _____    ______ ____

>  <TORSDO>
F 6

$$$$
=
 OpenBabel11052412503D

 25 27  0  0  1  0  0  0  0  0999 V2000
  188.5930  177.5760  144.7100 N   0  0  0  0  0  0  0  0  0  0  0  0
  187.9730  177.8730  143.5330 C   0  0  0  0  0  0  0  0  0  0  0  0
  186.5420  177.6670  145.9120 C   0  0  0  0  0  3  0  0  0  0  0  0
  189.8820  177.3300  145.0240 C   0  0  0  0  0  0  0  0  0  0  0  0
  185.8990  177.9670  144.7470 N   0  0  0  0  0  0  0  0  0  0  0  0
  189.9330  177.0740  146.3840 C   0  0  0  0  0  0  0  0  0  0  0  0
  185.9060  178.3870  142.3670 C   0  0  0  0  0  0  0  0  0  0  0  0
  184.4320  178.6130  142.3440 C   0  0  0  0  0  1  0  0  0  0  0  0
  188.6640  177.9880  142.3240 C   0  0  0  0  0  3  0  0  0  0  0  0
  187.9190  177.4710  145.8720 C   0  0  0  0  0  0  0  0  0  0  0  0
  188.6990  177.1640  146.9300 N   0  0  0  0  0  0  0  0  0  0  0  0
  186.6100  178.4900  141.2070 N   0  0  0  0  0  0  0  0  0  0  0  0
  187.9560  178.2940  141.1590 C   0  0  0  0  0  0  0  0  0  0  0  0
  186.5730  178.0750  143.5600 C   0  0  0  0  0  0  0  0  0  0  0  0
  192.0600  176.4820  147.7470 N   0  0  0  0  0  0  0  0  0  0  0  0
  191.1120  176.7460  147.1400 C   0  0  0  0  0  0  0  0  0  0  0  0
  191.6800  178.6380  143.9590 C   0  0  0  0  0  1  0  0  0  0  0  0
  191.0290  177.2740  144.0650 C   0  0  0  0  0  2  0  0  0  0  0  0
  188.6820  178.4400  139.8680 C   0  0  0  0  0  2  0  0  0  0  0  0
  188.3230  177.2910  138.9410 C   0  0  0  0  0  2  0  0  0  0  0  0
  188.1630  177.7890  137.5130 C   0  0  2  0  0  3  0  0  0  0  0  0
  189.0320  179.0130  137.2990 C   0  0  0  0  0  1  0  0  0  0  0  0
  186.7340  178.1130  137.2100 C   0  0  0  0  0  0  0  0  0  0  0  0
  186.1080  177.5030  136.1310 O   0  0  0  0  0  0  0  0  0  0  0  0
  186.0960  178.9360  137.9180 O   0  0  0  0  0  1  0  0  0  0  0  0
  1  4  1  0  0  0  0
  1 10  1  0  0  0  0
  2 14  1  0  0  0  0
  2  1  1  0  0  0  0
  4  6  2  0  0  0  0
  5  3  2  0  0  0  0
  6 11  1  0  0  0  0
  6 16  1  0  0  0  0
  7 14  2  0  0  0  0
  8  7  1  0  0  0  0
  9  2  2  0  0  0  0
 10  3  1  0  0  0  0
 10 11  2  0  0  0  0
 12  7  1  0  0  0  0
 13 12  2  0  0  0  0
 13  9  1  0  0  0  0
 14  5  1  0  0  0  0
 16 15  3  0  0  0  0
 17 18  1  0  0  0  0
 18  4  1  0  0  0  0
 19 13  1  0  0  0  0
 20 19  1  0  0  0  0
 21 22  1  1  0  0  0
 21 20  1  0  0  0  0
 23 21  1  0  0  0  0
 23 25  1  0  0  0  0
 24 23  2  0  0  0  0
M  END
>  <MODEL>
8

>  <REMARK>
 VINA RESULT:      -7.5      2.497      5.391
  Name = 
  6 active torsions:
  status: ('A' for Active; 'I' for Inactive)
    1  A    between atoms: C_2  and  C_21
    2  A    between atoms: C_5  and  C_22
    3  A    between atoms: C_6  and  C_15
    4  A    between atoms: C_6  and  C_23
    5  A    between atoms: C_10  and  C_11
    6  A    between atoms: C_15  and  C_21
                            x       y       z     vdW  Elec       q    Type
                         _______ _______ _______ _____ _____    ______ ____

>  <TORSDO>
F 6

$$$$
=
 OpenBabel11052412503D

 25 27  0  0  1  0  0  0  0  0999 V2000
  188.5840  177.5750  144.6800 N   0  0  0  0  0  0  0  0  0  0  0  0
  187.9660  177.8790  143.5030 C   0  0  0  0  0  0  0  0  0  0  0  0
  186.5270  177.6170  145.8720 C   0  0  0  0  0  3  0  0  0  0  0  0
  189.8760  177.3450  144.9970 C   0  0  0  0  0  0  0  0  0  0  0  0
  185.8850  177.9230  144.7070 N   0  0  0  0  0  0  0  0  0  0  0  0
  189.9240  177.0710  146.3530 C   0  0  0  0  0  0  0  0  0  0  0  0
  185.8970  178.3770  142.3330 C   0  0  0  0  0  0  0  0  0  0  0  0
  184.4200  178.5790  142.3060 C   0  0  0  0  0  1  0  0  0  0  0  0
  188.6610  178.0210  142.2990 C   0  0  0  0  0  3  0  0  0  0  0  0
  187.9070  177.4440  145.8360 C   0  0  0  0  0  0  0  0  0  0  0  0
  188.6860  177.1340  146.8930 N   0  0  0  0  0  0  0  0  0  0  0  0
  186.6050  178.5060  141.1790 N   0  0  0  0  0  0  0  0  0  0  0  0
  187.9540  178.3330  141.1350 C   0  0  0  0  0  0  0  0  0  0  0  0
  186.5630  178.0590  143.5260 C   0  0  0  0  0  0  0  0  0  0  0  0
  192.0550  176.4940  147.7180 N   0  0  0  0  0  0  0  0  0  0  0  0
  191.1050  176.7520  147.1100 C   0  0  0  0  0  0  0  0  0  0  0  0
  191.6840  178.6860  143.9900 C   0  0  0  0  0  1  0  0  0  0  0  0
  191.0280  177.3200  144.0430 C   0  0  0  0  0  2  0  0  0  0  0  0
  188.6840  178.5080  139.8500 C   0  0  0  0  0  2  0  0  0  0  0  0
  189.1550  177.1580  139.3350 C   0  0  0  0  0  2  0  0  0  0  0  0
  189.8340  177.3120  137.9830 C   0  0  2  0  0  3  0  0  0  0  0  0
  189.0670  178.3090  137.1380 C   0  0  0  0  0  1  0  0  0  0  0  0
  189.9310  175.9990  137.2720 C   0  0  0  0  0  0  0  0  0  0  0  0
  190.3460  174.8720  137.9680 O   0  0  0  0  0  1  0  0  0  0  0  0
  189.6430  175.9070  136.0490 O   0  0  0  0  0  0  0  0  0  0  0  0
  1  4  1  0  0  0  0
  1 10  1  0  0  0  0
  2 14  1  0  0  0  0
  2  1  1  0  0  0  0
  4  6  2  0  0  0  0
  5  3  2  0  0  0  0
  6 11  1  0  0  0  0
  6 16  1  0  0  0  0
  7 14  2  0  0  0  0
  8  7  1  0  0  0  0
  9  2  2  0  0  0  0
 10  3  1  0  0  0  0
 10 11  2  0  0  0  0
 12  7  1  0  0  0  0
 13 12  2  0  0  0  0
 13  9  1  0  0  0  0
 14  5  1  0  0  0  0
 16 15  3  0  0  0  0
 17 18  1  0  0  0  0
 18  4  1  0  0  0  0
 19 13  1  0  0  0  0
 20 19  1  0  0  0  0
 21 22  1  6  0  0  0
 21 20  1  0  0  0  0
 23 24  1  0  0  0  0
 23 21  1  0  0  0  0
 25 23  2  0  0  0  0
M  END
>  <MODEL>
9

>  <REMARK>
 VINA RESULT:      -7.3      1.967      5.118
  Name = 
  6 active torsions:
  status: ('A' for Active; 'I' for Inactive)
    1  A    between atoms: C_2  and  C_21
    2  A    between atoms: C_5  and  C_22
    3  A    between atoms: C_6  and  C_15
    4  A    between atoms: C_6  and  C_23
    5  A    between atoms: C_10  and  C_11
    6  A    between atoms: C_15  and  C_21
                            x       y       z     vdW  Elec       q    Type
                         _______ _______ _______ _____ _____    ______ ____

>  <TORSDO>
F 6

$$$$
