=
 OpenBabel11052413513D

 27 31  0  0  0  0  0  0  0  0999 V2000
  184.9240  178.5600  144.8360 N   0  0  0  0  0  0  0  0  0  0  0  0
  186.1520  178.3160  142.7270 C   0  0  0  0  0  0  0  0  0  0  0  0
  187.3070  176.9040  144.3750 O   0  0  0  0  0  0  0  0  0  0  0  0
  189.3640  177.8100  140.0850 C   0  0  0  0  0  3  0  0  0  0  0  0
  191.5260  176.8230  139.5260 N   0  0  0  0  0  1  0  0  0  0  0  0
  186.1890  178.9300  141.5090 N   0  0  0  0  0  0  0  0  0  0  0  0
  190.4610  176.3450  141.6720 C   0  0  0  0  0  3  0  0  0  0  0  0
  188.8220  177.8860  148.8230 O   0  0  0  0  0  1  0  0  0  0  0  0
  189.4000  176.5100  142.5660 C   0  0  0  0  0  3  0  0  0  0  0  0
  187.8890  178.0750  147.8120 C   0  0  0  0  0  0  0  0  0  0  0  0
  188.3080  177.3230  142.2260 C   0  0  0  0  0  0  0  0  0  0  0  0
  184.9130  178.4470  143.5390 C   0  0  0  0  0  0  0  0  0  0  0  0
  190.4430  176.9930  140.4330 C   0  0  0  0  0  0  0  0  0  0  0  0
  188.3000  177.9750  140.9760 C   0  0  0  0  0  0  0  0  0  0  0  0
  186.0110  178.4630  145.7610 C   0  0  0  0  0  0  0  0  0  0  0  0
  187.2430  177.5130  143.1230 C   0  0  0  0  0  0  0  0  0  0  0  0
  188.0290  177.4030  146.5970 C   0  0  0  0  0  3  0  0  0  0  0  0
  187.2240  178.7890  140.6430 C   0  0  0  0  0  3  0  0  0  0  0  0
  186.8090  178.9350  148.0100 C   0  0  0  0  0  3  0  0  0  0  0  0
  185.8680  179.1130  146.9930 C   0  0  0  0  0  3  0  0  0  0  0  0
  187.1040  177.5960  145.5640 C   0  0  0  0  0  0  0  0  0  0  0  0
  181.0830  178.7090  141.6040 C   0  0  0  0  0  3  0  0  0  0  0  0
  183.5950  178.5540  142.8580 C   0  0  0  0  0  0  0  0  0  0  0  0
  183.4380  178.1610  141.5180 C   0  0  0  0  0  3  0  0  0  0  0  0
  182.1900  178.2410  140.8930 C   0  0  0  0  0  3  0  0  0  0  0  0
  181.2220  179.0940  142.9390 C   0  0  0  0  0  3  0  0  0  0  0  0
  182.4700  179.0130  143.5630 C   0  0  0  0  0  3  0  0  0  0  0  0
  1 15  1  0  0  0  0
  2 16  1  0  0  0  0
  2 12  1  0  0  0  0
  3 21  1  0  0  0  0
  4 13  2  0  0  0  0
  4 14  1  0  0  0  0
  5 13  1  0  0  0  0
  6  2  2  0  0  0  0
  7  9  2  0  0  0  0
 10 19  1  0  0  0  0
 10  8  1  0  0  0  0
 11  9  1  0  0  0  0
 11 16  2  0  0  0  0
 12  1  2  0  0  0  0
 13  7  1  0  0  0  0
 14 11  1  0  0  0  0
 15 20  1  0  0  0  0
 16  3  1  0  0  0  0
 17 10  2  0  0  0  0
 18 14  2  0  0  0  0
 18  6  1  0  0  0  0
 20 19  2  0  0  0  0
 21 15  2  0  0  0  0
 21 17  1  0  0  0  0
 22 26  1  0  0  0  0
 23 12  1  0  0  0  0
 23 27  1  0  0  0  0
 24 23  2  0  0  0  0
 25 24  1  0  0  0  0
 25 22  2  0  0  0  0
 26 27  2  0  0  0  0
M  END
>  <MODEL>
1

>  <REMARK>
 VINA RESULT:     -10.3      0.000      0.000
  Name = 
  1 active torsions:
  status: ('A' for Active; 'I' for Inactive)
    1  A    between atoms: C_9  and  C_15
                            x       y       z     vdW  Elec       q    Type
                         _______ _______ _______ _____ _____    ______ ____

>  <TORSDO>
F 1

$$$$
=
 OpenBabel11052413513D

 27 31  0  0  0  0  0  0  0  0999 V2000
  185.8210  178.2020  144.0150 N   0  0  0  0  0  0  0  0  0  0  0  0
  187.9360  177.4870  143.0000 C   0  0  0  0  0  0  0  0  0  0  0  0
  186.9130  179.0790  141.4310 O   0  0  0  0  0  0  0  0  0  0  0  0
  190.7220  176.4250  140.0570 C   0  0  0  0  0  3  0  0  0  0  0  0
  191.6690  176.6990  137.8230 N   0  0  0  0  0  1  0  0  0  0  0  0
  188.8750  176.5200  143.2090 N   0  0  0  0  0  0  0  0  0  0  0  0
  189.7710  178.0570  138.5410 C   0  0  0  0  0  3  0  0  0  0  0  0
  182.4600  179.2920  139.6500 O   0  0  0  0  0  1  0  0  0  0  0  0
  188.8320  178.4170  139.5110 C   0  0  0  0  0  3  0  0  0  0  0  0
  183.3080  178.9870  140.7050 C   0  0  0  0  0  0  0  0  0  0  0  0
  188.8310  177.7880  140.7650 C   0  0  0  0  0  0  0  0  0  0  0  0
  187.0780  177.8890  144.1460 C   0  0  0  0  0  0  0  0  0  0  0  0
  190.7150  177.0630  138.8130 C   0  0  0  0  0  0  0  0  0  0  0  0
  189.7850  176.7840  141.0300 C   0  0  0  0  0  0  0  0  0  0  0  0
  185.0290  178.3620  142.8350 C   0  0  0  0  0  0  0  0  0  0  0  0
  187.8810  178.1260  141.7430 C   0  0  0  0  0  0  0  0  0  0  0  0
  184.6840  179.1860  140.5770 C   0  0  0  0  0  3  0  0  0  0  0  0
  189.7790  176.1520  142.2670 C   0  0  0  0  0  3  0  0  0  0  0  0
  182.7870  178.4860  141.8980 C   0  0  0  0  0  3  0  0  0  0  0  0
  183.6450  178.1900  142.9600 C   0  0  0  0  0  3  0  0  0  0  0  0
  185.5520  178.8680  141.6280 C   0  0  0  0  0  0  0  0  0  0  0  0
  188.6640  177.8320  148.1410 C   0  0  0  0  0  3  0  0  0  0  0  0
  187.6290  177.8490  145.5270 C   0  0  0  0  0  0  0  0  0  0  0  0
  188.9850  177.5640  145.7580 C   0  0  0  0  0  3  0  0  0  0  0  0
  189.4990  177.5520  147.0580 C   0  0  0  0  0  3  0  0  0  0  0  0
  187.3160  178.1250  147.9260 C   0  0  0  0  0  3  0  0  0  0  0  0
  186.8030  178.1370  146.6260 C   0  0  0  0  0  3  0  0  0  0  0  0
  1 12  2  0  0  0  0
  2  6  1  0  0  0  0
  2 12  1  0  0  0  0
  3 21  1  0  0  0  0
  3 16  1  0  0  0  0
  4 14  1  0  0  0  0
  5 13  1  0  0  0  0
  7 13  1  0  0  0  0
  7  9  2  0  0  0  0
  8 10  1  0  0  0  0
  9 11  1  0  0  0  0
 10 19  1  0  0  0  0
 11 14  2  0  0  0  0
 11 16  1  0  0  0  0
 12 23  1  0  0  0  0
 13  4  2  0  0  0  0
 14 18  1  0  0  0  0
 15 20  1  0  0  0  0
 15  1  1  0  0  0  0
 16  2  2  0  0  0  0
 17 10  2  0  0  0  0
 17 21  1  0  0  0  0
 18  6  2  0  0  0  0
 19 20  2  0  0  0  0
 21 15  2  0  0  0  0
 23 24  2  0  0  0  0
 23 27  1  0  0  0  0
 24 25  1  0  0  0  0
 25 22  2  0  0  0  0
 26 22  1  0  0  0  0
 27 26  2  0  0  0  0
M  END
>  <MODEL>
2

>  <REMARK>
 VINA RESULT:     -10.2      2.032      5.489
  Name = 
  1 active torsions:
  status: ('A' for Active; 'I' for Inactive)
    1  A    between atoms: C_9  and  C_15
                            x       y       z     vdW  Elec       q    Type
                         _______ _______ _______ _____ _____    ______ ____

>  <TORSDO>
F 1

$$$$
=
 OpenBabel11052413513D

 27 31  0  0  0  0  0  0  0  0999 V2000
  187.1970  178.2840  141.4590 N   0  0  0  0  0  0  0  0  0  0  0  0
  189.2580  177.8310  142.7100 C   0  0  0  0  0  0  0  0  0  0  0  0
  187.4040  176.9990  144.0940 O   0  0  0  0  0  0  0  0  0  0  0  0
  191.8590  177.3530  145.9590 C   0  0  0  0  0  3  0  0  0  0  0  0
  192.2870  176.6560  148.2600 N   0  0  0  0  0  1  0  0  0  0  0  0
  190.5740  178.1820  142.6390 N   0  0  0  0  0  0  0  0  0  0  0  0
  190.0530  176.4490  147.2950 C   0  0  0  0  0  3  0  0  0  0  0  0
  183.2980  179.1030  145.4180 O   0  0  0  0  0  1  0  0  0  0  0  0
  189.1720  176.6080  146.2220 C   0  0  0  0  0  3  0  0  0  0  0  0
  184.2920  178.9230  144.4660 C   0  0  0  0  0  0  0  0  0  0  0  0
  189.6280  177.1380  145.0050 C   0  0  0  0  0  0  0  0  0  0  0  0
  188.4450  177.9110  141.4670 C   0  0  0  0  0  0  0  0  0  0  0  0
  191.3940  176.8190  147.1640 C   0  0  0  0  0  0  0  0  0  0  0  0
  190.9820  177.5120  144.8830 C   0  0  0  0  0  0  0  0  0  0  0  0
  186.3110  178.5620  142.5470 C   0  0  0  0  0  0  0  0  0  0  0  0
  188.7500  177.3220  143.9240 C   0  0  0  0  0  0  0  0  0  0  0  0
  185.3530  178.0520  144.7190 C   0  0  0  0  0  3  0  0  0  0  0  0
  191.4310  178.0470  143.6820 C   0  0  0  0  0  3  0  0  0  0  0  0
  184.2310  179.6080  143.2530 C   0  0  0  0  0  3  0  0  0  0  0  0
  185.2290  179.4150  142.2950 C   0  0  0  0  0  3  0  0  0  0  0  0
  186.3700  177.8720  143.7740 C   0  0  0  0  0  0  0  0  0  0  0  0
  190.2450  177.1400  137.6400 C   0  0  0  0  0  3  0  0  0  0  0  0
  189.0850  177.6520  140.1510 C   0  0  0  0  0  0  0  0  0  0  0  0
  190.0260  176.6200  139.9940 C   0  0  0  0  0  3  0  0  0  0  0  0
  190.6050  176.3680  138.7470 C   0  0  0  0  0  3  0  0  0  0  0  0
  189.3040  178.1630  137.7800 C   0  0  0  0  0  3  0  0  0  0  0  0
  188.7250  178.4140  139.0270 C   0  0  0  0  0  3  0  0  0  0  0  0
  1 12  2  0  0  0  0
  1 15  1  0  0  0  0
  2 16  1  0  0  0  0
  4 13  2  0  0  0  0
  6  2  2  0  0  0  0
  6 18  1  0  0  0  0
  9  7  2  0  0  0  0
 10 17  1  0  0  0  0
 10  8  1  0  0  0  0
 11  9  1  0  0  0  0
 12  2  1  0  0  0  0
 13  7  1  0  0  0  0
 13  5  1  0  0  0  0
 14 11  1  0  0  0  0
 14  4  1  0  0  0  0
 15 21  1  0  0  0  0
 16  3  1  0  0  0  0
 16 11  2  0  0  0  0
 18 14  2  0  0  0  0
 19 10  2  0  0  0  0
 20 15  2  0  0  0  0
 20 19  1  0  0  0  0
 21  3  1  0  0  0  0
 21 17  2  0  0  0  0
 22 26  2  0  0  0  0
 22 25  1  0  0  0  0
 23 12  1  0  0  0  0
 24 23  1  0  0  0  0
 25 24  2  0  0  0  0
 26 27  1  0  0  0  0
 27 23  2  0  0  0  0
M  END
>  <MODEL>
3

>  <REMARK>
 VINA RESULT:     -10.1      2.677      5.783
  Name = 
  1 active torsions:
  status: ('A' for Active; 'I' for Inactive)
    1  A    between atoms: C_9  and  C_15
                            x       y       z     vdW  Elec       q    Type
                         _______ _______ _______ _____ _____    ______ ____

>  <TORSDO>
F 1

$$$$
=
 OpenBabel11052413513D

 27 31  0  0  0  0  0  0  0  0999 V2000
  185.5840  178.3900  145.1300 N   0  0  0  0  0  0  0  0  0  0  0  0
  186.5330  178.2540  142.8730 C   0  0  0  0  0  0  0  0  0  0  0  0
  187.8870  176.7700  144.2890 O   0  0  0  0  0  0  0  0  0  0  0  0
  189.3810  177.8910  139.8220 C   0  0  0  0  0  3  0  0  0  0  0  0
  191.4530  176.9430  138.9450 N   0  0  0  0  0  1  0  0  0  0  0  0
  186.4150  178.9260  141.6910 N   0  0  0  0  0  0  0  0  0  0  0  0
  190.6700  176.3570  141.1830 C   0  0  0  0  0  3  0  0  0  0  0  0
  189.9570  177.5430  148.5510 O   0  0  0  0  0  1  0  0  0  0  0  0
  189.7310  176.4740  142.2120 C   0  0  0  0  0  3  0  0  0  0  0  0
  188.9030  177.7760  147.6780 C   0  0  0  0  0  0  0  0  0  0  0  0
  188.6060  177.2970  142.0540 C   0  0  0  0  0  0  0  0  0  0  0  0
  185.4070  178.3400  143.8410 C   0  0  0  0  0  0  0  0  0  0  0  0
  190.4950  177.0640  139.9890 C   0  0  0  0  0  0  0  0  0  0  0  0
  188.4390  178.0080  140.8480 C   0  0  0  0  0  0  0  0  0  0  0  0
  186.7790  178.2530  145.9040 C   0  0  0  0  0  0  0  0  0  0  0  0
  187.6640  177.4380  143.0870 C   0  0  0  0  0  0  0  0  0  0  0  0
  188.8860  177.1640  146.4230 C   0  0  0  0  0  3  0  0  0  0  0  0
  187.3310  178.8320  140.6940 C   0  0  0  0  0  3  0  0  0  0  0  0
  187.8580  178.6200  148.0530 C   0  0  0  0  0  3  0  0  0  0  0  0
  186.7960  178.8430  147.1740 C   0  0  0  0  0  3  0  0  0  0  0  0
  187.8380  177.4020  145.5270 C   0  0  0  0  0  0  0  0  0  0  0  0
  181.3950  178.7730  142.3600 C   0  0  0  0  0  3  0  0  0  0  0  0
  184.0140  178.4730  143.3400 C   0  0  0  0  0  0  0  0  0  0  0  0
  182.9760  178.8940  144.1890 C   0  0  0  0  0  3  0  0  0  0  0  0
  181.6730  179.0390  143.7020 C   0  0  0  0  0  3  0  0  0  0  0  0
  182.4180  178.3630  141.5030 C   0  0  0  0  0  3  0  0  0  0  0  0
  183.7210  178.2180  141.9900 C   0  0  0  0  0  3  0  0  0  0  0  0
  1 15  1  0  0  0  0
  2 16  1  0  0  0  0
  2 12  1  0  0  0  0
  3 21  1  0  0  0  0
  4 13  2  0  0  0  0
  4 14  1  0  0  0  0
  5 13  1  0  0  0  0
  6  2  2  0  0  0  0
  7  9  2  0  0  0  0
 10 19  1  0  0  0  0
 10  8  1  0  0  0  0
 11  9  1  0  0  0  0
 11 16  2  0  0  0  0
 12  1  2  0  0  0  0
 13  7  1  0  0  0  0
 14 11  1  0  0  0  0
 15 20  1  0  0  0  0
 16  3  1  0  0  0  0
 17 10  2  0  0  0  0
 18 14  2  0  0  0  0
 18  6  1  0  0  0  0
 20 19  2  0  0  0  0
 21 15  2  0  0  0  0
 21 17  1  0  0  0  0
 22 25  1  0  0  0  0
 23 12  1  0  0  0  0
 23 24  1  0  0  0  0
 25 24  2  0  0  0  0
 26 27  1  0  0  0  0
 26 22  2  0  0  0  0
 27 23  2  0  0  0  0
M  END
>  <MODEL>
4

>  <REMARK>
 VINA RESULT:      -9.9      0.658      1.160
  Name = 
  1 active torsions:
  status: ('A' for Active; 'I' for Inactive)
    1  A    between atoms: C_9  and  C_15
                            x       y       z     vdW  Elec       q    Type
                         _______ _______ _______ _____ _____    ______ ____

>  <TORSDO>
F 1

$$$$
=
 OpenBabel11052413513D

 27 31  0  0  0  0  0  0  0  0999 V2000
  185.6700  178.4430  140.6340 N   0  0  0  0  0  0  0  0  0  0  0  0
  186.7500  177.8930  142.7660 C   0  0  0  0  0  0  0  0  0  0  0  0
  188.4610  178.9830  141.3780 O   0  0  0  0  0  0  0  0  0  0  0  0
  189.7260  176.7530  145.4870 C   0  0  0  0  0  3  0  0  0  0  0  0
  192.0550  176.7520  146.2170 N   0  0  0  0  0  1  0  0  0  0  0  0
  186.4700  177.1430  143.8710 N   0  0  0  0  0  0  0  0  0  0  0  0
  191.3990  177.9040  144.1660 C   0  0  0  0  0  3  0  0  0  0  0  0
  189.8050  178.1550  136.8450 O   0  0  0  0  0  1  0  0  0  0  0  0
  190.4180  178.2860  143.2470 C   0  0  0  0  0  3  0  0  0  0  0  0
  188.8010  178.1900  137.8030 C   0  0  0  0  0  0  0  0  0  0  0  0
  189.0800  177.9090  143.4410 C   0  0  0  0  0  0  0  0  0  0  0  0
  185.6110  178.3620  141.9320 C   0  0  0  0  0  0  0  0  0  0  0  0
  191.0540  177.1400  145.2840 C   0  0  0  0  0  0  0  0  0  0  0  0
  188.7420  177.1350  144.5700 C   0  0  0  0  0  0  0  0  0  0  0  0
  186.7760  178.2530  139.7470 C   0  0  0  0  0  0  0  0  0  0  0  0
  188.0860  178.2700  142.5150 C   0  0  0  0  0  0  0  0  0  0  0  0
  189.0970  178.5750  139.1120 C   0  0  0  0  0  3  0  0  0  0  0  0
  187.4200  176.7530  144.7580 C   0  0  0  0  0  3  0  0  0  0  0  0
  187.4950  177.8440  137.4600 C   0  0  0  0  0  3  0  0  0  0  0  0
  186.4880  177.8910  138.4260 C   0  0  0  0  0  3  0  0  0  0  0  0
  188.0980  178.6010  140.0910 C   0  0  0  0  0  0  0  0  0  0  0  0
  181.8380  179.1910  143.8180 C   0  0  0  0  0  3  0  0  0  0  0  0
  184.3060  178.6670  142.5740 C   0  0  0  0  0  0  0  0  0  0  0  0
  183.1090  178.6260  141.8380 C   0  0  0  0  0  3  0  0  0  0  0  0
  181.8830  178.8900  142.4550 C   0  0  0  0  0  3  0  0  0  0  0  0
  183.0180  179.2260  144.5650 C   0  0  0  0  0  3  0  0  0  0  0  0
  184.2440  178.9620  143.9460 C   0  0  0  0  0  3  0  0  0  0  0  0
  1 12  2  0  0  0  0
  2  6  1  0  0  0  0
  3 16  1  0  0  0  0
  6 18  2  0  0  0  0
  7 13  2  0  0  0  0
  8 10  1  0  0  0  0
  9 11  2  0  0  0  0
  9  7  1  0  0  0  0
 10 17  1  0  0  0  0
 11 14  1  0  0  0  0
 12 23  1  0  0  0  0
 12  2  1  0  0  0  0
 13  4  1  0  0  0  0
 13  5  1  0  0  0  0
 14 18  1  0  0  0  0
 14  4  2  0  0  0  0
 15 21  1  0  0  0  0
 15  1  1  0  0  0  0
 16  2  2  0  0  0  0
 16 11  1  0  0  0  0
 17 21  2  0  0  0  0
 19 10  2  0  0  0  0
 19 20  1  0  0  0  0
 20 15  2  0  0  0  0
 21  3  1  0  0  0  0
 22 26  1  0  0  0  0
 23 27  1  0  0  0  0
 24 25  1  0  0  0  0
 24 23  2  0  0  0  0
 25 22  2  0  0  0  0
 27 26  2  0  0  0  0
M  END
>  <MODEL>
5

>  <REMARK>
 VINA RESULT:      -9.1      2.722      5.368
  Name = 
  1 active torsions:
  status: ('A' for Active; 'I' for Inactive)
    1  A    between atoms: C_9  and  C_15
                            x       y       z     vdW  Elec       q    Type
                         _______ _______ _______ _____ _____    ______ ____

>  <TORSDO>
F 1

$$$$
=
 OpenBabel11052413513D

 27 31  0  0  0  0  0  0  0  0999 V2000
  186.8890  177.9510  144.9760 N   0  0  0  0  0  0  0  0  0  0  0  0
  187.2250  178.0860  142.5500 C   0  0  0  0  0  0  0  0  0  0  0  0
  188.8060  176.3970  143.3800 O   0  0  0  0  0  0  0  0  0  0  0  0
  189.1790  178.0510  138.8440 C   0  0  0  0  0  3  0  0  0  0  0  0
  190.9020  177.1730  137.3540 N   0  0  0  0  0  1  0  0  0  0  0  0
  186.8500  178.9080  141.5270 N   0  0  0  0  0  0  0  0  0  0  0  0
  190.6810  176.3220  139.6320 C   0  0  0  0  0  3  0  0  0  0  0  0
  191.9320  176.5590  147.0200 O   0  0  0  0  0  1  0  0  0  0  0  0
  190.0420  176.3270  140.8750 C   0  0  0  0  0  3  0  0  0  0  0  0
  190.7060  176.9300  146.4840 C   0  0  0  0  0  0  0  0  0  0  0  0
  188.9630  177.1920  141.1130 C   0  0  0  0  0  0  0  0  0  0  0  0
  186.3880  178.0730  143.7800 C   0  0  0  0  0  0  0  0  0  0  0  0
  190.2490  177.1810  138.6180 C   0  0  0  0  0  0  0  0  0  0  0  0
  188.5370  178.0570  140.0850 C   0  0  0  0  0  0  0  0  0  0  0  0
  188.2320  177.6860  145.3910 C   0  0  0  0  0  0  0  0  0  0  0  0
  188.3240  177.2210  142.3650 C   0  0  0  0  0  0  0  0  0  0  0  0
  190.3360  176.4860  145.2130 C   0  0  0  0  0  3  0  0  0  0  0  0
  187.4750  178.9210  140.3230 C   0  0  0  0  0  3  0  0  0  0  0  0
  189.8410  177.7440  147.2140 C   0  0  0  0  0  3  0  0  0  0  0  0
  188.6050  178.1050  146.6740 C   0  0  0  0  0  3  0  0  0  0  0  0
  189.1090  176.8650  144.6540 C   0  0  0  0  0  0  0  0  0  0  0  0
  182.1430  178.6890  143.5070 C   0  0  0  0  0  3  0  0  0  0  0  0
  184.9240  178.3050  143.6760 C   0  0  0  0  0  0  0  0  0  0  0  0
  184.2650  178.2320  142.4370 C   0  0  0  0  0  3  0  0  0  0  0  0
  182.8830  178.4270  142.3520 C   0  0  0  0  0  3  0  0  0  0  0  0
  182.7830  178.7540  144.7470 C   0  0  0  0  0  3  0  0  0  0  0  0
  184.1650  178.5590  144.8300 C   0  0  0  0  0  3  0  0  0  0  0  0
  1 15  1  0  0  0  0
  2 12  1  0  0  0  0
  3 21  1  0  0  0  0
  4 14  1  0  0  0  0
  5 13  1  0  0  0  0
  6  2  2  0  0  0  0
  7  9  2  0  0  0  0
  9 11  1  0  0  0  0
 10  8  1  0  0  0  0
 10 19  1  0  0  0  0
 11 16  2  0  0  0  0
 12  1  2  0  0  0  0
 13  4  2  0  0  0  0
 13  7  1  0  0  0  0
 14 18  2  0  0  0  0
 14 11  1  0  0  0  0
 15 20  1  0  0  0  0
 16  2  1  0  0  0  0
 16  3  1  0  0  0  0
 17 10  2  0  0  0  0
 18  6  1  0  0  0  0
 20 19  2  0  0  0  0
 21 17  1  0  0  0  0
 21 15  2  0  0  0  0
 22 26  1  0  0  0  0
 23 12  1  0  0  0  0
 23 27  1  0  0  0  0
 24 23  2  0  0  0  0
 25 24  1  0  0  0  0
 25 22  2  0  0  0  0
 26 27  2  0  0  0  0
M  END
>  <MODEL>
6

>  <REMARK>
 VINA RESULT:      -9.0      1.613      2.114
  Name = 
  1 active torsions:
  status: ('A' for Active; 'I' for Inactive)
    1  A    between atoms: C_9  and  C_15
                            x       y       z     vdW  Elec       q    Type
                         _______ _______ _______ _____ _____    ______ ____

>  <TORSDO>
F 1

$$$$
=
 OpenBabel11052413513D

 27 31  0  0  0  0  0  0  0  0999 V2000
  187.2520  178.1360  142.8490 N   0  0  0  0  0  0  0  0  0  0  0  0
  188.8380  177.4900  141.0930 C   0  0  0  0  0  0  0  0  0  0  0  0
  187.2140  179.0080  140.0420 O   0  0  0  0  0  0  0  0  0  0  0  0
  190.3110  176.4900  137.3010 C   0  0  0  0  0  3  0  0  0  0  0  0
  190.3050  176.7610  134.8740 N   0  0  0  0  0  1  0  0  0  0  0  0
  189.8280  176.5680  140.9230 N   0  0  0  0  0  0  0  0  0  0  0  0
  188.7730  178.0520  136.2710 C   0  0  0  0  0  3  0  0  0  0  0  0
  182.4140  179.0000  140.1280 O   0  0  0  0  0  1  0  0  0  0  0  0
  188.2670  178.3910  137.5290 C   0  0  0  0  0  3  0  0  0  0  0  0
  183.6190  178.7510  140.7730 C   0  0  0  0  0  0  0  0  0  0  0  0
  188.7820  177.7850  138.6860 C   0  0  0  0  0  0  0  0  0  0  0  0
  188.4740  177.8780  142.4820 C   0  0  0  0  0  0  0  0  0  0  0  0
  189.7930  177.1040  136.1570 C   0  0  0  0  0  0  0  0  0  0  0  0
  189.8090  176.8280  138.5600 C   0  0  0  0  0  0  0  0  0  0  0  0
  186.0570  178.2400  142.0680 C   0  0  0  0  0  0  0  0  0  0  0  0
  188.2700  178.1030  139.9560 C   0  0  0  0  0  0  0  0  0  0  0  0
  184.8270  179.0050  140.1200 C   0  0  0  0  0  3  0  0  0  0  0  0
  190.3120  176.2200  139.7040 C   0  0  0  0  0  3  0  0  0  0  0  0
  183.6250  178.2510  142.0740 C   0  0  0  0  0  3  0  0  0  0  0  0
  184.8390  178.0120  142.7210 C   0  0  0  0  0  3  0  0  0  0  0  0
  186.0480  178.7440  140.7520 C   0  0  0  0  0  0  0  0  0  0  0  0
  191.5280  177.8710  145.5080 C   0  0  0  0  0  3  0  0  0  0  0  0
  189.5180  177.8870  143.5410 C   0  0  0  0  0  0  0  0  0  0  0  0
  189.3670  177.1260  144.7120 C   0  0  0  0  0  3  0  0  0  0  0  0
  190.3650  177.1210  145.6920 C   0  0  0  0  0  3  0  0  0  0  0  0
  191.6950  178.6260  144.3440 C   0  0  0  0  0  3  0  0  0  0  0  0
  190.6970  178.6300  143.3650 C   0  0  0  0  0  3  0  0  0  0  0  0
  2 12  1  0  0  0  0
  3 21  1  0  0  0  0
  4 14  1  0  0  0  0
  5 13  1  0  0  0  0
  6  2  1  0  0  0  0
  7  9  2  0  0  0  0
  8 10  1  0  0  0  0
  9 11  1  0  0  0  0
 10 19  1  0  0  0  0
 11 16  1  0  0  0  0
 12  1  2  0  0  0  0
 12 23  1  0  0  0  0
 13  7  1  0  0  0  0
 13  4  2  0  0  0  0
 14 11  2  0  0  0  0
 14 18  1  0  0  0  0
 15 20  1  0  0  0  0
 15  1  1  0  0  0  0
 16  3  1  0  0  0  0
 16  2  2  0  0  0  0
 17 21  1  0  0  0  0
 17 10  2  0  0  0  0
 18  6  2  0  0  0  0
 19 20  2  0  0  0  0
 21 15  2  0  0  0  0
 22 25  1  0  0  0  0
 23 24  1  0  0  0  0
 24 25  2  0  0  0  0
 26 22  2  0  0  0  0
 27 23  2  0  0  0  0
 27 26  1  0  0  0  0
M  END
>  <MODEL>
7

>  <REMARK>
 VINA RESULT:      -8.9      2.942      6.294
  Name = 
  1 active torsions:
  status: ('A' for Active; 'I' for Inactive)
    1  A    between atoms: C_9  and  C_15
                            x       y       z     vdW  Elec       q    Type
                         _______ _______ _______ _____ _____    ______ ____

>  <TORSDO>
F 1

$$$$
=
 OpenBabel11052413513D

 27 31  0  0  0  0  0  0  0  0999 V2000
  184.5420  178.8580  138.2150 N   0  0  0  0  0  0  0  0  0  0  0  0
  183.6440  179.0120  140.4920 C   0  0  0  0  0  0  0  0  0  0  0  0
  186.0800  179.2790  140.6830 O   0  0  0  0  0  0  0  0  0  0  0  0
  183.3930  178.6030  144.6540 C   0  0  0  0  0  3  0  0  0  0  0  0
  184.4420  178.5800  146.8580 N   0  0  0  0  0  1  0  0  0  0  0  0
  182.4590  178.7700  141.1240 N   0  0  0  0  0  0  0  0  0  0  0  0
  185.7810  178.9550  144.8510 C   0  0  0  0  0  3  0  0  0  0  0  0
  189.6660  176.6550  138.8660 O   0  0  0  0  0  1  0  0  0  0  0  0
  185.8810  179.0880  143.4630 C   0  0  0  0  0  3  0  0  0  0  0  0
  188.3840  177.1720  138.7390 C   0  0  0  0  0  0  0  0  0  0  0  0
  184.7370  178.9830  142.6580 C   0  0  0  0  0  0  0  0  0  0  0  0
  183.6150  179.2760  139.0290 C   0  0  0  0  0  0  0  0  0  0  0  0
  184.5390  178.7140  145.4460 C   0  0  0  0  0  0  0  0  0  0  0  0
  183.4890  178.7370  143.2660 C   0  0  0  0  0  0  0  0  0  0  0  0
  185.7880  178.2120  138.4900 C   0  0  0  0  0  0  0  0  0  0  0  0
  184.8250  179.0950  141.2600 C   0  0  0  0  0  0  0  0  0  0  0  0
  187.8520  177.9770  139.7470 C   0  0  0  0  0  3  0  0  0  0  0  0
  182.3570  178.6230  142.4690 C   0  0  0  0  0  3  0  0  0  0  0  0
  187.6270  176.8910  137.6020 C   0  0  0  0  0  3  0  0  0  0  0  0
  186.3420  177.4230  137.4750 C   0  0  0  0  0  3  0  0  0  0  0  0
  186.5550  178.4930  139.6380 C   0  0  0  0  0  0  0  0  0  0  0  0
  180.1950  181.2640  137.3460 C   0  0  0  0  0  3  0  0  0  0  0  0
  182.4410  179.9620  138.4270 C   0  0  0  0  0  0  0  0  0  0  0  0
  181.4940  179.2490  137.6720 C   0  0  0  0  0  3  0  0  0  0  0  0
  180.3800  179.8970  137.1310 C   0  0  0  0  0  3  0  0  0  0  0  0
  181.1230  181.9840  138.1020 C   0  0  0  0  0  3  0  0  0  0  0  0
  182.2370  181.3350  138.6430 C   0  0  0  0  0  3  0  0  0  0  0  0
  1 15  1  0  0  0  0
  1 12  2  0  0  0  0
  2  6  2  0  0  0  0
  2 16  1  0  0  0  0
  3 16  1  0  0  0  0
  4 13  2  0  0  0  0
  6 18  1  0  0  0  0
  7 13  1  0  0  0  0
  9  7  2  0  0  0  0
 10  8  1  0  0  0  0
 10 17  1  0  0  0  0
 11 14  1  0  0  0  0
 11  9  1  0  0  0  0
 12  2  1  0  0  0  0
 13  5  1  0  0  0  0
 14  4  1  0  0  0  0
 15 21  1  0  0  0  0
 16 11  2  0  0  0  0
 18 14  2  0  0  0  0
 19 10  2  0  0  0  0
 20 19  1  0  0  0  0
 20 15  2  0  0  0  0
 21 17  2  0  0  0  0
 21  3  1  0  0  0  0
 22 26  1  0  0  0  0
 23 27  1  0  0  0  0
 23 12  1  0  0  0  0
 24 23  2  0  0  0  0
 25 22  2  0  0  0  0
 25 24  1  0  0  0  0
 26 27  2  0  0  0  0
M  END
>  <MODEL>
8

>  <REMARK>
 VINA RESULT:      -8.2      3.198      6.556
  Name = 
  1 active torsions:
  status: ('A' for Active; 'I' for Inactive)
    1  A    between atoms: C_9  and  C_15
                            x       y       z     vdW  Elec       q    Type
                         _______ _______ _______ _____ _____    ______ ____

>  <TORSDO>
F 1

$$$$
=
 OpenBabel11052413513D

 27 31  0  0  0  0  0  0  0  0999 V2000
  186.7510  178.2430  140.1050 N   0  0  0  0  0  0  0  0  0  0  0  0
  188.3250  178.0950  141.9790 C   0  0  0  0  0  0  0  0  0  0  0  0
  186.1600  177.2950  142.8230 O   0  0  0  0  0  0  0  0  0  0  0  0
  189.7840  178.1970  145.9060 C   0  0  0  0  0  3  0  0  0  0  0  0
  189.4880  177.8090  148.2980 N   0  0  0  0  0  1  0  0  0  0  0  0
  189.5840  178.5330  142.2710 N   0  0  0  0  0  0  0  0  0  0  0  0
  187.6800  177.3230  146.7290 C   0  0  0  0  0  3  0  0  0  0  0  0
  181.7760  179.2270  142.5190 O   0  0  0  0  0  1  0  0  0  0  0  0
  187.1780  177.2900  145.4250 C   0  0  0  0  0  3  0  0  0  0  0  0
  183.0250  179.0110  141.9540 C   0  0  0  0  0  0  0  0  0  0  0  0
  187.9760  177.7060  144.3480 C   0  0  0  0  0  0  0  0  0  0  0  0
  187.9440  177.9680  140.5470 C   0  0  0  0  0  0  0  0  0  0  0  0
  188.9810  177.7750  146.9690 C   0  0  0  0  0  0  0  0  0  0  0  0
  189.2860  178.1630  144.6000 C   0  0  0  0  0  0  0  0  0  0  0  0
  185.5570  178.5790  140.8180 C   0  0  0  0  0  0  0  0  0  0  0  0
  187.4780  177.6950  143.0340 C   0  0  0  0  0  0  0  0  0  0  0  0
  183.9820  178.2570  142.6370 C   0  0  0  0  0  3  0  0  0  0  0  0
  190.0730  178.5850  143.5360 C   0  0  0  0  0  3  0  0  0  0  0  0
  183.3270  179.5430  140.7000 C   0  0  0  0  0  3  0  0  0  0  0  0
  184.5820  179.3130  140.1320 C   0  0  0  0  0  3  0  0  0  0  0  0
  185.2500  178.0440  142.0850 C   0  0  0  0  0  0  0  0  0  0  0  0
  190.8860  176.8840  137.6070 C   0  0  0  0  0  3  0  0  0  0  0  0
  188.9760  177.6050  139.5400 C   0  0  0  0  0  0  0  0  0  0  0  0
  190.0390  176.7460  139.8690 C   0  0  0  0  0  3  0  0  0  0  0  0
  190.9900  176.3900  138.9090 C   0  0  0  0  0  3  0  0  0  0  0  0
  189.8300  177.7310  137.2630 C   0  0  0  0  0  3  0  0  0  0  0  0
  188.8790  178.0850  138.2240 C   0  0  0  0  0  3  0  0  0  0  0  0
  1 12  2  0  0  0  0
  1 15  1  0  0  0  0
  2  6  2  0  0  0  0
  2 16  1  0  0  0  0
  3 16  1  0  0  0  0
  4 13  2  0  0  0  0
  6 18  1  0  0  0  0
  7 13  1  0  0  0  0
  9  7  2  0  0  0  0
 10  8  1  0  0  0  0
 10 17  1  0  0  0  0
 11 14  1  0  0  0  0
 11  9  1  0  0  0  0
 12  2  1  0  0  0  0
 13  5  1  0  0  0  0
 14  4  1  0  0  0  0
 15 21  1  0  0  0  0
 16 11  2  0  0  0  0
 18 14  2  0  0  0  0
 19 10  2  0  0  0  0
 20 19  1  0  0  0  0
 20 15  2  0  0  0  0
 21 17  2  0  0  0  0
 21  3  1  0  0  0  0
 22 25  1  0  0  0  0
 23 24  1  0  0  0  0
 23 12  1  0  0  0  0
 25 24  2  0  0  0  0
 26 22  2  0  0  0  0
 26 27  1  0  0  0  0
 27 23  2  0  0  0  0
M  END
>  <MODEL>
9

>  <REMARK>
 VINA RESULT:      -8.1      2.349      6.431
  Name = 
  1 active torsions:
  status: ('A' for Active; 'I' for Inactive)
    1  A    between atoms: C_9  and  C_15
                            x       y       z     vdW  Elec       q    Type
                         _______ _______ _______ _____ _____    ______ ____

>  <TORSDO>
F 1

$$$$
