=
 OpenBabel11052415473D

 34 38  0  0  1  0  0  0  0  0999 V2000
  188.3140  177.7790  144.9530 C   0  0  0  0  0  0  0  0  0  0  0  0
  191.5430  177.2160  143.2870 C   0  0  0  0  0  3  0  0  0  0  0  0
  190.8760  176.9170  145.4170 O   0  0  0  0  0  0  0  0  0  0  0  0
  186.1300  178.4470  145.8120 C   0  0  0  0  0  0  0  0  0  0  0  0
  186.9960  178.2300  144.7440 C   0  0  0  0  0  3  0  0  0  0  0  0
  187.8580  177.7530  147.3600 C   0  0  0  0  0  0  0  0  0  0  0  0
  188.2430  177.5310  148.7150 N   0  0  0  0  0  1  0  0  0  0  0  0
  186.5630  178.2120  147.1140 C   0  0  0  0  0  3  0  0  0  0  0  0
  190.0610  177.0380  146.4550 C   0  0  0  0  0  0  0  0  0  0  0  0
  188.7510  177.5290  146.2790 C   0  0  0  0  0  0  0  0  0  0  0  0
  190.4950  176.7280  147.5960 O   0  0  0  0  0  0  0  0  0  0  0  0
  191.4930  177.7760  141.9070 C   0  0  0  0  0  2  0  0  0  0  0  0
  190.5220  177.0650  141.0330 C   0  0  0  0  0  0  0  0  0  0  0  0
  189.2320  177.0320  141.3520 C   0  0  0  0  0  3  0  0  0  0  0  0
  190.5350  177.2000  144.1660 C   0  0  0  0  0  0  0  0  0  0  0  0
  188.6350  177.4690  142.6260 C   0  0  0  0  0  3  0  0  0  0  0  0
  189.1830  177.5340  143.8620 C   0  0  0  0  0  0  0  0  0  0  0  0
  190.9550  176.5530  139.7650 N   0  0  0  0  0  0  0  0  0  0  0  0
  190.1960  175.8300  139.0850 O   0  0  0  0  0  0  0  0  0  0  0  0
  192.2000  176.8700  139.2690 O   0  0  0  0  0  0  0  0  0  0  0  0
  184.7470  178.9500  145.5650 C   0  0  0  0  0  2  0  0  0  0  0  0
  182.1570  178.8630  142.9130 C   0  0  0  0  0  3  0  0  0  0  0  0
  185.0170  179.1580  143.0690 C   0  0  0  0  0  2  0  0  0  0  0  0
  183.0840  178.6070  139.2580 C   0  0  0  0  0  0  0  0  0  0  0  0
  182.3230  178.6610  140.4370 C   0  0  0  0  0  3  0  0  0  0  0  0
  182.9520  178.8060  141.6760 C   0  0  0  0  0  0  0  0  0  0  0  0
  185.1140  178.8650  140.5740 C   0  0  0  0  0  3  0  0  0  0  0  0
  184.3540  178.9030  141.7450 C   0  0  0  0  0  0  0  0  0  0  0  0
  184.4810  178.7090  139.3370 C   0  0  0  0  0  3  0  0  0  0  0  0
  184.2330  178.4920  144.2090 C   0  0  2  0  0  3  0  0  0  0  0  0
  182.7550  178.7650  144.1040 C   0  0  0  0  0  3  0  0  0  0  0  0
  182.4430  178.4520  137.9850 N   0  0  0  0  0  0  0  0  0  0  0  0
  181.1970  178.9920  137.7640 O   0  0  0  0  0  0  0  0  0  0  0  0
  183.0070  177.8280  137.0630 O   0  0  0  0  0  0  0  0  0  0  0  0
  1 10  1  0  0  0  0
  2 15  2  0  0  0  0
  3  9  1  0  0  0  0
  4  8  2  0  0  0  0
  5  1  2  0  0  0  0
  5  4  1  0  0  0  0
  6  7  1  0  0  0  0
  8  6  1  0  0  0  0
  9 11  2  0  0  0  0
 10  9  1  0  0  0  0
 10  6  2  0  0  0  0
 12  2  1  0  0  0  0
 13 14  2  0  0  0  0
 13 12  1  0  0  0  0
 14 16  1  0  0  0  0
 15  3  1  0  0  0  0
 16 17  2  0  0  0  0
 17 15  1  0  0  0  0
 17  1  1  0  0  0  0
 18 13  1  0  0  0  0
 19 18  2  0  0  0  0
 20 18  2  0  0  0  0
 21  4  1  0  0  0  0
 22 31  2  0  0  0  0
 23 30  1  0  0  0  0
 24 29  2  0  0  0  0
 24 25  1  0  0  0  0
 25 26  2  0  0  0  0
 26 28  1  0  0  0  0
 26 22  1  0  0  0  0
 27 28  2  0  0  0  0
 28 23  1  0  0  0  0
 29 27  1  0  0  0  0
 30 21  1  1  0  0  0
 31 30  1  0  0  0  0
 32 24  1  0  0  0  0
 33 32  2  0  0  0  0
 34 32  2  0  0  0  0
M  END
>  <MODEL>
1

>  <REMARK>
 VINA RESULT:     -11.5      0.000      0.000
  Name = 
  4 active torsions:
  status: ('A' for Active; 'I' for Inactive)
    1  A    between atoms: N_3  and  C_25
    2  A    between atoms: C_7  and  N_11
    3  A    between atoms: C_8  and  C_18
    4  A    between atoms: C_18  and  C_30
                            x       y       z     vdW  Elec       q    Type
                         _______ _______ _______ _____ _____    ______ ____

>  <TORSDO>
F 4

$$$$
=
 OpenBabel11052415473D

 34 38  0  0  1  0  0  0  0  0999 V2000
  184.1990  178.7230  141.4550 C   0  0  0  0  0  0  0  0  0  0  0  0
  185.6270  178.0110  138.1430 C   0  0  0  0  0  3  0  0  0  0  0  0
  183.6080  178.7800  138.7780 O   0  0  0  0  0  0  0  0  0  0  0  0
  183.4690  178.9000  143.7770 C   0  0  0  0  0  0  0  0  0  0  0  0
  184.4740  178.6900  142.8360 C   0  0  0  0  0  3  0  0  0  0  0  0
  181.8590  179.2040  141.9940 C   0  0  0  0  0  0  0  0  0  0  0  0
  180.5060  179.4670  141.6240 N   0  0  0  0  0  1  0  0  0  0  0  0
  182.1660  179.1530  143.3540 C   0  0  0  0  0  3  0  0  0  0  0  0
  182.6380  179.0590  139.6370 C   0  0  0  0  0  0  0  0  0  0  0  0
  182.8750  178.9920  141.0250 C   0  0  0  0  0  0  0  0  0  0  0  0
  181.5030  179.3610  139.1810 O   0  0  0  0  0  0  0  0  0  0  0  0
  186.9380  177.3210  138.3060 C   0  0  0  0  0  2  0  0  0  0  0  0
  187.9650  178.1840  138.9480 C   0  0  0  0  0  0  0  0  0  0  0  0
  187.7660  178.6660  140.1710 C   0  0  0  0  0  3  0  0  0  0  0  0
  184.8470  178.4600  139.1320 C   0  0  0  0  0  0  0  0  0  0  0  0
  186.5090  178.6100  140.9380 C   0  0  0  0  0  3  0  0  0  0  0  0
  185.2300  178.5360  140.5020 C   0  0  0  0  0  0  0  0  0  0  0  0
  189.2380  178.3640  138.3120 N   0  0  0  0  0  0  0  0  0  0  0  0
  190.2690  177.8700  138.8150 O   0  0  0  0  0  0  0  0  0  0  0  0
  189.3380  179.0610  137.1290 O   0  0  0  0  0  0  0  0  0  0  0  0
  183.7810  178.8350  145.2350 C   0  0  0  0  0  2  0  0  0  0  0  0
  186.7380  178.1850  147.3750 C   0  0  0  0  0  3  0  0  0  0  0  0
  185.9490  177.6910  144.6500 C   0  0  0  0  0  2  0  0  0  0  0  0
  190.0060  176.9770  145.9100 C   0  0  0  0  0  0  0  0  0  0  0  0
  189.0500  177.4380  146.8300 C   0  0  0  0  0  3  0  0  0  0  0  0
  187.7430  177.7020  146.4130 C   0  0  0  0  0  0  0  0  0  0  0  0
  188.3220  177.0290  144.1550 C   0  0  0  0  0  3  0  0  0  0  0  0
  187.3790  177.5010  145.0700 C   0  0  0  0  0  0  0  0  0  0  0  0
  189.6320  176.7750  144.5730 C   0  0  0  0  0  3  0  0  0  0  0  0
  185.2830  178.8060  145.4710 C   0  0  2  0  0  3  0  0  0  0  0  0
  185.5650  178.6590  146.9440 C   0  0  0  0  0  3  0  0  0  0  0  0
  191.3510  176.7110  146.3310 N   0  0  0  0  0  0  0  0  0  0  0  0
  191.7940  177.1490  147.5570 O   0  0  0  0  0  0  0  0  0  0  0  0
  192.1330  176.0790  145.5920 O   0  0  0  0  0  0  0  0  0  0  0  0
  1  5  1  0  0  0  0
  2 12  1  0  0  0  0
  2 15  2  0  0  0  0
  3 15  1  0  0  0  0
  3  9  1  0  0  0  0
  4 21  1  0  0  0  0
  5  4  2  0  0  0  0
  6  8  2  0  0  0  0
  7  6  1  0  0  0  0
  8  4  1  0  0  0  0
  9 10  1  0  0  0  0
 10  1  2  0  0  0  0
 10  6  1  0  0  0  0
 11  9  2  0  0  0  0
 12 13  1  0  0  0  0
 13 14  2  0  0  0  0
 14 16  1  0  0  0  0
 15 17  1  0  0  0  0
 17 16  2  0  0  0  0
 17  1  1  0  0  0  0
 18 19  2  0  0  0  0
 18 13  1  0  0  0  0
 20 18  2  0  0  0  0
 23 28  1  0  0  0  0
 23 30  1  0  0  0  0
 24 32  1  0  0  0  0
 24 25  1  0  0  0  0
 26 25  2  0  0  0  0
 26 22  1  0  0  0  0
 27 29  1  0  0  0  0
 27 28  2  0  0  0  0
 28 26  1  0  0  0  0
 29 24  2  0  0  0  0
 30 21  1  1  0  0  0
 30 31  1  0  0  0  0
 31 22  2  0  0  0  0
 32 33  2  0  0  0  0
 34 32  2  0  0  0  0
M  END
>  <MODEL>
2

>  <REMARK>
 VINA RESULT:     -11.3      1.834      7.398
  Name = 
  4 active torsions:
  status: ('A' for Active; 'I' for Inactive)
    1  A    between atoms: N_3  and  C_25
    2  A    between atoms: C_7  and  N_11
    3  A    between atoms: C_8  and  C_18
    4  A    between atoms: C_18  and  C_30
                            x       y       z     vdW  Elec       q    Type
                         _______ _______ _______ _____ _____    ______ ____

>  <TORSDO>
F 4

$$$$
=
 OpenBabel11052415473D

 34 38  0  0  1  0  0  0  0  0999 V2000
  186.9620  178.1510  141.0510 C   0  0  0  0  0  0  0  0  0  0  0  0
  189.2600  177.2560  138.3240 C   0  0  0  0  0  3  0  0  0  0  0  0
  187.2570  178.2870  138.3280 O   0  0  0  0  0  0  0  0  0  0  0  0
  185.5650  178.4230  143.0340 C   0  0  0  0  0  0  0  0  0  0  0  0
  186.7810  178.0810  142.4460 C   0  0  0  0  0  3  0  0  0  0  0  0
  184.6510  178.9390  140.8510 C   0  0  0  0  0  0  0  0  0  0  0  0
  183.5290  179.3790  140.0880 N   0  0  0  0  0  1  0  0  0  0  0  0
  184.5050  178.8460  142.2360 C   0  0  0  0  0  3  0  0  0  0  0  0
  186.1090  178.6920  138.8520 C   0  0  0  0  0  0  0  0  0  0  0  0
  185.8860  178.5930  140.2400 C   0  0  0  0  0  0  0  0  0  0  0  0
  185.2230  179.1420  138.0780 O   0  0  0  0  0  0  0  0  0  0  0  0
  190.3550  176.3990  138.8590 C   0  0  0  0  0  2  0  0  0  0  0  0
  191.2260  177.1180  139.8260 C   0  0  0  0  0  0  0  0  0  0  0  0
  190.7140  177.6210  140.9450 C   0  0  0  0  0  3  0  0  0  0  0  0
  188.2710  177.8050  139.0380 C   0  0  0  0  0  0  0  0  0  0  0  0
  189.2830  177.7330  141.2780 C   0  0  0  0  0  3  0  0  0  0  0  0
  188.2080  177.8290  140.4610 C   0  0  0  0  0  0  0  0  0  0  0  0
  192.6470  177.1270  139.6270 N   0  0  0  0  0  0  0  0  0  0  0  0
  193.4140  177.4110  140.5720 O   0  0  0  0  0  0  0  0  0  0  0  0
  193.1850  176.8000  138.4030 O   0  0  0  0  0  0  0  0  0  0  0  0
  185.3910  178.3160  144.5120 C   0  0  0  0  0  2  0  0  0  0  0  0
  187.5270  177.7230  147.4840 C   0  0  0  0  0  3  0  0  0  0  0  0
  187.6930  177.3000  144.6410 C   0  0  0  0  0  2  0  0  0  0  0  0
  191.1560  176.7300  147.1390 C   0  0  0  0  0  0  0  0  0  0  0  0
  189.9290  177.1090  147.7060 C   0  0  0  0  0  3  0  0  0  0  0  0
  188.8150  177.3260  146.8920 C   0  0  0  0  0  0  0  0  0  0  0  0
  190.1330  176.7700  144.9320 C   0  0  0  0  0  3  0  0  0  0  0  0
  188.9180  177.1610  145.4990 C   0  0  0  0  0  0  0  0  0  0  0  0
  191.2490  176.5630  145.7480 C   0  0  0  0  0  3  0  0  0  0  0  0
  186.7340  178.3490  145.2240 C   0  0  2  0  0  3  0  0  0  0  0  0
  186.5320  178.1580  146.7050 C   0  0  0  0  0  3  0  0  0  0  0  0
  192.3050  176.5110  147.9690 N   0  0  0  0  0  0  0  0  0  0  0  0
  193.1240  175.4270  147.7500 O   0  0  0  0  0  0  0  0  0  0  0  0
  192.5760  177.3000  148.8980 O   0  0  0  0  0  0  0  0  0  0  0  0
  1  5  1  0  0  0  0
  2 12  1  0  0  0  0
  2 15  2  0  0  0  0
  3  9  1  0  0  0  0
  3 15  1  0  0  0  0
  4 21  1  0  0  0  0
  5  4  2  0  0  0  0
  6  8  2  0  0  0  0
  7  6  1  0  0  0  0
  8  4  1  0  0  0  0
  9 10  1  0  0  0  0
 10  6  1  0  0  0  0
 10  1  2  0  0  0  0
 11  9  2  0  0  0  0
 12 13  1  0  0  0  0
 13 14  2  0  0  0  0
 14 16  1  0  0  0  0
 15 17  1  0  0  0  0
 17  1  1  0  0  0  0
 17 16  2  0  0  0  0
 18 13  1  0  0  0  0
 18 19  2  0  0  0  0
 20 18  2  0  0  0  0
 23 30  1  0  0  0  0
 23 28  1  0  0  0  0
 24 25  1  0  0  0  0
 24 32  1  0  0  0  0
 26 22  1  0  0  0  0
 26 25  2  0  0  0  0
 27 28  2  0  0  0  0
 27 29  1  0  0  0  0
 28 26  1  0  0  0  0
 29 24  2  0  0  0  0
 30 21  1  6  0  0  0
 30 31  1  0  0  0  0
 31 22  2  0  0  0  0
 32 34  2  0  0  0  0
 33 32  2  0  0  0  0
M  END
>  <MODEL>
3

>  <REMARK>
 VINA RESULT:     -11.0      1.980      7.487
  Name = 
  4 active torsions:
  status: ('A' for Active; 'I' for Inactive)
    1  A    between atoms: N_3  and  C_25
    2  A    between atoms: C_7  and  N_11
    3  A    between atoms: C_8  and  C_18
    4  A    between atoms: C_18  and  C_30
                            x       y       z     vdW  Elec       q    Type
                         _______ _______ _______ _____ _____    ______ ____

>  <TORSDO>
F 4

$$$$
=
 OpenBabel11052415473D

 34 38  0  0  1  0  0  0  0  0999 V2000
  186.7710  178.1800  144.4830 C   0  0  0  0  0  0  0  0  0  0  0  0
  188.6600  177.7380  147.6070 C   0  0  0  0  0  3  0  0  0  0  0  0
  186.4520  177.9010  147.1930 O   0  0  0  0  0  0  0  0  0  0  0  0
  185.8210  178.6800  142.2920 C   0  0  0  0  0  0  0  0  0  0  0  0
  186.9090  178.3370  143.0910 C   0  0  0  0  0  3  0  0  0  0  0  0
  184.3910  178.7090  144.2460 C   0  0  0  0  0  0  0  0  0  0  0  0
  183.0850  178.9150  144.7800 N   0  0  0  0  0  1  0  0  0  0  0  0
  184.5690  178.8680  142.8720 C   0  0  0  0  0  3  0  0  0  0  0  0
  185.3760  178.1540  146.4610 C   0  0  0  0  0  0  0  0  0  0  0  0
  185.4930  178.3590  145.0710 C   0  0  0  0  0  0  0  0  0  0  0  0
  184.2610  178.2290  147.0420 O   0  0  0  0  0  0  0  0  0  0  0  0
  190.1160  177.9020  147.3330 C   0  0  0  0  0  2  0  0  0  0  0  0
  190.6570  176.8370  146.4470 C   0  0  0  0  0  0  0  0  0  0  0  0
  190.1740  176.6780  145.2190 C   0  0  0  0  0  3  0  0  0  0  0  0
  187.6790  177.7870  146.6990 C   0  0  0  0  0  0  0  0  0  0  0  0
  188.9750  177.3290  144.6600 C   0  0  0  0  0  3  0  0  0  0  0  0
  187.8740  177.8030  145.2880 C   0  0  0  0  0  0  0  0  0  0  0  0
  191.8090  176.0900  146.8610 N   0  0  0  0  0  0  0  0  0  0  0  0
  192.2670  175.1840  146.1330 O   0  0  0  0  0  0  0  0  0  0  0  0
  192.4390  176.3750  148.0510 O   0  0  0  0  0  0  0  0  0  0  0  0
  185.9990  178.8670  140.8220 C   0  0  0  0  0  2  0  0  0  0  0  0
  188.1300  177.6000  138.0650 C   0  0  0  0  0  3  0  0  0  0  0  0
  188.4910  178.4980  140.7780 C   0  0  0  0  0  2  0  0  0  0  0  0
  191.7380  176.6370  138.6440 C   0  0  0  0  0  0  0  0  0  0  0  0
  190.4960  176.8270  138.0170 C   0  0  0  0  0  3  0  0  0  0  0  0
  189.4330  177.4000  138.7200 C   0  0  0  0  0  0  0  0  0  0  0  0
  190.8440  177.6200  140.6820 C   0  0  0  0  0  3  0  0  0  0  0  0
  189.6070  177.7930  140.0590 C   0  0  0  0  0  0  0  0  0  0  0  0
  191.9030  177.0370  139.9790 C   0  0  0  0  0  3  0  0  0  0  0  0
  187.1250  177.9920  140.2930 C   0  0  2  0  0  3  0  0  0  0  0  0
  187.0550  177.9240  138.7890 C   0  0  0  0  0  3  0  0  0  0  0  0
  192.8310  176.0430  137.9290 N   0  0  0  0  0  0  0  0  0  0  0  0
  192.8490  174.6890  137.6880 O   0  0  0  0  0  0  0  0  0  0  0  0
  193.7760  176.7470  137.5180 O   0  0  0  0  0  0  0  0  0  0  0  0
  1 10  1  0  0  0  0
  1 17  1  0  0  0  0
  4  8  2  0  0  0  0
  4  5  1  0  0  0  0
  5  1  2  0  0  0  0
  6  7  1  0  0  0  0
  6 10  2  0  0  0  0
  8  6  1  0  0  0  0
  9 11  2  0  0  0  0
  9  3  1  0  0  0  0
 10  9  1  0  0  0  0
 12  2  1  0  0  0  0
 13 18  1  0  0  0  0
 13 12  1  0  0  0  0
 14 13  2  0  0  0  0
 15  3  1  0  0  0  0
 15  2  2  0  0  0  0
 16 14  1  0  0  0  0
 16 17  2  0  0  0  0
 17 15  1  0  0  0  0
 18 20  2  0  0  0  0
 19 18  2  0  0  0  0
 21  4  1  0  0  0  0
 22 26  1  0  0  0  0
 22 31  2  0  0  0  0
 24 29  1  0  0  0  0
 25 24  2  0  0  0  0
 25 26  1  0  0  0  0
 26 28  2  0  0  0  0
 28 27  1  0  0  0  0
 28 23  1  0  0  0  0
 29 27  2  0  0  0  0
 30 23  1  0  0  0  0
 30 21  1  6  0  0  0
 31 30  1  0  0  0  0
 32 24  1  0  0  0  0
 33 32  2  0  0  0  0
 34 32  2  0  0  0  0
M  END
>  <MODEL>
4

>  <REMARK>
 VINA RESULT:     -10.8      3.254      6.439
  Name = 
  4 active torsions:
  status: ('A' for Active; 'I' for Inactive)
    1  A    between atoms: N_3  and  C_25
    2  A    between atoms: C_7  and  N_11
    3  A    between atoms: C_8  and  C_18
    4  A    between atoms: C_18  and  C_30
                            x       y       z     vdW  Elec       q    Type
                         _______ _______ _______ _____ _____    ______ ____

>  <TORSDO>
F 4

$$$$
=
 OpenBabel11052415473D

 34 38  0  0  1  0  0  0  0  0999 V2000
  187.5860  177.8790  144.1600 C   0  0  0  0  0  0  0  0  0  0  0  0
  189.0260  177.4850  147.5200 C   0  0  0  0  0  3  0  0  0  0  0  0
  186.8960  177.6150  146.8000 O   0  0  0  0  0  0  0  0  0  0  0  0
  186.9450  178.3510  141.8530 C   0  0  0  0  0  0  0  0  0  0  0  0
  187.9150  178.0280  142.7990 C   0  0  0  0  0  3  0  0  0  0  0  0
  185.2560  178.3750  143.5890 C   0  0  0  0  0  0  0  0  0  0  0  0
  183.8860  178.5680  143.9330 N   0  0  0  0  0  1  0  0  0  0  0  0
  185.6220  178.5270  142.2500 C   0  0  0  0  0  3  0  0  0  0  0  0
  185.9290  177.8490  145.9240 C   0  0  0  0  0  0  0  0  0  0  0  0
  186.2360  178.0460  144.5620 C   0  0  0  0  0  0  0  0  0  0  0  0
  184.7430  177.9130  146.3420 O   0  0  0  0  0  0  0  0  0  0  0  0
  190.5030  177.6660  147.4510 C   0  0  0  0  0  2  0  0  0  0  0  0
  191.1750  176.6030  146.6580 C   0  0  0  0  0  0  0  0  0  0  0  0
  190.8700  176.4280  145.3760 C   0  0  0  0  0  3  0  0  0  0  0  0
  188.1810  177.5150  146.4840 C   0  0  0  0  0  0  0  0  0  0  0  0
  189.7540  177.0580  144.6500 C   0  0  0  0  0  3  0  0  0  0  0  0
  188.5710  177.5230  145.1130 C   0  0  0  0  0  0  0  0  0  0  0  0
  192.2680  175.8730  147.2350 N   0  0  0  0  0  0  0  0  0  0  0  0
  192.7430  174.8790  146.6460 O   0  0  0  0  0  0  0  0  0  0  0  0
  192.8220  176.2710  148.4310 O   0  0  0  0  0  0  0  0  0  0  0  0
  187.3240  178.5300  140.4210 C   0  0  0  0  0  2  0  0  0  0  0  0
  189.0530  176.4230  137.9060 C   0  0  0  0  0  3  0  0  0  0  0  0
  189.7940  178.2150  140.0350 C   0  0  0  0  0  2  0  0  0  0  0  0
  192.7740  175.7880  138.0870 C   0  0  0  0  0  0  0  0  0  0  0  0
  191.4320  175.7250  137.6780 C   0  0  0  0  0  3  0  0  0  0  0  0
  190.4600  176.4870  138.3320 C   0  0  0  0  0  0  0  0  0  0  0  0
  192.1610  177.4020  139.8010 C   0  0  0  0  0  3  0  0  0  0  0  0
  190.8260  177.3250  139.4010 C   0  0  0  0  0  0  0  0  0  0  0  0
  193.1300  176.6310  139.1510 C   0  0  0  0  0  3  0  0  0  0  0  0
  188.4120  177.5460  140.0170 C   0  0  2  0  0  3  0  0  0  0  0  0
  188.0930  176.9590  138.6670 C   0  0  0  0  0  3  0  0  0  0  0  0
  193.7740  175.0040  137.4230 N   0  0  0  0  0  0  0  0  0  0  0  0
  195.1050  175.3340  137.5380 O   0  0  0  0  0  0  0  0  0  0  0  0
  193.4510  174.0140  136.7350 O   0  0  0  0  0  0  0  0  0  0  0  0
  1 10  1  0  0  0  0
  1 17  1  0  0  0  0
  4  8  2  0  0  0  0
  4  5  1  0  0  0  0
  5  1  2  0  0  0  0
  6  7  1  0  0  0  0
  6 10  2  0  0  0  0
  8  6  1  0  0  0  0
  9 11  2  0  0  0  0
  9  3  1  0  0  0  0
 10  9  1  0  0  0  0
 12  2  1  0  0  0  0
 13 18  1  0  0  0  0
 13 12  1  0  0  0  0
 14 13  2  0  0  0  0
 15  3  1  0  0  0  0
 15  2  2  0  0  0  0
 16 17  2  0  0  0  0
 16 14  1  0  0  0  0
 17 15  1  0  0  0  0
 18 20  2  0  0  0  0
 19 18  2  0  0  0  0
 21  4  1  0  0  0  0
 22 26  1  0  0  0  0
 22 31  2  0  0  0  0
 24 29  1  0  0  0  0
 25 24  2  0  0  0  0
 25 26  1  0  0  0  0
 26 28  2  0  0  0  0
 28 27  1  0  0  0  0
 28 23  1  0  0  0  0
 29 27  2  0  0  0  0
 30 23  1  0  0  0  0
 30 21  1  6  0  0  0
 31 30  1  0  0  0  0
 32 33  2  0  0  0  0
 32 24  1  0  0  0  0
 34 32  2  0  0  0  0
M  END
>  <MODEL>
5

>  <REMARK>
 VINA RESULT:     -10.2      3.420      7.063
  Name = 
  4 active torsions:
  status: ('A' for Active; 'I' for Inactive)
    1  A    between atoms: N_3  and  C_25
    2  A    between atoms: C_7  and  N_11
    3  A    between atoms: C_8  and  C_18
    4  A    between atoms: C_18  and  C_30
                            x       y       z     vdW  Elec       q    Type
                         _______ _______ _______ _____ _____    ______ ____

>  <TORSDO>
F 4

$$$$
=
 OpenBabel11052415473D

 34 38  0  0  1  0  0  0  0  0999 V2000
  184.2170  178.6590  142.5730 C   0  0  0  0  0  0  0  0  0  0  0  0
  184.9090  178.6800  146.1840 C   0  0  0  0  0  3  0  0  0  0  0  0
  182.9820  178.5930  145.0210 O   0  0  0  0  0  0  0  0  0  0  0  0
  184.0700  178.8690  140.1460 C   0  0  0  0  0  0  0  0  0  0  0  0
  184.8260  178.7040  141.3040 C   0  0  0  0  0  3  0  0  0  0  0  0
  182.0450  178.9350  141.4730 C   0  0  0  0  0  0  0  0  0  0  0  0
  180.6250  179.0630  141.4980 N   0  0  0  0  0  1  0  0  0  0  0  0
  182.6850  178.9880  140.2340 C   0  0  0  0  0  3  0  0  0  0  0  0
  182.2200  178.6770  143.9400 C   0  0  0  0  0  0  0  0  0  0  0  0
  182.8050  178.7670  142.6610 C   0  0  0  0  0  0  0  0  0  0  0  0
  180.9690  178.6960  144.0890 O   0  0  0  0  0  0  0  0  0  0  0  0
  186.3560  178.9570  146.4100 C   0  0  0  0  0  2  0  0  0  0  0  0
  187.2350  177.8740  145.8940 C   0  0  0  0  0  0  0  0  0  0  0  0
  187.2250  177.5600  144.6020 C   0  0  0  0  0  3  0  0  0  0  0  0
  184.3090  178.5540  144.9950 C   0  0  0  0  0  0  0  0  0  0  0  0
  186.2640  178.0410  143.5930 C   0  0  0  0  0  3  0  0  0  0  0  0
  184.9870  178.4630  143.7450 C   0  0  0  0  0  0  0  0  0  0  0  0
  188.2100  177.2790  146.7620 N   0  0  0  0  0  0  0  0  0  0  0  0
  189.2970  176.8720  146.3030 O   0  0  0  0  0  0  0  0  0  0  0  0
  187.9710  177.1710  148.1140 O   0  0  0  0  0  0  0  0  0  0  0  0
  184.7420  178.9400  138.8160 C   0  0  0  0  0  2  0  0  0  0  0  0
  187.2340  177.0040  136.8680 C   0  0  0  0  0  3  0  0  0  0  0  0
  187.1580  178.4640  139.3500 C   0  0  0  0  0  2  0  0  0  0  0  0
  190.5750  176.0390  138.3470 C   0  0  0  0  0  0  0  0  0  0  0  0
  189.4920  176.1390  137.4580 C   0  0  0  0  0  3  0  0  0  0  0  0
  188.3700  176.8980  137.7980 C   0  0  0  0  0  0  0  0  0  0  0  0
  189.4040  177.4870  139.9130 C   0  0  0  0  0  3  0  0  0  0  0  0
  188.3240  177.5710  139.0320 C   0  0  0  0  0  0  0  0  0  0  0  0
  190.5220  176.7180  139.5740 C   0  0  0  0  0  3  0  0  0  0  0  0
  185.8680  177.9220  138.7170 C   0  0  2  0  0  3  0  0  0  0  0  0
  186.0740  177.5270  137.2780 C   0  0  0  0  0  3  0  0  0  0  0  0
  191.7270  175.2560  138.0050 N   0  0  0  0  0  0  0  0  0  0  0  0
  192.9760  175.8320  137.9850 O   0  0  0  0  0  0  0  0  0  0  0  0
  191.6110  174.0460  137.7240 O   0  0  0  0  0  0  0  0  0  0  0  0
  1 10  1  0  0  0  0
  1 17  1  0  0  0  0
  2 12  1  0  0  0  0
  4  8  2  0  0  0  0
  4  5  1  0  0  0  0
  5  1  2  0  0  0  0
  6  7  1  0  0  0  0
  6 10  2  0  0  0  0
  8  6  1  0  0  0  0
  9 11  2  0  0  0  0
  9  3  1  0  0  0  0
 10  9  1  0  0  0  0
 13 12  1  0  0  0  0
 13 18  1  0  0  0  0
 14 13  2  0  0  0  0
 15  3  1  0  0  0  0
 15  2  2  0  0  0  0
 16 17  2  0  0  0  0
 16 14  1  0  0  0  0
 17 15  1  0  0  0  0
 18 20  2  0  0  0  0
 19 18  2  0  0  0  0
 21  4  1  0  0  0  0
 22 31  2  0  0  0  0
 22 26  1  0  0  0  0
 24 29  1  0  0  0  0
 25 26  1  0  0  0  0
 25 24  2  0  0  0  0
 26 28  2  0  0  0  0
 28 23  1  0  0  0  0
 28 27  1  0  0  0  0
 29 27  2  0  0  0  0
 30 21  1  6  0  0  0
 30 23  1  0  0  0  0
 31 30  1  0  0  0  0
 32 24  1  0  0  0  0
 33 32  2  0  0  0  0
 34 32  2  0  0  0  0
M  END
>  <MODEL>
6

>  <REMARK>
 VINA RESULT:     -10.0      2.621      7.400
  Name = 
  4 active torsions:
  status: ('A' for Active; 'I' for Inactive)
    1  A    between atoms: N_3  and  C_25
    2  A    between atoms: C_7  and  N_11
    3  A    between atoms: C_8  and  C_18
    4  A    between atoms: C_18  and  C_30
                            x       y       z     vdW  Elec       q    Type
                         _______ _______ _______ _____ _____    ______ ____

>  <TORSDO>
F 4

$$$$
=
 OpenBabel11052415473D

 34 38  0  0  1  0  0  0  0  0999 V2000
  188.8430  177.5050  145.6730 C   0  0  0  0  0  0  0  0  0  0  0  0
  185.4880  178.1820  147.0180 C   0  0  0  0  0  3  0  0  0  0  0  0
  187.5290  178.2240  147.9700 O   0  0  0  0  0  0  0  0  0  0  0  0
  190.8920  176.7990  144.5530 C   0  0  0  0  0  0  0  0  0  0  0  0
  189.5390  177.1250  144.5090 C   0  0  0  0  0  3  0  0  0  0  0  0
  190.9250  177.2350  146.9350 C   0  0  0  0  0  0  0  0  0  0  0  0
  191.6820  177.2700  148.1430 N   0  0  0  0  0  1  0  0  0  0  0  0
  191.5790  176.8510  145.7630 C   0  0  0  0  0  3  0  0  0  0  0  0
  188.8330  177.9950  148.0430 C   0  0  0  0  0  0  0  0  0  0  0  0
  189.5450  177.5700  146.9030 C   0  0  0  0  0  0  0  0  0  0  0  0
  189.4050  178.1420  149.1550 O   0  0  0  0  0  0  0  0  0  0  0  0
  184.4620  177.8060  146.0050 C   0  0  0  0  0  2  0  0  0  0  0  0
  184.5240  178.6530  144.7840 C   0  0  0  0  0  0  0  0  0  0  0  0
  185.6280  178.6830  144.0440 C   0  0  0  0  0  3  0  0  0  0  0  0
  186.8140  178.1150  146.8570 C   0  0  0  0  0  0  0  0  0  0  0  0
  186.9350  178.1030  144.4000 C   0  0  0  0  0  3  0  0  0  0  0  0
  187.4740  177.8630  145.6190 C   0  0  0  0  0  0  0  0  0  0  0  0
  183.3380  179.3110  144.3180 N   0  0  0  0  0  0  0  0  0  0  0  0
  183.3810  180.5040  143.9540 O   0  0  0  0  0  0  0  0  0  0  0  0
  182.1430  178.6310  144.2440 O   0  0  0  0  0  0  0  0  0  0  0  0
  191.6010  176.3730  143.3110 C   0  0  0  0  0  2  0  0  0  0  0  0
  191.5930  177.1150  139.6780 C   0  0  0  0  0  3  0  0  0  0  0  0
  189.6490  176.8190  141.7810 C   0  0  0  0  0  2  0  0  0  0  0  0
  188.4730  178.3150  137.9160 C   0  0  0  0  0  0  0  0  0  0  0  0
  189.8070  177.9510  138.1580 C   0  0  0  0  0  3  0  0  0  0  0  0
  190.1950  177.4980  139.4210 C   0  0  0  0  0  0  0  0  0  0  0  0
  187.9160  177.7460  140.2150 C   0  0  0  0  0  3  0  0  0  0  0  0
  189.2470  177.4000  140.4550 C   0  0  0  0  0  0  0  0  0  0  0  0
  187.5320  178.2090  138.9530 C   0  0  0  0  0  3  0  0  0  0  0  0
  191.1110  177.1600  142.1050 C   0  0  2  0  0  3  0  0  0  0  0  0
  192.0170  176.9090  140.9280 C   0  0  0  0  0  3  0  0  0  0  0  0
  188.0700  178.7860  136.6230 N   0  0  0  0  0  0  0  0  0  0  0  0
  188.4240  178.0920  135.4900 O   0  0  0  0  0  0  0  0  0  0  0  0
  187.3940  179.8300  136.5110 O   0  0  0  0  0  0  0  0  0  0  0  0
  1 10  1  0  0  0  0
  3  9  1  0  0  0  0
  4  8  2  0  0  0  0
  5  4  1  0  0  0  0
  5  1  2  0  0  0  0
  6  7  1  0  0  0  0
  8  6  1  0  0  0  0
  9 11  2  0  0  0  0
 10  6  2  0  0  0  0
 10  9  1  0  0  0  0
 12  2  1  0  0  0  0
 13 12  1  0  0  0  0
 14 16  1  0  0  0  0
 14 13  2  0  0  0  0
 15  2  2  0  0  0  0
 15  3  1  0  0  0  0
 16 17  2  0  0  0  0
 17  1  1  0  0  0  0
 17 15  1  0  0  0  0
 18 13  1  0  0  0  0
 19 18  2  0  0  0  0
 20 18  2  0  0  0  0
 21  4  1  0  0  0  0
 22 31  2  0  0  0  0
 23 30  1  0  0  0  0
 24 25  2  0  0  0  0
 24 29  1  0  0  0  0
 25 26  1  0  0  0  0
 26 22  1  0  0  0  0
 26 28  2  0  0  0  0
 27 28  1  0  0  0  0
 28 23  1  0  0  0  0
 29 27  2  0  0  0  0
 30 21  1  1  0  0  0
 31 30  1  0  0  0  0
 32 24  1  0  0  0  0
 33 32  2  0  0  0  0
 34 32  2  0  0  0  0
M  END
>  <MODEL>
7

>  <REMARK>
 VINA RESULT:     -10.0      3.051      6.206
  Name = 
  4 active torsions:
  status: ('A' for Active; 'I' for Inactive)
    1  A    between atoms: N_3  and  C_25
    2  A    between atoms: C_7  and  N_11
    3  A    between atoms: C_8  and  C_18
    4  A    between atoms: C_18  and  C_30
                            x       y       z     vdW  Elec       q    Type
                         _______ _______ _______ _____ _____    ______ ____

>  <TORSDO>
F 4

$$$$
=
 OpenBabel11052415473D

 34 38  0  0  1  0  0  0  0  0999 V2000
  186.2860  178.0330  144.4450 C   0  0  0  0  0  0  0  0  0  0  0  0
  182.6690  178.6930  144.3960 C   0  0  0  0  0  3  0  0  0  0  0  0
  184.2260  178.9540  146.0030 O   0  0  0  0  0  0  0  0  0  0  0  0
  188.6050  177.3030  144.2380 C   0  0  0  0  0  0  0  0  0  0  0  0
  187.3590  177.5510  143.6700 C   0  0  0  0  0  3  0  0  0  0  0  0
  187.7700  178.0240  146.3940 C   0  0  0  0  0  0  0  0  0  0  0  0
  188.0380  178.2420  147.7780 N   0  0  0  0  0  1  0  0  0  0  0  0
  188.8060  177.5350  145.5960 C   0  0  0  0  0  3  0  0  0  0  0  0
  185.4150  178.8020  146.5680 C   0  0  0  0  0  0  0  0  0  0  0  0
  186.4950  178.2810  145.8260 C   0  0  0  0  0  0  0  0  0  0  0  0
  185.5450  179.1110  147.7820 O   0  0  0  0  0  0  0  0  0  0  0  0
  182.0820  178.1450  143.1410 C   0  0  0  0  0  2  0  0  0  0  0  0
  182.5790  178.8410  141.9240 C   0  0  0  0  0  0  0  0  0  0  0  0
  183.8750  178.8380  141.6320 C   0  0  0  0  0  3  0  0  0  0  0  0
  183.9640  178.6750  144.7320 C   0  0  0  0  0  0  0  0  0  0  0  0
  184.9670  178.3740  142.5070 C   0  0  0  0  0  3  0  0  0  0  0  0
  185.0280  178.3110  143.8570 C   0  0  0  0  0  0  0  0  0  0  0  0
  181.6390  179.3760  140.9820 N   0  0  0  0  0  0  0  0  0  0  0  0
  180.4940  179.7090  141.3530 O   0  0  0  0  0  0  0  0  0  0  0  0
  181.9920  179.5510  139.6630 O   0  0  0  0  0  0  0  0  0  0  0  0
  189.7180  176.7680  143.4000 C   0  0  0  0  0  2  0  0  0  0  0  0
  188.5570  178.4160  140.2880 C   0  0  0  0  0  3  0  0  0  0  0  0
  190.5520  176.4800  141.0400 C   0  0  0  0  0  2  0  0  0  0  0  0
  189.6940  177.2290  136.8850 C   0  0  0  0  0  0  0  0  0  0  0  0
  189.0140  177.9390  137.8870 C   0  0  0  0  0  3  0  0  0  0  0  0
  189.2680  177.6720  139.2350 C   0  0  0  0  0  0  0  0  0  0  0  0
  190.9010  175.9940  138.5990 C   0  0  0  0  0  3  0  0  0  0  0  0
  190.2120  176.6930  139.5920 C   0  0  0  0  0  0  0  0  0  0  0  0
  190.6370  176.2560  137.2510 C   0  0  0  0  0  3  0  0  0  0  0  0
  189.3270  176.7320  141.9310 C   0  0  2  0  0  3  0  0  0  0  0  0
  188.6190  178.0090  141.5590 C   0  0  0  0  0  3  0  0  0  0  0  0
  189.4320  177.4940  135.5000 N   0  0  0  0  0  0  0  0  0  0  0  0
  188.2870  178.1590  135.1240 O   0  0  0  0  0  0  0  0  0  0  0  0
  190.2380  177.1280  134.6210 O   0  0  0  0  0  0  0  0  0  0  0  0
  1 10  1  0  0  0  0
  2 15  2  0  0  0  0
  3  9  1  0  0  0  0
  4  8  2  0  0  0  0
  5  4  1  0  0  0  0
  5  1  2  0  0  0  0
  6  7  1  0  0  0  0
  8  6  1  0  0  0  0
  9 11  2  0  0  0  0
 10  6  2  0  0  0  0
 10  9  1  0  0  0  0
 12  2  1  0  0  0  0
 13 12  1  0  0  0  0
 14 13  2  0  0  0  0
 14 16  1  0  0  0  0
 15  3  1  0  0  0  0
 16 17  2  0  0  0  0
 17  1  1  0  0  0  0
 17 15  1  0  0  0  0
 18 19  2  0  0  0  0
 18 13  1  0  0  0  0
 20 18  2  0  0  0  0
 21  4  1  0  0  0  0
 22 31  2  0  0  0  0
 23 30  1  0  0  0  0
 24 29  2  0  0  0  0
 24 25  1  0  0  0  0
 25 26  2  0  0  0  0
 26 28  1  0  0  0  0
 26 22  1  0  0  0  0
 27 28  2  0  0  0  0
 28 23  1  0  0  0  0
 29 27  1  0  0  0  0
 30 21  1  1  0  0  0
 31 30  1  0  0  0  0
 32 24  1  0  0  0  0
 33 32  2  0  0  0  0
 34 32  2  0  0  0  0
M  END
>  <MODEL>
8

>  <REMARK>
 VINA RESULT:      -9.9      2.717      6.570
  Name = 
  4 active torsions:
  status: ('A' for Active; 'I' for Inactive)
    1  A    between atoms: N_3  and  C_25
    2  A    between atoms: C_7  and  N_11
    3  A    between atoms: C_8  and  C_18
    4  A    between atoms: C_18  and  C_30
                            x       y       z     vdW  Elec       q    Type
                         _______ _______ _______ _____ _____    ______ ____

>  <TORSDO>
F 4

$$$$
=
 OpenBabel11052415473D

 34 38  0  0  1  0  0  0  0  0999 V2000
  189.1630  177.4760  144.4020 C   0  0  0  0  0  0  0  0  0  0  0  0
  191.7220  177.2250  141.7730 C   0  0  0  0  0  3  0  0  0  0  0  0
  191.7620  176.7170  143.9670 O   0  0  0  0  0  0  0  0  0  0  0  0
  187.3400  177.9530  145.9520 C   0  0  0  0  0  0  0  0  0  0  0  0
  187.8340  177.8720  144.6530 C   0  0  0  0  0  3  0  0  0  0  0  0
  189.4820  177.2290  146.8180 C   0  0  0  0  0  0  0  0  0  0  0  0
  190.2770  176.9170  147.9600 N   0  0  0  0  0  1  0  0  0  0  0  0
  188.1650  177.6360  147.0290 C   0  0  0  0  0  3  0  0  0  0  0  0
  191.3100  176.7090  145.2140 C   0  0  0  0  0  0  0  0  0  0  0  0
  189.9980  177.1420  145.4980 C   0  0  0  0  0  0  0  0  0  0  0  0
  192.0860  176.3310  146.1300 O   0  0  0  0  0  0  0  0  0  0  0  0
  191.2280  177.8930  140.5360 C   0  0  0  0  0  2  0  0  0  0  0  0
  190.0520  177.2040  139.9420 C   0  0  0  0  0  0  0  0  0  0  0  0
  188.9270  177.0760  140.6390 C   0  0  0  0  0  3  0  0  0  0  0  0
  191.0390  177.0830  142.9150 C   0  0  0  0  0  0  0  0  0  0  0  0
  188.7480  177.3750  142.0710 C   0  0  0  0  0  3  0  0  0  0  0  0
  189.6530  177.3680  143.0780 C   0  0  0  0  0  0  0  0  0  0  0  0
  190.0790  176.8210  138.5600 N   0  0  0  0  0  0  0  0  0  0  0  0
  190.4390  175.6710  138.2310 O   0  0  0  0  0  0  0  0  0  0  0  0
  189.6870  177.7060  137.5800 O   0  0  0  0  0  0  0  0  0  0  0  0
  185.9360  178.4000  146.1940 C   0  0  0  0  0  2  0  0  0  0  0  0
  185.1490  177.8660  142.6100 C   0  0  0  0  0  3  0  0  0  0  0  0
  183.7380  178.6630  144.9900 C   0  0  0  0  0  2  0  0  0  0  0  0
  181.8510  178.9660  141.1290 C   0  0  0  0  0  0  0  0  0  0  0  0
  183.1560  178.4610  141.2410 C   0  0  0  0  0  3  0  0  0  0  0  0
  183.7810  178.3950  142.4890 C   0  0  0  0  0  0  0  0  0  0  0  0
  181.7960  179.3180  143.5360 C   0  0  0  0  0  3  0  0  0  0  0  0
  183.0990  178.8290  143.6410 C   0  0  0  0  0  0  0  0  0  0  0  0
  181.1770  179.3930  142.2850 C   0  0  0  0  0  3  0  0  0  0  0  0
  185.2640  178.8140  144.8940 C   0  0  2  0  0  3  0  0  0  0  0  0
  185.8320  178.0160  143.7490 C   0  0  0  0  0  3  0  0  0  0  0  0
  181.2070  179.0420  139.8500 N   0  0  0  0  0  0  0  0  0  0  0  0
  181.5790  180.0070  138.9430 O   0  0  0  0  0  0  0  0  0  0  0  0
  180.3050  178.2350  139.5450 O   0  0  0  0  0  0  0  0  0  0  0  0
  1  5  2  0  0  0  0
  1 10  1  0  0  0  0
  2 15  2  0  0  0  0
  3  9  1  0  0  0  0
  4 21  1  0  0  0  0
  4  8  2  0  0  0  0
  5  4  1  0  0  0  0
  6  8  1  0  0  0  0
  6  7  1  0  0  0  0
  9 10  1  0  0  0  0
  9 11  2  0  0  0  0
 10  6  2  0  0  0  0
 12  2  1  0  0  0  0
 13 12  1  0  0  0  0
 13 14  2  0  0  0  0
 14 16  1  0  0  0  0
 15 17  1  0  0  0  0
 15  3  1  0  0  0  0
 16 17  2  0  0  0  0
 17  1  1  0  0  0  0
 18 13  1  0  0  0  0
 19 18  2  0  0  0  0
 20 18  2  0  0  0  0
 22 31  2  0  0  0  0
 24 25  2  0  0  0  0
 24 29  1  0  0  0  0
 25 26  1  0  0  0  0
 26 22  1  0  0  0  0
 26 28  2  0  0  0  0
 27 28  1  0  0  0  0
 28 23  1  0  0  0  0
 29 27  2  0  0  0  0
 30 23  1  0  0  0  0
 30 21  1  1  0  0  0
 31 30  1  0  0  0  0
 32 24  1  0  0  0  0
 33 32  2  0  0  0  0
 34 32  2  0  0  0  0
M  END
>  <MODEL>
9

>  <REMARK>
 VINA RESULT:      -9.9      1.429      2.134
  Name = 
  4 active torsions:
  status: ('A' for Active; 'I' for Inactive)
    1  A    between atoms: N_3  and  C_25
    2  A    between atoms: C_7  and  N_11
    3  A    between atoms: C_8  and  C_18
    4  A    between atoms: C_18  and  C_30
                            x       y       z     vdW  Elec       q    Type
                         _______ _______ _______ _____ _____    ______ ____

>  <TORSDO>
F 4

$$$$
