=
 OpenBabel11052414253D

 34 37  0  0  1  0  0  0  0  0999 V2000
  180.0910  175.5960  139.2080 C   0  0  2  0  0  3  0  0  0  0  0  0
  187.4910  179.1700  136.6040 O   0  0  0  0  0  0  0  0  0  0  0  0
  181.6950  176.9620  137.6830 C   0  0  1  0  0  3  0  0  0  0  0  0
  183.6680  177.9690  138.9890 C   0  0  1  0  0  3  0  0  0  0  0  0
  183.9600  177.0590  136.6590 C   0  0  0  0  0  3  0  0  0  0  0  0
  188.0920  178.6400  138.7770 N   0  0  0  0  0  2  0  0  0  0  0  0
  181.0450  175.6010  138.0010 C   0  0  2  0  0  3  0  0  0  0  0  0
  185.1950  177.5610  136.6240 C   0  0  0  0  0  3  0  0  0  0  0  0
  185.1880  177.9400  139.1220 C   0  0  0  0  0  2  0  0  0  0  0  0
  180.9600  178.1610  138.3180 C   0  0  2  0  0  3  0  0  0  0  0  0
  180.6080  176.5310  140.2930 C   0  0  0  0  0  2  0  0  0  0  0  0
  183.1740  179.3930  138.6890 C   0  0  0  0  0  2  0  0  0  0  0  0
  181.7640  179.4480  138.0650 C   0  0  2  0  0  3  0  0  0  0  0  0
  185.8480  178.0380  137.8130 N   0  0  0  0  0  0  0  0  0  0  0  0
  183.2070  176.9270  137.9510 C   0  0  2  0  0  3  0  0  0  0  0  0
  180.6140  177.9840  139.8130 C   0  0  0  0  0  2  0  0  0  0  0  0
  187.1530  178.6330  137.6930 C   0  0  0  0  0  0  0  0  0  0  0  0
  181.1620  183.1110  137.8390 C   0  0  0  0  0  0  0  0  0  0  0  0
  179.7610  183.1810  137.8280 O   0  0  0  0  0  0  0  0  0  0  0  0
  181.0060  180.7210  138.4650 C   0  0  1  0  0  3  0  0  0  0  0  0
  178.9410  182.0780  138.2200 C   0  0  0  0  0  2  0  0  0  0  0  0
  181.7840  181.9580  138.0970 C   0  0  0  0  0  3  0  0  0  0  0  0
  179.6110  180.7630  137.8330 C   0  0  0  0  0  2  0  0  0  0  0  0
  181.9610  184.3190  137.5080 C   0  0  0  0  0  1  0  0  0  0  0  0
  179.9290  174.2130  139.7490 C   0  0  0  0  0  0  0  0  0  0  0  0
  179.7090  174.0290  141.1070 O   0  0  0  0  0  1  0  0  0  0  0  0
  179.9880  173.2130  138.9840 O   0  0  0  0  0  0  0  0  0  0  0  0
  180.5130  174.9620  136.8590 O   0  0  0  0  0  0  0  0  0  0  0  0
  181.5110  174.1550  136.2890 C   0  0  0  0  0  1  0  0  0  0  0  0
  187.9970  177.8020  139.9650 C   0  0  1  0  0  3  0  0  0  0  0  0
  189.2310  176.9100  140.0880 C   0  0  0  0  0  2  0  0  0  0  0  0
  190.3790  177.5940  139.6830 O   0  0  0  0  0  1  0  0  0  0  0  0
  187.8280  178.6780  141.1960 C   0  0  0  0  0  2  0  0  0  0  0  0
  188.1210  177.7100  142.7040 S   0  0  0  0  0  1  0  0  0  0  0  0
  1 25  1  1  0  0  0
  1 11  1  0  0  0  0
  2 17  2  0  0  0  0
  3 15  1  0  0  0  0
  3  7  1  0  0  0  0
  3 10  1  0  0  0  0
  4  9  1  0  0  0  0
  5 15  1  0  0  0  0
  6 30  1  0  0  0  0
  7  1  1  0  0  0  0
  8  5  2  0  0  0  0
  8 14  1  0  0  0  0
 10 16  1  0  0  0  0
 12  4  1  0  0  0  0
 13 10  1  0  0  0  0
 13 20  1  0  0  0  0
 13 12  1  0  0  0  0
 14  9  1  0  0  0  0
 15  4  1  0  0  0  0
 16 11  1  0  0  0  0
 17 14  1  0  0  0  0
 17  6  1  0  0  0  0
 18 22  2  0  0  0  0
 19 18  1  0  0  0  0
 19 21  1  0  0  0  0
 22 20  1  0  0  0  0
 23 21  1  0  0  0  0
 23 20  1  0  0  0  0
 24 18  1  0  0  0  0
 25 26  1  0  0  0  0
 27 25  2  0  0  0  0
 28  7  1  0  0  0  0
 29 28  1  0  0  0  0
 30 31  1  0  0  0  0
 30 33  1  0  0  0  0
 32 31  1  0  0  0  0
 33 34  1  0  0  0  0
M  END
>  <MODEL>
1

>  <REMARK>
 VINA RESULT:      -5.5      0.000      0.000
  Name = 
  6 active torsions:
  status: ('A' for Active; 'I' for Inactive)
    1  A    between atoms: C_1  and  C_6
    2  A    between atoms: O_2  and  C_15
    3  A    between atoms: C_11  and  CA_20
    4  A    between atoms: C_12  and  C_28
    5  A    between atoms: N_13  and  CA_20
    6  A    between atoms: CB_14  and  CA_20
                            x       y       z     vdW  Elec       q    Type
                         _______ _______ _______ _____ _____    ______ ____

>  <TORSDO>
F 6

$$$$
=
 OpenBabel11052414253D

 34 37  0  0  1  0  0  0  0  0999 V2000
  180.0170  178.6950  141.9000 C   0  0  2  0  0  3  0  0  0  0  0  0
  183.9440  175.9420  134.7360 O   0  0  0  0  0  0  0  0  0  0  0  0
  180.2280  177.7950  139.4680 C   0  0  1  0  0  3  0  0  0  0  0  0
  182.4550  178.4590  138.3680 C   0  0  1  0  0  3  0  0  0  0  0  0
  181.4130  176.2020  137.9700 C   0  0  0  0  0  3  0  0  0  0  0  0
  185.7730  176.8570  135.8200 N   0  0  0  0  0  2  0  0  0  0  0  0
  180.0600  177.4720  140.9660 C   0  0  2  0  0  3  0  0  0  0  0  0
  182.3170  175.9590  137.0200 C   0  0  0  0  0  3  0  0  0  0  0  0
  183.7480  177.8940  137.7860 C   0  0  0  0  0  2  0  0  0  0  0  0
  179.8780  179.2540  139.1070 C   0  0  2  0  0  3  0  0  0  0  0  0
  180.9620  179.7770  141.3950 C   0  0  0  0  0  2  0  0  0  0  0  0
  181.7160  179.3130  137.3260 C   0  0  0  0  0  2  0  0  0  0  0  0
  180.2160  179.5120  137.6290 C   0  0  2  0  0  3  0  0  0  0  0  0
  183.4860  176.7820  136.8630 N   0  0  0  0  0  0  0  0  0  0  0  0
  181.5960  177.3220  138.9520 C   0  0  2  0  0  3  0  0  0  0  0  0
  180.5100  180.3150  140.0360 C   0  0  0  0  0  2  0  0  0  0  0  0
  184.3830  176.5070  135.7730 C   0  0  0  0  0  0  0  0  0  0  0  0
  180.7010  183.1060  136.8020 C   0  0  0  0  0  0  0  0  0  0  0  0
  179.9990  183.2300  135.5950 O   0  0  0  0  0  0  0  0  0  0  0  0
  179.7000  180.8650  137.1190 C   0  0  1  0  0  3  0  0  0  0  0  0
  179.0640  182.2420  135.1540 C   0  0  0  0  0  2  0  0  0  0  0  0
  180.6140  181.9890  137.5290 C   0  0  0  0  0  3  0  0  0  0  0  0
  179.5180  180.8550  135.5980 C   0  0  0  0  0  2  0  0  0  0  0  0
  181.5920  184.2070  137.2520 C   0  0  0  0  0  1  0  0  0  0  0  0
  180.3730  178.3060  143.2980 C   0  0  0  0  0  0  0  0  0  0  0  0
  181.6410  178.5850  143.7850 O   0  0  0  0  0  0  0  0  0  0  0  0
  179.5310  177.7300  144.0380 O   0  0  0  0  0  1  0  0  0  0  0  0
  179.0350  176.5350  141.2170 O   0  0  0  0  0  0  0  0  0  0  0  0
  179.5090  175.2520  140.8990 C   0  0  0  0  0  1  0  0  0  0  0  0
  186.5020  177.2070  137.0330 C   0  0  1  0  0  3  0  0  0  0  0  0
  187.5060  176.1130  137.3870 C   0  0  0  0  0  2  0  0  0  0  0  0
  186.9320  174.8480  137.2410 O   0  0  0  0  0  1  0  0  0  0  0  0
  187.1940  178.5470  136.8430 C   0  0  0  0  0  2  0  0  0  0  0  0
  188.8690  178.4960  137.5450 S   0  0  0  0  0  1  0  0  0  0  0  0
  1 25  1  1  0  0  0
  2 17  2  0  0  0  0
  3  7  1  0  0  0  0
  4 15  1  0  0  0  0
  5 15  1  0  0  0  0
  6 30  1  0  0  0  0
  7 28  1  0  0  0  0
  7  1  1  0  0  0  0
  8  5  2  0  0  0  0
  9  4  1  0  0  0  0
 10  3  1  0  0  0  0
 10 16  1  0  0  0  0
 11  1  1  0  0  0  0
 12 13  1  0  0  0  0
 12  4  1  0  0  0  0
 13 10  1  0  0  0  0
 14  8  1  0  0  0  0
 14  9  1  0  0  0  0
 15  3  1  0  0  0  0
 16 11  1  0  0  0  0
 17  6  1  0  0  0  0
 17 14  1  0  0  0  0
 18 24  1  0  0  0  0
 18 22  2  0  0  0  0
 19 18  1  0  0  0  0
 20 22  1  0  0  0  0
 20 13  1  0  0  0  0
 21 19  1  0  0  0  0
 21 23  1  0  0  0  0
 23 20  1  0  0  0  0
 25 26  2  0  0  0  0
 25 27  1  0  0  0  0
 29 28  1  0  0  0  0
 30 31  1  0  0  0  0
 32 31  1  0  0  0  0
 33 30  1  0  0  0  0
 33 34  1  0  0  0  0
M  END
>  <MODEL>
2

>  <REMARK>
 VINA RESULT:      -5.4      2.535      3.593
  Name = 
  6 active torsions:
  status: ('A' for Active; 'I' for Inactive)
    1  A    between atoms: C_1  and  C_6
    2  A    between atoms: O_2  and  C_15
    3  A    between atoms: C_11  and  CA_20
    4  A    between atoms: C_12  and  C_28
    5  A    between atoms: N_13  and  CA_20
    6  A    between atoms: CB_14  and  CA_20
                            x       y       z     vdW  Elec       q    Type
                         _______ _______ _______ _____ _____    ______ ____

>  <TORSDO>
F 6

$$$$
=
 OpenBabel11052414253D

 34 37  0  0  1  0  0  0  0  0999 V2000
  185.9900  176.8190  137.1020 C   0  0  2  0  0  3  0  0  0  0  0  0
  178.9310  180.9320  139.8540 O   0  0  0  0  0  0  0  0  0  0  0  0
  183.8750  177.2600  138.5530 C   0  0  1  0  0  3  0  0  0  0  0  0
  183.2950  179.7600  138.7030 C   0  0  1  0  0  3  0  0  0  0  0  0
  181.5010  178.0000  138.5400 C   0  0  0  0  0  3  0  0  0  0  0  0
  179.8490  182.6180  138.5610 N   0  0  0  0  0  2  0  0  0  0  0  0
  184.4830  176.5810  137.3090 C   0  0  2  0  0  3  0  0  0  0  0  0
  180.5760  178.9290  138.7850 C   0  0  0  0  0  3  0  0  0  0  0  0
  182.2270  180.7910  138.3470 C   0  0  0  0  0  2  0  0  0  0  0  0
  184.9260  177.6750  139.6050 C   0  0  2  0  0  3  0  0  0  0  0  0
  186.3640  178.2310  137.5300 C   0  0  0  0  0  2  0  0  0  0  0  0
  183.5700  179.7600  140.2150 C   0  0  0  0  0  2  0  0  0  0  0  0
  184.2390  178.4680  140.7300 C   0  0  2  0  0  3  0  0  0  0  0  0
  180.8840  180.3330  138.7290 N   0  0  0  0  0  0  0  0  0  0  0  0
  182.9010  178.3770  138.1500 C   0  0  2  0  0  3  0  0  0  0  0  0
  186.1460  178.4290  139.0320 C   0  0  0  0  0  2  0  0  0  0  0  0
  179.8570  181.2800  139.0740 C   0  0  0  0  0  0  0  0  0  0  0  0
  184.8860  178.6420  144.3880 C   0  0  0  0  0  0  0  0  0  0  0  0
  186.1630  178.0720  144.4910 O   0  0  0  0  0  0  0  0  0  0  0  0
  185.1580  178.7330  141.9300 C   0  0  1  0  0  3  0  0  0  0  0  0
  187.0130  177.9010  143.3550 C   0  0  0  0  0  2  0  0  0  0  0  0
  184.3630  178.9320  143.1940 C   0  0  0  0  0  3  0  0  0  0  0  0
  186.1760  177.6040  142.1140 C   0  0  0  0  0  2  0  0  0  0  0  0
  184.0840  178.8770  145.6170 C   0  0  0  0  0  1  0  0  0  0  0  0
  186.3700  176.5910  135.6760 C   0  0  0  0  0  0  0  0  0  0  0  0
  187.0590  175.4390  135.3250 O   0  0  0  0  0  1  0  0  0  0  0  0
  186.0680  177.4330  134.7880 O   0  0  0  0  0  0  0  0  0  0  0  0
  184.1030  175.2280  137.1780 O   0  0  0  0  0  0  0  0  0  0  0  0
  182.9760  175.1550  136.3430 C   0  0  0  0  0  1  0  0  0  0  0  0
  180.6350  183.0780  137.4220 C   0  0  1  0  0  3  0  0  0  0  0  0
  179.9190  182.7530  136.1140 C   0  0  0  0  0  2  0  0  0  0  0  0
  180.7710  182.0810  135.2350 O   0  0  0  0  0  1  0  0  0  0  0  0
  180.8950  184.5700  137.5510 C   0  0  0  0  0  2  0  0  0  0  0  0
  179.4700  185.5130  136.9340 S   0  0  0  0  0  1  0  0  0  0  0  0
  1 25  1  6  0  0  0
  1  7  1  0  0  0  0
  1 11  1  0  0  0  0
  3 10  1  0  0  0  0
  4 12  1  0  0  0  0
  5  8  2  0  0  0  0
  6 17  1  0  0  0  0
  7  3  1  0  0  0  0
  9  4  1  0  0  0  0
  9 14  1  0  0  0  0
 10 13  1  0  0  0  0
 11 16  1  0  0  0  0
 12 13  1  0  0  0  0
 13 20  1  0  0  0  0
 14  8  1  0  0  0  0
 14 17  1  0  0  0  0
 15  5  1  0  0  0  0
 15  3  1  0  0  0  0
 15  4  1  0  0  0  0
 16 10  1  0  0  0  0
 17  2  2  0  0  0  0
 18 19  1  0  0  0  0
 18 24  1  0  0  0  0
 20 23  1  0  0  0  0
 20 22  1  0  0  0  0
 21 19  1  0  0  0  0
 22 18  2  0  0  0  0
 23 21  1  0  0  0  0
 26 25  1  0  0  0  0
 27 25  2  0  0  0  0
 28  7  1  0  0  0  0
 29 28  1  0  0  0  0
 30 33  1  0  0  0  0
 30  6  1  0  0  0  0
 31 30  1  0  0  0  0
 32 31  1  0  0  0  0
 34 33  1  0  0  0  0
M  END
>  <MODEL>
3

>  <REMARK>
 VINA RESULT:      -5.1      3.725      7.479
  Name = 
  6 active torsions:
  status: ('A' for Active; 'I' for Inactive)
    1  A    between atoms: C_1  and  C_6
    2  A    between atoms: O_2  and  C_15
    3  A    between atoms: C_11  and  CA_20
    4  A    between atoms: C_12  and  C_28
    5  A    between atoms: N_13  and  CA_20
    6  A    between atoms: CB_14  and  CA_20
                            x       y       z     vdW  Elec       q    Type
                         _______ _______ _______ _____ _____    ______ ____

>  <TORSDO>
F 6

$$$$
=
 OpenBabel11052414253D

 34 37  0  0  1  0  0  0  0  0999 V2000
  180.9770  179.1280  143.5620 C   0  0  2  0  0  3  0  0  0  0  0  0
  182.9480  176.7140  135.5240 O   0  0  0  0  0  0  0  0  0  0  0  0
  181.8910  179.3610  141.1370 C   0  0  1  0  0  3  0  0  0  0  0  0
  182.6630  177.1110  140.1610 C   0  0  1  0  0  3  0  0  0  0  0  0
  181.4950  178.8300  138.7390 C   0  0  0  0  0  3  0  0  0  0  0  0
  182.5350  174.6270  136.4350 N   0  0  0  0  0  2  0  0  0  0  0  0
  180.7000  179.5290  142.1010 C   0  0  2  0  0  3  0  0  0  0  0  0
  181.7700  178.1090  137.6520 C   0  0  0  0  0  3  0  0  0  0  0  0
  182.3840  176.0990  139.0530 C   0  0  0  0  0  2  0  0  0  0  0  0
  183.2550  179.2580  141.8520 C   0  0  2  0  0  3  0  0  0  0  0  0
  181.9090  177.9250  143.6100 C   0  0  0  0  0  2  0  0  0  0  0  0
  184.1150  177.6090  140.0920 C   0  0  0  0  0  2  0  0  0  0  0  0
  184.3530  178.9490  140.8200 C   0  0  2  0  0  3  0  0  0  0  0  0
  182.2400  176.7530  137.7460 N   0  0  0  0  0  0  0  0  0  0  0  0
  181.6210  178.2450  140.1160 C   0  0  2  0  0  3  0  0  0  0  0  0
  183.2860  178.2690  143.0390 C   0  0  0  0  0  2  0  0  0  0  0  0
  182.5860  176.0560  136.5350 C   0  0  0  0  0  0  0  0  0  0  0  0
  187.0400  177.7990  143.1200 C   0  0  0  0  0  0  0  0  0  0  0  0
  188.1780  177.8630  142.3030 O   0  0  0  0  0  0  0  0  0  0  0  0
  185.7710  179.0460  141.3990 C   0  0  1  0  0  3  0  0  0  0  0  0
  188.1890  178.5880  141.0710 C   0  0  0  0  0  2  0  0  0  0  0  0
  185.8770  178.3120  142.7110 C   0  0  0  0  0  3  0  0  0  0  0  0
  186.8160  178.5190  140.4100 C   0  0  0  0  0  2  0  0  0  0  0  0
  187.1150  177.1080  144.4330 C   0  0  0  0  0  1  0  0  0  0  0  0
  179.7020  178.8270  144.2780 C   0  0  0  0  0  0  0  0  0  0  0  0
  178.9310  179.8690  144.7730 O   0  0  0  0  0  1  0  0  0  0  0  0
  179.3180  177.6360  144.4350 O   0  0  0  0  0  0  0  0  0  0  0  0
  180.0560  180.7780  141.9720 O   0  0  0  0  0  0  0  0  0  0  0  0
  179.0770  180.6790  140.9700 C   0  0  0  0  0  1  0  0  0  0  0  0
  181.8440  173.7510  137.3740 C   0  0  1  0  0  3  0  0  0  0  0  0
  180.3340  173.8240  137.1590 C   0  0  0  0  0  2  0  0  0  0  0  0
  179.6550  173.7350  138.3760 O   0  0  0  0  0  1  0  0  0  0  0  0
  182.3540  172.3280  137.2130 C   0  0  0  0  0  2  0  0  0  0  0  0
  184.1190  172.3360  136.7850 S   0  0  0  0  0  1  0  0  0  0  0  0
  1 11  1  0  0  0  0
  1 25  1  6  0  0  0
  2 17  2  0  0  0  0
  3 10  1  0  0  0  0
  3  7  1  0  0  0  0
  5 15  1  0  0  0  0
  6 17  1  0  0  0  0
  6 30  1  0  0  0  0
  7  1  1  0  0  0  0
  8 14  1  0  0  0  0
  8  5  2  0  0  0  0
  9  4  1  0  0  0  0
 10 16  1  0  0  0  0
 12  4  1  0  0  0  0
 12 13  1  0  0  0  0
 13 20  1  0  0  0  0
 13 10  1  0  0  0  0
 14  9  1  0  0  0  0
 15  4  1  0  0  0  0
 15  3  1  0  0  0  0
 16 11  1  0  0  0  0
 17 14  1  0  0  0  0
 18 24  1  0  0  0  0
 19 18  1  0  0  0  0
 20 22  1  0  0  0  0
 21 19  1  0  0  0  0
 22 18  2  0  0  0  0
 23 21  1  0  0  0  0
 23 20  1  0  0  0  0
 25 27  2  0  0  0  0
 25 26  1  0  0  0  0
 28  7  1  0  0  0  0
 29 28  1  0  0  0  0
 31 30  1  0  0  0  0
 31 32  1  0  0  0  0
 33 30  1  0  0  0  0
 34 33  1  0  0  0  0
M  END
>  <MODEL>
4

>  <REMARK>
 VINA RESULT:      -5.0      3.413      6.956
  Name = 
  6 active torsions:
  status: ('A' for Active; 'I' for Inactive)
    1  A    between atoms: C_1  and  C_6
    2  A    between atoms: O_2  and  C_15
    3  A    between atoms: C_11  and  CA_20
    4  A    between atoms: C_12  and  C_28
    5  A    between atoms: N_13  and  CA_20
    6  A    between atoms: CB_14  and  CA_20
                            x       y       z     vdW  Elec       q    Type
                         _______ _______ _______ _____ _____    ______ ____

>  <TORSDO>
F 6

$$$$
=
 OpenBabel11052414253D

 34 37  0  0  1  0  0  0  0  0999 V2000
  180.8290  179.3340  142.2630 C   0  0  2  0  0  3  0  0  0  0  0  0
  180.5850  175.4050  134.5940 O   0  0  0  0  0  0  0  0  0  0  0  0
  180.9700  179.1000  139.6760 C   0  0  1  0  0  3  0  0  0  0  0  0
  181.6290  176.7250  138.9420 C   0  0  1  0  0  3  0  0  0  0  0  0
  179.9440  178.0810  137.6530 C   0  0  0  0  0  3  0  0  0  0  0  0
  180.6510  173.5340  135.9550 N   0  0  0  0  0  2  0  0  0  0  0  0
  180.1030  179.4210  140.9090 C   0  0  2  0  0  3  0  0  0  0  0  0
  179.9550  177.1630  136.6850 C   0  0  0  0  0  3  0  0  0  0  0  0
  181.1350  175.5000  138.1770 C   0  0  0  0  0  2  0  0  0  0  0  0
  182.4870  179.1890  139.9480 C   0  0  2  0  0  3  0  0  0  0  0  0
  181.8420  178.1980  142.2470 C   0  0  0  0  0  2  0  0  0  0  0  0
  182.9450  177.2470  138.3450 C   0  0  0  0  0  2  0  0  0  0  0  0
  183.2600  178.7130  138.7070 C   0  0  2  0  0  3  0  0  0  0  0  0
  180.5560  175.8710  136.8790 N   0  0  0  0  0  0  0  0  0  0  0  0
  180.5200  177.7920  139.0090 C   0  0  2  0  0  3  0  0  0  0  0  0
  182.9540  178.4630  141.2300 C   0  0  0  0  0  2  0  0  0  0  0  0
  180.5960  174.9550  135.7700 C   0  0  0  0  0  0  0  0  0  0  0  0
  186.4990  178.6070  140.5320 C   0  0  0  0  0  0  0  0  0  0  0  0
  187.3900  178.1940  139.5310 O   0  0  0  0  0  0  0  0  0  0  0  0
  184.7700  178.9730  138.7990 C   0  0  1  0  0  3  0  0  0  0  0  0
  187.0510  178.2430  138.1430 C   0  0  0  0  0  2  0  0  0  0  0  0
  185.2430  178.9450  140.2290 C   0  0  0  0  0  3  0  0  0  0  0  0
  185.5620  177.9670  137.9570 C   0  0  0  0  0  2  0  0  0  0  0  0
  186.9400  178.6180  141.9500 C   0  0  0  0  0  1  0  0  0  0  0  0
  179.8520  179.1420  143.3770 C   0  0  0  0  0  0  0  0  0  0  0  0
  179.6300  177.8700  143.8820 O   0  0  0  0  0  1  0  0  0  0  0  0
  179.2290  180.1250  143.8620 O   0  0  0  0  0  0  0  0  0  0  0  0
  179.3360  180.5960  140.7540 O   0  0  0  0  0  0  0  0  0  0  0  0
  179.8460  181.3270  139.6690 C   0  0  0  0  0  1  0  0  0  0  0  0
  180.3480  172.8450  137.2030 C   0  0  1  0  0  3  0  0  0  0  0  0
  178.9620  172.2090  137.1380 C   0  0  0  0  0  2  0  0  0  0  0  0
  179.0280  170.9300  136.5800 O   0  0  0  0  0  1  0  0  0  0  0  0
  181.4190  171.8020  137.4830 C   0  0  0  0  0  2  0  0  0  0  0  0
  182.7850  171.9680  136.2970 S   0  0  0  0  0  1  0  0  0  0  0  0
  1 25  1  1  0  0  0
  2 17  2  0  0  0  0
  3 10  1  0  0  0  0
  3  7  1  0  0  0  0
  4 15  1  0  0  0  0
  5 15  1  0  0  0  0
  6 30  1  0  0  0  0
  7  1  1  0  0  0  0
  8 14  1  0  0  0  0
  8  5  2  0  0  0  0
  9  4  1  0  0  0  0
 10 16  1  0  0  0  0
 11  1  1  0  0  0  0
 12 13  1  0  0  0  0
 12  4  1  0  0  0  0
 13 20  1  0  0  0  0
 13 10  1  0  0  0  0
 14  9  1  0  0  0  0
 15  3  1  0  0  0  0
 16 11  1  0  0  0  0
 17  6  1  0  0  0  0
 17 14  1  0  0  0  0
 18 24  1  0  0  0  0
 19 18  1  0  0  0  0
 20 22  1  0  0  0  0
 21 19  1  0  0  0  0
 22 18  2  0  0  0  0
 23 21  1  0  0  0  0
 23 20  1  0  0  0  0
 25 27  2  0  0  0  0
 25 26  1  0  0  0  0
 28  7  1  0  0  0  0
 29 28  1  0  0  0  0
 30 33  1  0  0  0  0
 31 30  1  0  0  0  0
 32 31  1  0  0  0  0
 34 33  1  0  0  0  0
M  END
>  <MODEL>
5

>  <REMARK>
 VINA RESULT:      -4.7      3.359      7.000
  Name = 
  6 active torsions:
  status: ('A' for Active; 'I' for Inactive)
    1  A    between atoms: C_1  and  C_6
    2  A    between atoms: O_2  and  C_15
    3  A    between atoms: C_11  and  CA_20
    4  A    between atoms: C_12  and  C_28
    5  A    between atoms: N_13  and  CA_20
    6  A    between atoms: CB_14  and  CA_20
                            x       y       z     vdW  Elec       q    Type
                         _______ _______ _______ _____ _____    ______ ____

>  <TORSDO>
F 6

$$$$
=
 OpenBabel11052414253D

 34 37  0  0  1  0  0  0  0  0999 V2000
  182.2450  174.6350  137.0290 C   0  0  2  0  0  3  0  0  0  0  0  0
  189.1350  179.8120  137.2500 O   0  0  0  0  0  0  0  0  0  0  0  0
  183.6580  176.7770  136.5990 C   0  0  1  0  0  3  0  0  0  0  0  0
  185.5080  177.0980  138.3560 C   0  0  1  0  0  3  0  0  0  0  0  0
  185.8850  177.6610  135.9310 C   0  0  0  0  0  3  0  0  0  0  0  0
  189.8160  178.2390  138.8060 N   0  0  0  0  0  2  0  0  0  0  0  0
  183.1800  175.4060  136.0800 C   0  0  2  0  0  3  0  0  0  0  0  0
  187.0500  178.2260  136.2490 C   0  0  0  0  0  3  0  0  0  0  0  0
  187.0220  177.1620  138.5400 C   0  0  0  0  0  2  0  0  0  0  0  0
  182.7900  177.3410  137.7440 C   0  0  2  0  0  3  0  0  0  0  0  0
  182.6570  174.8650  138.4760 C   0  0  0  0  0  2  0  0  0  0  0  0
  184.8430  178.3900  138.8580 C   0  0  0  0  0  2  0  0  0  0  0  0
  183.4300  178.6300  138.2860 C   0  0  2  0  0  3  0  0  0  0  0  0
  187.6520  178.0350  137.5410 N   0  0  0  0  0  0  0  0  0  0  0  0
  185.1660  176.7600  136.8930 C   0  0  2  0  0  3  0  0  0  0  0  0
  182.4820  176.3330  138.8740 C   0  0  0  0  0  2  0  0  0  0  0  0
  188.8750  178.7310  137.8440 C   0  0  0  0  0  0  0  0  0  0  0  0
  180.1480  180.0580  139.2940 C   0  0  0  0  0  0  0  0  0  0  0  0
  180.0810  179.7180  140.6530 O   0  0  0  0  0  0  0  0  0  0  0  0
  182.5290  179.3830  139.2730 C   0  0  1  0  0  3  0  0  0  0  0  0
  181.2320  179.2970  141.3890 C   0  0  0  0  0  2  0  0  0  0  0  0
  181.2740  179.8780  138.6020 C   0  0  0  0  0  3  0  0  0  0  0  0
  182.1760  178.5120  140.4830 C   0  0  0  0  0  2  0  0  0  0  0  0
  178.9370  180.5750  138.6060 C   0  0  0  0  0  1  0  0  0  0  0  0
  182.2570  173.1750  136.7120 C   0  0  0  0  0  0  0  0  0  0  0  0
  183.3620  172.4090  137.0520 O   0  0  0  0  0  1  0  0  0  0  0  0
  181.2720  172.6340  136.1410 O   0  0  0  0  0  0  0  0  0  0  0  0
  182.7180  175.4510  134.7470 O   0  0  0  0  0  0  0  0  0  0  0  0
  181.4590  176.0730  134.7270 C   0  0  0  0  0  1  0  0  0  0  0  0
  189.8350  176.8800  139.3320 C   0  0  1  0  0  3  0  0  0  0  0  0
  191.0180  176.1020  138.7590 C   0  0  0  0  0  2  0  0  0  0  0  0
  190.6210  174.8300  138.3440 O   0  0  0  0  0  1  0  0  0  0  0  0
  189.8890  176.9210  140.8500 C   0  0  0  0  0  2  0  0  0  0  0  0
  188.6810  178.1180  141.4910 S   0  0  0  0  0  1  0  0  0  0  0  0
  1 25  1  6  0  0  0
  1 11  1  0  0  0  0
  2 17  2  0  0  0  0
  3 15  1  0  0  0  0
  3 10  1  0  0  0  0
  4  9  1  0  0  0  0
  4 12  1  0  0  0  0
  5  8  2  0  0  0  0
  5 15  1  0  0  0  0
  6 30  1  0  0  0  0
  7  3  1  0  0  0  0
  7  1  1  0  0  0  0
  8 14  1  0  0  0  0
 10 13  1  0  0  0  0
 10 16  1  0  0  0  0
 11 16  1  0  0  0  0
 13 12  1  0  0  0  0
 13 20  1  0  0  0  0
 14 17  1  0  0  0  0
 14  9  1  0  0  0  0
 15  4  1  0  0  0  0
 17  6  1  0  0  0  0
 18 19  1  0  0  0  0
 19 21  1  0  0  0  0
 20 23  1  0  0  0  0
 22 20  1  0  0  0  0
 22 18  2  0  0  0  0
 23 21  1  0  0  0  0
 24 18  1  0  0  0  0
 25 26  1  0  0  0  0
 27 25  2  0  0  0  0
 28  7  1  0  0  0  0
 29 28  1  0  0  0  0
 30 33  1  0  0  0  0
 31 30  1  0  0  0  0
 32 31  1  0  0  0  0
 33 34  1  0  0  0  0
M  END
>  <MODEL>
6

>  <REMARK>
 VINA RESULT:      -4.6      2.298      2.968
  Name = 
  6 active torsions:
  status: ('A' for Active; 'I' for Inactive)
    1  A    between atoms: C_1  and  C_6
    2  A    between atoms: O_2  and  C_15
    3  A    between atoms: C_11  and  CA_20
    4  A    between atoms: C_12  and  C_28
    5  A    between atoms: N_13  and  CA_20
    6  A    between atoms: CB_14  and  CA_20
                            x       y       z     vdW  Elec       q    Type
                         _______ _______ _______ _____ _____    ______ ____

>  <TORSDO>
F 6

$$$$
=
 OpenBabel11052414253D

 34 37  0  0  1  0  0  0  0  0999 V2000
  181.5280  175.5380  137.1530 C   0  0  2  0  0  3  0  0  0  0  0  0
  189.4720  177.8780  134.7560 O   0  0  0  0  0  0  0  0  0  0  0  0
  183.4320  177.1260  136.3640 C   0  0  1  0  0  3  0  0  0  0  0  0
  185.7560  176.3060  137.0950 C   0  0  1  0  0  3  0  0  0  0  0  0
  185.3880  177.3840  134.8500 C   0  0  0  0  0  3  0  0  0  0  0  0
  189.9600  175.7930  135.6360 N   0  0  0  0  0  2  0  0  0  0  0  0
  182.2650  176.1970  135.9730 C   0  0  2  0  0  3  0  0  0  0  0  0
  186.7070  177.4200  134.6570 C   0  0  0  0  0  3  0  0  0  0  0  0
  187.1020  175.8150  136.5680 C   0  0  0  0  0  2  0  0  0  0  0  0
  183.3850  177.5910  137.8360 C   0  0  2  0  0  3  0  0  0  0  0  0
  182.5110  175.1960  138.2630 C   0  0  0  0  0  2  0  0  0  0  0  0
  185.9400  177.5430  137.9890 C   0  0  0  0  0  2  0  0  0  0  0  0
  184.6600  178.3870  138.1630 C   0  0  2  0  0  3  0  0  0  0  0  0
  187.6110  176.6800  135.4960 N   0  0  0  0  0  0  0  0  0  0  0  0
  184.7790  176.5330  135.9260 C   0  0  2  0  0  3  0  0  0  0  0  0
  183.1340  176.4600  138.8590 C   0  0  0  0  0  2  0  0  0  0  0  0
  189.0270  176.8200  135.2780 C   0  0  0  0  0  0  0  0  0  0  0  0
  183.1880  178.8430  141.5470 C   0  0  0  0  0  0  0  0  0  0  0  0
  184.3290  179.0060  142.3470 O   0  0  0  0  0  0  0  0  0  0  0  0
  184.6060  179.0770  139.5320 C   0  0  1  0  0  3  0  0  0  0  0  0
  185.6120  179.3010  141.7910 C   0  0  0  0  0  2  0  0  0  0  0  0
  183.2860  178.8330  140.2160 C   0  0  0  0  0  3  0  0  0  0  0  0
  185.7620  178.6260  140.4310 C   0  0  0  0  0  2  0  0  0  0  0  0
  181.8660  178.6270  142.1880 C   0  0  0  0  0  1  0  0  0  0  0  0
  180.8040  174.3100  136.7040 C   0  0  0  0  0  0  0  0  0  0  0  0
  179.4170  174.3040  136.6750 O   0  0  0  0  0  1  0  0  0  0  0  0
  181.4410  173.2820  136.3490 O   0  0  0  0  0  0  0  0  0  0  0  0
  181.3990  176.7710  135.0170 O   0  0  0  0  0  0  0  0  0  0  0  0
  180.5840  177.7180  135.6580 C   0  0  0  0  0  1  0  0  0  0  0  0
  189.6030  174.4120  135.9380 C   0  0  1  0  0  3  0  0  0  0  0  0
  189.6970  173.5510  134.6810 C   0  0  0  0  0  2  0  0  0  0  0  0
  190.4620  172.4070  134.9200 O   0  0  0  0  0  1  0  0  0  0  0  0
  190.5070  173.8800  137.0380 C   0  0  0  0  0  2  0  0  0  0  0  0
  191.6530  175.1760  137.5930 S   0  0  0  0  0  1  0  0  0  0  0  0
  1 25  1  6  0  0  0
  1 11  1  0  0  0  0
  2 17  2  0  0  0  0
  3 10  1  0  0  0  0
  4 12  1  0  0  0  0
  5 15  1  0  0  0  0
  6 30  1  0  0  0  0
  7  3  1  0  0  0  0
  7  1  1  0  0  0  0
  8  5  2  0  0  0  0
  8 14  1  0  0  0  0
  9  4  1  0  0  0  0
 10 13  1  0  0  0  0
 10 16  1  0  0  0  0
 11 16  1  0  0  0  0
 12 13  1  0  0  0  0
 13 20  1  0  0  0  0
 14  9  1  0  0  0  0
 15  3  1  0  0  0  0
 15  4  1  0  0  0  0
 17 14  1  0  0  0  0
 17  6  1  0  0  0  0
 18 24  1  0  0  0  0
 18 19  1  0  0  0  0
 20 22  1  0  0  0  0
 20 23  1  0  0  0  0
 21 19  1  0  0  0  0
 22 18  2  0  0  0  0
 23 21  1  0  0  0  0
 26 25  1  0  0  0  0
 27 25  2  0  0  0  0
 28 29  1  0  0  0  0
 28  7  1  0  0  0  0
 30 33  1  0  0  0  0
 31 32  1  0  0  0  0
 31 30  1  0  0  0  0
 33 34  1  0  0  0  0
M  END
>  <MODEL>
7

>  <REMARK>
 VINA RESULT:      -4.6      3.466      4.636
  Name = 
  6 active torsions:
  status: ('A' for Active; 'I' for Inactive)
    1  A    between atoms: C_1  and  C_6
    2  A    between atoms: O_2  and  C_15
    3  A    between atoms: C_11  and  CA_20
    4  A    between atoms: C_12  and  C_28
    5  A    between atoms: N_13  and  CA_20
    6  A    between atoms: CB_14  and  CA_20
                            x       y       z     vdW  Elec       q    Type
                         _______ _______ _______ _____ _____    ______ ____

>  <TORSDO>
F 6

$$$$
=
 OpenBabel11052414253D

 34 37  0  0  1  0  0  0  0  0999 V2000
  182.8830  179.0040  142.1860 C   0  0  2  0  0  3  0  0  0  0  0  0
  181.3280  175.1480  134.6330 O   0  0  0  0  0  0  0  0  0  0  0  0
  182.5570  178.7990  139.6130 C   0  0  1  0  0  3  0  0  0  0  0  0
  183.1170  176.4460  138.7390 C   0  0  1  0  0  3  0  0  0  0  0  0
  181.2000  177.7780  137.7950 C   0  0  0  0  0  3  0  0  0  0  0  0
  181.6750  173.2650  135.9350 N   0  0  0  0  0  2  0  0  0  0  0  0
  181.9210  179.0880  140.9870 C   0  0  2  0  0  3  0  0  0  0  0  0
  181.0540  176.8710  136.8290 C   0  0  0  0  0  3  0  0  0  0  0  0
  182.5150  175.2190  138.0590 C   0  0  0  0  0  2  0  0  0  0  0  0
  184.0960  178.9180  139.6070 C   0  0  2  0  0  3  0  0  0  0  0  0
  183.8970  177.8890  141.9700 C   0  0  0  0  0  2  0  0  0  0  0  0
  184.2930  177.0010  137.9200 C   0  0  0  0  0  2  0  0  0  0  0  0
  184.6400  178.4710  138.2400 C   0  0  2  0  0  3  0  0  0  0  0  0
  181.7040  175.5900  136.8930 N   0  0  0  0  0  0  0  0  0  0  0  0
  182.0180  177.4880  139.0200 C   0  0  2  0  0  3  0  0  0  0  0  0
  184.8010  178.1890  140.7730 C   0  0  0  0  0  2  0  0  0  0  0  0
  181.5610  174.6860  135.7830 C   0  0  0  0  0  0  0  0  0  0  0  0
  188.2160  177.8780  139.0690 C   0  0  0  0  0  0  0  0  0  0  0  0
  188.8240  177.9140  137.8060 O   0  0  0  0  0  0  0  0  0  0  0  0
  186.1360  178.7610  138.0610 C   0  0  1  0  0  3  0  0  0  0  0  0
  188.1630  178.4540  136.6590 C   0  0  0  0  0  2  0  0  0  0  0  0
  186.9390  178.2330  139.2210 C   0  0  0  0  0  3  0  0  0  0  0  0
  186.6640  178.1830  136.7430 C   0  0  0  0  0  2  0  0  0  0  0  0
  188.9870  177.3880  140.2420 C   0  0  0  0  0  1  0  0  0  0  0  0
  182.1270  178.7800  143.4550 C   0  0  0  0  0  0  0  0  0  0  0  0
  180.7850  178.4320  143.4010 O   0  0  0  0  0  0  0  0  0  0  0  0
  182.6970  178.9020  144.5720 O   0  0  0  0  0  1  0  0  0  0  0  0
  181.1170  180.2490  140.9890 O   0  0  0  0  0  0  0  0  0  0  0  0
  179.8700  179.9340  140.4250 C   0  0  0  0  0  1  0  0  0  0  0  0
  181.6170  172.5570  137.2070 C   0  0  1  0  0  3  0  0  0  0  0  0
  180.2190  171.9840  137.4350 C   0  0  0  0  0  2  0  0  0  0  0  0
  179.2810  173.0090  137.5750 O   0  0  0  0  0  1  0  0  0  0  0  0
  182.6700  171.4610  137.2300 C   0  0  0  0  0  2  0  0  0  0  0  0
  184.2750  172.1190  136.6900 S   0  0  0  0  0  1  0  0  0  0  0  0
  1 25  1  1  0  0  0
  2 17  2  0  0  0  0
  3  7  1  0  0  0  0
  4 15  1  0  0  0  0
  5 15  1  0  0  0  0
  6 30  1  0  0  0  0
  7 28  1  0  0  0  0
  7  1  1  0  0  0  0
  8 14  1  0  0  0  0
  8  5  2  0  0  0  0
  9  4  1  0  0  0  0
 10  3  1  0  0  0  0
 10 16  1  0  0  0  0
 11  1  1  0  0  0  0
 12 13  1  0  0  0  0
 12  4  1  0  0  0  0
 13 10  1  0  0  0  0
 14  9  1  0  0  0  0
 15  3  1  0  0  0  0
 16 11  1  0  0  0  0
 17  6  1  0  0  0  0
 17 14  1  0  0  0  0
 18 22  2  0  0  0  0
 18 24  1  0  0  0  0
 19 18  1  0  0  0  0
 20 13  1  0  0  0  0
 20 22  1  0  0  0  0
 21 23  1  0  0  0  0
 21 19  1  0  0  0  0
 23 20  1  0  0  0  0
 25 27  1  0  0  0  0
 26 25  2  0  0  0  0
 29 28  1  0  0  0  0
 30 33  1  0  0  0  0
 30 31  1  0  0  0  0
 31 32  1  0  0  0  0
 34 33  1  0  0  0  0
M  END
>  <MODEL>
8

>  <REMARK>
 VINA RESULT:      -4.6      3.201      6.970
  Name = 
  6 active torsions:
  status: ('A' for Active; 'I' for Inactive)
    1  A    between atoms: C_1  and  C_6
    2  A    between atoms: O_2  and  C_15
    3  A    between atoms: C_11  and  CA_20
    4  A    between atoms: C_12  and  C_28
    5  A    between atoms: N_13  and  CA_20
    6  A    between atoms: CB_14  and  CA_20
                            x       y       z     vdW  Elec       q    Type
                         _______ _______ _______ _____ _____    ______ ____

>  <TORSDO>
F 6

$$$$
=
 OpenBabel11052414253D

 34 37  0  0  1  0  0  0  0  0999 V2000
  185.8650  173.5880  136.5110 C   0  0  2  0  0  3  0  0  0  0  0  0
  180.9340  180.0180  139.4550 O   0  0  0  0  0  0  0  0  0  0  0  0
  184.0970  175.4940  136.4270 C   0  0  1  0  0  3  0  0  0  0  0  0
  182.9780  175.8940  138.7070 C   0  0  1  0  0  3  0  0  0  0  0  0
  183.5370  177.8030  137.1640 C   0  0  0  0  0  3  0  0  0  0  0  0
  181.6350  179.1440  141.4810 N   0  0  0  0  0  2  0  0  0  0  0  0
  185.5680  175.0740  136.2410 C   0  0  2  0  0  3  0  0  0  0  0  0
  182.8570  178.6330  137.9540 C   0  0  0  0  0  3  0  0  0  0  0  0
  182.7970  176.9270  139.8160 C   0  0  0  0  0  2  0  0  0  0  0  0
  183.1080  174.3080  136.4070 C   0  0  2  0  0  3  0  0  0  0  0  0
  185.0060  173.0790  137.6600 C   0  0  0  0  0  2  0  0  0  0  0  0
  181.6170  175.4510  138.1470 C   0  0  0  0  0  2  0  0  0  0  0  0
  181.6950  174.8130  136.7440 C   0  0  2  0  0  3  0  0  0  0  0  0
  182.4390  178.2440  139.2750 N   0  0  0  0  0  0  0  0  0  0  0  0
  183.9390  176.4340  137.6310 C   0  0  2  0  0  3  0  0  0  0  0  0
  183.5200  173.1140  137.2970 C   0  0  0  0  0  2  0  0  0  0  0  0
  181.6470  179.1640  140.0470 C   0  0  0  0  0  0  0  0  0  0  0  0
  180.6070  171.3670  135.8660 C   0  0  0  0  0  0  0  0  0  0  0  0
  179.6110  171.1180  136.8210 O   0  0  0  0  0  0  0  0  0  0  0  0
  180.6080  173.7500  136.5330 C   0  0  1  0  0  3  0  0  0  0  0  0
  179.0140  172.1660  137.5890 C   0  0  0  0  0  2  0  0  0  0  0  0
  181.1280  172.5880  135.7280 C   0  0  0  0  0  3  0  0  0  0  0  0
  180.0400  173.2590  137.8690 C   0  0  0  0  0  2  0  0  0  0  0  0
  181.1250  170.2490  135.0350 C   0  0  0  0  0  1  0  0  0  0  0  0
  187.3130  173.3850  136.8160 C   0  0  0  0  0  0  0  0  0  0  0  0
  187.8790  172.1290  136.6510 O   0  0  0  0  0  0  0  0  0  0  0  0
  188.0260  174.3440  137.2180 O   0  0  0  0  0  1  0  0  0  0  0  0
  186.1310  175.5520  135.0380 O   0  0  0  0  0  0  0  0  0  0  0  0
  186.6550  176.8350  135.2640 C   0  0  0  0  0  1  0  0  0  0  0  0
  182.6200  178.4630  142.3120 C   0  0  1  0  0  3  0  0  0  0  0  0
  184.0190  179.0100  142.0380 C   0  0  0  0  0  2  0  0  0  0  0  0
  184.9940  178.1840  142.6020 O   0  0  0  0  0  1  0  0  0  0  0  0
  182.2460  178.6180  143.7770 C   0  0  0  0  0  2  0  0  0  0  0  0
  180.4390  178.6280  143.9680 S   0  0  0  0  0  1  0  0  0  0  0  0
  1 25  1  1  0  0  0
  1 11  1  0  0  0  0
  2 17  2  0  0  0  0
  3 15  1  0  0  0  0
  4  9  1  0  0  0  0
  5 15  1  0  0  0  0
  5  8  2  0  0  0  0
  6 30  1  0  0  0  0
  7  3  1  0  0  0  0
  7  1  1  0  0  0  0
  8 14  1  0  0  0  0
 10  3  1  0  0  0  0
 10 13  1  0  0  0  0
 10 16  1  0  0  0  0
 12  4  1  0  0  0  0
 13 12  1  0  0  0  0
 14  9  1  0  0  0  0
 14 17  1  0  0  0  0
 15  4  1  0  0  0  0
 16 11  1  0  0  0  0
 17  6  1  0  0  0  0
 18 19  1  0  0  0  0
 19 21  1  0  0  0  0
 20 13  1  0  0  0  0
 20 23  1  0  0  0  0
 21 23  1  0  0  0  0
 22 18  2  0  0  0  0
 22 20  1  0  0  0  0
 24 18  1  0  0  0  0
 25 27  1  0  0  0  0
 26 25  2  0  0  0  0
 28 29  1  0  0  0  0
 28  7  1  0  0  0  0
 30 33  1  0  0  0  0
 31 30  1  0  0  0  0
 31 32  1  0  0  0  0
 33 34  1  0  0  0  0
M  END
>  <MODEL>
9

>  <REMARK>
 VINA RESULT:      -4.3      3.544      7.046
  Name = 
  6 active torsions:
  status: ('A' for Active; 'I' for Inactive)
    1  A    between atoms: C_1  and  C_6
    2  A    between atoms: O_2  and  C_15
    3  A    between atoms: C_11  and  CA_20
    4  A    between atoms: C_12  and  C_28
    5  A    between atoms: N_13  and  CA_20
    6  A    between atoms: CB_14  and  CA_20
                            x       y       z     vdW  Elec       q    Type
                         _______ _______ _______ _____ _____    ______ ____

>  <TORSDO>
F 6

$$$$
