=
 OpenBabel11052412453D

 25 28  0  0  1  0  0  0  0  0999 V2000
  187.3310  177.8590  145.8390 C   0  0  0  0  0  0  0  0  0  0  0  0
  188.6650  177.5280  145.5900 C   0  0  0  0  0  0  0  0  0  0  0  0
  187.7230  178.0830  148.2110 C   0  0  0  0  0  3  0  0  0  0  0  0
  186.2270  178.2780  144.9400 C   0  0  2  0  0  3  0  0  0  0  0  0
  183.6530  178.7810  143.8920 C   0  0  0  0  0  2  0  0  0  0  0  0
  189.0560  177.6880  148.0040 C   0  0  0  0  0  3  0  0  0  0  0  0
  185.0390  178.2600  145.7900 N   0  0  2  0  0  0  0  0  0  0  0  0
  184.1470  179.2790  145.2650 C   0  0  0  0  0  2  0  0  0  0  0  0
  190.9440  177.0300  146.4830 C   0  0  0  0  0  0  0  0  0  0  0  0
  191.7400  176.9240  147.4540 O   0  0  0  0  0  0  0  0  0  0  0  0
  189.1480  177.2540  144.1930 C   0  0  0  0  0  2  0  0  0  0  0  0
  184.8260  178.3830  142.9560 C   0  0  0  0  0  2  0  0  0  0  0  0
  186.8910  178.1610  147.0980 C   0  0  0  0  0  0  0  0  0  0  0  0
  185.5330  178.5690  147.0700 N   0  0  0  0  0  2  0  0  0  0  0  0
  191.4300  176.7270  145.0970 C   0  0  0  0  0  2  0  0  0  0  0  0
  185.9090  177.5410  143.6590 C   0  0  0  0  0  2  0  0  0  0  0  0
  190.6450  177.5350  144.0610 C   0  0  1  0  0  3  0  0  0  0  0  0
  189.5320  177.4020  146.7030 C   0  0  0  0  0  0  0  0  0  0  0  0
  191.1010  177.1790  142.6590 C   0  0  0  0  0  2  0  0  0  0  0  0
  189.9160  176.7470  141.8100 C   0  0  0  0  0  2  0  0  0  0  0  0
  188.8910  178.3190  140.1360 C   0  0  0  0  0  0  0  0  0  0  0  0
  188.9200  178.8900  139.0140 O   0  0  0  0  0  0  0  0  0  0  0  0
  187.8270  178.5620  140.9960 O   0  0  0  0  0  1  0  0  0  0  0  0
  189.9460  177.4260  140.5240 N   0  0  0  0  0  0  0  0  0  0  0  0
  191.0110  177.0940  139.5930 C   0  0  0  0  0  1  0  0  0  0  0  0
  1 13  1  0  0  0  0
  2  1  2  0  0  0  0
  2 18  1  0  0  0  0
  4 16  1  6  0  0  0
  4  7  1  0  0  0  0
  4  1  1  0  0  0  0
  5  8  1  0  0  0  0
  6  3  1  0  0  0  0
  7  8  1  6  0  0  0
  7 14  1  0  0  0  0
  9 18  1  0  0  0  0
  9 10  2  0  0  0  0
 11  2  1  0  0  0  0
 12 16  1  0  0  0  0
 12  5  1  0  0  0  0
 13  3  2  0  0  0  0
 14 13  1  0  0  0  0
 15  9  1  0  0  0  0
 17 19  1  6  0  0  0
 17 11  1  0  0  0  0
 17 15  1  0  0  0  0
 18  6  2  0  0  0  0
 20 19  1  0  0  0  0
 21 24  1  0  0  0  0
 21 23  1  0  0  0  0
 22 21  2  0  0  0  0
 24 20  1  0  0  0  0
 25 24  1  0  0  0  0
M  END
>  <MODEL>
1

>  <REMARK>
 VINA RESULT:     -10.7      0.000      0.000
  Name = 
  3 active torsions:
  status: ('A' for Active; 'I' for Inactive)
    1  A    between atoms: C_6  and  C_15
    2  A    between atoms: C_6  and  C_23
    3  A    between atoms: C_15  and  N_21
                            x       y       z     vdW  Elec       q    Type
                         _______ _______ _______ _____ _____    ______ ____

>  <TORSDO>
F 3

$$$$
=
 OpenBabel11052412453D

 25 28  0  0  1  0  0  0  0  0999 V2000
  187.5700  177.8160  146.0290 C   0  0  0  0  0  0  0  0  0  0  0  0
  188.9010  177.4100  145.9110 C   0  0  0  0  0  0  0  0  0  0  0  0
  187.8130  178.2710  148.3870 C   0  0  0  0  0  3  0  0  0  0  0  0
  186.5490  178.1810  145.0160 C   0  0  2  0  0  3  0  0  0  0  0  0
  184.0770  178.6700  143.7410 C   0  0  0  0  0  2  0  0  0  0  0  0
  189.1380  177.8060  148.3170 C   0  0  0  0  0  3  0  0  0  0  0  0
  185.3070  178.2970  145.7760 N   0  0  2  0  0  0  0  0  0  0  0  0
  184.4990  179.2890  145.0890 C   0  0  0  0  0  2  0  0  0  0  0  0
  191.0910  176.9210  147.0090 C   0  0  0  0  0  0  0  0  0  0  0  0
  191.8140  176.8870  148.0400 O   0  0  0  0  0  0  0  0  0  0  0  0
  189.4640  176.9730  144.5860 C   0  0  0  0  0  2  0  0  0  0  0  0
  185.2900  178.1310  142.9370 C   0  0  0  0  0  2  0  0  0  0  0  0
  187.0610  178.2650  147.2160 C   0  0  0  0  0  0  0  0  0  0  0  0
  185.7280  178.7190  147.0500 N   0  0  0  0  0  2  0  0  0  0  0  0
  191.6550  176.4570  145.7000 C   0  0  0  0  0  2  0  0  0  0  0  0
  186.2840  177.3270  143.7970 C   0  0  0  0  0  2  0  0  0  0  0  0
  190.9770  177.1820  144.5340 C   0  0  1  0  0  3  0  0  0  0  0  0
  189.6860  177.3680  147.0890 C   0  0  0  0  0  0  0  0  0  0  0  0
  191.5100  176.6630  143.2110 C   0  0  0  0  0  2  0  0  0  0  0  0
  191.4830  177.7630  142.1620 C   0  0  0  0  0  2  0  0  0  0  0  0
  191.4730  177.0380  139.7540 C   0  0  0  0  0  0  0  0  0  0  0  0
  190.8460  176.6590  138.7290 O   0  0  0  0  0  0  0  0  0  0  0  0
  192.8540  177.1910  139.6890 O   0  0  0  0  0  1  0  0  0  0  0  0
  190.7720  177.3080  140.9760 N   0  0  0  0  0  0  0  0  0  0  0  0
  189.3210  177.2430  141.0250 C   0  0  0  0  0  1  0  0  0  0  0  0
  1 13  1  0  0  0  0
  2  1  2  0  0  0  0
  2 18  1  0  0  0  0
  4 16  1  6  0  0  0
  4  7  1  0  0  0  0
  4  1  1  0  0  0  0
  5  8  1  0  0  0  0
  6  3  1  0  0  0  0
  7  8  1  6  0  0  0
  7 14  1  0  0  0  0
  9 18  1  0  0  0  0
  9 10  2  0  0  0  0
 11  2  1  0  0  0  0
 12  5  1  0  0  0  0
 12 16  1  0  0  0  0
 13  3  2  0  0  0  0
 14 13  1  0  0  0  0
 15  9  1  0  0  0  0
 17 19  1  6  0  0  0
 17 11  1  0  0  0  0
 17 15  1  0  0  0  0
 18  6  2  0  0  0  0
 20 19  1  0  0  0  0
 21 24  1  0  0  0  0
 22 21  2  0  0  0  0
 23 21  1  0  0  0  0
 24 25  1  0  0  0  0
 24 20  1  0  0  0  0
M  END
>  <MODEL>
2

>  <REMARK>
 VINA RESULT:     -10.4      1.194      1.549
  Name = 
  3 active torsions:
  status: ('A' for Active; 'I' for Inactive)
    1  A    between atoms: C_6  and  C_15
    2  A    between atoms: C_6  and  C_23
    3  A    between atoms: C_15  and  N_21
                            x       y       z     vdW  Elec       q    Type
                         _______ _______ _______ _____ _____    ______ ____

>  <TORSDO>
F 3

$$$$
=
 OpenBabel11052412453D

 25 28  0  0  1  0  0  0  0  0999 V2000
  186.0740  178.1630  145.0770 C   0  0  0  0  0  0  0  0  0  0  0  0
  187.4340  177.8470  145.0980 C   0  0  0  0  0  0  0  0  0  0  0  0
  186.0070  178.4760  147.4700 C   0  0  0  0  0  3  0  0  0  0  0  0
  185.1570  178.5340  143.9700 C   0  0  2  0  0  3  0  0  0  0  0  0
  182.8240  178.9580  142.4350 C   0  0  0  0  0  2  0  0  0  0  0  0
  187.3590  178.0950  147.5340 C   0  0  0  0  0  3  0  0  0  0  0  0
  183.8290  178.5250  144.5800 N   0  0  2  0  0  0  0  0  0  0  0  0
  183.0430  179.5110  143.8580 C   0  0  0  0  0  2  0  0  0  0  0  0
  189.5070  177.4160  146.4230 C   0  0  0  0  0  0  0  0  0  0  0  0
  190.1050  177.3580  147.5310 O   0  0  0  0  0  0  0  0  0  0  0  0
  188.1760  177.5320  143.8280 C   0  0  0  0  0  2  0  0  0  0  0  0
  184.1570  178.5470  141.7540 C   0  0  0  0  0  2  0  0  0  0  0  0
  185.4000  178.5020  146.2170 C   0  0  0  0  0  0  0  0  0  0  0  0
  184.0680  178.8870  145.9170 N   0  0  0  0  0  2  0  0  0  0  0  0
  190.2500  177.0740  145.1670 C   0  0  0  0  0  2  0  0  0  0  0  0
  185.0950  177.7480  142.6800 C   0  0  0  0  0  2  0  0  0  0  0  0
  189.6680  177.8330  143.9720 C   0  0  1  0  0  3  0  0  0  0  0  0
  188.0760  177.7730  146.3580 C   0  0  0  0  0  0  0  0  0  0  0  0
  190.3860  177.4360  142.6950 C   0  0  0  0  0  2  0  0  0  0  0  0
  189.3940  176.8970  141.6770 C   0  0  0  0  0  2  0  0  0  0  0  0
  188.6890  178.4420  139.8220 C   0  0  0  0  0  0  0  0  0  0  0  0
  188.8920  178.9540  138.6890 O   0  0  0  0  0  0  0  0  0  0  0  0
  187.5430  178.7880  140.5290 O   0  0  0  0  0  1  0  0  0  0  0  0
  189.6270  177.5090  140.3770 N   0  0  0  0  0  0  0  0  0  0  0  0
  190.7770  177.0700  139.6040 C   0  0  0  0  0  1  0  0  0  0  0  0
  1  2  2  0  0  0  0
  1 13  1  0  0  0  0
  2 18  1  0  0  0  0
  3  6  1  0  0  0  0
  4 16  1  6  0  0  0
  4  7  1  0  0  0  0
  4  1  1  0  0  0  0
  5  8  1  0  0  0  0
  7  8  1  6  0  0  0
  7 14  1  0  0  0  0
  9 10  2  0  0  0  0
 11 17  1  0  0  0  0
 11  2  1  0  0  0  0
 12  5  1  0  0  0  0
 12 16  1  0  0  0  0
 13  3  2  0  0  0  0
 14 13  1  0  0  0  0
 15  9  1  0  0  0  0
 17 19  1  6  0  0  0
 17 15  1  0  0  0  0
 18  9  1  0  0  0  0
 18  6  2  0  0  0  0
 20 19  1  0  0  0  0
 21 24  1  0  0  0  0
 21 23  1  0  0  0  0
 22 21  2  0  0  0  0
 24 20  1  0  0  0  0
 25 24  1  0  0  0  0
M  END
>  <MODEL>
3

>  <REMARK>
 VINA RESULT:     -10.0      1.031      1.348
  Name = 
  3 active torsions:
  status: ('A' for Active; 'I' for Inactive)
    1  A    between atoms: C_6  and  C_15
    2  A    between atoms: C_6  and  C_23
    3  A    between atoms: C_15  and  N_21
                            x       y       z     vdW  Elec       q    Type
                         _______ _______ _______ _____ _____    ______ ____

>  <TORSDO>
F 3

$$$$
=
 OpenBabel11052412453D

 25 28  0  0  1  0  0  0  0  0999 V2000
  189.4250  177.5500  144.1870 C   0  0  0  0  0  0  0  0  0  0  0  0
  188.4980  177.7880  145.2040 C   0  0  0  0  0  0  0  0  0  0  0  0
  191.0930  176.7740  145.7500 C   0  0  0  0  0  3  0  0  0  0  0  0
  189.2800  177.4530  142.7130 C   0  0  2  0  0  3  0  0  0  0  0  0
  189.8480  177.4580  139.9460 C   0  0  0  0  0  2  0  0  0  0  0  0
  190.2070  177.0660  146.8030 C   0  0  0  0  0  3  0  0  0  0  0  0
  190.6530  177.4070  142.2140 N   0  0  2  0  0  0  0  0  0  0  0  0
  190.6170  176.6240  140.9910 C   0  0  0  0  0  2  0  0  0  0  0  0
  187.9730  177.8430  147.6450 C   0  0  0  0  0  0  0  0  0  0  0  0
  188.3140  177.6510  148.8420 O   0  0  0  0  0  0  0  0  0  0  0  0
  187.1230  178.3110  144.8920 C   0  0  0  0  0  2  0  0  0  0  0  0
  188.4660  177.9290  140.4720 C   0  0  0  0  0  2  0  0  0  0  0  0
  190.6600  177.0260  144.4520 C   0  0  0  0  0  0  0  0  0  0  0  0
  191.3680  176.7760  143.2480 N   0  0  0  0  0  2  0  0  0  0  0  0
  186.6080  178.3890  147.3480 C   0  0  0  0  0  2  0  0  0  0  0  0
  188.5160  178.4800  141.9110 C   0  0  0  0  0  2  0  0  0  0  0  0
  186.1220  177.9120  145.9770 C   0  0  1  0  0  3  0  0  0  0  0  0
  188.9160  177.5790  146.5400 C   0  0  0  0  0  0  0  0  0  0  0  0
  184.7680  178.5180  145.6580 C   0  0  0  0  0  2  0  0  0  0  0  0
  184.8480  179.3550  144.3920 C   0  0  0  0  0  2  0  0  0  0  0  0
  183.9610  179.0360  142.0600 C   0  0  0  0  0  0  0  0  0  0  0  0
  183.0180  178.7340  141.2810 O   0  0  0  0  0  0  0  0  0  0  0  0
  185.1880  179.4140  141.5270 O   0  0  0  0  0  1  0  0  0  0  0  0
  183.7720  178.9910  143.4820 N   0  0  0  0  0  0  0  0  0  0  0  0
  182.4660  178.6900  144.0430 C   0  0  0  0  0  1  0  0  0  0  0  0
  1 13  2  0  0  0  0
  1  2  1  0  0  0  0
  2 18  2  0  0  0  0
  3  6  2  0  0  0  0
  4 16  1  6  0  0  0
  4  1  1  0  0  0  0
  5 12  1  0  0  0  0
  5  8  1  0  0  0  0
  7  8  1  6  0  0  0
  7  4  1  0  0  0  0
  7 14  1  0  0  0  0
  9 10  2  0  0  0  0
 11  2  1  0  0  0  0
 11 17  1  0  0  0  0
 12 16  1  0  0  0  0
 13  3  1  0  0  0  0
 14 13  1  0  0  0  0
 15  9  1  0  0  0  0
 17 19  1  6  0  0  0
 17 15  1  0  0  0  0
 18  6  1  0  0  0  0
 18  9  1  0  0  0  0
 20 19  1  0  0  0  0
 21 24  1  0  0  0  0
 22 21  2  0  0  0  0
 23 21  1  0  0  0  0
 24 25  1  0  0  0  0
 24 20  1  0  0  0  0
M  END
>  <MODEL>
4

>  <REMARK>
 VINA RESULT:      -9.7      1.904      5.348
  Name = 
  3 active torsions:
  status: ('A' for Active; 'I' for Inactive)
    1  A    between atoms: C_6  and  C_15
    2  A    between atoms: C_6  and  C_23
    3  A    between atoms: C_15  and  N_21
                            x       y       z     vdW  Elec       q    Type
                         _______ _______ _______ _____ _____    ______ ____

>  <TORSDO>
F 3

$$$$
=
 OpenBabel11052412453D

 25 28  0  0  1  0  0  0  0  0999 V2000
  187.8610  177.7810  143.7110 C   0  0  0  0  0  0  0  0  0  0  0  0
  186.5680  178.1340  144.1030 C   0  0  0  0  0  0  0  0  0  0  0  0
  188.5230  177.2870  145.9790 C   0  0  0  0  0  3  0  0  0  0  0  0
  188.4450  177.4700  142.3820 C   0  0  2  0  0  3  0  0  0  0  0  0
  190.2850  177.0980  140.2720 C   0  0  0  0  0  2  0  0  0  0  0  0
  187.2520  177.6990  146.4150 C   0  0  0  0  0  3  0  0  0  0  0  0
  189.8840  177.3950  142.6270 N   0  0  2  0  0  0  0  0  0  0  0  0
  190.4120  176.4450  141.6630 C   0  0  0  0  0  2  0  0  0  0  0  0
  184.9260  178.5200  145.9460 C   0  0  0  0  0  0  0  0  0  0  0  0
  184.6340  178.5120  147.1710 O   0  0  0  0  0  0  0  0  0  0  0  0
  185.5410  178.5650  143.0930 C   0  0  0  0  0  2  0  0  0  0  0  0
  188.8430  177.5970  139.9870 C   0  0  0  0  0  2  0  0  0  0  0  0
  188.7870  177.3380  144.6130 C   0  0  0  0  0  0  0  0  0  0  0  0
  189.9790  176.9400  143.9540 N   0  0  0  0  0  2  0  0  0  0  0  0
  183.9020  178.9780  144.9500 C   0  0  0  0  0  2  0  0  0  0  0  0
  188.2120  178.3490  141.1750 C   0  0  0  0  0  2  0  0  0  0  0  0
  184.1230  178.2950  143.5970 C   0  0  1  0  0  3  0  0  0  0  0  0
  186.2740  178.1300  145.4890 C   0  0  0  0  0  0  0  0  0  0  0  0
  183.1220  178.8080  142.5790 C   0  0  0  0  0  2  0  0  0  0  0  0
  183.5460  178.4120  141.1740 C   0  0  0  0  0  2  0  0  0  0  0  0
  183.0770  179.8520  139.1660 C   0  0  0  0  0  0  0  0  0  0  0  0
  182.2640  180.3350  138.3340 O   0  0  0  0  0  0  0  0  0  0  0  0
  184.4230  180.1870  139.0760 O   0  0  0  0  0  1  0  0  0  0  0  0
  182.6200  178.9640  140.1960 N   0  0  0  0  0  0  0  0  0  0  0  0
  181.2020  178.6850  140.3550 C   0  0  0  0  0  1  0  0  0  0  0  0
  1  2  2  0  0  0  0
  1 13  1  0  0  0  0
  2 18  1  0  0  0  0
  3  6  1  0  0  0  0
  4 16  1  6  0  0  0
  4  7  1  0  0  0  0
  4  1  1  0  0  0  0
  5  8  1  0  0  0  0
  7  8  1  6  0  0  0
  7 14  1  0  0  0  0
  9 10  2  0  0  0  0
 11 17  1  0  0  0  0
 11  2  1  0  0  0  0
 12  5  1  0  0  0  0
 12 16  1  0  0  0  0
 13  3  2  0  0  0  0
 14 13  1  0  0  0  0
 15  9  1  0  0  0  0
 17 19  1  6  0  0  0
 17 15  1  0  0  0  0
 18  9  1  0  0  0  0
 18  6  2  0  0  0  0
 20 19  1  0  0  0  0
 21 24  1  0  0  0  0
 22 21  2  0  0  0  0
 23 21  1  0  0  0  0
 24 25  1  0  0  0  0
 24 20  1  0  0  0  0
M  END
>  <MODEL>
5

>  <REMARK>
 VINA RESULT:      -9.5      2.967      5.877
  Name = 
  3 active torsions:
  status: ('A' for Active; 'I' for Inactive)
    1  A    between atoms: C_6  and  C_15
    2  A    between atoms: C_6  and  C_23
    3  A    between atoms: C_15  and  N_21
                            x       y       z     vdW  Elec       q    Type
                         _______ _______ _______ _____ _____    ______ ____

>  <TORSDO>
F 3

$$$$
=
 OpenBabel11052412453D

 25 28  0  0  1  0  0  0  0  0999 V2000
  187.3430  178.0330  142.4070 C   0  0  0  0  0  0  0  0  0  0  0  0
  187.3050  177.8960  143.7960 C   0  0  0  0  0  0  0  0  0  0  0  0
  185.1380  179.0120  142.3410 C   0  0  0  0  0  3  0  0  0  0  0  0
  188.4600  177.9580  141.4320 C   0  0  2  0  0  3  0  0  0  0  0  0
  189.9270  177.6480  139.0380 C   0  0  0  0  0  2  0  0  0  0  0  0
  185.0400  178.8260  143.7310 C   0  0  0  0  0  3  0  0  0  0  0  0
  187.8040  177.9720  140.1260 N   0  0  2  0  0  0  0  0  0  0  0  0
  188.7330  178.6090  139.2100 C   0  0  0  0  0  2  0  0  0  0  0  0
  186.0220  178.1100  145.9290 C   0  0  0  0  0  0  0  0  0  0  0  0
  184.9770  178.4440  146.5480 O   0  0  0  0  0  0  0  0  0  0  0  0
  188.4700  177.3160  144.5500 C   0  0  0  0  0  2  0  0  0  0  0  0
  190.5320  177.2150  140.4000 C   0  0  0  0  0  2  0  0  0  0  0  0
  186.3120  178.6050  141.7150 C   0  0  0  0  0  0  0  0  0  0  0  0
  186.6380  178.7300  140.3400 N   0  0  0  0  0  2  0  0  0  0  0  0
  187.1670  177.5090  146.6880 C   0  0  0  0  0  2  0  0  0  0  0  0
  189.4670  176.8320  141.4470 C   0  0  0  0  0  2  0  0  0  0  0  0
  188.4960  177.8170  145.9940 C   0  0  1  0  0  3  0  0  0  0  0  0
  186.1110  178.2640  144.4630 C   0  0  0  0  0  0  0  0  0  0  0  0
  189.6430  177.1550  146.7350 C   0  0  0  0  0  2  0  0  0  0  0  0
  190.9280  177.2680  145.9300 C   0  0  0  0  0  2  0  0  0  0  0  0
  192.0500  175.2450  144.9440 C   0  0  0  0  0  0  0  0  0  0  0  0
  192.7250  174.1910  145.0870 O   0  0  0  0  0  1  0  0  0  0  0  0
  191.6250  175.6130  143.6720 O   0  0  0  0  0  0  0  0  0  0  0  0
  191.7220  176.0570  146.0800 N   0  0  0  0  0  0  0  0  0  0  0  0
  192.0800  175.6290  147.4220 C   0  0  0  0  0  1  0  0  0  0  0  0
  1  2  1  0  0  0  0
  2 18  2  0  0  0  0
  2 11  1  0  0  0  0
  3  6  2  0  0  0  0
  4 16  1  1  0  0  0
  4  1  1  0  0  0  0
  5  8  1  0  0  0  0
  5 12  1  0  0  0  0
  6 18  1  0  0  0  0
  7  8  1  6  0  0  0
  7 14  1  0  0  0  0
  7  4  1  0  0  0  0
  9 10  2  0  0  0  0
  9 15  1  0  0  0  0
 11 17  1  0  0  0  0
 12 16  1  0  0  0  0
 13  3  1  0  0  0  0
 13  1  2  0  0  0  0
 14 13  1  0  0  0  0
 17 15  1  0  0  0  0
 17 19  1  1  0  0  0
 18  9  1  0  0  0  0
 20 24  1  0  0  0  0
 20 19  1  0  0  0  0
 21 22  1  0  0  0  0
 21 24  1  0  0  0  0
 23 21  2  0  0  0  0
 24 25  1  0  0  0  0
M  END
>  <MODEL>
6

>  <REMARK>
 VINA RESULT:      -9.4      2.787      5.709
  Name = 
  3 active torsions:
  status: ('A' for Active; 'I' for Inactive)
    1  A    between atoms: C_6  and  C_15
    2  A    between atoms: C_6  and  C_23
    3  A    between atoms: C_15  and  N_21
                            x       y       z     vdW  Elec       q    Type
                         _______ _______ _______ _____ _____    ______ ____

>  <TORSDO>
F 3

$$$$
=
 OpenBabel11052412453D

 25 28  0  0  1  0  0  0  0  0999 V2000
  187.9190  177.8490  144.6370 C   0  0  0  0  0  0  0  0  0  0  0  0
  186.5930  178.1490  144.3210 C   0  0  0  0  0  0  0  0  0  0  0  0
  187.4850  177.9620  147.0090 C   0  0  0  0  0  3  0  0  0  0  0  0
  189.0340  177.3000  143.8250 C   0  0  2  0  0  3  0  0  0  0  0  0
  191.6210  176.6390  142.9040 C   0  0  0  0  0  2  0  0  0  0  0  0
  186.1590  178.3330  146.7250 C   0  0  0  0  0  3  0  0  0  0  0  0
  190.2090  177.4300  144.6850 N   0  0  2  0  0  0  0  0  0  0  0  0
  191.1010  176.3420  144.3250 C   0  0  0  0  0  2  0  0  0  0  0  0
  184.3040  178.7820  145.0940 C   0  0  0  0  0  0  0  0  0  0  0  0
  183.4920  179.0280  146.0260 O   0  0  0  0  0  0  0  0  0  0  0  0
  186.1360  178.2280  142.8900 C   0  0  0  0  0  2  0  0  0  0  0  0
  190.4680  176.9090  141.9010 C   0  0  0  0  0  2  0  0  0  0  0  0
  188.3360  177.7230  145.9330 C   0  0  0  0  0  0  0  0  0  0  0  0
  189.6910  177.3070  145.9870 N   0  0  0  0  0  2  0  0  0  0  0  0
  183.8430  178.8900  143.6710 C   0  0  0  0  0  2  0  0  0  0  0  0
  189.3800  177.8480  142.4600 C   0  0  0  0  0  2  0  0  0  0  0  0
  184.6390  177.9400  142.7720 C   0  0  1  0  0  3  0  0  0  0  0  0
  185.7080  178.4360  145.3880 C   0  0  0  0  0  0  0  0  0  0  0  0
  184.2090  178.0990  141.3260 C   0  0  0  0  0  2  0  0  0  0  0  0
  185.2020  178.9680  140.5710 C   0  0  0  0  0  2  0  0  0  0  0  0
  186.5970  178.3050  138.5860 C   0  0  0  0  0  0  0  0  0  0  0  0
  186.6820  177.9330  137.3860 O   0  0  0  0  0  0  0  0  0  0  0  0
  187.7600  178.5070  139.3200 O   0  0  0  0  0  1  0  0  0  0  0  0
  185.3130  178.5200  139.1910 N   0  0  0  0  0  0  0  0  0  0  0  0
  184.0980  178.4040  138.4040 C   0  0  0  0  0  1  0  0  0  0  0  0
  1 13  1  0  0  0  0
  2  1  2  0  0  0  0
  2 18  1  0  0  0  0
  4 16  1  6  0  0  0
  4  1  1  0  0  0  0
  4  7  1  0  0  0  0
  5  8  1  0  0  0  0
  6  3  1  0  0  0  0
  7  8  1  6  0  0  0
  7 14  1  0  0  0  0
  9 18  1  0  0  0  0
  9 10  2  0  0  0  0
 11  2  1  0  0  0  0
 12 16  1  0  0  0  0
 12  5  1  0  0  0  0
 13 14  1  0  0  0  0
 13  3  2  0  0  0  0
 15  9  1  0  0  0  0
 17 19  1  6  0  0  0
 17 11  1  0  0  0  0
 17 15  1  0  0  0  0
 18  6  2  0  0  0  0
 20 19  1  0  0  0  0
 21 24  1  0  0  0  0
 21 23  1  0  0  0  0
 22 21  2  0  0  0  0
 24 20  1  0  0  0  0
 25 24  1  0  0  0  0
M  END
>  <MODEL>
7

>  <REMARK>
 VINA RESULT:      -9.3      2.611      5.239
  Name = 
  3 active torsions:
  status: ('A' for Active; 'I' for Inactive)
    1  A    between atoms: C_6  and  C_15
    2  A    between atoms: C_6  and  C_23
    3  A    between atoms: C_15  and  N_21
                            x       y       z     vdW  Elec       q    Type
                         _______ _______ _______ _____ _____    ______ ____

>  <TORSDO>
F 3

$$$$
=
 OpenBabel11052412453D

 25 28  0  0  1  0  0  0  0  0999 V2000
  187.6820  177.9560  145.6890 C   0  0  0  0  0  0  0  0  0  0  0  0
  186.8190  178.2820  144.6400 C   0  0  0  0  0  0  0  0  0  0  0  0
  185.9130  178.1050  147.3250 C   0  0  0  0  0  3  0  0  0  0  0  0
  189.0470  177.3740  145.7070 C   0  0  2  0  0  3  0  0  0  0  0  0
  191.6520  176.6440  146.5220 C   0  0  0  0  0  2  0  0  0  0  0  0
  185.0340  178.5020  146.3030 C   0  0  0  0  0  3  0  0  0  0  0  0
  189.4720  177.4870  147.1010 N   0  0  2  0  0  0  0  0  0  0  0  0
  190.3750  176.3750  147.3430 C   0  0  0  0  0  2  0  0  0  0  0  0
  184.5410  178.9750  143.8860 C   0  0  0  0  0  0  0  0  0  0  0  0
  183.3390  179.2490  144.1450 O   0  0  0  0  0  0  0  0  0  0  0  0
  187.3160  178.3560  143.2220 C   0  0  0  0  0  2  0  0  0  0  0  0
  191.3390  176.9290  145.0280 C   0  0  0  0  0  2  0  0  0  0  0  0
  187.2330  177.8350  146.9750 C   0  0  0  0  0  0  0  0  0  0  0  0
  188.2730  177.3890  147.8300 N   0  0  0  0  0  2  0  0  0  0  0  0
  185.0300  179.0780  142.4720 C   0  0  0  0  0  2  0  0  0  0  0  0
  190.1570  177.8980  144.8260 C   0  0  0  0  0  2  0  0  0  0  0  0
  186.1830  178.1000  142.2280 C   0  0  1  0  0  3  0  0  0  0  0  0
  185.4780  178.6010  144.9640 C   0  0  0  0  0  0  0  0  0  0  0  0
  186.7120  178.2530  140.8140 C   0  0  0  0  0  2  0  0  0  0  0  0
  188.2230  178.4190  140.8300 C   0  0  0  0  0  2  0  0  0  0  0  0
  190.0230  176.7740  140.2100 C   0  0  0  0  0  0  0  0  0  0  0  0
  190.5550  176.0030  139.3690 O   0  0  0  0  0  0  0  0  0  0  0  0
  190.5950  176.9060  141.4700 O   0  0  0  0  0  1  0  0  0  0  0  0
  188.8380  177.5110  139.8730 N   0  0  0  0  0  0  0  0  0  0  0  0
  188.2900  177.4510  138.5290 C   0  0  0  0  0  1  0  0  0  0  0  0
  1  4  1  0  0  0  0
  1 13  1  0  0  0  0
  2 18  1  0  0  0  0
  2  1  2  0  0  0  0
  4 16  1  6  0  0  0
  4  7  1  0  0  0  0
  5  8  1  0  0  0  0
  6  3  1  0  0  0  0
  7  8  1  1  0  0  0
  7 14  1  0  0  0  0
  9 10  2  0  0  0  0
  9 18  1  0  0  0  0
 11  2  1  0  0  0  0
 12  5  1  0  0  0  0
 13  3  2  0  0  0  0
 13 14  1  0  0  0  0
 15  9  1  0  0  0  0
 16 12  1  0  0  0  0
 17 19  1  6  0  0  0
 17 15  1  0  0  0  0
 17 11  1  0  0  0  0
 18  6  2  0  0  0  0
 19 20  1  0  0  0  0
 21 23  1  0  0  0  0
 22 21  2  0  0  0  0
 24 21  1  0  0  0  0
 24 20  1  0  0  0  0
 25 24  1  0  0  0  0
M  END
>  <MODEL>
8

>  <REMARK>
 VINA RESULT:      -9.2      2.132      4.789
  Name = 
  3 active torsions:
  status: ('A' for Active; 'I' for Inactive)
    1  A    between atoms: C_6  and  C_15
    2  A    between atoms: C_6  and  C_23
    3  A    between atoms: C_15  and  N_21
                            x       y       z     vdW  Elec       q    Type
                         _______ _______ _______ _____ _____    ______ ____

>  <TORSDO>
F 3

$$$$
=
 OpenBabel11052412453D

 25 28  0  0  1  0  0  0  0  0999 V2000
  186.9450  177.7770  144.5970 C   0  0  0  0  0  0  0  0  0  0  0  0
  188.1690  177.4520  144.0090 C   0  0  0  0  0  0  0  0  0  0  0  0
  187.8660  177.6510  146.8240 C   0  0  0  0  0  3  0  0  0  0  0  0
  185.6940  178.3490  144.0380 C   0  0  2  0  0  3  0  0  0  0  0  0
  182.9850  179.0620  143.6810 C   0  0  0  0  0  2  0  0  0  0  0  0
  189.0950  177.2560  146.2680 C   0  0  0  0  0  3  0  0  0  0  0  0
  184.7250  178.2400  145.1260 N   0  0  2  0  0  0  0  0  0  0  0  0
  183.7990  179.3450  144.9590 C   0  0  0  0  0  2  0  0  0  0  0  0
  190.5570  176.7740  144.2830 C   0  0  0  0  0  0  0  0  0  0  0  0
  191.5420  176.5110  145.0240 O   0  0  0  0  0  0  0  0  0  0  0  0
  188.3120  177.3680  142.5140 C   0  0  0  0  0  2  0  0  0  0  0  0
  183.8950  178.7710  142.4580 C   0  0  0  0  0  2  0  0  0  0  0  0
  186.8130  177.9090  145.9520 C   0  0  0  0  0  0  0  0  0  0  0  0
  185.5080  178.3510  146.2890 N   0  0  0  0  0  2  0  0  0  0  0  0
  190.7050  176.6600  142.7950 C   0  0  0  0  0  2  0  0  0  0  0  0
  185.0580  177.8110  142.7770 C   0  0  0  0  0  2  0  0  0  0  0  0
  189.7560  177.6270  142.0830 C   0  0  1  0  0  3  0  0  0  0  0  0
  189.2530  177.1470  144.8670 C   0  0  0  0  0  0  0  0  0  0  0  0
  189.8680  177.4630  140.5790 C   0  0  0  0  0  2  0  0  0  0  0  0
  188.7360  178.1980  139.8800 C   0  0  0  0  0  2  0  0  0  0  0  0
  187.6250  178.1530  137.6240 C   0  0  0  0  0  0  0  0  0  0  0  0
  187.6720  177.9170  136.3880 O   0  0  0  0  0  0  0  0  0  0  0  0
  186.4400  178.6170  138.1840 O   0  0  0  0  0  1  0  0  0  0  0  0
  188.7820  177.9460  138.4480 N   0  0  0  0  0  0  0  0  0  0  0  0
  189.9930  177.3710  137.8870 C   0  0  0  0  0  1  0  0  0  0  0  0
  1 13  1  0  0  0  0
  2  1  2  0  0  0  0
  2 18  1  0  0  0  0
  4 16  1  6  0  0  0
  4  1  1  0  0  0  0
  4  7  1  0  0  0  0
  5  8  1  0  0  0  0
  6  3  1  0  0  0  0
  7  8  1  6  0  0  0
  7 14  1  0  0  0  0
  9 18  1  0  0  0  0
  9 10  2  0  0  0  0
 11  2  1  0  0  0  0
 12 16  1  0  0  0  0
 12  5  1  0  0  0  0
 13 14  1  0  0  0  0
 13  3  2  0  0  0  0
 15  9  1  0  0  0  0
 17 19  1  6  0  0  0
 17 11  1  0  0  0  0
 17 15  1  0  0  0  0
 18  6  2  0  0  0  0
 20 19  1  0  0  0  0
 21 23  1  0  0  0  0
 21 24  1  0  0  0  0
 22 21  2  0  0  0  0
 24 20  1  0  0  0  0
 25 24  1  0  0  0  0
M  END
>  <MODEL>
9

>  <REMARK>
 VINA RESULT:      -9.1      1.502      1.961
  Name = 
  3 active torsions:
  status: ('A' for Active; 'I' for Inactive)
    1  A    between atoms: C_6  and  C_15
    2  A    between atoms: C_6  and  C_23
    3  A    between atoms: C_15  and  N_21
                            x       y       z     vdW  Elec       q    Type
                         _______ _______ _______ _____ _____    ______ ____

>  <TORSDO>
F 3

$$$$
