=
 OpenBabel11052413303D

 28 32  0  0  1  0  0  0  0  0999 V2000
  187.2360  178.2200  141.0920 N   0  0  0  0  0  0  0  0  0  0  0  0
  190.3960  176.9090  144.8540 C   0  0  0  0  0  2  0  0  0  0  0  0
  184.5620  178.5570  145.1330 F   0  0  0  0  0  0  0  0  0  0  0  0
  189.0510  177.0700  146.8700 C   0  0  0  0  0  0  0  0  0  0  0  0
  188.0930  177.5900  144.7100 C   0  0  0  0  0  0  0  0  0  0  0  0
  191.3750  176.3850  146.9990 C   0  0  0  0  0  0  0  0  0  0  0  0
  189.1560  177.1990  145.4590 C   0  0  0  0  0  0  0  0  0  0  0  0
  186.6640  177.7650  146.8080 C   0  0  0  0  0  3  0  0  0  0  0  0
  190.1600  176.6660  147.6220 C   0  0  0  0  0  3  0  0  0  0  0  0
  185.8820  178.3980  143.1440 C   0  0  0  0  0  0  0  0  0  0  0  0
  188.2020  177.7130  143.3130 C   0  0  0  0  0  3  0  0  0  0  0  0
  187.9120  177.3260  147.5150 C   0  0  0  0  0  3  0  0  0  0  0  0
  184.9510  178.9330  140.9330 C   0  0  0  0  0  3  0  0  0  0  0  0
  185.7510  178.2790  144.5350 C   0  0  0  0  0  0  0  0  0  0  0  0
  184.8390  178.7910  142.3980 C   0  0  0  0  0  3  0  0  0  0  0  0
  192.5450  175.9560  147.8110 C   0  0  0  0  0  1  0  0  0  0  0  0
  191.4940  176.5070  145.6160 C   0  0  0  0  0  3  0  0  0  0  0  0
  186.8460  177.8780  145.3180 C   0  0  0  0  0  0  0  0  0  0  0  0
  186.1050  178.6590  140.3240 C   0  0  0  0  0  3  0  0  0  0  0  0
  187.1150  178.1060  142.5270 C   0  0  0  0  0  0  0  0  0  0  0  0
  188.4900  177.9230  140.3990 C   0  0  0  0  0  2  0  0  0  0  0  0
  188.3180  177.8550  138.8800 C   0  0  2  0  0  3  0  0  0  0  0  0
  188.7500  177.5320  136.0750 C   0  0  0  0  0  0  0  0  0  0  0  0
  188.6610  176.4700  138.3370 C   0  0  0  0  0  2  0  0  0  0  0  0
  189.1540  178.9100  138.1630 C   0  0  0  0  0  2  0  0  0  0  0  0
  188.8190  178.9160  136.6730 C   0  0  0  0  0  2  0  0  0  0  0  0
  188.6670  177.3970  134.5940 C   0  0  0  0  0  1  0  0  0  0  0  0
  188.6000  176.4330  136.8330 C   0  0  0  0  0  3  0  0  0  0  0  0
  1 20  1  0  0  0  0
  2  7  1  0  0  0  0
  2 17  1  0  0  0  0
  4 12  1  0  0  0  0
  4  9  2  0  0  0  0
  5 18  1  0  0  0  0
  5  7  2  0  0  0  0
  6  9  1  0  0  0  0
  6 16  1  0  0  0  0
  7  4  1  0  0  0  0
  8 12  2  0  0  0  0
 10 14  1  0  0  0  0
 11  5  1  0  0  0  0
 13 15  1  0  0  0  0
 14  3  1  0  0  0  0
 14 18  2  0  0  0  0
 15 10  2  0  0  0  0
 17  6  2  0  0  0  0
 18  8  1  0  0  0  0
 19 13  2  0  0  0  0
 19  1  1  0  0  0  0
 20 10  1  0  0  0  0
 20 11  2  0  0  0  0
 21  1  1  0  0  0  0
 22 21  1  1  0  0  0
 23 26  1  0  0  0  0
 23 28  2  0  0  0  0
 24 22  1  0  0  0  0
 25 22  1  0  0  0  0
 26 25  1  0  0  0  0
 27 23  1  0  0  0  0
 28 24  1  0  0  0  0
M  END
>  <MODEL>
1

>  <REMARK>
 VINA RESULT:     -11.3      0.000      0.000
  Name = 
  2 active torsions:
  status: ('A' for Active; 'I' for Inactive)
    1  A    between atoms: N_1  and  C_2
    2  A    between atoms: C_2  and  C_3
                            x       y       z     vdW  Elec       q    Type
                         _______ _______ _______ _____ _____    ______ ____

>  <TORSDO>
F 2

$$$$
=
 OpenBabel11052413303D

 28 32  0  0  1  0  0  0  0  0999 V2000
  189.9290  177.0040  142.6520 N   0  0  0  0  0  0  0  0  0  0  0  0
  185.0210  178.3190  142.8080 C   0  0  0  0  0  2  0  0  0  0  0  0
  188.9260  177.4950  147.3800 F   0  0  0  0  0  0  0  0  0  0  0  0
  184.5270  178.5740  145.1730 C   0  0  0  0  0  0  0  0  0  0  0  0
  186.7440  177.9350  144.4420 C   0  0  0  0  0  0  0  0  0  0  0  0
  182.8000  178.9570  143.5130 C   0  0  0  0  0  0  0  0  0  0  0  0
  185.4610  178.2670  144.1470 C   0  0  0  0  0  0  0  0  0  0  0  0
  186.2510  178.1950  146.9250 C   0  0  0  0  0  3  0  0  0  0  0  0
  183.2100  178.9140  144.8450 C   0  0  0  0  0  3  0  0  0  0  0  0
  189.4180  177.2460  145.0510 C   0  0  0  0  0  0  0  0  0  0  0  0
  187.6640  177.6360  143.4220 C   0  0  0  0  0  3  0  0  0  0  0  0
  184.8680  178.5470  146.4630 C   0  0  0  0  0  3  0  0  0  0  0  0
  191.6510  176.5830  144.2700 C   0  0  0  0  0  3  0  0  0  0  0  0
  188.5160  177.5430  146.0840 C   0  0  0  0  0  0  0  0  0  0  0  0
  190.6840  176.9090  145.3360 C   0  0  0  0  0  3  0  0  0  0  0  0
  181.3970  179.3210  143.1790 C   0  0  0  0  0  1  0  0  0  0  0  0
  183.7040  178.6600  142.4950 C   0  0  0  0  0  3  0  0  0  0  0  0
  187.1870  177.8860  145.7870 C   0  0  0  0  0  0  0  0  0  0  0  0
  191.2740  176.6300  142.9920 C   0  0  0  0  0  3  0  0  0  0  0  0
  188.9900  177.2990  143.7090 C   0  0  0  0  0  0  0  0  0  0  0  0
  189.5420  177.0500  141.2430 C   0  0  0  0  0  2  0  0  0  0  0  0
  190.6550  176.5630  140.3120 C   0  0  2  0  0  3  0  0  0  0  0  0
  192.5840  176.3280  138.2180 C   0  0  0  0  0  0  0  0  0  0  0  0
  191.8160  177.5530  140.2580 C   0  0  0  0  0  2  0  0  0  0  0  0
  190.1430  176.2940  138.9010 C   0  0  0  0  0  2  0  0  0  0  0  0
  191.2450  175.6490  138.0610 C   0  0  0  0  0  2  0  0  0  0  0  0
  193.6850  175.9590  137.2860 C   0  0  0  0  0  1  0  0  0  0  0  0
  192.8600  177.1290  139.2600 C   0  0  0  0  0  3  0  0  0  0  0  0
  1 19  1  0  0  0  0
  1 20  1  0  0  0  0
  2  7  1  0  0  0  0
  4 12  1  0  0  0  0
  5 18  1  0  0  0  0
  6  9  1  0  0  0  0
  7  5  2  0  0  0  0
  7  4  1  0  0  0  0
  9  4  2  0  0  0  0
 10 15  2  0  0  0  0
 10 14  1  0  0  0  0
 11 20  2  0  0  0  0
 11  5  1  0  0  0  0
 12  8  2  0  0  0  0
 13 15  1  0  0  0  0
 14  3  1  0  0  0  0
 16  6  1  0  0  0  0
 17  2  1  0  0  0  0
 17  6  2  0  0  0  0
 18 14  2  0  0  0  0
 18  8  1  0  0  0  0
 19 13  2  0  0  0  0
 20 10  1  0  0  0  0
 21  1  1  0  0  0  0
 22 21  1  1  0  0  0
 23 28  2  0  0  0  0
 24 22  1  0  0  0  0
 25 22  1  0  0  0  0
 26 23  1  0  0  0  0
 26 25  1  0  0  0  0
 27 23  1  0  0  0  0
 28 24  1  0  0  0  0
M  END
>  <MODEL>
2

>  <REMARK>
 VINA RESULT:     -11.3      2.463      5.433
  Name = 
  2 active torsions:
  status: ('A' for Active; 'I' for Inactive)
    1  A    between atoms: N_1  and  C_2
    2  A    between atoms: C_2  and  C_3
                            x       y       z     vdW  Elec       q    Type
                         _______ _______ _______ _____ _____    ______ ____

>  <TORSDO>
F 2

$$$$
=
 OpenBabel11052413303D

 28 32  0  0  1  0  0  0  0  0999 V2000
  187.2540  178.4360  140.7230 N   0  0  0  0  0  0  0  0  0  0  0  0
  190.2580  177.1640  144.6230 C   0  0  0  0  0  2  0  0  0  0  0  0
  184.3130  178.3840  144.5890 F   0  0  0  0  0  0  0  0  0  0  0  0
  188.7810  177.1290  146.5510 C   0  0  0  0  0  0  0  0  0  0  0  0
  187.9250  177.6880  144.3570 C   0  0  0  0  0  0  0  0  0  0  0  0
  191.1360  176.6040  146.8030 C   0  0  0  0  0  0  0  0  0  0  0  0
  188.9640  177.3360  145.1570 C   0  0  0  0  0  0  0  0  0  0  0  0
  186.3580  177.6580  146.3620 C   0  0  0  0  0  3  0  0  0  0  0  0
  189.8660  176.7670  147.3560 C   0  0  0  0  0  3  0  0  0  0  0  0
  185.7640  178.4170  142.6870 C   0  0  0  0  0  0  0  0  0  0  0  0
  188.1130  177.8880  142.9780 C   0  0  0  0  0  3  0  0  0  0  0  0
  187.5870  177.2720  147.1300 C   0  0  0  0  0  3  0  0  0  0  0  0
  184.9360  178.9950  140.4460 C   0  0  0  0  0  3  0  0  0  0  0  0
  185.5550  178.2200  144.0590 C   0  0  0  0  0  0  0  0  0  0  0  0
  184.7440  178.7730  141.8920 C   0  0  0  0  0  3  0  0  0  0  0  0
  192.2800  176.2180  147.6700 C   0  0  0  0  0  1  0  0  0  0  0  0
  191.3320  176.8030  145.4370 C   0  0  0  0  0  3  0  0  0  0  0  0
  186.6250  177.8580  144.8940 C   0  0  0  0  0  0  0  0  0  0  0  0
  186.1440  178.8330  139.9030 C   0  0  0  0  0  3  0  0  0  0  0  0
  187.0510  178.2430  142.1400 C   0  0  0  0  0  0  0  0  0  0  0  0
  188.5670  178.2630  140.1020 C   0  0  0  0  0  2  0  0  0  0  0  0
  188.5840  177.1290  139.0750 C   0  0  2  0  0  3  0  0  0  0  0  0
  189.1330  175.4770  136.8090 C   0  0  0  0  0  0  0  0  0  0  0  0
  189.9860  176.5480  138.9020 C   0  0  0  0  0  2  0  0  0  0  0  0
  188.0420  177.5760  137.7220 C   0  0  0  0  0  2  0  0  0  0  0  0
  187.9180  176.3740  136.7870 C   0  0  0  0  0  2  0  0  0  0  0  0
  189.2490  174.4070  135.7800 C   0  0  0  0  0  1  0  0  0  0  0  0
  190.0250  175.5090  137.8120 C   0  0  0  0  0  3  0  0  0  0  0  0
  1 20  1  0  0  0  0
  2  7  1  0  0  0  0
  2 17  1  0  0  0  0
  4 12  1  0  0  0  0
  4  9  2  0  0  0  0
  5 18  1  0  0  0  0
  5  7  2  0  0  0  0
  6  9  1  0  0  0  0
  6 16  1  0  0  0  0
  7  4  1  0  0  0  0
  8 12  2  0  0  0  0
 10 14  1  0  0  0  0
 11  5  1  0  0  0  0
 13 15  1  0  0  0  0
 14  3  1  0  0  0  0
 14 18  2  0  0  0  0
 15 10  2  0  0  0  0
 17  6  2  0  0  0  0
 18  8  1  0  0  0  0
 19 13  2  0  0  0  0
 19  1  1  0  0  0  0
 20 10  1  0  0  0  0
 20 11  2  0  0  0  0
 21  1  1  0  0  0  0
 22 21  1  1  0  0  0
 23 28  2  0  0  0  0
 24 22  1  0  0  0  0
 25 22  1  0  0  0  0
 26 23  1  0  0  0  0
 26 25  1  0  0  0  0
 27 23  1  0  0  0  0
 28 24  1  0  0  0  0
M  END
>  <MODEL>
3

>  <REMARK>
 VINA RESULT:     -10.6      0.888      1.149
  Name = 
  2 active torsions:
  status: ('A' for Active; 'I' for Inactive)
    1  A    between atoms: N_1  and  C_2
    2  A    between atoms: C_2  and  C_3
                            x       y       z     vdW  Elec       q    Type
                         _______ _______ _______ _____ _____    ______ ____

>  <TORSDO>
F 2

$$$$
=
 OpenBabel11052413303D

 28 32  0  0  1  0  0  0  0  0999 V2000
  189.7550  177.5390  141.6840 N   0  0  0  0  0  0  0  0  0  0  0  0
  184.8240  178.5300  142.4320 C   0  0  0  0  0  2  0  0  0  0  0  0
  189.1780  177.3990  146.5060 F   0  0  0  0  0  0  0  0  0  0  0  0
  184.5440  178.4700  144.8440 C   0  0  0  0  0  0  0  0  0  0  0  0
  186.7110  178.0560  143.8480 C   0  0  0  0  0  0  0  0  0  0  0  0
  182.6510  178.9460  143.4020 C   0  0  0  0  0  0  0  0  0  0  0  0
  185.3910  178.3450  143.7100 C   0  0  0  0  0  0  0  0  0  0  0  0
  186.4420  177.9880  146.3780 C   0  0  0  0  0  3  0  0  0  0  0  0
  183.1870  178.7670  144.6780 C   0  0  0  0  0  3  0  0  0  0  0  0
  189.4600  177.4610  144.1300 C   0  0  0  0  0  0  0  0  0  0  0  0
  187.5440  177.9380  142.7220 C   0  0  0  0  0  3  0  0  0  0  0  0
  185.0060  178.3090  146.0850 C   0  0  0  0  0  3  0  0  0  0  0  0
  191.6400  177.0300  143.0800 C   0  0  0  0  0  3  0  0  0  0  0  0
  188.6460  177.5780  145.2660 C   0  0  0  0  0  0  0  0  0  0  0  0
  190.7630  177.1680  144.2580 C   0  0  0  0  0  3  0  0  0  0  0  0
  181.2080  179.2620  143.2400 C   0  0  0  0  0  1  0  0  0  0  0  0
  183.4690  178.8260  142.2800 C   0  0  0  0  0  3  0  0  0  0  0  0
  187.2800  177.8730  145.1320 C   0  0  0  0  0  0  0  0  0  0  0  0
  191.1420  177.2080  141.8550 C   0  0  0  0  0  3  0  0  0  0  0  0
  188.9060  177.6490  142.8470 C   0  0  0  0  0  0  0  0  0  0  0  0
  189.2340  177.7300  140.3310 C   0  0  0  0  0  2  0  0  0  0  0  0
  189.7800  176.6990  139.3410 C   0  0  2  0  0  3  0  0  0  0  0  0
  190.7510  175.3740  137.0030 C   0  0  0  0  0  0  0  0  0  0  0  0
  191.1010  177.1540  138.7250 C   0  0  0  0  0  2  0  0  0  0  0  0
  188.7790  176.3820  138.2350 C   0  0  0  0  0  2  0  0  0  0  0  0
  189.2960  175.2280  137.3780 C   0  0  0  0  0  2  0  0  0  0  0  0
  191.3210  174.4530  135.9810 C   0  0  0  0  0  1  0  0  0  0  0  0
  191.5810  176.1920  137.6700 C   0  0  0  0  0  3  0  0  0  0  0  0
  1 19  1  0  0  0  0
  1 20  1  0  0  0  0
  2  7  1  0  0  0  0
  4 12  1  0  0  0  0
  5 18  1  0  0  0  0
  6  9  1  0  0  0  0
  7  5  2  0  0  0  0
  7  4  1  0  0  0  0
  9  4  2  0  0  0  0
 10 15  2  0  0  0  0
 10 14  1  0  0  0  0
 11 20  2  0  0  0  0
 11  5  1  0  0  0  0
 12  8  2  0  0  0  0
 13 15  1  0  0  0  0
 14  3  1  0  0  0  0
 16  6  1  0  0  0  0
 17  2  1  0  0  0  0
 17  6  2  0  0  0  0
 18 14  2  0  0  0  0
 18  8  1  0  0  0  0
 19 13  2  0  0  0  0
 20 10  1  0  0  0  0
 21  1  1  0  0  0  0
 22 21  1  1  0  0  0
 23 26  1  0  0  0  0
 23 28  2  0  0  0  0
 24 22  1  0  0  0  0
 25 22  1  0  0  0  0
 26 25  1  0  0  0  0
 27 23  1  0  0  0  0
 28 24  1  0  0  0  0
M  END
>  <MODEL>
4

>  <REMARK>
 VINA RESULT:     -10.5      2.139      5.177
  Name = 
  2 active torsions:
  status: ('A' for Active; 'I' for Inactive)
    1  A    between atoms: N_1  and  C_2
    2  A    between atoms: C_2  and  C_3
                            x       y       z     vdW  Elec       q    Type
                         _______ _______ _______ _____ _____    ______ ____

>  <TORSDO>
F 2

$$$$
=
 OpenBabel11052413303D

 28 32  0  0  1  0  0  0  0  0999 V2000
  183.3230  178.4050  141.6850 N   0  0  0  0  0  0  0  0  0  0  0  0
  188.1570  177.1610  142.6550 C   0  0  0  0  0  2  0  0  0  0  0  0
  183.8050  178.9520  146.4880 F   0  0  0  0  0  0  0  0  0  0  0  0
  188.3890  177.4270  145.0590 C   0  0  0  0  0  0  0  0  0  0  0  0
  186.2780  177.8890  143.9700 C   0  0  0  0  0  0  0  0  0  0  0  0
  190.2750  176.6940  143.7190 C   0  0  0  0  0  0  0  0  0  0  0  0
  187.5770  177.5020  143.8950 C   0  0  0  0  0  0  0  0  0  0  0  0
  186.4970  178.1740  146.4900 C   0  0  0  0  0  3  0  0  0  0  0  0
  189.7260  177.0250  144.9570 C   0  0  0  0  0  3  0  0  0  0  0  0
  183.5710  178.6900  144.1210 C   0  0  0  0  0  0  0  0  0  0  0  0
  185.4790  177.9580  142.8150 C   0  0  0  0  0  3  0  0  0  0  0  0
  187.9130  177.7320  146.2670 C   0  0  0  0  0  3  0  0  0  0  0  0
  181.4480  179.1650  142.9760 C   0  0  0  0  0  3  0  0  0  0  0  0
  184.3500  178.6250  145.2850 C   0  0  0  0  0  0  0  0  0  0  0  0
  182.2890  179.0790  144.1860 C   0  0  0  0  0  3  0  0  0  0  0  0
  191.6960  176.2680  143.6260 C   0  0  0  0  0  1  0  0  0  0  0  0
  189.4910  176.7630  142.5680 C   0  0  0  0  0  3  0  0  0  0  0  0
  185.6950  178.2280  145.2160 C   0  0  0  0  0  0  0  0  0  0  0  0
  181.9590  178.8420  141.7870 C   0  0  0  0  0  3  0  0  0  0  0  0
  184.1370  178.3470  142.8760 C   0  0  0  0  0  0  0  0  0  0  0  0
  183.8580  178.0540  140.3700 C   0  0  0  0  0  2  0  0  0  0  0  0
  182.7790  177.5280  139.4200 C   0  0  2  0  0  3  0  0  0  0  0  0
  181.3700  176.1600  137.3450 C   0  0  0  0  0  0  0  0  0  0  0  0
  182.6800  176.0050  139.4700 C   0  0  0  0  0  2  0  0  0  0  0  0
  183.0130  177.9810  137.9830 C   0  0  0  0  0  2  0  0  0  0  0  0
  181.8260  177.5800  137.1090 C   0  0  0  0  0  2  0  0  0  0  0  0
  180.3830  175.5610  136.4040 C   0  0  0  0  0  1  0  0  0  0  0  0
  181.6980  175.4800  138.4560 C   0  0  0  0  0  3  0  0  0  0  0  0
  1 19  1  0  0  0  0
  1 20  1  0  0  0  0
  2  7  1  0  0  0  0
  4 12  1  0  0  0  0
  5 18  1  0  0  0  0
  6  9  1  0  0  0  0
  7  5  2  0  0  0  0
  7  4  1  0  0  0  0
  9  4  2  0  0  0  0
 10 15  2  0  0  0  0
 10 14  1  0  0  0  0
 11 20  2  0  0  0  0
 11  5  1  0  0  0  0
 12  8  2  0  0  0  0
 13 15  1  0  0  0  0
 14  3  1  0  0  0  0
 16  6  1  0  0  0  0
 17  2  1  0  0  0  0
 17  6  2  0  0  0  0
 18 14  2  0  0  0  0
 18  8  1  0  0  0  0
 19 13  2  0  0  0  0
 20 10  1  0  0  0  0
 21  1  1  0  0  0  0
 22 24  1  0  0  0  0
 22 21  1  1  0  0  0
 23 28  2  0  0  0  0
 25 22  1  0  0  0  0
 26 23  1  0  0  0  0
 26 25  1  0  0  0  0
 27 23  1  0  0  0  0
 28 24  1  0  0  0  0
M  END
>  <MODEL>
5

>  <REMARK>
 VINA RESULT:     -10.3      3.203      4.354
  Name = 
  2 active torsions:
  status: ('A' for Active; 'I' for Inactive)
    1  A    between atoms: N_1  and  C_2
    2  A    between atoms: C_2  and  C_3
                            x       y       z     vdW  Elec       q    Type
                         _______ _______ _______ _____ _____    ______ ____

>  <TORSDO>
F 2

$$$$
=
 OpenBabel11052413303D

 28 32  0  0  1  0  0  0  0  0999 V2000
  186.4950  178.4300  140.2610 N   0  0  0  0  0  0  0  0  0  0  0  0
  188.2200  178.0380  145.0280 C   0  0  0  0  0  2  0  0  0  0  0  0
  182.5480  178.9120  143.0520 F   0  0  0  0  0  0  0  0  0  0  0  0
  186.2420  178.2700  146.4180 C   0  0  0  0  0  0  0  0  0  0  0  0
  186.0680  178.3810  144.0070 C   0  0  0  0  0  0  0  0  0  0  0  0
  188.4180  177.9240  147.4330 C   0  0  0  0  0  0  0  0  0  0  0  0
  186.8260  178.2330  145.1240 C   0  0  0  0  0  0  0  0  0  0  0  0
  183.9810  178.6260  145.4430 C   0  0  0  0  0  3  0  0  0  0  0  0
  187.0420  178.1160  147.5550 C   0  0  0  0  0  3  0  0  0  0  0  0
  184.4940  178.6820  141.6780 C   0  0  0  0  0  0  0  0  0  0  0  0
  186.6530  178.3410  142.7290 C   0  0  0  0  0  3  0  0  0  0  0  0
  184.9310  178.4500  146.5910 C   0  0  0  0  0  3  0  0  0  0  0  0
  184.3620  178.8060  139.2270 C   0  0  0  0  0  3  0  0  0  0  0  0
  183.8910  178.7230  142.9440 C   0  0  0  0  0  0  0  0  0  0  0  0
  183.7530  178.8350  140.5700 C   0  0  0  0  0  3  0  0  0  0  0  0
  189.2570  177.7610  148.6490 C   0  0  0  0  0  1  0  0  0  0  0  0
  189.0070  177.8860  146.1700 C   0  0  0  0  0  3  0  0  0  0  0  0
  184.6680  178.5730  144.1040 C   0  0  0  0  0  0  0  0  0  0  0  0
  185.6750  178.6140  139.0960 C   0  0  0  0  0  3  0  0  0  0  0  0
  185.8850  178.4830  141.5690 C   0  0  0  0  0  0  0  0  0  0  0  0
  187.9320  178.2190  140.0900 C   0  0  0  0  0  2  0  0  0  0  0  0
  188.2890  177.7270  138.6850 C   0  0  2  0  0  3  0  0  0  0  0  0
  189.6780  176.9420  136.3150 C   0  0  0  0  0  0  0  0  0  0  0  0
  189.2090  176.5090  138.7330 C   0  0  0  0  0  2  0  0  0  0  0  0
  188.9310  178.8230  137.8410 C   0  0  0  0  0  2  0  0  0  0  0  0
  189.1080  178.3370  136.4030 C   0  0  0  0  0  2  0  0  0  0  0  0
  190.1230  176.4350  134.9870 C   0  0  0  0  0  1  0  0  0  0  0  0
  189.6490  176.0920  137.3540 C   0  0  0  0  0  3  0  0  0  0  0  0
  1 20  1  0  0  0  0
  2  7  1  0  0  0  0
  2 17  1  0  0  0  0
  4 12  1  0  0  0  0
  4  9  2  0  0  0  0
  5 18  1  0  0  0  0
  5  7  2  0  0  0  0
  6  9  1  0  0  0  0
  6 16  1  0  0  0  0
  7  4  1  0  0  0  0
  8 12  2  0  0  0  0
 10 14  1  0  0  0  0
 11  5  1  0  0  0  0
 13 15  1  0  0  0  0
 14  3  1  0  0  0  0
 14 18  2  0  0  0  0
 15 10  2  0  0  0  0
 17  6  2  0  0  0  0
 18  8  1  0  0  0  0
 19 13  2  0  0  0  0
 19  1  1  0  0  0  0
 20 10  1  0  0  0  0
 20 11  2  0  0  0  0
 21  1  1  0  0  0  0
 22 24  1  0  0  0  0
 22 21  1  1  0  0  0
 23 26  1  0  0  0  0
 23 28  2  0  0  0  0
 25 22  1  0  0  0  0
 26 25  1  0  0  0  0
 27 23  1  0  0  0  0
 28 24  1  0  0  0  0
M  END
>  <MODEL>
6

>  <REMARK>
 VINA RESULT:     -10.3      1.557      2.269
  Name = 
  2 active torsions:
  status: ('A' for Active; 'I' for Inactive)
    1  A    between atoms: N_1  and  C_2
    2  A    between atoms: C_2  and  C_3
                            x       y       z     vdW  Elec       q    Type
                         _______ _______ _______ _____ _____    ______ ____

>  <TORSDO>
F 2

$$$$
=
 OpenBabel11052413303D

 28 32  0  0  1  0  0  0  0  0999 V2000
  190.2650  176.1290  143.9000 N   0  0  0  0  0  0  0  0  0  0  0  0
  185.4580  177.7280  143.4690 C   0  0  0  0  0  2  0  0  0  0  0  0
  189.3200  178.3690  148.1060 F   0  0  0  0  0  0  0  0  0  0  0  0
  184.9940  178.8560  145.5690 C   0  0  0  0  0  0  0  0  0  0  0  0
  187.1590  177.8520  145.1650 C   0  0  0  0  0  0  0  0  0  0  0  0
  183.2890  178.7220  143.8480 C   0  0  0  0  0  0  0  0  0  0  0  0
  185.9000  178.1380  144.7440 C   0  0  0  0  0  0  0  0  0  0  0  0
  186.6970  179.0290  147.3740 C   0  0  0  0  0  3  0  0  0  0  0  0
  183.7020  179.1390  145.1140 C   0  0  0  0  0  3  0  0  0  0  0  0
  189.7820  177.2600  146.0370 C   0  0  0  0  0  0  0  0  0  0  0  0
  188.0520  177.1440  144.3420 C   0  0  0  0  0  3  0  0  0  0  0  0
  185.3390  179.2780  146.7870 C   0  0  0  0  0  3  0  0  0  0  0  0
  191.9620  176.2130  145.5950 C   0  0  0  0  0  3  0  0  0  0  0  0
  188.9080  177.9700  146.8730 C   0  0  0  0  0  0  0  0  0  0  0  0
  191.0250  176.9670  146.4500 C   0  0  0  0  0  3  0  0  0  0  0  0
  181.9130  179.0300  143.3770 C   0  0  0  0  0  1  0  0  0  0  0  0
  184.1660  178.0170  143.0260 C   0  0  0  0  0  3  0  0  0  0  0  0
  187.6040  178.2670  146.4450 C   0  0  0  0  0  0  0  0  0  0  0  0
  191.5830  175.8170  144.3790 C   0  0  0  0  0  3  0  0  0  0  0  0
  189.3530  176.8490  144.7580 C   0  0  0  0  0  0  0  0  0  0  0  0
  189.8740  175.6850  142.5620 C   0  0  0  0  0  2  0  0  0  0  0  0
  189.8360  176.8340  141.5520 C   0  0  2  0  0  3  0  0  0  0  0  0
  189.3660  178.4570  139.2480 C   0  0  0  0  0  0  0  0  0  0  0  0
  188.4030  177.2270  141.2010 C   0  0  0  0  0  2  0  0  0  0  0  0
  190.6030  176.4990  140.2770 C   0  0  0  0  0  2  0  0  0  0  0  0
  190.6830  177.7320  139.3770 C   0  0  0  0  0  2  0  0  0  0  0  0
  189.2390  179.5300  138.2230 C   0  0  0  0  0  1  0  0  0  0  0  0
  188.3640  178.2800  140.1260 C   0  0  0  0  0  3  0  0  0  0  0  0
  1 19  1  0  0  0  0
  1 20  1  0  0  0  0
  2  7  1  0  0  0  0
  4 12  1  0  0  0  0
  5 18  1  0  0  0  0
  6  9  1  0  0  0  0
  7  5  2  0  0  0  0
  7  4  1  0  0  0  0
  9  4  2  0  0  0  0
 10 15  2  0  0  0  0
 10 14  1  0  0  0  0
 11 20  2  0  0  0  0
 11  5  1  0  0  0  0
 12  8  2  0  0  0  0
 13 15  1  0  0  0  0
 14  3  1  0  0  0  0
 16  6  1  0  0  0  0
 17  2  1  0  0  0  0
 17  6  2  0  0  0  0
 18 14  2  0  0  0  0
 18  8  1  0  0  0  0
 19 13  2  0  0  0  0
 20 10  1  0  0  0  0
 21  1  1  0  0  0  0
 22 21  1  1  0  0  0
 23 26  1  0  0  0  0
 23 28  2  0  0  0  0
 24 22  1  0  0  0  0
 25 22  1  0  0  0  0
 26 25  1  0  0  0  0
 27 23  1  0  0  0  0
 28 24  1  0  0  0  0
M  END
>  <MODEL>
7

>  <REMARK>
 VINA RESULT:     -10.2      2.187      5.386
  Name = 
  2 active torsions:
  status: ('A' for Active; 'I' for Inactive)
    1  A    between atoms: N_1  and  C_2
    2  A    between atoms: C_2  and  C_3
                            x       y       z     vdW  Elec       q    Type
                         _______ _______ _______ _____ _____    ______ ____

>  <TORSDO>
F 2

$$$$
=
 OpenBabel11052413303D

 28 32  0  0  1  0  0  0  0  0999 V2000
  189.8450  177.7340  140.5690 N   0  0  0  0  0  0  0  0  0  0  0  0
  185.1630  178.4780  142.4070 C   0  0  0  0  0  2  0  0  0  0  0  0
  190.2840  177.1230  145.3680 F   0  0  0  0  0  0  0  0  0  0  0  0
  185.3900  178.1820  144.8070 C   0  0  0  0  0  0  0  0  0  0  0  0
  187.3090  177.9400  143.3520 C   0  0  0  0  0  0  0  0  0  0  0  0
  183.2330  178.7240  143.8390 C   0  0  0  0  0  0  0  0  0  0  0  0
  185.9850  178.1930  143.5170 C   0  0  0  0  0  0  0  0  0  0  0  0
  187.5720  177.6250  145.8640 C   0  0  0  0  0  3  0  0  0  0  0  0
  184.0240  178.4460  144.9530 C   0  0  0  0  0  3  0  0  0  0  0  0
  190.0660  177.4170  143.0040 C   0  0  0  0  0  0  0  0  0  0  0  0
  187.8920  177.9560  142.0730 C   0  0  0  0  0  3  0  0  0  0  0  0
  186.1020  177.9210  145.9050 C   0  0  0  0  0  3  0  0  0  0  0  0
  191.9860  177.1630  141.4910 C   0  0  0  0  0  3  0  0  0  0  0  0
  189.5040  177.3980  144.2890 C   0  0  0  0  0  0  0  0  0  0  0  0
  191.3710  177.1590  142.8320 C   0  0  0  0  0  3  0  0  0  0  0  0
  181.7830  179.0040  144.0090 C   0  0  0  0  0  1  0  0  0  0  0  0
  183.8010  178.7400  142.5660 C   0  0  0  0  0  3  0  0  0  0  0  0
  188.1350  177.6570  144.4670 C   0  0  0  0  0  0  0  0  0  0  0  0
  191.2420  177.4370  140.4180 C   0  0  0  0  0  3  0  0  0  0  0  0
  189.2550  177.7050  141.8870 C   0  0  0  0  0  0  0  0  0  0  0  0
  189.0520  178.0330  139.3770 C   0  0  0  0  0  2  0  0  0  0  0  0
  189.2540  177.0020  138.2650 C   0  0  2  0  0  3  0  0  0  0  0  0
  189.1600  175.5600  135.8000 C   0  0  0  0  0  0  0  0  0  0  0  0
  189.8490  177.6370  137.0100 C   0  0  0  0  0  2  0  0  0  0  0  0
  187.9560  176.2830  137.9100 C   0  0  0  0  0  2  0  0  0  0  0  0
  188.2400  175.1500  136.9250 C   0  0  0  0  0  2  0  0  0  0  0  0
  189.3320  174.6340  134.6460 C   0  0  0  0  0  1  0  0  0  0  0  0
  189.9440  176.6470  135.8790 C   0  0  0  0  0  3  0  0  0  0  0  0
  1 20  1  0  0  0  0
  2 17  1  0  0  0  0
  2  7  1  0  0  0  0
  4  9  2  0  0  0  0
  4 12  1  0  0  0  0
  5  7  2  0  0  0  0
  5 18  1  0  0  0  0
  6 16  1  0  0  0  0
  6  9  1  0  0  0  0
  7  4  1  0  0  0  0
  8 12  2  0  0  0  0
 10 14  1  0  0  0  0
 11  5  1  0  0  0  0
 13 15  1  0  0  0  0
 14 18  2  0  0  0  0
 14  3  1  0  0  0  0
 15 10  2  0  0  0  0
 17  6  2  0  0  0  0
 18  8  1  0  0  0  0
 19  1  1  0  0  0  0
 19 13  2  0  0  0  0
 20 11  2  0  0  0  0
 20 10  1  0  0  0  0
 21  1  1  0  0  0  0
 22 21  1  1  0  0  0
 23 28  2  0  0  0  0
 23 26  1  0  0  0  0
 24 22  1  0  0  0  0
 25 22  1  0  0  0  0
 26 25  1  0  0  0  0
 27 23  1  0  0  0  0
 28 24  1  0  0  0  0
M  END
>  <MODEL>
8

>  <REMARK>
 VINA RESULT:     -10.1      2.169      4.927
  Name = 
  2 active torsions:
  status: ('A' for Active; 'I' for Inactive)
    1  A    between atoms: N_1  and  C_2
    2  A    between atoms: C_2  and  C_3
                            x       y       z     vdW  Elec       q    Type
                         _______ _______ _______ _____ _____    ______ ____

>  <TORSDO>
F 2

$$$$
=
 OpenBabel11052413303D

 28 32  0  0  1  0  0  0  0  0999 V2000
  184.3540  178.8150  143.1530 N   0  0  0  0  0  0  0  0  0  0  0  0
  188.6760  177.7450  140.6990 C   0  0  0  0  0  2  0  0  0  0  0  0
  187.5260  177.6930  146.6570 F   0  0  0  0  0  0  0  0  0  0  0  0
  190.2550  177.1750  142.4540 C   0  0  0  0  0  0  0  0  0  0  0  0
  187.9820  177.7980  143.0020 C   0  0  0  0  0  0  0  0  0  0  0  0
  190.9400  177.1260  140.1270 C   0  0  0  0  0  0  0  0  0  0  0  0
  188.9480  177.5790  142.0730 C   0  0  0  0  0  0  0  0  0  0  0  0
  189.6180  177.2050  144.8580 C   0  0  0  0  0  3  0  0  0  0  0  0
  191.2340  176.9540  141.4800 C   0  0  0  0  0  3  0  0  0  0  0  0
  185.9660  178.2520  144.9310 C   0  0  0  0  0  0  0  0  0  0  0  0
  186.6890  178.1950  142.6170 C   0  0  0  0  0  3  0  0  0  0  0  0
  190.5880  176.9960  143.7340 C   0  0  0  0  0  3  0  0  0  0  0  0
  183.6530  178.9070  145.4470 C   0  0  0  0  0  3  0  0  0  0  0  0
  187.2480  177.8550  145.3350 C   0  0  0  0  0  0  0  0  0  0  0  0
  185.0090  178.4790  145.8430 C   0  0  0  0  0  3  0  0  0  0  0  0
  191.9910  176.8880  139.1020 C   0  0  0  0  0  1  0  0  0  0  0  0
  189.6620  177.5220  139.7370 C   0  0  0  0  0  3  0  0  0  0  0  0
  188.2540  177.6280  144.3810 C   0  0  0  0  0  0  0  0  0  0  0  0
  183.3570  179.0650  144.1560 C   0  0  0  0  0  3  0  0  0  0  0  0
  185.6810  178.4170  143.5600 C   0  0  0  0  0  0  0  0  0  0  0  0
  184.0020  178.9940  141.7440 C   0  0  0  0  0  2  0  0  0  0  0  0
  182.9560  177.9830  141.2690 C   0  0  2  0  0  3  0  0  0  0  0  0
  181.0450  176.5200  139.7300 C   0  0  0  0  0  0  0  0  0  0  0  0
  183.4230  177.2340  140.0220 C   0  0  0  0  0  2  0  0  0  0  0  0
  181.6080  178.6410  140.9980 C   0  0  0  0  0  2  0  0  0  0  0  0
  180.5570  177.5730  140.6950 C   0  0  0  0  0  2  0  0  0  0  0  0
  180.0580  175.5580  139.1650 C   0  0  0  0  0  1  0  0  0  0  0  0
  182.3510  176.3210  139.4900 C   0  0  0  0  0  3  0  0  0  0  0  0
  1 20  1  0  0  0  0
  1 19  1  0  0  0  0
  2  7  1  0  0  0  0
  4 12  1  0  0  0  0
  5 18  1  0  0  0  0
  6  9  1  0  0  0  0
  7  4  1  0  0  0  0
  7  5  2  0  0  0  0
  9  4  2  0  0  0  0
 10 14  1  0  0  0  0
 10 15  2  0  0  0  0
 11  5  1  0  0  0  0
 11 20  2  0  0  0  0
 12  8  2  0  0  0  0
 13 15  1  0  0  0  0
 14  3  1  0  0  0  0
 16  6  1  0  0  0  0
 17  6  2  0  0  0  0
 17  2  1  0  0  0  0
 18  8  1  0  0  0  0
 18 14  2  0  0  0  0
 19 13  2  0  0  0  0
 20 10  1  0  0  0  0
 21  1  1  0  0  0  0
 22 21  1  6  0  0  0
 23 26  1  0  0  0  0
 24 22  1  0  0  0  0
 25 22  1  0  0  0  0
 26 25  1  0  0  0  0
 27 23  1  0  0  0  0
 28 23  2  0  0  0  0
 28 24  1  0  0  0  0
M  END
>  <MODEL>
9

>  <REMARK>
 VINA RESULT:     -10.0      2.673      5.505
  Name = 
  2 active torsions:
  status: ('A' for Active; 'I' for Inactive)
    1  A    between atoms: N_1  and  C_2
    2  A    between atoms: C_2  and  C_3
                            x       y       z     vdW  Elec       q    Type
                         _______ _______ _______ _____ _____    ______ ____

>  <TORSDO>
F 2

$$$$
