=
 OpenBabel11052414123D

 34 40  0  0  1  0  0  0  0  0999 V2000
  186.8310  177.1340  144.9710 C   0  0  2  0  0  3  0  0  0  0  0  0
  185.1030  178.9440  145.4590 C   0  0  0  0  0  2  0  0  0  0  0  0
  185.8310  178.6040  143.0930 C   0  0  1  0  0  3  0  0  0  0  0  0
  184.4730  178.9450  140.8780 C   0  0  2  0  0  3  0  0  0  0  0  0
  186.7610  178.0680  147.2040 N   0  0  2  0  0  0  0  0  0  0  0  0
  186.4570  179.4900  147.4100 C   0  0  0  0  0  2  0  0  0  0  0  0
  183.5910  179.4130  143.0130 O   0  0  0  0  0  0  0  0  0  0  0  0
  185.5870  177.8930  144.4430 C   0  0  1  0  0  3  0  0  0  0  0  0
  187.5840  177.9590  146.0000 C   0  0  0  0  0  2  0  0  0  0  0  0
  186.7190  177.7530  142.1760 C   0  0  1  0  0  3  0  0  0  0  0  0
  187.7530  176.5640  143.8910 C   0  0  0  0  0  2  0  0  0  0  0  0
  185.3970  178.6060  146.9310 C   0  0  1  0  0  3  0  0  0  0  0  0
  185.8010  178.9180  140.2560 N   0  0  0  0  0  0  0  0  0  0  0  0
  186.8540  178.3870  140.8060 C   0  0  0  0  0  0  0  0  0  0  0  0
  184.5520  178.9990  142.3830 C   0  0  0  0  0  0  0  0  0  0  0  0
  187.9960  177.5410  142.8390 N   0  0  0  0  0  2  0  0  0  0  0  0
  190.1550  177.7870  139.3190 C   0  0  1  0  0  3  0  0  0  0  0  0
  189.2620  177.7810  136.8900 C   0  0  0  0  0  1  0  0  0  0  0  0
  188.0860  178.3060  139.9950 C   0  0  0  0  0  0  0  0  0  0  0  0
  189.4520  178.5660  138.1810 C   0  0  1  0  0  3  0  0  0  0  0  0
  189.1500  177.6810  140.3650 N   0  0  0  0  0  0  0  0  0  0  0  0
  188.1850  178.8660  138.7360 O   0  0  0  0  0  0  0  0  0  0  0  0
  190.6640  176.4010  138.9440 C   0  0  0  0  0  1  0  0  0  0  0  0
  183.6140  177.7800  140.3890 C   0  0  0  0  0  2  0  0  0  0  0  0
  182.3550  178.2520  139.8350 N   0  0  0  0  0  2  0  0  0  0  0  0
  180.1380  177.2570  140.0100 C   0  0  0  0  0  2  0  0  0  0  0  0
  179.2530  177.8740  142.6970 O   0  0  0  0  0  1  0  0  0  0  0  0
  180.0370  178.6680  140.5380 C   0  0  1  0  0  0  0  0  0  0  0  0
  179.0660  178.8470  141.7100 C   0  0  2  0  0  3  0  0  0  0  0  0
  181.3130  177.8660  140.7720 C   0  0  2  0  0  3  0  0  0  0  0  0
  179.0810  181.3720  140.8560 C   0  0  0  0  0  2  0  0  0  0  0  0
  180.2000  181.0490  139.9780 N   0  0  0  0  0  2  0  0  0  0  0  0
  179.9850  179.7150  139.4260 C   0  0  0  0  0  2  0  0  0  0  0  0
  179.2720  180.5030  142.4480 S   0  0  0  0  0  0  0  0  0  0  0  0
  1 11  1  6  0  0  0
  1  9  1  0  0  0  0
  3 15  1  6  0  0  0
  3  8  1  0  0  0  0
  4 24  1  1  0  0  0
  4 15  1  0  0  0  0
  5  9  1  6  0  0  0
  5  6  1  0  0  0  0
  8  1  1  0  0  0  0
  8  2  1  1  0  0  0
 10 14  1  6  0  0  0
 10 16  1  0  0  0  0
 10  3  1  0  0  0  0
 12  2  1  6  0  0  0
 12  5  1  0  0  0  0
 12  6  1  0  0  0  0
 13 14  2  0  0  0  0
 13  4  1  0  0  0  0
 15  7  2  0  0  0  0
 16 11  1  0  0  0  0
 17 23  1  6  0  0  0
 17 21  1  0  0  0  0
 19 21  2  0  0  0  0
 19 14  1  0  0  0  0
 20 18  1  6  0  0  0
 20 22  1  0  0  0  0
 20 17  1  0  0  0  0
 22 19  1  0  0  0  0
 25 24  1  0  0  0  0
 26 28  1  0  0  0  0
 26 30  1  0  0  0  0
 28 33  1  6  0  0  0
 28 30  1  0  0  0  0
 28 29  1  0  0  0  0
 29 34  1  0  0  0  0
 29 27  1  1  0  0  0
 30 25  1  6  0  0  0
 31 34  1  0  0  0  0
 32 31  1  0  0  0  0
 33 32  1  0  0  0  0
M  END
>  <MODEL>
1

>  <REMARK>
 VINA RESULT:      -9.3      0.000      0.000
  Name = 
  4 active torsions:
  status: ('A' for Active; 'I' for Inactive)
    1  A    between atoms: C_5  and  C_18
    2  A    between atoms: C_12  and  C_28
    3  A    between atoms: C_17  and  N_29
    4  A    between atoms: C_18  and  N_29
                            x       y       z     vdW  Elec       q    Type
                         _______ _______ _______ _____ _____    ______ ____

>  <TORSDO>
F 4

$$$$
=
 OpenBabel11052414123D

 34 40  0  0  1  0  0  0  0  0999 V2000
  187.7290  176.6710  145.0890 C   0  0  2  0  0  3  0  0  0  0  0  0
  186.5510  178.4930  146.4250 C   0  0  0  0  0  2  0  0  0  0  0  0
  186.3230  178.5110  143.9360 C   0  0  1  0  0  3  0  0  0  0  0  0
  184.3160  179.3260  142.4630 C   0  0  2  0  0  3  0  0  0  0  0  0
  188.5940  177.2100  147.2840 N   0  0  2  0  0  0  0  0  0  0  0  0
  188.5770  178.5950  147.7740 C   0  0  0  0  0  2  0  0  0  0  0  0
  184.3340  179.4860  144.8140 O   0  0  0  0  0  0  0  0  0  0  0  0
  186.4910  177.5990  145.1730 C   0  0  1  0  0  3  0  0  0  0  0  0
  188.9060  177.2480  145.8560 C   0  0  0  0  0  2  0  0  0  0  0  0
  186.7000  177.7650  142.6500 C   0  0  1  0  0  3  0  0  0  0  0  0
  188.1150  176.2260  143.6750 C   0  0  0  0  0  2  0  0  0  0  0  0
  187.3070  177.8870  147.6190 C   0  0  1  0  0  3  0  0  0  0  0  0
  185.3140  179.3070  141.3880 N   0  0  0  0  0  0  0  0  0  0  0  0
  186.4150  178.6120  141.4260 C   0  0  0  0  0  0  0  0  0  0  0  0
  184.9390  179.1150  143.8200 C   0  0  0  0  0  0  0  0  0  0  0  0
  188.0900  177.3490  142.7470 N   0  0  0  0  0  2  0  0  0  0  0  0
  189.0230  178.6290  138.8430 C   0  0  1  0  0  3  0  0  0  0  0  0
  187.7960  176.9200  137.3350 C   0  0  0  0  0  1  0  0  0  0  0  0
  187.2490  178.5800  140.2070 C   0  0  0  0  0  0  0  0  0  0  0  0
  187.7690  178.2900  138.0000 C   0  0  1  0  0  3  0  0  0  0  0  0
  188.5260  178.7440  140.2060 N   0  0  0  0  0  0  0  0  0  0  0  0
  186.7250  178.3260  138.9540 O   0  0  0  0  0  0  0  0  0  0  0  0
  190.1470  177.6030  138.7850 C   0  0  0  0  0  1  0  0  0  0  0  0
  183.1930  178.3290  142.1850 C   0  0  0  0  0  2  0  0  0  0  0  0
  183.2480  177.8440  140.8150 N   0  0  0  0  0  2  0  0  0  0  0  0
  181.8470  177.2160  138.9230 C   0  0  0  0  0  2  0  0  0  0  0  0
  179.3400  178.5980  139.3600 O   0  0  0  0  0  1  0  0  0  0  0  0
  181.7500  178.7160  139.0730 C   0  0  1  0  0  0  0  0  0  0  0  0
  180.3750  179.3070  138.7430 C   0  0  2  0  0  3  0  0  0  0  0  0
  181.8820  177.8420  140.3150 C   0  0  2  0  0  3  0  0  0  0  0  0
  181.8240  181.5130  138.3640 C   0  0  0  0  0  2  0  0  0  0  0  0
  182.9710  180.8380  138.9600 N   0  0  0  0  0  2  0  0  0  0  0  0
  182.9720  179.4480  138.5180 C   0  0  0  0  0  2  0  0  0  0  0  0
  180.3030  181.0550  139.2610 S   0  0  0  0  0  0  0  0  0  0  0  0
  1 11  1  6  0  0  0
  1  8  1  0  0  0  0
  1  9  1  0  0  0  0
  3 15  1  6  0  0  0
  3  8  1  0  0  0  0
  4 24  1  6  0  0  0
  4 15  1  0  0  0  0
  5  9  1  6  0  0  0
  5 12  1  0  0  0  0
  5  6  1  0  0  0  0
  8  2  1  1  0  0  0
 10 14  1  6  0  0  0
 10 16  1  0  0  0  0
 10  3  1  0  0  0  0
 12  2  1  6  0  0  0
 12  6  1  0  0  0  0
 13 14  2  0  0  0  0
 13  4  1  0  0  0  0
 15  7  2  0  0  0  0
 16 11  1  0  0  0  0
 17 23  1  1  0  0  0
 17 21  1  0  0  0  0
 19 14  1  0  0  0  0
 20 18  1  1  0  0  0
 20 17  1  0  0  0  0
 20 22  1  0  0  0  0
 21 19  2  0  0  0  0
 22 19  1  0  0  0  0
 25 24  1  0  0  0  0
 26 28  1  0  0  0  0
 26 30  1  0  0  0  0
 28 33  1  6  0  0  0
 28 30  1  0  0  0  0
 29 28  1  0  0  0  0
 29 34  1  0  0  0  0
 29 27  1  1  0  0  0
 30 25  1  6  0  0  0
 31 32  1  0  0  0  0
 31 34  1  0  0  0  0
 33 32  1  0  0  0  0
M  END
>  <MODEL>
2

>  <REMARK>
 VINA RESULT:      -9.0      1.724      1.964
  Name = 
  4 active torsions:
  status: ('A' for Active; 'I' for Inactive)
    1  A    between atoms: C_5  and  C_18
    2  A    between atoms: C_12  and  C_28
    3  A    between atoms: C_17  and  N_29
    4  A    between atoms: C_18  and  N_29
                            x       y       z     vdW  Elec       q    Type
                         _______ _______ _______ _____ _____    ______ ____

>  <TORSDO>
F 4

$$$$
=
 OpenBabel11052414123D

 34 40  0  0  1  0  0  0  0  0999 V2000
  187.7880  176.7160  145.3520 C   0  0  2  0  0  3  0  0  0  0  0  0
  186.6030  178.5340  146.6910 C   0  0  0  0  0  2  0  0  0  0  0  0
  186.3480  178.5320  144.2040 C   0  0  1  0  0  3  0  0  0  0  0  0
  184.3150  179.3150  142.7490 C   0  0  2  0  0  3  0  0  0  0  0  0
  188.6710  177.2790  147.5340 N   0  0  2  0  0  0  0  0  0  0  0  0
  188.6430  178.6660  148.0160 C   0  0  0  0  0  2  0  0  0  0  0  0
  184.3570  179.4900  145.0990 O   0  0  0  0  0  0  0  0  0  0  0  0
  186.5400  177.6300  145.4450 C   0  0  1  0  0  3  0  0  0  0  0  0
  188.9660  177.3120  146.1020 C   0  0  0  0  0  2  0  0  0  0  0  0
  186.7180  177.7830  142.9180 C   0  0  1  0  0  3  0  0  0  0  0  0
  188.1630  176.2670  143.9370 C   0  0  0  0  0  2  0  0  0  0  0  0
  187.3800  177.9430  147.8800 C   0  0  1  0  0  3  0  0  0  0  0  0
  185.3000  179.3010  141.6630 N   0  0  0  0  0  0  0  0  0  0  0  0
  186.4090  178.6190  141.6920 C   0  0  0  0  0  0  0  0  0  0  0  0
  184.9550  179.1200  144.1000 C   0  0  0  0  0  0  0  0  0  0  0  0
  188.1140  177.3830  143.0030 N   0  0  0  0  0  2  0  0  0  0  0  0
  188.9920  178.5850  139.0850 C   0  0  1  0  0  3  0  0  0  0  0  0
  187.6450  177.0300  137.5150 C   0  0  0  0  0  1  0  0  0  0  0  0
  187.2300  178.5890  140.4650 C   0  0  0  0  0  0  0  0  0  0  0  0
  187.7130  178.3670  138.2410 C   0  0  1  0  0  3  0  0  0  0  0  0
  188.5150  178.6690  140.4570 N   0  0  0  0  0  0  0  0  0  0  0  0
  186.6810  178.4280  139.2070 O   0  0  0  0  0  0  0  0  0  0  0  0
  190.0470  177.4920  138.9680 C   0  0  0  0  0  1  0  0  0  0  0  0
  183.2000  178.3040  142.4900 C   0  0  0  0  0  2  0  0  0  0  0  0
  182.0130  178.9550  141.9580 N   0  0  0  0  0  2  0  0  0  0  0  0
  180.9550  179.5560  139.8480 C   0  0  0  0  0  2  0  0  0  0  0  0
  181.5740  177.3690  138.0530 O   0  0  0  0  0  1  0  0  0  0  0  0
  180.5840  178.1220  140.1410 C   0  0  1  0  0  0  0  0  0  0  0  0
  180.4750  177.2210  138.9050 C   0  0  2  0  0  3  0  0  0  0  0  0
  181.9610  178.6400  140.5400 C   0  0  2  0  0  3  0  0  0  0  0  0
  178.9380  175.7860  140.5440 C   0  0  0  0  0  2  0  0  0  0  0  0
  179.3780  176.6200  141.6560 N   0  0  0  0  0  2  0  0  0  0  0  0
  179.4790  177.9990  141.1900 C   0  0  0  0  0  2  0  0  0  0  0  0
  180.3360  175.4740  139.4140 S   0  0  0  0  0  0  0  0  0  0  0  0
  1 11  1  6  0  0  0
  1  8  1  0  0  0  0
  1  9  1  0  0  0  0
  3 15  1  6  0  0  0
  3  8  1  0  0  0  0
  4 24  1  6  0  0  0
  4 15  1  0  0  0  0
  5  9  1  6  0  0  0
  5 12  1  0  0  0  0
  5  6  1  0  0  0  0
  8  2  1  1  0  0  0
 10 14  1  6  0  0  0
 10 16  1  0  0  0  0
 10  3  1  0  0  0  0
 12  2  1  6  0  0  0
 12  6  1  0  0  0  0
 13 14  2  0  0  0  0
 13  4  1  0  0  0  0
 15  7  2  0  0  0  0
 16 11  1  0  0  0  0
 17 23  1  1  0  0  0
 17 21  1  0  0  0  0
 19 14  1  0  0  0  0
 20 18  1  1  0  0  0
 20 17  1  0  0  0  0
 20 22  1  0  0  0  0
 21 19  2  0  0  0  0
 22 19  1  0  0  0  0
 25 24  1  0  0  0  0
 26 30  1  0  0  0  0
 28 26  1  6  0  0  0
 28 30  1  0  0  0  0
 28 33  1  0  0  0  0
 29 27  1  6  0  0  0
 29 34  1  0  0  0  0
 29 28  1  0  0  0  0
 30 25  1  1  0  0  0
 31 32  1  0  0  0  0
 33 32  1  0  0  0  0
 34 31  1  0  0  0  0
M  END
>  <MODEL>
3

>  <REMARK>
 VINA RESULT:      -8.8      2.017      2.495
  Name = 
  4 active torsions:
  status: ('A' for Active; 'I' for Inactive)
    1  A    between atoms: C_5  and  C_18
    2  A    between atoms: C_12  and  C_28
    3  A    between atoms: C_17  and  N_29
    4  A    between atoms: C_18  and  N_29
                            x       y       z     vdW  Elec       q    Type
                         _______ _______ _______ _____ _____    ______ ____

>  <TORSDO>
F 4

$$$$
=
 OpenBabel11052414123D

 34 40  0  0  1  0  0  0  0  0999 V2000
  187.0410  177.0870  145.1040 C   0  0  2  0  0  3  0  0  0  0  0  0
  185.3660  178.9160  145.6950 C   0  0  0  0  0  2  0  0  0  0  0  0
  185.9960  178.6130  143.2950 C   0  0  1  0  0  3  0  0  0  0  0  0
  184.5600  179.0230  141.1430 C   0  0  2  0  0  3  0  0  0  0  0  0
  187.0740  177.9750  147.3560 N   0  0  2  0  0  0  0  0  0  0  0  0
  186.8040  179.3970  147.6020 C   0  0  0  0  0  2  0  0  0  0  0  0
  183.7700  179.4620  143.3190 O   0  0  0  0  0  0  0  0  0  0  0  0
  185.7920  177.8780  144.6400 C   0  0  1  0  0  3  0  0  0  0  0  0
  187.8480  177.8770  146.1190 C   0  0  0  0  0  2  0  0  0  0  0  0
  186.8330  177.7650  142.3280 C   0  0  1  0  0  3  0  0  0  0  0  0
  187.9110  176.5240  143.9770 C   0  0  0  0  0  2  0  0  0  0  0  0
  185.7100  178.5420  147.1470 C   0  0  1  0  0  3  0  0  0  0  0  0
  185.8620  178.9860  140.4680 N   0  0  0  0  0  0  0  0  0  0  0  0
  186.9260  178.4250  140.9670 C   0  0  0  0  0  0  0  0  0  0  0  0
  184.6980  179.0440  142.6440 C   0  0  0  0  0  0  0  0  0  0  0  0
  188.1310  177.5180  142.9360 N   0  0  0  0  0  2  0  0  0  0  0  0
  190.1520  177.7920  139.3350 C   0  0  1  0  0  3  0  0  0  0  0  0
  189.1690  177.8910  136.9430 C   0  0  0  0  0  1  0  0  0  0  0  0
  188.1250  178.3400  140.1080 C   0  0  0  0  0  0  0  0  0  0  0  0
  189.4280  178.6270  138.2520 C   0  0  1  0  0  3  0  0  0  0  0  0
  189.1840  177.6770  140.4150 N   0  0  0  0  0  0  0  0  0  0  0  0
  188.1920  178.9400  138.8650 O   0  0  0  0  0  0  0  0  0  0  0  0
  190.6090  176.4070  138.8970 C   0  0  0  0  0  1  0  0  0  0  0  0
  183.6630  177.8830  140.6640 C   0  0  0  0  0  2  0  0  0  0  0  0
  182.5490  178.3880  139.8760 N   0  0  0  0  0  2  0  0  0  0  0  0
  181.7930  178.7490  137.5880 C   0  0  0  0  0  2  0  0  0  0  0  0
  183.4990  177.0640  135.9640 O   0  0  0  0  0  1  0  0  0  0  0  0
  181.9080  177.2560  137.7900 C   0  0  1  0  0  0  0  0  0  0  0  0
  182.3790  176.4760  136.5580 C   0  0  2  0  0  3  0  0  0  0  0  0
  182.8990  178.1880  138.4790 C   0  0  2  0  0  3  0  0  0  0  0  0
  181.1610  174.4690  137.8220 C   0  0  0  0  0  2  0  0  0  0  0  0
  181.0410  175.3130  139.0060 N   0  0  0  0  0  2  0  0  0  0  0  0
  180.7340  176.6730  138.5760 C   0  0  0  0  0  2  0  0  0  0  0  0
  182.7740  174.7550  137.0200 S   0  0  0  0  0  0  0  0  0  0  0  0
  1 11  1  6  0  0  0
  1  9  1  0  0  0  0
  3 15  1  6  0  0  0
  3  8  1  0  0  0  0
  4 24  1  1  0  0  0
  4 15  1  0  0  0  0
  5  9  1  6  0  0  0
  5  6  1  0  0  0  0
  8  1  1  0  0  0  0
  8  2  1  1  0  0  0
 10 14  1  6  0  0  0
 10 16  1  0  0  0  0
 10  3  1  0  0  0  0
 12  2  1  6  0  0  0
 12  5  1  0  0  0  0
 12  6  1  0  0  0  0
 13 14  2  0  0  0  0
 13  4  1  0  0  0  0
 15  7  2  0  0  0  0
 16 11  1  0  0  0  0
 17 23  1  6  0  0  0
 17 21  1  0  0  0  0
 19 21  2  0  0  0  0
 19 14  1  0  0  0  0
 20 18  1  6  0  0  0
 20 22  1  0  0  0  0
 20 17  1  0  0  0  0
 22 19  1  0  0  0  0
 25 24  1  0  0  0  0
 26 30  1  0  0  0  0
 28 26  1  6  0  0  0
 28 30  1  0  0  0  0
 28 33  1  0  0  0  0
 29 27  1  1  0  0  0
 29 34  1  0  0  0  0
 29 28  1  0  0  0  0
 30 25  1  1  0  0  0
 31 32  1  0  0  0  0
 33 32  1  0  0  0  0
 34 31  1  0  0  0  0
M  END
>  <MODEL>
4

>  <REMARK>
 VINA RESULT:      -8.7      2.293      3.075
  Name = 
  4 active torsions:
  status: ('A' for Active; 'I' for Inactive)
    1  A    between atoms: C_5  and  C_18
    2  A    between atoms: C_12  and  C_28
    3  A    between atoms: C_17  and  N_29
    4  A    between atoms: C_18  and  N_29
                            x       y       z     vdW  Elec       q    Type
                         _______ _______ _______ _____ _____    ______ ____

>  <TORSDO>
F 4

$$$$
=
 OpenBabel11052414123D

 34 40  0  0  1  0  0  0  0  0999 V2000
  191.5520  174.9370  136.4220 C   0  0  2  0  0  3  0  0  0  0  0  0
  193.4250  176.3270  137.4520 C   0  0  0  0  0  2  0  0  0  0  0  0
  191.0850  176.7190  138.2380 C   0  0  1  0  0  3  0  0  0  0  0  0
  190.2360  177.4650  140.6010 C   0  0  2  0  0  3  0  0  0  0  0  0
  193.5870  175.2290  135.1430 N   0  0  2  0  0  0  0  0  0  0  0  0
  194.3260  176.4980  135.1950 C   0  0  0  0  0  2  0  0  0  0  0  0
  192.5200  177.2390  140.0680 O   0  0  0  0  0  0  0  0  0  0  0  0
  192.0630  175.6500  137.6990 C   0  0  1  0  0  3  0  0  0  0  0  0
  192.1590  175.5460  135.1700 C   0  0  0  0  0  2  0  0  0  0  0  0
  189.6300  176.2560  138.0870 C   0  0  1  0  0  3  0  0  0  0  0  0
  190.0310  174.7910  136.3220 C   0  0  0  0  0  2  0  0  0  0  0  0
  194.3000  175.6490  136.3840 C   0  0  1  0  0  3  0  0  0  0  0  0
  188.9960  177.7670  139.8770 N   0  0  0  0  0  0  0  0  0  0  0  0
  188.6750  177.2420  138.7300 C   0  0  0  0  0  0  0  0  0  0  0  0
  191.3710  177.1270  139.6680 C   0  0  0  0  0  0  0  0  0  0  0  0
  189.3600  176.0350  136.6750 N   0  0  0  0  0  2  0  0  0  0  0  0
  185.4080  177.3500  137.0610 C   0  0  1  0  0  3  0  0  0  0  0  0
  184.2350  178.5440  139.0350 C   0  0  0  0  0  1  0  0  0  0  0  0
  187.3290  177.5310  138.1950 C   0  0  0  0  0  0  0  0  0  0  0  0
  185.3210  178.6010  137.9690 C   0  0  1  0  0  3  0  0  0  0  0  0
  186.7140  176.7780  137.3510 N   0  0  0  0  0  0  0  0  0  0  0  0
  186.5900  178.6280  138.5960 O   0  0  0  0  0  0  0  0  0  0  0  0
  184.3220  176.3050  137.2820 C   0  0  0  0  0  1  0  0  0  0  0  0
  190.0080  176.3760  141.6470 C   0  0  0  0  0  2  0  0  0  0  0  0
  190.6430  176.7190  142.9100 N   0  0  0  0  0  2  0  0  0  0  0  0
  190.0720  178.8580  143.9270 C   0  0  0  0  0  2  0  0  0  0  0  0
  187.9410  178.2520  145.7930 O   0  0  0  0  0  1  0  0  0  0  0  0
  190.2200  177.8560  145.0480 C   0  0  1  0  0  0  0  0  0  0  0  0
  189.2570  178.0600  146.2230 C   0  0  2  0  0  3  0  0  0  0  0  0
  189.6430  177.4090  143.7090 C   0  0  2  0  0  3  0  0  0  0  0  0
  191.1370  176.6830  147.5200 C   0  0  0  0  0  2  0  0  0  0  0  0
  191.7690  176.3790  146.2420 N   0  0  0  0  0  2  0  0  0  0  0  0
  191.6800  177.5600  145.3890 C   0  0  0  0  0  2  0  0  0  0  0  0
  189.3220  176.6200  147.3430 S   0  0  0  0  0  0  0  0  0  0  0  0
  1  9  1  6  0  0  0
  1  8  1  0  0  0  0
  3 15  1  1  0  0  0
  4 24  1  1  0  0  0
  5  9  1  1  0  0  0
  5  6  1  0  0  0  0
  5 12  1  0  0  0  0
  8  2  1  6  0  0  0
  8  3  1  0  0  0  0
 10 16  1  6  0  0  0
 10  3  1  0  0  0  0
 10 14  1  0  0  0  0
 11  1  1  0  0  0  0
 11 16  1  0  0  0  0
 12  6  1  6  0  0  0
 12  2  1  0  0  0  0
 13  4  1  0  0  0  0
 14 13  2  0  0  0  0
 15  7  2  0  0  0  0
 15  4  1  0  0  0  0
 17 23  1  1  0  0  0
 17 21  1  0  0  0  0
 17 20  1  0  0  0  0
 19 22  1  0  0  0  0
 19 14  1  0  0  0  0
 20 22  1  0  0  0  0
 20 18  1  1  0  0  0
 21 19  2  0  0  0  0
 24 25  1  0  0  0  0
 28 26  1  6  0  0  0
 28 33  1  0  0  0  0
 28 29  1  0  0  0  0
 29 27  1  6  0  0  0
 29 34  1  0  0  0  0
 30 25  1  6  0  0  0
 30 26  1  0  0  0  0
 30 28  1  0  0  0  0
 32 31  1  0  0  0  0
 33 32  1  0  0  0  0
 34 31  1  0  0  0  0
M  END
>  <MODEL>
5

>  <REMARK>
 VINA RESULT:      -8.1      4.443      9.413
  Name = 
  4 active torsions:
  status: ('A' for Active; 'I' for Inactive)
    1  A    between atoms: C_5  and  C_18
    2  A    between atoms: C_12  and  C_28
    3  A    between atoms: C_17  and  N_29
    4  A    between atoms: C_18  and  N_29
                            x       y       z     vdW  Elec       q    Type
                         _______ _______ _______ _____ _____    ______ ____

>  <TORSDO>
F 4

$$$$
=
 OpenBabel11052414123D

 34 40  0  0  1  0  0  0  0  0999 V2000
  186.4530  176.3570  136.7860 C   0  0  2  0  0  3  0  0  0  0  0  0
  188.6180  177.5760  137.3570 C   0  0  0  0  0  2  0  0  0  0  0  0
  186.5380  178.2060  138.5930 C   0  0  1  0  0  3  0  0  0  0  0  0
  186.2720  179.0720  141.0510 C   0  0  2  0  0  3  0  0  0  0  0  0
  188.1950  176.4290  135.1060 N   0  0  2  0  0  0  0  0  0  0  0  0
  189.0410  177.6200  134.9580 C   0  0  0  0  0  2  0  0  0  0  0  0
  188.3640  178.6160  140.0670 O   0  0  0  0  0  0  0  0  0  0  0  0
  187.2820  177.0390  137.9040 C   0  0  1  0  0  3  0  0  0  0  0  0
  186.8390  176.8820  135.4140 C   0  0  0  0  0  2  0  0  0  0  0  0
  185.0480  177.8840  138.7610 C   0  0  1  0  0  3  0  0  0  0  0  0
  184.9380  176.3570  137.0060 C   0  0  0  0  0  2  0  0  0  0  0  0
  189.1870  176.7990  136.1580 C   0  0  1  0  0  3  0  0  0  0  0  0
  184.9410  179.4800  140.5860 N   0  0  0  0  0  0  0  0  0  0  0  0
  184.3420  178.9690  139.5500 C   0  0  0  0  0  0  0  0  0  0  0  0
  187.1520  178.6100  139.9170 C   0  0  0  0  0  0  0  0  0  0  0  0
  184.4710  177.6650  137.4440 N   0  0  0  0  0  2  0  0  0  0  0  0
  180.7370  179.6570  139.5200 C   0  0  1  0  0  3  0  0  0  0  0  0
  181.0010  181.9550  138.3580 C   0  0  0  0  0  1  0  0  0  0  0  0
  182.9460  179.3770  139.2930 C   0  0  0  0  0  0  0  0  0  0  0  0
  181.2030  180.4480  138.2730 C   0  0  1  0  0  3  0  0  0  0  0  0
  181.9560  179.0760  140.0600 N   0  0  0  0  0  0  0  0  0  0  0  0
  182.5880  180.1650  138.2160 O   0  0  0  0  0  0  0  0  0  0  0  0
  180.0350  180.4810  140.5910 C   0  0  0  0  0  1  0  0  0  0  0  0
  186.1690  178.0280  142.1610 C   0  0  0  0  0  2  0  0  0  0  0  0
  187.2260  178.2010  143.1440 N   0  0  0  0  0  2  0  0  0  0  0  0
  188.1220  176.3780  144.4900 C   0  0  0  0  0  2  0  0  0  0  0  0
  190.1810  175.1770  142.8440 O   0  0  0  0  0  1  0  0  0  0  0  0
  189.2990  177.1540  143.9480 C   0  0  1  0  0  0  0  0  0  0  0  0
  190.5240  176.3020  143.5990 C   0  0  2  0  0  3  0  0  0  0  0  0
  188.0440  176.9990  143.0970 C   0  0  2  0  0  3  0  0  0  0  0  0
  191.7760  178.6340  143.9200 C   0  0  0  0  0  2  0  0  0  0  0  0
  190.4810  179.3020  143.9690 N   0  0  0  0  0  2  0  0  0  0  0  0
  189.5520  178.4550  144.7100 C   0  0  0  0  0  2  0  0  0  0  0  0
  191.7400  177.3020  142.6740 S   0  0  0  0  0  0  0  0  0  0  0  0
  1  9  1  6  0  0  0
  1 11  1  0  0  0  0
  1  8  1  0  0  0  0
  3 10  1  0  0  0  0
  3 15  1  1  0  0  0
  4 24  1  1  0  0  0
  5  6  1  6  0  0  0
  5  9  1  0  0  0  0
  5 12  1  0  0  0  0
  8  2  1  6  0  0  0
  8  3  1  0  0  0  0
 10 16  1  6  0  0  0
 10 14  1  0  0  0  0
 11 16  1  0  0  0  0
 12  6  1  6  0  0  0
 12  2  1  0  0  0  0
 13  4  1  0  0  0  0
 14 13  2  0  0  0  0
 15  7  2  0  0  0  0
 15  4  1  0  0  0  0
 17 21  1  0  0  0  0
 17 23  1  1  0  0  0
 19 14  1  0  0  0  0
 19 21  2  0  0  0  0
 20 18  1  1  0  0  0
 20 17  1  0  0  0  0
 22 20  1  0  0  0  0
 22 19  1  0  0  0  0
 24 25  1  0  0  0  0
 28 26  1  1  0  0  0
 28 33  1  0  0  0  0
 29 27  1  6  0  0  0
 29 28  1  0  0  0  0
 30 25  1  1  0  0  0
 30 28  1  0  0  0  0
 30 26  1  0  0  0  0
 31 32  1  0  0  0  0
 32 33  1  0  0  0  0
 34 29  1  0  0  0  0
 34 31  1  0  0  0  0
M  END
>  <MODEL>
6

>  <REMARK>
 VINA RESULT:      -7.5      3.408      8.719
  Name = 
  4 active torsions:
  status: ('A' for Active; 'I' for Inactive)
    1  A    between atoms: C_5  and  C_18
    2  A    between atoms: C_12  and  C_28
    3  A    between atoms: C_17  and  N_29
    4  A    between atoms: C_18  and  N_29
                            x       y       z     vdW  Elec       q    Type
                         _______ _______ _______ _____ _____    ______ ____

>  <TORSDO>
F 4

$$$$
=
 OpenBabel11052414123D

 34 40  0  0  1  0  0  0  0  0999 V2000
  186.9400  179.0030  146.8260 C   0  0  2  0  0  3  0  0  0  0  0  0
  188.4050  177.0280  146.1540 C   0  0  0  0  0  2  0  0  0  0  0  0
  186.6160  177.7710  144.5750 C   0  0  1  0  0  3  0  0  0  0  0  0
  186.5760  177.6790  141.9570 C   0  0  2  0  0  3  0  0  0  0  0  0
  188.0220  177.7400  148.5850 N   0  0  2  0  0  0  0  0  0  0  0  0
  188.1910  176.2860  148.4640 C   0  0  0  0  0  2  0  0  0  0  0  0
  188.3590  176.8350  143.2470 O   0  0  0  0  0  0  0  0  0  0  0  0
  187.6160  178.2510  145.6510 C   0  0  1  0  0  3  0  0  0  0  0  0
  186.7200  178.0840  148.0150 C   0  0  0  0  0  2  0  0  0  0  0  0
  185.5090  178.8090  144.3520 C   0  0  1  0  0  3  0  0  0  0  0  0
  185.6810  179.7910  146.4560 C   0  0  0  0  0  2  0  0  0  0  0  0
  188.9620  177.1590  147.5820 C   0  0  1  0  0  3  0  0  0  0  0  0
  185.1360  177.8890  142.1370 N   0  0  0  0  0  0  0  0  0  0  0  0
  184.6010  178.4000  143.2090 C   0  0  0  0  0  0  0  0  0  0  0  0
  187.2780  177.4030  143.2630 C   0  0  0  0  0  0  0  0  0  0  0  0
  184.7990  179.0030  145.6060 N   0  0  0  0  0  2  0  0  0  0  0  0
  181.0930  179.1710  142.4540 C   0  0  1  0  0  3  0  0  0  0  0  0
  180.1660  177.6650  144.3430 C   0  0  0  0  0  1  0  0  0  0  0  0
  183.1520  178.6850  143.1850 C   0  0  0  0  0  0  0  0  0  0  0  0
  181.0140  178.8740  143.9710 C   0  0  1  0  0  3  0  0  0  0  0  0
  182.4940  178.9740  142.1160 N   0  0  0  0  0  0  0  0  0  0  0  0
  182.3630  178.6220  144.3170 O   0  0  0  0  0  0  0  0  0  0  0  0
  180.2170  178.2940  141.5700 C   0  0  0  0  0  1  0  0  0  0  0  0
  187.2090  178.8440  141.1990 C   0  0  0  0  0  2  0  0  0  0  0  0
  187.1530  178.6280  139.7620 N   0  0  0  0  0  2  0  0  0  0  0  0
  189.2830  178.6280  138.5770 C   0  0  0  0  0  2  0  0  0  0  0  0
  190.0070  175.8340  138.3440 O   0  0  0  0  0  1  0  0  0  0  0  0
  188.3990  177.6030  137.9080 C   0  0  1  0  0  0  0  0  0  0  0  0
  189.1340  176.3620  137.3880 C   0  0  2  0  0  3  0  0  0  0  0  0
  188.3040  177.8090  139.4150 C   0  0  2  0  0  3  0  0  0  0  0  0
  186.9900  176.2080  135.8100 C   0  0  0  0  0  2  0  0  0  0  0  0
  186.3500  177.2440  136.6110 N   0  0  0  0  0  2  0  0  0  0  0  0
  187.3580  178.2320  136.9820 C   0  0  0  0  0  2  0  0  0  0  0  0
  187.9310  175.0820  136.8940 S   0  0  0  0  0  0  0  0  0  0  0  0
  1 11  1  6  0  0  0
  1  9  1  0  0  0  0
  3 15  1  6  0  0  0
  3  8  1  0  0  0  0
  4 24  1  1  0  0  0
  4 13  1  0  0  0  0
  4 15  1  0  0  0  0
  5  9  1  6  0  0  0
  6  5  1  0  0  0  0
  7 15  2  0  0  0  0
  8  2  1  1  0  0  0
  8  1  1  0  0  0  0
 10 14  1  6  0  0  0
 10  3  1  0  0  0  0
 10 16  1  0  0  0  0
 12  2  1  6  0  0  0
 12  6  1  0  0  0  0
 12  5  1  0  0  0  0
 13 14  2  0  0  0  0
 16 11  1  0  0  0  0
 17 23  1  6  0  0  0
 17 20  1  0  0  0  0
 19 14  1  0  0  0  0
 19 22  1  0  0  0  0
 20 22  1  0  0  0  0
 20 18  1  6  0  0  0
 21 17  1  0  0  0  0
 21 19  2  0  0  0  0
 25 24  1  0  0  0  0
 26 30  1  0  0  0  0
 28 33  1  6  0  0  0
 28 26  1  0  0  0  0
 28 30  1  0  0  0  0
 29 28  1  0  0  0  0
 29 27  1  1  0  0  0
 30 25  1  6  0  0  0
 31 32  1  0  0  0  0
 31 34  1  0  0  0  0
 32 33  1  0  0  0  0
 34 29  1  0  0  0  0
M  END
>  <MODEL>
7

>  <REMARK>
 VINA RESULT:      -7.2      2.901      7.033
  Name = 
  4 active torsions:
  status: ('A' for Active; 'I' for Inactive)
    1  A    between atoms: C_5  and  C_18
    2  A    between atoms: C_12  and  C_28
    3  A    between atoms: C_17  and  N_29
    4  A    between atoms: C_18  and  N_29
                            x       y       z     vdW  Elec       q    Type
                         _______ _______ _______ _____ _____    ______ ____

>  <TORSDO>
F 4

$$$$
=
 OpenBabel11052414123D

 34 40  0  0  1  0  0  0  0  0999 V2000
  187.7300  178.7950  137.6510 C   0  0  2  0  0  3  0  0  0  0  0  0
  186.2220  178.0180  139.5530 C   0  0  0  0  0  2  0  0  0  0  0  0
  188.6290  177.3470  139.5970 C   0  0  1  0  0  3  0  0  0  0  0  0
  190.1940  176.9290  141.6560 C   0  0  2  0  0  3  0  0  0  0  0  0
  185.3510  178.6530  137.2300 N   0  0  2  0  0  0  0  0  0  0  0  0
  184.5470  177.5850  137.8380 C   0  0  0  0  0  2  0  0  0  0  0  0
  187.9120  177.4800  141.8660 O   0  0  0  0  0  0  0  0  0  0  0  0
  187.6450  178.4570  139.1610 C   0  0  1  0  0  3  0  0  0  0  0  0
  186.6460  178.0810  136.8630 C   0  0  0  0  0  2  0  0  0  0  0  0
  189.9700  177.4840  138.8650 C   0  0  1  0  0  3  0  0  0  0  0  0
  189.1160  178.6250  137.0220 C   0  0  0  0  0  2  0  0  0  0  0  0
  185.0970  178.6290  138.7000 C   0  0  1  0  0  3  0  0  0  0  0  0
  191.0430  176.2600  140.6650 N   0  0  0  0  0  0  0  0  0  0  0  0
  190.9790  176.4790  139.3830 C   0  0  0  0  0  0  0  0  0  0  0  0
  188.8410  177.2890  141.0960 C   0  0  0  0  0  0  0  0  0  0  0  0
  189.7290  177.3690  137.4350 N   0  0  0  0  0  2  0  0  0  0  0  0
  193.0310  174.3780  137.1810 C   0  0  1  0  0  3  0  0  0  0  0  0
  194.1740  176.3910  136.0240 C   0  0  0  0  0  1  0  0  0  0  0  0
  191.9970  175.8390  138.5260 C   0  0  0  0  0  0  0  0  0  0  0  0
  193.9290  175.6310  137.3210 C   0  0  1  0  0  3  0  0  0  0  0  0
  191.8470  174.6880  137.9690 N   0  0  0  0  0  0  0  0  0  0  0  0
  193.1950  176.4510  138.2110 O   0  0  0  0  0  0  0  0  0  0  0  0
  192.6280  174.0180  135.7570 C   0  0  0  0  0  1  0  0  0  0  0  0
  190.9050  178.1390  142.2600 C   0  0  0  0  0  2  0  0  0  0  0  0
  190.2450  178.5820  143.4780 N   0  0  0  0  0  2  0  0  0  0  0  0
  190.9240  176.4510  144.4430 C   0  0  0  0  0  2  0  0  0  0  0  0
  191.7590  177.0860  147.1430 O   0  0  0  0  0  1  0  0  0  0  0  0
  190.0200  177.1270  145.4460 C   0  0  1  0  0  0  0  0  0  0  0  0
  190.3940  176.8880  146.9130 C   0  0  2  0  0  3  0  0  0  0  0  0
  190.9570  177.9700  144.5880 C   0  0  2  0  0  3  0  0  0  0  0  0
  187.8260  177.5030  147.2830 C   0  0  0  0  0  2  0  0  0  0  0  0
  187.7480  177.9320  145.8920 N   0  0  0  0  0  2  0  0  0  0  0  0
  188.5400  177.0150  145.0790 C   0  0  0  0  0  2  0  0  0  0  0  0
  189.4310  177.9990  147.9950 S   0  0  0  0  0  0  0  0  0  0  0  0
  1  9  1  6  0  0  0
  1  8  1  0  0  0  0
  3 15  1  1  0  0  0
  4 24  1  6  0  0  0
  5  9  1  1  0  0  0
  5  6  1  0  0  0  0
  5 12  1  0  0  0  0
  8  2  1  6  0  0  0
  8  3  1  0  0  0  0
 10 16  1  6  0  0  0
 10 14  1  0  0  0  0
 10  3  1  0  0  0  0
 11 16  1  0  0  0  0
 11  1  1  0  0  0  0
 12  6  1  6  0  0  0
 12  2  1  0  0  0  0
 13  4  1  0  0  0  0
 14 13  2  0  0  0  0
 15  4  1  0  0  0  0
 15  7  2  0  0  0  0
 17 23  1  6  0  0  0
 17 20  1  0  0  0  0
 17 21  1  0  0  0  0
 19 14  1  0  0  0  0
 20 18  1  6  0  0  0
 20 22  1  0  0  0  0
 21 19  2  0  0  0  0
 22 19  1  0  0  0  0
 24 25  1  0  0  0  0
 26 30  1  0  0  0  0
 28 26  1  6  0  0  0
 28 29  1  0  0  0  0
 29 27  1  6  0  0  0
 29 34  1  0  0  0  0
 30 25  1  6  0  0  0
 30 28  1  0  0  0  0
 31 34  1  0  0  0  0
 32 31  1  0  0  0  0
 33 28  1  0  0  0  0
 33 32  1  0  0  0  0
M  END
>  <MODEL>
8

>  <REMARK>
 VINA RESULT:      -7.0      4.257      8.140
  Name = 
  4 active torsions:
  status: ('A' for Active; 'I' for Inactive)
    1  A    between atoms: C_5  and  C_18
    2  A    between atoms: C_12  and  C_28
    3  A    between atoms: C_17  and  N_29
    4  A    between atoms: C_18  and  N_29
                            x       y       z     vdW  Elec       q    Type
                         _______ _______ _______ _____ _____    ______ ____

>  <TORSDO>
F 4

$$$$
=
 OpenBabel11052414123D

 34 40  0  0  1  0  0  0  0  0999 V2000
  193.1950  176.6620  138.1830 C   0  0  2  0  0  3  0  0  0  0  0  0
  191.7240  175.0180  136.9060 C   0  0  0  0  0  2  0  0  0  0  0  0
  190.7120  176.2900  138.8050 C   0  0  1  0  0  3  0  0  0  0  0  0
  188.2440  177.1100  139.1200 C   0  0  2  0  0  3  0  0  0  0  0  0
  194.2780  174.8510  136.9960 N   0  0  2  0  0  0  0  0  0  0  0  0
  193.6490  173.5260  136.9220 C   0  0  0  0  0  2  0  0  0  0  0  0
  188.9510  175.8430  137.2630 O   0  0  0  0  0  0  0  0  0  0  0  0
  191.7640  176.3520  137.6750 C   0  0  1  0  0  3  0  0  0  0  0  0
  194.0160  175.3930  138.3290 C   0  0  0  0  0  2  0  0  0  0  0  0
  190.9870  177.3590  139.8700 C   0  0  1  0  0  3  0  0  0  0  0  0
  193.2660  177.5500  139.4280 C   0  0  0  0  0  2  0  0  0  0  0  0
  193.0350  174.6380  136.1990 C   0  0  1  0  0  3  0  0  0  0  0  0
  188.6510  177.2680  140.5200 N   0  0  0  0  0  0  0  0  0  0  0  0
  189.8860  177.3860  140.9120 C   0  0  0  0  0  0  0  0  0  0  0  0
  189.2860  176.3880  138.3030 C   0  0  0  0  0  0  0  0  0  0  0  0
  192.3060  177.1190  140.4350 N   0  0  0  0  0  2  0  0  0  0  0  0
  189.7980  178.2530  144.4770 C   0  0  1  0  0  3  0  0  0  0  0  0
  191.6800  176.5940  145.1140 C   0  0  0  0  0  1  0  0  0  0  0  0
  190.1290  177.6850  142.3380 C   0  0  0  0  0  0  0  0  0  0  0  0
  191.2750  177.8230  144.3110 C   0  0  1  0  0  3  0  0  0  0  0  0
  189.2140  178.0730  143.1570 N   0  0  0  0  0  0  0  0  0  0  0  0
  191.3680  177.5300  142.9300 O   0  0  0  0  0  0  0  0  0  0  0  0
  189.0000  177.4650  145.5090 C   0  0  0  0  0  1  0  0  0  0  0  0
  187.8620  178.4550  138.5050 C   0  0  0  0  0  2  0  0  0  0  0  0
  186.4180  178.6300  138.4800 N   0  0  0  0  0  2  0  0  0  0  0  0
  185.2670  177.6010  136.5950 C   0  0  0  0  0  2  0  0  0  0  0  0
  184.2680  175.0810  137.6150 O   0  0  0  0  0  1  0  0  0  0  0  0
  184.3460  177.5040  137.7880 C   0  0  1  0  0  0  0  0  0  0  0  0
  183.5000  176.2270  137.8450 C   0  0  2  0  0  3  0  0  0  0  0  0
  185.8520  177.3840  137.9880 C   0  0  2  0  0  3  0  0  0  0  0  0
  181.9540  177.7610  139.3830 C   0  0  0  0  0  2  0  0  0  0  0  0
  183.0130  178.7620  139.4160 N   0  0  0  0  0  2  0  0  0  0  0  0
  183.6350  178.8220  138.0970 C   0  0  0  0  0  2  0  0  0  0  0  0
  182.6800  176.0900  139.4690 S   0  0  0  0  0  0  0  0  0  0  0  0
  1  9  1  1  0  0  0
  1 11  1  0  0  0  0
  3 15  1  6  0  0  0
  3 10  1  0  0  0  0
  4 24  1  6  0  0  0
  4 13  1  0  0  0  0
  5  6  1  1  0  0  0
  5  9  1  0  0  0  0
  7 15  2  0  0  0  0
  8  2  1  1  0  0  0
  8  1  1  0  0  0  0
  8  3  1  0  0  0  0
 10 16  1  1  0  0  0
 10 14  1  0  0  0  0
 11 16  1  0  0  0  0
 12  2  1  1  0  0  0
 12  6  1  0  0  0  0
 12  5  1  0  0  0  0
 13 14  2  0  0  0  0
 14 19  1  0  0  0  0
 15  4  1  0  0  0  0
 17 23  1  1  0  0  0
 19 22  1  0  0  0  0
 19 21  2  0  0  0  0
 20 17  1  0  0  0  0
 20 18  1  1  0  0  0
 21 17  1  0  0  0  0
 22 20  1  0  0  0  0
 25 24  1  0  0  0  0
 26 30  1  0  0  0  0
 28 26  1  6  0  0  0
 28 29  1  0  0  0  0
 28 30  1  0  0  0  0
 28 33  1  0  0  0  0
 29 27  1  1  0  0  0
 29 34  1  0  0  0  0
 30 25  1  1  0  0  0
 31 32  1  0  0  0  0
 31 34  1  0  0  0  0
 33 32  1  0  0  0  0
M  END
>  <MODEL>
9

>  <REMARK>
 VINA RESULT:      -6.9      3.464      7.366
  Name = 
  4 active torsions:
  status: ('A' for Active; 'I' for Inactive)
    1  A    between atoms: C_5  and  C_18
    2  A    between atoms: C_12  and  C_28
    3  A    between atoms: C_17  and  N_29
    4  A    between atoms: C_18  and  N_29
                            x       y       z     vdW  Elec       q    Type
                         _______ _______ _______ _____ _____    ______ ____

>  <TORSDO>
F 4

$$$$
