=
 OpenBabel11052412493D

 25 29  0  0  1  0  0  0  0  0999 V2000
  187.1790  177.8230  144.4020 N   0  0  0  0  0  0  0  0  0  0  0  0
  188.0630  176.8950  143.6870 C   0  0  1  0  0  3  0  0  0  0  0  0
  188.4370  177.7030  146.4430 C   0  0  0  0  0  3  0  0  0  0  0  0
  185.8530  178.1590  144.0140 C   0  0  0  0  0  0  0  0  0  0  0  0
  183.2020  178.8660  143.5410 C   0  0  0  0  0  3  0  0  0  0  0  0
  189.5270  177.0480  145.6950 C   0  0  0  0  0  3  0  0  0  0  0  0
  185.0890  178.7100  145.0330 C   0  0  0  0  0  0  0  0  0  0  0  0
  183.7580  179.0670  144.8120 C   0  0  0  0  0  3  0  0  0  0  0  0
  190.4690  176.1870  143.6350 N   0  0  0  0  0  0  0  0  0  0  0  0
  191.6550  175.6200  144.2580 C   0  0  0  0  0  1  0  0  0  0  0  0
  188.2710  177.3210  142.3000 N   0  0  0  0  0  0  0  0  0  0  0  0
  183.9760  178.3070  142.5100 C   0  0  0  0  0  3  0  0  0  0  0  0
  187.3360  178.0830  145.7960 C   0  0  0  0  0  0  0  0  0  0  0  0
  185.9390  178.8700  146.6050 S   0  0  0  0  0  0  0  0  0  0  0  0
  190.4140  176.3020  142.2370 N   0  0  0  0  0  2  0  0  0  0  0  0
  185.3090  177.9460  142.7440 C   0  0  0  0  0  3  0  0  0  0  0  0
  189.3200  176.9870  141.6040 C   0  0  0  0  0  0  0  0  0  0  0  0
  189.3820  176.7160  144.4030 C   0  0  0  0  0  0  0  0  0  0  0  0
  190.3700  177.0580  137.9820 C   0  0  0  0  0  0  0  0  0  0  0  0
  189.4180  177.3690  140.1830 C   0  0  0  0  0  0  0  0  0  0  0  0
  190.2900  176.6870  139.3260 C   0  0  0  0  0  3  0  0  0  0  0  0
  191.2950  176.3390  137.0680 C   0  0  0  0  0  1  0  0  0  0  0  0
  188.6390  178.4150  139.6680 C   0  0  0  0  0  3  0  0  0  0  0  0
  189.6050  178.0780  137.5100 N   0  0  0  0  0  0  0  0  0  0  0  0
  188.7480  178.7580  138.3190 C   0  0  0  0  0  3  0  0  0  0  0  0
  1 13  1  0  0  0  0
  2 11  1  6  0  0  0
  2  1  1  0  0  0  0
  2 18  1  0  0  0  0
  4  1  1  0  0  0  0
  4  7  1  0  0  0  0
  5  8  1  0  0  0  0
  6  3  1  0  0  0  0
  7 14  1  0  0  0  0
  8  7  2  0  0  0  0
  9 10  1  0  0  0  0
  9 18  1  0  0  0  0
 12 16  1  0  0  0  0
 12  5  2  0  0  0  0
 13  3  2  0  0  0  0
 13 14  1  0  0  0  0
 15  9  1  0  0  0  0
 16  4  2  0  0  0  0
 17 15  1  0  0  0  0
 17 11  2  0  0  0  0
 18  6  2  0  0  0  0
 19 21  1  0  0  0  0
 20 17  1  0  0  0  0
 21 20  2  0  0  0  0
 22 19  1  0  0  0  0
 23 20  1  0  0  0  0
 24 19  2  0  0  0  0
 24 25  1  0  0  0  0
 25 23  2  0  0  0  0
M  END
>  <MODEL>
1

>  <REMARK>
 VINA RESULT:     -10.1      0.000      0.000
  Name = 
  1 active torsions:
  status: ('A' for Active; 'I' for Inactive)
    1  A    between atoms: C_6  and  C_23
                            x       y       z     vdW  Elec       q    Type
                         _______ _______ _______ _____ _____    ______ ____

>  <TORSDO>
F 1

$$$$
=
 OpenBabel11052412493D

 25 29  0  0  1  0  0  0  0  0999 V2000
  187.5340  177.9520  145.6520 N   0  0  0  0  0  0  0  0  0  0  0  0
  188.5870  177.0000  145.2820 C   0  0  1  0  0  3  0  0  0  0  0  0
  188.2910  178.1530  147.9220 C   0  0  0  0  0  3  0  0  0  0  0  0
  186.3240  178.1610  144.9360 C   0  0  0  0  0  0  0  0  0  0  0  0
  183.8330  178.6470  143.7910 C   0  0  0  0  0  3  0  0  0  0  0  0
  189.5430  177.4790  147.5300 C   0  0  0  0  0  3  0  0  0  0  0  0
  185.3300  178.7830  145.6760 C   0  0  0  0  0  0  0  0  0  0  0  0
  184.0750  179.0320  145.1180 C   0  0  0  0  0  3  0  0  0  0  0  0
  190.9600  176.4330  145.8650 N   0  0  0  0  0  0  0  0  0  0  0  0
  191.9880  176.0170  146.8070 C   0  0  0  0  0  1  0  0  0  0  0  0
  189.0950  177.2670  143.9340 N   0  0  0  0  0  0  0  0  0  0  0  0
  184.8400  178.0150  143.0430 C   0  0  0  0  0  3  0  0  0  0  0  0
  187.3580  178.3870  147.0000 C   0  0  0  0  0  0  0  0  0  0  0  0
  185.7890  179.1810  147.3640 S   0  0  0  0  0  0  0  0  0  0  0  0
  191.2250  176.3760  144.4870 N   0  0  0  0  0  2  0  0  0  0  0  0
  186.0940  177.7640  143.6160 C   0  0  0  0  0  3  0  0  0  0  0  0
  190.2870  176.9140  143.5410 C   0  0  0  0  0  0  0  0  0  0  0  0
  189.7100  176.9850  146.2930 C   0  0  0  0  0  0  0  0  0  0  0  0
  190.1450  177.3380  139.7960 C   0  0  0  0  0  0  0  0  0  0  0  0
  190.6980  177.1280  142.1410 C   0  0  0  0  0  0  0  0  0  0  0  0
  189.7420  177.1320  141.1180 C   0  0  0  0  0  3  0  0  0  0  0  0
  189.1350  177.3420  138.7050 C   0  0  0  0  0  1  0  0  0  0  0  0
  192.0450  177.3330  141.8130 C   0  0  0  0  0  3  0  0  0  0  0  0
  191.4590  177.5320  139.5070 N   0  0  0  0  0  0  0  0  0  0  0  0
  192.4090  177.5340  140.4810 C   0  0  0  0  0  3  0  0  0  0  0  0
  1 13  1  0  0  0  0
  2 11  1  6  0  0  0
  2  1  1  0  0  0  0
  2 18  1  0  0  0  0
  4  1  1  0  0  0  0
  4  7  1  0  0  0  0
  5  8  1  0  0  0  0
  6  3  1  0  0  0  0
  7 14  1  0  0  0  0
  8  7  2  0  0  0  0
  9 18  1  0  0  0  0
  9 10  1  0  0  0  0
 12 16  1  0  0  0  0
 12  5  2  0  0  0  0
 13 14  1  0  0  0  0
 13  3  2  0  0  0  0
 15  9  1  0  0  0  0
 16  4  2  0  0  0  0
 17 11  2  0  0  0  0
 17 15  1  0  0  0  0
 18  6  2  0  0  0  0
 19 21  1  0  0  0  0
 20 17  1  0  0  0  0
 21 20  2  0  0  0  0
 22 19  1  0  0  0  0
 23 20  1  0  0  0  0
 24 19  2  0  0  0  0
 24 25  1  0  0  0  0
 25 23  2  0  0  0  0
M  END
>  <MODEL>
2

>  <REMARK>
 VINA RESULT:      -9.7      1.531      2.124
  Name = 
  1 active torsions:
  status: ('A' for Active; 'I' for Inactive)
    1  A    between atoms: C_6  and  C_23
                            x       y       z     vdW  Elec       q    Type
                         _______ _______ _______ _____ _____    ______ ____

>  <TORSDO>
F 1

$$$$
=
 OpenBabel11052412493D

 25 29  0  0  1  0  0  0  0  0999 V2000
  188.3490  177.5010  143.1360 N   0  0  0  0  0  0  0  0  0  0  0  0
  187.3630  178.3890  143.7630 C   0  0  1  0  0  3  0  0  0  0  0  0
  189.2910  176.8040  145.2320 C   0  0  0  0  0  3  0  0  0  0  0  0
  188.7610  177.5580  141.7770 C   0  0  0  0  0  0  0  0  0  0  0  0
  189.8260  177.5580  139.2050 C   0  0  0  0  0  3  0  0  0  0  0  0
  188.1300  177.4030  145.9170 C   0  0  0  0  0  3  0  0  0  0  0  0
  189.9650  176.9170  141.5250 C   0  0  0  0  0  0  0  0  0  0  0  0
  190.5140  176.9110  140.2410 C   0  0  0  0  0  3  0  0  0  0  0  0
  186.0130  178.5840  145.8680 N   0  0  0  0  0  0  0  0  0  0  0  0
  185.8980  178.7080  147.3140 C   0  0  0  0  0  1  0  0  0  0  0  0
  186.0730  178.3240  143.0700 N   0  0  0  0  0  0  0  0  0  0  0  0
  188.6080  178.2080  139.4610 C   0  0  0  0  0  3  0  0  0  0  0  0
  189.3590  176.8450  143.9020 C   0  0  0  0  0  0  0  0  0  0  0  0
  190.7320  176.1670  142.9630 S   0  0  0  0  0  0  0  0  0  0  0  0
  184.9000  178.8670  145.0620 N   0  0  0  0  0  2  0  0  0  0  0  0
  188.0690  178.2140  140.7550 C   0  0  0  0  0  3  0  0  0  0  0  0
  184.9410  178.6160  143.6480 C   0  0  0  0  0  0  0  0  0  0  0  0
  187.2030  178.0970  145.2370 C   0  0  0  0  0  0  0  0  0  0  0  0
  181.3030  178.9650  142.7190 C   0  0  0  0  0  0  0  0  0  0  0  0
  183.6920  178.6230  142.8640 C   0  0  0  0  0  0  0  0  0  0  0  0
  182.4780  178.9600  143.4740 C   0  0  0  0  0  3  0  0  0  0  0  0
  180.0100  179.3210  143.3610 C   0  0  0  0  0  1  0  0  0  0  0  0
  183.7000  178.2980  141.5000 C   0  0  0  0  0  3  0  0  0  0  0  0
  181.3400  178.6430  141.3990 N   0  0  0  0  0  0  0  0  0  0  0  0
  182.5050  178.3130  140.7800 C   0  0  0  0  0  3  0  0  0  0  0  0
  1  2  1  0  0  0  0
  1 13  1  0  0  0  0
  2 11  1  6  0  0  0
  2 18  1  0  0  0  0
  3  6  1  0  0  0  0
  4  1  1  0  0  0  0
  5 12  2  0  0  0  0
  5  8  1  0  0  0  0
  7  4  1  0  0  0  0
  7 14  1  0  0  0  0
  8  7  2  0  0  0  0
  9 10  1  0  0  0  0
 11 17  2  0  0  0  0
 12 16  1  0  0  0  0
 13  3  2  0  0  0  0
 14 13  1  0  0  0  0
 15  9  1  0  0  0  0
 16  4  2  0  0  0  0
 17 15  1  0  0  0  0
 18  9  1  0  0  0  0
 18  6  2  0  0  0  0
 19 22  1  0  0  0  0
 19 21  1  0  0  0  0
 20 21  2  0  0  0  0
 20 17  1  0  0  0  0
 23 20  1  0  0  0  0
 24 19  2  0  0  0  0
 25 24  1  0  0  0  0
 25 23  2  0  0  0  0
M  END
>  <MODEL>
3

>  <REMARK>
 VINA RESULT:      -9.0      2.352      6.412
  Name = 
  1 active torsions:
  status: ('A' for Active; 'I' for Inactive)
    1  A    between atoms: C_6  and  C_23
                            x       y       z     vdW  Elec       q    Type
                         _______ _______ _______ _____ _____    ______ ____

>  <TORSDO>
F 1

$$$$
=
 OpenBabel11052412493D

 25 29  0  0  1  0  0  0  0  0999 V2000
  187.2880  178.0000  143.0930 N   0  0  0  0  0  0  0  0  0  0  0  0
  187.1520  178.6540  141.7860 C   0  0  1  0  0  3  0  0  0  0  0  0
  184.9550  178.2100  143.6200 C   0  0  0  0  0  3  0  0  0  0  0  0
  188.5060  177.8340  143.8080 C   0  0  0  0  0  0  0  0  0  0  0  0
  190.7290  177.5140  145.4520 C   0  0  0  0  0  3  0  0  0  0  0  0
  184.7010  178.5580  142.2100 C   0  0  0  0  0  3  0  0  0  0  0  0
  188.3370  177.5740  145.1590 C   0  0  0  0  0  0  0  0  0  0  0  0
  189.4410  177.4130  145.9980 C   0  0  0  0  0  3  0  0  0  0  0  0
  185.4740  178.9390  139.9440 N   0  0  0  0  0  0  0  0  0  0  0  0
  184.1850  179.3880  139.4380 C   0  0  0  0  0  1  0  0  0  0  0  0
  187.9890  178.0000  140.7760 N   0  0  0  0  0  0  0  0  0  0  0  0
  190.8990  177.7800  144.0840 C   0  0  0  0  0  3  0  0  0  0  0  0
  186.1970  177.9260  144.0100 C   0  0  0  0  0  0  0  0  0  0  0  0
  186.6280  177.5090  145.7030 S   0  0  0  0  0  0  0  0  0  0  0  0
  186.5000  178.6310  139.0370 N   0  0  0  0  0  2  0  0  0  0  0  0
  189.7840  177.9460  143.2520 C   0  0  0  0  0  3  0  0  0  0  0  0
  187.7310  178.0500  139.4990 C   0  0  0  0  0  0  0  0  0  0  0  0
  185.7100  178.7160  141.3390 C   0  0  0  0  0  0  0  0  0  0  0  0
  190.8850  176.6720  137.9570 C   0  0  0  0  0  0  0  0  0  0  0  0
  188.6690  177.4520  138.5310 C   0  0  0  0  0  0  0  0  0  0  0  0
  190.0080  177.2410  138.8830 C   0  0  0  0  0  3  0  0  0  0  0  0
  192.3070  176.4470  138.3240 C   0  0  0  0  0  1  0  0  0  0  0  0
  188.2370  177.0820  137.2500 C   0  0  0  0  0  3  0  0  0  0  0  0
  190.4380  176.3250  136.7200 N   0  0  0  0  0  0  0  0  0  0  0  0
  189.1430  176.5170  136.3520 C   0  0  0  0  0  3  0  0  0  0  0  0
  1  4  1  0  0  0  0
  1 13  1  0  0  0  0
  2 11  1  6  0  0  0
  2  1  1  0  0  0  0
  3 13  2  0  0  0  0
  4  7  1  0  0  0  0
  5  8  1  0  0  0  0
  6  3  1  0  0  0  0
  7 14  1  0  0  0  0
  7  8  2  0  0  0  0
  9 18  1  0  0  0  0
 10  9  1  0  0  0  0
 12  5  2  0  0  0  0
 13 14  1  0  0  0  0
 15 17  1  0  0  0  0
 15  9  1  0  0  0  0
 16  4  2  0  0  0  0
 16 12  1  0  0  0  0
 17 11  2  0  0  0  0
 18  2  1  0  0  0  0
 18  6  2  0  0  0  0
 19 22  1  0  0  0  0
 19 21  1  0  0  0  0
 20 21  2  0  0  0  0
 20 17  1  0  0  0  0
 23 20  1  0  0  0  0
 24 19  2  0  0  0  0
 25 24  1  0  0  0  0
 25 23  2  0  0  0  0
M  END
>  <MODEL>
4

>  <REMARK>
 VINA RESULT:      -9.0      1.862      4.472
  Name = 
  1 active torsions:
  status: ('A' for Active; 'I' for Inactive)
    1  A    between atoms: C_6  and  C_23
                            x       y       z     vdW  Elec       q    Type
                         _______ _______ _______ _____ _____    ______ ____

>  <TORSDO>
F 1

$$$$
=
 OpenBabel11052412493D

 25 29  0  0  1  0  0  0  0  0999 V2000
  188.4530  177.4850  143.1530 N   0  0  0  0  0  0  0  0  0  0  0  0
  187.4800  178.3650  143.8110 C   0  0  1  0  0  3  0  0  0  0  0  0
  189.4290  176.7530  145.2200 C   0  0  0  0  0  3  0  0  0  0  0  0
  188.8420  177.5640  141.7880 C   0  0  0  0  0  0  0  0  0  0  0  0
  189.8630  177.6040  139.1990 C   0  0  0  0  0  3  0  0  0  0  0  0
  188.2820  177.3420  145.9350 C   0  0  0  0  0  3  0  0  0  0  0  0
  190.0400  176.9250  141.5050 C   0  0  0  0  0  0  0  0  0  0  0  0
  190.5670  176.9390  140.2120 C   0  0  0  0  0  3  0  0  0  0  0  0
  186.1670  178.5280  145.9420 N   0  0  0  0  0  0  0  0  0  0  0  0
  186.0770  178.6280  147.3910 C   0  0  0  0  0  1  0  0  0  0  0  0
  186.1780  178.3140  143.1400 N   0  0  0  0  0  0  0  0  0  0  0  0
  188.6500  178.2520  139.4860 C   0  0  0  0  0  3  0  0  0  0  0  0
  189.4750  176.8150  143.8910 C   0  0  0  0  0  0  0  0  0  0  0  0
  190.8300  176.1510  142.9170 S   0  0  0  0  0  0  0  0  0  0  0  0
  185.0410  178.8260  145.1600 N   0  0  0  0  0  2  0  0  0  0  0  0
  188.1340  178.2380  140.7890 C   0  0  0  0  0  3  0  0  0  0  0  0
  185.0570  178.5980  143.7410 C   0  0  0  0  0  0  0  0  0  0  0  0
  187.3450  178.0490  145.2830 C   0  0  0  0  0  0  0  0  0  0  0  0
  182.5750  178.2770  140.9200 C   0  0  0  0  0  0  0  0  0  0  0  0
  183.7940  178.6200  142.9790 C   0  0  0  0  0  0  0  0  0  0  0  0
  183.7780  178.2530  141.6280 C   0  0  0  0  0  3  0  0  0  0  0  0
  182.5510  177.8900  139.4850 C   0  0  0  0  0  1  0  0  0  0  0  0
  182.5940  179.0030  143.5940 C   0  0  0  0  0  3  0  0  0  0  0  0
  181.4260  178.6550  141.5410 N   0  0  0  0  0  0  0  0  0  0  0  0
  181.4120  179.0150  142.8520 C   0  0  0  0  0  3  0  0  0  0  0  0
  1  2  1  0  0  0  0
  1 13  1  0  0  0  0
  2 11  1  6  0  0  0
  2 18  1  0  0  0  0
  3  6  1  0  0  0  0
  4  1  1  0  0  0  0
  5 12  2  0  0  0  0
  5  8  1  0  0  0  0
  7  4  1  0  0  0  0
  7 14  1  0  0  0  0
  8  7  2  0  0  0  0
  9 10  1  0  0  0  0
 11 17  2  0  0  0  0
 12 16  1  0  0  0  0
 13  3  2  0  0  0  0
 14 13  1  0  0  0  0
 15  9  1  0  0  0  0
 16  4  2  0  0  0  0
 17 15  1  0  0  0  0
 18  6  2  0  0  0  0
 18  9  1  0  0  0  0
 19 24  2  0  0  0  0
 19 21  1  0  0  0  0
 20 23  1  0  0  0  0
 20 17  1  0  0  0  0
 21 20  2  0  0  0  0
 22 19  1  0  0  0  0
 24 25  1  0  0  0  0
 25 23  2  0  0  0  0
M  END
>  <MODEL>
5

>  <REMARK>
 VINA RESULT:      -8.9      2.328      6.059
  Name = 
  1 active torsions:
  status: ('A' for Active; 'I' for Inactive)
    1  A    between atoms: C_6  and  C_23
                            x       y       z     vdW  Elec       q    Type
                         _______ _______ _______ _____ _____    ______ ____

>  <TORSDO>
F 1

$$$$
=
 OpenBabel11052412493D

 25 29  0  0  1  0  0  0  0  0999 V2000
  185.5180  178.3700  141.5300 N   0  0  0  0  0  0  0  0  0  0  0  0
  186.9340  178.7100  141.3510 C   0  0  1  0  0  3  0  0  0  0  0  0
  185.0830  178.2490  139.1720 C   0  0  0  0  0  3  0  0  0  0  0  0
  184.7660  178.5770  142.7180 C   0  0  0  0  0  0  0  0  0  0  0  0
  183.0560  179.0090  144.8710 C   0  0  0  0  0  3  0  0  0  0  0  0
  186.5390  178.2530  138.9350 C   0  0  0  0  0  3  0  0  0  0  0  0
  183.3930  178.5680  142.5250 C   0  0  0  0  0  0  0  0  0  0  0  0
  182.5210  178.7850  143.5950 C   0  0  0  0  0  3  0  0  0  0  0  0
  188.8220  178.3060  139.7490 N   0  0  0  0  0  0  0  0  0  0  0  0
  189.4310  178.3990  138.4300 C   0  0  0  0  0  1  0  0  0  0  0  0
  187.7740  178.0310  142.3420 N   0  0  0  0  0  0  0  0  0  0  0  0
  184.4470  179.0200  145.0650 C   0  0  0  0  0  3  0  0  0  0  0  0
  184.6240  178.2820  140.4210 C   0  0  0  0  0  0  0  0  0  0  0  0
  182.8740  178.3010  140.8290 S   0  0  0  0  0  0  0  0  0  0  0  0
  189.6290  178.0150  140.8600 N   0  0  0  0  0  2  0  0  0  0  0  0
  185.3120  178.8070  143.9840 C   0  0  0  0  0  3  0  0  0  0  0  0
  189.0370  177.7750  142.1480 C   0  0  0  0  0  0  0  0  0  0  0  0
  187.4080  178.4150  139.9460 C   0  0  0  0  0  0  0  0  0  0  0  0
  190.3050  176.8580  145.5790 C   0  0  0  0  0  0  0  0  0  0  0  0
  189.8450  177.1770  143.2270 C   0  0  0  0  0  0  0  0  0  0  0  0
  189.5320  177.4330  144.5680 C   0  0  0  0  0  3  0  0  0  0  0  0
  189.9800  177.1280  147.0050 C   0  0  0  0  0  1  0  0  0  0  0  0
  190.9310  176.3420  142.9300 C   0  0  0  0  0  3  0  0  0  0  0  0
  191.3540  176.0540  145.2620 N   0  0  0  0  0  0  0  0  0  0  0  0
  191.6800  175.7870  143.9690 C   0  0  0  0  0  3  0  0  0  0  0  0
  1  4  1  0  0  0  0
  2 18  1  6  0  0  0
  2  1  1  0  0  0  0
  2 11  1  0  0  0  0
  3 13  2  0  0  0  0
  4 16  1  0  0  0  0
  5 12  1  0  0  0  0
  6  3  1  0  0  0  0
  6 18  2  0  0  0  0
  7  4  2  0  0  0  0
  7  8  1  0  0  0  0
  8  5  2  0  0  0  0
  9 18  1  0  0  0  0
  9 15  1  0  0  0  0
 10  9  1  0  0  0  0
 13 14  1  0  0  0  0
 13  1  1  0  0  0  0
 14  7  1  0  0  0  0
 15 17  1  0  0  0  0
 16 12  2  0  0  0  0
 17 11  2  0  0  0  0
 17 20  1  0  0  0  0
 19 22  1  0  0  0  0
 20 21  1  0  0  0  0
 21 19  2  0  0  0  0
 23 20  2  0  0  0  0
 23 25  1  0  0  0  0
 24 19  1  0  0  0  0
 25 24  2  0  0  0  0
M  END
>  <MODEL>
6

>  <REMARK>
 VINA RESULT:      -8.7      2.081      5.232
  Name = 
  1 active torsions:
  status: ('A' for Active; 'I' for Inactive)
    1  A    between atoms: C_6  and  C_23
                            x       y       z     vdW  Elec       q    Type
                         _______ _______ _______ _____ _____    ______ ____

>  <TORSDO>
F 1

$$$$
=
 OpenBabel11052412493D

 25 29  0  0  1  0  0  0  0  0999 V2000
  188.2400  177.7710  139.6690 N   0  0  0  0  0  0  0  0  0  0  0  0
  189.4790  178.1380  140.3640 C   0  0  1  0  0  3  0  0  0  0  0  0
  189.3820  177.0000  137.7030 C   0  0  0  0  0  3  0  0  0  0  0  0
  186.9400  178.2400  140.0010 C   0  0  0  0  0  0  0  0  0  0  0  0
  184.3250  179.1220  140.3680 C   0  0  0  0  0  3  0  0  0  0  0  0
  190.6450  177.0310  138.4630 C   0  0  0  0  0  3  0  0  0  0  0  0
  186.0100  178.0940  138.9830 C   0  0  0  0  0  0  0  0  0  0  0  0
  184.6950  178.5340  139.1510 C   0  0  0  0  0  3  0  0  0  0  0  0
  191.8850  177.4400  140.5060 N   0  0  0  0  0  0  0  0  0  0  0  0
  193.1950  177.2160  139.9130 C   0  0  0  0  0  1  0  0  0  0  0  0
  189.4100  177.8010  141.7880 N   0  0  0  0  0  0  0  0  0  0  0  0
  185.2690  179.2710  141.3980 C   0  0  0  0  0  3  0  0  0  0  0  0
  188.2450  177.3360  138.3100 C   0  0  0  0  0  0  0  0  0  0  0  0
  186.6520  177.3540  137.4810 S   0  0  0  0  0  0  0  0  0  0  0  0
  191.7630  177.5060  141.9030 N   0  0  0  0  0  2  0  0  0  0  0  0
  186.5870  178.8320  141.2170 C   0  0  0  0  0  3  0  0  0  0  0  0
  190.4670  177.5810  142.5190 C   0  0  0  0  0  0  0  0  0  0  0  0
  190.6920  177.5100  139.7160 C   0  0  0  0  0  0  0  0  0  0  0  0
  188.9850  177.3400  145.9790 C   0  0  0  0  0  0  0  0  0  0  0  0
  190.3280  177.3440  143.9680 C   0  0  0  0  0  0  0  0  0  0  0  0
  189.1030  177.5710  144.6060 C   0  0  0  0  0  3  0  0  0  0  0  0
  187.6880  177.5820  146.6630 C   0  0  0  0  0  1  0  0  0  0  0  0
  191.4140  176.8830  144.7250 C   0  0  0  0  0  3  0  0  0  0  0  0
  190.0560  176.8960  146.6890 N   0  0  0  0  0  0  0  0  0  0  0  0
  191.2580  176.6650  146.0950 C   0  0  0  0  0  3  0  0  0  0  0  0
  1  4  1  0  0  0  0
  1  2  1  0  0  0  0
  2 18  1  6  0  0  0
  2 11  1  0  0  0  0
  3 13  2  0  0  0  0
  3  6  1  0  0  0  0
  4 16  1  0  0  0  0
  5 12  1  0  0  0  0
  6 18  2  0  0  0  0
  7  8  1  0  0  0  0
  7  4  2  0  0  0  0
  8  5  2  0  0  0  0
  9 15  1  0  0  0  0
 10  9  1  0  0  0  0
 11 17  2  0  0  0  0
 13  1  1  0  0  0  0
 14 13  1  0  0  0  0
 14  7  1  0  0  0  0
 15 17  1  0  0  0  0
 16 12  2  0  0  0  0
 17 20  1  0  0  0  0
 18  9  1  0  0  0  0
 19 22  1  0  0  0  0
 19 24  1  0  0  0  0
 20 21  1  0  0  0  0
 20 23  2  0  0  0  0
 21 19  2  0  0  0  0
 23 25  1  0  0  0  0
 25 24  2  0  0  0  0
M  END
>  <MODEL>
7

>  <REMARK>
 VINA RESULT:      -8.6      2.711      6.003
  Name = 
  1 active torsions:
  status: ('A' for Active; 'I' for Inactive)
    1  A    between atoms: C_6  and  C_23
                            x       y       z     vdW  Elec       q    Type
                         _______ _______ _______ _____ _____    ______ ____

>  <TORSDO>
F 1

$$$$
=
 OpenBabel11052412493D

 25 29  0  0  1  0  0  0  0  0999 V2000
  184.4770  178.4180  140.9810 N   0  0  0  0  0  0  0  0  0  0  0  0
  185.8590  178.8810  141.1450 C   0  0  1  0  0  3  0  0  0  0  0  0
  184.6920  178.1090  138.6100 C   0  0  0  0  0  3  0  0  0  0  0  0
  183.4230  178.6270  141.9120 C   0  0  0  0  0  0  0  0  0  0  0  0
  181.1750  179.0270  143.5050 C   0  0  0  0  0  3  0  0  0  0  0  0
  186.1540  178.2380  138.7580 C   0  0  0  0  0  3  0  0  0  0  0  0
  182.1540  178.4740  141.3720 C   0  0  0  0  0  0  0  0  0  0  0  0
  181.0170  178.6730  142.1580 C   0  0  0  0  0  3  0  0  0  0  0  0
  188.1290  178.5600  140.1260 N   0  0  0  0  0  0  0  0  0  0  0  0
  189.0560  178.6280  139.0070 C   0  0  0  0  0  1  0  0  0  0  0  0
  186.4550  178.3490  142.3740 N   0  0  0  0  0  0  0  0  0  0  0  0
  182.4600  179.1830  144.0500 C   0  0  0  0  0  3  0  0  0  0  0  0
  183.9170  178.1760  139.6900 C   0  0  0  0  0  0  0  0  0  0  0  0
  182.1260  178.0530  139.6290 S   0  0  0  0  0  0  0  0  0  0  0  0
  188.6320  178.4170  141.4290 N   0  0  0  0  0  2  0  0  0  0  0  0
  183.5950  178.9870  143.2510 C   0  0  0  0  0  3  0  0  0  0  0  0
  187.7400  178.2030  142.5360 C   0  0  0  0  0  0  0  0  0  0  0  0
  186.7090  178.5460  139.9410 C   0  0  0  0  0  0  0  0  0  0  0  0
  190.1350  177.0520  145.2120 C   0  0  0  0  0  0  0  0  0  0  0  0
  188.2760  177.7540  143.8340 C   0  0  0  0  0  0  0  0  0  0  0  0
  189.6400  177.4750  143.9760 C   0  0  0  0  0  3  0  0  0  0  0  0
  191.5820  176.7530  145.3700 C   0  0  0  0  0  1  0  0  0  0  0  0
  187.4320  177.6040  144.9440 C   0  0  0  0  0  3  0  0  0  0  0  0
  189.2930  176.9130  146.2710 N   0  0  0  0  0  0  0  0  0  0  0  0
  187.9630  177.1780  146.1620 C   0  0  0  0  0  3  0  0  0  0  0  0
  1  2  1  0  0  0  0
  1  4  1  0  0  0  0
  2 18  1  6  0  0  0
  2 11  1  0  0  0  0
  3  6  1  0  0  0  0
  3 13  2  0  0  0  0
  4 16  1  0  0  0  0
  5 12  1  0  0  0  0
  6 18  2  0  0  0  0
  7  4  2  0  0  0  0
  7  8  1  0  0  0  0
  8  5  2  0  0  0  0
  9 15  1  0  0  0  0
 10  9  1  0  0  0  0
 11 17  2  0  0  0  0
 13  1  1  0  0  0  0
 14 13  1  0  0  0  0
 14  7  1  0  0  0  0
 15 17  1  0  0  0  0
 16 12  2  0  0  0  0
 17 20  1  0  0  0  0
 18  9  1  0  0  0  0
 19 22  1  0  0  0  0
 19 24  1  0  0  0  0
 20 21  1  0  0  0  0
 20 23  2  0  0  0  0
 21 19  2  0  0  0  0
 23 25  1  0  0  0  0
 25 24  2  0  0  0  0
M  END
>  <MODEL>
8

>  <REMARK>
 VINA RESULT:      -8.6      2.596      5.627
  Name = 
  1 active torsions:
  status: ('A' for Active; 'I' for Inactive)
    1  A    between atoms: C_6  and  C_23
                            x       y       z     vdW  Elec       q    Type
                         _______ _______ _______ _____ _____    ______ ____

>  <TORSDO>
F 1

$$$$
=
 OpenBabel11052412493D

 25 29  0  0  1  0  0  0  0  0999 V2000
  185.3060  178.2900  143.6830 N   0  0  0  0  0  0  0  0  0  0  0  0
  186.4830  177.4130  143.6960 C   0  0  1  0  0  3  0  0  0  0  0  0
  185.4240  178.7510  146.0360 C   0  0  0  0  0  3  0  0  0  0  0  0
  184.3160  178.3220  142.6640 C   0  0  0  0  0  0  0  0  0  0  0  0
  182.1870  178.4720  140.8760 C   0  0  0  0  0  3  0  0  0  0  0  0
  186.7780  178.1680  146.0510 C   0  0  0  0  0  3  0  0  0  0  0  0
  183.1210  178.9080  143.0550 C   0  0  0  0  0  0  0  0  0  0  0  0
  182.0440  178.9890  142.1720 C   0  0  0  0  0  3  0  0  0  0  0  0
  188.6530  177.1250  144.9220 N   0  0  0  0  0  0  0  0  0  0  0  0
  189.4220  176.8880  146.1340 C   0  0  0  0  0  1  0  0  0  0  0  0
  187.3090  177.6130  142.5020 N   0  0  0  0  0  0  0  0  0  0  0  0
  183.3970  177.8780  140.4810 C   0  0  0  0  0  3  0  0  0  0  0  0
  184.7520  178.8170  144.8880 C   0  0  0  0  0  0  0  0  0  0  0  0
  183.0910  179.4880  144.7530 S   0  0  0  0  0  0  0  0  0  0  0  0
  189.2750  176.9780  143.6720 N   0  0  0  0  0  2  0  0  0  0  0  0
  184.4700  177.7960  141.3780 C   0  0  0  0  0  3  0  0  0  0  0  0
  188.5830  177.3430  142.4660 C   0  0  0  0  0  0  0  0  0  0  0  0
  187.2990  177.5900  144.9560 C   0  0  0  0  0  0  0  0  0  0  0  0
  189.4420  178.1600  138.8860 C   0  0  0  0  0  0  0  0  0  0  0  0
  189.3320  177.4770  141.2020 C   0  0  0  0  0  0  0  0  0  0  0  0
  188.7210  178.0380  140.0750 C   0  0  0  0  0  3  0  0  0  0  0  0
  188.7980  178.7540  137.6850 C   0  0  0  0  0  1  0  0  0  0  0  0
  190.6640  177.0490  141.1110 C   0  0  0  0  0  3  0  0  0  0  0  0
  190.7320  177.7350  138.8250 N   0  0  0  0  0  0  0  0  0  0  0  0
  191.3520  177.1860  139.9040 C   0  0  0  0  0  3  0  0  0  0  0  0
  1  2  1  0  0  0  0
  1 13  1  0  0  0  0
  2 11  1  6  0  0  0
  2 18  1  0  0  0  0
  3  6  1  0  0  0  0
  4  7  1  0  0  0  0
  4  1  1  0  0  0  0
  5  8  1  0  0  0  0
  7 14  1  0  0  0  0
  8  7  2  0  0  0  0
  9 18  1  0  0  0  0
  9 10  1  0  0  0  0
 12  5  2  0  0  0  0
 12 16  1  0  0  0  0
 13  3  2  0  0  0  0
 14 13  1  0  0  0  0
 15  9  1  0  0  0  0
 16  4  2  0  0  0  0
 17 11  2  0  0  0  0
 17 15  1  0  0  0  0
 18  6  2  0  0  0  0
 19 21  1  0  0  0  0
 20 17  1  0  0  0  0
 21 20  2  0  0  0  0
 22 19  1  0  0  0  0
 23 20  1  0  0  0  0
 24 19  2  0  0  0  0
 24 25  1  0  0  0  0
 25 23  2  0  0  0  0
M  END
>  <MODEL>
9

>  <REMARK>
 VINA RESULT:      -8.5      1.569      2.494
  Name = 
  1 active torsions:
  status: ('A' for Active; 'I' for Inactive)
    1  A    between atoms: C_6  and  C_23
                            x       y       z     vdW  Elec       q    Type
                         _______ _______ _______ _____ _____    ______ ____

>  <TORSDO>
F 1

$$$$
