=
 OpenBabel11052412373D

 30 35  0  0  1  0  0  0  0  0999 V2000
  191.0190  175.5690  138.3230 C   0  0  2  0  0  3  0  0  0  0  0  0
  194.6500  175.1130  136.9780 C   0  0  0  0  0  2  0  0  0  0  0  0
  190.5030  173.2040  136.6500 C   0  0  0  0  0  2  0  0  0  0  0  0
  189.8680  176.2860  137.5970 C   0  0  2  0  0  0  0  0  0  0  0  0
  190.9780  177.1000  138.1910 C   0  0  1  0  0  3  0  0  0  0  0  0
  186.7530  178.3850  135.6730 C   0  0  0  0  0  2  0  0  0  0  0  0
  189.1320  177.6750  139.3790 C   0  0  1  0  0  3  0  0  0  0  0  0
  188.8550  175.2600  135.5270 N   0  0  0  0  0  0  0  0  0  0  0  0
  189.3810  174.2650  134.6040 C   0  0  0  0  0  2  0  0  0  0  0  0
  190.5390  177.6510  139.4120 O   0  0  0  0  0  0  0  0  0  0  0  0
  188.6380  176.6220  138.4060 C   0  0  1  0  0  3  0  0  0  0  0  0
  194.4550  174.8770  135.4910 C   0  0  0  0  0  2  0  0  0  0  0  0
  187.6020  174.9570  136.2220 C   0  0  0  0  0  2  0  0  0  0  0  0
  186.5130  176.9820  135.3530 N   0  0  0  0  0  2  0  0  0  0  0  0
  193.3650  175.5160  137.6490 C   0  0  0  0  0  3  0  0  0  0  0  0
  191.8440  173.9030  136.4100 C   0  0  1  0  0  3  0  0  0  0  0  0
  194.0320  173.4330  135.2270 C   0  0  0  0  0  2  0  0  0  0  0  0
  192.1310  174.9970  137.4500 C   0  0  0  0  0  0  0  0  0  0  0  0
  190.5700  176.8400  135.3610 O   0  0  0  0  0  0  0  0  0  0  0  0
  189.7540  172.9670  135.3360 C   0  0  0  0  0  2  0  0  0  0  0  0
  189.7900  176.1800  136.1010 C   0  0  0  0  0  0  0  0  0  0  0  0
  186.7990  176.2190  136.5650 C   0  0  2  0  0  3  0  0  0  0  0  0
  187.7190  178.4370  136.8320 C   0  0  0  0  0  2  0  0  0  0  0  0
  193.0030  172.9030  136.2250 C   0  0  2  0  0  3  0  0  0  0  0  0
  192.5560  171.6560  135.7810 O   0  0  0  0  0  1  0  0  0  0  0  0
  187.4380  177.1640  137.5900 C   0  0  2  0  0  3  0  0  0  0  0  0
  188.6250  177.4140  140.6530 O   0  0  0  0  0  0  0  0  0  0  0  0
  189.7520  177.2490  141.4580 C   0  0  0  0  0  2  0  0  0  0  0  0
  189.3800  176.4450  142.6870 C   0  0  0  0  0  2  0  0  0  0  0  0
  190.2290  175.3450  142.7940 O   0  0  0  0  0  1  0  0  0  0  0  0
  1 18  1  6  0  0  0
  2 15  1  0  0  0  0
  4 21  1  6  0  0  0
  4  5  1  0  0  0  0
  4  1  1  0  0  0  0
  4 11  1  0  0  0  0
  5  1  1  0  0  0  0
  5 10  1  1  0  0  0
  6 23  1  0  0  0  0
  7 10  1  0  0  0  0
  7 27  1  1  0  0  0
  8 21  1  0  0  0  0
  8 13  1  0  0  0  0
  9 20  1  0  0  0  0
  9  8  1  0  0  0  0
 11  7  1  0  0  0  0
 12  2  1  0  0  0  0
 13 22  1  0  0  0  0
 14  6  1  0  0  0  0
 14 22  1  0  0  0  0
 16  3  1  0  0  0  0
 16 18  1  0  0  0  0
 17 12  1  0  0  0  0
 17 24  1  0  0  0  0
 18 15  2  0  0  0  0
 19 21  2  0  0  0  0
 20  3  1  0  0  0  0
 22 26  1  0  0  0  0
 23 26  1  0  0  0  0
 24 16  1  0  0  0  0
 25 24  1  0  0  0  0
 26 11  1  0  0  0  0
 27 28  1  0  0  0  0
 28 29  1  0  0  0  0
 29 30  1  0  0  0  0
M  END
>  <MODEL>
1

>  <REMARK>
 VINA RESULT:      -5.9      0.000      0.000
  Name = 
  3 active torsions:
  status: ('A' for Active; 'I' for Inactive)
    1  A    between atoms: O_6  and  C_8
    2  A    between atoms: O_6  and  C_21
    3  A    between atoms: C_9  and  C_21
                            x       y       z     vdW  Elec       q    Type
                         _______ _______ _______ _____ _____    ______ ____

>  <TORSDO>
F 3

$$$$
=
 OpenBabel11052412373D

 30 35  0  0  1  0  0  0  0  0999 V2000
  183.2680  179.1630  140.3560 C   0  0  2  0  0  3  0  0  0  0  0  0
  182.0360  178.8200  144.0390 C   0  0  0  0  0  2  0  0  0  0  0  0
  180.4930  180.0290  139.9030 C   0  0  0  0  0  2  0  0  0  0  0  0
  183.0850  178.1220  139.2400 C   0  0  2  0  0  0  0  0  0  0  0  0
  184.0850  177.8610  140.3270 C   0  0  1  0  0  3  0  0  0  0  0  0
  182.7170  175.2010  136.2150 C   0  0  0  0  0  2  0  0  0  0  0  0
  185.3200  178.0650  138.4340 C   0  0  1  0  0  3  0  0  0  0  0  0
  180.7850  177.6660  138.3110 N   0  0  0  0  0  0  0  0  0  0  0  0
  179.4650  177.9200  138.8730 C   0  0  0  0  0  2  0  0  0  0  0  0
  185.3760  178.1440  139.8390 O   0  0  0  0  0  0  0  0  0  0  0  0
  183.8940  178.3050  137.9780 C   0  0  1  0  0  3  0  0  0  0  0  0
  180.7010  178.1070  143.9060 C   0  0  0  0  0  2  0  0  0  0  0  0
  181.1170  178.2910  137.0290 C   0  0  0  0  0  2  0  0  0  0  0  0
  181.6100  176.1220  135.9850 N   0  0  0  0  0  2  0  0  0  0  0  0
  182.7730  178.8660  142.7290 C   0  0  0  0  0  3  0  0  0  0  0  0
  180.7650  179.3640  141.2560 C   0  0  1  0  0  3  0  0  0  0  0  0
  179.6070  179.0890  143.4900 C   0  0  0  0  0  2  0  0  0  0  0  0
  182.2630  179.1260  141.5020 C   0  0  0  0  0  0  0  0  0  0  0  0
  181.6580  176.3540  140.0370 O   0  0  0  0  0  0  0  0  0  0  0  0
  179.2780  179.4070  139.2100 C   0  0  0  0  0  2  0  0  0  0  0  0
  181.8260  177.3040  139.2240 C   0  0  0  0  0  0  0  0  0  0  0  0
  182.1250  177.4680  136.2170 C   0  0  2  0  0  3  0  0  0  0  0  0
  183.7030  175.8840  137.1320 C   0  0  0  0  0  2  0  0  0  0  0  0
  180.0510  180.0840  142.4180 C   0  0  2  0  0  3  0  0  0  0  0  0
  178.9320  180.7990  141.9860 O   0  0  0  0  0  1  0  0  0  0  0  0
  183.5320  177.3490  136.8150 C   0  0  2  0  0  3  0  0  0  0  0  0
  186.1630  179.0260  137.8730 O   0  0  0  0  0  0  0  0  0  0  0  0
  187.0670  178.2980  137.0990 C   0  0  0  0  0  2  0  0  0  0  0  0
  188.4410  178.3660  137.7340 C   0  0  0  0  0  2  0  0  0  0  0  0
  188.9760  179.6390  137.5440 O   0  0  0  0  0  1  0  0  0  0  0  0
  1 18  1  1  0  0  0
  3 16  1  0  0  0  0
  4 21  1  6  0  0  0
  4  5  1  0  0  0  0
  4  1  1  0  0  0  0
  5 10  1  6  0  0  0
  5  1  1  0  0  0  0
  6 23  1  0  0  0  0
  7 27  1  6  0  0  0
  7 10  1  0  0  0  0
  8  9  1  0  0  0  0
  8 21  1  0  0  0  0
  9 20  1  0  0  0  0
 11  7  1  0  0  0  0
 11  4  1  0  0  0  0
 12  2  1  0  0  0  0
 13  8  1  0  0  0  0
 14  6  1  0  0  0  0
 14 22  1  0  0  0  0
 15  2  1  0  0  0  0
 16 18  1  0  0  0  0
 16 24  1  0  0  0  0
 17 12  1  0  0  0  0
 18 15  2  0  0  0  0
 20  3  1  0  0  0  0
 21 19  2  0  0  0  0
 22 26  1  0  0  0  0
 22 13  1  0  0  0  0
 24 17  1  0  0  0  0
 25 24  1  0  0  0  0
 26 23  1  0  0  0  0
 26 11  1  0  0  0  0
 28 29  1  0  0  0  0
 28 27  1  0  0  0  0
 30 29  1  0  0  0  0
M  END
>  <MODEL>
2

>  <REMARK>
 VINA RESULT:      -5.5      6.219     10.115
  Name = 
  3 active torsions:
  status: ('A' for Active; 'I' for Inactive)
    1  A    between atoms: O_6  and  C_8
    2  A    between atoms: O_6  and  C_21
    3  A    between atoms: C_9  and  C_21
                            x       y       z     vdW  Elec       q    Type
                         _______ _______ _______ _____ _____    ______ ____

>  <TORSDO>
F 3

$$$$
=
 OpenBabel11052412373D

 30 35  0  0  1  0  0  0  0  0999 V2000
  182.4180  175.6580  139.1980 C   0  0  2  0  0  3  0  0  0  0  0  0
  179.0760  177.3150  140.3300 C   0  0  0  0  0  2  0  0  0  0  0  0
  183.6000  177.8150  140.8120 C   0  0  0  0  0  2  0  0  0  0  0  0
  183.2990  176.1080  138.0210 C   0  0  2  0  0  0  0  0  0  0  0  0
  182.0020  175.4100  137.7390 C   0  0  1  0  0  3  0  0  0  0  0  0
  185.6380  177.2490  134.6980 C   0  0  0  0  0  2  0  0  0  0  0  0
  183.6040  173.9970  136.9740 C   0  0  1  0  0  3  0  0  0  0  0  0
  184.5550  178.2910  138.1550 N   0  0  0  0  0  0  0  0  0  0  0  0
  184.3410  179.4620  138.9940 C   0  0  0  0  0  2  0  0  0  0  0  0
  182.2670  174.0650  137.4110 O   0  0  0  0  0  0  0  0  0  0  0  0
  184.3810  175.1600  137.5580 C   0  0  1  0  0  3  0  0  0  0  0  0
  179.3210  178.7990  140.1170 C   0  0  0  0  0  2  0  0  0  0  0  0
  185.8470  177.6070  138.2480 C   0  0  0  0  0  2  0  0  0  0  0  0
  186.2800  177.8830  135.8440 N   0  0  0  0  0  2  0  0  0  0  0  0
  180.1890  176.4820  139.7550 C   0  0  0  0  0  3  0  0  0  0  0  0
  182.1100  177.9690  140.4930 C   0  0  1  0  0  3  0  0  0  0  0  0
  180.1510  179.3760  141.2620 C   0  0  0  0  0  2  0  0  0  0  0  0
  181.5200  176.7160  139.8280 C   0  0  0  0  0  0  0  0  0  0  0  0
  182.4480  178.1850  137.1490 O   0  0  0  0  0  0  0  0  0  0  0  0
  184.3750  179.0940  140.4840 C   0  0  0  0  0  2  0  0  0  0  0  0
  183.3940  177.5760  137.7190 C   0  0  0  0  0  0  0  0  0  0  0  0
  186.2420  176.9150  136.9370 C   0  0  2  0  0  3  0  0  0  0  0  0
  184.7080  176.1810  135.2200 C   0  0  0  0  0  2  0  0  0  0  0  0
  181.2990  178.4690  141.7060 C   0  0  2  0  0  3  0  0  0  0  0  0
  182.0920  179.1710  142.6160 O   0  0  0  0  0  1  0  0  0  0  0  0
  185.3600  175.7370  136.5070 C   0  0  2  0  0  3  0  0  0  0  0  0
  184.1750  172.7920  137.3900 O   0  0  0  0  0  0  0  0  0  0  0  0
  184.1790  171.9880  136.2500 C   0  0  0  0  0  2  0  0  0  0  0  0
  183.3630  170.7390  136.5130 C   0  0  0  0  0  2  0  0  0  0  0  0
  182.0500  170.9470  136.0950 O   0  0  0  0  0  1  0  0  0  0  0  0
  1 18  1  6  0  0  0
  4 21  1  6  0  0  0
  4  1  1  0  0  0  0
  5 10  1  1  0  0  0
  5  4  1  0  0  0  0
  5  1  1  0  0  0  0
  6 23  1  0  0  0  0
  6 14  1  0  0  0  0
  7 27  1  1  0  0  0
  7 10  1  0  0  0  0
  7 11  1  0  0  0  0
  8 13  1  0  0  0  0
  8  9  1  0  0  0  0
  9 20  1  0  0  0  0
 11  4  1  0  0  0  0
 12  2  1  0  0  0  0
 12 17  1  0  0  0  0
 14 22  1  0  0  0  0
 15 18  2  0  0  0  0
 15  2  1  0  0  0  0
 16  3  1  0  0  0  0
 16 24  1  0  0  0  0
 17 24  1  0  0  0  0
 18 16  1  0  0  0  0
 19 21  2  0  0  0  0
 20  3  1  0  0  0  0
 21  8  1  0  0  0  0
 22 13  1  0  0  0  0
 23 26  1  0  0  0  0
 24 25  1  0  0  0  0
 26 22  1  0  0  0  0
 26 11  1  0  0  0  0
 28 29  1  0  0  0  0
 28 27  1  0  0  0  0
 30 29  1  0  0  0  0
M  END
>  <MODEL>
3

>  <REMARK>
 VINA RESULT:      -5.3      5.817      9.673
  Name = 
  3 active torsions:
  status: ('A' for Active; 'I' for Inactive)
    1  A    between atoms: O_6  and  C_8
    2  A    between atoms: O_6  and  C_21
    3  A    between atoms: C_9  and  C_21
                            x       y       z     vdW  Elec       q    Type
                         _______ _______ _______ _____ _____    ______ ____

>  <TORSDO>
F 3

$$$$
=
 OpenBabel11052412373D

 30 35  0  0  1  0  0  0  0  0999 V2000
  184.9870  177.4520  139.1570 C   0  0  2  0  0  3  0  0  0  0  0  0
  186.8840  177.7720  135.7660 C   0  0  0  0  0  2  0  0  0  0  0  0
  183.8870  175.0380  137.8850 C   0  0  0  0  0  2  0  0  0  0  0  0
  183.5480  177.9150  139.4370 C   0  0  2  0  0  0  0  0  0  0  0  0
  184.6320  178.9410  139.2960 C   0  0  1  0  0  3  0  0  0  0  0  0
  179.6520  179.3220  140.2460 C   0  0  0  0  0  2  0  0  0  0  0  0
  183.9410  179.1120  141.4510 C   0  0  1  0  0  3  0  0  0  0  0  0
  181.6100  176.7080  138.3650 N   0  0  0  0  0  0  0  0  0  0  0  0
  181.5560  175.8480  137.1900 C   0  0  0  0  0  2  0  0  0  0  0  0
  185.0130  179.3830  140.5790 O   0  0  0  0  0  0  0  0  0  0  0  0
  183.1060  177.9830  140.8790 C   0  0  1  0  0  3  0  0  0  0  0  0
  185.8090  177.5060  134.7270 C   0  0  0  0  0  2  0  0  0  0  0  0
  181.1770  176.1460  139.6470 C   0  0  0  0  0  2  0  0  0  0  0  0
  179.4860  177.9020  139.9590 N   0  0  0  0  0  2  0  0  0  0  0  0
  186.3020  177.8940  137.1480 C   0  0  0  0  0  3  0  0  0  0  0  0
  184.6180  176.0040  136.9480 C   0  0  1  0  0  3  0  0  0  0  0  0
  185.5490  176.0070  134.5940 C   0  0  0  0  0  2  0  0  0  0  0  0
  185.3360  177.1290  137.7090 C   0  0  0  0  0  0  0  0  0  0  0  0
  182.5290  178.6120  137.3690 O   0  0  0  0  0  0  0  0  0  0  0  0
  182.5130  174.6540  137.3290 C   0  0  0  0  0  2  0  0  0  0  0  0
  182.5330  177.8010  138.3350 C   0  0  0  0  0  0  0  0  0  0  0  0
  180.6050  177.2100  140.5920 C   0  0  2  0  0  3  0  0  0  0  0  0
  181.1150  179.5710  140.5190 C   0  0  0  0  0  2  0  0  0  0  0  0
  185.5160  175.2690  135.9330 C   0  0  2  0  0  3  0  0  0  0  0  0
  185.0900  173.9580  135.7050 O   0  0  0  0  0  1  0  0  0  0  0  0
  181.5990  178.2640  141.0970 C   0  0  2  0  0  3  0  0  0  0  0  0
  184.4340  178.7450  142.7050 O   0  0  0  0  0  0  0  0  0  0  0  0
  183.8660  179.6610  143.5920 C   0  0  0  0  0  2  0  0  0  0  0  0
  183.1680  178.9130  144.7090 C   0  0  0  0  0  2  0  0  0  0  0  0
  183.9300  179.0020  145.8720 O   0  0  0  0  0  1  0  0  0  0  0  0
  1 18  1  6  0  0  0
  1  5  1  0  0  0  0
  1  4  1  0  0  0  0
  2 15  1  0  0  0  0
  4 21  1  6  0  0  0
  4 11  1  0  0  0  0
  5  4  1  0  0  0  0
  5 10  1  1  0  0  0
  6 23  1  0  0  0  0
  7 27  1  1  0  0  0
  8 13  1  0  0  0  0
  9 20  1  0  0  0  0
  9  8  1  0  0  0  0
 10  7  1  0  0  0  0
 11 26  1  0  0  0  0
 11  7  1  0  0  0  0
 12  2  1  0  0  0  0
 13 22  1  0  0  0  0
 14  6  1  0  0  0  0
 14 22  1  0  0  0  0
 15 18  2  0  0  0  0
 16 18  1  0  0  0  0
 16  3  1  0  0  0  0
 17 12  1  0  0  0  0
 17 24  1  0  0  0  0
 19 21  2  0  0  0  0
 20  3  1  0  0  0  0
 21  8  1  0  0  0  0
 22 26  1  0  0  0  0
 23 26  1  0  0  0  0
 24 16  1  0  0  0  0
 25 24  1  0  0  0  0
 27 28  1  0  0  0  0
 28 29  1  0  0  0  0
 29 30  1  0  0  0  0
M  END
>  <MODEL>
4

>  <REMARK>
 VINA RESULT:      -5.3      5.568      7.455
  Name = 
  3 active torsions:
  status: ('A' for Active; 'I' for Inactive)
    1  A    between atoms: O_6  and  C_8
    2  A    between atoms: O_6  and  C_21
    3  A    between atoms: C_9  and  C_21
                            x       y       z     vdW  Elec       q    Type
                         _______ _______ _______ _____ _____    ______ ____

>  <TORSDO>
F 3

$$$$
=
 OpenBabel11052412373D

 30 35  0  0  1  0  0  0  0  0999 V2000
  184.0750  178.9560  138.5610 C   0  0  2  0  0  3  0  0  0  0  0  0
  181.6650  179.0020  141.6260 C   0  0  0  0  0  2  0  0  0  0  0  0
  181.5550  178.7390  137.0580 C   0  0  0  0  0  2  0  0  0  0  0  0
  184.5780  177.7040  137.8240 C   0  0  2  0  0  0  0  0  0  0  0  0
  185.1260  178.0220  139.1830 C   0  0  1  0  0  3  0  0  0  0  0  0
  186.0800  174.2630  135.8970 C   0  0  0  0  0  2  0  0  0  0  0  0
  186.8960  178.2230  137.7780 C   0  0  1  0  0  3  0  0  0  0  0  0
  182.9760  176.3280  136.4450 N   0  0  0  0  0  0  0  0  0  0  0  0
  181.5220  176.2420  136.4810 C   0  0  0  0  0  2  0  0  0  0  0  0
  186.3990  178.6090  139.0380 O   0  0  0  0  0  0  0  0  0  0  0  0
  185.7340  177.8770  136.8680 C   0  0  1  0  0  3  0  0  0  0  0  0
  180.6890  177.8770  141.3320 C   0  0  0  0  0  2  0  0  0  0  0  0
  183.6080  176.7450  135.1910 C   0  0  0  0  0  2  0  0  0  0  0  0
  184.9570  174.6940  135.0730 N   0  0  0  0  0  2  0  0  0  0  0  0
  182.8080  179.0140  140.6480 C   0  0  0  0  0  3  0  0  0  0  0  0
  181.4470  178.5000  138.5660 C   0  0  1  0  0  3  0  0  0  0  0  0
  179.6330  178.3300  140.3250 C   0  0  0  0  0  2  0  0  0  0  0  0
  182.7520  178.8280  139.3080 C   0  0  0  0  0  0  0  0  0  0  0  0
  183.4190  175.7710  138.6710 O   0  0  0  0  0  0  0  0  0  0  0  0
  180.8760  177.6180  136.2650 C   0  0  0  0  0  2  0  0  0  0  0  0
  183.6500  176.5310  137.6910 C   0  0  0  0  0  0  0  0  0  0  0  0
  185.0120  176.1520  135.0150 C   0  0  2  0  0  3  0  0  0  0  0  0
  186.4560  175.4090  136.8050 C   0  0  0  0  0  2  0  0  0  0  0  0
  180.1990  179.1690  139.1780 C   0  0  2  0  0  3  0  0  0  0  0  0
  179.1900  179.3650  138.2330 O   0  0  0  0  0  1  0  0  0  0  0  0
  186.0750  176.6340  136.0100 C   0  0  2  0  0  3  0  0  0  0  0  0
  187.6350  179.2700  137.2230 O   0  0  0  0  0  0  0  0  0  0  0  0
  188.9560  179.0040  137.5850 C   0  0  0  0  0  2  0  0  0  0  0  0
  189.4490  177.7860  136.8310 C   0  0  0  0  0  2  0  0  0  0  0  0
  190.4130  177.1290  137.5930 O   0  0  0  0  0  1  0  0  0  0  0  0
  1  5  1  0  0  0  0
  1 18  1  1  0  0  0
  3 16  1  0  0  0  0
  4 21  1  6  0  0  0
  4  1  1  0  0  0  0
  4  5  1  0  0  0  0
  5 10  1  6  0  0  0
  6 23  1  0  0  0  0
  7 27  1  6  0  0  0
  7 10  1  0  0  0  0
  8  9  1  0  0  0  0
  8 21  1  0  0  0  0
 11  7  1  0  0  0  0
 11  4  1  0  0  0  0
 12  2  1  0  0  0  0
 13  8  1  0  0  0  0
 14  6  1  0  0  0  0
 15  2  1  0  0  0  0
 16 24  1  0  0  0  0
 16 18  1  0  0  0  0
 17 12  1  0  0  0  0
 18 15  2  0  0  0  0
 20  9  1  0  0  0  0
 20  3  1  0  0  0  0
 21 19  2  0  0  0  0
 22 14  1  0  0  0  0
 22 13  1  0  0  0  0
 22 26  1  0  0  0  0
 24 17  1  0  0  0  0
 25 24  1  0  0  0  0
 26 23  1  0  0  0  0
 26 11  1  0  0  0  0
 27 28  1  0  0  0  0
 29 28  1  0  0  0  0
 29 30  1  0  0  0  0
M  END
>  <MODEL>
5

>  <REMARK>
 VINA RESULT:      -5.1      4.790      8.713
  Name = 
  3 active torsions:
  status: ('A' for Active; 'I' for Inactive)
    1  A    between atoms: O_6  and  C_8
    2  A    between atoms: O_6  and  C_21
    3  A    between atoms: C_9  and  C_21
                            x       y       z     vdW  Elec       q    Type
                         _______ _______ _______ _____ _____    ______ ____

>  <TORSDO>
F 3

$$$$
=
 OpenBabel11052412373D

 30 35  0  0  1  0  0  0  0  0999 V2000
  193.2550  175.0260  138.0190 C   0  0  2  0  0  3  0  0  0  0  0  0
  196.7000  174.8990  136.1980 C   0  0  0  0  0  2  0  0  0  0  0  0
  192.7810  172.5530  136.4970 C   0  0  0  0  0  2  0  0  0  0  0  0
  191.9450  175.5870  137.4410 C   0  0  2  0  0  0  0  0  0  0  0  0
  193.0280  176.5380  137.8540 C   0  0  1  0  0  3  0  0  0  0  0  0
  188.3870  177.2650  135.9110 C   0  0  0  0  0  2  0  0  0  0  0  0
  191.3070  176.9630  139.2700 C   0  0  1  0  0  3  0  0  0  0  0  0
  190.7810  174.3760  135.5590 N   0  0  0  0  0  0  0  0  0  0  0  0
  191.2850  173.4040  134.5980 C   0  0  0  0  0  2  0  0  0  0  0  0
  192.7000  177.0890  139.1090 O   0  0  0  0  0  0  0  0  0  0  0  0
  190.8050  175.8250  138.4020 C   0  0  1  0  0  3  0  0  0  0  0  0
  196.3330  174.5830  134.7580 C   0  0  0  0  0  2  0  0  0  0  0  0
  189.6740  173.9710  136.4290 C   0  0  0  0  0  2  0  0  0  0  0  0
  188.2630  175.8330  135.6650 N   0  0  0  0  0  2  0  0  0  0  0  0
  195.4800  175.1920  137.0280 C   0  0  0  0  0  3  0  0  0  0  0  0
  193.9930  173.3790  136.0550 C   0  0  1  0  0  3  0  0  0  0  0  0
  196.0400  173.0930  134.5940 C   0  0  0  0  0  2  0  0  0  0  0  0
  194.2950  174.5390  137.0160 C   0  0  0  0  0  0  0  0  0  0  0  0
  192.2740  176.1190  135.1150 O   0  0  0  0  0  0  0  0  0  0  0  0
  191.8930  172.1840  135.3060 C   0  0  0  0  0  2  0  0  0  0  0  0
  191.6780  175.4120  135.9730 C   0  0  0  0  0  0  0  0  0  0  0  0
  188.7910  175.1550  136.8450 C   0  0  2  0  0  3  0  0  0  0  0  0
  189.4890  177.4670  136.9230 C   0  0  0  0  0  2  0  0  0  0  0  0
  195.2190  172.4990  135.7390 C   0  0  2  0  0  3  0  0  0  0  0  0
  194.8560  171.1940  135.3930 O   0  0  0  0  0  1  0  0  0  0  0  0
  189.4540  176.2030  137.7470 C   0  0  2  0  0  3  0  0  0  0  0  0
  191.0080  176.7030  140.6080 O   0  0  0  0  0  0  0  0  0  0  0  0
  191.9030  177.4920  141.3320 C   0  0  0  0  0  2  0  0  0  0  0  0
  191.2740  177.8820  142.6540 C   0  0  0  0  0  2  0  0  0  0  0  0
  189.8870  177.8870  142.5230 O   0  0  0  0  0  1  0  0  0  0  0  0
  1 18  1  6  0  0  0
  2 15  1  0  0  0  0
  4 21  1  6  0  0  0
  4  5  1  0  0  0  0
  4  1  1  0  0  0  0
  4 11  1  0  0  0  0
  5  1  1  0  0  0  0
  5 10  1  1  0  0  0
  6 23  1  0  0  0  0
  7 27  1  1  0  0  0
  8 21  1  0  0  0  0
  8 13  1  0  0  0  0
  9 20  1  0  0  0  0
  9  8  1  0  0  0  0
 10  7  1  0  0  0  0
 11  7  1  0  0  0  0
 12  2  1  0  0  0  0
 13 22  1  0  0  0  0
 14  6  1  0  0  0  0
 14 22  1  0  0  0  0
 16  3  1  0  0  0  0
 16 18  1  0  0  0  0
 17 12  1  0  0  0  0
 17 24  1  0  0  0  0
 18 15  2  0  0  0  0
 19 21  2  0  0  0  0
 20  3  1  0  0  0  0
 22 26  1  0  0  0  0
 23 26  1  0  0  0  0
 24 16  1  0  0  0  0
 25 24  1  0  0  0  0
 26 11  1  0  0  0  0
 27 28  1  0  0  0  0
 28 29  1  0  0  0  0
 30 29  1  0  0  0  0
M  END
>  <MODEL>
6

>  <REMARK>
 VINA RESULT:      -5.0      1.626      2.226
  Name = 
  3 active torsions:
  status: ('A' for Active; 'I' for Inactive)
    1  A    between atoms: O_6  and  C_8
    2  A    between atoms: O_6  and  C_21
    3  A    between atoms: C_9  and  C_21
                            x       y       z     vdW  Elec       q    Type
                         _______ _______ _______ _____ _____    ______ ____

>  <TORSDO>
F 3

$$$$
=
 OpenBabel11052412373D

 30 35  0  0  1  0  0  0  0  0999 V2000
  183.1910  176.6240  138.4670 C   0  0  2  0  0  3  0  0  0  0  0  0
  183.2320  173.9330  135.6470 C   0  0  0  0  0  2  0  0  0  0  0  0
  180.7020  175.2500  139.2260 C   0  0  0  0  0  2  0  0  0  0  0  0
  182.4080  177.9480  138.4450 C   0  0  2  0  0  0  0  0  0  0  0  0
  183.6280  177.8050  137.5850 C   0  0  1  0  0  3  0  0  0  0  0  0
  180.3820  181.6480  138.3170 C   0  0  0  0  0  2  0  0  0  0  0  0
  184.1620  179.4120  139.0950 C   0  0  1  0  0  3  0  0  0  0  0  0
  179.8900  177.9210  138.5850 N   0  0  0  0  0  0  0  0  0  0  0  0
  178.9320  176.8590  138.3050 C   0  0  0  0  0  2  0  0  0  0  0  0
  184.7070  178.4640  138.2080 O   0  0  0  0  0  0  0  0  0  0  0  0
  182.7620  178.9840  139.4850 C   0  0  1  0  0  3  0  0  0  0  0  0
  181.8050  173.9380  135.1250 C   0  0  0  0  0  2  0  0  0  0  0  0
  179.9020  178.4960  139.9320 C   0  0  0  0  0  2  0  0  0  0  0  0
  179.5030  180.7650  139.0760 N   0  0  0  0  0  2  0  0  0  0  0  0
  183.4720  175.0600  136.6140 C   0  0  0  0  0  3  0  0  0  0  0  0
  181.2550  174.8980  137.8430 C   0  0  1  0  0  3  0  0  0  0  0  0
  180.8910  173.1430  136.0550 C   0  0  0  0  0  2  0  0  0  0  0  0
  182.6510  175.4920  137.6000 C   0  0  0  0  0  0  0  0  0  0  0  0
  180.9700  177.9800  136.5130 O   0  0  0  0  0  0  0  0  0  0  0  0
  179.2160  175.6130  139.1570 C   0  0  0  0  0  2  0  0  0  0  0  0
  181.0660  177.9740  137.7710 C   0  0  0  0  0  0  0  0  0  0  0  0
  180.3600  179.9600  139.9420 C   0  0  2  0  0  3  0  0  0  0  0  0
  181.7480  181.0080  138.2640 C   0  0  0  0  0  2  0  0  0  0  0  0
  181.1610  173.3890  137.5400 C   0  0  2  0  0  3  0  0  0  0  0  0
  180.1570  172.7650  138.2830 O   0  0  0  0  0  1  0  0  0  0  0  0
  181.8190  180.2110  139.5440 C   0  0  2  0  0  3  0  0  0  0  0  0
  184.9620  179.5060  140.2350 O   0  0  0  0  0  0  0  0  0  0  0  0
  184.3230  178.7090  141.1850 C   0  0  0  0  0  2  0  0  0  0  0  0
  184.8290  179.0680  142.5660 C   0  0  0  0  0  2  0  0  0  0  0  0
  184.1860  178.2770  143.5160 O   0  0  0  0  0  1  0  0  0  0  0  0
  1 18  1  6  0  0  0
  2 15  1  0  0  0  0
  4 21  1  6  0  0  0
  4  1  1  0  0  0  0
  4 11  1  0  0  0  0
  5 10  1  1  0  0  0
  5  4  1  0  0  0  0
  5  1  1  0  0  0  0
  6 14  1  0  0  0  0
  7 11  1  0  0  0  0
  7 27  1  1  0  0  0
  8 13  1  0  0  0  0
  9  8  1  0  0  0  0
  9 20  1  0  0  0  0
 10  7  1  0  0  0  0
 11 26  1  0  0  0  0
 12  2  1  0  0  0  0
 12 17  1  0  0  0  0
 13 22  1  0  0  0  0
 14 22  1  0  0  0  0
 15 18  2  0  0  0  0
 16  3  1  0  0  0  0
 17 24  1  0  0  0  0
 18 16  1  0  0  0  0
 19 21  2  0  0  0  0
 20  3  1  0  0  0  0
 21  8  1  0  0  0  0
 23  6  1  0  0  0  0
 23 26  1  0  0  0  0
 24 16  1  0  0  0  0
 24 25  1  0  0  0  0
 26 22  1  0  0  0  0
 27 28  1  0  0  0  0
 28 29  1  0  0  0  0
 29 30  1  0  0  0  0
M  END
>  <MODEL>
7

>  <REMARK>
 VINA RESULT:      -4.9      7.377      9.129
  Name = 
  3 active torsions:
  status: ('A' for Active; 'I' for Inactive)
    1  A    between atoms: O_6  and  C_8
    2  A    between atoms: O_6  and  C_21
    3  A    between atoms: C_9  and  C_21
                            x       y       z     vdW  Elec       q    Type
                         _______ _______ _______ _____ _____    ______ ____

>  <TORSDO>
F 3

$$$$
=
 OpenBabel11052412373D

 30 35  0  0  1  0  0  0  0  0999 V2000
  182.0060  179.4010  138.4430 C   0  0  2  0  0  3  0  0  0  0  0  0
  183.7080  176.9630  135.9200 C   0  0  0  0  0  2  0  0  0  0  0  0
  184.6770  179.3910  139.6770 C   0  0  0  0  0  2  0  0  0  0  0  0
  181.4150  179.0210  139.8100 C   0  0  2  0  0  0  0  0  0  0  0  0
  180.6830  178.6280  138.5620 C   0  0  1  0  0  3  0  0  0  0  0  0
  179.6550  177.9530  143.4950 C   0  0  0  0  0  2  0  0  0  0  0  0
  179.3110  180.1060  139.6040 C   0  0  1  0  0  3  0  0  0  0  0  0
  182.9430  178.3190  141.6900 N   0  0  0  0  0  0  0  0  0  0  0  0
  184.3100  177.8170  141.6670 C   0  0  0  0  0  2  0  0  0  0  0  0
  179.6130  179.5240  138.3580 O   0  0  0  0  0  0  0  0  0  0  0  0
  180.5350  180.0400  140.4950 C   0  0  1  0  0  3  0  0  0  0  0  0
  184.4700  175.9990  136.8120 C   0  0  0  0  0  2  0  0  0  0  0  0
  182.6760  179.5470  142.4420 C   0  0  0  0  0  2  0  0  0  0  0  0
  180.9850  178.4400  143.8410 N   0  0  0  0  0  2  0  0  0  0  0  0
  182.8120  177.8690  136.7210 C   0  0  0  0  0  3  0  0  0  0  0  0
  184.4280  178.3000  138.6320 C   0  0  1  0  0  3  0  0  0  0  0  0
  185.7770  176.6280  137.2910 C   0  0  0  0  0  2  0  0  0  0  0  0
  183.0970  178.4910  137.8890 C   0  0  0  0  0  0  0  0  0  0  0  0
  181.9570  176.7250  140.2930 O   0  0  0  0  0  0  0  0  0  0  0  0
  185.2560  178.8050  140.9680 C   0  0  0  0  0  2  0  0  0  0  0  0
  182.0880  177.9400  140.6060 C   0  0  0  0  0  0  0  0  0  0  0  0
  181.2450  179.5990  142.9920 C   0  0  2  0  0  3  0  0  0  0  0  0
  179.3490  178.4050  142.0870 C   0  0  0  0  0  2  0  0  0  0  0  0
  185.6380  178.0960  137.6980 C   0  0  2  0  0  3  0  0  0  0  0  0
  186.8350  178.5080  138.2880 O   0  0  0  0  0  1  0  0  0  0  0  0
  180.1260  179.6910  141.9470 C   0  0  2  0  0  3  0  0  0  0  0  0
  178.9310  181.4370  139.4220 O   0  0  0  0  0  0  0  0  0  0  0  0
  179.0470  181.6570  138.0500 C   0  0  0  0  0  2  0  0  0  0  0  0
  179.7500  182.9770  137.8090 C   0  0  0  0  0  2  0  0  0  0  0  0
  181.1290  182.7760  137.8250 O   0  0  0  0  0  1  0  0  0  0  0  0
  1 18  1  6  0  0  0
  1  5  1  0  0  0  0
  1  4  1  0  0  0  0
  2 15  1  0  0  0  0
  2 12  1  0  0  0  0
  3 20  1  0  0  0  0
  4 11  1  0  0  0  0
  4 21  1  1  0  0  0
  5 10  1  1  0  0  0
  5  4  1  0  0  0  0
  6 14  1  0  0  0  0
  7 27  1  6  0  0  0
  7 11  1  0  0  0  0
  8 13  1  0  0  0  0
  9  8  1  0  0  0  0
 10  7  1  0  0  0  0
 11 26  1  0  0  0  0
 12 17  1  0  0  0  0
 13 22  1  0  0  0  0
 15 18  2  0  0  0  0
 16  3  1  0  0  0  0
 17 24  1  0  0  0  0
 18 16  1  0  0  0  0
 19 21  2  0  0  0  0
 20  9  1  0  0  0  0
 21  8  1  0  0  0  0
 22 14  1  0  0  0  0
 23  6  1  0  0  0  0
 24 25  1  0  0  0  0
 24 16  1  0  0  0  0
 26 23  1  0  0  0  0
 26 22  1  0  0  0  0
 28 27  1  0  0  0  0
 29 30  1  0  0  0  0
 29 28  1  0  0  0  0
M  END
>  <MODEL>
8

>  <REMARK>
 VINA RESULT:      -4.9      7.016     10.042
  Name = 
  3 active torsions:
  status: ('A' for Active; 'I' for Inactive)
    1  A    between atoms: O_6  and  C_8
    2  A    between atoms: O_6  and  C_21
    3  A    between atoms: C_9  and  C_21
                            x       y       z     vdW  Elec       q    Type
                         _______ _______ _______ _____ _____    ______ ____

>  <TORSDO>
F 3

$$$$
=
 OpenBabel11052412373D

 30 35  0  0  1  0  0  0  0  0999 V2000
  192.6650  176.7210  137.9840 C   0  0  2  0  0  3  0  0  0  0  0  0
  190.5840  177.8650  141.0760 C   0  0  0  0  0  2  0  0  0  0  0  0
  190.2100  177.4460  136.5340 C   0  0  0  0  0  2  0  0  0  0  0  0
  192.6070  175.3380  137.3140 C   0  0  2  0  0  0  0  0  0  0  0  0
  193.2850  175.4790  138.6440 C   0  0  1  0  0  3  0  0  0  0  0  0
  192.5580  171.4950  135.5710 C   0  0  0  0  0  2  0  0  0  0  0  0
  194.9380  174.8960  137.2030 C   0  0  1  0  0  3  0  0  0  0  0  0
  190.5420  174.6440  136.0430 N   0  0  0  0  0  0  0  0  0  0  0  0
  189.1740  175.1410  136.1060 C   0  0  0  0  0  2  0  0  0  0  0  0
  194.6800  175.5070  138.4450 O   0  0  0  0  0  0  0  0  0  0  0  0
  193.7010  174.9930  136.3320 C   0  0  1  0  0  3  0  0  0  0  0  0
  189.2330  177.2040  140.8630 C   0  0  0  0  0  2  0  0  0  0  0  0
  191.2400  174.7150  134.7570 C   0  0  0  0  0  2  0  0  0  0  0  0
  191.6660  172.2950  134.7400 N   0  0  0  0  0  2  0  0  0  0  0  0
  191.6020  177.3770  140.0820 C   0  0  0  0  0  3  0  0  0  0  0  0
  190.0720  177.3430  138.0550 C   0  0  1  0  0  3  0  0  0  0  0  0
  188.4050  177.9890  139.8480 C   0  0  0  0  0  2  0  0  0  0  0  0
  191.4270  177.1630  138.7570 C   0  0  0  0  0  0  0  0  0  0  0  0
  190.8110  174.0650  138.2920 O   0  0  0  0  0  0  0  0  0  0  0  0
  189.1150  176.6490  135.8190 C   0  0  0  0  0  2  0  0  0  0  0  0
  191.2870  174.6230  137.2650 C   0  0  0  0  0  0  0  0  0  0  0  0
  192.2880  173.6070  134.5950 C   0  0  2  0  0  3  0  0  0  0  0  0
  193.3880  172.4410  136.4040 C   0  0  0  0  0  2  0  0  0  0  0  0
  189.2130  178.4790  138.6450 C   0  0  2  0  0  3  0  0  0  0  0  0
  188.3280  179.0130  137.7050 O   0  0  0  0  0  1  0  0  0  0  0  0
  193.4920  173.6770  135.5440 C   0  0  2  0  0  3  0  0  0  0  0  0
  196.0080  175.5360  136.5750 O   0  0  0  0  0  0  0  0  0  0  0  0
  197.1420  174.8620  137.0300 C   0  0  0  0  0  2  0  0  0  0  0  0
  197.0460  173.4000  136.6460 C   0  0  0  0  0  2  0  0  0  0  0  0
  197.3560  173.2550  135.2950 O   0  0  0  0  0  1  0  0  0  0  0  0
  1  5  1  0  0  0  0
  1 18  1  1  0  0  0
  3 16  1  0  0  0  0
  4 21  1  6  0  0  0
  4  1  1  0  0  0  0
  4  5  1  0  0  0  0
  5 10  1  6  0  0  0
  6 23  1  0  0  0  0
  7 27  1  6  0  0  0
  7 10  1  0  0  0  0
  8  9  1  0  0  0  0
  8 21  1  0  0  0  0
 11  7  1  0  0  0  0
 11  4  1  0  0  0  0
 12  2  1  0  0  0  0
 13  8  1  0  0  0  0
 14  6  1  0  0  0  0
 15  2  1  0  0  0  0
 16 24  1  0  0  0  0
 16 18  1  0  0  0  0
 17 12  1  0  0  0  0
 18 15  2  0  0  0  0
 20  9  1  0  0  0  0
 20  3  1  0  0  0  0
 21 19  2  0  0  0  0
 22 14  1  0  0  0  0
 22 13  1  0  0  0  0
 22 26  1  0  0  0  0
 24 17  1  0  0  0  0
 25 24  1  0  0  0  0
 26 11  1  0  0  0  0
 26 23  1  0  0  0  0
 27 28  1  0  0  0  0
 29 28  1  0  0  0  0
 30 29  1  0  0  0  0
M  END
>  <MODEL>
9

>  <REMARK>
 VINA RESULT:      -4.8      2.350      6.330
  Name = 
  3 active torsions:
  status: ('A' for Active; 'I' for Inactive)
    1  A    between atoms: O_6  and  C_8
    2  A    between atoms: O_6  and  C_21
    3  A    between atoms: C_9  and  C_21
                            x       y       z     vdW  Elec       q    Type
                         _______ _______ _______ _____ _____    ______ ____

>  <TORSDO>
F 3

$$$$
