=
 OpenBabel11052412473D

 25 28  0  0  1  0  0  0  0  0999 V2000
  187.4510  177.7850  145.4900 C   0  0  0  0  0  0  0  0  0  0  0  0
  188.6610  177.1730  144.8300 C   0  0  1  0  0  3  0  0  0  0  0  0
  188.5830  177.8650  147.7670 C   0  0  0  0  0  2  0  0  0  0  0  0
  186.2280  178.0700  144.8630 C   0  0  0  0  0  0  0  0  0  0  0  0
  190.7500  177.8020  141.7490 N   0  0  0  0  0  2  0  0  0  0  0  0
  183.6810  178.7570  143.9540 C   0  0  0  0  0  3  0  0  0  0  0  0
  189.4700  176.7470  147.2200 C   0  0  0  0  0  2  0  0  0  0  0  0
  185.2810  178.6000  145.7320 C   0  0  0  0  0  0  0  0  0  0  0  0
  184.0030  178.9520  145.3060 C   0  0  0  0  0  3  0  0  0  0  0  0
  191.0730  176.7550  145.2840 C   0  0  0  0  0  0  0  0  0  0  0  0
  191.9980  176.3430  146.0340 O   0  0  0  0  0  0  0  0  0  0  0  0
  189.1430  178.0570  143.6770 C   0  0  0  0  0  2  0  0  0  0  0  0
  184.6300  178.2180  143.0650 C   0  0  0  0  0  3  0  0  0  0  0  0
  187.4200  178.0660  146.8540 C   0  0  0  0  0  0  0  0  0  0  0  0
  185.9190  178.7110  147.2840 S   0  0  0  0  0  0  0  0  0  0  0  0
  191.3370  177.0060  143.9020 N   0  0  0  0  0  0  0  0  0  0  0  0
  185.9120  177.8690  143.5160 C   0  0  0  0  0  3  0  0  0  0  0  0
  190.4520  177.5610  143.1240 C   0  0  0  0  0  0  0  0  0  0  0  0
  189.7530  176.9720  145.8000 N   0  0  0  0  0  0  0  0  0  0  0  0
  192.0030  177.3880  141.1380 C   0  0  0  0  0  2  0  0  0  0  0  0
  191.7880  177.0760  139.6650 C   0  0  0  0  0  2  0  0  0  0  0  0
  190.3260  176.7540  139.3770 C   0  0  0  0  0  2  0  0  0  0  0  0
  189.7330  177.7290  138.4100 C   0  0  0  0  0  0  0  0  0  0  0  0
  189.3490  178.9560  138.8460 F   0  0  0  0  0  0  0  0  0  0  0  0
  189.7150  177.4600  137.1060 C   0  0  0  0  0  2  0  0  0  0  0  0
  1 14  2  0  0  0  0
  2 12  1  6  0  0  0
  2  1  1  0  0  0  0
  2 19  1  0  0  0  0
  4  1  1  0  0  0  0
  4  8  1  0  0  0  0
  5 18  1  0  0  0  0
  6  9  1  0  0  0  0
  7  3  1  0  0  0  0
  8 15  1  0  0  0  0
  9  8  2  0  0  0  0
 10 19  1  0  0  0  0
 10 11  2  0  0  0  0
 13 17  1  0  0  0  0
 13  6  2  0  0  0  0
 14 15  1  0  0  0  0
 14  3  1  0  0  0  0
 16 10  1  0  0  0  0
 17  4  2  0  0  0  0
 18 12  1  0  0  0  0
 18 16  2  0  0  0  0
 19  7  1  0  0  0  0
 20  5  1  0  0  0  0
 21 20  1  0  0  0  0
 22 21  1  0  0  0  0
 23 24  1  0  0  0  0
 23 22  1  0  0  0  0
 25 23  2  0  0  0  0
M  END
>  <MODEL>
1

>  <REMARK>
 VINA RESULT:      -9.3      0.000      0.000
  Name = 
  4 active torsions:
  status: ('A' for Active; 'I' for Inactive)
    1  A    between atoms: C_2  and  C_25
    2  A    between atoms: N_6  and  C_15
    3  A    between atoms: C_15  and  C_21
    4  A    between atoms: C_21  and  C_25
                            x       y       z     vdW  Elec       q    Type
                         _______ _______ _______ _____ _____    ______ ____

>  <TORSDO>
F 4

$$$$
=
 OpenBabel11052412473D

 25 28  0  0  1  0  0  0  0  0999 V2000
  189.0930  177.5050  143.3620 C   0  0  0  0  0  0  0  0  0  0  0  0
  188.2770  177.4350  142.0960 C   0  0  1  0  0  3  0  0  0  0  0  0
  191.2950  177.4910  142.0860 C   0  0  0  0  0  2  0  0  0  0  0  0
  188.5840  177.5130  144.6690 C   0  0  0  0  0  0  0  0  0  0  0  0
  185.3290  179.2560  140.5980 N   0  0  0  0  0  2  0  0  0  0  0  0
  187.9310  177.5420  147.3820 C   0  0  0  0  0  3  0  0  0  0  0  0
  190.4920  176.8290  140.9680 C   0  0  0  0  0  2  0  0  0  0  0  0
  189.5780  177.5480  145.6410 C   0  0  0  0  0  0  0  0  0  0  0  0
  189.2820  177.5640  147.0020 C   0  0  0  0  0  3  0  0  0  0  0  0
  188.5480  177.7020  139.6350 C   0  0  0  0  0  0  0  0  0  0  0  0
  189.1600  177.4600  138.5610 O   0  0  0  0  0  0  0  0  0  0  0  0
  187.3220  178.6280  142.0100 C   0  0  0  0  0  2  0  0  0  0  0  0
  186.9150  177.5030  146.4090 C   0  0  0  0  0  3  0  0  0  0  0  0
  190.4860  177.4960  143.3410 C   0  0  0  0  0  0  0  0  0  0  0  0
  191.0950  177.5510  144.9150 S   0  0  0  0  0  0  0  0  0  0  0  0
  187.2420  178.2830  139.5930 N   0  0  0  0  0  0  0  0  0  0  0  0
  187.2370  177.4870  145.0420 C   0  0  0  0  0  3  0  0  0  0  0  0
  186.6310  178.6750  140.6750 C   0  0  0  0  0  0  0  0  0  0  0  0
  189.1430  177.3990  140.9040 N   0  0  0  0  0  0  0  0  0  0  0  0
  184.6000  179.3740  139.3430 C   0  0  0  0  0  2  0  0  0  0  0  0
  183.1070  179.2430  139.5940 C   0  0  0  0  0  2  0  0  0  0  0  0
  182.8080  178.1180  140.5780 C   0  0  0  0  0  2  0  0  0  0  0  0
  182.0970  178.6280  141.7920 C   0  0  0  0  0  0  0  0  0  0  0  0
  182.7780  178.7630  142.9580 F   0  0  0  0  0  0  0  0  0  0  0  0
  180.8510  179.0870  141.7010 C   0  0  0  0  0  2  0  0  0  0  0  0
  1  4  1  0  0  0  0
  2 12  1  6  0  0  0
  2  1  1  0  0  0  0
  3 14  1  0  0  0  0
  4 17  2  0  0  0  0
  4  8  1  0  0  0  0
  5 18  1  0  0  0  0
  7  3  1  0  0  0  0
  8  9  2  0  0  0  0
  9  6  1  0  0  0  0
 10 19  1  0  0  0  0
 11 10  2  0  0  0  0
 13  6  2  0  0  0  0
 14  1  2  0  0  0  0
 14 15  1  0  0  0  0
 15  8  1  0  0  0  0
 16 10  1  0  0  0  0
 16 18  2  0  0  0  0
 17 13  1  0  0  0  0
 18 12  1  0  0  0  0
 19  7  1  0  0  0  0
 19  2  1  0  0  0  0
 20 21  1  0  0  0  0
 20  5  1  0  0  0  0
 21 22  1  0  0  0  0
 22 23  1  0  0  0  0
 23 24  1  0  0  0  0
 25 23  2  0  0  0  0
M  END
>  <MODEL>
2

>  <REMARK>
 VINA RESULT:      -8.6      3.478      6.076
  Name = 
  4 active torsions:
  status: ('A' for Active; 'I' for Inactive)
    1  A    between atoms: C_2  and  C_25
    2  A    between atoms: N_6  and  C_15
    3  A    between atoms: C_15  and  C_21
    4  A    between atoms: C_21  and  C_25
                            x       y       z     vdW  Elec       q    Type
                         _______ _______ _______ _____ _____    ______ ____

>  <TORSDO>
F 4

$$$$
=
 OpenBabel11052412473D

 25 28  0  0  1  0  0  0  0  0999 V2000
  186.7240  177.9110  143.7780 C   0  0  0  0  0  0  0  0  0  0  0  0
  187.5740  177.4710  142.6120 C   0  0  1  0  0  3  0  0  0  0  0  0
  188.6350  177.6270  145.4330 C   0  0  0  0  0  2  0  0  0  0  0  0
  185.3660  178.2570  143.7210 C   0  0  0  0  0  0  0  0  0  0  0  0
  188.3620  178.7120  139.1350 N   0  0  0  0  0  2  0  0  0  0  0  0
  182.6890  179.0010  143.9800 C   0  0  0  0  0  3  0  0  0  0  0  0
  189.2110  176.6580  144.4020 C   0  0  0  0  0  2  0  0  0  0  0  0
  184.8360  178.5890  144.9630 C   0  0  0  0  0  0  0  0  0  0  0  0
  183.5040  178.9650  145.1220 C   0  0  0  0  0  3  0  0  0  0  0  0
  189.9630  177.0670  142.0390 C   0  0  0  0  0  0  0  0  0  0  0  0
  191.0880  176.5630  142.2970 O   0  0  0  0  0  0  0  0  0  0  0  0
  187.6140  178.5610  141.5390 C   0  0  0  0  0  2  0  0  0  0  0  0
  183.2120  178.6630  142.7170 C   0  0  0  0  0  3  0  0  0  0  0  0
  187.2210  177.9440  145.0790 C   0  0  0  0  0  0  0  0  0  0  0  0
  186.0170  178.4470  146.1510 S   0  0  0  0  0  0  0  0  0  0  0  0
  189.6930  177.5690  140.7280 N   0  0  0  0  0  0  0  0  0  0  0  0
  184.5580  178.2870  142.5810 C   0  0  0  0  0  3  0  0  0  0  0  0
  188.5990  178.2190  140.4550 C   0  0  0  0  0  0  0  0  0  0  0  0
  188.9440  177.1410  143.0450 N   0  0  0  0  0  0  0  0  0  0  0  0
  189.2770  178.4590  138.0320 C   0  0  0  0  0  2  0  0  0  0  0  0
  188.5010  178.3210  136.7320 C   0  0  0  0  0  2  0  0  0  0  0  0
  187.5730  177.1120  136.7680 C   0  0  0  0  0  2  0  0  0  0  0  0
  186.1480  177.5110  136.5510 C   0  0  0  0  0  0  0  0  0  0  0  0
  185.6570  177.5790  135.2880 F   0  0  0  0  0  0  0  0  0  0  0  0
  185.3220  177.6540  137.5860 C   0  0  0  0  0  2  0  0  0  0  0  0
  1 14  2  0  0  0  0
  2 12  1  6  0  0  0
  2 19  1  0  0  0  0
  2  1  1  0  0  0  0
  4  1  1  0  0  0  0
  4  8  1  0  0  0  0
  5 18  1  0  0  0  0
  6  9  1  0  0  0  0
  7  3  1  0  0  0  0
  8  9  2  0  0  0  0
  8 15  1  0  0  0  0
 10 11  2  0  0  0  0
 10 19  1  0  0  0  0
 13  6  2  0  0  0  0
 14  3  1  0  0  0  0
 14 15  1  0  0  0  0
 16 10  1  0  0  0  0
 17 13  1  0  0  0  0
 17  4  2  0  0  0  0
 18 16  2  0  0  0  0
 18 12  1  0  0  0  0
 19  7  1  0  0  0  0
 20  5  1  0  0  0  0
 21 22  1  0  0  0  0
 21 20  1  0  0  0  0
 23 22  1  0  0  0  0
 23 25  2  0  0  0  0
 24 23  1  0  0  0  0
M  END
>  <MODEL>
3

>  <REMARK>
 VINA RESULT:      -8.6      2.291      3.063
  Name = 
  4 active torsions:
  status: ('A' for Active; 'I' for Inactive)
    1  A    between atoms: C_2  and  C_25
    2  A    between atoms: N_6  and  C_15
    3  A    between atoms: C_15  and  C_21
    4  A    between atoms: C_21  and  C_25
                            x       y       z     vdW  Elec       q    Type
                         _______ _______ _______ _____ _____    ______ ____

>  <TORSDO>
F 4

$$$$
=
 OpenBabel11052412473D

 25 28  0  0  1  0  0  0  0  0999 V2000
  186.6770  177.9500  143.7880 C   0  0  0  0  0  0  0  0  0  0  0  0
  187.5580  177.4890  142.6540 C   0  0  1  0  0  3  0  0  0  0  0  0
  188.5530  177.7310  145.4930 C   0  0  0  0  0  2  0  0  0  0  0  0
  185.3170  178.2800  143.6920 C   0  0  0  0  0  0  0  0  0  0  0  0
  188.4100  178.6470  139.1630 N   0  0  0  0  0  2  0  0  0  0  0  0
  182.6270  179.0000  143.8710 C   0  0  0  0  0  3  0  0  0  0  0  0
  189.1620  176.7420  144.5000 C   0  0  0  0  0  2  0  0  0  0  0  0
  184.7550  178.6390  144.9120 C   0  0  0  0  0  0  0  0  0  0  0  0
  183.4170  179.0040  145.0320 C   0  0  0  0  0  3  0  0  0  0  0  0
  189.9630  177.0970  142.1450 C   0  0  0  0  0  0  0  0  0  0  0  0
  191.0870  176.6120  142.4410 O   0  0  0  0  0  0  0  0  0  0  0  0
  187.6100  178.5510  141.5530 C   0  0  0  0  0  2  0  0  0  0  0  0
  183.1820  178.6350  142.6310 C   0  0  0  0  0  3  0  0  0  0  0  0
  187.1440  178.0240  145.0990 C   0  0  0  0  0  0  0  0  0  0  0  0
  185.9110  178.5410  146.1300 S   0  0  0  0  0  0  0  0  0  0  0  0
  189.7170  177.5610  140.8150 N   0  0  0  0  0  0  0  0  0  0  0  0
  184.5340  178.2710  142.5340 C   0  0  0  0  0  3  0  0  0  0  0  0
  188.6220  178.1920  140.5000 C   0  0  0  0  0  0  0  0  0  0  0  0
  188.9210  177.1860  143.1250 N   0  0  0  0  0  0  0  0  0  0  0  0
  189.3520  178.3740  138.0880 C   0  0  0  0  0  2  0  0  0  0  0  0
  188.8830  177.1780  137.2740 C   0  0  0  0  0  2  0  0  0  0  0  0
  189.6490  175.9160  137.6530 C   0  0  0  0  0  2  0  0  0  0  0  0
  191.1280  176.1330  137.5840 C   0  0  0  0  0  0  0  0  0  0  0  0
  191.8270  176.3430  138.7270 F   0  0  0  0  0  0  0  0  0  0  0  0
  191.7790  175.9760  136.4340 C   0  0  0  0  0  2  0  0  0  0  0  0
  1 14  2  0  0  0  0
  2 12  1  6  0  0  0
  2 19  1  0  0  0  0
  2  1  1  0  0  0  0
  4  1  1  0  0  0  0
  4  8  1  0  0  0  0
  5 18  1  0  0  0  0
  6  9  1  0  0  0  0
  7  3  1  0  0  0  0
  8  9  2  0  0  0  0
  8 15  1  0  0  0  0
 10 11  2  0  0  0  0
 10 19  1  0  0  0  0
 13  6  2  0  0  0  0
 14  3  1  0  0  0  0
 14 15  1  0  0  0  0
 16 10  1  0  0  0  0
 17 13  1  0  0  0  0
 17  4  2  0  0  0  0
 18 16  2  0  0  0  0
 18 12  1  0  0  0  0
 19  7  1  0  0  0  0
 20  5  1  0  0  0  0
 21 22  1  0  0  0  0
 21 20  1  0  0  0  0
 23 22  1  0  0  0  0
 23 24  1  0  0  0  0
 25 23  2  0  0  0  0
M  END
>  <MODEL>
4

>  <REMARK>
 VINA RESULT:      -8.6      1.889      2.636
  Name = 
  4 active torsions:
  status: ('A' for Active; 'I' for Inactive)
    1  A    between atoms: C_2  and  C_25
    2  A    between atoms: N_6  and  C_15
    3  A    between atoms: C_15  and  C_21
    4  A    between atoms: C_21  and  C_25
                            x       y       z     vdW  Elec       q    Type
                         _______ _______ _______ _____ _____    ______ ____

>  <TORSDO>
F 4

$$$$
=
 OpenBabel11052412473D

 25 28  0  0  1  0  0  0  0  0999 V2000
  188.9970  177.5750  143.2510 C   0  0  0  0  0  0  0  0  0  0  0  0
  188.1710  177.4930  141.9910 C   0  0  1  0  0  3  0  0  0  0  0  0
  191.1880  177.5580  141.9580 C   0  0  0  0  0  2  0  0  0  0  0  0
  188.4980  177.5910  144.5620 C   0  0  0  0  0  0  0  0  0  0  0  0
  185.2060  179.2940  140.5030 N   0  0  0  0  0  2  0  0  0  0  0  0
  187.8660  177.6390  147.2800 C   0  0  0  0  0  3  0  0  0  0  0  0
  190.3780  176.8850  140.8510 C   0  0  0  0  0  2  0  0  0  0  0  0
  189.4990  177.6360  145.5260 C   0  0  0  0  0  0  0  0  0  0  0  0
  189.2140  177.6610  146.8880 C   0  0  0  0  0  3  0  0  0  0  0  0
  188.4210  177.7420  139.5270 C   0  0  0  0  0  0  0  0  0  0  0  0
  189.0260  177.4940  138.4500 O   0  0  0  0  0  0  0  0  0  0  0  0
  187.2110  178.6820  141.9050 C   0  0  0  0  0  2  0  0  0  0  0  0
  186.8430  177.5890  146.3140 C   0  0  0  0  0  3  0  0  0  0  0  0
  190.3900  177.5690  143.2190 C   0  0  0  0  0  0  0  0  0  0  0  0
  191.0100  177.6380  144.7870 S   0  0  0  0  0  0  0  0  0  0  0  0
  187.1140  178.3190  139.4910 N   0  0  0  0  0  0  0  0  0  0  0  0
  187.1540  177.5640  144.9460 C   0  0  0  0  0  3  0  0  0  0  0  0
  186.5100  178.7180  140.5740 C   0  0  0  0  0  0  0  0  0  0  0  0
  189.0280  177.4500  140.7930 N   0  0  0  0  0  0  0  0  0  0  0  0
  184.4670  179.4000  139.2530 C   0  0  0  0  0  2  0  0  0  0  0  0
  183.3060  178.4190  139.2500 C   0  0  0  0  0  2  0  0  0  0  0  0
  183.4700  177.3730  138.1530 C   0  0  0  0  0  2  0  0  0  0  0  0
  183.1400  176.0020  138.6520 C   0  0  0  0  0  0  0  0  0  0  0  0
  182.6340  175.8490  139.9020 F   0  0  0  0  0  0  0  0  0  0  0  0
  183.1970  174.9540  137.8330 C   0  0  0  0  0  2  0  0  0  0  0  0
  1  4  1  0  0  0  0
  2 12  1  6  0  0  0
  2  1  1  0  0  0  0
  3 14  1  0  0  0  0
  4 17  2  0  0  0  0
  4  8  1  0  0  0  0
  5 18  1  0  0  0  0
  7  3  1  0  0  0  0
  8  9  2  0  0  0  0
  9  6  1  0  0  0  0
 10 19  1  0  0  0  0
 11 10  2  0  0  0  0
 13  6  2  0  0  0  0
 14  1  2  0  0  0  0
 14 15  1  0  0  0  0
 15  8  1  0  0  0  0
 16 10  1  0  0  0  0
 16 18  2  0  0  0  0
 17 13  1  0  0  0  0
 18 12  1  0  0  0  0
 19  7  1  0  0  0  0
 19  2  1  0  0  0  0
 20  5  1  0  0  0  0
 21 20  1  0  0  0  0
 22 23  1  0  0  0  0
 22 21  1  0  0  0  0
 23 24  1  0  0  0  0
 25 23  2  0  0  0  0
M  END
>  <MODEL>
5

>  <REMARK>
 VINA RESULT:      -8.4      3.844      5.783
  Name = 
  4 active torsions:
  status: ('A' for Active; 'I' for Inactive)
    1  A    between atoms: C_2  and  C_25
    2  A    between atoms: N_6  and  C_15
    3  A    between atoms: C_15  and  C_21
    4  A    between atoms: C_21  and  C_25
                            x       y       z     vdW  Elec       q    Type
                         _______ _______ _______ _____ _____    ______ ____

>  <TORSDO>
F 4

$$$$
=
 OpenBabel11052412473D

 25 28  0  0  1  0  0  0  0  0999 V2000
  188.0960  177.7810  143.6560 C   0  0  0  0  0  0  0  0  0  0  0  0
  188.6090  178.0150  142.2570 C   0  0  1  0  0  3  0  0  0  0  0  0
  185.6770  178.1520  142.9590 C   0  0  0  0  0  2  0  0  0  0  0  0
  188.8820  177.5170  144.7880 C   0  0  0  0  0  0  0  0  0  0  0  0
  190.9450  176.2930  139.8420 N   0  0  0  0  0  2  0  0  0  0  0  0
  190.1220  176.9840  147.2300 C   0  0  0  0  0  3  0  0  0  0  0  0
  186.2710  178.9440  141.7950 C   0  0  0  0  0  2  0  0  0  0  0  0
  188.1340  177.3800  145.9510 C   0  0  0  0  0  0  0  0  0  0  0  0
  188.7250  177.1130  147.1830 C   0  0  0  0  0  3  0  0  0  0  0  0
  187.7670  178.1900  139.9210 C   0  0  0  0  0  0  0  0  0  0  0  0
  186.9570  178.6510  139.0730 O   0  0  0  0  0  0  0  0  0  0  0  0
  189.3950  176.7960  141.7670 C   0  0  0  0  0  2  0  0  0  0  0  0
  190.8920  177.1240  146.0600 C   0  0  0  0  0  3  0  0  0  0  0  0
  186.7420  177.8830  143.9690 C   0  0  0  0  0  0  0  0  0  0  0  0
  186.5010  177.5970  145.6160 S   0  0  0  0  0  0  0  0  0  0  0  0
  188.9640  177.5440  139.4820 N   0  0  0  0  0  0  0  0  0  0  0  0
  190.2740  177.3940  144.8280 C   0  0  0  0  0  3  0  0  0  0  0  0
  189.7590  176.9340  140.3140 C   0  0  0  0  0  0  0  0  0  0  0  0
  187.5060  178.3090  141.3260 N   0  0  0  0  0  0  0  0  0  0  0  0
  191.3570  176.3460  138.4470 C   0  0  0  0  0  2  0  0  0  0  0  0
  192.8550  176.5870  138.3550 C   0  0  0  0  0  2  0  0  0  0  0  0
  193.4690  175.8170  137.1910 C   0  0  0  0  0  2  0  0  0  0  0  0
  193.8640  174.4340  137.5990 C   0  0  0  0  0  0  0  0  0  0  0  0
  193.1740  173.3700  137.1140 F   0  0  0  0  0  0  0  0  0  0  0  0
  194.9700  174.2300  138.3110 C   0  0  0  0  0  2  0  0  0  0  0  0
  1 14  2  0  0  0  0
  1  4  1  0  0  0  0
  2 12  1  6  0  0  0
  2  1  1  0  0  0  0
  3 14  1  0  0  0  0
  4 17  2  0  0  0  0
  4  8  1  0  0  0  0
  5 18  1  0  0  0  0
  7  3  1  0  0  0  0
  8  9  2  0  0  0  0
  9  6  1  0  0  0  0
 10 19  1  0  0  0  0
 11 10  2  0  0  0  0
 13  6  2  0  0  0  0
 14 15  1  0  0  0  0
 15  8  1  0  0  0  0
 16 10  1  0  0  0  0
 16 18  2  0  0  0  0
 17 13  1  0  0  0  0
 18 12  1  0  0  0  0
 19  7  1  0  0  0  0
 19  2  1  0  0  0  0
 20  5  1  0  0  0  0
 21 20  1  0  0  0  0
 22 23  1  0  0  0  0
 22 21  1  0  0  0  0
 23 25  2  0  0  0  0
 24 23  1  0  0  0  0
M  END
>  <MODEL>
6

>  <REMARK>
 VINA RESULT:      -8.4      3.056      4.939
  Name = 
  4 active torsions:
  status: ('A' for Active; 'I' for Inactive)
    1  A    between atoms: C_2  and  C_25
    2  A    between atoms: N_6  and  C_15
    3  A    between atoms: C_15  and  C_21
    4  A    between atoms: C_21  and  C_25
                            x       y       z     vdW  Elec       q    Type
                         _______ _______ _______ _____ _____    ______ ____

>  <TORSDO>
F 4

$$$$
=
 OpenBabel11052412473D

 25 28  0  0  1  0  0  0  0  0999 V2000
  188.5160  177.2980  144.2550 C   0  0  0  0  0  0  0  0  0  0  0  0
  188.4650  176.9840  142.7810 C   0  0  1  0  0  3  0  0  0  0  0  0
  190.9980  176.7600  144.4060 C   0  0  0  0  0  2  0  0  0  0  0  0
  187.4280  177.6850  145.0520 C   0  0  0  0  0  0  0  0  0  0  0  0
  187.1580  178.6280  139.6430 N   0  0  0  0  0  2  0  0  0  0  0  0
  185.5080  178.4610  146.9230 C   0  0  0  0  0  3  0  0  0  0  0  0
  190.7560  175.9120  143.1580 C   0  0  0  0  0  2  0  0  0  0  0  0
  187.7690  177.8740  146.3860 C   0  0  0  0  0  0  0  0  0  0  0  0
  186.8330  178.2610  147.3410 C   0  0  0  0  0  3  0  0  0  0  0  0
  190.0000  176.5930  140.8600 C   0  0  0  0  0  0  0  0  0  0  0  0
  191.0060  176.0310  140.3500 O   0  0  0  0  0  0  0  0  0  0  0  0
  187.9660  178.1990  141.9940 C   0  0  0  0  0  2  0  0  0  0  0  0
  185.1490  178.2690  145.5760 C   0  0  0  0  0  3  0  0  0  0  0  0
  189.6860  177.1560  144.9970 C   0  0  0  0  0  0  0  0  0  0  0  0
  189.4040  177.5530  146.6140 S   0  0  0  0  0  0  0  0  0  0  0  0
  189.0560  177.2610  140.0190 N   0  0  0  0  0  0  0  0  0  0  0  0
  186.1090  177.8780  144.6300 C   0  0  0  0  0  3  0  0  0  0  0  0
  188.0810  177.9690  140.5120 C   0  0  0  0  0  0  0  0  0  0  0  0
  189.7860  176.5680  142.2770 N   0  0  0  0  0  0  0  0  0  0  0  0
  187.2140  178.4900  138.1960 C   0  0  0  0  0  2  0  0  0  0  0  0
  185.8210  178.2340  137.6420 C   0  0  0  0  0  2  0  0  0  0  0  0
  184.7570  178.4130  138.7190 C   0  0  0  0  0  2  0  0  0  0  0  0
  183.6340  177.4410  138.5440 C   0  0  0  0  0  0  0  0  0  0  0  0
  183.4560  176.8330  137.3430 F   0  0  0  0  0  0  0  0  0  0  0  0
  182.9040  177.0580  139.5890 C   0  0  0  0  0  2  0  0  0  0  0  0
  1 14  2  0  0  0  0
  1  4  1  0  0  0  0
  2 12  1  6  0  0  0
  2  1  1  0  0  0  0
  3 14  1  0  0  0  0
  4  8  1  0  0  0  0
  5 18  1  0  0  0  0
  6  9  1  0  0  0  0
  7  3  1  0  0  0  0
  8 15  1  0  0  0  0
  8  9  2  0  0  0  0
 10 19  1  0  0  0  0
 11 10  2  0  0  0  0
 13  6  2  0  0  0  0
 14 15  1  0  0  0  0
 16 18  2  0  0  0  0
 16 10  1  0  0  0  0
 17  4  2  0  0  0  0
 17 13  1  0  0  0  0
 18 12  1  0  0  0  0
 19  2  1  0  0  0  0
 19  7  1  0  0  0  0
 20  5  1  0  0  0  0
 21 20  1  0  0  0  0
 21 22  1  0  0  0  0
 23 22  1  0  0  0  0
 23 25  2  0  0  0  0
 24 23  1  0  0  0  0
M  END
>  <MODEL>
7

>  <REMARK>
 VINA RESULT:      -8.3      2.968      4.339
  Name = 
  4 active torsions:
  status: ('A' for Active; 'I' for Inactive)
    1  A    between atoms: C_2  and  C_25
    2  A    between atoms: N_6  and  C_15
    3  A    between atoms: C_15  and  C_21
    4  A    between atoms: C_21  and  C_25
                            x       y       z     vdW  Elec       q    Type
                         _______ _______ _______ _____ _____    ______ ____

>  <TORSDO>
F 4

$$$$
=
 OpenBabel11052412473D

 25 28  0  0  1  0  0  0  0  0999 V2000
  188.4600  177.3510  143.9850 C   0  0  0  0  0  0  0  0  0  0  0  0
  188.4030  177.0300  142.5130 C   0  0  1  0  0  3  0  0  0  0  0  0
  190.9560  176.8750  144.1160 C   0  0  0  0  0  2  0  0  0  0  0  0
  187.3700  177.7130  144.7910 C   0  0  0  0  0  0  0  0  0  0  0  0
  187.0270  178.6290  139.3820 N   0  0  0  0  0  2  0  0  0  0  0  0
  185.4490  178.4490  146.6770 C   0  0  0  0  0  3  0  0  0  0  0  0
  190.7240  176.0160  142.8730 C   0  0  0  0  0  2  0  0  0  0  0  0
  187.7190  177.9160  146.1220 C   0  0  0  0  0  0  0  0  0  0  0  0
  186.7820  178.2840  147.0840 C   0  0  0  0  0  3  0  0  0  0  0  0
  189.9300  176.6690  140.5800 C   0  0  0  0  0  0  0  0  0  0  0  0
  190.9440  176.1300  140.0620 O   0  0  0  0  0  0  0  0  0  0  0  0
  187.8670  178.2290  141.7260 C   0  0  0  0  0  2  0  0  0  0  0  0
  185.0820  178.2430  145.3340 C   0  0  0  0  0  3  0  0  0  0  0  0
  189.6400  177.2410  144.7170 C   0  0  0  0  0  0  0  0  0  0  0  0
  189.3640  177.6370  146.3350 S   0  0  0  0  0  0  0  0  0  0  0  0
  188.9620  177.3100  139.7450 N   0  0  0  0  0  0  0  0  0  0  0  0
  186.0430  177.8720  144.3810 C   0  0  0  0  0  3  0  0  0  0  0  0
  187.9730  177.9960  140.2440 C   0  0  0  0  0  0  0  0  0  0  0  0
  189.7290  176.6440  141.9990 N   0  0  0  0  0  0  0  0  0  0  0  0
  187.0730  178.4860  137.9340 C   0  0  0  0  0  2  0  0  0  0  0  0
  186.0520  177.4560  137.4790 C   0  0  0  0  0  2  0  0  0  0  0  0
  186.5870  176.6210  136.3220 C   0  0  0  0  0  2  0  0  0  0  0  0
  187.2070  175.3480  136.8070 C   0  0  0  0  0  0  0  0  0  0  0  0
  188.5510  175.2840  136.9800 F   0  0  0  0  0  0  0  0  0  0  0  0
  186.4420  174.3350  137.2080 C   0  0  0  0  0  2  0  0  0  0  0  0
  1 14  2  0  0  0  0
  1  4  1  0  0  0  0
  2 12  1  6  0  0  0
  2  1  1  0  0  0  0
  3 14  1  0  0  0  0
  4  8  1  0  0  0  0
  5 18  1  0  0  0  0
  6  9  1  0  0  0  0
  7  3  1  0  0  0  0
  8 15  1  0  0  0  0
  8  9  2  0  0  0  0
 10 19  1  0  0  0  0
 11 10  2  0  0  0  0
 13  6  2  0  0  0  0
 14 15  1  0  0  0  0
 16 18  2  0  0  0  0
 16 10  1  0  0  0  0
 17  4  2  0  0  0  0
 17 13  1  0  0  0  0
 18 12  1  0  0  0  0
 19  2  1  0  0  0  0
 19  7  1  0  0  0  0
 20  5  1  0  0  0  0
 21 20  1  0  0  0  0
 22 23  1  0  0  0  0
 22 21  1  0  0  0  0
 23 24  1  0  0  0  0
 23 25  2  0  0  0  0
M  END
>  <MODEL>
8

>  <REMARK>
 VINA RESULT:      -8.3      2.739      3.989
  Name = 
  4 active torsions:
  status: ('A' for Active; 'I' for Inactive)
    1  A    between atoms: C_2  and  C_25
    2  A    between atoms: N_6  and  C_15
    3  A    between atoms: C_15  and  C_21
    4  A    between atoms: C_21  and  C_25
                            x       y       z     vdW  Elec       q    Type
                         _______ _______ _______ _____ _____    ______ ____

>  <TORSDO>
F 4

$$$$
=
 OpenBabel11052412473D

 25 28  0  0  1  0  0  0  0  0999 V2000
  187.3290  177.6780  144.7240 C   0  0  0  0  0  0  0  0  0  0  0  0
  188.2920  177.0310  143.7600 C   0  0  1  0  0  3  0  0  0  0  0  0
  189.0200  177.6420  146.6250 C   0  0  0  0  0  2  0  0  0  0  0  0
  186.0010  178.0350  144.4450 C   0  0  0  0  0  0  0  0  0  0  0  0
  189.5310  177.6540  140.2480 N   0  0  0  0  0  2  0  0  0  0  0  0
  183.3430  178.8610  144.2480 C   0  0  0  0  0  3  0  0  0  0  0  0
  189.6750  176.5020  145.8460 C   0  0  0  0  0  2  0  0  0  0  0  0
  185.3420  178.5810  145.5400 C   0  0  0  0  0  0  0  0  0  0  0  0
  184.0170  179.0030  145.4710 C   0  0  0  0  0  3  0  0  0  0  0  0
  190.7150  176.4930  143.5570 C   0  0  0  0  0  0  0  0  0  0  0  0
  191.7820  176.0190  144.0310 O   0  0  0  0  0  0  0  0  0  0  0  0
  188.5000  177.9250  142.5340 C   0  0  0  0  0  2  0  0  0  0  0  0
  183.9980  178.3050  143.1320 C   0  0  0  0  0  3  0  0  0  0  0  0
  187.6710  177.9210  146.0520 C   0  0  0  0  0  0  0  0  0  0  0  0
  186.3700  178.6200  146.8710 S   0  0  0  0  0  0  0  0  0  0  0  0
  190.6200  176.7710  142.1580 N   0  0  0  0  0  0  0  0  0  0  0  0
  185.3340  177.8870  143.2250 C   0  0  0  0  0  3  0  0  0  0  0  0
  189.5910  177.3860  141.6500 C   0  0  0  0  0  0  0  0  0  0  0  0
  189.5880  176.7540  144.4050 N   0  0  0  0  0  0  0  0  0  0  0  0
  190.5580  177.2010  139.3220 C   0  0  0  0  0  2  0  0  0  0  0  0
  189.9930  177.1230  137.9130 C   0  0  0  0  0  2  0  0  0  0  0  0
  188.4890  177.3680  137.9070 C   0  0  0  0  0  2  0  0  0  0  0  0
  187.8010  176.5240  136.8810 C   0  0  0  0  0  0  0  0  0  0  0  0
  187.8490  176.8870  135.5750 F   0  0  0  0  0  0  0  0  0  0  0  0
  187.2750  175.3490  137.2180 C   0  0  0  0  0  2  0  0  0  0  0  0
  1 14  2  0  0  0  0
  2 12  1  6  0  0  0
  2 19  1  0  0  0  0
  2  1  1  0  0  0  0
  4  1  1  0  0  0  0
  4  8  1  0  0  0  0
  5 18  1  0  0  0  0
  6  9  1  0  0  0  0
  7  3  1  0  0  0  0
  8 15  1  0  0  0  0
  9  8  2  0  0  0  0
 10 11  2  0  0  0  0
 10 19  1  0  0  0  0
 13 17  1  0  0  0  0
 13  6  2  0  0  0  0
 14  3  1  0  0  0  0
 14 15  1  0  0  0  0
 16 10  1  0  0  0  0
 17  4  2  0  0  0  0
 18 16  2  0  0  0  0
 18 12  1  0  0  0  0
 19  7  1  0  0  0  0
 20  5  1  0  0  0  0
 21 20  1  0  0  0  0
 22 21  1  0  0  0  0
 23 25  2  0  0  0  0
 23 22  1  0  0  0  0
 24 23  1  0  0  0  0
M  END
>  <MODEL>
9

>  <REMARK>
 VINA RESULT:      -8.2      1.546      1.812
  Name = 
  4 active torsions:
  status: ('A' for Active; 'I' for Inactive)
    1  A    between atoms: C_2  and  C_25
    2  A    between atoms: N_6  and  C_15
    3  A    between atoms: C_15  and  C_21
    4  A    between atoms: C_21  and  C_25
                            x       y       z     vdW  Elec       q    Type
                         _______ _______ _______ _____ _____    ______ ____

>  <TORSDO>
F 4

$$$$
