=
 OpenBabel11052415063D

 55 60  0  0  1  0  0  0  0  0999 V2000
  184.9260  176.1850  136.9030 O   0  0  0  0  0  0  0  0  0  0  0  0
  186.7010  173.9370  135.2260 C   0  0  0  0  0  2  0  0  0  0  0  0
  184.9110  170.5880  135.5400 C   0  0  0  0  0  1  0  0  0  0  0  0
  181.8900  171.2200  135.9370 C   0  0  0  0  0  2  0  0  0  0  0  0
  179.3940  171.1740  136.6090 C   0  0  0  0  0  2  0  0  0  0  0  0
  180.8710  173.0650  137.2610 C   0  0  0  0  0  0  0  0  0  0  0  0
  179.9100  172.0330  137.7700 C   0  0  0  0  0  2  0  0  0  0  0  0
  184.2700  172.7020  136.6930 C   0  0  0  0  0  2  0  0  0  0  0  0
  180.5130  170.5720  135.7300 C   0  0  0  0  0  2  0  0  0  0  0  0
  185.9230  178.2990  136.3130 C   0  0  0  0  0  2  0  0  0  0  0  0
  181.7700  172.7390  136.0920 C   0  0  1  0  0  3  0  0  0  0  0  0
  188.0530  176.7870  137.4280 C   0  0  2  0  0  3  0  0  0  0  0  0
  183.9470  175.7570  136.0100 C   0  0  0  0  0  2  0  0  0  0  0  0
  187.2820  176.1480  136.2640 C   0  0  1  0  0  3  0  0  0  0  0  0
  182.0080  175.1720  137.5170 C   0  0  0  0  0  0  0  0  0  0  0  0
  187.1870  174.6360  136.4840 C   0  0  0  0  0  2  0  0  0  0  0  0
  181.0320  174.1810  137.9020 N   0  0  0  0  0  0  0  0  0  0  0  0
  186.4960  172.4650  135.5170 C   0  0  0  0  0  2  0  0  0  0  0  0
  185.0230  172.0960  135.5020 C   0  0  1  0  0  3  0  0  0  0  0  0
  186.4950  178.5820  137.5620 O   0  0  0  0  0  0  0  0  0  0  0  0
  185.8840  176.7830  136.0770 C   0  0  1  0  0  3  0  0  0  0  0  0
  183.0630  173.4220  136.2600 N   0  0  0  0  0  0  0  0  0  0  0  0
  182.9910  174.8030  136.6480 C   0  0  0  0  0  0  0  0  0  0  0  0
  187.8580  178.3030  137.4220 C   0  0  0  0  0  2  0  0  0  0  0  0
  181.2950  177.5420  137.6600 C   0  0  0  0  0  3  0  0  0  0  0  0
  181.6070  178.9310  139.7460 C   0  0  1  0  0  3  0  0  0  0  0  0
  182.5190  176.5980  139.5920 C   0  0  0  0  0  2  0  0  0  0  0  0
  182.8080  178.0340  140.0310 C   0  0  0  0  0  2  0  0  0  0  0  0
  181.3110  178.9240  138.2480 C   0  0  0  0  0  2  0  0  0  0  0  0
  181.9320  176.4960  138.2020 C   0  0  0  0  0  0  0  0  0  0  0  0
  180.4840  178.5020  140.4620 O   0  0  0  0  0  0  0  0  0  0  0  0
  180.2740  179.4870  141.4280 C   0  0  0  0  0  2  0  0  0  0  0  0
  180.5700  178.9170  142.8000 C   0  0  0  0  0  1  0  0  0  0  0  0
  189.5330  176.4600  137.3140 C   0  0  0  0  0  2  0  0  0  0  0  0
  194.0060  176.4170  138.0230 O   0  0  0  0  0  0  0  0  0  0  0  0
  192.8250  176.5200  138.3700 C   0  0  0  0  0  0  0  0  0  0  0  0
  190.4160  177.4100  139.3480 C   0  0  1  0  0  3  0  0  0  0  0  0
  191.5730  176.6370  138.7170 C   0  0  0  0  0  0  0  0  0  0  0  0
  190.1100  176.1800  138.6880 C   0  0  2  0  0  3  0  0  0  0  0  0
  190.4110  177.3050  140.8830 C   0  0  2  0  0  3  0  0  0  0  0  0
  190.7280  176.0180  141.3400 O   0  0  0  0  0  1  0  0  0  0  0  0
  189.0750  177.7570  141.4730 C   0  0  2  0  0  3  0  0  0  0  0  0
  188.4860  178.7530  140.6850 O   0  0  0  0  0  1  0  0  0  0  0  0
  189.2470  178.1800  142.9430 C   0  0  0  0  0  2  0  0  0  0  0  0
  190.2190  176.5990  144.5090 C   0  0  0  0  0  1  0  0  0  0  0  0
  188.0450  176.0460  143.5390 C   0  0  0  0  0  1  0  0  0  0  0  0
  188.8930  177.1950  144.0810 C   0  0  0  0  0  0  0  0  0  0  0  0
  188.2480  177.8820  145.3260 C   0  0  2  0  0  3  0  0  0  0  0  0
  189.0740  177.7080  146.6190 C   0  0  0  0  0  2  0  0  0  0  0  0
  188.2550  177.0810  147.7430 C   0  0  0  0  0  2  0  0  0  0  0  0
  187.9300  178.0430  148.7040 O   0  0  0  0  0  1  0  0  0  0  0  0
  186.9160  177.4760  145.5250 O   0  0  0  0  0  0  0  0  0  0  0  0
  186.1050  178.6190  145.3930 C   0  0  0  0  0  2  0  0  0  0  0  0
  183.8790  178.7660  144.2470 C   0  0  0  0  0  1  0  0  0  0  0  0
  185.3770  178.6450  144.0550 C   0  0  0  0  0  2  0  0  0  0  0  0
  2 18  1  0  0  0  0
  2 16  1  0  0  0  0
  5  7  1  0  0  0  0
  6  7  1  0  0  0  0
  6 17  2  0  0  0  0
  9  4  1  0  0  0  0
  9  5  1  0  0  0  0
 10 20  1  0  0  0  0
 11  4  1  1  0  0  0
 11 22  1  0  0  0  0
 11  6  1  0  0  0  0
 12 34  1  6  0  0  0
 13 23  1  0  0  0  0
 13  1  1  0  0  0  0
 14 16  1  1  0  0  0
 14 12  1  0  0  0  0
 15 17  1  0  0  0  0
 15 30  1  0  0  0  0
 19 18  1  0  0  0  0
 19  3  1  1  0  0  0
 19  8  1  0  0  0  0
 21 14  1  0  0  0  0
 21 10  1  1  0  0  0
 21  1  1  0  0  0  0
 22 23  1  0  0  0  0
 22  8  1  0  0  0  0
 23 15  2  0  0  0  0
 24 12  1  0  0  0  0
 24 20  1  0  0  0  0
 25 30  2  0  0  0  0
 25 29  1  0  0  0  0
 26 28  1  0  0  0  0
 26 31  1  1  0  0  0
 27 28  1  0  0  0  0
 29 26  1  0  0  0  0
 30 27  1  0  0  0  0
 31 32  1  0  0  0  0
 32 33  1  0  0  0  0
 35 36  2  0  0  0  0
 36 38  2  0  0  0  0
 37 40  1  1  0  0  0
 38 37  1  0  0  0  0
 39 34  1  6  0  0  0
 39 38  1  0  0  0  0
 39 37  1  0  0  0  0
 40 41  1  6  0  0  0
 40 42  1  0  0  0  0
 42 43  1  6  0  0  0
 42 44  1  0  0  0  0
 44 47  1  0  0  0  0
 46 47  1  0  0  0  0
 47 45  1  0  0  0  0
 47 48  1  0  0  0  0
 48 52  1  0  0  0  0
 48 49  1  1  0  0  0
 49 50  1  0  0  0  0
 50 51  1  0  0  0  0
 53 52  1  0  0  0  0
 55 54  1  0  0  0  0
 55 53  1  0  0  0  0
M  END
>  <MODEL>
1

>  <REMARK>
 VINA RESULT:      -8.0      0.000      0.000
  Name = 
  15 active torsions:
  status: ('A' for Active; 'I' for Inactive)
    1  A    between atoms: C_3  and  C_14
    2  A    between atoms: C_3  and  O_38
    3  A    between atoms: C_6  and  C_20
    4  A    between atoms: C_6  and  C_53
    5  A    between atoms: O_10  and  C_18
    6  A    between atoms: O_10  and  C_32
    7  A    between atoms: C_11  and  C_29
    8  A    between atoms: C_20  and  C_22
    9  A    between atoms: C_27  and  C_54
   10  A    between atoms: C_29  and  C_50
   11  A    between atoms: C_30  and  C_50
   12  A    between atoms: C_30  and  C_53
   13  A    between atoms: C_33  and  C_52
   14  A    between atoms: O_38  and  C_50
   15  A    between atoms: C_51  and  C_54
                            x       y       z     vdW  Elec       q    Type
                         _______ _______ _______ _____ _____    ______ ____

>  <TORSDO>
F 15

$$$$
=
 OpenBabel11052415063D

 55 60  0  0  1  0  0  0  0  0999 V2000
  184.9410  175.9950  136.8640 O   0  0  0  0  0  0  0  0  0  0  0  0
  186.8650  173.9210  135.1310 C   0  0  0  0  0  2  0  0  0  0  0  0
  185.2420  170.4750  135.2460 C   0  0  0  0  0  1  0  0  0  0  0  0
  182.1840  170.9360  135.5970 C   0  0  0  0  0  2  0  0  0  0  0  0
  179.6790  170.7340  136.2040 C   0  0  0  0  0  2  0  0  0  0  0  0
  181.0440  172.6640  136.9780 C   0  0  0  0  0  0  0  0  0  0  0  0
  180.1250  171.5630  137.4150 C   0  0  0  0  0  2  0  0  0  0  0  0
  184.4680  172.4970  136.4790 C   0  0  0  0  0  2  0  0  0  0  0  0
  180.8470  170.2310  135.3260 C   0  0  0  0  0  2  0  0  0  0  0  0
  185.8420  178.1820  136.3970 C   0  0  0  0  0  2  0  0  0  0  0  0
  181.9830  172.4390  135.8180 C   0  0  1  0  0  3  0  0  0  0  0  0
  188.0200  176.7270  137.4950 C   0  0  2  0  0  3  0  0  0  0  0  0
  184.0050  175.5620  135.9290 C   0  0  0  0  0  2  0  0  0  0  0  0
  187.3090  176.1060  136.2840 C   0  0  1  0  0  3  0  0  0  0  0  0
  182.0650  174.8110  137.3590 C   0  0  2  0  0  3  0  0  0  0  0  0
  187.2870  174.5820  136.4310 C   0  0  0  0  0  2  0  0  0  0  0  0
  181.1320  173.7550  137.6740 N   0  0  0  0  0  0  0  0  0  0  0  0
  186.7290  172.4280  135.3490 C   0  0  0  0  0  2  0  0  0  0  0  0
  185.2770  171.9870  135.2800 C   0  0  1  0  0  3  0  0  0  0  0  0
  186.3710  178.4340  137.6720 O   0  0  0  0  0  0  0  0  0  0  0  0
  185.8860  176.6790  136.0910 C   0  0  1  0  0  3  0  0  0  0  0  0
  183.2360  173.1760  136.0500 N   0  0  1  0  0  0  0  0  0  0  0  0
  183.0850  174.5320  136.4990 C   0  0  1  0  0  3  0  0  0  0  0  0
  187.7490  178.2300  137.5530 C   0  0  0  0  0  2  0  0  0  0  0  0
  181.1940  177.1170  137.6110 C   0  0  0  0  0  3  0  0  0  0  0  0
  181.4330  178.4340  139.7540 C   0  0  1  0  0  3  0  0  0  0  0  0
  182.5000  176.1770  139.4910 C   0  0  0  0  0  2  0  0  0  0  0  0
  182.6950  177.6100  139.9900 C   0  0  0  0  0  2  0  0  0  0  0  0
  181.1220  178.4710  138.2590 C   0  0  0  0  0  2  0  0  0  0  0  0
  181.9070  176.0950  138.1020 C   0  0  0  0  0  0  0  0  0  0  0  0
  180.3500  177.8980  140.4590 O   0  0  0  0  0  0  0  0  0  0  0  0
  180.5550  178.2860  141.7840 C   0  0  0  0  0  2  0  0  0  0  0  0
  180.1850  179.7460  141.9410 C   0  0  0  0  0  1  0  0  0  0  0  0
  189.5180  176.4800  137.4020 C   0  0  0  0  0  2  0  0  0  0  0  0
  193.9850  176.4770  138.1470 O   0  0  0  0  0  0  0  0  0  0  0  0
  192.8010  176.5740  138.4840 C   0  0  0  0  0  0  0  0  0  0  0  0
  190.3760  177.4520  139.4370 C   0  0  1  0  0  3  0  0  0  0  0  0
  191.5450  176.6830  138.8200 C   0  0  0  0  0  0  0  0  0  0  0  0
  190.0860  176.2140  138.7830 C   0  0  2  0  0  3  0  0  0  0  0  0
  190.3610  177.3570  140.9720 C   0  0  2  0  0  3  0  0  0  0  0  0
  190.7570  176.0970  141.4430 O   0  0  0  0  0  1  0  0  0  0  0  0
  188.9890  177.7230  141.5430 C   0  0  2  0  0  3  0  0  0  0  0  0
  188.3550  178.6890  140.7540 O   0  0  0  0  0  1  0  0  0  0  0  0
  189.1120  178.1410  143.0190 C   0  0  0  0  0  2  0  0  0  0  0  0
  187.9730  176.0350  143.4230 C   0  0  0  0  0  1  0  0  0  0  0  0
  187.1850  178.0030  144.6390 C   0  0  0  0  0  1  0  0  0  0  0  0
  188.4370  177.2960  144.1240 C   0  0  0  0  0  0  0  0  0  0  0  0
  189.4070  176.8790  145.2740 C   0  0  2  0  0  3  0  0  0  0  0  0
  189.3100  177.7890  146.5190 C   0  0  0  0  0  2  0  0  0  0  0  0
  188.5680  177.1120  147.6670 C   0  0  0  0  0  2  0  0  0  0  0  0
  188.3840  178.0090  148.7240 O   0  0  0  0  0  1  0  0  0  0  0  0
  190.7390  176.7750  144.8330 O   0  0  0  0  0  0  0  0  0  0  0  0
  191.5690  176.9860  145.9500 C   0  0  0  0  0  2  0  0  0  0  0  0
  192.3300  175.7360  147.9860 C   0  0  0  0  0  1  0  0  0  0  0  0
  192.1420  175.6790  146.4850 C   0  0  0  0  0  2  0  0  0  0  0  0
  2 18  1  0  0  0  0
  2 16  1  0  0  0  0
  5  7  1  0  0  0  0
  6  7  1  0  0  0  0
  6 17  2  0  0  0  0
  9  4  1  0  0  0  0
  9  5  1  0  0  0  0
 10 20  1  0  0  0  0
 11  4  1  1  0  0  0
 11 22  1  0  0  0  0
 11  6  1  0  0  0  0
 12 34  1  6  0  0  0
 12 24  1  0  0  0  0
 13  1  1  0  0  0  0
 14 16  1  1  0  0  0
 14 12  1  0  0  0  0
 15 17  1  0  0  0  0
 15 30  1  1  0  0  0
 19  3  1  1  0  0  0
 19 18  1  0  0  0  0
 19  8  1  0  0  0  0
 21 14  1  0  0  0  0
 21 10  1  1  0  0  0
 21  1  1  0  0  0  0
 22  8  1  1  0  0  0
 22 23  1  0  0  0  0
 23 13  1  6  0  0  0
 23 15  1  0  0  0  0
 24 20  1  0  0  0  0
 25 30  2  0  0  0  0
 25 29  1  0  0  0  0
 26 28  1  0  0  0  0
 26 31  1  1  0  0  0
 27 28  1  0  0  0  0
 29 26  1  0  0  0  0
 30 27  1  0  0  0  0
 31 32  1  0  0  0  0
 32 33  1  0  0  0  0
 35 36  2  0  0  0  0
 36 38  2  0  0  0  0
 37 40  1  1  0  0  0
 38 37  1  0  0  0  0
 39 34  1  6  0  0  0
 39 38  1  0  0  0  0
 39 37  1  0  0  0  0
 40 41  1  6  0  0  0
 40 42  1  0  0  0  0
 42 43  1  6  0  0  0
 42 44  1  0  0  0  0
 44 47  1  0  0  0  0
 45 47  1  0  0  0  0
 47 46  1  0  0  0  0
 47 48  1  0  0  0  0
 48 49  1  1  0  0  0
 49 50  1  0  0  0  0
 50 51  1  0  0  0  0
 52 48  1  0  0  0  0
 52 53  1  0  0  0  0
 53 55  1  0  0  0  0
 55 54  1  0  0  0  0
M  END
>  <MODEL>
2

>  <REMARK>
 VINA RESULT:      -8.0      0.974      2.033
  Name = 
  15 active torsions:
  status: ('A' for Active; 'I' for Inactive)
    1  A    between atoms: C_3  and  C_14
    2  A    between atoms: C_3  and  O_38
    3  A    between atoms: C_6  and  C_20
    4  A    between atoms: C_6  and  C_53
    5  A    between atoms: O_10  and  C_18
    6  A    between atoms: O_10  and  C_32
    7  A    between atoms: C_11  and  C_29
    8  A    between atoms: C_20  and  C_22
    9  A    between atoms: C_27  and  C_54
   10  A    between atoms: C_29  and  C_50
   11  A    between atoms: C_30  and  C_50
   12  A    between atoms: C_30  and  C_53
   13  A    between atoms: C_33  and  C_52
   14  A    between atoms: O_38  and  C_50
   15  A    between atoms: C_51  and  C_54
                            x       y       z     vdW  Elec       q    Type
                         _______ _______ _______ _____ _____    ______ ____

>  <TORSDO>
F 15

$$$$
=
 OpenBabel11052415063D

 55 60  0  0  1  0  0  0  0  0999 V2000
  187.5130  177.6880  143.2070 O   0  0  0  0  0  0  0  0  0  0  0  0
  185.5390  177.7480  140.5410 C   0  0  0  0  0  2  0  0  0  0  0  0
  187.7430  178.3180  137.4860 C   0  0  0  0  0  1  0  0  0  0  0  0
  190.5490  177.1600  138.1760 C   0  0  0  0  0  2  0  0  0  0  0  0
  193.0830  176.6760  138.3340 C   0  0  0  0  0  2  0  0  0  0  0  0
  191.7520  177.2540  140.3530 C   0  0  0  0  0  0  0  0  0  0  0  0
  192.9690  177.6030  139.5500 C   0  0  0  0  0  2  0  0  0  0  0  0
  188.5000  178.3430  139.8600 C   0  0  0  0  0  2  0  0  0  0  0  0
  191.7980  176.6030  137.4780 C   0  0  0  0  0  2  0  0  0  0  0  0
  186.0830  176.9400  144.9970 C   0  0  0  0  0  2  0  0  0  0  0  0
  190.5110  176.7540  139.6530 C   0  0  1  0  0  3  0  0  0  0  0  0
  184.8180  179.2770  143.9960 C   0  0  2  0  0  3  0  0  0  0  0  0
  188.0950  176.6510  142.4830 C   0  0  0  0  0  2  0  0  0  0  0  0
  185.1310  178.1670  142.9830 C   0  0  1  0  0  3  0  0  0  0  0  0
  190.5390  177.2830  142.4330 C   0  0  2  0  0  3  0  0  0  0  0  0
  185.5130  178.7960  141.6390 C   0  0  0  0  0  2  0  0  0  0  0  0
  191.7130  177.5080  141.6240 N   0  0  0  0  0  0  0  0  0  0  0  0
  186.0440  178.3770  139.2590 C   0  0  0  0  0  2  0  0  0  0  0  0
  187.4200  177.8520  138.8890 C   0  0  1  0  0  3  0  0  0  0  0  0
  186.0330  178.1500  145.7050 O   0  0  0  0  0  0  0  0  0  0  0  0
  186.2310  177.2080  143.4940 C   0  0  1  0  0  3  0  0  0  0  0  0
  189.3170  177.2310  140.3680 N   0  0  1  0  0  0  0  0  0  0  0  0
  189.3490  177.0870  141.7970 C   0  0  1  0  0  3  0  0  0  0  0  0
  184.7830  178.7040  145.4130 C   0  0  0  0  0  2  0  0  0  0  0  0
  190.3700  178.5240  144.5720 C   0  0  0  0  0  3  0  0  0  0  0  0
  190.8000  177.4350  146.8110 C   0  0  1  0  0  3  0  0  0  0  0  0
  191.1700  176.1840  144.6670 C   0  0  0  0  0  2  0  0  0  0  0  0
  191.7360  176.4990  146.0520 C   0  0  0  0  0  2  0  0  0  0  0  0
  190.6460  178.7410  146.0330 C   0  0  0  0  0  2  0  0  0  0  0  0
  190.7030  177.4070  143.9100 C   0  0  0  0  0  0  0  0  0  0  0  0
  189.5500  176.8380  147.0050 O   0  0  0  0  0  0  0  0  0  0  0  0
  188.6930  177.8930  147.3260 C   0  0  0  0  0  2  0  0  0  0  0  0
  188.3490  177.8290  148.7990 C   0  0  0  0  0  1  0  0  0  0  0  0
  183.4780  179.9180  143.6690 C   0  0  0  0  0  2  0  0  0  0  0  0
  179.0630  179.9310  144.6800 O   0  0  0  0  0  0  0  0  0  0  0  0
  180.0450  179.6500  143.9850 C   0  0  0  0  0  0  0  0  0  0  0  0
  181.8690  179.4110  141.9430 C   0  0  1  0  0  3  0  0  0  0  0  0
  181.0910  179.3710  143.2590 C   0  0  0  0  0  0  0  0  0  0  0  0
  182.5340  178.8800  143.0920 C   0  0  2  0  0  3  0  0  0  0  0  0
  181.3950  178.3350  140.9520 C   0  0  2  0  0  3  0  0  0  0  0  0
  182.3710  178.0060  139.9990 O   0  0  0  0  0  1  0  0  0  0  0  0
  180.0980  178.7470  140.2530 C   0  0  2  0  0  3  0  0  0  0  0  0
  179.1600  177.7090  140.2790 O   0  0  0  0  0  1  0  0  0  0  0  0
  180.3880  179.2580  138.8310 C   0  0  0  0  0  2  0  0  0  0  0  0
  181.8850  181.1490  138.5420 C   0  0  0  0  0  1  0  0  0  0  0  0
  179.7640  181.5440  139.6920 C   0  0  0  0  0  1  0  0  0  0  0  0
  180.4150  180.7770  138.5430 C   0  0  0  0  0  0  0  0  0  0  0  0
  179.8200  181.1610  137.1510 C   0  0  2  0  0  3  0  0  0  0  0  0
  179.6510  179.9550  136.2020 C   0  0  0  0  0  2  0  0  0  0  0  0
  180.8030  179.8420  135.2080 C   0  0  0  0  0  2  0  0  0  0  0  0
  181.6090  178.7420  135.5180 O   0  0  0  0  0  1  0  0  0  0  0  0
  180.5500  182.1900  136.5280 O   0  0  0  0  0  0  0  0  0  0  0  0
  179.6360  183.2010  136.1780 C   0  0  0  0  0  2  0  0  0  0  0  0
  181.5440  184.5120  137.1430 C   0  0  0  0  0  1  0  0  0  0  0  0
  180.1450  184.5840  136.5690 C   0  0  0  0  0  2  0  0  0  0  0  0
  1 21  1  0  0  0  0
  2 16  1  0  0  0  0
  5  7  1  0  0  0  0
  6 17  2  0  0  0  0
  7  6  1  0  0  0  0
  9  4  1  0  0  0  0
  9  5  1  0  0  0  0
 10 20  1  0  0  0  0
 11  4  1  6  0  0  0
 11  6  1  0  0  0  0
 11 22  1  0  0  0  0
 12 34  1  6  0  0  0
 12 24  1  0  0  0  0
 13  1  1  0  0  0  0
 14 16  1  6  0  0  0
 14 21  1  0  0  0  0
 14 12  1  0  0  0  0
 15 30  1  1  0  0  0
 17 15  1  0  0  0  0
 18  2  1  0  0  0  0
 19  3  1  6  0  0  0
 19 18  1  0  0  0  0
 19  8  1  0  0  0  0
 21 10  1  1  0  0  0
 22  8  1  1  0  0  0
 22 23  1  0  0  0  0
 23 15  1  0  0  0  0
 23 13  1  6  0  0  0
 24 20  1  0  0  0  0
 25 29  1  0  0  0  0
 26 31  1  6  0  0  0
 27 28  1  0  0  0  0
 28 26  1  0  0  0  0
 29 26  1  0  0  0  0
 30 25  2  0  0  0  0
 30 27  1  0  0  0  0
 31 32  1  0  0  0  0
 32 33  1  0  0  0  0
 36 35  2  0  0  0  0
 37 40  1  6  0  0  0
 37 39  1  0  0  0  0
 37 38  1  0  0  0  0
 38 36  2  0  0  0  0
 39 38  1  0  0  0  0
 39 34  1  1  0  0  0
 40 41  1  6  0  0  0
 42 43  1  6  0  0  0
 42 40  1  0  0  0  0
 44 42  1  0  0  0  0
 45 47  1  0  0  0  0
 47 44  1  0  0  0  0
 47 46  1  0  0  0  0
 48 49  1  6  0  0  0
 48 47  1  0  0  0  0
 50 51  1  0  0  0  0
 50 49  1  0  0  0  0
 52 48  1  0  0  0  0
 53 52  1  0  0  0  0
 53 55  1  0  0  0  0
 55 54  1  0  0  0  0
M  END
>  <MODEL>
3

>  <REMARK>
 VINA RESULT:      -7.0      4.412     10.601
  Name = 
  15 active torsions:
  status: ('A' for Active; 'I' for Inactive)
    1  A    between atoms: C_3  and  C_14
    2  A    between atoms: C_3  and  O_38
    3  A    between atoms: C_6  and  C_20
    4  A    between atoms: C_6  and  C_53
    5  A    between atoms: O_10  and  C_18
    6  A    between atoms: O_10  and  C_32
    7  A    between atoms: C_11  and  C_29
    8  A    between atoms: C_20  and  C_22
    9  A    between atoms: C_27  and  C_54
   10  A    between atoms: C_29  and  C_50
   11  A    between atoms: C_30  and  C_50
   12  A    between atoms: C_30  and  C_53
   13  A    between atoms: C_33  and  C_52
   14  A    between atoms: O_38  and  C_50
   15  A    between atoms: C_51  and  C_54
                            x       y       z     vdW  Elec       q    Type
                         _______ _______ _______ _____ _____    ______ ____

>  <TORSDO>
F 15

$$$$
=
 OpenBabel11052415063D

 55 60  0  0  1  0  0  0  0  0999 V2000
  187.1650  178.1520  141.8080 O   0  0  0  0  0  0  0  0  0  0  0  0
  186.9790  178.3410  138.5000 C   0  0  0  0  0  2  0  0  0  0  0  0
  183.3120  177.9790  137.5290 C   0  0  0  0  0  1  0  0  0  0  0  0
  181.6400  179.0280  139.9350 C   0  0  0  0  0  2  0  0  0  0  0  0
  179.8100  179.4540  141.7110 C   0  0  0  0  0  2  0  0  0  0  0  0
  182.1000  178.7390  142.3640 C   0  0  0  0  0  0  0  0  0  0  0  0
  180.6390  178.4350  142.5010 C   0  0  0  0  0  2  0  0  0  0  0  0
  184.2450  177.7500  139.8280 C   0  0  0  0  0  2  0  0  0  0  0  0
  180.2540  179.6170  140.2400 C   0  0  0  0  0  2  0  0  0  0  0  0
  189.4350  178.7800  142.3190 C   0  0  0  0  0  2  0  0  0  0  0  0
  182.6260  179.3160  141.0710 C   0  0  1  0  0  3  0  0  0  0  0  0
  189.6810  176.5530  140.5730 C   0  0  2  0  0  3  0  0  0  0  0  0
  186.2940  179.2340  141.7010 C   0  0  0  0  0  2  0  0  0  0  0  0
  188.8350  177.7350  140.0780 C   0  0  1  0  0  3  0  0  0  0  0  0
  184.3600  178.5650  143.1780 C   0  0  2  0  0  3  0  0  0  0  0  0
  187.6600  177.2090  139.2480 C   0  0  0  0  0  2  0  0  0  0  0  0
  182.9320  178.3850  143.2940 N   0  0  0  0  0  0  0  0  0  0  0  0
  185.7480  177.8080  137.7960 C   0  0  0  0  0  2  0  0  0  0  0  0
  184.4740  178.3370  138.4300 C   0  0  1  0  0  3  0  0  0  0  0  0
  189.8800  177.5180  142.7400 O   0  0  0  0  0  0  0  0  0  0  0  0
  188.3520  178.6300  141.2420 C   0  0  1  0  0  3  0  0  0  0  0  0
  183.9840  178.8030  140.8200 N   0  0  1  0  0  0  0  0  0  0  0  0
  184.8760  178.8320  141.9460 C   0  0  1  0  0  3  0  0  0  0  0  0
  190.6330  177.0110  141.6770 C   0  0  0  0  0  2  0  0  0  0  0  0
  185.8190  177.1650  144.6110 C   0  0  0  0  0  3  0  0  0  0  0  0
  186.9450  178.0610  146.6880 C   0  0  1  0  0  3  0  0  0  0  0  0
  185.3280  179.4650  145.3810 C   0  0  0  0  0  2  0  0  0  0  0  0
  185.7660  179.0250  146.7780 C   0  0  0  0  0  2  0  0  0  0  0  0
  186.5330  176.8260  145.8890 C   0  0  0  0  0  2  0  0  0  0  0  0
  185.1720  178.3200  144.4060 C   0  0  0  0  0  0  0  0  0  0  0  0
  188.0480  178.6780  146.0880 O   0  0  0  0  0  0  0  0  0  0  0  0
  189.1500  177.9270  146.5000 C   0  0  0  0  0  2  0  0  0  0  0  0
  189.0810  177.7160  147.9980 C   0  0  0  0  0  1  0  0  0  0  0  0
  190.4780  175.9640  139.4200 C   0  0  0  0  0  2  0  0  0  0  0  0
  194.2770  176.4490  137.0020 O   0  0  0  0  0  0  0  0  0  0  0  0
  193.0600  176.5410  137.1930 C   0  0  0  0  0  0  0  0  0  0  0  0
  190.3250  176.3150  137.0380 C   0  0  1  0  0  3  0  0  0  0  0  0
  191.7760  176.6210  137.4090 C   0  0  0  0  0  0  0  0  0  0  0  0
  190.5680  176.9670  138.2860 C   0  0  2  0  0  3  0  0  0  0  0  0
  189.7920  177.2550  135.9440 C   0  0  2  0  0  3  0  0  0  0  0  0
  189.3930  178.5030  136.4450 O   0  0  0  0  0  1  0  0  0  0  0  0
  188.6440  176.6130  135.1620 C   0  0  2  0  0  3  0  0  0  0  0  0
  187.7500  177.5820  134.6910 O   0  0  0  0  0  1  0  0  0  0  0  0
  187.9580  175.5230  136.0050 C   0  0  0  0  0  2  0  0  0  0  0  0
  188.2610  173.2470  136.7950 C   0  0  0  0  0  1  0  0  0  0  0  0
  189.1670  173.8160  134.5970 C   0  0  0  0  0  1  0  0  0  0  0  0
  187.9860  174.0490  135.5390 C   0  0  0  0  0  0  0  0  0  0  0  0
  186.6330  173.5560  134.9380 C   0  0  2  0  0  3  0  0  0  0  0  0
  185.6550  174.7040  134.6030 C   0  0  0  0  0  2  0  0  0  0  0  0
  184.6270  174.9220  135.7080 C   0  0  0  0  0  2  0  0  0  0  0  0
  183.3620  174.4970  135.2890 O   0  0  0  0  0  1  0  0  0  0  0  0
  186.0110  172.5910  135.7520 O   0  0  0  0  0  0  0  0  0  0  0  0
  185.5950  171.5400  134.9140 C   0  0  0  0  0  2  0  0  0  0  0  0
  183.9130  171.4490  136.7710 C   0  0  0  0  0  1  0  0  0  0  0  0
  184.3560  170.8390  135.4580 C   0  0  0  0  0  2  0  0  0  0  0  0
  2 16  1  0  0  0  0
  4  9  1  0  0  0  0
  5  7  1  0  0  0  0
  6  7  1  0  0  0  0
  6 17  2  0  0  0  0
  9  5  1  0  0  0  0
 10 20  1  0  0  0  0
 11  4  1  6  0  0  0
 11  6  1  0  0  0  0
 12 34  1  6  0  0  0
 12 24  1  0  0  0  0
 13  1  1  0  0  0  0
 14 16  1  1  0  0  0
 14 12  1  0  0  0  0
 14 21  1  0  0  0  0
 15 17  1  0  0  0  0
 15 30  1  6  0  0  0
 18 19  1  0  0  0  0
 18  2  1  0  0  0  0
 19  3  1  6  0  0  0
 19  8  1  0  0  0  0
 21  1  1  0  0  0  0
 21 10  1  1  0  0  0
 22  8  1  1  0  0  0
 22 11  1  0  0  0  0
 22 23  1  0  0  0  0
 23 13  1  1  0  0  0
 23 15  1  0  0  0  0
 24 20  1  0  0  0  0
 25 29  1  0  0  0  0
 26 31  1  6  0  0  0
 26 28  1  0  0  0  0
 27 28  1  0  0  0  0
 29 26  1  0  0  0  0
 30 25  2  0  0  0  0
 30 27  1  0  0  0  0
 31 32  1  0  0  0  0
 32 33  1  0  0  0  0
 35 36  2  0  0  0  0
 36 38  2  0  0  0  0
 37 40  1  6  0  0  0
 37 38  1  0  0  0  0
 37 39  1  0  0  0  0
 38 39  1  0  0  0  0
 39 34  1  1  0  0  0
 40 41  1  1  0  0  0
 42 43  1  1  0  0  0
 42 40  1  0  0  0  0
 42 44  1  0  0  0  0
 46 47  1  0  0  0  0
 47 44  1  0  0  0  0
 47 45  1  0  0  0  0
 48 49  1  1  0  0  0
 48 47  1  0  0  0  0
 48 52  1  0  0  0  0
 49 50  1  0  0  0  0
 51 50  1  0  0  0  0
 53 55  1  0  0  0  0
 53 52  1  0  0  0  0
 55 54  1  0  0  0  0
M  END
>  <MODEL>
4

>  <REMARK>
 VINA RESULT:      -6.7      2.471      7.972
  Name = 
  15 active torsions:
  status: ('A' for Active; 'I' for Inactive)
    1  A    between atoms: C_3  and  C_14
    2  A    between atoms: C_3  and  O_38
    3  A    between atoms: C_6  and  C_20
    4  A    between atoms: C_6  and  C_53
    5  A    between atoms: O_10  and  C_18
    6  A    between atoms: O_10  and  C_32
    7  A    between atoms: C_11  and  C_29
    8  A    between atoms: C_20  and  C_22
    9  A    between atoms: C_27  and  C_54
   10  A    between atoms: C_29  and  C_50
   11  A    between atoms: C_30  and  C_50
   12  A    between atoms: C_30  and  C_53
   13  A    between atoms: C_33  and  C_52
   14  A    between atoms: O_38  and  C_50
   15  A    between atoms: C_51  and  C_54
                            x       y       z     vdW  Elec       q    Type
                         _______ _______ _______ _____ _____    ______ ____

>  <TORSDO>
F 15

$$$$
=
 OpenBabel11052415063D

 55 60  0  0  1  0  0  0  0  0999 V2000
  187.5850  177.6670  143.1780 O   0  0  0  0  0  0  0  0  0  0  0  0
  185.6260  177.7570  140.5010 C   0  0  0  0  0  2  0  0  0  0  0  0
  187.8490  178.3590  137.4660 C   0  0  0  0  0  1  0  0  0  0  0  0
  190.6490  177.1910  138.1590 C   0  0  0  0  0  2  0  0  0  0  0  0
  193.1820  176.7030  138.3260 C   0  0  0  0  0  2  0  0  0  0  0  0
  191.8400  177.2600  140.3440 C   0  0  0  0  0  0  0  0  0  0  0  0
  193.0610  177.6170  139.5510 C   0  0  0  0  0  2  0  0  0  0  0  0
  188.5920  178.3580  139.8440 C   0  0  0  0  0  2  0  0  0  0  0  0
  191.9020  176.6410  137.4620 C   0  0  0  0  0  2  0  0  0  0  0  0
  186.1440  176.9000  144.9510 C   0  0  0  0  0  2  0  0  0  0  0  0
  190.6030  176.7690  139.6310 C   0  0  1  0  0  3  0  0  0  0  0  0
  184.8860  179.2490  143.9690 C   0  0  2  0  0  3  0  0  0  0  0  0
  188.1710  176.6370  142.4460 C   0  0  0  0  0  2  0  0  0  0  0  0
  185.2040  178.1500  142.9450 C   0  0  1  0  0  3  0  0  0  0  0  0
  190.6150  177.2680  142.4170 C   0  0  0  0  0  0  0  0  0  0  0  0
  185.5950  178.7930  141.6110 C   0  0  0  0  0  2  0  0  0  0  0  0
  191.7940  177.5000  141.6170 N   0  0  0  0  0  0  0  0  0  0  0  0
  186.1390  178.4000  139.2300 C   0  0  0  0  0  2  0  0  0  0  0  0
  187.5170  177.8780  138.8610 C   0  0  1  0  0  3  0  0  0  0  0  0
  186.0910  178.1030  145.6720 O   0  0  0  0  0  0  0  0  0  0  0  0
  186.3000  177.1850  143.4520 C   0  0  1  0  0  3  0  0  0  0  0  0
  189.4040  177.2400  140.3450 N   0  0  0  0  0  0  0  0  0  0  0  0
  189.4290  177.0790  141.7720 C   0  0  0  0  0  0  0  0  0  0  0  0
  184.8430  178.6610  145.3790 C   0  0  0  0  0  2  0  0  0  0  0  0
  190.5390  178.5190  144.5550 C   0  0  0  0  0  3  0  0  0  0  0  0
  190.8310  177.3940  146.7980 C   0  0  1  0  0  3  0  0  0  0  0  0
  191.1060  176.1120  144.6580 C   0  0  0  0  0  2  0  0  0  0  0  0
  191.6820  176.3710  146.0510 C   0  0  0  0  0  2  0  0  0  0  0  0
  190.8150  178.7080  146.0190 C   0  0  0  0  0  2  0  0  0  0  0  0
  190.7710  177.3750  143.8970 C   0  0  0  0  0  0  0  0  0  0  0  0
  189.5260  176.9220  146.9750 O   0  0  0  0  0  0  0  0  0  0  0  0
  188.8240  177.9970  147.5210 C   0  0  0  0  0  2  0  0  0  0  0  0
  187.9290  177.4980  148.6360 C   0  0  0  0  0  1  0  0  0  0  0  0
  183.5490  179.8950  143.6410 C   0  0  0  0  0  2  0  0  0  0  0  0
  179.0790  179.9840  144.3630 O   0  0  0  0  0  0  0  0  0  0  0  0
  180.0980  179.6880  143.7320 C   0  0  0  0  0  0  0  0  0  0  0  0
  182.0470  179.4270  141.8110 C   0  0  1  0  0  3  0  0  0  0  0  0
  181.1850  179.3940  143.0730 C   0  0  0  0  0  0  0  0  0  0  0  0
  182.6260  178.8780  142.9970 C   0  0  2  0  0  3  0  0  0  0  0  0
  181.6200  178.3650  140.7840 C   0  0  2  0  0  3  0  0  0  0  0  0
  182.3090  177.1530  140.9360 O   0  0  0  0  0  1  0  0  0  0  0  0
  181.7700  178.8770  139.3510 C   0  0  2  0  0  3  0  0  0  0  0  0
  181.3440  180.2060  139.2430 O   0  0  0  0  0  1  0  0  0  0  0  0
  181.0560  177.9380  138.3630 C   0  0  0  0  0  2  0  0  0  0  0  0
  183.2100  177.8780  137.2430 C   0  0  0  0  0  1  0  0  0  0  0  0
  181.2270  177.3390  135.9190 C   0  0  0  0  0  1  0  0  0  0  0  0
  181.8700  177.1710  137.2950 C   0  0  0  0  0  0  0  0  0  0  0  0
  182.1290  175.6750  137.6580 C   0  0  2  0  0  3  0  0  0  0  0  0
  181.0430  175.0700  138.5760 C   0  0  0  0  0  2  0  0  0  0  0  0
  180.0020  174.2810  137.7890 C   0  0  0  0  0  2  0  0  0  0  0  0
  179.9180  172.9700  138.2690 O   0  0  0  0  0  1  0  0  0  0  0  0
  183.4110  175.4750  138.2000 O   0  0  0  0  0  0  0  0  0  0  0  0
  183.8220  174.1780  137.8400 C   0  0  0  0  0  2  0  0  0  0  0  0
  185.8660  175.2260  136.8320 C   0  0  0  0  0  1  0  0  0  0  0  0
  184.7700  174.1960  136.6470 C   0  0  0  0  0  2  0  0  0  0  0  0
  1 21  1  0  0  0  0
  2 16  1  0  0  0  0
  5  7  1  0  0  0  0
  6 17  2  0  0  0  0
  7  6  1  0  0  0  0
  8 22  1  0  0  0  0
  9  4  1  0  0  0  0
  9  5  1  0  0  0  0
 10 20  1  0  0  0  0
 11  4  1  6  0  0  0
 11  6  1  0  0  0  0
 11 22  1  0  0  0  0
 12 34  1  6  0  0  0
 12 24  1  0  0  0  0
 13  1  1  0  0  0  0
 14 16  1  6  0  0  0
 14 21  1  0  0  0  0
 14 12  1  0  0  0  0
 15 30  1  0  0  0  0
 17 15  1  0  0  0  0
 18  2  1  0  0  0  0
 19  3  1  6  0  0  0
 19 18  1  0  0  0  0
 19  8  1  0  0  0  0
 21 10  1  1  0  0  0
 22 23  1  0  0  0  0
 23 15  2  0  0  0  0
 23 13  1  0  0  0  0
 24 20  1  0  0  0  0
 25 29  1  0  0  0  0
 26 31  1  6  0  0  0
 27 28  1  0  0  0  0
 28 26  1  0  0  0  0
 29 26  1  0  0  0  0
 30 25  2  0  0  0  0
 30 27  1  0  0  0  0
 31 32  1  0  0  0  0
 32 33  1  0  0  0  0
 36 35  2  0  0  0  0
 37 40  1  6  0  0  0
 37 39  1  0  0  0  0
 37 38  1  0  0  0  0
 38 36  2  0  0  0  0
 39 38  1  0  0  0  0
 39 34  1  1  0  0  0
 40 41  1  6  0  0  0
 42 43  1  1  0  0  0
 42 40  1  0  0  0  0
 44 42  1  0  0  0  0
 45 47  1  0  0  0  0
 46 47  1  0  0  0  0
 47 48  1  0  0  0  0
 47 44  1  0  0  0  0
 48 52  1  0  0  0  0
 48 49  1  1  0  0  0
 50 51  1  0  0  0  0
 50 49  1  0  0  0  0
 53 52  1  0  0  0  0
 55 54  1  0  0  0  0
 55 53  1  0  0  0  0
M  END
>  <MODEL>
5

>  <REMARK>
 VINA RESULT:      -6.6      2.854     10.164
  Name = 
  15 active torsions:
  status: ('A' for Active; 'I' for Inactive)
    1  A    between atoms: C_3  and  C_14
    2  A    between atoms: C_3  and  O_38
    3  A    between atoms: C_6  and  C_20
    4  A    between atoms: C_6  and  C_53
    5  A    between atoms: O_10  and  C_18
    6  A    between atoms: O_10  and  C_32
    7  A    between atoms: C_11  and  C_29
    8  A    between atoms: C_20  and  C_22
    9  A    between atoms: C_27  and  C_54
   10  A    between atoms: C_29  and  C_50
   11  A    between atoms: C_30  and  C_50
   12  A    between atoms: C_30  and  C_53
   13  A    between atoms: C_33  and  C_52
   14  A    between atoms: O_38  and  C_50
   15  A    between atoms: C_51  and  C_54
                            x       y       z     vdW  Elec       q    Type
                         _______ _______ _______ _____ _____    ______ ____

>  <TORSDO>
F 15

$$$$
=
 OpenBabel11052415063D

 55 60  0  0  1  0  0  0  0  0999 V2000
  185.9290  178.2490  140.2790 O   0  0  0  0  0  0  0  0  0  0  0  0
  184.1650  178.8080  143.0330 C   0  0  0  0  0  2  0  0  0  0  0  0
  186.1690  177.4570  145.9790 C   0  0  0  0  0  1  0  0  0  0  0  0
  189.1690  177.6050  145.1660 C   0  0  0  0  0  2  0  0  0  0  0  0
  191.7080  177.2020  144.8940 C   0  0  0  0  0  2  0  0  0  0  0  0
  190.1760  177.1540  142.9350 C   0  0  0  0  0  0  0  0  0  0  0  0
  191.2340  176.3950  143.6790 C   0  0  0  0  0  2  0  0  0  0  0  0
  186.7710  177.2260  143.5730 C   0  0  0  0  0  2  0  0  0  0  0  0
  190.5610  177.6890  145.8080 C   0  0  0  0  0  2  0  0  0  0  0  0
  184.7660  179.4770  138.5610 C   0  0  0  0  0  2  0  0  0  0  0  0
  189.2110  178.0320  143.6950 C   0  0  1  0  0  3  0  0  0  0  0  0
  182.8220  177.6890  139.6060 C   0  0  2  0  0  3  0  0  0  0  0  0
  186.8590  179.0100  140.9810 C   0  0  0  0  0  2  0  0  0  0  0  0
  183.5370  178.6050  140.6110 C   0  0  1  0  0  3  0  0  0  0  0  0
  188.9400  177.5840  140.9140 C   0  0  2  0  0  3  0  0  0  0  0  0
  183.7380  177.8550  141.9310 C   0  0  0  0  0  2  0  0  0  0  0  0
  190.0000  176.9550  141.6660 N   0  0  0  0  0  0  0  0  0  0  0  0
  184.4790  178.0180  144.2860 C   0  0  0  0  0  2  0  0  0  0  0  0
  185.9650  178.0350  144.5960 C   0  0  1  0  0  3  0  0  0  0  0  0
  184.2760  178.3720  137.8500 O   0  0  0  0  0  0  0  0  0  0  0  0
  184.8750  179.1430  140.0550 C   0  0  1  0  0  3  0  0  0  0  0  0
  187.8960  178.0040  143.0330 N   0  0  1  0  0  0  0  0  0  0  0  0
  187.9160  178.1590  141.6050 C   0  0  1  0  0  3  0  0  0  0  0  0
  182.9260  178.2700  138.1960 C   0  0  0  0  0  2  0  0  0  0  0  0
  188.9460  176.2470  138.8270 C   0  0  0  0  0  3  0  0  0  0  0  0
  188.8110  177.3040  136.5360 C   0  0  1  0  0  3  0  0  0  0  0  0
  188.9940  178.7120  138.6060 C   0  0  0  0  0  2  0  0  0  0  0  0
  189.4920  178.5110  137.1740 C   0  0  0  0  0  2  0  0  0  0  0  0
  189.1310  176.0510  137.3490 C   0  0  0  0  0  2  0  0  0  0  0  0
  188.9910  177.4430  139.4290 C   0  0  0  0  0  0  0  0  0  0  0  0
  187.4270  177.4940  136.4660 O   0  0  0  0  0  0  0  0  0  0  0  0
  186.9300  176.3170  135.9040 C   0  0  0  0  0  2  0  0  0  0  0  0
  186.1000  176.6560  134.6840 C   0  0  0  0  0  1  0  0  0  0  0  0
  181.3590  177.5360  139.9920 C   0  0  0  0  0  2  0  0  0  0  0  0
  178.9340  174.5850  142.4250 O   0  0  0  0  0  0  0  0  0  0  0  0
  179.3030  175.1260  141.3780 C   0  0  0  0  0  0  0  0  0  0  0  0
  179.4220  176.4960  138.9970 C   0  0  1  0  0  3  0  0  0  0  0  0
  179.6970  175.7150  140.2830 C   0  0  0  0  0  0  0  0  0  0  0  0
  180.7870  176.2790  139.3640 C   0  0  2  0  0  3  0  0  0  0  0  0
  178.9380  175.5870  137.8550 C   0  0  2  0  0  3  0  0  0  0  0  0
  178.9300  174.2290  138.2060 O   0  0  0  0  0  1  0  0  0  0  0  0
  179.7640  175.7950  136.5840 C   0  0  2  0  0  3  0  0  0  0  0  0
  179.0840  176.6040  135.6670 O   0  0  0  0  0  1  0  0  0  0  0  0
  180.1900  174.4410  135.9870 C   0  0  0  0  0  2  0  0  0  0  0  0
  182.4370  175.2320  136.4600 C   0  0  0  0  0  1  0  0  0  0  0  0
  182.1670  173.5710  134.6870 C   0  0  0  0  0  1  0  0  0  0  0  0
  181.6650  173.9870  136.0690 C   0  0  0  0  0  0  0  0  0  0  0  0
  181.9260  172.8970  137.1560 C   0  0  2  0  0  3  0  0  0  0  0  0
  183.3390  172.2780  137.0770 C   0  0  0  0  0  2  0  0  0  0  0  0
  184.4090  173.2210  137.6190 C   0  0  0  0  0  2  0  0  0  0  0  0
  185.6760  172.6400  137.5030 O   0  0  0  0  0  1  0  0  0  0  0  0
  180.9390  171.8940  137.1490 O   0  0  0  0  0  0  0  0  0  0  0  0
  181.5740  170.6830  136.8170 C   0  0  0  0  0  2  0  0  0  0  0  0
  179.5100  170.2160  135.4720 C   0  0  0  0  0  1  0  0  0  0  0  0
  181.0170  170.0860  135.5300 C   0  0  0  0  0  2  0  0  0  0  0  0
  1 13  1  0  0  0  0
  2 18  1  0  0  0  0
  4  9  1  0  0  0  0
  5  9  1  0  0  0  0
  6  7  1  0  0  0  0
  6 11  1  0  0  0  0
  7  5  1  0  0  0  0
  8 19  1  0  0  0  0
 11  4  1  1  0  0  0
 12 34  1  1  0  0  0
 12 14  1  0  0  0  0
 14 16  1  1  0  0  0
 15 30  1  6  0  0  0
 15 23  1  0  0  0  0
 15 17  1  0  0  0  0
 16  2  1  0  0  0  0
 17  6  2  0  0  0  0
 18 19  1  0  0  0  0
 19  3  1  1  0  0  0
 20 24  1  0  0  0  0
 20 10  1  0  0  0  0
 21 10  1  6  0  0  0
 21  1  1  0  0  0  0
 21 14  1  0  0  0  0
 22  8  1  6  0  0  0
 22 11  1  0  0  0  0
 23 13  1  1  0  0  0
 23 22  1  0  0  0  0
 24 12  1  0  0  0  0
 25 30  2  0  0  0  0
 26 31  1  1  0  0  0
 26 28  1  0  0  0  0
 26 29  1  0  0  0  0
 27 30  1  0  0  0  0
 28 27  1  0  0  0  0
 29 25  1  0  0  0  0
 32 31  1  0  0  0  0
 33 32  1  0  0  0  0
 36 35  2  0  0  0  0
 37 40  1  6  0  0  0
 37 39  1  0  0  0  0
 37 38  1  0  0  0  0
 38 36  2  0  0  0  0
 39 34  1  1  0  0  0
 39 38  1  0  0  0  0
 40 41  1  1  0  0  0
 42 43  1  6  0  0  0
 42 40  1  0  0  0  0
 44 47  1  0  0  0  0
 44 42  1  0  0  0  0
 46 47  1  0  0  0  0
 47 45  1  0  0  0  0
 47 48  1  0  0  0  0
 48 49  1  6  0  0  0
 49 50  1  0  0  0  0
 51 50  1  0  0  0  0
 52 48  1  0  0  0  0
 53 52  1  0  0  0  0
 54 55  1  0  0  0  0
 55 53  1  0  0  0  0
M  END
>  <MODEL>
6

>  <REMARK>
 VINA RESULT:      -6.6      3.117     10.434
  Name = 
  15 active torsions:
  status: ('A' for Active; 'I' for Inactive)
    1  A    between atoms: C_3  and  C_14
    2  A    between atoms: C_3  and  O_38
    3  A    between atoms: C_6  and  C_20
    4  A    between atoms: C_6  and  C_53
    5  A    between atoms: O_10  and  C_18
    6  A    between atoms: O_10  and  C_32
    7  A    between atoms: C_11  and  C_29
    8  A    between atoms: C_20  and  C_22
    9  A    between atoms: C_27  and  C_54
   10  A    between atoms: C_29  and  C_50
   11  A    between atoms: C_30  and  C_50
   12  A    between atoms: C_30  and  C_53
   13  A    between atoms: C_33  and  C_52
   14  A    between atoms: O_38  and  C_50
   15  A    between atoms: C_51  and  C_54
                            x       y       z     vdW  Elec       q    Type
                         _______ _______ _______ _____ _____    ______ ____

>  <TORSDO>
F 15

$$$$
=
 OpenBabel11052415063D

 55 60  0  0  1  0  0  0  0  0999 V2000
  187.0380  178.0000  140.5590 O   0  0  0  0  0  0  0  0  0  0  0  0
  184.8440  178.9660  142.8540 C   0  0  0  0  0  2  0  0  0  0  0  0
  186.0810  177.7110  146.2320 C   0  0  0  0  0  1  0  0  0  0  0  0
  189.1810  177.5120  146.0340 C   0  0  0  0  0  2  0  0  0  0  0  0
  191.6660  176.8560  146.3100 C   0  0  0  0  0  2  0  0  0  0  0  0
  190.5470  176.7700  144.0910 C   0  0  0  0  0  0  0  0  0  0  0  0
  191.3530  175.9890  145.0850 C   0  0  0  0  0  2  0  0  0  0  0  0
  187.1110  177.2090  144.0200 C   0  0  0  0  0  2  0  0  0  0  0  0
  190.4230  177.5260  146.9370 C   0  0  0  0  0  2  0  0  0  0  0  0
  186.3690  179.1680  138.5600 C   0  0  0  0  0  2  0  0  0  0  0  0
  189.5520  177.7970  144.5760 C   0  0  1  0  0  3  0  0  0  0  0  0
  184.0800  177.6670  139.3140 C   0  0  2  0  0  3  0  0  0  0  0  0
  187.8910  178.7350  141.3800 C   0  0  0  0  0  2  0  0  0  0  0  0
  184.6800  178.6010  140.3750 C   0  0  1  0  0  3  0  0  0  0  0  0
  189.7800  177.1240  141.8360 C   0  0  0  0  0  0  0  0  0  0  0  0
  184.5390  177.9590  141.7580 C   0  0  0  0  0  2  0  0  0  0  0  0
  190.6010  176.4730  142.8290 N   0  0  0  0  0  0  0  0  0  0  0  0
  184.8220  178.2670  144.1970 C   0  0  0  0  0  2  0  0  0  0  0  0
  186.2130  178.1770  144.7990 C   0  0  1  0  0  3  0  0  0  0  0  0
  185.9120  178.0510  137.8440 O   0  0  0  0  0  0  0  0  0  0  0  0
  186.1510  178.9620  140.0640 C   0  0  1  0  0  3  0  0  0  0  0  0
  188.3960  177.8290  143.6650 N   0  0  0  0  0  0  0  0  0  0  0  0
  188.7100  177.8510  142.2630 C   0  0  0  0  0  0  0  0  0  0  0  0
  184.5170  178.1050  137.9170 C   0  0  0  0  0  2  0  0  0  0  0  0
  191.3580  176.8850  139.9390 C   0  0  0  0  0  3  0  0  0  0  0  0
  190.6420  176.0100  137.6800 C   0  0  1  0  0  3  0  0  0  0  0  0
  188.9670  176.4130  139.5050 C   0  0  0  0  0  2  0  0  0  0  0  0
  189.2680  176.5830  138.0160 C   0  0  0  0  0  2  0  0  0  0  0  0
  191.7110  176.7460  138.4860 C   0  0  0  0  0  2  0  0  0  0  0  0
  190.1030  176.8450  140.4060 C   0  0  0  0  0  0  0  0  0  0  0  0
  190.6900  174.6390  137.9530 O   0  0  0  0  0  0  0  0  0  0  0  0
  190.3680  174.0190  136.7440 C   0  0  0  0  0  2  0  0  0  0  0  0
  191.4170  174.3660  135.7090 C   0  0  0  0  0  1  0  0  0  0  0  0
  182.5620  177.6830  139.4060 C   0  0  0  0  0  2  0  0  0  0  0  0
  178.9670  176.1850  141.7180 O   0  0  0  0  0  0  0  0  0  0  0  0
  179.7580  176.1870  140.7700 C   0  0  0  0  0  0  0  0  0  0  0  0
  180.9160  176.3240  138.2800 C   0  0  1  0  0  3  0  0  0  0  0  0
  180.5970  176.2100  139.7710 C   0  0  0  0  0  0  0  0  0  0  0  0
  182.0150  176.2840  139.1930 C   0  0  2  0  0  3  0  0  0  0  0  0
  180.6870  175.0000  137.5320 C   0  0  2  0  0  3  0  0  0  0  0  0
  180.6020  173.8960  138.3920 O   0  0  0  0  0  1  0  0  0  0  0  0
  181.7660  174.7590  136.4740 C   0  0  2  0  0  3  0  0  0  0  0  0
  181.7980  175.7990  135.5390 O   0  0  0  0  0  1  0  0  0  0  0  0
  181.5870  173.3750  135.8250 C   0  0  0  0  0  2  0  0  0  0  0  0
  182.3390  171.2880  134.8370 C   0  0  0  0  0  1  0  0  0  0  0  0
  182.8820  171.6930  137.1850 C   0  0  0  0  0  1  0  0  0  0  0  0
  182.7570  172.3640  135.8190 C   0  0  0  0  0  0  0  0  0  0  0  0
  184.1070  172.9710  135.3220 C   0  0  2  0  0  3  0  0  0  0  0  0
  185.0080  171.9490  134.5940 C   0  0  0  0  0  2  0  0  0  0  0  0
  186.3000  171.6780  135.3580 C   0  0  0  0  0  2  0  0  0  0  0  0
  186.5670  170.3050  135.3920 O   0  0  0  0  0  1  0  0  0  0  0  0
  184.8130  173.6120  136.3570 O   0  0  0  0  0  0  0  0  0  0  0  0
  185.1870  174.8840  135.8850 C   0  0  0  0  0  2  0  0  0  0  0  0
  187.4000  175.6110  134.9560 C   0  0  0  0  0  1  0  0  0  0  0  0
  186.6440  175.1990  136.2020 C   0  0  0  0  0  2  0  0  0  0  0  0
  1 13  1  0  0  0  0
  2 18  1  0  0  0  0
  4  9  1  0  0  0  0
  5  9  1  0  0  0  0
  6 11  1  0  0  0  0
  6  7  1  0  0  0  0
  7  5  1  0  0  0  0
  8 19  1  0  0  0  0
 11  4  1  1  0  0  0
 12 34  1  6  0  0  0
 12 14  1  0  0  0  0
 13 23  1  0  0  0  0
 14 16  1  1  0  0  0
 15 23  2  0  0  0  0
 15 17  1  0  0  0  0
 16  2  1  0  0  0  0
 17  6  2  0  0  0  0
 18 19  1  0  0  0  0
 19  3  1  1  0  0  0
 20 24  1  0  0  0  0
 20 10  1  0  0  0  0
 21 10  1  6  0  0  0
 21 14  1  0  0  0  0
 21  1  1  0  0  0  0
 22  8  1  0  0  0  0
 22 11  1  0  0  0  0
 23 22  1  0  0  0  0
 24 12  1  0  0  0  0
 25 30  2  0  0  0  0
 26 31  1  1  0  0  0
 26 28  1  0  0  0  0
 26 29  1  0  0  0  0
 27 30  1  0  0  0  0
 28 27  1  0  0  0  0
 29 25  1  0  0  0  0
 30 15  1  0  0  0  0
 32 31  1  0  0  0  0
 33 32  1  0  0  0  0
 36 35  2  0  0  0  0
 37 40  1  6  0  0  0
 37 39  1  0  0  0  0
 37 38  1  0  0  0  0
 38 36  2  0  0  0  0
 39 34  1  1  0  0  0
 39 38  1  0  0  0  0
 40 41  1  1  0  0  0
 42 43  1  6  0  0  0
 42 40  1  0  0  0  0
 44 42  1  0  0  0  0
 45 47  1  0  0  0  0
 47 44  1  0  0  0  0
 47 46  1  0  0  0  0
 48 49  1  1  0  0  0
 48 47  1  0  0  0  0
 48 52  1  0  0  0  0
 49 50  1  0  0  0  0
 50 51  1  0  0  0  0
 53 55  1  0  0  0  0
 53 52  1  0  0  0  0
 54 55  1  0  0  0  0
M  END
>  <MODEL>
7

>  <REMARK>
 VINA RESULT:      -6.4      2.868     10.609
  Name = 
  15 active torsions:
  status: ('A' for Active; 'I' for Inactive)
    1  A    between atoms: C_3  and  C_14
    2  A    between atoms: C_3  and  O_38
    3  A    between atoms: C_6  and  C_20
    4  A    between atoms: C_6  and  C_53
    5  A    between atoms: O_10  and  C_18
    6  A    between atoms: O_10  and  C_32
    7  A    between atoms: C_11  and  C_29
    8  A    between atoms: C_20  and  C_22
    9  A    between atoms: C_27  and  C_54
   10  A    between atoms: C_29  and  C_50
   11  A    between atoms: C_30  and  C_50
   12  A    between atoms: C_30  and  C_53
   13  A    between atoms: C_33  and  C_52
   14  A    between atoms: O_38  and  C_50
   15  A    between atoms: C_51  and  C_54
                            x       y       z     vdW  Elec       q    Type
                         _______ _______ _______ _____ _____    ______ ____

>  <TORSDO>
F 15

$$$$
=
 OpenBabel11052415063D

 55 60  0  0  1  0  0  0  0  0999 V2000
  185.7930  176.6720  137.8110 O   0  0  0  0  0  0  0  0  0  0  0  0
  188.2290  178.8020  138.5450 C   0  0  0  0  0  2  0  0  0  0  0  0
  191.5370  176.9560  138.1340 C   0  0  0  0  0  1  0  0  0  0  0  0
  191.0650  174.7320  136.0090 C   0  0  0  0  0  2  0  0  0  0  0  0
  191.1430  172.5700  134.5940 C   0  0  0  0  0  2  0  0  0  0  0  0
  189.0420  173.3140  135.6990 C   0  0  0  0  0  0  0  0  0  0  0  0
  189.9960  172.1690  135.5290 C   0  0  0  0  0  2  0  0  0  0  0  0
  189.2670  175.9490  137.9380 C   0  0  0  0  0  2  0  0  0  0  0  0
  191.8480  173.8850  134.9950 C   0  0  0  0  0  2  0  0  0  0  0  0
  183.8080  178.0370  137.7230 C   0  0  0  0  0  2  0  0  0  0  0  0
  189.5660  174.7310  135.6920 C   0  0  1  0  0  3  0  0  0  0  0  0
  184.8440  178.4440  140.3360 C   0  0  2  0  0  3  0  0  0  0  0  0
  186.4940  176.6230  136.6090 C   0  0  0  0  0  2  0  0  0  0  0  0
  185.7970  178.7050  139.1610 C   0  0  1  0  0  3  0  0  0  0  0  0
  186.8530  174.1490  136.2530 C   0  0  2  0  0  3  0  0  0  0  0  0
  187.2180  178.2890  139.5550 C   0  0  0  0  0  2  0  0  0  0  0  0
  187.7980  173.0910  135.9850 N   0  0  0  0  0  0  0  0  0  0  0  0
  189.6020  178.2650  138.8930 C   0  0  0  0  0  2  0  0  0  0  0  0
  190.0760  177.2490  137.8700 C   0  0  1  0  0  3  0  0  0  0  0  0
  183.1940  177.5360  138.8800 O   0  0  0  0  0  0  0  0  0  0  0  0
  185.3350  177.9930  137.8690 C   0  0  1  0  0  3  0  0  0  0  0  0
  188.7650  175.5540  136.6130 N   0  0  1  0  0  0  0  0  0  0  0  0
  187.3410  175.3960  136.5100 C   0  0  1  0  0  3  0  0  0  0  0  0
  183.3920  178.5100  139.8630 C   0  0  0  0  0  2  0  0  0  0  0  0
  184.9230  173.1120  137.4110 C   0  0  0  0  0  3  0  0  0  0  0  0
  182.5560  173.3130  136.5510 C   0  0  1  0  0  3  0  0  0  0  0  0
  184.4940  174.2190  135.2390 C   0  0  0  0  0  2  0  0  0  0  0  0
  183.1860  173.4300  135.1660 C   0  0  0  0  0  2  0  0  0  0  0  0
  183.5180  172.5850  137.4870 C   0  0  0  0  0  2  0  0  0  0  0  0
  185.4150  173.7630  136.3480 C   0  0  0  0  0  0  0  0  0  0  0  0
  182.2450  174.5760  137.0650 O   0  0  0  0  0  0  0  0  0  0  0  0
  180.8520  174.6530  137.0130 C   0  0  0  0  0  2  0  0  0  0  0  0
  180.3360  175.2670  138.2980 C   0  0  0  0  0  1  0  0  0  0  0  0
  185.0740  179.4730  141.4320 C   0  0  0  0  0  2  0  0  0  0  0  0
  184.0230  179.2160  145.8300 O   0  0  0  0  0  0  0  0  0  0  0  0
  184.6580  178.9040  144.8170 C   0  0  0  0  0  0  0  0  0  0  0  0
  185.7940  177.5560  142.7080 C   0  0  1  0  0  3  0  0  0  0  0  0
  185.3110  178.5800  143.7360 C   0  0  0  0  0  0  0  0  0  0  0  0
  186.0630  178.9350  142.4480 C   0  0  2  0  0  3  0  0  0  0  0  0
  187.0210  176.7690  143.2000 C   0  0  2  0  0  3  0  0  0  0  0  0
  186.9250  176.4000  144.5490 O   0  0  0  0  0  1  0  0  0  0  0  0
  188.3180  177.5440  142.9590 C   0  0  2  0  0  3  0  0  0  0  0  0
  189.1890  176.8260  142.1330 O   0  0  0  0  0  1  0  0  0  0  0  0
  188.9610  177.9520  144.2970 C   0  0  0  0  0  2  0  0  0  0  0  0
  191.3190  178.4710  144.0340 C   0  0  0  0  0  1  0  0  0  0  0  0
  190.6600  176.1170  143.9810 C   0  0  0  0  0  1  0  0  0  0  0  0
  190.3800  177.4570  144.6580 C   0  0  0  0  0  0  0  0  0  0  0  0
  190.6590  177.4230  146.1940 C   0  0  2  0  0  3  0  0  0  0  0  0
  190.8110  175.9930  146.7590 C   0  0  0  0  0  2  0  0  0  0  0  0
  192.2500  175.6840  147.1570 C   0  0  0  0  0  2  0  0  0  0  0  0
  192.6070  176.4090  148.2990 O   0  0  0  0  0  1  0  0  0  0  0  0
  189.7010  178.1510  146.9240 O   0  0  0  0  0  0  0  0  0  0  0  0
  189.3110  177.3530  148.0160 C   0  0  0  0  0  2  0  0  0  0  0  0
  187.2190  178.6670  147.5840 C   0  0  0  0  0  1  0  0  0  0  0  0
  187.8180  177.4750  148.3000 C   0  0  0  0  0  2  0  0  0  0  0  0
  1 21  1  0  0  0  0
  2 18  1  0  0  0  0
  2 16  1  0  0  0  0
  5  9  1  0  0  0  0
  5  7  1  0  0  0  0
  6 17  2  0  0  0  0
  7  6  1  0  0  0  0
  9  4  1  0  0  0  0
 10 20  1  0  0  0  0
 11  6  1  0  0  0  0
 11  4  1  1  0  0  0
 11 22  1  0  0  0  0
 12 34  1  1  0  0  0
 13  1  1  0  0  0  0
 14 16  1  1  0  0  0
 14 12  1  0  0  0  0
 15 30  1  1  0  0  0
 15 23  1  0  0  0  0
 17 15  1  0  0  0  0
 19  8  1  0  0  0  0
 19  3  1  1  0  0  0
 19 18  1  0  0  0  0
 20 24  1  0  0  0  0
 21 10  1  1  0  0  0
 21 14  1  0  0  0  0
 22  8  1  1  0  0  0
 23 13  1  6  0  0  0
 23 22  1  0  0  0  0
 24 12  1  0  0  0  0
 25 29  1  0  0  0  0
 26 31  1  1  0  0  0
 26 29  1  0  0  0  0
 27 30  1  0  0  0  0
 28 27  1  0  0  0  0
 28 26  1  0  0  0  0
 30 25  2  0  0  0  0
 32 31  1  0  0  0  0
 32 33  1  0  0  0  0
 36 35  2  0  0  0  0
 37 40  1  1  0  0  0
 37 38  1  0  0  0  0
 38 36  2  0  0  0  0
 39 34  1  6  0  0  0
 39 37  1  0  0  0  0
 39 38  1  0  0  0  0
 40 41  1  1  0  0  0
 42 43  1  1  0  0  0
 42 40  1  0  0  0  0
 42 44  1  0  0  0  0
 44 47  1  0  0  0  0
 45 47  1  0  0  0  0
 46 47  1  0  0  0  0
 47 48  1  0  0  0  0
 48 49  1  1  0  0  0
 48 52  1  0  0  0  0
 49 50  1  0  0  0  0
 50 51  1  0  0  0  0
 52 53  1  0  0  0  0
 53 55  1  0  0  0  0
 54 55  1  0  0  0  0
M  END
>  <MODEL>
8

>  <REMARK>
 VINA RESULT:      -6.3      2.376      6.247
  Name = 
  15 active torsions:
  status: ('A' for Active; 'I' for Inactive)
    1  A    between atoms: C_3  and  C_14
    2  A    between atoms: C_3  and  O_38
    3  A    between atoms: C_6  and  C_20
    4  A    between atoms: C_6  and  C_53
    5  A    between atoms: O_10  and  C_18
    6  A    between atoms: O_10  and  C_32
    7  A    between atoms: C_11  and  C_29
    8  A    between atoms: C_20  and  C_22
    9  A    between atoms: C_27  and  C_54
   10  A    between atoms: C_29  and  C_50
   11  A    between atoms: C_30  and  C_50
   12  A    between atoms: C_30  and  C_53
   13  A    between atoms: C_33  and  C_52
   14  A    between atoms: O_38  and  C_50
   15  A    between atoms: C_51  and  C_54
                            x       y       z     vdW  Elec       q    Type
                         _______ _______ _______ _____ _____    ______ ____

>  <TORSDO>
F 15

$$$$
=
 OpenBabel11052415063D

 55 60  0  0  1  0  0  0  0  0999 V2000
  186.3800  178.3350  141.1080 O   0  0  0  0  0  0  0  0  0  0  0  0
  184.8870  178.9900  138.2180 C   0  0  0  0  0  2  0  0  0  0  0  0
  181.1320  178.6110  138.7480 C   0  0  0  0  0  1  0  0  0  0  0  0
  180.5840  179.2280  141.7490 C   0  0  0  0  0  2  0  0  0  0  0  0
  179.6270  179.3130  144.1490 C   0  0  0  0  0  2  0  0  0  0  0  0
  181.9750  178.6130  143.7190 C   0  0  0  0  0  0  0  0  0  0  0  0
  180.6860  178.2280  144.3810 C   0  0  0  0  0  2  0  0  0  0  0  0
  182.9040  178.0940  140.4220 C   0  0  0  0  0  2  0  0  0  0  0  0
  179.4480  179.7060  142.6650 C   0  0  0  0  0  2  0  0  0  0  0  0
  188.6750  178.9820  140.7580 C   0  0  0  0  0  2  0  0  0  0  0  0
  181.9480  179.3920  142.4260 C   0  0  1  0  0  3  0  0  0  0  0  0
  188.1610  177.0420  138.7480 C   0  0  2  0  0  3  0  0  0  0  0  0
  185.5580  179.3810  141.5200 C   0  0  0  0  0  2  0  0  0  0  0  0
  187.2090  178.2450  138.8140 C   0  0  1  0  0  3  0  0  0  0  0  0
  184.3670  178.4220  143.5290 C   0  0  0  0  0  0  0  0  0  0  0  0
  185.7900  177.7930  138.4540 C   0  0  0  0  0  2  0  0  0  0  0  0
  183.1030  178.1650  144.1760 N   0  0  0  0  0  0  0  0  0  0  0  0
  183.4680  178.5100  137.9920 C   0  0  0  0  0  2  0  0  0  0  0  0
  182.5640  178.8860  139.1540 C   0  0  1  0  0  3  0  0  0  0  0  0
  189.2290  177.6930  140.7730 O   0  0  0  0  0  0  0  0  0  0  0  0
  187.2490  178.9410  140.1940 C   0  0  1  0  0  3  0  0  0  0  0  0
  183.0820  178.9810  141.5810 N   0  0  0  0  0  0  0  0  0  0  0  0
  184.3510  178.8870  142.2470 C   0  0  0  0  0  0  0  0  0  0  0  0
  189.4840  177.3780  139.4350 C   0  0  0  0  0  2  0  0  0  0  0  0
  186.4430  177.1010  143.8280 C   0  0  0  0  0  3  0  0  0  0  0  0
  188.1020  177.5780  145.6730 C   0  0  1  0  0  3  0  0  0  0  0  0
  185.9270  178.8210  145.5310 C   0  0  0  0  0  2  0  0  0  0  0  0
  186.9070  178.1050  146.4610 C   0  0  0  0  0  2  0  0  0  0  0  0
  187.6170  176.5900  144.6140 C   0  0  0  0  0  2  0  0  0  0  0  0
  185.5990  178.0400  144.2780 C   0  0  0  0  0  0  0  0  0  0  0  0
  188.8020  178.6280  145.0690 O   0  0  0  0  0  0  0  0  0  0  0  0
  189.8100  178.0090  144.3270 C   0  0  0  0  0  2  0  0  0  0  0  0
  190.9870  177.7100  145.2330 C   0  0  0  0  0  1  0  0  0  0  0  0
  188.4180  176.6610  137.2980 C   0  0  0  0  0  2  0  0  0  0  0  0
  184.4330  175.4540  135.5180 O   0  0  0  0  0  0  0  0  0  0  0  0
  185.6220  175.2810  135.8030 C   0  0  0  0  0  0  0  0  0  0  0  0
  188.3340  174.8380  135.7200 C   0  0  1  0  0  3  0  0  0  0  0  0
  186.8810  175.1210  136.1040 C   0  0  0  0  0  0  0  0  0  0  0  0
  188.0640  175.2030  137.0750 C   0  0  2  0  0  3  0  0  0  0  0  0
  188.6050  173.3370  135.5270 C   0  0  2  0  0  3  0  0  0  0  0  0
  188.2280  172.5690  136.6390 O   0  0  0  0  0  1  0  0  0  0  0  0
  190.0700  173.0710  135.1780 C   0  0  2  0  0  3  0  0  0  0  0  0
  190.2290  171.8090  134.5940 O   0  0  0  0  0  1  0  0  0  0  0  0
  190.9660  173.2770  136.4120 C   0  0  0  0  0  2  0  0  0  0  0  0
  191.9230  175.0920  137.7120 C   0  0  0  0  0  1  0  0  0  0  0  0
  191.8050  175.3710  135.2860 C   0  0  0  0  0  1  0  0  0  0  0  0
  192.0740  174.3560  136.3950 C   0  0  0  0  0  0  0  0  0  0  0  0
  193.5190  173.7690  136.3340 C   0  0  2  0  0  3  0  0  0  0  0  0
  194.5840  174.6940  136.9650 C   0  0  0  0  0  2  0  0  0  0  0  0
  195.4510  173.9590  137.9820 C   0  0  0  0  0  2  0  0  0  0  0  0
  196.7180  173.7010  137.4490 O   0  0  0  0  0  1  0  0  0  0  0  0
  193.8870  173.4000  135.0270 O   0  0  0  0  0  0  0  0  0  0  0  0
  194.3980  172.0900  135.0890 C   0  0  0  0  0  2  0  0  0  0  0  0
  193.3900  169.8610  135.6390 C   0  0  0  0  0  1  0  0  0  0  0  0
  193.6890  171.2550  136.1480 C   0  0  0  0  0  2  0  0  0  0  0  0
  1 13  1  0  0  0  0
  2 16  1  0  0  0  0
  4  9  1  0  0  0  0
  5  7  1  0  0  0  0
  6 17  2  0  0  0  0
  6  7  1  0  0  0  0
  8 22  1  0  0  0  0
  9  5  1  0  0  0  0
 10 20  1  0  0  0  0
 11  4  1  6  0  0  0
 11  6  1  0  0  0  0
 12 34  1  6  0  0  0
 12 14  1  0  0  0  0
 12 24  1  0  0  0  0
 13 23  1  0  0  0  0
 14 16  1  1  0  0  0
 14 21  1  0  0  0  0
 15 17  1  0  0  0  0
 15 30  1  0  0  0  0
 18  2  1  0  0  0  0
 18 19  1  0  0  0  0
 19  3  1  6  0  0  0
 19  8  1  0  0  0  0
 21 10  1  1  0  0  0
 21  1  1  0  0  0  0
 22 23  1  0  0  0  0
 22 11  1  0  0  0  0
 23 15  2  0  0  0  0
 24 20  1  0  0  0  0
 25 30  2  0  0  0  0
 25 29  1  0  0  0  0
 26 31  1  6  0  0  0
 26 28  1  0  0  0  0
 27 28  1  0  0  0  0
 29 26  1  0  0  0  0
 30 27  1  0  0  0  0
 32 31  1  0  0  0  0
 32 33  1  0  0  0  0
 35 36  2  0  0  0  0
 36 38  2  0  0  0  0
 37 40  1  1  0  0  0
 37 38  1  0  0  0  0
 37 39  1  0  0  0  0
 38 39  1  0  0  0  0
 39 34  1  6  0  0  0
 40 41  1  1  0  0  0
 42 43  1  1  0  0  0
 42 40  1  0  0  0  0
 42 44  1  0  0  0  0
 46 47  1  0  0  0  0
 47 44  1  0  0  0  0
 47 45  1  0  0  0  0
 48 47  1  0  0  0  0
 48 49  1  6  0  0  0
 49 50  1  0  0  0  0
 51 50  1  0  0  0  0
 52 53  1  0  0  0  0
 52 48  1  0  0  0  0
 53 55  1  0  0  0  0
 54 55  1  0  0  0  0
M  END
>  <MODEL>
9

>  <REMARK>
 VINA RESULT:      -6.0      3.175      8.725
  Name = 
  15 active torsions:
  status: ('A' for Active; 'I' for Inactive)
    1  A    between atoms: C_3  and  C_14
    2  A    between atoms: C_3  and  O_38
    3  A    between atoms: C_6  and  C_20
    4  A    between atoms: C_6  and  C_53
    5  A    between atoms: O_10  and  C_18
    6  A    between atoms: O_10  and  C_32
    7  A    between atoms: C_11  and  C_29
    8  A    between atoms: C_20  and  C_22
    9  A    between atoms: C_27  and  C_54
   10  A    between atoms: C_29  and  C_50
   11  A    between atoms: C_30  and  C_50
   12  A    between atoms: C_30  and  C_53
   13  A    between atoms: C_33  and  C_52
   14  A    between atoms: O_38  and  C_50
   15  A    between atoms: C_51  and  C_54
                            x       y       z     vdW  Elec       q    Type
                         _______ _______ _______ _____ _____    ______ ____

>  <TORSDO>
F 15

$$$$
