=
 OpenBabel11052414223D

 34 39  0  0  1  0  0  0  0  0999 V2000
  183.9790  174.5910  136.7710 C   0  0  1  0  0  0  0  0  0  0  0  0
  179.4720  177.3880  139.8210 O   0  0  0  0  0  0  0  0  0  0  0  0
  183.1230  176.7300  137.4700 C   0  0  1  0  0  0  0  0  0  0  0  0
  182.1110  177.8840  137.1100 C   0  0  2  0  0  3  0  0  0  0  0  0
  184.1360  173.0840  136.5930 C   0  0  2  0  0  3  0  0  0  0  0  0
  184.5890  179.6620  140.0210 O   0  0  0  0  0  1  0  0  0  0  0  0
  182.8960  172.4730  136.4120 O   0  0  0  0  0  1  0  0  0  0  0  0
  178.9310  180.1630  139.5410 O   0  0  0  0  0  1  0  0  0  0  0  0
  181.2450  178.5360  139.9630 C   0  0  2  0  0  3  0  0  0  0  0  0
  179.9580  178.3280  140.7530 C   0  0  1  0  0  0  0  0  0  0  0  0
  179.0540  179.5730  140.8000 C   0  0  1  0  0  3  0  0  0  0  0  0
  182.6710  175.3590  136.8760 C   0  0  1  0  0  3  0  0  0  0  0  0
  182.9930  178.6980  141.9250 C   0  0  0  0  0  1  0  0  0  0  0  0
  180.7120  177.3910  139.1560 C   0  0  2  0  0  3  0  0  0  0  0  0
  180.6710  177.7650  137.6840 C   0  0  2  0  0  3  0  0  0  0  0  0
  184.1920  173.6990  137.9780 C   0  0  0  0  0  2  0  0  0  0  0  0
  179.8220  179.9520  143.1410 C   0  0  0  0  0  3  0  0  0  0  0  0
  184.5510  176.9150  136.8310 C   0  0  2  0  0  3  0  0  0  0  0  0
  180.0740  178.6420  143.2920 C   0  0  0  0  0  3  0  0  0  0  0  0
  183.5400  178.9320  139.4570 C   0  0  1  0  0  3  0  0  0  0  0  0
  185.0990  175.5420  136.6270 C   0  0  0  0  0  0  0  0  0  0  0  0
  183.7490  177.4600  139.7430 C   0  0  1  0  0  3  0  0  0  0  0  0
  182.6570  178.2510  140.5060 C   0  0  2  0  0  0  0  0  0  0  0  0
  183.1480  176.4950  138.8840 O   0  0  0  0  0  0  0  0  0  0  0  0
  179.9120  176.8320  136.9790 O   0  0  0  0  0  1  0  0  0  0  0  0
  186.1050  175.3190  135.7800 C   0  0  0  0  0  2  0  0  0  0  0  0
  180.1120  177.6670  142.1380 C   0  0  0  0  0  2  0  0  0  0  0  0
  179.6250  180.5810  141.7910 C   0  0  0  0  0  2  0  0  0  0  0  0
  182.1450  175.4990  135.5820 O   0  0  0  0  0  0  0  0  0  0  0  0
  181.0680  174.6120  135.5160 C   0  0  0  0  0  1  0  0  0  0  0  0
  185.5650  177.8110  137.5310 C   0  0  0  0  0  2  0  0  0  0  0  0
  186.4380  178.3630  136.5940 O   0  0  0  0  0  1  0  0  0  0  0  0
  181.2090  179.3800  135.4690 O   0  0  0  0  0  1  0  0  0  0  0  0
  182.0840  178.3090  135.6440 C   0  0  0  0  0  2  0  0  0  0  0  0
  1 12  1  0  0  0  0
  1 16  1  1  0  0  0
  2 10  1  0  0  0  0
  3 24  1  1  0  0  0
  4 34  1  6  0  0  0
  4  3  1  0  0  0  0
  4 15  1  0  0  0  0
  5  7  1  1  0  0  0
  5  1  1  0  0  0  0
  5 16  1  0  0  0  0
  8 11  1  0  0  0  0
  9 23  1  0  0  0  0
  9 10  1  0  0  0  0
 10 11  1  0  0  0  0
 10 27  1  0  0  0  0
 11 28  1  0  0  0  0
 12  3  1  0  0  0  0
 14  2  1  0  0  0  0
 14  9  1  0  0  0  0
 15 14  1  0  0  0  0
 17 19  2  0  0  0  0
 18  3  1  0  0  0  0
 18 31  1  0  0  0  0
 20 22  1  0  0  0  0
 20  6  1  0  0  0  0
 20 23  1  0  0  0  0
 21  1  1  0  0  0  0
 21 18  1  0  0  0  0
 22 23  1  0  0  0  0
 23 13  1  0  0  0  0
 24 22  1  0  0  0  0
 25 15  1  0  0  0  0
 26 21  2  0  0  0  0
 27 19  1  0  0  0  0
 28 17  1  0  0  0  0
 29 12  1  0  0  0  0
 30 29  1  0  0  0  0
 32 31  1  0  0  0  0
 33 34  1  0  0  0  0
M  END
>  <MODEL>
1

>  <REMARK>
 VINA RESULT:      -5.2      0.000      0.000
  Name = 
  3 active torsions:
  status: ('A' for Active; 'I' for Inactive)
    1  A    between atoms: O_2  and  C_15
    2  A    between atoms: C_5  and  C_31
    3  A    between atoms: C_7  and  C_21
                            x       y       z     vdW  Elec       q    Type
                         _______ _______ _______ _____ _____    ______ ____

>  <TORSDO>
F 3

$$$$
=
 OpenBabel11052414223D

 34 39  0  0  1  0  0  0  0  0999 V2000
  180.0660  181.2660  138.2930 C   0  0  1  0  0  0  0  0  0  0  0  0
  183.7930  177.2220  135.6090 O   0  0  0  0  0  0  0  0  0  0  0  0
  181.1940  179.1580  138.5750 C   0  0  1  0  0  0  0  0  0  0  0  0
  181.1050  177.6100  138.2900 C   0  0  2  0  0  3  0  0  0  0  0  0
  179.6010  182.5880  137.6910 C   0  0  2  0  0  3  0  0  0  0  0  0
  184.1810  177.8750  141.1610 O   0  0  0  0  0  1  0  0  0  0  0  0
  179.3660  182.4560  136.3230 O   0  0  0  0  0  1  0  0  0  0  0  0
  184.0650  174.5480  136.5330 O   0  0  0  0  0  1  0  0  0  0  0  0
  184.0660  177.1560  137.7070 C   0  0  2  0  0  3  0  0  0  0  0  0
  184.8610  176.8400  136.4460 C   0  0  1  0  0  0  0  0  0  0  0  0
  185.1830  175.3440  136.2780 C   0  0  1  0  0  3  0  0  0  0  0  0
  180.3740  179.9850  137.5350 C   0  0  1  0  0  3  0  0  0  0  0  0
  185.9410  178.2530  139.1950 C   0  0  0  0  0  1  0  0  0  0  0  0
  183.0840  177.7120  136.7210 C   0  0  2  0  0  3  0  0  0  0  0  0
  181.7120  177.1010  136.9520 C   0  0  2  0  0  3  0  0  0  0  0  0
  181.0740  182.3520  137.9680 C   0  0  0  0  0  2  0  0  0  0  0  0
  187.5160  175.8400  137.0040 C   0  0  0  0  0  3  0  0  0  0  0  0
  180.5370  179.5910  139.9380 C   0  0  2  0  0  3  0  0  0  0  0  0
  187.4060  177.1030  136.5640 C   0  0  0  0  0  3  0  0  0  0  0  0
  183.5380  177.8680  139.9200 C   0  0  1  0  0  3  0  0  0  0  0  0
  180.0530  180.9900  139.7430 C   0  0  0  0  0  0  0  0  0  0  0  0
  183.5330  179.2730  139.3550 C   0  0  1  0  0  3  0  0  0  0  0  0
  184.4800  178.2010  138.7600 C   0  0  2  0  0  0  0  0  0  0  0  0
  182.5360  179.6320  138.4030 O   0  0  0  0  0  0  0  0  0  0  0  0
  180.8790  177.3840  135.8700 O   0  0  0  0  0  1  0  0  0  0  0  0
  179.1330  181.5210  140.5500 C   0  0  0  0  0  2  0  0  0  0  0  0
  186.0890  177.7340  136.1760 C   0  0  0  0  0  2  0  0  0  0  0  0
  186.3180  174.9580  137.2190 C   0  0  0  0  0  2  0  0  0  0  0  0
  179.1550  179.3640  137.2190 O   0  0  0  0  0  0  0  0  0  0  0  0
  178.9760  179.5640  135.8480 C   0  0  0  0  0  1  0  0  0  0  0  0
  181.3450  179.4660  141.2230 C   0  0  0  0  0  2  0  0  0  0  0  0
  180.7820  178.4910  142.0460 O   0  0  0  0  0  1  0  0  0  0  0  0
  179.8250  176.1210  139.6640 O   0  0  0  0  0  1  0  0  0  0  0  0
  179.7480  176.9630  138.5570 C   0  0  0  0  0  2  0  0  0  0  0  0
  1 16  1  1  0  0  0
  1 21  1  0  0  0  0
  2 10  1  0  0  0  0
  2 14  1  0  0  0  0
  3 24  1  6  0  0  0
  3 18  1  0  0  0  0
  4 34  1  6  0  0  0
  4  3  1  0  0  0  0
  5  7  1  6  0  0  0
  5 16  1  0  0  0  0
  5  1  1  0  0  0  0
  9 23  1  0  0  0  0
 10  9  1  0  0  0  0
 11 10  1  0  0  0  0
 11  8  1  0  0  0  0
 11 28  1  0  0  0  0
 12  1  1  0  0  0  0
 12  3  1  0  0  0  0
 14 15  1  0  0  0  0
 14  9  1  0  0  0  0
 15  4  1  0  0  0  0
 17 28  1  0  0  0  0
 18 31  1  0  0  0  0
 19 17  2  0  0  0  0
 20  6  1  0  0  0  0
 21 18  1  0  0  0  0
 21 26  2  0  0  0  0
 22 20  1  0  0  0  0
 23 13  1  0  0  0  0
 23 22  1  0  0  0  0
 23 20  1  0  0  0  0
 24 22  1  0  0  0  0
 25 15  1  0  0  0  0
 27 10  1  0  0  0  0
 27 19  1  0  0  0  0
 29 12  1  0  0  0  0
 30 29  1  0  0  0  0
 31 32  1  0  0  0  0
 34 33  1  0  0  0  0
M  END
>  <MODEL>
2

>  <REMARK>
 VINA RESULT:      -5.1      2.126      6.638
  Name = 
  3 active torsions:
  status: ('A' for Active; 'I' for Inactive)
    1  A    between atoms: O_2  and  C_15
    2  A    between atoms: C_5  and  C_31
    3  A    between atoms: C_7  and  C_21
                            x       y       z     vdW  Elec       q    Type
                         _______ _______ _______ _____ _____    ______ ____

>  <TORSDO>
F 3

$$$$
=
 OpenBabel11052414223D

 34 39  0  0  1  0  0  0  0  0999 V2000
  179.9910  179.3220  141.7000 C   0  0  1  0  0  0  0  0  0  0  0  0
  183.2230  175.1710  138.5760 O   0  0  0  0  0  0  0  0  0  0  0  0
  181.1370  178.8910  139.6280 C   0  0  1  0  0  0  0  0  0  0  0  0
  182.5430  178.9100  138.9130 C   0  0  2  0  0  3  0  0  0  0  0  0
  179.3960  179.1290  143.0920 C   0  0  2  0  0  3  0  0  0  0  0  0
  179.8410  178.5840  135.6940 O   0  0  0  0  0  1  0  0  0  0  0  0
  180.2550  178.3870  143.9010 O   0  0  0  0  0  1  0  0  0  0  0  0
  184.8060  175.8520  136.3160 O   0  0  0  0  0  1  0  0  0  0  0  0
  182.1500  176.3980  137.2260 C   0  0  2  0  0  3  0  0  0  0  0  0
  182.7420  174.9940  137.2630 C   0  0  1  0  0  0  0  0  0  0  0  0
  183.9030  174.7880  136.2740 C   0  0  1  0  0  3  0  0  0  0  0  0
  181.2770  178.7070  141.1720 C   0  0  1  0  0  3  0  0  0  0  0  0
  179.8860  175.9330  135.9650 C   0  0  0  0  0  1  0  0  0  0  0  0
  182.5360  176.3950  138.6750 C   0  0  2  0  0  3  0  0  0  0  0  0
  183.3920  177.6100  138.9880 C   0  0  2  0  0  3  0  0  0  0  0  0
  178.9310  178.2640  141.9350 C   0  0  0  0  0  2  0  0  0  0  0  0
  182.3320  173.5290  134.8040 C   0  0  0  0  0  3  0  0  0  0  0  0
  180.3530  180.2520  139.5240 C   0  0  2  0  0  3  0  0  0  0  0  0
  181.5790  173.1920  135.8630 C   0  0  0  0  0  3  0  0  0  0  0  0
  180.6820  178.2130  136.7460 C   0  0  1  0  0  3  0  0  0  0  0  0
  179.5040  180.3400  140.7480 C   0  0  0  0  0  0  0  0  0  0  0  0
  179.8400  177.7010  137.8970 C   0  0  1  0  0  3  0  0  0  0  0  0
  180.6540  176.7090  137.0290 C   0  0  2  0  0  0  0  0  0  0  0  0
  180.3720  177.7500  139.2180 O   0  0  0  0  0  0  0  0  0  0  0  0
  183.9900  177.4590  140.2390 O   0  0  0  0  0  1  0  0  0  0  0  0
  179.0070  181.5070  141.1620 C   0  0  0  0  0  2  0  0  0  0  0  0
  181.7300  173.8310  137.2240 C   0  0  0  0  0  2  0  0  0  0  0  0
  183.3510  174.6330  134.8630 C   0  0  0  0  0  2  0  0  0  0  0  0
  182.3550  179.4420  141.6900 O   0  0  0  0  0  0  0  0  0  0  0  0
  182.9120  178.6390  142.6880 C   0  0  0  0  0  1  0  0  0  0  0  0
  179.5380  180.5440  138.2710 C   0  0  0  0  0  2  0  0  0  0  0  0
  180.1120  181.6020  137.5660 O   0  0  0  0  0  1  0  0  0  0  0  0
  184.7350  179.8780  138.8620 O   0  0  0  0  0  1  0  0  0  0  0  0
  183.4030  180.1430  139.1770 C   0  0  0  0  0  2  0  0  0  0  0  0
  1 16  1  6  0  0  0
  1  5  1  0  0  0  0
  2 14  1  0  0  0  0
  3 24  1  6  0  0  0
  3 12  1  0  0  0  0
  4 15  1  0  0  0  0
  4 34  1  1  0  0  0
  4  3  1  0  0  0  0
  5  7  1  1  0  0  0
  6 20  1  0  0  0  0
  9 10  1  0  0  0  0
  9 14  1  0  0  0  0
 10  2  1  0  0  0  0
 11  8  1  0  0  0  0
 11 10  1  0  0  0  0
 12 29  1  0  0  0  0
 12  1  1  0  0  0  0
 13 23  1  0  0  0  0
 14 15  1  0  0  0  0
 15 25  1  0  0  0  0
 16  5  1  0  0  0  0
 17 28  1  0  0  0  0
 17 19  2  0  0  0  0
 18  3  1  0  0  0  0
 18 21  1  0  0  0  0
 19 27  1  0  0  0  0
 20 23  1  0  0  0  0
 20 22  1  0  0  0  0
 21 26  2  0  0  0  0
 21  1  1  0  0  0  0
 22 24  1  0  0  0  0
 23  9  1  0  0  0  0
 23 22  1  0  0  0  0
 27 10  1  0  0  0  0
 28 11  1  0  0  0  0
 29 30  1  0  0  0  0
 31 18  1  0  0  0  0
 32 31  1  0  0  0  0
 33 34  1  0  0  0  0
M  END
>  <MODEL>
3

>  <REMARK>
 VINA RESULT:      -4.6      1.717      6.858
  Name = 
  3 active torsions:
  status: ('A' for Active; 'I' for Inactive)
    1  A    between atoms: O_2  and  C_15
    2  A    between atoms: C_5  and  C_31
    3  A    between atoms: C_7  and  C_21
                            x       y       z     vdW  Elec       q    Type
                         _______ _______ _______ _____ _____    ______ ____

>  <TORSDO>
F 3

$$$$
=
 OpenBabel11052414223D

 34 39  0  0  1  0  0  0  0  0999 V2000
  183.5160  178.7710  141.3840 C   0  0  1  0  0  0  0  0  0  0  0  0
  182.1820  176.2570  135.9680 O   0  0  0  0  0  0  0  0  0  0  0  0
  181.7230  178.0080  139.9700 C   0  0  1  0  0  0  0  0  0  0  0  0
  180.7700  178.4130  138.7810 C   0  0  2  0  0  3  0  0  0  0  0  0
  184.9160  179.0750  141.9080 C   0  0  2  0  0  3  0  0  0  0  0  0
  178.9330  174.9550  140.3430 O   0  0  0  0  0  1  0  0  0  0  0  0
  185.7430  179.5270  140.8800 O   0  0  0  0  0  1  0  0  0  0  0  0
  179.5720  176.3340  134.8490 O   0  0  0  0  0  1  0  0  0  0  0  0
  180.7180  175.6970  137.3910 C   0  0  2  0  0  3  0  0  0  0  0  0
  181.3000  175.1630  136.0870 C   0  0  1  0  0  0  0  0  0  0  0  0
  180.2920  175.1410  134.9240 C   0  0  1  0  0  3  0  0  0  0  0  0
  183.0630  178.8100  139.9340 C   0  0  1  0  0  3  0  0  0  0  0  0
  180.4670  173.4610  138.7570 C   0  0  0  0  0  1  0  0  0  0  0  0
  181.8260  176.6970  137.2560 C   0  0  2  0  0  3  0  0  0  0  0  0
  181.2680  178.1080  137.3400 C   0  0  2  0  0  3  0  0  0  0  0  0
  184.5020  177.6440  141.6220 C   0  0  0  0  0  2  0  0  0  0  0  0
  180.0900  172.6760  135.2430 C   0  0  0  0  0  3  0  0  0  0  0  0
  181.1550  178.3720  141.3920 C   0  0  2  0  0  3  0  0  0  0  0  0
  181.3250  172.6220  135.7650 C   0  0  0  0  0  3  0  0  0  0  0  0
  179.7820  175.7620  139.5810 C   0  0  1  0  0  3  0  0  0  0  0  0
  182.3390  178.6220  142.2650 C   0  0  0  0  0  0  0  0  0  0  0  0
  181.2020  175.5980  140.0810 C   0  0  1  0  0  3  0  0  0  0  0  0
  180.7720  174.9540  138.7380 C   0  0  2  0  0  0  0  0  0  0  0  0
  182.1430  176.6430  139.8470 O   0  0  0  0  0  0  0  0  0  0  0  0
  182.2320  179.0250  136.9250 O   0  0  0  0  0  1  0  0  0  0  0  0
  182.2260  179.3050  143.4060 C   0  0  0  0  0  2  0  0  0  0  0  0
  182.1000  173.8480  136.1900 C   0  0  0  0  0  2  0  0  0  0  0  0
  179.3350  173.9680  135.1000 C   0  0  0  0  0  2  0  0  0  0  0  0
  182.8570  180.1530  139.5800 O   0  0  0  0  0  0  0  0  0  0  0  0
  183.9070  180.4790  138.7180 C   0  0  0  0  0  1  0  0  0  0  0  0
  180.1720  177.4210  142.0630 C   0  0  0  0  0  2  0  0  0  0  0  0
  178.9330  178.0440  142.2100 O   0  0  0  0  0  1  0  0  0  0  0  0
  179.2200  179.9880  137.8530 O   0  0  0  0  0  1  0  0  0  0  0  0
  180.1600  179.8100  138.8660 C   0  0  0  0  0  2  0  0  0  0  0  0
  1 16  1  6  0  0  0
  1  5  1  0  0  0  0
  1 21  1  0  0  0  0
  2 10  1  0  0  0  0
  2 14  1  0  0  0  0
  3 24  1  6  0  0  0
  3 18  1  0  0  0  0
  4 34  1  6  0  0  0
  4  3  1  0  0  0  0
  5  7  1  6  0  0  0
  8 11  1  0  0  0  0
  9 23  1  0  0  0  0
 10 27  1  0  0  0  0
 10  9  1  0  0  0  0
 11 28  1  0  0  0  0
 11 10  1  0  0  0  0
 12  3  1  0  0  0  0
 12  1  1  0  0  0  0
 14 15  1  0  0  0  0
 14  9  1  0  0  0  0
 15  4  1  0  0  0  0
 16  5  1  0  0  0  0
 17 19  2  0  0  0  0
 18 31  1  0  0  0  0
 18 21  1  0  0  0  0
 19 27  1  0  0  0  0
 20 22  1  0  0  0  0
 20  6  1  0  0  0  0
 21 26  2  0  0  0  0
 23 13  1  0  0  0  0
 23 20  1  0  0  0  0
 23 22  1  0  0  0  0
 24 22  1  0  0  0  0
 25 15  1  0  0  0  0
 28 17  1  0  0  0  0
 29 12  1  0  0  0  0
 30 29  1  0  0  0  0
 31 32  1  0  0  0  0
 33 34  1  0  0  0  0
M  END
>  <MODEL>
4

>  <REMARK>
 VINA RESULT:      -3.9      2.178      6.323
  Name = 
  3 active torsions:
  status: ('A' for Active; 'I' for Inactive)
    1  A    between atoms: O_2  and  C_15
    2  A    between atoms: C_5  and  C_31
    3  A    between atoms: C_7  and  C_21
                            x       y       z     vdW  Elec       q    Type
                         _______ _______ _______ _____ _____    ______ ____

>  <TORSDO>
F 3

$$$$
=
 OpenBabel11052414223D

 34 39  0  0  1  0  0  0  0  0999 V2000
  180.4150  175.8600  139.2130 C   0  0  1  0  0  0  0  0  0  0  0  0
  185.8610  178.6290  138.8760 O   0  0  0  0  0  0  0  0  0  0  0  0
  182.1240  176.6390  137.7070 C   0  0  1  0  0  0  0  0  0  0  0  0
  182.6650  177.8960  136.9240 C   0  0  2  0  0  3  0  0  0  0  0  0
  179.6610  175.5250  140.4960 C   0  0  2  0  0  3  0  0  0  0  0  0
  184.6760  174.6830  135.0780 O   0  0  0  0  0  1  0  0  0  0  0  0
  179.8160  176.5370  141.4430 O   0  0  0  0  0  1  0  0  0  0  0  0
  186.8490  179.7670  136.4670 O   0  0  0  0  0  1  0  0  0  0  0  0
  185.6400  177.2950  137.2470 C   0  0  2  0  0  3  0  0  0  0  0  0
  186.7670  177.9310  138.0530 C   0  0  1  0  0  0  0  0  0  0  0  0
  187.6340  178.9070  137.2370 C   0  0  1  0  0  3  0  0  0  0  0  0
  181.3300  177.0530  138.9860 C   0  0  1  0  0  3  0  0  0  0  0  0
  186.5920  174.8620  136.9230 C   0  0  0  0  0  1  0  0  0  0  0  0
  184.7840  177.9290  138.3010 C   0  0  2  0  0  3  0  0  0  0  0  0
  183.7090  178.7870  137.6540 C   0  0  2  0  0  3  0  0  0  0  0  0
  181.0110  174.8930  140.2170 C   0  0  0  0  0  2  0  0  0  0  0  0
  189.3940  177.1440  137.1350 C   0  0  0  0  0  3  0  0  0  0  0  0
  181.0550  175.8040  136.9070 C   0  0  2  0  0  3  0  0  0  0  0  0
  188.9440  176.6010  138.2770 C   0  0  0  0  0  3  0  0  0  0  0  0
  184.3890  175.7070  135.9840 C   0  0  1  0  0  3  0  0  0  0  0  0
  180.1620  175.1800  137.9270 C   0  0  0  0  0  0  0  0  0  0  0  0
  184.0130  175.0980  137.3190 C   0  0  1  0  0  3  0  0  0  0  0  0
  185.3930  175.7800  137.1380 C   0  0  2  0  0  0  0  0  0  0  0  0
  183.2060  175.8510  138.2200 O   0  0  0  0  0  0  0  0  0  0  0  0
  183.1090  179.6000  138.6140 O   0  0  0  0  0  1  0  0  0  0  0  0
  178.9510  174.7260  137.6000 C   0  0  0  0  0  2  0  0  0  0  0  0
  187.6190  176.9670  138.9030 C   0  0  0  0  0  2  0  0  0  0  0  0
  188.5780  178.1210  136.3350 C   0  0  0  0  0  2  0  0  0  0  0  0
  180.5250  178.1800  138.7580 O   0  0  0  0  0  0  0  0  0  0  0  0
  180.6040  178.9410  139.9270 C   0  0  0  0  0  1  0  0  0  0  0  0
  181.5290  174.7730  135.8910 C   0  0  0  0  0  2  0  0  0  0  0  0
  181.2120  175.1960  134.6000 O   0  0  0  0  0  1  0  0  0  0  0  0
  181.7140  178.6120  134.8440 O   0  0  0  0  0  1  0  0  0  0  0  0
  181.6080  178.7480  136.2270 C   0  0  0  0  0  2  0  0  0  0  0  0
  1 16  1  1  0  0  0
  1  5  1  0  0  0  0
  3 24  1  1  0  0  0
  3 12  1  0  0  0  0
  4 34  1  1  0  0  0
  4 15  1  0  0  0  0
  4  3  1  0  0  0  0
  5  7  1  1  0  0  0
  6 20  1  0  0  0  0
  8 11  1  0  0  0  0
  9 10  1  0  0  0  0
  9 14  1  0  0  0  0
 10  2  1  0  0  0  0
 10 27  1  0  0  0  0
 11 10  1  0  0  0  0
 12  1  1  0  0  0  0
 13 23  1  0  0  0  0
 14  2  1  0  0  0  0
 15 14  1  0  0  0  0
 15 25  1  0  0  0  0
 16  5  1  0  0  0  0
 17 19  2  0  0  0  0
 18  3  1  0  0  0  0
 18 21  1  0  0  0  0
 19 27  1  0  0  0  0
 20 23  1  0  0  0  0
 20 22  1  0  0  0  0
 21  1  1  0  0  0  0
 22 24  1  0  0  0  0
 23  9  1  0  0  0  0
 23 22  1  0  0  0  0
 26 21  2  0  0  0  0
 28 17  1  0  0  0  0
 28 11  1  0  0  0  0
 29 12  1  0  0  0  0
 29 30  1  0  0  0  0
 31 18  1  0  0  0  0
 32 31  1  0  0  0  0
 33 34  1  0  0  0  0
M  END
>  <MODEL>
5

>  <REMARK>
 VINA RESULT:      -3.9      1.942      6.151
  Name = 
  3 active torsions:
  status: ('A' for Active; 'I' for Inactive)
    1  A    between atoms: O_2  and  C_15
    2  A    between atoms: C_5  and  C_31
    3  A    between atoms: C_7  and  C_21
                            x       y       z     vdW  Elec       q    Type
                         _______ _______ _______ _____ _____    ______ ____

>  <TORSDO>
F 3

$$$$
=
 OpenBabel11052414223D

 34 39  0  0  1  0  0  0  0  0999 V2000
  189.1750  174.6330  136.3850 C   0  0  1  0  0  0  0  0  0  0  0  0
  188.1390  177.3000  141.7940 O   0  0  0  0  0  0  0  0  0  0  0  0
  189.8040  176.4640  137.8160 C   0  0  1  0  0  0  0  0  0  0  0  0
  189.4290  177.9300  138.2590 C   0  0  2  0  0  3  0  0  0  0  0  0
  188.5020  173.3640  135.8710 C   0  0  2  0  0  3  0  0  0  0  0  0
  193.3490  177.4610  139.7370 O   0  0  0  0  0  1  0  0  0  0  0  0
  187.1600  173.3270  136.2470 O   0  0  0  0  0  1  0  0  0  0  0  0
  188.9510  179.9620  142.3650 O   0  0  0  0  0  1  0  0  0  0  0  0
  190.1460  177.6340  141.2100 C   0  0  2  0  0  3  0  0  0  0  0  0
  189.3310  177.5680  142.4970 C   0  0  1  0  0  0  0  0  0  0  0  0
  189.2410  178.9130  143.2400 C   0  0  1  0  0  3  0  0  0  0  0  0
  188.5570  175.6810  137.2960 C   0  0  1  0  0  3  0  0  0  0  0  0
  192.3470  176.4060  141.9700 C   0  0  0  0  0  1  0  0  0  0  0  0
  188.8650  177.1560  140.5970 C   0  0  2  0  0  3  0  0  0  0  0  0
  188.4550  178.0780  139.4610 C   0  0  2  0  0  3  0  0  0  0  0  0
  189.3700  173.3170  137.1140 C   0  0  0  0  0  2  0  0  0  0  0  0
  190.9190  178.0440  144.8660 C   0  0  0  0  0  3  0  0  0  0  0  0
  190.7760  176.4030  136.5780 C   0  0  2  0  0  3  0  0  0  0  0  0
  190.5400  176.7820  144.6130 C   0  0  0  0  0  3  0  0  0  0  0  0
  191.9540  177.4110  139.6730 C   0  0  1  0  0  3  0  0  0  0  0  0
  190.4650  175.1300  135.8640 C   0  0  0  0  0  0  0  0  0  0  0  0
  191.5140  175.9700  139.5250 C   0  0  1  0  0  3  0  0  0  0  0  0
  191.3270  176.7040  140.8770 C   0  0  2  0  0  0  0  0  0  0  0  0
  190.2470  175.6890  138.9370 O   0  0  0  0  0  0  0  0  0  0  0  0
  187.1360  177.8150  139.0900 O   0  0  0  0  0  1  0  0  0  0  0  0
  190.8270  174.9440  134.5940 C   0  0  0  0  0  2  0  0  0  0  0  0
  189.6590  176.3980  143.4470 C   0  0  0  0  0  2  0  0  0  0  0  0
  190.5550  179.1880  143.9600 C   0  0  0  0  0  2  0  0  0  0  0  0
  187.7190  176.4930  136.5160 O   0  0  0  0  0  0  0  0  0  0  0  0
  186.4160  176.1190  136.8510 C   0  0  0  0  0  1  0  0  0  0  0  0
  192.2740  176.5520  136.8050 C   0  0  0  0  0  2  0  0  0  0  0  0
  192.8960  175.3070  136.7090 O   0  0  0  0  0  1  0  0  0  0  0  0
  189.0550  180.2020  137.5950 O   0  0  0  0  0  1  0  0  0  0  0  0
  189.0560  178.8880  137.1300 C   0  0  0  0  0  2  0  0  0  0  0  0
  1 16  1  1  0  0  0
  1 12  1  0  0  0  0
  2 10  1  0  0  0  0
  3  4  1  0  0  0  0
  3 24  1  1  0  0  0
  4 34  1  6  0  0  0
  4 15  1  0  0  0  0
  5  7  1  1  0  0  0
  5  1  1  0  0  0  0
  5 16  1  0  0  0  0
  8 11  1  0  0  0  0
  9 10  1  0  0  0  0
 10 11  1  0  0  0  0
 10 27  1  0  0  0  0
 11 28  1  0  0  0  0
 12  3  1  0  0  0  0
 14  9  1  0  0  0  0
 14  2  1  0  0  0  0
 15 14  1  0  0  0  0
 18 31  1  0  0  0  0
 18  3  1  0  0  0  0
 19 17  2  0  0  0  0
 20  6  1  0  0  0  0
 20 23  1  0  0  0  0
 21  1  1  0  0  0  0
 21 18  1  0  0  0  0
 22 20  1  0  0  0  0
 22 23  1  0  0  0  0
 23  9  1  0  0  0  0
 23 13  1  0  0  0  0
 24 22  1  0  0  0  0
 25 15  1  0  0  0  0
 26 21  2  0  0  0  0
 27 19  1  0  0  0  0
 28 17  1  0  0  0  0
 29 30  1  0  0  0  0
 29 12  1  0  0  0  0
 32 31  1  0  0  0  0
 34 33  1  0  0  0  0
M  END
>  <MODEL>
6

>  <REMARK>
 VINA RESULT:      -3.7      5.891      7.983
  Name = 
  3 active torsions:
  status: ('A' for Active; 'I' for Inactive)
    1  A    between atoms: O_2  and  C_15
    2  A    between atoms: C_5  and  C_31
    3  A    between atoms: C_7  and  C_21
                            x       y       z     vdW  Elec       q    Type
                         _______ _______ _______ _____ _____    ______ ____

>  <TORSDO>
F 3

$$$$
=
 OpenBabel11052414223D

 34 39  0  0  1  0  0  0  0  0999 V2000
  189.2060  177.6510  138.7320 C   0  0  1  0  0  0  0  0  0  0  0  0
  186.6970  172.2630  137.2760 O   0  0  0  0  0  0  0  0  0  0  0  0
  188.0660  176.4270  137.0000 C   0  0  1  0  0  0  0  0  0  0  0  0
  188.2620  175.4170  135.8050 C   0  0  2  0  0  3  0  0  0  0  0  0
  189.8440  178.0070  140.0710 C   0  0  2  0  0  3  0  0  0  0  0  0
  184.3690  176.9040  135.1690 O   0  0  0  0  0  1  0  0  0  0  0  0
  190.5470  176.9210  140.5900 O   0  0  0  0  0  1  0  0  0  0  0  0
  186.1360  171.5140  134.5940 O   0  0  0  0  0  1  0  0  0  0  0  0
  185.7010  173.8150  136.2360 C   0  0  2  0  0  3  0  0  0  0  0  0
  185.4040  172.4030  136.7310 C   0  0  1  0  0  0  0  0  0  0  0  0
  185.1730  171.3880  135.5970 C   0  0  1  0  0  3  0  0  0  0  0  0
  189.1950  176.2830  138.0690 C   0  0  1  0  0  3  0  0  0  0  0  0
  183.4130  175.0030  136.7740 C   0  0  0  0  0  1  0  0  0  0  0  0
  186.9640  173.6200  137.0200 C   0  0  2  0  0  3  0  0  0  0  0  0
  188.1700  173.9010  136.1400 C   0  0  2  0  0  3  0  0  0  0  0  0
  188.3700  177.6550  139.9970 C   0  0  0  0  0  2  0  0  0  0  0  0
  182.7310  171.5150  136.0800 C   0  0  0  0  0  3  0  0  0  0  0  0
  188.1970  177.9390  136.5800 C   0  0  2  0  0  3  0  0  0  0  0  0
  182.9800  171.8610  137.3530 C   0  0  0  0  0  3  0  0  0  0  0  0
  185.4080  176.1080  135.6590 C   0  0  1  0  0  3  0  0  0  0  0  0
  188.7080  178.6640  137.7800 C   0  0  0  0  0  0  0  0  0  0  0  0
  185.6020  176.3970  137.1320 C   0  0  1  0  0  3  0  0  0  0  0  0
  184.9340  175.0730  136.6820 C   0  0  2  0  0  0  0  0  0  0  0  0
  186.8690  176.1310  137.7290 O   0  0  0  0  0  0  0  0  0  0  0  0
  189.3290  173.4420  136.7640 O   0  0  0  0  0  1  0  0  0  0  0  0
  189.2800  179.8650  137.6710 C   0  0  0  0  0  2  0  0  0  0  0  0
  184.3450  172.2840  137.8450 C   0  0  0  0  0  2  0  0  0  0  0  0
  183.7820  171.5880  135.0080 C   0  0  0  0  0  2  0  0  0  0  0  0
  190.4510  176.0780  137.4770 O   0  0  0  0  0  0  0  0  0  0  0  0
  191.1450  175.2360  138.3510 C   0  0  0  0  0  1  0  0  0  0  0  0
  186.9880  178.6500  135.9850 C   0  0  0  0  0  2  0  0  0  0  0  0
  187.0820  178.6650  134.5940 O   0  0  0  0  0  1  0  0  0  0  0  0
  190.1340  174.5270  134.6020 O   0  0  0  0  0  1  0  0  0  0  0  0
  189.4420  175.7040  134.8800 C   0  0  0  0  0  2  0  0  0  0  0  0
  1 16  1  1  0  0  0
  1  5  1  0  0  0  0
  3 24  1  1  0  0  0
  3 12  1  0  0  0  0
  4 34  1  1  0  0  0
  4 15  1  0  0  0  0
  4  3  1  0  0  0  0
  5  7  1  1  0  0  0
  6 20  1  0  0  0  0
  8 11  1  0  0  0  0
  9 23  1  0  0  0  0
  9 10  1  0  0  0  0
  9 14  1  0  0  0  0
 10  2  1  0  0  0  0
 10 27  1  0  0  0  0
 11 10  1  0  0  0  0
 12  1  1  0  0  0  0
 14  2  1  0  0  0  0
 15 25  1  0  0  0  0
 15 14  1  0  0  0  0
 16  5  1  0  0  0  0
 17 19  2  0  0  0  0
 18  3  1  0  0  0  0
 18 21  1  0  0  0  0
 19 27  1  0  0  0  0
 20 23  1  0  0  0  0
 20 22  1  0  0  0  0
 21  1  1  0  0  0  0
 22 24  1  0  0  0  0
 23 13  1  0  0  0  0
 23 22  1  0  0  0  0
 26 21  2  0  0  0  0
 28 11  1  0  0  0  0
 28 17  1  0  0  0  0
 29 12  1  0  0  0  0
 29 30  1  0  0  0  0
 31 18  1  0  0  0  0
 32 31  1  0  0  0  0
 33 34  1  0  0  0  0
M  END
>  <MODEL>
7

>  <REMARK>
 VINA RESULT:      -3.7      4.722      7.873
  Name = 
  3 active torsions:
  status: ('A' for Active; 'I' for Inactive)
    1  A    between atoms: O_2  and  C_15
    2  A    between atoms: C_5  and  C_31
    3  A    between atoms: C_7  and  C_21
                            x       y       z     vdW  Elec       q    Type
                         _______ _______ _______ _____ _____    ______ ____

>  <TORSDO>
F 3

$$$$
=
 OpenBabel11052414223D

 34 39  0  0  1  0  0  0  0  0999 V2000
  183.8570  178.5010  139.8410 C   0  0  1  0  0  0  0  0  0  0  0  0
  185.5930  173.1640  137.4040 O   0  0  0  0  0  0  0  0  0  0  0  0
  183.9110  177.2010  137.8160 C   0  0  1  0  0  0  0  0  0  0  0  0
  184.7950  176.8020  136.5730 C   0  0  2  0  0  3  0  0  0  0  0  0
  184.0200  178.9120  141.3010 C   0  0  2  0  0  3  0  0  0  0  0  0
  180.9300  175.5640  135.4300 O   0  0  0  0  0  1  0  0  0  0  0  0
  185.2290  178.4470  141.8160 O   0  0  0  0  0  1  0  0  0  0  0  0
  185.8300  172.7700  134.6000 O   0  0  0  0  0  1  0  0  0  0  0  0
  183.8910  173.8940  136.3780 C   0  0  2  0  0  3  0  0  0  0  0  0
  184.5630  172.5540  136.6600 C   0  0  1  0  0  0  0  0  0  0  0  0
  185.1260  171.8690  135.4010 C   0  0  1  0  0  3  0  0  0  0  0  0
  184.7870  177.6010  139.0440 C   0  0  1  0  0  3  0  0  0  0  0  0
  181.3580  173.2240  136.6320 C   0  0  0  0  0  1  0  0  0  0  0  0
  184.9200  174.3980  137.3440 C   0  0  2  0  0  3  0  0  0  0  0  0
  185.6990  175.5460  136.7230 C   0  0  2  0  0  3  0  0  0  0  0  0
  183.1460  177.7280  140.9340 C   0  0  0  0  0  2  0  0  0  0  0  0
  183.1750  170.3190  135.4620 C   0  0  0  0  0  3  0  0  0  0  0  0
  183.0440  178.4950  137.5890 C   0  0  2  0  0  3  0  0  0  0  0  0
  183.0560  170.4880  136.7880 C   0  0  0  0  0  3  0  0  0  0  0  0
  182.2030  175.5340  136.0060 C   0  0  1  0  0  3  0  0  0  0  0  0
  182.8780  179.1280  138.9310 C   0  0  0  0  0  0  0  0  0  0  0  0
  182.0680  175.5870  137.5130 C   0  0  1  0  0  3  0  0  0  0  0  0
  182.4610  174.2600  136.8150 C   0  0  2  0  0  0  0  0  0  0  0  0
  183.1580  176.0760  138.2900 O   0  0  0  0  0  0  0  0  0  0  0  0
  186.8330  175.8170  137.4880 O   0  0  0  0  0  1  0  0  0  0  0  0
  182.5270  180.4100  139.0510 C   0  0  0  0  0  2  0  0  0  0  0  0
  183.7750  171.5750  137.5530 C   0  0  0  0  0  2  0  0  0  0  0  0
  183.9850  171.2500  134.6040 C   0  0  0  0  0  2  0  0  0  0  0  0
  185.9040  178.3610  138.6620 O   0  0  0  0  0  0  0  0  0  0  0  0
  186.9860  177.8130  139.3560 C   0  0  0  0  0  1  0  0  0  0  0  0
  181.7050  178.3740  136.8720 C   0  0  0  0  0  2  0  0  0  0  0  0
  181.6880  179.2060  135.7530 O   0  0  0  0  0  1  0  0  0  0  0  0
  186.0540  177.5350  134.6700 O   0  0  0  0  0  1  0  0  0  0  0  0
  185.5520  177.9460  135.9040 C   0  0  0  0  0  2  0  0  0  0  0  0
  1 16  1  1  0  0  0
  1  5  1  0  0  0  0
  3 24  1  1  0  0  0
  3 12  1  0  0  0  0
  4 34  1  1  0  0  0
  4 15  1  0  0  0  0
  4  3  1  0  0  0  0
  5  7  1  1  0  0  0
  6 20  1  0  0  0  0
  8 11  1  0  0  0  0
  9 10  1  0  0  0  0
  9 23  1  0  0  0  0
  9 14  1  0  0  0  0
 10  2  1  0  0  0  0
 10 27  1  0  0  0  0
 11 10  1  0  0  0  0
 12  1  1  0  0  0  0
 13 23  1  0  0  0  0
 14  2  1  0  0  0  0
 15 14  1  0  0  0  0
 15 25  1  0  0  0  0
 16  5  1  0  0  0  0
 17 19  2  0  0  0  0
 18  3  1  0  0  0  0
 18 21  1  0  0  0  0
 19 27  1  0  0  0  0
 20 23  1  0  0  0  0
 20 22  1  0  0  0  0
 21 26  2  0  0  0  0
 21  1  1  0  0  0  0
 22 24  1  0  0  0  0
 23 22  1  0  0  0  0
 28 11  1  0  0  0  0
 28 17  1  0  0  0  0
 29 12  1  0  0  0  0
 29 30  1  0  0  0  0
 31 18  1  0  0  0  0
 32 31  1  0  0  0  0
 33 34  1  0  0  0  0
M  END
>  <MODEL>
8

>  <REMARK>
 VINA RESULT:      -3.6      2.339      7.019
  Name = 
  3 active torsions:
  status: ('A' for Active; 'I' for Inactive)
    1  A    between atoms: O_2  and  C_15
    2  A    between atoms: C_5  and  C_31
    3  A    between atoms: C_7  and  C_21
                            x       y       z     vdW  Elec       q    Type
                         _______ _______ _______ _____ _____    ______ ____

>  <TORSDO>
F 3

$$$$
=
 OpenBabel11052414223D

 34 39  0  0  1  0  0  0  0  0999 V2000
  180.6600  179.3000  137.6030 C   0  0  1  0  0  0  0  0  0  0  0  0
  184.9620  175.5140  135.4590 O   0  0  0  0  0  0  0  0  0  0  0  0
  182.4970  177.8740  138.2250 C   0  0  1  0  0  0  0  0  0  0  0  0
  182.9100  176.3880  138.5550 C   0  0  2  0  0  3  0  0  0  0  0  0
  179.6440  180.0660  136.7620 C   0  0  2  0  0  3  0  0  0  0  0  0
  186.1990  178.6250  139.9520 O   0  0  0  0  0  1  0  0  0  0  0  0
  179.2010  179.2910  135.6910 O   0  0  0  0  0  1  0  0  0  0  0  0
  186.3480  173.6760  137.1260 O   0  0  0  0  0  1  0  0  0  0  0  0
  185.6560  176.4500  137.2260 C   0  0  2  0  0  3  0  0  0  0  0  0
  186.2410  175.8100  135.9720 C   0  0  1  0  0  0  0  0  0  0  0  0
  187.0340  174.5200  136.2500 C   0  0  1  0  0  3  0  0  0  0  0  0
  181.2450  177.9320  137.2940 C   0  0  1  0  0  3  0  0  0  0  0  0
  187.2750  178.5050  137.5160 C   0  0  0  0  0  1  0  0  0  0  0  0
  184.3630  176.2590  136.4920 C   0  0  2  0  0  3  0  0  0  0  0  0
  183.3760  175.5030  137.3650 C   0  0  2  0  0  3  0  0  0  0  0  0
  181.1270  180.3380  136.6010 C   0  0  0  0  0  2  0  0  0  0  0  0
  189.1320  175.8300  135.9350 C   0  0  0  0  0  3  0  0  0  0  0  0
  182.0170  178.6940  139.4800 C   0  0  2  0  0  3  0  0  0  0  0  0
  188.4930  176.7010  135.1390 C   0  0  0  0  0  3  0  0  0  0  0  0
  185.3660  177.9160  139.0820 C   0  0  1  0  0  3  0  0  0  0  0  0
  181.0380  179.7000  138.9740 C   0  0  0  0  0  0  0  0  0  0  0  0
  184.7470  178.8800  138.0910 C   0  0  1  0  0  3  0  0  0  0  0  0
  185.8740  177.9170  137.6380 C   0  0  2  0  0  0  0  0  0  0  0  0
  183.5170  178.5300  137.4610 O   0  0  0  0  0  0  0  0  0  0  0  0
  182.2970  175.0690  136.5940 O   0  0  0  0  0  1  0  0  0  0  0  0
  180.1720  180.2960  139.7950 C   0  0  0  0  0  2  0  0  0  0  0  0
  186.9880  176.7580  135.0120 C   0  0  0  0  0  2  0  0  0  0  0  0
  188.3960  174.8740  136.8330 C   0  0  0  0  0  2  0  0  0  0  0  0
  180.2910  176.9640  137.6420 O   0  0  0  0  0  0  0  0  0  0  0  0
  179.7810  176.4850  136.4320 C   0  0  0  0  0  1  0  0  0  0  0  0
  183.0570  179.3470  140.3810 C   0  0  0  0  0  2  0  0  0  0  0  0
  183.0390  178.7500  141.6410 O   0  0  0  0  0  1  0  0  0  0  0  0
  181.5190  174.4570  138.8400 O   0  0  0  0  0  1  0  0  0  0  0  0
  181.9550  175.6230  139.4680 C   0  0  0  0  0  2  0  0  0  0  0  0
  1 16  1  6  0  0  0
  1 21  1  0  0  0  0
  2 10  1  0  0  0  0
  2 14  1  0  0  0  0
  3 24  1  6  0  0  0
  3  4  1  0  0  0  0
  3 18  1  0  0  0  0
  4 34  1  6  0  0  0
  5  7  1  6  0  0  0
  5  1  1  0  0  0  0
  9 23  1  0  0  0  0
 10 11  1  0  0  0  0
 10  9  1  0  0  0  0
 11 28  1  0  0  0  0
 11  8  1  0  0  0  0
 12  1  1  0  0  0  0
 12 29  1  0  0  0  0
 12  3  1  0  0  0  0
 13 23  1  0  0  0  0
 14  9  1  0  0  0  0
 14 15  1  0  0  0  0
 15  4  1  0  0  0  0
 16  5  1  0  0  0  0
 17 28  1  0  0  0  0
 18 31  1  0  0  0  0
 19 17  2  0  0  0  0
 20  6  1  0  0  0  0
 21 18  1  0  0  0  0
 21 26  2  0  0  0  0
 22 20  1  0  0  0  0
 23 22  1  0  0  0  0
 23 20  1  0  0  0  0
 24 22  1  0  0  0  0
 25 15  1  0  0  0  0
 27 19  1  0  0  0  0
 27 10  1  0  0  0  0
 30 29  1  0  0  0  0
 31 32  1  0  0  0  0
 33 34  1  0  0  0  0
M  END
>  <MODEL>
9

>  <REMARK>
 VINA RESULT:      -3.4      2.063      6.663
  Name = 
  3 active torsions:
  status: ('A' for Active; 'I' for Inactive)
    1  A    between atoms: O_2  and  C_15
    2  A    between atoms: C_5  and  C_31
    3  A    between atoms: C_7  and  C_21
                            x       y       z     vdW  Elec       q    Type
                         _______ _______ _______ _____ _____    ______ ____

>  <TORSDO>
F 3

$$$$
