=
 OpenBabel11052416043D

 43 48  0  0  1  0  0  0  0  0999 V2000
  191.2120  176.5490  147.0090 C   0  0  0  0  0  0  0  0  0  0  0  0
  188.9790  177.9880  142.7030 C   0  0  0  0  0  0  0  0  0  0  0  0
  186.1540  177.7920  143.1430 C   0  0  2  0  0  3  0  0  0  0  0  0
  190.7640  177.1630  144.7090 C   0  0  0  0  0  0  0  0  0  0  0  0
  189.8670  176.7550  147.3320 C   0  0  0  0  0  3  0  0  0  0  0  0
  192.1050  176.1410  147.9890 O   0  0  0  0  0  1  0  0  0  0  0  0
  189.3980  177.3710  145.0270 C   0  0  0  0  0  0  0  0  0  0  0  0
  191.6590  176.7540  145.7000 C   0  0  0  0  0  3  0  0  0  0  0  0
  188.9650  177.1640  146.3460 C   0  0  0  0  0  3  0  0  0  0  0  0
  187.0680  178.1080  144.3340 C   0  0  0  0  0  2  0  0  0  0  0  0
  188.5050  177.7820  144.0170 C   0  0  0  0  0  0  0  0  0  0  0  0
  190.3330  177.7830  142.4100 C   0  0  0  0  0  3  0  0  0  0  0  0
  188.0410  178.4200  141.6410 C   0  0  0  0  0  0  0  0  0  0  0  0
  186.7220  178.3810  141.8750 C   0  0  0  0  0  3  0  0  0  0  0  0
  191.2200  177.3720  143.4070 C   0  0  0  0  0  3  0  0  0  0  0  0
  184.7360  178.3060  143.3970 C   0  0  1  0  0  3  0  0  0  0  0  0
  184.7580  179.7700  143.8120 C   0  0  0  0  0  1  0  0  0  0  0  0
  183.9230  178.1620  142.1960 N   0  0  0  0  0  2  0  0  0  0  0  0
  182.5500  178.5540  142.1520 C   0  0  0  0  0  0  0  0  0  0  0  0
  181.9850  179.0210  143.1800 O   0  0  0  0  0  0  0  0  0  0  0  0
  181.7780  178.3830  140.8860 C   0  0  0  0  0  2  0  0  0  0  0  0
  182.2680  179.2920  139.8580 N   0  0  0  0  0  0  0  0  0  0  0  0
  181.7440  179.2820  137.5050 C   0  0  0  0  0  2  0  0  0  0  0  0
  181.2110  180.2690  139.6130 C   0  0  0  0  0  2  0  0  0  0  0  0
  182.4310  178.5280  138.6190 C   0  0  1  0  0  3  0  0  0  0  0  0
  180.6750  180.0660  138.2100 C   0  0  0  0  0  2  0  0  0  0  0  0
  184.3250  177.1740  137.5840 N   0  0  0  0  0  0  0  0  0  0  0  0
  183.8850  178.3320  138.3080 C   0  0  0  0  0  0  0  0  0  0  0  0
  185.8850  175.4820  136.9110 C   0  0  0  0  0  2  0  0  0  0  0  0
  184.3230  174.9250  136.1670 S   0  0  0  0  0  0  0  0  0  0  0  0
  185.7330  176.9340  137.3130 C   0  0  1  0  0  3  0  0  0  0  0  0
  183.3940  176.1570  137.1210 C   0  0  0  0  0  2  0  0  0  0  0  0
  186.1560  177.7550  136.2680 O   0  0  0  0  0  1  0  0  0  0  0  0
  184.7230  179.1980  138.6870 O   0  0  0  0  0  0  0  0  0  0  0  0
  188.5700  178.9250  140.4030 N   0  0  0  0  0  2  0  0  0  0  0  0
  189.3720  176.1440  138.0000 C   0  0  0  0  0  3  0  0  0  0  0  0
  189.5370  176.8670  136.8160 C   0  0  0  0  0  0  0  0  0  0  0  0
  189.0680  178.9230  138.0180 C   0  0  0  0  0  3  0  0  0  0  0  0
  189.0520  176.8100  139.1880 C   0  0  0  0  0  3  0  0  0  0  0  0
  188.8910  178.2040  139.2040 C   0  0  0  0  0  0  0  0  0  0  0  0
  189.3850  178.2610  136.8280 C   0  0  0  0  0  3  0  0  0  0  0  0
  189.1030  175.0540  135.1970 N   0  0  0  0  0  1  0  0  0  0  0  0
  189.8440  176.1710  135.6060 N   0  0  0  0  0  2  0  0  0  0  0  0
  1  5  1  0  0  0  0
  1  6  1  0  0  0  0
  2 11  1  0  0  0  0
  3 16  1  1  0  0  0
  3 10  1  0  0  0  0
  4  7  1  0  0  0  0
  4  8  1  0  0  0  0
  7  9  1  0  0  0  0
  8  1  2  0  0  0  0
  9  5  2  0  0  0  0
 11 10  1  0  0  0  0
 11  7  2  0  0  0  0
 12  2  2  0  0  0  0
 12 15  1  0  0  0  0
 13 14  2  0  0  0  0
 13  2  1  0  0  0  0
 14  3  1  0  0  0  0
 15  4  2  0  0  0  0
 16 17  1  6  0  0  0
 18 16  1  0  0  0  0
 19 18  1  0  0  0  0
 19 20  2  0  0  0  0
 21 19  1  0  0  0  0
 22 21  1  0  0  0  0
 23 26  1  0  0  0  0
 23 25  1  0  0  0  0
 24 22  1  0  0  0  0
 25 28  1  6  0  0  0
 25 22  1  0  0  0  0
 26 24  1  0  0  0  0
 27 28  1  0  0  0  0
 28 34  2  0  0  0  0
 29 31  1  0  0  0  0
 30 29  1  0  0  0  0
 30 32  1  0  0  0  0
 31 33  1  6  0  0  0
 31 27  1  0  0  0  0
 32 27  1  0  0  0  0
 35 13  1  0  0  0  0
 36 39  1  0  0  0  0
 37 41  1  0  0  0  0
 37 36  2  0  0  0  0
 38 40  1  0  0  0  0
 39 40  2  0  0  0  0
 40 35  1  0  0  0  0
 41 38  2  0  0  0  0
 42 43  1  0  0  0  0
 43 37  1  0  0  0  0
M  END
>  <MODEL>
1

>  <REMARK>
 VINA RESULT:      -9.9      0.000      0.000
  Name = 
  8 active torsions:
  status: ('A' for Active; 'I' for Inactive)
    1  A    between atoms: N_1  and  C_34
    2  A    between atoms: N_1  and  C_35
    3  A    between atoms: C_2  and  N_6
    4  A    between atoms: C_2  and  C_13
    5  A    between atoms: C_3  and  N_4
    6  A    between atoms: C_3  and  C_12
    7  A    between atoms: C_14  and  C_22
    8  A    between atoms: C_19  and  N_37
                            x       y       z     vdW  Elec       q    Type
                         _______ _______ _______ _____ _____    ______ ____

>  <TORSDO>
F 8

$$$$
=
 OpenBabel11052416043D

 43 48  0  0  1  0  0  0  0  0999 V2000
  191.2390  176.6430  146.9420 C   0  0  0  0  0  0  0  0  0  0  0  0
  187.1980  177.8550  144.1500 C   0  0  0  0  0  0  0  0  0  0  0  0
  188.1830  178.5860  141.5610 C   0  0  2  0  0  3  0  0  0  0  0  0
  189.0060  177.2260  146.2050 C   0  0  0  0  0  0  0  0  0  0  0  0
  191.6920  176.6840  145.6200 C   0  0  0  0  0  3  0  0  0  0  0  0
  192.1210  176.3340  147.9670 O   0  0  0  0  0  1  0  0  0  0  0  0
  189.4580  177.2720  144.8620 C   0  0  0  0  0  0  0  0  0  0  0  0
  189.8980  176.9130  147.2330 C   0  0  0  0  0  3  0  0  0  0  0  0
  190.8070  176.9970  144.5850 C   0  0  0  0  0  3  0  0  0  0  0  0
  188.9650  177.5560  142.3860 C   0  0  0  0  0  2  0  0  0  0  0  0
  188.5480  177.5920  143.8350 C   0  0  0  0  0  0  0  0  0  0  0  0
  186.7690  177.7990  145.4820 C   0  0  0  0  0  3  0  0  0  0  0  0
  186.2400  178.1910  143.0700 C   0  0  0  0  0  0  0  0  0  0  0  0
  186.7060  178.4750  141.8460 C   0  0  0  0  0  3  0  0  0  0  0  0
  187.6690  177.4870  146.5040 C   0  0  0  0  0  3  0  0  0  0  0  0
  188.4660  178.4100  140.0680 C   0  0  1  0  0  3  0  0  0  0  0  0
  189.5990  177.4190  139.8450 C   0  0  0  0  0  1  0  0  0  0  0  0
  187.2730  177.9340  139.3790 N   0  0  0  0  0  2  0  0  0  0  0  0
  186.9840  178.2820  138.0240 C   0  0  0  0  0  0  0  0  0  0  0  0
  187.7560  179.0450  137.3810 O   0  0  0  0  0  0  0  0  0  0  0  0
  185.7450  177.7530  137.3790 C   0  0  0  0  0  2  0  0  0  0  0  0
  185.8390  176.3120  137.1890 N   0  0  0  0  0  0  0  0  0  0  0  0
  185.1930  175.0330  135.2500 C   0  0  0  0  0  2  0  0  0  0  0  0
  187.0280  176.0640  136.3770 C   0  0  0  0  0  2  0  0  0  0  0  0
  184.6880  175.8860  136.3900 C   0  0  1  0  0  3  0  0  0  0  0  0
  186.5950  175.5240  135.0300 C   0  0  0  0  0  2  0  0  0  0  0  0
  182.3280  175.4830  137.2620 N   0  0  0  0  0  0  0  0  0  0  0  0
  183.7150  175.1180  137.2360 C   0  0  0  0  0  0  0  0  0  0  0  0
  180.1320  175.6510  138.2100 C   0  0  0  0  0  2  0  0  0  0  0  0
  180.0110  176.6610  136.7040 S   0  0  0  0  0  0  0  0  0  0  0  0
  181.3730  174.7900  138.1100 C   0  0  1  0  0  3  0  0  0  0  0  0
  181.8100  176.5930  136.4770 C   0  0  0  0  0  2  0  0  0  0  0  0
  181.0450  173.5600  137.5390 O   0  0  0  0  0  1  0  0  0  0  0  0
  184.1270  174.1440  137.9250 O   0  0  0  0  0  0  0  0  0  0  0  0
  184.8300  178.1490  143.3480 N   0  0  0  0  0  2  0  0  0  0  0  0
  182.7180  178.1380  140.2340 C   0  0  0  0  0  3  0  0  0  0  0  0
  181.5400  178.7130  140.7200 C   0  0  0  0  0  0  0  0  0  0  0  0
  182.5550  178.9070  142.9170 C   0  0  0  0  0  3  0  0  0  0  0  0
  183.8080  177.9450  141.0900 C   0  0  0  0  0  3  0  0  0  0  0  0
  183.7320  178.3230  142.4390 C   0  0  0  0  0  0  0  0  0  0  0  0
  181.4630  179.0990  142.0650 C   0  0  0  0  0  3  0  0  0  0  0  0
  179.7530  180.1090  139.7470 N   0  0  0  0  0  1  0  0  0  0  0  0
  180.4280  178.8850  139.8390 N   0  0  0  0  0  2  0  0  0  0  0  0
  1  8  1  0  0  0  0
  1  6  1  0  0  0  0
  2 12  1  0  0  0  0
  3 16  1  6  0  0  0
  3 14  1  0  0  0  0
  3 10  1  0  0  0  0
  4 15  1  0  0  0  0
  4  8  2  0  0  0  0
  5  1  2  0  0  0  0
  7  4  1  0  0  0  0
  9  7  2  0  0  0  0
  9  5  1  0  0  0  0
 10 11  1  0  0  0  0
 11  2  2  0  0  0  0
 11  7  1  0  0  0  0
 12 15  2  0  0  0  0
 13 35  1  0  0  0  0
 13  2  1  0  0  0  0
 14 13  2  0  0  0  0
 16 17  1  1  0  0  0
 18 16  1  0  0  0  0
 19 18  1  0  0  0  0
 20 19  2  0  0  0  0
 21 19  1  0  0  0  0
 22 21  1  0  0  0  0
 23 25  1  0  0  0  0
 24 22  1  0  0  0  0
 25 22  1  0  0  0  0
 25 28  1  1  0  0  0
 26 23  1  0  0  0  0
 26 24  1  0  0  0  0
 27 31  1  0  0  0  0
 28 27  1  0  0  0  0
 28 34  2  0  0  0  0
 30 29  1  0  0  0  0
 31 33  1  6  0  0  0
 31 29  1  0  0  0  0
 32 30  1  0  0  0  0
 32 27  1  0  0  0  0
 36 37  2  0  0  0  0
 36 39  1  0  0  0  0
 37 41  1  0  0  0  0
 39 40  2  0  0  0  0
 40 38  1  0  0  0  0
 40 35  1  0  0  0  0
 41 38  2  0  0  0  0
 42 43  1  0  0  0  0
 43 37  1  0  0  0  0
M  END
>  <MODEL>
2

>  <REMARK>
 VINA RESULT:      -9.7      2.223      5.564
  Name = 
  8 active torsions:
  status: ('A' for Active; 'I' for Inactive)
    1  A    between atoms: N_1  and  C_34
    2  A    between atoms: N_1  and  C_35
    3  A    between atoms: C_2  and  N_6
    4  A    between atoms: C_2  and  C_13
    5  A    between atoms: C_3  and  N_4
    6  A    between atoms: C_3  and  C_12
    7  A    between atoms: C_14  and  C_22
    8  A    between atoms: C_19  and  N_37
                            x       y       z     vdW  Elec       q    Type
                         _______ _______ _______ _____ _____    ______ ____

>  <TORSDO>
F 8

$$$$
=
 OpenBabel11052416043D

 43 48  0  0  1  0  0  0  0  0999 V2000
  181.3070  179.0970  141.7120 C   0  0  0  0  0  0  0  0  0  0  0  0
  185.9120  178.3070  143.6520 C   0  0  0  0  0  0  0  0  0  0  0  0
  187.6390  177.7150  141.4440 C   0  0  2  0  0  3  0  0  0  0  0  0
  183.1640  178.6880  143.2120 C   0  0  0  0  0  0  0  0  0  0  0  0
  182.1860  179.1280  140.6230 C   0  0  0  0  0  3  0  0  0  0  0  0
  179.9470  179.2830  141.5080 O   0  0  0  0  0  1  0  0  0  0  0  0
  184.0610  178.7150  142.1150 C   0  0  0  0  0  0  0  0  0  0  0  0
  181.7960  178.8780  143.0030 C   0  0  0  0  0  3  0  0  0  0  0  0
  183.5560  178.9380  140.8240 C   0  0  0  0  0  3  0  0  0  0  0  0
  186.4360  178.6390  141.2150 C   0  0  0  0  0  2  0  0  0  0  0  0
  185.4380  178.5200  142.3390 C   0  0  0  0  0  0  0  0  0  0  0  0
  185.0100  178.2890  144.7240 C   0  0  0  0  0  3  0  0  0  0  0  0
  187.3600  178.1010  143.8900 C   0  0  0  0  0  0  0  0  0  0  0  0
  188.1710  177.8830  142.8460 C   0  0  0  0  0  3  0  0  0  0  0  0
  183.6440  178.4780  144.5050 C   0  0  0  0  0  3  0  0  0  0  0  0
  188.7320  177.9830  140.4090 C   0  0  1  0  0  3  0  0  0  0  0  0
  190.0500  177.3550  140.8390 C   0  0  0  0  0  1  0  0  0  0  0  0
  188.3460  177.4390  139.1130 N   0  0  0  0  0  2  0  0  0  0  0  0
  188.4400  178.1980  137.9070 C   0  0  0  0  0  0  0  0  0  0  0  0
  188.8470  179.3930  137.9340 O   0  0  0  0  0  0  0  0  0  0  0  0
  188.0320  177.5750  136.6130 C   0  0  0  0  0  2  0  0  0  0  0  0
  188.1510  176.1250  136.6800 N   0  0  0  0  0  0  0  0  0  0  0  0
  187.6400  174.5190  134.9560 C   0  0  0  0  0  2  0  0  0  0  0  0
  189.3900  175.7660  135.9970 C   0  0  0  0  0  2  0  0  0  0  0  0
  187.0560  175.5450  135.9000 C   0  0  1  0  0  3  0  0  0  0  0  0
  189.0470  174.9940  134.7390 C   0  0  0  0  0  2  0  0  0  0  0  0
  184.8050  175.5860  137.0930 N   0  0  0  0  0  0  0  0  0  0  0  0
  186.0400  174.9140  136.8050 C   0  0  0  0  0  0  0  0  0  0  0  0
  182.8650  176.1260  138.3940 C   0  0  0  0  0  2  0  0  0  0  0  0
  182.8080  177.3400  137.0430 S   0  0  0  0  0  0  0  0  0  0  0  0
  183.8250  175.0220  138.0060 C   0  0  1  0  0  3  0  0  0  0  0  0
  184.4860  176.8860  136.5230 C   0  0  0  0  0  2  0  0  0  0  0  0
  183.1250  173.9970  137.3670 O   0  0  0  0  0  1  0  0  0  0  0  0
  186.2780  173.7830  137.3120 O   0  0  0  0  0  0  0  0  0  0  0  0
  187.8700  178.1980  145.2310 N   0  0  0  0  0  2  0  0  0  0  0  0
  191.4400  177.0910  145.6530 C   0  0  0  0  0  3  0  0  0  0  0  0
  191.3740  176.4820  146.9090 C   0  0  0  0  0  0  0  0  0  0  0  0
  189.0080  177.0100  147.0280 C   0  0  0  0  0  3  0  0  0  0  0  0
  190.2940  177.6620  145.0900 C   0  0  0  0  0  3  0  0  0  0  0  0
  189.0700  177.6310  145.7770 C   0  0  0  0  0  0  0  0  0  0  0  0
  190.1520  176.4410  147.5950 C   0  0  0  0  0  3  0  0  0  0  0  0
  193.0470  176.3560  148.7200 N   0  0  0  0  0  1  0  0  0  0  0  0
  192.5580  175.9210  147.4810 N   0  0  0  0  0  2  0  0  0  0  0  0
  1  8  1  0  0  0  0
  2 13  1  0  0  0  0
  2 12  1  0  0  0  0
  3 16  1  6  0  0  0
  3 14  1  0  0  0  0
  4 15  1  0  0  0  0
  5  9  1  0  0  0  0
  5  1  2  0  0  0  0
  6  1  1  0  0  0  0
  7 11  1  0  0  0  0
  7  4  1  0  0  0  0
  8  4  2  0  0  0  0
  9  7  2  0  0  0  0
 10  3  1  0  0  0  0
 10 11  1  0  0  0  0
 11  2  2  0  0  0  0
 13 35  1  0  0  0  0
 14 13  2  0  0  0  0
 15 12  2  0  0  0  0
 16 17  1  1  0  0  0
 18 16  1  0  0  0  0
 19 20  2  0  0  0  0
 19 18  1  0  0  0  0
 21 22  1  0  0  0  0
 21 19  1  0  0  0  0
 23 25  1  0  0  0  0
 24 22  1  0  0  0  0
 25 22  1  0  0  0  0
 25 28  1  1  0  0  0
 26 23  1  0  0  0  0
 26 24  1  0  0  0  0
 27 31  1  0  0  0  0
 28 27  1  0  0  0  0
 28 34  2  0  0  0  0
 30 29  1  0  0  0  0
 31 33  1  6  0  0  0
 31 29  1  0  0  0  0
 32 30  1  0  0  0  0
 32 27  1  0  0  0  0
 35 40  1  0  0  0  0
 36 37  1  0  0  0  0
 37 43  1  0  0  0  0
 37 41  2  0  0  0  0
 38 41  1  0  0  0  0
 39 36  2  0  0  0  0
 39 40  1  0  0  0  0
 40 38  2  0  0  0  0
 43 42  1  0  0  0  0
M  END
>  <MODEL>
3

>  <REMARK>
 VINA RESULT:      -9.6      2.777      7.535
  Name = 
  8 active torsions:
  status: ('A' for Active; 'I' for Inactive)
    1  A    between atoms: N_1  and  C_34
    2  A    between atoms: N_1  and  C_35
    3  A    between atoms: C_2  and  N_6
    4  A    between atoms: C_2  and  C_13
    5  A    between atoms: C_3  and  N_4
    6  A    between atoms: C_3  and  C_12
    7  A    between atoms: C_14  and  C_22
    8  A    between atoms: C_19  and  N_37
                            x       y       z     vdW  Elec       q    Type
                         _______ _______ _______ _____ _____    ______ ____

>  <TORSDO>
F 8

$$$$
=
 OpenBabel11052416043D

 43 48  0  0  1  0  0  0  0  0999 V2000
  191.1350  176.6020  146.6980 C   0  0  0  0  0  0  0  0  0  0  0  0
  187.1010  177.8690  143.9200 C   0  0  0  0  0  0  0  0  0  0  0  0
  188.0910  178.6370  141.3440 C   0  0  2  0  0  3  0  0  0  0  0  0
  188.9050  177.2030  145.9670 C   0  0  0  0  0  0  0  0  0  0  0  0
  191.5900  176.6630  145.3760 C   0  0  0  0  0  3  0  0  0  0  0  0
  192.0150  176.2750  147.7190 O   0  0  0  0  0  1  0  0  0  0  0  0
  189.3580  177.2690  144.6260 C   0  0  0  0  0  0  0  0  0  0  0  0
  189.7940  176.8710  146.9910 C   0  0  0  0  0  3  0  0  0  0  0  0
  190.7070  176.9940  144.3460 C   0  0  0  0  0  3  0  0  0  0  0  0
  188.8700  177.5930  142.1530 C   0  0  0  0  0  2  0  0  0  0  0  0
  188.4510  177.6070  143.6020 C   0  0  0  0  0  0  0  0  0  0  0  0
  186.6710  177.7930  145.2510 C   0  0  0  0  0  3  0  0  0  0  0  0
  186.1460  178.2240  142.8450 C   0  0  0  0  0  0  0  0  0  0  0  0
  186.6140  178.5260  141.6260 C   0  0  0  0  0  3  0  0  0  0  0  0
  187.5680  177.4620  146.2680 C   0  0  0  0  0  3  0  0  0  0  0  0
  188.3760  178.4850  139.8480 C   0  0  1  0  0  3  0  0  0  0  0  0
  189.7630  177.9020  139.6190 C   0  0  0  0  0  1  0  0  0  0  0  0
  187.3840  177.6140  139.2310 N   0  0  0  0  0  2  0  0  0  0  0  0
  186.7490  177.9370  137.9920 C   0  0  0  0  0  0  0  0  0  0  0  0
  187.0180  179.0180  137.3990 O   0  0  0  0  0  0  0  0  0  0  0  0
  185.7460  176.9950  137.4140 C   0  0  0  0  0  2  0  0  0  0  0  0
  186.0660  176.6890  136.0260 N   0  0  0  0  0  0  0  0  0  0  0  0
  186.7000  174.5590  135.0920 C   0  0  0  0  0  2  0  0  0  0  0  0
  184.8810  176.0660  135.4420 C   0  0  0  0  0  2  0  0  0  0  0  0
  187.1220  175.6740  136.0200 C   0  0  1  0  0  3  0  0  0  0  0  0
  185.2000  174.6210  135.1180 C   0  0  0  0  0  2  0  0  0  0  0  0
  189.6570  175.8720  136.1890 N   0  0  0  0  0  0  0  0  0  0  0  0
  188.4240  176.2710  135.5720 C   0  0  0  0  0  0  0  0  0  0  0  0
  191.9330  176.1400  136.8920 C   0  0  0  0  0  2  0  0  0  0  0  0
  191.4360  174.5820  137.6850 S   0  0  0  0  0  0  0  0  0  0  0  0
  190.9260  176.4700  135.8110 C   0  0  1  0  0  3  0  0  0  0  0  0
  189.6990  174.8810  137.2530 C   0  0  0  0  0  2  0  0  0  0  0  0
  191.3530  175.9350  134.5960 O   0  0  0  0  0  1  0  0  0  0  0  0
  188.4270  177.1280  134.6460 O   0  0  0  0  0  0  0  0  0  0  0  0
  184.7350  178.1820  143.1190 N   0  0  0  0  0  2  0  0  0  0  0  0
  182.6430  178.1790  139.9930 C   0  0  0  0  0  3  0  0  0  0  0  0
  181.4480  178.7140  140.4820 C   0  0  0  0  0  0  0  0  0  0  0  0
  182.4440  178.8900  142.6890 C   0  0  0  0  0  3  0  0  0  0  0  0
  183.7330  177.9970  140.8510 C   0  0  0  0  0  3  0  0  0  0  0  0
  183.6390  178.3460  142.2070 C   0  0  0  0  0  0  0  0  0  0  0  0
  181.3520  179.0710  141.8340 C   0  0  0  0  0  3  0  0  0  0  0  0
  180.5050  178.8780  138.2060 N   0  0  0  0  0  1  0  0  0  0  0  0
  180.3370  178.8760  139.5980 N   0  0  0  0  0  2  0  0  0  0  0  0
  1  8  1  0  0  0  0
  1  6  1  0  0  0  0
  2 12  1  0  0  0  0
  3 16  1  6  0  0  0
  3 14  1  0  0  0  0
  3 10  1  0  0  0  0
  4 15  1  0  0  0  0
  4  8  2  0  0  0  0
  5  1  2  0  0  0  0
  7  4  1  0  0  0  0
  9  7  2  0  0  0  0
  9  5  1  0  0  0  0
 10 11  1  0  0  0  0
 11  2  2  0  0  0  0
 11  7  1  0  0  0  0
 12 15  2  0  0  0  0
 13 35  1  0  0  0  0
 13  2  1  0  0  0  0
 14 13  2  0  0  0  0
 16 17  1  1  0  0  0
 18 16  1  0  0  0  0
 19 18  1  0  0  0  0
 20 19  2  0  0  0  0
 21 19  1  0  0  0  0
 22 21  1  0  0  0  0
 23 26  1  0  0  0  0
 23 25  1  0  0  0  0
 24 22  1  0  0  0  0
 25 28  1  6  0  0  0
 25 22  1  0  0  0  0
 26 24  1  0  0  0  0
 27 32  1  0  0  0  0
 28 27  1  0  0  0  0
 29 30  1  0  0  0  0
 31 33  1  6  0  0  0
 31 27  1  0  0  0  0
 31 29  1  0  0  0  0
 32 30  1  0  0  0  0
 34 28  2  0  0  0  0
 36 37  2  0  0  0  0
 36 39  1  0  0  0  0
 37 41  1  0  0  0  0
 39 40  2  0  0  0  0
 40 38  1  0  0  0  0
 40 35  1  0  0  0  0
 41 38  2  0  0  0  0
 42 43  1  0  0  0  0
 43 37  1  0  0  0  0
M  END
>  <MODEL>
4

>  <REMARK>
 VINA RESULT:      -9.4      2.189      5.770
  Name = 
  8 active torsions:
  status: ('A' for Active; 'I' for Inactive)
    1  A    between atoms: N_1  and  C_34
    2  A    between atoms: N_1  and  C_35
    3  A    between atoms: C_2  and  N_6
    4  A    between atoms: C_2  and  C_13
    5  A    between atoms: C_3  and  N_4
    6  A    between atoms: C_3  and  C_12
    7  A    between atoms: C_14  and  C_22
    8  A    between atoms: C_19  and  N_37
                            x       y       z     vdW  Elec       q    Type
                         _______ _______ _______ _____ _____    ______ ____

>  <TORSDO>
F 8

$$$$
=
 OpenBabel11052416043D

 43 48  0  0  1  0  0  0  0  0999 V2000
  191.4320  176.5760  147.0060 C   0  0  0  0  0  0  0  0  0  0  0  0
  187.1600  177.9220  144.6550 C   0  0  0  0  0  0  0  0  0  0  0  0
  187.8090  178.2050  141.8780 C   0  0  2  0  0  3  0  0  0  0  0  0
  189.1860  177.3330  146.5090 C   0  0  0  0  0  0  0  0  0  0  0  0
  191.6810  176.4000  145.6410 C   0  0  0  0  0  3  0  0  0  0  0  0
  192.4240  176.2890  147.9320 O   0  0  0  0  0  1  0  0  0  0  0  0
  189.4300  177.1600  145.1230 C   0  0  0  0  0  0  0  0  0  0  0  0
  190.1870  177.0410  147.4380 C   0  0  0  0  0  3  0  0  0  0  0  0
  190.6860  176.6900  144.7040 C   0  0  0  0  0  3  0  0  0  0  0  0
  188.5980  177.1960  142.7230 C   0  0  0  0  0  2  0  0  0  0  0  0
  188.4130  177.4590  144.1960 C   0  0  0  0  0  0  0  0  0  0  0  0
  186.9360  178.0820  146.0280 C   0  0  0  0  0  3  0  0  0  0  0  0
  186.0890  178.2380  143.6810 C   0  0  0  0  0  0  0  0  0  0  0  0
  186.3900  178.3110  142.3770 C   0  0  0  0  0  3  0  0  0  0  0  0
  187.9430  177.7890  146.9490 C   0  0  0  0  0  3  0  0  0  0  0  0
  187.8420  177.8160  140.4000 C   0  0  1  0  0  3  0  0  0  0  0  0
  186.8290  178.6270  139.6050 C   0  0  0  0  0  1  0  0  0  0  0  0
  189.1720  178.0400  139.8470 N   0  0  0  0  0  2  0  0  0  0  0  0
  190.1940  177.0430  139.8900 C   0  0  0  0  0  0  0  0  0  0  0  0
  189.9770  175.9280  140.4390 O   0  0  0  0  0  0  0  0  0  0  0  0
  191.5330  177.3390  139.2990 C   0  0  0  0  0  2  0  0  0  0  0  0
  192.0390  176.1860  138.5660 N   0  0  0  0  0  0  0  0  0  0  0  0
  192.4340  176.0000  136.1960 C   0  0  0  0  0  2  0  0  0  0  0  0
  193.4560  176.4320  138.3100 C   0  0  0  0  0  2  0  0  0  0  0  0
  191.3750  176.1530  137.2620 C   0  0  1  0  0  3  0  0  0  0  0  0
  193.6580  176.6060  136.8190 C   0  0  0  0  0  2  0  0  0  0  0  0
  189.0210  175.2640  136.8590 N   0  0  0  0  0  0  0  0  0  0  0  0
  190.3940  175.0200  137.1990 C   0  0  0  0  0  0  0  0  0  0  0  0
  186.6630  174.8290  136.8470 C   0  0  0  0  0  2  0  0  0  0  0  0
  186.7840  176.4710  136.0780 S   0  0  0  0  0  0  0  0  0  0  0  0
  188.0380  174.1940  136.8400 C   0  0  1  0  0  3  0  0  0  0  0  0
  188.5300  176.6000  136.5570 C   0  0  0  0  0  2  0  0  0  0  0  0
  188.1960  173.4330  135.6820 O   0  0  0  0  0  1  0  0  0  0  0  0
  190.7850  173.8460  137.4480 O   0  0  0  0  0  0  0  0  0  0  0  0
  184.7400  178.4030  144.1520 N   0  0  0  0  0  2  0  0  0  0  0  0
  182.3110  178.6130  141.2880 C   0  0  0  0  0  3  0  0  0  0  0  0
  181.1530  179.0120  141.9610 C   0  0  0  0  0  0  0  0  0  0  0  0
  182.3820  179.0060  144.0550 C   0  0  0  0  0  3  0  0  0  0  0  0
  183.4980  178.4070  141.9980 C   0  0  0  0  0  3  0  0  0  0  0  0
  183.5410  178.5960  143.3880 C   0  0  0  0  0  0  0  0  0  0  0  0
  181.1930  179.2100  143.3490 C   0  0  0  0  0  3  0  0  0  0  0  0
  179.3280  178.1370  140.5480 N   0  0  0  0  0  1  0  0  0  0  0  0
  179.9420  179.1990  141.2260 N   0  0  0  0  0  2  0  0  0  0  0  0
  1  8  1  0  0  0  0
  1  6  1  0  0  0  0
  2 12  1  0  0  0  0
  3 16  1  6  0  0  0
  3 14  1  0  0  0  0
  3 10  1  0  0  0  0
  4 15  1  0  0  0  0
  4  8  2  0  0  0  0
  5  1  2  0  0  0  0
  7  4  1  0  0  0  0
  9  7  2  0  0  0  0
  9  5  1  0  0  0  0
 10 11  1  0  0  0  0
 11  2  2  0  0  0  0
 11  7  1  0  0  0  0
 12 15  2  0  0  0  0
 13 35  1  0  0  0  0
 13  2  1  0  0  0  0
 14 13  2  0  0  0  0
 16 17  1  6  0  0  0
 18 19  1  0  0  0  0
 18 16  1  0  0  0  0
 19 20  2  0  0  0  0
 21 19  1  0  0  0  0
 22 21  1  0  0  0  0
 23 26  1  0  0  0  0
 23 25  1  0  0  0  0
 24 22  1  0  0  0  0
 25 28  1  1  0  0  0
 25 22  1  0  0  0  0
 26 24  1  0  0  0  0
 27 28  1  0  0  0  0
 28 34  2  0  0  0  0
 30 32  1  0  0  0  0
 30 29  1  0  0  0  0
 31 33  1  6  0  0  0
 31 29  1  0  0  0  0
 31 27  1  0  0  0  0
 32 27  1  0  0  0  0
 36 37  2  0  0  0  0
 36 39  1  0  0  0  0
 37 41  1  0  0  0  0
 39 40  2  0  0  0  0
 40 38  1  0  0  0  0
 40 35  1  0  0  0  0
 41 38  2  0  0  0  0
 42 43  1  0  0  0  0
 43 37  1  0  0  0  0
M  END
>  <MODEL>
5

>  <REMARK>
 VINA RESULT:      -9.2      2.671      6.917
  Name = 
  8 active torsions:
  status: ('A' for Active; 'I' for Inactive)
    1  A    between atoms: N_1  and  C_34
    2  A    between atoms: N_1  and  C_35
    3  A    between atoms: C_2  and  N_6
    4  A    between atoms: C_2  and  C_13
    5  A    between atoms: C_3  and  N_4
    6  A    between atoms: C_3  and  C_12
    7  A    between atoms: C_14  and  C_22
    8  A    between atoms: C_19  and  N_37
                            x       y       z     vdW  Elec       q    Type
                         _______ _______ _______ _____ _____    ______ ____

>  <TORSDO>
F 8

$$$$
=
 OpenBabel11052416043D

 43 48  0  0  1  0  0  0  0  0999 V2000
  191.1740  176.6120  146.9530 C   0  0  0  0  0  0  0  0  0  0  0  0
  188.6760  177.8630  142.7360 C   0  0  0  0  0  0  0  0  0  0  0  0
  185.8860  177.7770  143.3820 C   0  0  2  0  0  3  0  0  0  0  0  0
  190.5780  177.1030  144.6570 C   0  0  0  0  0  0  0  0  0  0  0  0
  189.8610  176.8760  147.3560 C   0  0  0  0  0  3  0  0  0  0  0  0
  192.1240  176.2350  147.8910 O   0  0  0  0  0  1  0  0  0  0  0  0
  189.2450  177.3710  145.0560 C   0  0  0  0  0  0  0  0  0  0  0  0
  191.5320  176.7270  145.6060 C   0  0  0  0  0  3  0  0  0  0  0  0
  188.9010  177.2530  146.4140 C   0  0  0  0  0  3  0  0  0  0  0  0
  186.8900  178.1350  144.4860 C   0  0  0  0  0  2  0  0  0  0  0  0
  188.2920  177.7480  144.0890 C   0  0  0  0  0  0  0  0  0  0  0  0
  190.0000  177.6010  142.3610 C   0  0  0  0  0  3  0  0  0  0  0  0
  187.6760  178.2600  141.7170 C   0  0  0  0  0  0  0  0  0  0  0  0
  186.3760  178.2740  142.0450 C   0  0  0  0  0  3  0  0  0  0  0  0
  190.9450  177.2230  143.3170 C   0  0  0  0  0  3  0  0  0  0  0  0
  184.5030  178.3460  143.7040 C   0  0  1  0  0  3  0  0  0  0  0  0
  184.6100  179.7860  144.1860 C   0  0  0  0  0  1  0  0  0  0  0  0
  183.6500  178.3010  142.5220 N   0  0  0  0  0  2  0  0  0  0  0  0
  182.2590  178.6220  142.5730 C   0  0  0  0  0  0  0  0  0  0  0  0
  181.7140  178.9360  143.6670 O   0  0  0  0  0  0  0  0  0  0  0  0
  181.4460  178.5590  141.3220 C   0  0  0  0  0  2  0  0  0  0  0  0
  182.2830  178.2130  140.1810 N   0  0  0  0  0  0  0  0  0  0  0  0
  181.7470  178.4190  137.8390 C   0  0  0  0  0  2  0  0  0  0  0  0
  182.8580  179.4590  139.6800 C   0  0  0  0  0  2  0  0  0  0  0  0
  181.4140  177.6950  139.1230 C   0  0  1  0  0  3  0  0  0  0  0  0
  182.2880  179.7400  138.3050 C   0  0  0  0  0  2  0  0  0  0  0  0
  180.7550  175.4660  138.0800 N   0  0  0  0  0  0  0  0  0  0  0  0
  181.6030  176.2160  138.9610 C   0  0  0  0  0  0  0  0  0  0  0  0
  179.6240  173.5090  137.2800 C   0  0  0  0  0  2  0  0  0  0  0  0
  178.9310  174.8370  136.2520 S   0  0  0  0  0  0  0  0  0  0  0  0
  180.8840  174.0250  137.9430 C   0  0  1  0  0  3  0  0  0  0  0  0
  179.6950  176.0980  137.3110 C   0  0  0  0  0  2  0  0  0  0  0  0
  181.9880  173.7260  137.1450 O   0  0  0  0  0  1  0  0  0  0  0  0
  182.5190  175.6340  139.6070 O   0  0  0  0  0  0  0  0  0  0  0  0
  188.1270  178.6770  140.4170 N   0  0  0  0  0  2  0  0  0  0  0  0
  188.6950  176.5610  137.3590 C   0  0  0  0  0  3  0  0  0  0  0  0
  187.5090  176.7960  136.6590 C   0  0  0  0  0  0  0  0  0  0  0  0
  186.7620  178.2640  138.4420 C   0  0  0  0  0  3  0  0  0  0  0  0
  188.9110  177.1720  138.5990 C   0  0  0  0  0  3  0  0  0  0  0  0
  187.9420  178.0240  139.1520 C   0  0  0  0  0  0  0  0  0  0  0  0
  186.5420  177.6530  137.2040 C   0  0  0  0  0  3  0  0  0  0  0  0
  186.8730  174.8140  135.3330 N   0  0  0  0  0  1  0  0  0  0  0  0
  187.2940  176.1490  135.4030 N   0  0  0  0  0  2  0  0  0  0  0  0
  1  5  1  0  0  0  0
  1  6  1  0  0  0  0
  2 11  1  0  0  0  0
  3 16  1  1  0  0  0
  3 10  1  0  0  0  0
  4  7  1  0  0  0  0
  4  8  1  0  0  0  0
  7  9  1  0  0  0  0
  8  1  2  0  0  0  0
  9  5  2  0  0  0  0
 11 10  1  0  0  0  0
 11  7  2  0  0  0  0
 12  2  2  0  0  0  0
 12 15  1  0  0  0  0
 13 14  2  0  0  0  0
 13  2  1  0  0  0  0
 14  3  1  0  0  0  0
 15  4  2  0  0  0  0
 16 17  1  6  0  0  0
 18 19  1  0  0  0  0
 18 16  1  0  0  0  0
 19 20  2  0  0  0  0
 21 19  1  0  0  0  0
 22 21  1  0  0  0  0
 23 26  1  0  0  0  0
 23 25  1  0  0  0  0
 24 22  1  0  0  0  0
 25 28  1  6  0  0  0
 25 22  1  0  0  0  0
 26 24  1  0  0  0  0
 27 28  1  0  0  0  0
 28 34  2  0  0  0  0
 29 31  1  0  0  0  0
 30 29  1  0  0  0  0
 30 32  1  0  0  0  0
 31 33  1  6  0  0  0
 31 27  1  0  0  0  0
 32 27  1  0  0  0  0
 35 13  1  0  0  0  0
 36 39  1  0  0  0  0
 37 41  1  0  0  0  0
 37 36  2  0  0  0  0
 38 40  1  0  0  0  0
 39 40  2  0  0  0  0
 40 35  1  0  0  0  0
 41 38  2  0  0  0  0
 42 43  1  0  0  0  0
 43 37  1  0  0  0  0
M  END
>  <MODEL>
6

>  <REMARK>
 VINA RESULT:      -8.9      2.055      2.377
  Name = 
  8 active torsions:
  status: ('A' for Active; 'I' for Inactive)
    1  A    between atoms: N_1  and  C_34
    2  A    between atoms: N_1  and  C_35
    3  A    between atoms: C_2  and  N_6
    4  A    between atoms: C_2  and  C_13
    5  A    between atoms: C_3  and  N_4
    6  A    between atoms: C_3  and  C_12
    7  A    between atoms: C_14  and  C_22
    8  A    between atoms: C_19  and  N_37
                            x       y       z     vdW  Elec       q    Type
                         _______ _______ _______ _____ _____    ______ ____

>  <TORSDO>
F 8

$$$$
=
 OpenBabel11052416043D

 43 48  0  0  1  0  0  0  0  0999 V2000
  191.2350  176.5200  147.0200 C   0  0  0  0  0  0  0  0  0  0  0  0
  188.9090  177.8520  142.7290 C   0  0  0  0  0  0  0  0  0  0  0  0
  186.0950  177.7080  143.2460 C   0  0  2  0  0  3  0  0  0  0  0  0
  190.7350  177.0660  144.7140 C   0  0  0  0  0  0  0  0  0  0  0  0
  189.9010  176.7540  147.3700 C   0  0  0  0  0  3  0  0  0  0  0  0
  192.1470  176.1310  147.9900 O   0  0  0  0  0  1  0  0  0  0  0  0
  189.3810  177.3030  145.0590 C   0  0  0  0  0  0  0  0  0  0  0  0
  191.6510  176.6770  145.6940 C   0  0  0  0  0  3  0  0  0  0  0  0
  188.9790  177.1430  146.3960 C   0  0  0  0  0  3  0  0  0  0  0  0
  187.0430  178.0490  144.4030 C   0  0  0  0  0  2  0  0  0  0  0  0
  188.4670  177.6940  144.0610 C   0  0  0  0  0  0  0  0  0  0  0  0
  190.2530  177.6190  142.4080 C   0  0  0  0  0  3  0  0  0  0  0  0
  187.9500  178.2620  141.6780 C   0  0  0  0  0  0  0  0  0  0  0  0
  186.6370  178.2480  141.9470 C   0  0  0  0  0  3  0  0  0  0  0  0
  191.1600  177.2280  143.3950 C   0  0  0  0  0  3  0  0  0  0  0  0
  184.6900  178.2480  143.5200 C   0  0  1  0  0  3  0  0  0  0  0  0
  184.7110  179.2540  144.6610 C   0  0  0  0  0  1  0  0  0  0  0  0
  184.1540  178.8920  142.3270 N   0  0  0  0  0  2  0  0  0  0  0  0
  182.7660  178.8460  141.9930 C   0  0  0  0  0  0  0  0  0  0  0  0
  181.9530  178.2150  142.7240 O   0  0  0  0  0  0  0  0  0  0  0  0
  182.2850  179.5320  140.7580 C   0  0  0  0  0  2  0  0  0  0  0  0
  181.9520  178.5600  139.7250 N   0  0  0  0  0  0  0  0  0  0  0  0
  183.0530  178.2190  137.6080 C   0  0  0  0  0  2  0  0  0  0  0  0
  182.8930  177.4510  139.8630 C   0  0  0  0  0  2  0  0  0  0  0  0
  182.2150  179.1760  138.4230 C   0  0  1  0  0  3  0  0  0  0  0  0
  183.7900  177.4190  138.6420 C   0  0  0  0  0  2  0  0  0  0  0  0
  180.5150  180.8470  137.5230 N   0  0  0  0  0  0  0  0  0  0  0  0
  180.9290  179.4870  137.7170 C   0  0  0  0  0  0  0  0  0  0  0  0
  178.9410  182.6250  137.1970 C   0  0  0  0  0  2  0  0  0  0  0  0
  180.5090  183.5050  137.4610 S   0  0  0  0  0  0  0  0  0  0  0  0
  179.2500  181.1760  136.8880 C   0  0  1  0  0  3  0  0  0  0  0  0
  181.3170  181.9680  137.9880 C   0  0  0  0  0  2  0  0  0  0  0  0
  179.3600  181.0060  135.5080 O   0  0  0  0  0  1  0  0  0  0  0  0
  180.2100  178.5400  137.2930 O   0  0  0  0  0  0  0  0  0  0  0  0
  188.4530  178.7210  140.4110 N   0  0  0  0  0  2  0  0  0  0  0  0
  187.6370  177.5630  136.9260 C   0  0  0  0  0  3  0  0  0  0  0  0
  188.6340  176.6020  136.7340 C   0  0  0  0  0  0  0  0  0  0  0  0
  189.4830  177.0540  138.9630 C   0  0  0  0  0  3  0  0  0  0  0  0
  187.5680  178.2690  138.1320 C   0  0  0  0  0  3  0  0  0  0  0  0
  188.4940  178.0240  139.1570 C   0  0  0  0  0  0  0  0  0  0  0  0
  189.5570  176.3480  137.7590 C   0  0  0  0  0  3  0  0  0  0  0  0
  189.8430  175.1710  135.1270 N   0  0  0  0  0  1  0  0  0  0  0  0
  188.7050  175.9030  135.4900 N   0  0  0  0  0  2  0  0  0  0  0  0
  1  5  1  0  0  0  0
  1  6  1  0  0  0  0
  2 11  1  0  0  0  0
  3 16  1  1  0  0  0
  3 10  1  0  0  0  0
  4  7  1  0  0  0  0
  4  8  1  0  0  0  0
  7  9  1  0  0  0  0
  8  1  2  0  0  0  0
  9  5  2  0  0  0  0
 11 10  1  0  0  0  0
 11  7  2  0  0  0  0
 12  2  2  0  0  0  0
 12 15  1  0  0  0  0
 13 14  2  0  0  0  0
 13  2  1  0  0  0  0
 14  3  1  0  0  0  0
 15  4  2  0  0  0  0
 16 17  1  1  0  0  0
 18 16  1  0  0  0  0
 19 18  1  0  0  0  0
 19 20  2  0  0  0  0
 21 19  1  0  0  0  0
 22 24  1  0  0  0  0
 22 21  1  0  0  0  0
 23 25  1  0  0  0  0
 23 26  1  0  0  0  0
 25 28  1  6  0  0  0
 25 22  1  0  0  0  0
 26 24  1  0  0  0  0
 27 28  1  0  0  0  0
 27 32  1  0  0  0  0
 29 30  1  0  0  0  0
 30 32  1  0  0  0  0
 31 33  1  6  0  0  0
 31 29  1  0  0  0  0
 31 27  1  0  0  0  0
 34 28  2  0  0  0  0
 35 13  1  0  0  0  0
 36 39  1  0  0  0  0
 37 36  2  0  0  0  0
 37 41  1  0  0  0  0
 38 40  1  0  0  0  0
 39 40  2  0  0  0  0
 40 35  1  0  0  0  0
 41 38  2  0  0  0  0
 42 43  1  0  0  0  0
 43 37  1  0  0  0  0
M  END
>  <MODEL>
7

>  <REMARK>
 VINA RESULT:      -8.8      2.189      3.294
  Name = 
  8 active torsions:
  status: ('A' for Active; 'I' for Inactive)
    1  A    between atoms: N_1  and  C_34
    2  A    between atoms: N_1  and  C_35
    3  A    between atoms: C_2  and  N_6
    4  A    between atoms: C_2  and  C_13
    5  A    between atoms: C_3  and  N_4
    6  A    between atoms: C_3  and  C_12
    7  A    between atoms: C_14  and  C_22
    8  A    between atoms: C_19  and  N_37
                            x       y       z     vdW  Elec       q    Type
                         _______ _______ _______ _____ _____    ______ ____

>  <TORSDO>
F 8

$$$$
=
 OpenBabel11052416043D

 43 48  0  0  1  0  0  0  0  0999 V2000
  187.6360  177.6730  147.3970 C   0  0  0  0  0  0  0  0  0  0  0  0
  187.9250  178.1730  142.3710 C   0  0  0  0  0  0  0  0  0  0  0  0
  185.2450  177.9790  141.3750 C   0  0  2  0  0  3  0  0  0  0  0  0
  188.4250  177.8110  145.1110 C   0  0  0  0  0  0  0  0  0  0  0  0
  186.3240  177.8960  146.9630 C   0  0  0  0  0  3  0  0  0  0  0  0
  187.8970  177.4930  148.7470 O   0  0  0  0  0  1  0  0  0  0  0  0
  187.0990  178.0350  144.6630 C   0  0  0  0  0  0  0  0  0  0  0  0
  188.6840  177.6320  146.4720 C   0  0  0  0  0  3  0  0  0  0  0  0
  186.0570  178.0760  145.6040 C   0  0  0  0  0  3  0  0  0  0  0  0
  185.4720  178.5500  142.7810 C   0  0  0  0  0  2  0  0  0  0  0  0
  186.8510  178.2130  143.2870 C   0  0  0  0  0  0  0  0  0  0  0  0
  189.2290  177.9560  142.8330 C   0  0  0  0  0  3  0  0  0  0  0  0
  187.6660  178.3590  140.9240 C   0  0  0  0  0  0  0  0  0  0  0  0
  186.4040  178.3260  140.4740 C   0  0  0  0  0  3  0  0  0  0  0  0
  189.4770  177.7760  144.1950 C   0  0  0  0  0  3  0  0  0  0  0  0
  183.9260  178.4880  140.7900 C   0  0  1  0  0  3  0  0  0  0  0  0
  184.1810  179.4440  139.6330 C   0  0  0  0  0  1  0  0  0  0  0  0
  183.1180  177.3710  140.3170 N   0  0  0  0  0  2  0  0  0  0  0  0
  181.6910  177.4250  140.2750 C   0  0  0  0  0  0  0  0  0  0  0  0
  181.0780  178.4520  140.6760 O   0  0  0  0  0  0  0  0  0  0  0  0
  180.9270  176.2450  139.7730 C   0  0  0  0  0  2  0  0  0  0  0  0
  180.8220  176.2800  138.3200 N   0  0  0  0  0  0  0  0  0  0  0  0
  180.9240  174.4220  136.7870 C   0  0  0  0  0  2  0  0  0  0  0  0
  179.4590  175.8810  137.9810 C   0  0  0  0  0  2  0  0  0  0  0  0
  181.7090  175.2490  137.7780 C   0  0  1  0  0  3  0  0  0  0  0  0
  179.5050  174.5480  137.2610 C   0  0  0  0  0  2  0  0  0  0  0  0
  184.1490  175.1660  137.0460 N   0  0  0  0  0  0  0  0  0  0  0  0
  182.9030  175.8740  137.1180 C   0  0  0  0  0  0  0  0  0  0  0  0
  186.5320  174.9510  136.8950 C   0  0  0  0  0  2  0  0  0  0  0  0
  185.9820  173.2480  137.2130 S   0  0  0  0  0  0  0  0  0  0  0  0
  185.3340  175.7670  136.4590 C   0  0  1  0  0  3  0  0  0  0  0  0
  184.3060  173.8290  137.5960 C   0  0  0  0  0  2  0  0  0  0  0  0
  185.2320  175.7410  135.0670 O   0  0  0  0  0  1  0  0  0  0  0  0
  182.8020  177.0310  136.6230 O   0  0  0  0  0  0  0  0  0  0  0  0
  188.7710  178.6290  140.0440 N   0  0  0  0  0  2  0  0  0  0  0  0
  189.0420  178.0020  136.3450 C   0  0  0  0  0  3  0  0  0  0  0  0
  189.7000  176.7690  136.3400 C   0  0  0  0  0  0  0  0  0  0  0  0
  189.7260  176.7860  138.7670 C   0  0  0  0  0  3  0  0  0  0  0  0
  188.7320  178.6260  137.5580 C   0  0  0  0  0  3  0  0  0  0  0  0
  189.0770  178.0260  138.7780 C   0  0  0  0  0  0  0  0  0  0  0  0
  190.0400  176.1610  137.5570 C   0  0  0  0  0  3  0  0  0  0  0  0
  189.6660  174.8270  134.8160 N   0  0  0  0  0  1  0  0  0  0  0  0
  190.0280  176.1520  135.0940 N   0  0  0  0  0  2  0  0  0  0  0  0
  1  6  1  0  0  0  0
  2 12  2  0  0  0  0
  2 11  1  0  0  0  0
  3 16  1  6  0  0  0
  3 10  1  0  0  0  0
  4  8  1  0  0  0  0
  5  1  1  0  0  0  0
  7  4  1  0  0  0  0
  7  9  1  0  0  0  0
  8  1  2  0  0  0  0
  9  5  2  0  0  0  0
 10 11  1  0  0  0  0
 11  7  2  0  0  0  0
 12 15  1  0  0  0  0
 13  2  1  0  0  0  0
 14 13  2  0  0  0  0
 14  3  1  0  0  0  0
 15  4  2  0  0  0  0
 16 17  1  6  0  0  0
 18 16  1  0  0  0  0
 19 18  1  0  0  0  0
 19 20  2  0  0  0  0
 21 19  1  0  0  0  0
 22 21  1  0  0  0  0
 23 26  1  0  0  0  0
 23 25  1  0  0  0  0
 24 22  1  0  0  0  0
 25 28  1  6  0  0  0
 25 22  1  0  0  0  0
 26 24  1  0  0  0  0
 27 28  1  0  0  0  0
 27 32  1  0  0  0  0
 29 30  1  0  0  0  0
 30 32  1  0  0  0  0
 31 33  1  6  0  0  0
 31 29  1  0  0  0  0
 31 27  1  0  0  0  0
 34 28  2  0  0  0  0
 35 13  1  0  0  0  0
 36 39  1  0  0  0  0
 37 36  2  0  0  0  0
 37 41  1  0  0  0  0
 38 40  1  0  0  0  0
 39 40  2  0  0  0  0
 40 35  1  0  0  0  0
 41 38  2  0  0  0  0
 42 43  1  0  0  0  0
 43 37  1  0  0  0  0
M  END
>  <MODEL>
8

>  <REMARK>
 VINA RESULT:      -8.5      1.996      2.781
  Name = 
  8 active torsions:
  status: ('A' for Active; 'I' for Inactive)
    1  A    between atoms: N_1  and  C_34
    2  A    between atoms: N_1  and  C_35
    3  A    between atoms: C_2  and  N_6
    4  A    between atoms: C_2  and  C_13
    5  A    between atoms: C_3  and  N_4
    6  A    between atoms: C_3  and  C_12
    7  A    between atoms: C_14  and  C_22
    8  A    between atoms: C_19  and  N_37
                            x       y       z     vdW  Elec       q    Type
                         _______ _______ _______ _____ _____    ______ ____

>  <TORSDO>
F 8

$$$$
=
 OpenBabel11052416043D

 43 48  0  0  1  0  0  0  0  0999 V2000
  191.7800  176.2680  146.9590 C   0  0  0  0  0  0  0  0  0  0  0  0
  187.6320  177.7340  144.4620 C   0  0  0  0  0  0  0  0  0  0  0  0
  188.3630  177.9160  141.6980 C   0  0  2  0  0  3  0  0  0  0  0  0
  189.5820  177.1070  146.3840 C   0  0  0  0  0  0  0  0  0  0  0  0
  192.0550  176.0450  145.6060 C   0  0  0  0  0  3  0  0  0  0  0  0
  192.7340  175.9630  147.9190 O   0  0  0  0  0  1  0  0  0  0  0  0
  189.8530  176.8870  145.0100 C   0  0  0  0  0  0  0  0  0  0  0  0
  190.5450  176.7970  147.3470 C   0  0  0  0  0  3  0  0  0  0  0  0
  191.0970  176.3530  144.6360 C   0  0  0  0  0  3  0  0  0  0  0  0
  189.0850  176.8970  142.5880 C   0  0  0  0  0  2  0  0  0  0  0  0
  188.8740  177.2060  144.0490 C   0  0  0  0  0  0  0  0  0  0  0  0
  187.3800  177.9400  145.8240 C   0  0  0  0  0  3  0  0  0  0  0  0
  186.6010  178.0700  143.4530 C   0  0  0  0  0  0  0  0  0  0  0  0
  186.9370  178.0960  142.1560 C   0  0  0  0  0  3  0  0  0  0  0  0
  188.3500  177.6280  146.7790 C   0  0  0  0  0  3  0  0  0  0  0  0
  188.4170  177.4870  140.2310 C   0  0  1  0  0  3  0  0  0  0  0  0
  188.0310  178.6410  139.3160 C   0  0  0  0  0  1  0  0  0  0  0  0
  189.7580  177.0320  139.8850 N   0  0  0  0  0  2  0  0  0  0  0  0
  190.0020  176.1250  138.8090 C   0  0  0  0  0  0  0  0  0  0  0  0
  189.0430  175.6660  138.1290 O   0  0  0  0  0  0  0  0  0  0  0  0
  191.4030  175.7050  138.5080 C   0  0  0  0  0  2  0  0  0  0  0  0
  191.9120  176.4110  137.3400 N   0  0  0  0  0  0  0  0  0  0  0  0
  192.0870  175.5940  135.0790 C   0  0  0  0  0  2  0  0  0  0  0  0
  190.7530  176.8800  136.5850 C   0  0  0  0  0  2  0  0  0  0  0  0
  192.6040  175.4400  136.4900 C   0  0  1  0  0  3  0  0  0  0  0  0
  190.7010  176.1410  135.2640 C   0  0  0  0  0  2  0  0  0  0  0  0
  194.9580  174.6360  137.0410 N   0  0  0  0  0  0  0  0  0  0  0  0
  194.0870  175.6590  136.5380 C   0  0  0  0  0  0  0  0  0  0  0  0
  196.9470  173.7690  138.0620 C   0  0  0  0  0  2  0  0  0  0  0  0
  195.8630  172.3130  137.9650 S   0  0  0  0  0  0  0  0  0  0  0  0
  196.3930  174.8400  137.1460 C   0  0  1  0  0  3  0  0  0  0  0  0
  194.4490  173.3580  137.5150 C   0  0  0  0  0  2  0  0  0  0  0  0
  196.9760  174.7240  135.8850 O   0  0  0  0  0  1  0  0  0  0  0  0
  194.5660  176.7530  136.1290 O   0  0  0  0  0  0  0  0  0  0  0  0
  185.2490  178.3050  143.8840 N   0  0  0  0  0  2  0  0  0  0  0  0
  182.8940  178.4080  140.9520 C   0  0  0  0  0  3  0  0  0  0  0  0
  181.7080  178.7850  141.5870 C   0  0  0  0  0  0  0  0  0  0  0  0
  182.8780  178.8420  143.7130 C   0  0  0  0  0  3  0  0  0  0  0  0
  184.0670  178.2450  141.6970 C   0  0  0  0  0  3  0  0  0  0  0  0
  184.0660  178.4550  143.0840 C   0  0  0  0  0  0  0  0  0  0  0  0
  181.7040  179.0040  142.9720 C   0  0  0  0  0  3  0  0  0  0  0  0
  179.2570  178.6150  141.3520 N   0  0  0  0  0  1  0  0  0  0  0  0
  180.5140  178.9280  140.8160 N   0  0  0  0  0  2  0  0  0  0  0  0
  1  8  1  0  0  0  0
  1  6  1  0  0  0  0
  2 12  1  0  0  0  0
  3 16  1  6  0  0  0
  3 14  1  0  0  0  0
  3 10  1  0  0  0  0
  4 15  1  0  0  0  0
  4  8  2  0  0  0  0
  5  1  2  0  0  0  0
  7  4  1  0  0  0  0
  9  7  2  0  0  0  0
  9  5  1  0  0  0  0
 10 11  1  0  0  0  0
 11  2  2  0  0  0  0
 11  7  1  0  0  0  0
 12 15  2  0  0  0  0
 13 35  1  0  0  0  0
 13  2  1  0  0  0  0
 14 13  2  0  0  0  0
 16 17  1  6  0  0  0
 18 16  1  0  0  0  0
 19 18  1  0  0  0  0
 20 19  2  0  0  0  0
 21 19  1  0  0  0  0
 22 21  1  0  0  0  0
 23 26  1  0  0  0  0
 23 25  1  0  0  0  0
 24 22  1  0  0  0  0
 25 28  1  6  0  0  0
 25 22  1  0  0  0  0
 26 24  1  0  0  0  0
 27 31  1  0  0  0  0
 27 32  1  0  0  0  0
 28 27  1  0  0  0  0
 30 29  1  0  0  0  0
 31 33  1  6  0  0  0
 31 29  1  0  0  0  0
 32 30  1  0  0  0  0
 34 28  2  0  0  0  0
 36 37  2  0  0  0  0
 36 39  1  0  0  0  0
 37 41  1  0  0  0  0
 39 40  2  0  0  0  0
 40 38  1  0  0  0  0
 40 35  1  0  0  0  0
 41 38  2  0  0  0  0
 43 42  1  0  0  0  0
 43 37  1  0  0  0  0
M  END
>  <MODEL>
9

>  <REMARK>
 VINA RESULT:      -8.5      3.880      7.934
  Name = 
  8 active torsions:
  status: ('A' for Active; 'I' for Inactive)
    1  A    between atoms: N_1  and  C_34
    2  A    between atoms: N_1  and  C_35
    3  A    between atoms: C_2  and  N_6
    4  A    between atoms: C_2  and  C_13
    5  A    between atoms: C_3  and  N_4
    6  A    between atoms: C_3  and  C_12
    7  A    between atoms: C_14  and  C_22
    8  A    between atoms: C_19  and  N_37
                            x       y       z     vdW  Elec       q    Type
                         _______ _______ _______ _____ _____    ______ ____

>  <TORSDO>
F 8

$$$$
