=
 OpenBabel11052412473D

 25 27  0  0  1  0  0  0  0  0999 V2000
  188.9820  177.7970  141.6340 C   0  0  0  0  0  0  0  0  0  0  0  0
  187.5770  178.2580  141.7750 C   0  0  0  0  0  0  0  0  0  0  0  0
  188.5610  177.7410  139.2160 C   0  0  0  0  0  3  0  0  0  0  0  0
  187.4010  178.3210  139.3240 N   0  0  0  0  0  0  0  0  0  0  0  0
  185.4280  178.9650  140.6440 C   0  0  0  0  0  0  0  0  0  0  0  0
  184.6820  179.3520  139.4960 N   0  0  0  0  0  1  0  0  0  0  0  0
  186.8830  178.0750  142.8990 C   0  0  0  0  0  3  0  0  0  0  0  0
  189.4330  177.5600  140.3950 C   0  0  0  0  0  3  0  0  0  0  0  0
  184.8110  178.7850  141.7730 N   0  0  0  0  0  0  0  0  0  0  0  0
  185.5000  178.4360  142.9490 N   0  0  0  0  0  0  0  0  0  0  0  0
  186.9340  178.9220  140.5770 C   0  0  1  0  0  3  0  0  0  0  0  0
  189.8770  177.6050  142.8070 C   0  0  0  0  0  0  0  0  0  0  0  0
  191.6130  177.3090  145.0020 C   0  0  0  0  0  3  0  0  0  0  0  0
  190.0890  176.3350  143.3880 C   0  0  0  0  0  0  0  0  0  0  0  0
  190.9510  176.1960  144.4790 C   0  0  0  0  0  3  0  0  0  0  0  0
  191.4110  178.5680  144.4360 C   0  0  0  0  0  3  0  0  0  0  0  0
  189.4470  175.2330  142.9230 F   0  0  0  0  0  0  0  0  0  0  0  0
  190.5510  178.7140  143.3460 C   0  0  0  0  0  3  0  0  0  0  0  0
  184.7600  178.2550  144.1850 C   0  0  0  0  0  2  0  0  0  0  0  0
  185.3010  179.1900  145.2540 C   0  0  0  0  0  2  0  0  0  0  0  0
  185.6480  178.4120  146.5150 C   0  0  2  0  0  3  0  0  0  0  0  0
  186.1290  179.3580  147.5990 C   0  0  0  0  0  1  0  0  0  0  0  0
  186.6730  177.3070  146.2520 C   0  0  0  0  0  2  0  0  0  0  0  0
  188.1080  177.8030  146.3680 C   0  0  0  0  0  2  0  0  0  0  0  0
  188.8360  176.9990  147.4250 C   0  0  0  0  0  1  0  0  0  0  0  0
  1  2  1  0  0  0  0
  1 12  1  0  0  0  0
  2  7  2  0  0  0  0
  3  4  2  0  0  0  0
  3  8  1  0  0  0  0
  5  9  2  0  0  0  0
  6  5  1  0  0  0  0
  7 10  1  0  0  0  0
  8  1  2  0  0  0  0
  9 10  1  0  0  0  0
 10 19  1  0  0  0  0
 11  4  1  6  0  0  0
 11  5  1  0  0  0  0
 11  2  1  0  0  0  0
 12 18  2  0  0  0  0
 12 14  1  0  0  0  0
 14 15  2  0  0  0  0
 15 13  1  0  0  0  0
 16 13  2  0  0  0  0
 17 14  1  0  0  0  0
 18 16  1  0  0  0  0
 19 20  1  0  0  0  0
 20 21  1  0  0  0  0
 21 22  1  1  0  0  0
 23 24  1  0  0  0  0
 23 21  1  0  0  0  0
 24 25  1  0  0  0  0
M  END
>  <MODEL>
1

>  <REMARK>
 VINA RESULT:      -8.1      0.000      0.000
  Name = 
  6 active torsions:
  status: ('A' for Active; 'I' for Inactive)
    1  A    between atoms: C_1  and  C_5
    2  A    between atoms: C_2  and  C_7
    3  A    between atoms: C_2  and  C_21
    4  A    between atoms: C_6  and  C_15
    5  A    between atoms: C_6  and  N_23
    6  A    between atoms: C_15  and  C_21
                            x       y       z     vdW  Elec       q    Type
                         _______ _______ _______ _____ _____    ______ ____

>  <TORSDO>
F 6

$$$$
=
 OpenBabel11052412473D

 25 27  0  0  1  0  0  0  0  0999 V2000
  190.1660  177.3160  141.0710 C   0  0  0  0  0  0  0  0  0  0  0  0
  188.8850  177.9270  140.6340 C   0  0  0  0  0  0  0  0  0  0  0  0
  190.4460  176.6030  138.7390 C   0  0  0  0  0  3  0  0  0  0  0  0
  189.4270  177.2950  138.3210 N   0  0  0  0  0  0  0  0  0  0  0  0
  187.3080  178.4750  138.7340 C   0  0  0  0  0  0  0  0  0  0  0  0
  187.0010  178.5820  137.3490 N   0  0  0  0  0  1  0  0  0  0  0  0
  187.8790  178.1420  141.4830 C   0  0  0  0  0  3  0  0  0  0  0  0
  190.9010  176.6890  140.1420 C   0  0  0  0  0  3  0  0  0  0  0  0
  186.3730  178.6870  139.6110 N   0  0  0  0  0  0  0  0  0  0  0  0
  186.6260  178.6310  140.9950 N   0  0  0  0  0  0  0  0  0  0  0  0
  188.7380  178.2740  139.1690 C   0  0  1  0  0  3  0  0  0  0  0  0
  190.6410  177.3870  142.4790 C   0  0  0  0  0  0  0  0  0  0  0  0
  191.5880  177.5880  145.1220 C   0  0  0  0  0  3  0  0  0  0  0  0
  190.6640  176.2540  143.3220 C   0  0  0  0  0  0  0  0  0  0  0  0
  191.1340  176.3620  144.6340 C   0  0  0  0  0  3  0  0  0  0  0  0
  191.5720  178.7140  144.2980 C   0  0  0  0  0  3  0  0  0  0  0  0
  190.2080  175.0500  142.8920 F   0  0  0  0  0  0  0  0  0  0  0  0
  191.1030  178.6140  142.9860 C   0  0  0  0  0  3  0  0  0  0  0  0
  185.5460  178.8840  141.9300 C   0  0  0  0  0  2  0  0  0  0  0  0
  185.5880  177.8660  143.0580 C   0  0  0  0  0  2  0  0  0  0  0  0
  184.9640  178.4440  144.3200 C   0  0  2  0  0  3  0  0  0  0  0  0
  184.5260  179.8770  144.0790 C   0  0  0  0  0  1  0  0  0  0  0  0
  185.9010  178.3480  145.5260 C   0  0  0  0  0  2  0  0  0  0  0  0
  187.2030  177.6320  145.1980 C   0  0  0  0  0  2  0  0  0  0  0  0
  188.0960  177.6240  146.4200 C   0  0  0  0  0  1  0  0  0  0  0  0
  1 12  1  0  0  0  0
  2  1  1  0  0  0  0
  2  7  2  0  0  0  0
  3  8  1  0  0  0  0
  4  3  2  0  0  0  0
  5 11  1  0  0  0  0
  5  9  2  0  0  0  0
  6  5  1  0  0  0  0
  8  1  2  0  0  0  0
  9 10  1  0  0  0  0
 10  7  1  0  0  0  0
 10 19  1  0  0  0  0
 11  4  1  6  0  0  0
 11  2  1  0  0  0  0
 12 18  2  0  0  0  0
 12 14  1  0  0  0  0
 14 15  2  0  0  0  0
 15 13  1  0  0  0  0
 16 13  2  0  0  0  0
 17 14  1  0  0  0  0
 18 16  1  0  0  0  0
 19 20  1  0  0  0  0
 20 21  1  0  0  0  0
 21 22  1  6  0  0  0
 21 23  1  0  0  0  0
 24 23  1  0  0  0  0
 24 25  1  0  0  0  0
M  END
>  <MODEL>
2

>  <REMARK>
 VINA RESULT:      -8.1      1.233      2.002
  Name = 
  6 active torsions:
  status: ('A' for Active; 'I' for Inactive)
    1  A    between atoms: C_1  and  C_5
    2  A    between atoms: C_2  and  C_7
    3  A    between atoms: C_2  and  C_21
    4  A    between atoms: C_6  and  C_15
    5  A    between atoms: C_6  and  N_23
    6  A    between atoms: C_15  and  C_21
                            x       y       z     vdW  Elec       q    Type
                         _______ _______ _______ _____ _____    ______ ____

>  <TORSDO>
F 6

$$$$
=
 OpenBabel11052412473D

 25 27  0  0  1  0  0  0  0  0999 V2000
  187.0860  178.1470  142.4860 C   0  0  0  0  0  0  0  0  0  0  0  0
  188.5170  177.7550  142.4360 C   0  0  0  0  0  0  0  0  0  0  0  0
  187.2260  178.3910  140.0470 C   0  0  0  0  0  3  0  0  0  0  0  0
  188.4160  177.8680  139.9830 N   0  0  0  0  0  0  0  0  0  0  0  0
  190.5540  177.2450  141.0260 C   0  0  0  0  0  0  0  0  0  0  0  0
  191.1820  176.9780  139.7770 N   0  0  0  0  0  1  0  0  0  0  0  0
  189.3260  177.8990  143.4870 C   0  0  0  0  0  3  0  0  0  0  0  0
  186.4860  178.4430  141.3250 C   0  0  0  0  0  3  0  0  0  0  0  0
  191.2870  177.3810  142.0900 N   0  0  0  0  0  0  0  0  0  0  0  0
  190.7210  177.6100  143.3580 N   0  0  0  0  0  0  0  0  0  0  0  0
  189.0500  177.2100  141.1290 C   0  0  1  0  0  3  0  0  0  0  0  0
  186.3230  178.2100  143.7610 C   0  0  0  0  0  0  0  0  0  0  0  0
  184.9060  178.2530  146.1920 C   0  0  0  0  0  3  0  0  0  0  0  0
  185.1660  179.0090  143.9040 C   0  0  0  0  0  0  0  0  0  0  0  0
  184.4690  179.0260  145.1150 C   0  0  0  0  0  3  0  0  0  0  0  0
  186.0460  177.4600  146.0620 C   0  0  0  0  0  3  0  0  0  0  0  0
  184.7230  179.7920  142.8880 F   0  0  0  0  0  0  0  0  0  0  0  0
  186.7480  177.4380  144.8550 C   0  0  0  0  0  3  0  0  0  0  0  0
  191.5880  177.7470  144.5140 C   0  0  0  0  0  2  0  0  0  0  0  0
  191.5450  176.4760  145.3460 C   0  0  0  0  0  2  0  0  0  0  0  0
  191.3100  176.8080  146.8130 C   0  0  2  0  0  3  0  0  0  0  0  0
  192.1210  175.8790  147.6970 C   0  0  0  0  0  1  0  0  0  0  0  0
  189.8260  176.7700  147.1860 C   0  0  0  0  0  2  0  0  0  0  0  0
  189.3370  178.0880  147.7690 C   0  0  0  0  0  2  0  0  0  0  0  0
  188.2290  177.8190  148.7650 C   0  0  0  0  0  1  0  0  0  0  0  0
  1 12  1  0  0  0  0
  2  1  1  0  0  0  0
  2  7  2  0  0  0  0
  3  8  1  0  0  0  0
  4  3  2  0  0  0  0
  5 11  1  0  0  0  0
  5  9  2  0  0  0  0
  6  5  1  0  0  0  0
  8  1  2  0  0  0  0
  9 10  1  0  0  0  0
 10  7  1  0  0  0  0
 10 19  1  0  0  0  0
 11  4  1  6  0  0  0
 11  2  1  0  0  0  0
 12 14  2  0  0  0  0
 12 18  1  0  0  0  0
 14 15  1  0  0  0  0
 15 13  2  0  0  0  0
 16 13  1  0  0  0  0
 17 14  1  0  0  0  0
 18 16  2  0  0  0  0
 19 20  1  0  0  0  0
 20 21  1  0  0  0  0
 21 23  1  0  0  0  0
 21 22  1  1  0  0  0
 23 24  1  0  0  0  0
 24 25  1  0  0  0  0
M  END
>  <MODEL>
3

>  <REMARK>
 VINA RESULT:      -8.0      2.401      4.961
  Name = 
  6 active torsions:
  status: ('A' for Active; 'I' for Inactive)
    1  A    between atoms: C_1  and  C_5
    2  A    between atoms: C_2  and  C_7
    3  A    between atoms: C_2  and  C_21
    4  A    between atoms: C_6  and  C_15
    5  A    between atoms: C_6  and  N_23
    6  A    between atoms: C_15  and  C_21
                            x       y       z     vdW  Elec       q    Type
                         _______ _______ _______ _____ _____    ______ ____

>  <TORSDO>
F 6

$$$$
=
 OpenBabel11052412473D

 25 27  0  0  1  0  0  0  0  0999 V2000
  189.0340  177.1880  143.9680 C   0  0  0  0  0  0  0  0  0  0  0  0
  188.3950  177.7940  142.7720 C   0  0  0  0  0  0  0  0  0  0  0  0
  190.5650  176.0800  142.4000 C   0  0  0  0  0  3  0  0  0  0  0  0
  190.1290  176.7540  141.3750 N   0  0  0  0  0  0  0  0  0  0  0  0
  188.4060  178.1110  140.2630 C   0  0  0  0  0  0  0  0  0  0  0  0
  189.0260  178.0030  138.9860 N   0  0  0  0  0  1  0  0  0  0  0  0
  187.1270  178.2080  142.7820 C   0  0  0  0  0  3  0  0  0  0  0  0
  190.0770  176.3720  143.7640 C   0  0  0  0  0  3  0  0  0  0  0  0
  187.1760  178.5230  140.3390 N   0  0  0  0  0  0  0  0  0  0  0  0
  186.5220  178.6830  141.5760 N   0  0  0  0  0  0  0  0  0  0  0  0
  189.2240  177.8990  141.5110 C   0  0  1  0  0  3  0  0  0  0  0  0
  188.5580  177.4650  145.3500 C   0  0  0  0  0  0  0  0  0  0  0  0
  187.5890  178.0240  147.9320 C   0  0  0  0  0  3  0  0  0  0  0  0
  189.4510  177.6240  146.4320 C   0  0  0  0  0  0  0  0  0  0  0  0
  188.9620  177.9000  147.7120 C   0  0  0  0  0  3  0  0  0  0  0  0
  186.6980  177.8700  146.8700 C   0  0  0  0  0  3  0  0  0  0  0  0
  190.7910  177.4880  146.2640 F   0  0  0  0  0  0  0  0  0  0  0  0
  187.1790  177.5940  145.5880 C   0  0  0  0  0  3  0  0  0  0  0  0
  185.1500  179.1530  141.6030 C   0  0  0  0  0  2  0  0  0  0  0  0
  184.3290  178.3010  142.5560 C   0  0  0  0  0  2  0  0  0  0  0  0
  183.4470  179.1800  143.4310 C   0  0  2  0  0  3  0  0  0  0  0  0
  183.6600  178.8450  144.8950 C   0  0  0  0  0  1  0  0  0  0  0  0
  181.9680  179.0780  143.0510 C   0  0  0  0  0  2  0  0  0  0  0  0
  181.0980  178.6190  144.2130 C   0  0  0  0  0  2  0  0  0  0  0  0
  179.6420  178.6580  143.7990 C   0  0  0  0  0  1  0  0  0  0  0  0
  1 12  1  0  0  0  0
  2  7  2  0  0  0  0
  2  1  1  0  0  0  0
  3  8  1  0  0  0  0
  4 11  1  0  0  0  0
  4  3  2  0  0  0  0
  5  9  2  0  0  0  0
  6  5  1  0  0  0  0
  8  1  2  0  0  0  0
  9 10  1  0  0  0  0
 10 19  1  0  0  0  0
 10  7  1  0  0  0  0
 11  5  1  6  0  0  0
 11  2  1  0  0  0  0
 12 18  2  0  0  0  0
 12 14  1  0  0  0  0
 14 15  2  0  0  0  0
 15 13  1  0  0  0  0
 16 13  2  0  0  0  0
 17 14  1  0  0  0  0
 18 16  1  0  0  0  0
 19 20  1  0  0  0  0
 20 21  1  0  0  0  0
 21 22  1  1  0  0  0
 23 21  1  0  0  0  0
 23 24  1  0  0  0  0
 25 24  1  0  0  0  0
M  END
>  <MODEL>
4

>  <REMARK>
 VINA RESULT:      -7.8      2.125      4.302
  Name = 
  6 active torsions:
  status: ('A' for Active; 'I' for Inactive)
    1  A    between atoms: C_1  and  C_5
    2  A    between atoms: C_2  and  C_7
    3  A    between atoms: C_2  and  C_21
    4  A    between atoms: C_6  and  C_15
    5  A    between atoms: C_6  and  N_23
    6  A    between atoms: C_15  and  C_21
                            x       y       z     vdW  Elec       q    Type
                         _______ _______ _______ _____ _____    ______ ____

>  <TORSDO>
F 6

$$$$
=
 OpenBabel11052412473D

 25 27  0  0  1  0  0  0  0  0999 V2000
  185.5380  178.4610  144.6500 C   0  0  0  0  0  0  0  0  0  0  0  0
  185.6970  178.4070  143.1750 C   0  0  0  0  0  0  0  0  0  0  0  0
  183.2460  179.2300  144.2230 C   0  0  0  0  0  3  0  0  0  0  0  0
  183.3230  179.0030  142.9440 N   0  0  0  0  0  0  0  0  0  0  0  0
  184.6340  178.6540  140.8930 C   0  0  0  0  0  0  0  0  0  0  0  0
  183.5000  178.7950  140.0440 N   0  0  0  0  0  1  0  0  0  0  0  0
  186.8910  178.5010  142.5880 C   0  0  0  0  0  3  0  0  0  0  0  0
  184.3510  178.8550  145.1300 C   0  0  0  0  0  3  0  0  0  0  0  0
  185.8250  178.7220  140.3790 N   0  0  0  0  0  0  0  0  0  0  0  0
  186.9830  178.5550  141.1620 N   0  0  0  0  0  0  0  0  0  0  0  0
  184.4430  178.2740  142.3390 C   0  0  1  0  0  3  0  0  0  0  0  0
  186.6380  178.0910  145.5820 C   0  0  0  0  0  0  0  0  0  0  0  0
  188.7370  177.3280  147.2940 C   0  0  0  0  0  3  0  0  0  0  0  0
  186.5890  178.4020  146.9590 C   0  0  0  0  0  0  0  0  0  0  0  0
  187.6370  178.0210  147.8030 C   0  0  0  0  0  3  0  0  0  0  0  0
  188.7950  177.0150  145.9360 C   0  0  0  0  0  3  0  0  0  0  0  0
  185.5490  179.0940  147.4870 F   0  0  0  0  0  0  0  0  0  0  0  0
  187.7520  177.3930  145.0870 C   0  0  0  0  0  3  0  0  0  0  0  0
  188.2890  178.6330  140.5340 C   0  0  0  0  0  2  0  0  0  0  0  0
  189.0600  177.3470  140.7820 C   0  0  0  0  0  2  0  0  0  0  0  0
  190.4310  177.6540  141.3690 C   0  0  2  0  0  3  0  0  0  0  0  0
  191.5190  177.2830  140.3790 C   0  0  0  0  0  1  0  0  0  0  0  0
  190.6520  176.9640  142.7160 C   0  0  0  0  0  2  0  0  0  0  0  0
  191.6410  177.7120  143.5990 C   0  0  0  0  0  2  0  0  0  0  0  0
  191.1040  179.0960  143.8970 C   0  0  0  0  0  1  0  0  0  0  0  0
  1  8  2  0  0  0  0
  1 12  1  0  0  0  0
  2  1  1  0  0  0  0
  3  8  1  0  0  0  0
  4  3  2  0  0  0  0
  6  5  1  0  0  0  0
  7  2  2  0  0  0  0
  9  5  2  0  0  0  0
  9 10  1  0  0  0  0
 10  7  1  0  0  0  0
 11  5  1  6  0  0  0
 11  4  1  0  0  0  0
 11  2  1  0  0  0  0
 12 14  1  0  0  0  0
 13 15  1  0  0  0  0
 14 17  1  0  0  0  0
 14 15  2  0  0  0  0
 16 13  2  0  0  0  0
 18 12  2  0  0  0  0
 18 16  1  0  0  0  0
 19 20  1  0  0  0  0
 19 10  1  0  0  0  0
 20 21  1  0  0  0  0
 21 22  1  6  0  0  0
 21 23  1  0  0  0  0
 23 24  1  0  0  0  0
 24 25  1  0  0  0  0
M  END
>  <MODEL>
5

>  <REMARK>
 VINA RESULT:      -7.8      1.935      4.959
  Name = 
  6 active torsions:
  status: ('A' for Active; 'I' for Inactive)
    1  A    between atoms: C_1  and  C_5
    2  A    between atoms: C_2  and  C_7
    3  A    between atoms: C_2  and  C_21
    4  A    between atoms: C_6  and  C_15
    5  A    between atoms: C_6  and  N_23
    6  A    between atoms: C_15  and  C_21
                            x       y       z     vdW  Elec       q    Type
                         _______ _______ _______ _____ _____    ______ ____

>  <TORSDO>
F 6

$$$$
=
 OpenBabel11052412473D

 25 27  0  0  1  0  0  0  0  0999 V2000
  187.2350  177.8120  145.8690 C   0  0  1  0  0  3  0  0  0  0  0  0
  188.6140  177.4500  145.4530 C   0  0  0  0  0  0  0  0  0  0  0  0
  188.0060  177.4750  148.1750 C   0  0  0  0  0  3  0  0  0  0  0  0
  189.2520  177.3440  147.8240 N   0  0  0  0  0  0  0  0  0  0  0  0
  190.9760  176.8610  146.1380 C   0  0  0  0  0  0  0  0  0  0  0  0
  192.0130  176.7570  147.1070 N   0  0  0  0  0  1  0  0  0  0  0  0
  188.8790  176.9520  144.2440 C   0  0  0  0  0  3  0  0  0  0  0  0
  186.9680  177.8220  147.1820 C   0  0  0  0  0  3  0  0  0  0  0  0
  191.1790  176.4080  144.9380 N   0  0  0  0  0  0  0  0  0  0  0  0
  190.2040  176.5150  143.9280 N   0  0  0  0  0  0  0  0  0  0  0  0
  189.7230  177.6330  146.4660 C   0  0  0  0  0  0  0  0  0  0  0  0
  186.1740  178.1620  144.8860 C   0  0  0  0  0  0  0  0  0  0  0  0
  184.2260  178.8420  142.9730 C   0  0  0  0  0  3  0  0  0  0  0  0
  184.8890  178.5870  145.2900 C   0  0  0  0  0  0  0  0  0  0  0  0
  183.9260  178.9220  144.3340 C   0  0  0  0  0  3  0  0  0  0  0  0
  185.4920  178.4250  142.5620 C   0  0  0  0  0  3  0  0  0  0  0  0
  184.5510  178.6550  146.6030 F   0  0  0  0  0  0  0  0  0  0  0  0
  186.4590  178.0890  143.5130 C   0  0  0  0  0  3  0  0  0  0  0  0
  190.4870  175.9980  142.6020 C   0  0  0  0  0  2  0  0  0  0  0  0
  189.6760  176.7580  141.5660 C   0  0  0  0  0  2  0  0  0  0  0  0
  190.4980  176.9760  140.3030 C   0  0  2  0  0  3  0  0  0  0  0  0
  191.8760  177.5010  140.6590 C   0  0  0  0  0  1  0  0  0  0  0  0
  189.7950  177.9000  139.3060 C   0  0  0  0  0  2  0  0  0  0  0  0
  188.3470  178.1750  139.6860 C   0  0  0  0  0  2  0  0  0  0  0  0
  187.4500  177.8800  138.5030 C   0  0  0  0  0  1  0  0  0  0  0  0
  1 12  1  1  0  0  0
  1  8  1  0  0  0  0
  2  1  1  0  0  0  0
  2 11  1  0  0  0  0
  4  3  1  0  0  0  0
  5 11  1  0  0  0  0
  5  6  1  0  0  0  0
  7  2  2  0  0  0  0
  8  3  2  0  0  0  0
  9  5  2  0  0  0  0
 10  7  1  0  0  0  0
 10  9  1  0  0  0  0
 11  4  2  0  0  0  0
 12 14  1  0  0  0  0
 13 15  1  0  0  0  0
 14 17  1  0  0  0  0
 15 14  2  0  0  0  0
 16 13  2  0  0  0  0
 16 18  1  0  0  0  0
 18 12  2  0  0  0  0
 19 10  1  0  0  0  0
 20 19  1  0  0  0  0
 21 22  1  1  0  0  0
 21 20  1  0  0  0  0
 23 24  1  0  0  0  0
 23 21  1  0  0  0  0
 25 24  1  0  0  0  0
M  END
>  <MODEL>
6

>  <REMARK>
 VINA RESULT:      -7.7      3.176      7.082
  Name = 
  6 active torsions:
  status: ('A' for Active; 'I' for Inactive)
    1  A    between atoms: C_1  and  C_5
    2  A    between atoms: C_2  and  C_7
    3  A    between atoms: C_2  and  C_21
    4  A    between atoms: C_6  and  C_15
    5  A    between atoms: C_6  and  N_23
    6  A    between atoms: C_15  and  C_21
                            x       y       z     vdW  Elec       q    Type
                         _______ _______ _______ _____ _____    ______ ____

>  <TORSDO>
F 6

$$$$
=
 OpenBabel11052412473D

 25 27  0  0  1  0  0  0  0  0999 V2000
  184.7750  178.5450  144.1750 C   0  0  0  0  0  0  0  0  0  0  0  0
  185.2150  178.4400  142.7600 C   0  0  0  0  0  0  0  0  0  0  0  0
  182.5480  179.0680  143.2840 C   0  0  0  0  0  3  0  0  0  0  0  0
  182.8860  178.7910  142.0580 N   0  0  0  0  0  0  0  0  0  0  0  0
  184.5870  178.4780  140.3100 C   0  0  0  0  0  0  0  0  0  0  0  0
  183.6270  178.4690  139.2600 N   0  0  0  0  0  1  0  0  0  0  0  0
  186.4860  178.6220  142.4000 C   0  0  0  0  0  3  0  0  0  0  0  0
  183.4890  178.8440  144.4010 C   0  0  0  0  0  3  0  0  0  0  0  0
  185.8440  178.6370  140.0220 N   0  0  0  0  0  0  0  0  0  0  0  0
  186.8420  178.6200  141.0150 N   0  0  0  0  0  0  0  0  0  0  0  0
  184.1580  178.1480  141.7170 C   0  0  1  0  0  3  0  0  0  0  0  0
  185.7060  178.3270  145.3150 C   0  0  0  0  0  0  0  0  0  0  0  0
  187.4570  177.9930  147.4920 C   0  0  0  0  0  3  0  0  0  0  0  0
  186.6820  177.3060  145.3010 C   0  0  0  0  0  0  0  0  0  0  0  0
  187.5470  177.1450  146.3870 C   0  0  0  0  0  3  0  0  0  0  0  0
  186.4970  179.0060  147.5170 C   0  0  0  0  0  3  0  0  0  0  0  0
  186.7850  176.4470  144.2560 F   0  0  0  0  0  0  0  0  0  0  0  0
  185.6290  179.1710  146.4350 C   0  0  0  0  0  3  0  0  0  0  0  0
  188.2320  178.7950  140.6350 C   0  0  0  0  0  2  0  0  0  0  0  0
  188.9590  177.4620  140.7010 C   0  0  0  0  0  2  0  0  0  0  0  0
  190.0570  177.5060  141.7530 C   0  0  2  0  0  3  0  0  0  0  0  0
  191.4130  177.3040  141.1040 C   0  0  0  0  0  1  0  0  0  0  0  0
  189.8250  176.4930  142.8760 C   0  0  0  0  0  2  0  0  0  0  0  0
  190.4540  176.9270  144.1930 C   0  0  0  0  0  2  0  0  0  0  0  0
  190.2210  178.4080  144.4000 C   0  0  0  0  0  1  0  0  0  0  0  0
  1  8  2  0  0  0  0
  1 12  1  0  0  0  0
  2  1  1  0  0  0  0
  3  8  1  0  0  0  0
  4  3  2  0  0  0  0
  6  5  1  0  0  0  0
  7  2  2  0  0  0  0
  9  5  2  0  0  0  0
  9 10  1  0  0  0  0
 10  7  1  0  0  0  0
 11  5  1  6  0  0  0
 11  4  1  0  0  0  0
 11  2  1  0  0  0  0
 12 18  1  0  0  0  0
 13 16  1  0  0  0  0
 14 12  2  0  0  0  0
 14 15  1  0  0  0  0
 15 13  2  0  0  0  0
 17 14  1  0  0  0  0
 18 16  2  0  0  0  0
 19 20  1  0  0  0  0
 19 10  1  0  0  0  0
 20 21  1  0  0  0  0
 21 22  1  6  0  0  0
 21 23  1  0  0  0  0
 23 24  1  0  0  0  0
 24 25  1  0  0  0  0
M  END
>  <MODEL>
7

>  <REMARK>
 VINA RESULT:      -7.5      1.452      4.791
  Name = 
  6 active torsions:
  status: ('A' for Active; 'I' for Inactive)
    1  A    between atoms: C_1  and  C_5
    2  A    between atoms: C_2  and  C_7
    3  A    between atoms: C_2  and  C_21
    4  A    between atoms: C_6  and  C_15
    5  A    between atoms: C_6  and  N_23
    6  A    between atoms: C_15  and  C_21
                            x       y       z     vdW  Elec       q    Type
                         _______ _______ _______ _____ _____    ______ ____

>  <TORSDO>
F 6

$$$$
=
 OpenBabel11052412473D

 25 27  0  0  1  0  0  0  0  0999 V2000
  186.5510  178.3240  142.2530 C   0  0  0  0  0  0  0  0  0  0  0  0
  187.8980  177.9620  141.7430 C   0  0  0  0  0  0  0  0  0  0  0  0
  185.9660  178.8120  139.9190 C   0  0  0  0  0  3  0  0  0  0  0  0
  187.0770  178.3190  139.4540 N   0  0  0  0  0  0  0  0  0  0  0  0
  189.4190  177.6290  139.7500 C   0  0  0  0  0  0  0  0  0  0  0  0
  189.6450  177.4990  138.3510 N   0  0  0  0  0  1  0  0  0  0  0  0
  188.9830  178.0130  142.5170 C   0  0  0  0  0  3  0  0  0  0  0  0
  185.6390  178.7250  141.3570 C   0  0  0  0  0  3  0  0  0  0  0  0
  190.4360  177.6690  140.5570 N   0  0  0  0  0  0  0  0  0  0  0  0
  190.2730  177.7620  141.9530 N   0  0  0  0  0  0  0  0  0  0  0  0
  188.0130  177.5590  140.2890 C   0  0  1  0  0  3  0  0  0  0  0  0
  186.2000  178.2460  143.6970 C   0  0  0  0  0  0  0  0  0  0  0  0
  185.5550  178.0190  146.4260 C   0  0  0  0  0  3  0  0  0  0  0  0
  185.2780  179.1350  144.2930 C   0  0  0  0  0  0  0  0  0  0  0  0
  184.9650  179.0170  145.6500 C   0  0  0  0  0  3  0  0  0  0  0  0
  186.4660  177.1340  145.8480 C   0  0  0  0  0  3  0  0  0  0  0  0
  184.7010  180.1330  143.5770 F   0  0  0  0  0  0  0  0  0  0  0  0
  186.7840  177.2470  144.4930 C   0  0  0  0  0  3  0  0  0  0  0  0
  191.4450  177.7960  142.8090 C   0  0  0  0  0  2  0  0  0  0  0  0
  191.0780  178.3740  144.1650 C   0  0  0  0  0  2  0  0  0  0  0  0
  191.2360  177.3200  145.2520 C   0  0  2  0  0  3  0  0  0  0  0  0
  191.6760  176.0020  144.6440 C   0  0  0  0  0  1  0  0  0  0  0  0
  189.9610  177.1470  146.0810 C   0  0  0  0  0  2  0  0  0  0  0  0
  190.2250  177.2240  147.5790 C   0  0  0  0  0  2  0  0  0  0  0  0
  189.0510  177.8920  148.2640 C   0  0  0  0  0  1  0  0  0  0  0  0
  1 12  1  0  0  0  0
  2  1  1  0  0  0  0
  2  7  2  0  0  0  0
  3  8  1  0  0  0  0
  4  3  2  0  0  0  0
  5 11  1  0  0  0  0
  5  9  2  0  0  0  0
  6  5  1  0  0  0  0
  8  1  2  0  0  0  0
  9 10  1  0  0  0  0
 10  7  1  0  0  0  0
 10 19  1  0  0  0  0
 11  4  1  6  0  0  0
 11  2  1  0  0  0  0
 12 14  2  0  0  0  0
 12 18  1  0  0  0  0
 14 15  1  0  0  0  0
 15 13  2  0  0  0  0
 16 13  1  0  0  0  0
 17 14  1  0  0  0  0
 18 16  2  0  0  0  0
 19 20  1  0  0  0  0
 20 21  1  0  0  0  0
 21 22  1  6  0  0  0
 21 23  1  0  0  0  0
 23 24  1  0  0  0  0
 24 25  1  0  0  0  0
M  END
>  <MODEL>
8

>  <REMARK>
 VINA RESULT:      -7.3      2.019      4.714
  Name = 
  6 active torsions:
  status: ('A' for Active; 'I' for Inactive)
    1  A    between atoms: C_1  and  C_5
    2  A    between atoms: C_2  and  C_7
    3  A    between atoms: C_2  and  C_21
    4  A    between atoms: C_6  and  C_15
    5  A    between atoms: C_6  and  N_23
    6  A    between atoms: C_15  and  C_21
                            x       y       z     vdW  Elec       q    Type
                         _______ _______ _______ _____ _____    ______ ____

>  <TORSDO>
F 6

$$$$
=
 OpenBabel11052412473D

 25 27  0  0  1  0  0  0  0  0999 V2000
  187.5430  178.1410  141.0660 C   0  0  0  0  0  0  0  0  0  0  0  0
  188.9700  177.7770  141.2540 C   0  0  0  0  0  0  0  0  0  0  0  0
  188.0140  178.1260  138.6570 C   0  0  0  0  0  3  0  0  0  0  0  0
  189.2050  177.6250  138.8120 N   0  0  0  0  0  0  0  0  0  0  0  0
  191.1840  177.1620  140.1970 C   0  0  0  0  0  0  0  0  0  0  0  0
  191.9790  176.7770  139.0810 N   0  0  0  0  0  1  0  0  0  0  0  0
  189.6270  178.0490  142.3830 C   0  0  0  0  0  3  0  0  0  0  0  0
  187.1060  178.2990  139.8100 C   0  0  0  0  0  3  0  0  0  0  0  0
  191.7640  177.4260  141.3290 N   0  0  0  0  0  0  0  0  0  0  0  0
  191.0280  177.7780  142.4760 N   0  0  0  0  0  0  0  0  0  0  0  0
  189.6810  177.1070  140.0990 C   0  0  1  0  0  3  0  0  0  0  0  0
  186.6120  178.3240  142.2120 C   0  0  0  0  0  0  0  0  0  0  0  0
  184.8450  178.7500  144.3610 C   0  0  0  0  0  3  0  0  0  0  0  0
  186.6270  177.4670  143.3350 C   0  0  0  0  0  0  0  0  0  0  0  0
  185.7450  177.6840  144.3970 C   0  0  0  0  0  3  0  0  0  0  0  0
  184.8220  179.6040  143.2580 C   0  0  0  0  0  3  0  0  0  0  0  0
  187.4700  176.4050  143.3970 F   0  0  0  0  0  0  0  0  0  0  0  0
  185.7000  179.3930  142.1920 C   0  0  0  0  0  3  0  0  0  0  0  0
  191.7270  178.0560  143.7180 C   0  0  0  0  0  2  0  0  0  0  0  0
  190.7410  178.5320  144.7710 C   0  0  0  0  0  2  0  0  0  0  0  0
  190.6740  177.5400  145.9240 C   0  0  2  0  0  3  0  0  0  0  0  0
  191.7210  176.4570  145.7440 C   0  0  0  0  0  1  0  0  0  0  0  0
  189.2770  176.9360  146.0880 C   0  0  0  0  0  2  0  0  0  0  0  0
  188.3510  177.8220  146.9100 C   0  0  0  0  0  2  0  0  0  0  0  0
  188.9360  178.0170  148.2930 C   0  0  0  0  0  1  0  0  0  0  0  0
  1  2  1  0  0  0  0
  1 12  1  0  0  0  0
  2  7  2  0  0  0  0
  3  4  2  0  0  0  0
  3  8  1  0  0  0  0
  5  9  2  0  0  0  0
  6  5  1  0  0  0  0
  7 10  1  0  0  0  0
  8  1  2  0  0  0  0
  9 10  1  0  0  0  0
 10 19  1  0  0  0  0
 11  4  1  6  0  0  0
 11  5  1  0  0  0  0
 11  2  1  0  0  0  0
 12 14  1  0  0  0  0
 13 15  1  0  0  0  0
 14 17  1  0  0  0  0
 14 15  2  0  0  0  0
 16 13  2  0  0  0  0
 18 12  2  0  0  0  0
 18 16  1  0  0  0  0
 19 20  1  0  0  0  0
 20 21  1  0  0  0  0
 21 22  1  6  0  0  0
 21 23  1  0  0  0  0
 23 24  1  0  0  0  0
 24 25  1  0  0  0  0
M  END
>  <MODEL>
9

>  <REMARK>
 VINA RESULT:      -7.3      2.281      4.690
  Name = 
  6 active torsions:
  status: ('A' for Active; 'I' for Inactive)
    1  A    between atoms: C_1  and  C_5
    2  A    between atoms: C_2  and  C_7
    3  A    between atoms: C_2  and  C_21
    4  A    between atoms: C_6  and  C_15
    5  A    between atoms: C_6  and  N_23
    6  A    between atoms: C_15  and  C_21
                            x       y       z     vdW  Elec       q    Type
                         _______ _______ _______ _____ _____    ______ ____

>  <TORSDO>
F 6

$$$$
