=
 OpenBabel11052412213D

 30 32  0  0  1  0  0  0  0  0999 V2000
  183.2030  177.7420  138.8750 C   0  0  1  0  0  3  0  0  0  0  0  0
  180.9830  179.0600  138.9570 C   0  0  2  0  0  3  0  0  0  0  0  0
  183.6830  178.3660  140.1000 N   0  0  0  0  0  2  0  0  0  0  0  0
  180.8800  178.5340  142.6110 C   0  0  0  0  0  3  0  0  0  0  0  0
  181.5240  178.3900  141.3760 C   0  0  0  0  0  0  0  0  0  0  0  0
  183.6530  178.7800  142.4830 C   0  0  0  0  0  3  0  0  0  0  0  0
  182.9360  178.5020  141.3140 C   0  0  0  0  0  0  0  0  0  0  0  0
  180.6430  178.1810  140.1750 C   0  0  2  0  0  3  0  0  0  0  0  0
  181.6100  178.7940  143.7720 C   0  0  0  0  0  3  0  0  0  0  0  0
  182.9960  178.9210  143.7070 C   0  0  0  0  0  3  0  0  0  0  0  0
  182.2010  178.6330  138.1250 C   0  0  2  0  0  3  0  0  0  0  0  0
  184.4920  176.0800  137.4100 C   0  0  0  0  0  0  0  0  0  0  0  0
  185.6110  175.7920  136.6220 C   0  0  0  0  0  3  0  0  0  0  0  0
  183.2780  174.8240  137.6110 Cl  0  0  0  0  0  0  0  0  0  0  0  0
  185.3720  178.3070  137.8100 C   0  0  0  0  0  3  0  0  0  0  0  0
  187.4510  178.9420  136.8330 F   0  0  0  0  0  0  0  0  0  0  0  0
  184.3690  177.3530  138.0110 C   0  0  0  0  0  0  0  0  0  0  0  0
  186.6060  176.7520  136.4280 C   0  0  0  0  0  3  0  0  0  0  0  0
  186.4860  178.0090  137.0210 C   0  0  0  0  0  0  0  0  0  0  0  0
  181.7500  177.9660  136.9220 N   0  0  0  0  0  0  0  0  0  0  0  0
  181.0750  180.0790  135.8830 C   0  0  0  0  0  1  0  0  0  0  0  0
  181.2410  178.5900  135.9160 C   0  0  0  0  0  3  0  0  0  0  0  0
  179.4960  176.4510  138.5490 O   0  0  0  0  0  0  0  0  0  0  0  0
  180.4020  176.4280  139.7730 S   0  0  2  0  0  0  0  0  0  0  0  0
  179.3440  175.7760  141.0850 C   0  0  0  0  0  2  0  0  0  0  0  0
  179.3340  174.2600  141.0650 C   0  0  0  0  0  1  0  0  0  0  0  0
  181.0670  180.5440  139.3000 C   0  0  0  0  0  2  0  0  0  0  0  0
  179.6370  181.4470  140.9890 O   0  0  0  0  0  1  0  0  0  0  0  0
  179.6970  181.1060  139.6370 C   0  0  1  0  0  3  0  0  0  0  0  0
  179.4470  182.3420  138.8010 C   0  0  0  0  0  1  0  0  0  0  0  0
  1 17  1  6  0  0  0
  1  3  1  0  0  0  0
  2 27  1  1  0  0  0
  2  8  1  0  0  0  0
  3  7  1  0  0  0  0
  4  9  1  0  0  0  0
  5  4  2  0  0  0  0
  6 10  1  0  0  0  0
  7  5  1  0  0  0  0
  7  6  2  0  0  0  0
  8 24  1  6  0  0  0
  8  5  1  0  0  0  0
 10  9  2  0  0  0  0
 11 20  1  6  0  0  0
 11  1  1  0  0  0  0
 11  2  1  0  0  0  0
 12 14  1  0  0  0  0
 12 17  1  0  0  0  0
 13 12  2  0  0  0  0
 15 17  2  0  0  0  0
 16 19  1  0  0  0  0
 18 13  1  0  0  0  0
 18 19  2  0  0  0  0
 19 15  1  0  0  0  0
 21 22  1  0  0  0  0
 22 20  2  0  0  0  0
 24 23  2  6  0  0  0
 24 25  1  0  0  0  0
 26 25  1  0  0  0  0
 27 29  1  0  0  0  0
 29 30  1  6  0  0  0
 29 28  1  0  0  0  0
M  END
>  <MODEL>
1

>  <REMARK>
 VINA RESULT:      -5.4      0.000      0.000
  Name = 
  6 active torsions:
  status: ('A' for Active; 'I' for Inactive)
    1  A    between atoms: C_1  and  C_22
    2  A    between atoms: C_4  and  C_25
    3  A    between atoms: C_7  and  S_30
    4  A    between atoms: N_10  and  C_23
    5  A    between atoms: C_11  and  C_25
    6  A    between atoms: C_13  and  S_30
                            x       y       z     vdW  Elec       q    Type
                         _______ _______ _______ _____ _____    ______ ____

>  <TORSDO>
F 6

$$$$
=
 OpenBabel11052412213D

 30 32  0  0  1  0  0  0  0  0999 V2000
  182.7730  179.1440  139.4150 C   0  0  1  0  0  3  0  0  0  0  0  0
  180.4060  178.1850  139.0320 C   0  0  2  0  0  3  0  0  0  0  0  0
  182.5030  180.2970  138.5680 N   0  0  0  0  0  2  0  0  0  0  0  0
  179.0470  181.6100  139.2920 C   0  0  0  0  0  3  0  0  0  0  0  0
  180.1350  180.7270  139.2710 C   0  0  0  0  0  0  0  0  0  0  0  0
  181.4050  182.3840  138.0250 C   0  0  0  0  0  3  0  0  0  0  0  0
  181.3380  181.1270  138.6370 C   0  0  0  0  0  0  0  0  0  0  0  0
  179.9160  179.3710  139.8840 C   0  0  2  0  0  3  0  0  0  0  0  0
  179.1340  182.8670  138.6920 C   0  0  0  0  0  3  0  0  0  0  0  0
  180.3120  183.2520  138.0540 C   0  0  0  0  0  3  0  0  0  0  0  0
  181.9200  177.9270  139.0260 C   0  0  2  0  0  3  0  0  0  0  0  0
  185.0410  178.8040  140.5610 C   0  0  0  0  0  0  0  0  0  0  0  0
  186.4050  178.5090  140.4600 C   0  0  0  0  0  3  0  0  0  0  0  0
  184.3830  179.1280  142.1590 Cl  0  0  0  0  0  0  0  0  0  0  0  0
  184.8310  178.5630  138.1540 C   0  0  0  0  0  3  0  0  0  0  0  0
  186.7520  178.0110  136.8570 F   0  0  0  0  0  0  0  0  0  0  0  0
  184.2430  178.8310  139.3950 C   0  0  0  0  0  0  0  0  0  0  0  0
  186.9800  178.2420  139.2160 C   0  0  0  0  0  3  0  0  0  0  0  0
  186.1940  178.2700  138.0640 C   0  0  0  0  0  0  0  0  0  0  0  0
  182.2200  176.8130  139.8990 N   0  0  0  0  0  0  0  0  0  0  0  0
  183.0090  175.4330  138.0350 C   0  0  0  0  0  1  0  0  0  0  0  0
  182.6980  175.6930  139.4780 C   0  0  0  0  0  3  0  0  0  0  0  0
  180.0140  177.8970  142.0680 O   0  0  0  0  0  0  0  0  0  0  0  0
  180.4320  179.2920  141.6220 S   0  0  2  0  0  0  0  0  0  0  0  0
  179.3020  180.3880  142.5080 C   0  0  0  0  0  2  0  0  0  0  0  0
  178.9580  179.8210  143.8720 C   0  0  0  0  0  1  0  0  0  0  0  0
  179.8650  178.2140  137.6070 C   0  0  0  0  0  2  0  0  0  0  0  0
  180.5440  176.6440  135.9370 O   0  0  0  0  0  1  0  0  0  0  0  0
  180.9330  177.8050  136.6070 C   0  0  1  0  0  3  0  0  0  0  0  0
  181.1250  178.9190  135.6010 C   0  0  0  0  0  1  0  0  0  0  0  0
  1 17  1  6  0  0  0
  2 27  1  6  0  0  0
  2  8  1  0  0  0  0
  3  7  1  0  0  0  0
  3  1  1  0  0  0  0
  5  4  1  0  0  0  0
  5  8  1  0  0  0  0
  6 10  2  0  0  0  0
  6  7  1  0  0  0  0
  7  5  2  0  0  0  0
  8 24  1  1  0  0  0
  9  4  2  0  0  0  0
 10  9  1  0  0  0  0
 11  2  1  0  0  0  0
 11  1  1  0  0  0  0
 11 20  1  1  0  0  0
 12 14  1  0  0  0  0
 13 12  1  0  0  0  0
 15 17  1  0  0  0  0
 16 19  1  0  0  0  0
 17 12  2  0  0  0  0
 18 13  2  0  0  0  0
 19 15  2  0  0  0  0
 19 18  1  0  0  0  0
 21 22  1  0  0  0  0
 22 20  2  0  0  0  0
 24 23  2  1  0  0  0
 24 25  1  0  0  0  0
 25 26  1  0  0  0  0
 28 29  1  0  0  0  0
 29 30  1  6  0  0  0
 29 27  1  0  0  0  0
M  END
>  <MODEL>
2

>  <REMARK>
 VINA RESULT:      -5.2      2.505      4.347
  Name = 
  6 active torsions:
  status: ('A' for Active; 'I' for Inactive)
    1  A    between atoms: C_1  and  C_22
    2  A    between atoms: C_4  and  C_25
    3  A    between atoms: C_7  and  S_30
    4  A    between atoms: N_10  and  C_23
    5  A    between atoms: C_11  and  C_25
    6  A    between atoms: C_13  and  S_30
                            x       y       z     vdW  Elec       q    Type
                         _______ _______ _______ _____ _____    ______ ____

>  <TORSDO>
F 6

$$$$
=
 OpenBabel11052412213D

 30 32  0  0  1  0  0  0  0  0999 V2000
  182.1610  177.4680  139.8410 C   0  0  1  0  0  3  0  0  0  0  0  0
  181.5640  177.9840  137.3820 C   0  0  2  0  0  3  0  0  0  0  0  0
  181.0940  176.4830  139.9520 N   0  0  0  0  0  2  0  0  0  0  0  0
  180.9950  174.3760  136.8310 C   0  0  0  0  0  3  0  0  0  0  0  0
  181.3090  175.4460  137.6790 C   0  0  0  0  0  0  0  0  0  0  0  0
  180.0230  174.3760  139.4430 C   0  0  0  0  0  3  0  0  0  0  0  0
  180.8240  175.4390  139.0120 C   0  0  0  0  0  0  0  0  0  0  0  0
  182.1030  176.5730  137.0790 C   0  0  2  0  0  3  0  0  0  0  0  0
  180.2090  173.3140  137.2800 C   0  0  0  0  0  3  0  0  0  0  0  0
  179.7180  173.3160  138.5850 C   0  0  0  0  0  3  0  0  0  0  0  0
  181.8540  178.5390  138.7840 C   0  0  2  0  0  3  0  0  0  0  0  0
  181.4520  178.7180  141.9640 C   0  0  0  0  0  0  0  0  0  0  0  0
  181.7910  179.2580  143.2090 C   0  0  0  0  0  3  0  0  0  0  0  0
  179.7860  178.8770  141.4220 Cl  0  0  0  0  0  0  0  0  0  0  0  0
  183.7470  177.9790  141.6820 C   0  0  0  0  0  3  0  0  0  0  0  0
  185.3440  178.4260  143.3920 F   0  0  0  0  0  0  0  0  0  0  0  0
  182.4400  178.0700  141.1890 C   0  0  0  0  0  0  0  0  0  0  0  0
  183.0980  179.1600  143.6900 C   0  0  0  0  0  3  0  0  0  0  0  0
  184.0760  178.5210  142.9260 C   0  0  0  0  0  0  0  0  0  0  0  0
  182.9440  179.4870  138.7080 N   0  0  0  0  0  0  0  0  0  0  0  0
  181.4150  181.4010  138.7020 C   0  0  0  0  0  1  0  0  0  0  0  0
  182.7710  180.7630  138.6640 C   0  0  0  0  0  3  0  0  0  0  0  0
  184.5040  177.4450  136.4260 O   0  0  0  0  0  0  0  0  0  0  0  0
  183.8890  176.3960  137.3430 S   0  0  2  0  0  0  0  0  0  0  0  0
  184.3360  174.8260  136.5690 C   0  0  0  0  0  2  0  0  0  0  0  0
  184.6090  173.7660  137.6180 C   0  0  0  0  0  1  0  0  0  0  0  0
  180.0840  178.1400  137.0430 C   0  0  0  0  0  2  0  0  0  0  0  0
  181.0430  179.6930  135.5000 O   0  0  0  0  0  1  0  0  0  0  0  0
  179.8970  178.9430  135.7680 C   0  0  1  0  0  3  0  0  0  0  0  0
  179.6420  177.9950  134.6160 C   0  0  0  0  0  1  0  0  0  0  0  0
  1  3  1  0  0  0  0
  1 17  1  1  0  0  0
  2 27  1  1  0  0  0
  2 11  1  0  0  0  0
  4  9  2  0  0  0  0
  4  5  1  0  0  0  0
  5  7  2  0  0  0  0
  7  6  1  0  0  0  0
  7  3  1  0  0  0  0
  8 24  1  1  0  0  0
  8  2  1  0  0  0  0
  8  5  1  0  0  0  0
  9 10  1  0  0  0  0
 10  6  2  0  0  0  0
 11 20  1  6  0  0  0
 11  1  1  0  0  0  0
 12 13  1  0  0  0  0
 13 18  2  0  0  0  0
 14 12  1  0  0  0  0
 15 19  2  0  0  0  0
 17 15  1  0  0  0  0
 17 12  2  0  0  0  0
 19 16  1  0  0  0  0
 19 18  1  0  0  0  0
 22 21  1  0  0  0  0
 22 20  2  0  0  0  0
 24 23  2  6  0  0  0
 25 24  1  0  0  0  0
 25 26  1  0  0  0  0
 28 29  1  0  0  0  0
 29 30  1  6  0  0  0
 29 27  1  0  0  0  0
M  END
>  <MODEL>
3

>  <REMARK>
 VINA RESULT:      -5.1      2.991      5.534
  Name = 
  6 active torsions:
  status: ('A' for Active; 'I' for Inactive)
    1  A    between atoms: C_1  and  C_22
    2  A    between atoms: C_4  and  C_25
    3  A    between atoms: C_7  and  S_30
    4  A    between atoms: N_10  and  C_23
    5  A    between atoms: C_11  and  C_25
    6  A    between atoms: C_13  and  S_30
                            x       y       z     vdW  Elec       q    Type
                         _______ _______ _______ _____ _____    ______ ____

>  <TORSDO>
F 6

$$$$
=
 OpenBabel11052412213D

 30 32  0  0  1  0  0  0  0  0999 V2000
  183.4060  177.2320  138.1090 C   0  0  1  0  0  3  0  0  0  0  0  0
  183.8940  178.6450  140.2150 C   0  0  2  0  0  3  0  0  0  0  0  0
  182.5110  176.3480  138.8430 N   0  0  0  0  0  2  0  0  0  0  0  0
  180.3280  178.3860  141.1380 C   0  0  0  0  0  3  0  0  0  0  0  0
  181.3940  178.0650  140.2880 C   0  0  0  0  0  0  0  0  0  0  0  0
  180.4790  175.8260  140.0470 C   0  0  0  0  0  3  0  0  0  0  0  0
  181.4630  176.7660  139.7240 C   0  0  0  0  0  0  0  0  0  0  0  0
  182.4380  179.1290  140.0840 C   0  0  2  0  0  3  0  0  0  0  0  0
  179.3440  177.4420  141.4380 C   0  0  0  0  0  3  0  0  0  0  0  0
  179.4220  176.1600  140.8960 C   0  0  0  0  0  3  0  0  0  0  0  0
  184.4660  177.8680  139.0200 C   0  0  2  0  0  3  0  0  0  0  0  0
  183.6610  176.7180  135.6110 C   0  0  0  0  0  0  0  0  0  0  0  0
  184.2790  175.9830  134.5940 C   0  0  0  0  0  3  0  0  0  0  0  0
  182.4490  177.9060  135.1510 Cl  0  0  0  0  0  0  0  0  0  0  0  0
  184.9970  175.5300  137.2540 C   0  0  0  0  0  3  0  0  0  0  0  0
  186.5480  173.8730  136.5290 F   0  0  0  0  0  0  0  0  0  0  0  0
  184.0230  176.4900  136.9580 C   0  0  0  0  0  0  0  0  0  0  0  0
  185.2490  175.0270  134.9010 C   0  0  0  0  0  3  0  0  0  0  0  0
  185.6080  174.8000  136.2300 C   0  0  0  0  0  0  0  0  0  0  0  0
  185.3240  178.7410  138.2480 N   0  0  0  0  0  0  0  0  0  0  0  0
  187.3550  177.7000  139.1350 C   0  0  0  0  0  1  0  0  0  0  0  0
  186.6100  178.6870  138.2890 C   0  0  0  0  0  3  0  0  0  0  0  0
  183.1430  181.2780  138.7290 O   0  0  0  0  0  0  0  0  0  0  0  0
  182.1300  180.1470  138.6140 S   0  0  2  0  0  0  0  0  0  0  0  0
  180.5410  180.9540  138.9140 C   0  0  0  0  0  2  0  0  0  0  0  0
  179.4560  180.3470  138.0450 C   0  0  0  0  0  1  0  0  0  0  0  0
  184.1550  177.8910  141.5150 C   0  0  0  0  0  2  0  0  0  0  0  0
  185.6890  179.7160  141.6800 O   0  0  0  0  0  1  0  0  0  0  0  0
  185.2010  178.5980  142.3590 C   0  0  1  0  0  3  0  0  0  0  0  0
  184.5730  179.0420  143.6620 C   0  0  0  0  0  1  0  0  0  0  0  0
  1 17  1  6  0  0  0
  1  3  1  0  0  0  0
  1 11  1  0  0  0  0
  2 27  1  1  0  0  0
  3  7  1  0  0  0  0
  4  9  1  0  0  0  0
  5  4  2  0  0  0  0
  6 10  1  0  0  0  0
  7  6  2  0  0  0  0
  7  5  1  0  0  0  0
  8 24  1  6  0  0  0
  8  2  1  0  0  0  0
  8  5  1  0  0  0  0
 10  9  2  0  0  0  0
 11 20  1  6  0  0  0
 11  2  1  0  0  0  0
 12 17  1  0  0  0  0
 13 18  1  0  0  0  0
 13 12  2  0  0  0  0
 14 12  1  0  0  0  0
 17 15  2  0  0  0  0
 18 19  2  0  0  0  0
 19 16  1  0  0  0  0
 19 15  1  0  0  0  0
 20 22  2  0  0  0  0
 22 21  1  0  0  0  0
 24 23  2  1  0  0  0
 24 25  1  0  0  0  0
 26 25  1  0  0  0  0
 27 29  1  0  0  0  0
 28 29  1  0  0  0  0
 29 30  1  1  0  0  0
M  END
>  <MODEL>
4

>  <REMARK>
 VINA RESULT:      -5.0      2.528      4.448
  Name = 
  6 active torsions:
  status: ('A' for Active; 'I' for Inactive)
    1  A    between atoms: C_1  and  C_22
    2  A    between atoms: C_4  and  C_25
    3  A    between atoms: C_7  and  S_30
    4  A    between atoms: N_10  and  C_23
    5  A    between atoms: C_11  and  C_25
    6  A    between atoms: C_13  and  S_30
                            x       y       z     vdW  Elec       q    Type
                         _______ _______ _______ _____ _____    ______ ____

>  <TORSDO>
F 6

$$$$
=
 OpenBabel11052412213D

 30 32  0  0  1  0  0  0  0  0999 V2000
  182.4960  178.7780  140.4630 C   0  0  1  0  0  3  0  0  0  0  0  0
  179.9770  178.7540  139.8970 C   0  0  2  0  0  3  0  0  0  0  0  0
  182.7840  177.7450  139.4780 N   0  0  0  0  0  2  0  0  0  0  0  0
  180.8470  178.4370  136.3220 C   0  0  0  0  0  3  0  0  0  0  0  0
  181.2270  178.5130  137.6680 C   0  0  0  0  0  0  0  0  0  0  0  0
  182.9780  176.8840  137.2250 C   0  0  0  0  0  3  0  0  0  0  0  0
  182.3200  177.7320  138.1240 C   0  0  0  0  0  0  0  0  0  0  0  0
  180.3910  179.3910  138.5580 C   0  0  2  0  0  3  0  0  0  0  0  0
  181.5240  177.6000  135.4340 C   0  0  0  0  0  3  0  0  0  0  0  0
  182.5870  176.8200  135.8870 C   0  0  0  0  0  3  0  0  0  0  0  0
  181.0560  178.6930  140.9880 C   0  0  2  0  0  3  0  0  0  0  0  0
  184.9010  178.6790  141.3460 C   0  0  0  0  0  0  0  0  0  0  0  0
  185.7790  178.6190  142.4330 C   0  0  0  0  0  3  0  0  0  0  0  0
  185.5910  178.7050  139.7280 Cl  0  0  0  0  0  0  0  0  0  0  0  0
  183.0250  178.6950  142.8860 C   0  0  0  0  0  3  0  0  0  0  0  0
  183.4310  178.6140  145.2330 F   0  0  0  0  0  0  0  0  0  0  0  0
  183.5060  178.7180  141.5730 C   0  0  0  0  0  0  0  0  0  0  0  0
  185.2860  178.5970  143.7390 C   0  0  0  0  0  3  0  0  0  0  0  0
  183.9100  178.6350  143.9660 C   0  0  0  0  0  0  0  0  0  0  0  0
  180.8190  179.7430  141.9550 N   0  0  0  0  0  0  0  0  0  0  0  0
  179.6800  178.2110  143.4910 C   0  0  0  0  0  1  0  0  0  0  0  0
  180.2040  179.5510  143.0710 C   0  0  0  0  0  3  0  0  0  0  0  0
  180.0580  181.7810  139.6210 O   0  0  0  0  0  0  0  0  0  0  0  0
  181.0570  181.0710  138.7170 S   0  0  2  0  0  0  0  0  0  0  0  0
  180.8050  181.8420  137.1020 C   0  0  0  0  0  2  0  0  0  0  0  0
  180.8220  183.3540  137.2180 C   0  0  0  0  0  1  0  0  0  0  0  0
  179.3150  177.3900  139.7270 C   0  0  0  0  0  2  0  0  0  0  0  0
  178.9490  175.8360  141.5060 O   0  0  0  0  0  1  0  0  0  0  0  0
  179.9280  176.3630  140.6620 C   0  0  1  0  0  3  0  0  0  0  0  0
  180.5330  175.2430  139.8430 C   0  0  0  0  0  1  0  0  0  0  0  0
  1 11  1  0  0  0  0
  1 17  1  1  0  0  0
  2 27  1  6  0  0  0
  2 11  1  0  0  0  0
  3  1  1  0  0  0  0
  4  5  1  0  0  0  0
  5  7  2  0  0  0  0
  5  8  1  0  0  0  0
  6  7  1  0  0  0  0
  7  3  1  0  0  0  0
  8 24  1  1  0  0  0
  8  2  1  0  0  0  0
  9 10  1  0  0  0  0
  9  4  2  0  0  0  0
 10  6  2  0  0  0  0
 11 20  1  1  0  0  0
 12 17  2  0  0  0  0
 12 13  1  0  0  0  0
 13 18  2  0  0  0  0
 14 12  1  0  0  0  0
 15 19  2  0  0  0  0
 17 15  1  0  0  0  0
 18 19  1  0  0  0  0
 19 16  1  0  0  0  0
 20 22  2  0  0  0  0
 22 21  1  0  0  0  0
 24 23  2  1  0  0  0
 25 26  1  0  0  0  0
 25 24  1  0  0  0  0
 27 29  1  0  0  0  0
 29 30  1  6  0  0  0
 29 28  1  0  0  0  0
M  END
>  <MODEL>
5

>  <REMARK>
 VINA RESULT:      -4.7      2.803      5.961
  Name = 
  6 active torsions:
  status: ('A' for Active; 'I' for Inactive)
    1  A    between atoms: C_1  and  C_22
    2  A    between atoms: C_4  and  C_25
    3  A    between atoms: C_7  and  S_30
    4  A    between atoms: N_10  and  C_23
    5  A    between atoms: C_11  and  C_25
    6  A    between atoms: C_13  and  S_30
                            x       y       z     vdW  Elec       q    Type
                         _______ _______ _______ _____ _____    ______ ____

>  <TORSDO>
F 6

$$$$
=
 OpenBabel11052412213D

 30 32  0  0  1  0  0  0  0  0999 V2000
  181.3930  178.2940  137.6600 C   0  0  1  0  0  3  0  0  0  0  0  0
  181.8170  176.7540  139.6890 C   0  0  2  0  0  3  0  0  0  0  0  0
  182.7940  178.2480  137.2630 N   0  0  0  0  0  2  0  0  0  0  0  0
  184.0840  174.7250  137.5960 C   0  0  0  0  0  3  0  0  0  0  0  0
  183.2430  175.8330  137.7630 C   0  0  0  0  0  0  0  0  0  0  0  0
  184.7770  177.1520  136.4150 C   0  0  0  0  0  3  0  0  0  0  0  0
  183.5900  177.0640  137.1520 C   0  0  0  0  0  0  0  0  0  0  0  0
  182.0420  175.6410  138.6480 C   0  0  2  0  0  3  0  0  0  0  0  0
  185.2560  174.8240  136.8430 C   0  0  0  0  0  3  0  0  0  0  0  0
  185.6050  176.0400  136.2570 C   0  0  0  0  0  3  0  0  0  0  0  0
  181.2110  178.0650  139.1680 C   0  0  2  0  0  3  0  0  0  0  0  0
  179.6850  179.6500  136.3140 C   0  0  0  0  0  0  0  0  0  0  0  0
  179.1700  180.8950  135.9360 C   0  0  0  0  0  3  0  0  0  0  0  0
  178.9310  178.2080  135.6480 Cl  0  0  0  0  0  0  0  0  0  0  0  0
  181.3300  180.7750  137.7000 C   0  0  0  0  0  3  0  0  0  0  0  0
  181.3520  183.1550  137.8000 F   0  0  0  0  0  0  0  0  0  0  0  0
  180.7780  179.5870  137.2070 C   0  0  0  0  0  0  0  0  0  0  0  0
  179.7290  182.0730  136.4340 C   0  0  0  0  0  3  0  0  0  0  0  0
  180.8090  182.0130  137.3160 C   0  0  0  0  0  0  0  0  0  0  0  0
  179.8050  178.1120  139.5090 N   0  0  0  0  0  0  0  0  0  0  0  0
  180.1220  180.0480  140.9760 C   0  0  0  0  0  1  0  0  0  0  0  0
  179.3020  178.9820  140.3160 C   0  0  0  0  0  3  0  0  0  0  0  0
  179.5570  174.7740  138.8020 O   0  0  0  0  0  0  0  0  0  0  0  0
  180.5500  175.1850  137.7230 S   0  0  2  0  0  0  0  0  0  0  0  0
  180.9560  173.6330  136.8920 C   0  0  0  0  0  2  0  0  0  0  0  0
  180.4320  172.4470  137.6780 C   0  0  0  0  0  1  0  0  0  0  0  0
  183.0560  177.0380  140.5330 C   0  0  0  0  0  2  0  0  0  0  0  0
  183.1300  178.7640  142.1850 O   0  0  0  0  0  1  0  0  0  0  0  0
  183.1990  178.5240  140.8120 C   0  0  1  0  0  3  0  0  0  0  0  0
  184.5360  179.0030  140.2900 C   0  0  0  0  0  1  0  0  0  0  0  0
  1 17  1  1  0  0  0
  1 11  1  0  0  0  0
  2 27  1  6  0  0  0
  3  1  1  0  0  0  0
  4  5  1  0  0  0  0
  5  8  1  0  0  0  0
  6  7  1  0  0  0  0
  7  3  1  0  0  0  0
  7  5  2  0  0  0  0
  8 24  1  6  0  0  0
  8  2  1  0  0  0  0
  9  4  2  0  0  0  0
 10  6  2  0  0  0  0
 10  9  1  0  0  0  0
 11 20  1  6  0  0  0
 11  2  1  0  0  0  0
 12 17  1  0  0  0  0
 13 12  2  0  0  0  0
 13 18  1  0  0  0  0
 14 12  1  0  0  0  0
 17 15  2  0  0  0  0
 18 19  2  0  0  0  0
 19 15  1  0  0  0  0
 19 16  1  0  0  0  0
 20 22  2  0  0  0  0
 22 21  1  0  0  0  0
 24 23  2  1  0  0  0
 25 26  1  0  0  0  0
 25 24  1  0  0  0  0
 27 29  1  0  0  0  0
 29 30  1  1  0  0  0
 29 28  1  0  0  0  0
M  END
>  <MODEL>
6

>  <REMARK>
 VINA RESULT:      -4.7      2.708      5.424
  Name = 
  6 active torsions:
  status: ('A' for Active; 'I' for Inactive)
    1  A    between atoms: C_1  and  C_22
    2  A    between atoms: C_4  and  C_25
    3  A    between atoms: C_7  and  S_30
    4  A    between atoms: N_10  and  C_23
    5  A    between atoms: C_11  and  C_25
    6  A    between atoms: C_13  and  S_30
                            x       y       z     vdW  Elec       q    Type
                         _______ _______ _______ _____ _____    ______ ____

>  <TORSDO>
F 6

$$$$
=
 OpenBabel11052412213D

 30 32  0  0  1  0  0  0  0  0999 V2000
  183.1500  176.5860  138.4100 C   0  0  1  0  0  3  0  0  0  0  0  0
  181.1420  178.1700  138.0550 C   0  0  2  0  0  3  0  0  0  0  0  0
  183.6900  177.4190  139.4760 N   0  0  0  0  0  2  0  0  0  0  0  0
  180.8900  178.5680  141.7190 C   0  0  0  0  0  3  0  0  0  0  0  0
  181.5310  178.0420  140.5900 C   0  0  0  0  0  0  0  0  0  0  0  0
  183.6710  178.4000  141.6870 C   0  0  0  0  0  3  0  0  0  0  0  0
  182.9460  177.9450  140.5800 C   0  0  0  0  0  0  0  0  0  0  0  0
  180.6540  177.6670  139.4270 C   0  0  2  0  0  3  0  0  0  0  0  0
  181.6260  179.0020  142.8220 C   0  0  0  0  0  3  0  0  0  0  0  0
  183.0180  178.9220  142.8050 C   0  0  0  0  0  3  0  0  0  0  0  0
  182.3020  177.3930  137.4170 C   0  0  2  0  0  3  0  0  0  0  0  0
  185.4190  176.4850  137.2230 C   0  0  0  0  0  0  0  0  0  0  0  0
  186.4140  175.7260  136.5960 C   0  0  0  0  0  3  0  0  0  0  0  0
  185.6640  178.2220  137.3510 Cl  0  0  0  0  0  0  0  0  0  0  0  0
  184.1350  174.4590  137.5940 C   0  0  0  0  0  3  0  0  0  0  0  0
  184.9950  172.3680  136.8410 F   0  0  0  0  0  0  0  0  0  0  0  0
  184.2650  175.8450  137.7290 C   0  0  0  0  0  0  0  0  0  0  0  0
  186.2720  174.3430  136.4670 C   0  0  0  0  0  3  0  0  0  0  0  0
  185.1330  173.7100  136.9660 C   0  0  0  0  0  0  0  0  0  0  0  0
  181.7840  176.5210  136.3840 N   0  0  0  0  0  0  0  0  0  0  0  0
  182.3120  178.1320  134.6160 C   0  0  0  0  0  1  0  0  0  0  0  0
  181.7740  176.8330  135.1340 C   0  0  0  0  0  3  0  0  0  0  0  0
  179.0780  175.8280  138.3860 O   0  0  0  0  0  0  0  0  0  0  0  0
  180.1720  175.9180  139.4410 S   0  0  2  0  0  0  0  0  0  0  0  0
  179.2930  175.6750  141.0010 C   0  0  0  0  0  2  0  0  0  0  0  0
  179.1590  174.1990  141.3210 C   0  0  0  0  0  1  0  0  0  0  0  0
  181.4310  179.6680  138.0400 C   0  0  0  0  0  2  0  0  0  0  0  0
  180.8710  181.2850  136.3700 O   0  0  0  0  0  1  0  0  0  0  0  0
  180.3260  180.4310  137.3300 C   0  0  1  0  0  3  0  0  0  0  0  0
  179.3980  179.4470  136.6510 C   0  0  0  0  0  1  0  0  0  0  0  0
  1 17  1  6  0  0  0
  1  3  1  0  0  0  0
  2 27  1  1  0  0  0
  2  8  1  0  0  0  0
  3  7  1  0  0  0  0
  4  9  1  0  0  0  0
  5  4  2  0  0  0  0
  6 10  1  0  0  0  0
  7  5  1  0  0  0  0
  7  6  2  0  0  0  0
  8 24  1  6  0  0  0
  8  5  1  0  0  0  0
 10  9  2  0  0  0  0
 11 20  1  6  0  0  0
 11  2  1  0  0  0  0
 11  1  1  0  0  0  0
 12 14  1  0  0  0  0
 12 17  1  0  0  0  0
 13 12  2  0  0  0  0
 15 17  2  0  0  0  0
 16 19  1  0  0  0  0
 18 13  1  0  0  0  0
 18 19  2  0  0  0  0
 19 15  1  0  0  0  0
 21 22  1  0  0  0  0
 22 20  2  0  0  0  0
 24 23  2  6  0  0  0
 24 25  1  0  0  0  0
 25 26  1  0  0  0  0
 28 29  1  0  0  0  0
 29 30  1  6  0  0  0
 29 27  1  0  0  0  0
M  END
>  <MODEL>
7

>  <REMARK>
 VINA RESULT:      -4.4      2.130      2.480
  Name = 
  6 active torsions:
  status: ('A' for Active; 'I' for Inactive)
    1  A    between atoms: C_1  and  C_22
    2  A    between atoms: C_4  and  C_25
    3  A    between atoms: C_7  and  S_30
    4  A    between atoms: N_10  and  C_23
    5  A    between atoms: C_11  and  C_25
    6  A    between atoms: C_13  and  S_30
                            x       y       z     vdW  Elec       q    Type
                         _______ _______ _______ _____ _____    ______ ____

>  <TORSDO>
F 6

$$$$
=
 OpenBabel11052412213D

 30 32  0  0  1  0  0  0  0  0999 V2000
  185.0600  177.0630  137.2710 C   0  0  1  0  0  3  0  0  0  0  0  0
  182.7620  176.8360  138.4280 C   0  0  2  0  0  3  0  0  0  0  0  0
  185.1430  175.6280  137.0310 N   0  0  0  0  0  2  0  0  0  0  0  0
  181.7940  174.3480  135.8750 C   0  0  0  0  0  3  0  0  0  0  0  0
  182.7420  175.2110  136.4390 C   0  0  0  0  0  0  0  0  0  0  0  0
  184.4650  173.5600  135.9760 C   0  0  0  0  0  3  0  0  0  0  0  0
  184.1030  174.8140  136.4790 C   0  0  0  0  0  0  0  0  0  0  0  0
  182.2220  176.4950  137.0260 C   0  0  2  0  0  3  0  0  0  0  0  0
  182.1730  173.1060  135.3630 C   0  0  0  0  0  3  0  0  0  0  0  0
  183.5080  172.7100  135.4170 C   0  0  0  0  0  3  0  0  0  0  0  0
  184.1900  177.3970  138.4920 C   0  0  2  0  0  3  0  0  0  0  0  0
  187.1770  178.1120  136.2770 C   0  0  0  0  0  0  0  0  0  0  0  0
  188.4610  178.6320  136.4660 C   0  0  0  0  0  3  0  0  0  0  0  0
  186.5340  178.0750  134.6400 Cl  0  0  0  0  0  0  0  0  0  0  0  0
  187.0130  177.6990  138.6630 C   0  0  0  0  0  3  0  0  0  0  0  0
  188.8400  178.2720  140.0820 F   0  0  0  0  0  0  0  0  0  0  0  0
  186.4420  177.6390  137.3880 C   0  0  0  0  0  0  0  0  0  0  0  0
  189.0210  178.6860  137.7440 C   0  0  0  0  0  3  0  0  0  0  0  0
  188.2980  178.2200  138.8420 C   0  0  0  0  0  0  0  0  0  0  0  0
  184.1340  178.8300  138.6820 N   0  0  0  0  0  0  0  0  0  0  0  0
  184.2440  178.6130  141.1200 C   0  0  0  0  0  1  0  0  0  0  0  0
  184.1500  179.3900  139.8430 C   0  0  0  0  0  3  0  0  0  0  0  0
  181.6710  179.0420  136.6280 O   0  0  0  0  0  0  0  0  0  0  0  0
  182.2830  177.8810  135.8570 S   0  0  2  0  0  0  0  0  0  0  0  0
  181.0480  177.4980  134.5950 C   0  0  0  0  0  2  0  0  0  0  0  0
  179.6700  177.3610  135.2120 C   0  0  0  0  0  1  0  0  0  0  0  0
  182.5940  175.6920  139.4240 C   0  0  0  0  0  2  0  0  0  0  0  0
  180.8790  177.1640  140.2020 O   0  0  0  0  0  1  0  0  0  0  0  0
  181.3000  175.8340  140.2060 C   0  0  1  0  0  3  0  0  0  0  0  0
  180.2340  174.9720  139.5640 C   0  0  0  0  0  1  0  0  0  0  0  0
  1 17  1  1  0  0  0
  1 11  1  0  0  0  0
  2 11  1  0  0  0  0
  2 27  1  1  0  0  0
  3  1  1  0  0  0  0
  4  5  1  0  0  0  0
  5  7  2  0  0  0  0
  5  8  1  0  0  0  0
  6  7  1  0  0  0  0
  7  3  1  0  0  0  0
  8 24  1  6  0  0  0
  8  2  1  0  0  0  0
  9 10  1  0  0  0  0
  9  4  2  0  0  0  0
 10  6  2  0  0  0  0
 11 20  1  6  0  0  0
 12 13  2  0  0  0  0
 12 17  1  0  0  0  0
 13 18  1  0  0  0  0
 14 12  1  0  0  0  0
 15 19  1  0  0  0  0
 17 15  2  0  0  0  0
 18 19  2  0  0  0  0
 19 16  1  0  0  0  0
 20 22  2  0  0  0  0
 22 21  1  0  0  0  0
 24 23  2  1  0  0  0
 25 26  1  0  0  0  0
 25 24  1  0  0  0  0
 27 29  1  0  0  0  0
 28 29  1  0  0  0  0
 29 30  1  6  0  0  0
M  END
>  <MODEL>
8

>  <REMARK>
 VINA RESULT:      -4.4      2.944      5.498
  Name = 
  6 active torsions:
  status: ('A' for Active; 'I' for Inactive)
    1  A    between atoms: C_1  and  C_22
    2  A    between atoms: C_4  and  C_25
    3  A    between atoms: C_7  and  S_30
    4  A    between atoms: N_10  and  C_23
    5  A    between atoms: C_11  and  C_25
    6  A    between atoms: C_13  and  S_30
                            x       y       z     vdW  Elec       q    Type
                         _______ _______ _______ _____ _____    ______ ____

>  <TORSDO>
F 6

$$$$
=
 OpenBabel11052412213D

 30 32  0  0  1  0  0  0  0  0999 V2000
  182.4190  177.7290  139.4230 C   0  0  1  0  0  3  0  0  0  0  0  0
  181.4350  175.9430  137.8380 C   0  0  2  0  0  3  0  0  0  0  0  0
  183.7710  177.4980  138.9350 N   0  0  0  0  0  2  0  0  0  0  0  0
  183.7120  177.1360  135.1860 C   0  0  0  0  0  3  0  0  0  0  0  0
  183.2400  177.1900  136.5040 C   0  0  0  0  0  0  0  0  0  0  0  0
  185.5190  177.5670  137.2630 C   0  0  0  0  0  3  0  0  0  0  0  0
  184.1590  177.4220  137.5590 C   0  0  0  0  0  0  0  0  0  0  0  0
  181.7720  176.9320  136.7060 C   0  0  2  0  0  3  0  0  0  0  0  0
  185.0700  177.2990  134.9050 C   0  0  0  0  0  3  0  0  0  0  0  0
  185.9740  177.5110  135.9450 C   0  0  0  0  0  3  0  0  0  0  0  0
  181.5280  176.4880  139.2710 C   0  0  2  0  0  3  0  0  0  0  0  0
  181.4500  179.0110  141.4210 C   0  0  0  0  0  0  0  0  0  0  0  0
  181.5700  179.4320  142.7490 C   0  0  0  0  0  3  0  0  0  0  0  0
  180.0160  179.4990  140.5270 Cl  0  0  0  0  0  0  0  0  0  0  0  0
  183.5820  177.8660  141.6120 C   0  0  0  0  0  3  0  0  0  0  0  0
  184.7770  177.9430  143.6710 F   0  0  0  0  0  0  0  0  0  0  0  0
  182.4680  178.2180  140.8430 C   0  0  0  0  0  0  0  0  0  0  0  0
  182.6880  179.0740  143.5060 C   0  0  0  0  0  3  0  0  0  0  0  0
  183.6930  178.2910  142.9380 C   0  0  0  0  0  0  0  0  0  0  0  0
  180.1960  176.7710  139.7630 N   0  0  0  0  0  0  0  0  0  0  0  0
  179.9180  174.4930  140.6190 C   0  0  0  0  0  1  0  0  0  0  0  0
  179.4620  175.8960  140.3590 C   0  0  0  0  0  3  0  0  0  0  0  0
  179.3500  177.9640  136.8460 O   0  0  0  0  0  0  0  0  0  0  0  0
  180.7870  178.4550  136.7420 S   0  0  2  0  0  0  0  0  0  0  0  0
  180.8950  179.1360  135.0720 C   0  0  0  0  0  2  0  0  0  0  0  0
  180.7170  180.6420  135.0910 C   0  0  0  0  0  1  0  0  0  0  0  0
  182.1930  174.6240  137.7200 C   0  0  0  0  0  2  0  0  0  0  0  0
  179.9950  173.9570  137.0580 O   0  0  0  0  0  1  0  0  0  0  0  0
  181.3310  173.5550  137.0710 C   0  0  1  0  0  3  0  0  0  0  0  0
  181.7980  173.3360  135.6480 C   0  0  0  0  0  1  0  0  0  0  0  0
  1 17  1  1  0  0  0
  2 27  1  1  0  0  0
  2 11  1  0  0  0  0
  3  1  1  0  0  0  0
  4  5  1  0  0  0  0
  5  8  1  0  0  0  0
  5  7  2  0  0  0  0
  6  7  1  0  0  0  0
  7  3  1  0  0  0  0
  8 24  1  1  0  0  0
  8  2  1  0  0  0  0
  9  4  2  0  0  0  0
  9 10  1  0  0  0  0
 10  6  2  0  0  0  0
 11  1  1  0  0  0  0
 11 20  1  6  0  0  0
 12 13  1  0  0  0  0
 13 18  2  0  0  0  0
 14 12  1  0  0  0  0
 15 19  2  0  0  0  0
 17 12  2  0  0  0  0
 17 15  1  0  0  0  0
 19 18  1  0  0  0  0
 19 16  1  0  0  0  0
 20 22  2  0  0  0  0
 22 21  1  0  0  0  0
 24 23  2  6  0  0  0
 25 26  1  0  0  0  0
 25 24  1  0  0  0  0
 28 29  1  0  0  0  0
 29 30  1  6  0  0  0
 29 27  1  0  0  0  0
M  END
>  <MODEL>
9

>  <REMARK>
 VINA RESULT:      -4.3      2.710      6.324
  Name = 
  6 active torsions:
  status: ('A' for Active; 'I' for Inactive)
    1  A    between atoms: C_1  and  C_22
    2  A    between atoms: C_4  and  C_25
    3  A    between atoms: C_7  and  S_30
    4  A    between atoms: N_10  and  C_23
    5  A    between atoms: C_11  and  C_25
    6  A    between atoms: C_13  and  S_30
                            x       y       z     vdW  Elec       q    Type
                         _______ _______ _______ _____ _____    ______ ____

>  <TORSDO>
F 6

$$$$
