=
 OpenBabel11052415113D

 55 58  0  0  1  0  0  0  0  0999 V2000
  180.2190  176.4070  141.2450 C   0  0  0  0  0  2  0  0  0  0  0  0
  180.1160  178.7590  143.9200 C   0  0  0  0  0  1  0  0  0  0  0  0
  182.0660  177.0180  137.4220 C   0  0  2  0  0  3  0  0  0  0  0  0
  184.2660  180.2250  138.7170 O   0  0  0  0  0  1  0  0  0  0  0  0
  181.7120  179.3630  137.1430 O   0  0  0  0  0  1  0  0  0  0  0  0
  183.8810  179.1350  139.5050 C   0  0  2  0  0  0  0  0  0  0  0  0
  182.6040  178.6560  139.1290 O   0  0  0  0  0  0  0  0  0  0  0  0
  182.0020  179.2630  142.4080 C   0  0  0  0  0  2  0  0  0  0  0  0
  179.8060  176.2490  137.4450 F   0  0  0  0  0  0  0  0  0  0  0  0
  182.5590  178.4290  137.7390 C   0  0  1  0  0  3  0  0  0  0  0  0
  183.8190  179.6150  140.9520 C   0  0  0  0  0  2  0  0  0  0  0  0
  181.4570  176.2030  140.3860 C   0  0  0  0  0  2  0  0  0  0  0  0
  184.9330  178.0370  139.3960 C   0  0  0  0  0  1  0  0  0  0  0  0
  180.0850  177.8750  141.6180 C   0  0  0  0  0  2  0  0  0  0  0  0
  180.9730  178.2120  142.8040 C   0  0  2  0  0  3  0  0  0  0  0  0
  180.8480  176.6240  138.2720 C   0  0  1  0  0  3  0  0  0  0  0  0
  183.1800  178.6280  141.8290 N   0  0  0  0  0  0  0  0  0  0  0  0
  181.1200  175.5850  139.1780 O   0  0  0  0  0  0  0  0  0  0  0  0
  183.2220  176.0180  137.4760 C   0  0  0  0  0  2  0  0  0  0  0  0
  185.2970  173.8450  136.3030 C   0  0  1  0  0  3  0  0  0  0  0  0
  183.2530  175.0620  136.2710 C   0  0  2  0  0  0  0  0  0  0  0  0
  182.9450  173.7560  136.7160 O   0  0  0  0  0  0  0  0  0  0  0  0
  185.8860  174.2150  137.5120 O   0  0  0  0  0  1  0  0  0  0  0  0
  184.1090  172.9690  136.5920 C   0  0  0  0  0  2  0  0  0  0  0  0
  184.6480  175.0270  135.6410 C   0  0  1  0  0  3  0  0  0  0  0  0
  184.9010  177.3330  134.6860 C   0  0  0  0  0  1  0  0  0  0  0  0
  185.4630  176.3320  135.6840 C   0  0  2  0  0  3  0  0  0  0  0  0
  186.8610  176.0660  135.3640 N   0  0  0  0  0  2  0  0  0  0  0  0
  187.7170  177.7500  137.0700 C   0  0  0  0  0  1  0  0  0  0  0  0
  187.9520  176.7230  136.0150 C   0  0  0  0  0  0  0  0  0  0  0  0
  189.1320  176.4180  135.7050 O   0  0  0  0  0  0  0  0  0  0  0  0
  182.2130  175.5210  135.2400 C   0  0  0  0  0  2  0  0  0  0  0  0
  181.4510  174.3680  134.6030 C   0  0  0  0  0  2  0  0  0  0  0  0
  180.0610  174.2510  135.2000 C   0  0  0  0  0  2  0  0  0  0  0  0
  179.8150  172.8210  135.6260 C   0  0  0  0  0  1  0  0  0  0  0  0
  184.0550  178.2170  142.9410 C   0  0  1  0  0  3  0  0  0  0  0  0
  186.3710  177.4500  142.8320 C   0  0  0  0  0  3  0  0  0  0  0  0
  185.4950  178.4220  142.6030 C   0  0  0  0  0  3  0  0  0  0  0  0
  188.6880  177.6870  143.6330 C   0  0  0  0  0  3  0  0  0  0  0  0
  189.6790  177.8050  141.0240 C   0  0  0  0  0  0  0  0  0  0  0  0
  188.3080  177.6490  141.2460 C   0  0  0  0  0  3  0  0  0  0  0  0
  190.0580  177.8400  143.4100 C   0  0  0  0  0  3  0  0  0  0  0  0
  187.8070  177.5860  142.5560 C   0  0  0  0  0  0  0  0  0  0  0  0
  190.1610  177.8550  139.7570 F   0  0  0  0  0  0  0  0  0  0  0  0
  190.5540  177.8990  142.1050 C   0  0  0  0  0  3  0  0  0  0  0  0
  183.6970  178.8210  144.3010 C   0  0  0  0  0  2  0  0  0  0  0  0
  185.3350  179.6900  145.9830 C   0  0  0  0  0  3  0  0  0  0  0  0
  186.9140  178.2030  147.0880 C   0  0  0  0  0  0  0  0  0  0  0  0
  185.3240  177.3230  145.4730 C   0  0  0  0  0  3  0  0  0  0  0  0
  186.3750  177.1200  146.3760 C   0  0  0  0  0  3  0  0  0  0  0  0
  186.3880  179.4880  146.8840 C   0  0  0  0  0  3  0  0  0  0  0  0
  184.8000  178.6070  145.2790 C   0  0  0  0  0  0  0  0  0  0  0  0
  188.0290  177.9950  148.0290 C   0  0  0  0  0  0  0  0  0  0  0  0
  187.8060  177.6580  149.2200 O   0  0  0  0  0  1  0  0  0  0  0  0
  189.3440  178.1630  147.6040 O   0  0  0  0  0  0  0  0  0  0  0  0
  1 14  1  0  0  0  0
  3 19  1  1  0  0  0
  3 10  1  0  0  0  0
  3 16  1  0  0  0  0
  4  6  1  0  0  0  0
  6 13  1  6  0  0  0
  6 11  1  0  0  0  0
  7  6  1  0  0  0  0
  8 15  1  0  0  0  0
 10  5  1  6  0  0  0
 10  7  1  0  0  0  0
 11 17  1  0  0  0  0
 12  1  1  0  0  0  0
 14 15  1  0  0  0  0
 15  2  1  1  0  0  0
 16  9  1  6  0  0  0
 16 18  1  0  0  0  0
 17  8  1  0  0  0  0
 17 36  1  0  0  0  0
 18 12  1  0  0  0  0
 20 24  1  0  0  0  0
 20 23  1  1  0  0  0
 21 32  1  6  0  0  0
 21 22  1  0  0  0  0
 21 19  1  0  0  0  0
 24 22  1  0  0  0  0
 25 27  1  1  0  0  0
 25 21  1  0  0  0  0
 25 20  1  0  0  0  0
 27 26  1  6  0  0  0
 28 27  1  0  0  0  0
 28 30  1  0  0  0  0
 30 29  1  0  0  0  0
 31 30  2  0  0  0  0
 33 34  1  0  0  0  0
 33 32  1  0  0  0  0
 34 35  1  0  0  0  0
 36 38  1  6  0  0  0
 36 46  1  0  0  0  0
 38 37  2  0  0  0  0
 40 41  2  0  0  0  0
 40 45  1  0  0  0  0
 41 43  1  0  0  0  0
 42 39  1  0  0  0  0
 43 37  1  0  0  0  0
 43 39  2  0  0  0  0
 44 40  1  0  0  0  0
 45 42  2  0  0  0  0
 46 52  1  0  0  0  0
 47 51  1  0  0  0  0
 48 53  1  0  0  0  0
 49 50  2  0  0  0  0
 50 48  1  0  0  0  0
 51 48  2  0  0  0  0
 52 49  1  0  0  0  0
 52 47  2  0  0  0  0
 53 54  1  0  0  0  0
 55 53  2  0  0  0  0
M  END
>  <MODEL>
1

>  <REMARK>
 VINA RESULT:      -6.2      0.000      0.000
  Name = 
  13 active torsions:
  status: ('A' for Active; 'I' for Inactive)
    1  A    between atoms: C_2  and  C_44
    2  A    between atoms: C_6  and  C_8
    3  A    between atoms: C_6  and  C_46
    4  A    between atoms: C_7  and  C_8
    5  A    between atoms: C_10  and  C_32
    6  A    between atoms: N_11  and  C_38
    7  A    between atoms: C_12  and  C_14
    8  A    between atoms: C_14  and  C_46
    9  A    between atoms: C_28  and  C_49
   10  A    between atoms: C_33  and  C_49
   11  A    between atoms: C_33  and  C_52
   12  A    between atoms: C_38  and  C_53
   13  A    between atoms: N_45  and  C_49
                            x       y       z     vdW  Elec       q    Type
                         _______ _______ _______ _____ _____    ______ ____

>  <TORSDO>
F 13

$$$$
=
 OpenBabel11052415113D

 55 58  0  0  1  0  0  0  0  0999 V2000
  180.2700  176.4940  141.1890 C   0  0  0  0  0  2  0  0  0  0  0  0
  180.1930  178.6550  144.0210 C   0  0  0  0  0  1  0  0  0  0  0  0
  182.0920  177.3640  137.4040 C   0  0  2  0  0  3  0  0  0  0  0  0
  184.3090  180.4680  138.9010 O   0  0  0  0  0  1  0  0  0  0  0  0
  181.7420  179.7230  137.2900 O   0  0  0  0  0  1  0  0  0  0  0  0
  183.9280  179.3270  139.6150 C   0  0  2  0  0  0  0  0  0  0  0  0
  182.6470  178.8780  139.2150 O   0  0  0  0  0  0  0  0  0  0  0  0
  182.0690  179.2580  142.5330 C   0  0  0  0  0  2  0  0  0  0  0  0
  179.8310  176.6000  137.3890 F   0  0  0  0  0  0  0  0  0  0  0  0
  182.5910  178.7480  137.8130 C   0  0  1  0  0  3  0  0  0  0  0  0
  183.8770  179.7060  141.0920 C   0  0  0  0  0  2  0  0  0  0  0  0
  181.5030  176.3470  140.3090 C   0  0  0  0  0  2  0  0  0  0  0  0
  184.9760  178.2370  139.4230 C   0  0  0  0  0  1  0  0  0  0  0  0
  180.1430  177.9320  141.6630 C   0  0  0  0  0  2  0  0  0  0  0  0
  181.0410  178.1850  142.8630 C   0  0  2  0  0  3  0  0  0  0  0  0
  180.8790  176.9140  138.2330 C   0  0  1  0  0  3  0  0  0  0  0  0
  183.2420  178.6630  141.9030 N   0  0  0  0  0  0  0  0  0  0  0  0
  181.1550  175.8150  139.0630 O   0  0  0  0  0  0  0  0  0  0  0  0
  183.2460  176.3600  137.3800 C   0  0  0  0  0  2  0  0  0  0  0  0
  182.1110  173.9810  135.5190 C   0  0  1  0  0  3  0  0  0  0  0  0
  183.5510  175.8200  135.9720 C   0  0  2  0  0  0  0  0  0  0  0  0
  182.5590  176.2870  135.0790 O   0  0  0  0  0  0  0  0  0  0  0  0
  181.2460  173.9590  136.6120 O   0  0  0  0  0  1  0  0  0  0  0  0
  181.7880  175.1800  134.6700 C   0  0  0  0  0  2  0  0  0  0  0  0
  183.5160  174.2900  135.9560 C   0  0  1  0  0  3  0  0  0  0  0  0
  185.4960  173.5940  137.3310 C   0  0  0  0  0  1  0  0  0  0  0  0
  183.9770  173.5710  137.2370 C   0  0  2  0  0  3  0  0  0  0  0  0
  183.5170  172.1870  137.2330 N   0  0  0  0  0  2  0  0  0  0  0  0
  185.0180  171.5450  135.2810 C   0  0  0  0  0  1  0  0  0  0  0  0
  184.0020  171.2020  136.3170 C   0  0  0  0  0  0  0  0  0  0  0  0
  183.5780  170.0210  136.3960 O   0  0  0  0  0  0  0  0  0  0  0  0
  184.9310  176.3270  135.5300 C   0  0  0  0  0  2  0  0  0  0  0  0
  185.6400  177.1460  136.5990 C   0  0  0  0  0  2  0  0  0  0  0  0
  187.1400  177.1440  136.3680 C   0  0  0  0  0  2  0  0  0  0  0  0
  187.8320  176.5340  137.5660 C   0  0  0  0  0  1  0  0  0  0  0  0
  184.1240  178.1740  142.9770 C   0  0  1  0  0  3  0  0  0  0  0  0
  186.4300  177.4060  142.7440 C   0  0  0  0  0  3  0  0  0  0  0  0
  185.5610  178.4060  142.6480 C   0  0  0  0  0  3  0  0  0  0  0  0
  188.7450  177.6590  143.5450 C   0  0  0  0  0  3  0  0  0  0  0  0
  189.7300  177.8240  140.9360 C   0  0  0  0  0  0  0  0  0  0  0  0
  188.3610  177.6490  141.1580 C   0  0  0  0  0  3  0  0  0  0  0  0
  190.1140  177.8320  143.3220 C   0  0  0  0  0  3  0  0  0  0  0  0
  187.8640  177.5630  142.4680 C   0  0  0  0  0  0  0  0  0  0  0  0
  190.2090  177.8970  139.6690 F   0  0  0  0  0  0  0  0  0  0  0  0
  190.6070  177.9130  142.0160 C   0  0  0  0  0  3  0  0  0  0  0  0
  183.7720  178.6760  144.3790 C   0  0  0  0  0  2  0  0  0  0  0  0
  185.5100  177.2460  145.4760 C   0  0  0  0  0  3  0  0  0  0  0  0
  187.0720  178.1800  147.0930 C   0  0  0  0  0  0  0  0  0  0  0  0
  185.4080  179.6000  146.0330 C   0  0  0  0  0  3  0  0  0  0  0  0
  186.4790  179.4400  146.9210 C   0  0  0  0  0  3  0  0  0  0  0  0
  186.5790  177.0850  146.3660 C   0  0  0  0  0  3  0  0  0  0  0  0
  184.9260  178.5050  145.3060 C   0  0  0  0  0  0  0  0  0  0  0  0
  188.1900  178.0060  148.0370 C   0  0  0  0  0  0  0  0  0  0  0  0
  187.9980  178.0920  149.2780 O   0  0  0  0  0  1  0  0  0  0  0  0
  189.4700  177.7360  147.5640 O   0  0  0  0  0  0  0  0  0  0  0  0
  1 14  1  0  0  0  0
  3 19  1  1  0  0  0
  3 10  1  0  0  0  0
  3 16  1  0  0  0  0
  4  6  1  0  0  0  0
  6 13  1  6  0  0  0
  6 11  1  0  0  0  0
  7  6  1  0  0  0  0
  8 15  1  0  0  0  0
 10  5  1  1  0  0  0
 10  7  1  0  0  0  0
 11 17  1  0  0  0  0
 12  1  1  0  0  0  0
 14 15  1  0  0  0  0
 15  2  1  1  0  0  0
 16  9  1  6  0  0  0
 16 18  1  0  0  0  0
 17  8  1  0  0  0  0
 17 36  1  0  0  0  0
 18 12  1  0  0  0  0
 20 25  1  0  0  0  0
 20 23  1  1  0  0  0
 21 32  1  6  0  0  0
 21 19  1  0  0  0  0
 22 21  1  0  0  0  0
 24 22  1  0  0  0  0
 24 20  1  0  0  0  0
 25 21  1  0  0  0  0
 25 27  1  1  0  0  0
 27 26  1  6  0  0  0
 28 27  1  0  0  0  0
 29 30  1  0  0  0  0
 30 31  2  0  0  0  0
 30 28  1  0  0  0  0
 32 33  1  0  0  0  0
 34 33  1  0  0  0  0
 34 35  1  0  0  0  0
 36 38  1  6  0  0  0
 36 46  1  0  0  0  0
 38 37  2  0  0  0  0
 40 41  2  0  0  0  0
 40 45  1  0  0  0  0
 41 43  1  0  0  0  0
 42 39  1  0  0  0  0
 43 37  1  0  0  0  0
 43 39  2  0  0  0  0
 44 40  1  0  0  0  0
 45 42  2  0  0  0  0
 46 52  1  0  0  0  0
 47 51  1  0  0  0  0
 48 53  1  0  0  0  0
 49 50  2  0  0  0  0
 50 48  1  0  0  0  0
 51 48  2  0  0  0  0
 52 47  2  0  0  0  0
 52 49  1  0  0  0  0
 53 54  1  0  0  0  0
 55 53  2  0  0  0  0
M  END
>  <MODEL>
2

>  <REMARK>
 VINA RESULT:      -6.1      1.479      2.998
  Name = 
  13 active torsions:
  status: ('A' for Active; 'I' for Inactive)
    1  A    between atoms: C_2  and  C_44
    2  A    between atoms: C_6  and  C_8
    3  A    between atoms: C_6  and  C_46
    4  A    between atoms: C_7  and  C_8
    5  A    between atoms: C_10  and  C_32
    6  A    between atoms: N_11  and  C_38
    7  A    between atoms: C_12  and  C_14
    8  A    between atoms: C_14  and  C_46
    9  A    between atoms: C_28  and  C_49
   10  A    between atoms: C_33  and  C_49
   11  A    between atoms: C_33  and  C_52
   12  A    between atoms: C_38  and  C_53
   13  A    between atoms: N_45  and  C_49
                            x       y       z     vdW  Elec       q    Type
                         _______ _______ _______ _____ _____    ______ ____

>  <TORSDO>
F 13

$$$$
=
 OpenBabel11052415113D

 55 58  0  0  1  0  0  0  0  0999 V2000
  182.1770  178.9810  143.6930 C   0  0  0  0  0  2  0  0  0  0  0  0
  185.1060  180.2340  145.2900 C   0  0  0  0  0  1  0  0  0  0  0  0
  181.4040  178.9980  139.4740 C   0  0  2  0  0  3  0  0  0  0  0  0
  185.3300  179.6610  138.5020 O   0  0  0  0  0  1  0  0  0  0  0  0
  182.5330  181.0040  138.8380 O   0  0  0  0  0  1  0  0  0  0  0  0
  184.8810  178.9530  139.6220 C   0  0  2  0  0  0  0  0  0  0  0  0
  183.6820  179.5060  140.1310 O   0  0  0  0  0  0  0  0  0  0  0  0
  185.5850  179.6830  142.9300 C   0  0  0  0  0  2  0  0  0  0  0  0
  179.7200  179.8970  140.9070 F   0  0  0  0  0  0  0  0  0  0  0  0
  182.7340  179.6490  139.0990 C   0  0  1  0  0  3  0  0  0  0  0  0
  185.9630  179.0540  140.6930 C   0  0  0  0  0  2  0  0  0  0  0  0
  182.2310  178.2000  142.3890 C   0  0  0  0  0  2  0  0  0  0  0  0
  184.6930  177.4860  139.2500 C   0  0  0  0  0  1  0  0  0  0  0  0
  183.2390  180.0690  143.6860 C   0  0  0  0  0  2  0  0  0  0  0  0
  184.5940  179.5000  144.0730 C   0  0  2  0  0  3  0  0  0  0  0  0
  180.9790  179.3290  140.9130 C   0  0  1  0  0  3  0  0  0  0  0  0
  185.4920  178.5690  141.9940 N   0  0  0  0  0  0  0  0  0  0  0  0
  180.9810  178.2090  141.7600 O   0  0  0  0  0  0  0  0  0  0  0  0
  181.4250  177.5040  139.1510 C   0  0  0  0  0  2  0  0  0  0  0  0
  180.5120  174.8110  137.6250 C   0  0  1  0  0  3  0  0  0  0  0  0
  180.1520  177.0200  138.4340 C   0  0  2  0  0  0  0  0  0  0  0  0
  179.4460  176.1490  139.2950 O   0  0  0  0  0  0  0  0  0  0  0  0
  181.7580  174.4650  138.1480 O   0  0  0  0  0  1  0  0  0  0  0  0
  179.5110  174.8510  138.7470 C   0  0  0  0  0  2  0  0  0  0  0  0
  180.5050  176.2420  137.1640 C   0  0  1  0  0  3  0  0  0  0  0  0
  181.3940  177.1490  135.0000 C   0  0  0  0  0  1  0  0  0  0  0  0
  181.7660  176.6900  136.4020 C   0  0  2  0  0  3  0  0  0  0  0  0
  182.7210  175.5910  136.3120 N   0  0  0  0  0  2  0  0  0  0  0  0
  184.6390  177.1270  135.6470 C   0  0  0  0  0  1  0  0  0  0  0  0
  184.0950  175.7750  135.9610 C   0  0  0  0  0  0  0  0  0  0  0  0
  184.8640  174.7800  135.9340 O   0  0  0  0  0  0  0  0  0  0  0  0
  179.2790  178.2350  138.0900 C   0  0  0  0  0  2  0  0  0  0  0  0
  179.3920  178.6610  136.6330 C   0  0  0  0  0  2  0  0  0  0  0  0
  179.3600  180.1730  136.5140 C   0  0  0  0  0  2  0  0  0  0  0  0
  180.6080  180.6480  135.8040 C   0  0  0  0  0  1  0  0  0  0  0  0
  186.3280  177.4750  142.5200 C   0  0  1  0  0  3  0  0  0  0  0  0
  188.3090  177.0460  141.1570 C   0  0  0  0  0  3  0  0  0  0  0  0
  187.7680  177.6860  142.1890 C   0  0  0  0  0  3  0  0  0  0  0  0
  190.6390  177.5550  141.7700 C   0  0  0  0  0  3  0  0  0  0  0  0
  191.5220  177.1200  139.1560 C   0  0  0  0  0  0  0  0  0  0  0  0
  190.1700  176.9610  139.4750 C   0  0  0  0  0  3  0  0  0  0  0  0
  191.9900  177.7120  141.4510 C   0  0  0  0  0  3  0  0  0  0  0  0
  189.7240  177.1760  140.7880 C   0  0  0  0  0  0  0  0  0  0  0  0
  191.9510  176.9010  137.8880 F   0  0  0  0  0  0  0  0  0  0  0  0
  192.4320  177.4930  140.1440 C   0  0  0  0  0  3  0  0  0  0  0  0
  186.1240  177.1630  144.0040 C   0  0  0  0  0  2  0  0  0  0  0  0
  188.5160  176.4450  144.1770 C   0  0  0  0  0  3  0  0  0  0  0  0
  189.8740  177.0450  146.1060 C   0  0  0  0  0  0  0  0  0  0  0  0
  187.5600  177.7750  145.9600 C   0  0  0  0  0  3  0  0  0  0  0  0
  188.7780  177.7330  146.6490 C   0  0  0  0  0  3  0  0  0  0  0  0
  189.7340  176.4010  144.8670 C   0  0  0  0  0  3  0  0  0  0  0  0
  187.4290  177.1350  144.7210 C   0  0  0  0  0  0  0  0  0  0  0  0
  191.1540  176.9880  146.8350 C   0  0  0  0  0  0  0  0  0  0  0  0
  191.2810  177.5610  147.9480 O   0  0  0  0  0  1  0  0  0  0  0  0
  192.2340  176.2930  146.2990 O   0  0  0  0  0  0  0  0  0  0  0  0
  3 19  1  1  0  0  0
  3 16  1  0  0  0  0
  4  6  1  0  0  0  0
  6 13  1  6  0  0  0
  6  7  1  0  0  0  0
  6 11  1  0  0  0  0
  8 15  1  0  0  0  0
 10  5  1  1  0  0  0
 10  3  1  0  0  0  0
 10  7  1  0  0  0  0
 11 17  1  0  0  0  0
 12  1  1  0  0  0  0
 14  1  1  0  0  0  0
 14 15  1  0  0  0  0
 15  2  1  1  0  0  0
 16  9  1  6  0  0  0
 16 18  1  0  0  0  0
 17 36  1  0  0  0  0
 17  8  1  0  0  0  0
 18 12  1  0  0  0  0
 20 23  1  1  0  0  0
 20 24  1  0  0  0  0
 21 32  1  6  0  0  0
 21 19  1  0  0  0  0
 21 22  1  0  0  0  0
 24 22  1  0  0  0  0
 25 27  1  1  0  0  0
 25 20  1  0  0  0  0
 25 21  1  0  0  0  0
 27 26  1  6  0  0  0
 28 27  1  0  0  0  0
 29 30  1  0  0  0  0
 30 28  1  0  0  0  0
 31 30  2  0  0  0  0
 33 32  1  0  0  0  0
 34 33  1  0  0  0  0
 35 34  1  0  0  0  0
 36 38  1  1  0  0  0
 36 46  1  0  0  0  0
 37 38  2  0  0  0  0
 40 41  2  0  0  0  0
 40 45  1  0  0  0  0
 41 43  1  0  0  0  0
 42 39  1  0  0  0  0
 43 37  1  0  0  0  0
 43 39  2  0  0  0  0
 44 40  1  0  0  0  0
 45 42  2  0  0  0  0
 46 52  1  0  0  0  0
 47 52  2  0  0  0  0
 47 51  1  0  0  0  0
 48 50  1  0  0  0  0
 48 53  1  0  0  0  0
 49 50  2  0  0  0  0
 51 48  2  0  0  0  0
 52 49  1  0  0  0  0
 53 54  1  0  0  0  0
 55 53  2  0  0  0  0
M  END
>  <MODEL>
3

>  <REMARK>
 VINA RESULT:      -4.0      2.120      3.759
  Name = 
  13 active torsions:
  status: ('A' for Active; 'I' for Inactive)
    1  A    between atoms: C_2  and  C_44
    2  A    between atoms: C_6  and  C_8
    3  A    between atoms: C_6  and  C_46
    4  A    between atoms: C_7  and  C_8
    5  A    between atoms: C_10  and  C_32
    6  A    between atoms: N_11  and  C_38
    7  A    between atoms: C_12  and  C_14
    8  A    between atoms: C_14  and  C_46
    9  A    between atoms: C_28  and  C_49
   10  A    between atoms: C_33  and  C_49
   11  A    between atoms: C_33  and  C_52
   12  A    between atoms: C_38  and  C_53
   13  A    between atoms: N_45  and  C_49
                            x       y       z     vdW  Elec       q    Type
                         _______ _______ _______ _____ _____    ______ ____

>  <TORSDO>
F 13

$$$$
=
 OpenBabel11052415113D

 55 58  0  0  1  0  0  0  0  0999 V2000
  187.5170  177.6670  141.8960 C   0  0  0  0  0  2  0  0  0  0  0  0
  190.7930  177.9410  140.5200 C   0  0  0  0  0  1  0  0  0  0  0  0
  183.8700  178.8600  139.9790 C   0  0  2  0  0  3  0  0  0  0  0  0
  185.5850  179.0230  136.2600 O   0  0  0  0  0  1  0  0  0  0  0  0
  184.6450  180.7230  138.7030 O   0  0  0  0  0  1  0  0  0  0  0  0
  185.9630  178.1540  137.2890 C   0  0  2  0  0  0  0  0  0  0  0  0
  185.8320  178.7720  138.5550 O   0  0  0  0  0  0  0  0  0  0  0  0
  189.1050  177.9100  138.7170 C   0  0  0  0  0  2  0  0  0  0  0  0
  184.2690  179.6660  142.1900 F   0  0  0  0  0  0  0  0  0  0  0  0
  184.5460  179.3320  138.6930 C   0  0  1  0  0  3  0  0  0  0  0  0
  187.4290  177.7930  137.0680 C   0  0  0  0  0  2  0  0  0  0  0  0
  186.3190  177.2340  141.0660 C   0  0  0  0  0  2  0  0  0  0  0  0
  185.1260  176.8830  137.2100 C   0  0  0  0  0  1  0  0  0  0  0  0
  188.4530  178.5140  141.0490 C   0  0  0  0  0  2  0  0  0  0  0  0
  189.3510  177.6330  140.1950 C   0  0  2  0  0  3  0  0  0  0  0  0
  184.8230  178.8970  141.1850 C   0  0  1  0  0  3  0  0  0  0  0  0
  188.0010  177.0960  138.2240 N   0  0  0  0  0  0  0  0  0  0  0  0
  185.1260  177.6220  141.6870 O   0  0  0  0  0  0  0  0  0  0  0  0
  183.1820  177.5110  139.7620 C   0  0  0  0  0  2  0  0  0  0  0  0
  180.6510  175.6290  139.0870 C   0  0  1  0  0  3  0  0  0  0  0  0
  181.6720  177.5480  140.0540 C   0  0  2  0  0  0  0  0  0  0  0  0
  181.3900  176.6560  141.1150 O   0  0  0  0  0  0  0  0  0  0  0  0
  181.7290  174.8770  138.6210 O   0  0  0  0  0  1  0  0  0  0  0  0
  180.6420  175.5820  140.5910 C   0  0  0  0  0  2  0  0  0  0  0  0
  180.8700  177.0930  138.8320 C   0  0  1  0  0  3  0  0  0  0  0  0
  181.4420  178.9440  137.2370 C   0  0  0  0  0  1  0  0  0  0  0  0
  181.4550  177.4380  137.4500 C   0  0  2  0  0  3  0  0  0  0  0  0
  180.6770  176.7950  136.3970 N   0  0  0  0  0  2  0  0  0  0  0  0
  182.6890  175.5270  135.4900 C   0  0  0  0  0  1  0  0  0  0  0  0
  181.2400  175.8770  135.4560 C   0  0  0  0  0  0  0  0  0  0  0  0
  180.4970  175.3400  134.5950 O   0  0  0  0  0  0  0  0  0  0  0  0
  181.2730  178.9760  140.4540 C   0  0  0  0  0  2  0  0  0  0  0  0
  180.0030  179.0310  141.2910 C   0  0  0  0  0  2  0  0  0  0  0  0
  180.2430  179.8020  142.5760 C   0  0  0  0  0  2  0  0  0  0  0  0
  181.3260  179.1190  143.3780 C   0  0  0  0  0  1  0  0  0  0  0  0
  188.5470  175.7750  137.8680 C   0  0  1  0  0  3  0  0  0  0  0  0
  187.4140  173.9820  136.6560 C   0  0  0  0  0  3  0  0  0  0  0  0
  187.4630  174.7570  137.7350 C   0  0  0  0  0  3  0  0  0  0  0  0
  186.6220  171.9160  135.5760 C   0  0  0  0  0  3  0  0  0  0  0  0
  184.1160  172.1270  136.7920 C   0  0  0  0  0  0  0  0  0  0  0  0
  185.1010  173.0860  137.0450 C   0  0  0  0  0  3  0  0  0  0  0  0
  185.6380  170.9560  135.3260 C   0  0  0  0  0  3  0  0  0  0  0  0
  186.3620  172.9810  136.4370 C   0  0  0  0  0  0  0  0  0  0  0  0
  182.9020  172.2260  137.3880 F   0  0  0  0  0  0  0  0  0  0  0  0
  184.3850  171.0610  135.9350 C   0  0  0  0  0  3  0  0  0  0  0  0
  189.4860  175.7690  136.6590 C   0  0  0  0  0  2  0  0  0  0  0  0
  191.7730  176.3560  137.4940 C   0  0  0  0  0  3  0  0  0  0  0  0
  193.4840  174.6490  137.7840 C   0  0  0  0  0  0  0  0  0  0  0  0
  191.2680  174.0430  136.9890 C   0  0  0  0  0  3  0  0  0  0  0  0
  192.5700  173.6760  137.3490 C   0  0  0  0  0  3  0  0  0  0  0  0
  193.0760  175.9900  137.8520 C   0  0  0  0  0  3  0  0  0  0  0  0
  190.8660  175.3820  137.0650 C   0  0  0  0  0  0  0  0  0  0  0  0
  194.8590  174.2690  138.1500 C   0  0  0  0  0  0  0  0  0  0  0  0
  195.8440  174.8830  137.6630 O   0  0  0  0  0  0  0  0  0  0  0  0
  195.0820  173.2280  139.0470 O   0  0  0  0  0  1  0  0  0  0  0  0
  3 19  1  6  0  0  0
  3 16  1  0  0  0  0
  4  6  1  0  0  0  0
  6 13  1  6  0  0  0
  6  7  1  0  0  0  0
  7 10  1  0  0  0  0
  8 15  1  0  0  0  0
 10  5  1  1  0  0  0
 10  3  1  0  0  0  0
 11  6  1  0  0  0  0
 11 17  1  0  0  0  0
 12 18  1  0  0  0  0
 12  1  1  0  0  0  0
 14  1  1  0  0  0  0
 15  2  1  1  0  0  0
 15 14  1  0  0  0  0
 16 18  1  0  0  0  0
 16  9  1  1  0  0  0
 17  8  1  0  0  0  0
 20 23  1  1  0  0  0
 20 24  1  0  0  0  0
 21 19  1  6  0  0  0
 21 32  1  0  0  0  0
 21 22  1  0  0  0  0
 24 22  1  0  0  0  0
 25 27  1  6  0  0  0
 25 20  1  0  0  0  0
 25 21  1  0  0  0  0
 27 26  1  6  0  0  0
 28 27  1  0  0  0  0
 30 29  1  0  0  0  0
 30 28  1  0  0  0  0
 31 30  2  0  0  0  0
 32 33  1  0  0  0  0
 33 34  1  0  0  0  0
 34 35  1  0  0  0  0
 36 46  1  6  0  0  0
 36 17  1  0  0  0  0
 37 38  2  0  0  0  0
 38 36  1  0  0  0  0
 39 43  1  0  0  0  0
 40 41  1  0  0  0  0
 40 44  1  0  0  0  0
 42 39  2  0  0  0  0
 42 45  1  0  0  0  0
 43 37  1  0  0  0  0
 43 41  2  0  0  0  0
 45 40  2  0  0  0  0
 46 52  1  0  0  0  0
 47 51  1  0  0  0  0
 48 51  2  0  0  0  0
 48 53  1  0  0  0  0
 49 52  1  0  0  0  0
 49 50  2  0  0  0  0
 50 48  1  0  0  0  0
 52 47  2  0  0  0  0
 53 55  1  0  0  0  0
 54 53  2  0  0  0  0
M  END
>  <MODEL>
4

>  <REMARK>
 VINA RESULT:      -4.0      3.215      8.006
  Name = 
  13 active torsions:
  status: ('A' for Active; 'I' for Inactive)
    1  A    between atoms: C_2  and  C_44
    2  A    between atoms: C_6  and  C_8
    3  A    between atoms: C_6  and  C_46
    4  A    between atoms: C_7  and  C_8
    5  A    between atoms: C_10  and  C_32
    6  A    between atoms: N_11  and  C_38
    7  A    between atoms: C_12  and  C_14
    8  A    between atoms: C_14  and  C_46
    9  A    between atoms: C_28  and  C_49
   10  A    between atoms: C_33  and  C_49
   11  A    between atoms: C_33  and  C_52
   12  A    between atoms: C_38  and  C_53
   13  A    between atoms: N_45  and  C_49
                            x       y       z     vdW  Elec       q    Type
                         _______ _______ _______ _____ _____    ______ ____

>  <TORSDO>
F 13

$$$$
=
 OpenBabel11052415113D

 55 58  0  0  1  0  0  0  0  0999 V2000
  185.3810  177.8990  142.8170 C   0  0  0  0  0  2  0  0  0  0  0  0
  188.7170  178.9220  143.5420 C   0  0  0  0  0  1  0  0  0  0  0  0
  183.2220  178.7180  139.2020 C   0  0  2  0  0  3  0  0  0  0  0  0
  186.6050  179.7070  137.1100 O   0  0  0  0  0  1  0  0  0  0  0  0
  184.1320  180.8510  138.6320 O   0  0  0  0  0  1  0  0  0  0  0  0
  186.5400  178.7750  138.1520 C   0  0  2  0  0  0  0  0  0  0  0  0
  185.6040  179.1720  139.1360 O   0  0  0  0  0  0  0  0  0  0  0  0
  188.3480  178.8650  141.1000 C   0  0  0  0  0  2  0  0  0  0  0  0
  182.1550  179.2530  141.2690 F   0  0  0  0  0  0  0  0  0  0  0  0
  184.3670  179.4790  138.5360 C   0  0  1  0  0  3  0  0  0  0  0  0
  187.9240  178.7040  138.7900 C   0  0  0  0  0  2  0  0  0  0  0  0
  184.9640  177.3930  141.4450 C   0  0  0  0  0  2  0  0  0  0  0  0
  186.1900  177.4050  137.5830 C   0  0  0  0  0  1  0  0  0  0  0  0
  186.4120  179.0060  142.6670 C   0  0  0  0  0  2  0  0  0  0  0  0
  187.7990  178.4240  142.4510 C   0  0  2  0  0  3  0  0  0  0  0  0
  183.3230  178.7430  140.7360 C   0  0  1  0  0  3  0  0  0  0  0  0
  187.9070  177.9550  140.0500 N   0  0  0  0  0  0  0  0  0  0  0  0
  183.5760  177.4790  141.2920 O   0  0  0  0  0  0  0  0  0  0  0  0
  183.0850  177.3180  138.6030 C   0  0  0  0  0  2  0  0  0  0  0  0
  180.6470  175.2480  138.1800 C   0  0  1  0  0  3  0  0  0  0  0  0
  181.9030  177.1910  137.6260 C   0  0  2  0  0  0  0  0  0  0  0  0
  180.7260  177.6340  138.2720 O   0  0  0  0  0  0  0  0  0  0  0  0
  181.2350  174.7970  139.3620 O   0  0  0  0  0  1  0  0  0  0  0  0
  179.8910  176.5160  138.4670 C   0  0  0  0  0  2  0  0  0  0  0  0
  181.6920  175.7320  137.2140 C   0  0  1  0  0  3  0  0  0  0  0  0
  183.7550  175.2260  135.8780 C   0  0  0  0  0  1  0  0  0  0  0  0
  182.9500  174.8490  137.1130 C   0  0  2  0  0  3  0  0  0  0  0  0
  182.5750  173.4420  137.0330 N   0  0  0  0  0  2  0  0  0  0  0  0
  184.9480  172.6400  137.4900 C   0  0  0  0  0  1  0  0  0  0  0  0
  183.5070  172.3720  137.2150 C   0  0  0  0  0  0  0  0  0  0  0  0
  183.1010  171.1830  137.1610 O   0  0  0  0  0  0  0  0  0  0  0  0
  182.1790  178.0590  136.3900 C   0  0  0  0  0  2  0  0  0  0  0  0
  181.0770  179.0720  136.1110 C   0  0  0  0  0  2  0  0  0  0  0  0
  180.4690  178.8370  134.7410 C   0  0  0  0  0  2  0  0  0  0  0  0
  179.4910  177.6870  134.8150 C   0  0  0  0  0  1  0  0  0  0  0  0
  188.8370  176.8110  140.0340 C   0  0  1  0  0  3  0  0  0  0  0  0
  189.7070  175.5360  138.1420 C   0  0  0  0  0  3  0  0  0  0  0  0
  188.6470  175.9750  138.8120 C   0  0  0  0  0  3  0  0  0  0  0  0
  188.3820  174.7030  136.2410 C   0  0  0  0  0  3  0  0  0  0  0  0
  190.5370  173.2160  135.2670 C   0  0  0  0  0  0  0  0  0  0  0  0
  190.6830  173.9860  136.4250 C   0  0  0  0  0  3  0  0  0  0  0  0
  188.2380  173.9350  135.0830 C   0  0  0  0  0  3  0  0  0  0  0  0
  189.6030  174.7370  136.9150 C   0  0  0  0  0  0  0  0  0  0  0  0
  191.5850  172.5000  134.7910 F   0  0  0  0  0  0  0  0  0  0  0  0
  189.3160  173.1920  134.5950 C   0  0  0  0  0  3  0  0  0  0  0  0
  190.3070  177.1720  140.2560 C   0  0  0  0  0  2  0  0  0  0  0  0
  191.6190  177.7830  142.2990 C   0  0  0  0  0  3  0  0  0  0  0  0
  191.4720  176.4550  144.3340 C   0  0  0  0  0  0  0  0  0  0  0  0
  190.1700  175.8450  142.3740 C   0  0  0  0  0  3  0  0  0  0  0  0
  190.5520  175.6060  143.7000 C   0  0  0  0  0  3  0  0  0  0  0  0
  192.0030  177.5430  143.6250 C   0  0  0  0  0  3  0  0  0  0  0  0
  190.6990  176.9360  141.6740 C   0  0  0  0  0  0  0  0  0  0  0  0
  191.8860  176.1990  145.7250 C   0  0  0  0  0  0  0  0  0  0  0  0
  191.8710  177.1250  146.5770 O   0  0  0  0  0  1  0  0  0  0  0  0
  192.2920  174.9250  146.1110 O   0  0  0  0  0  0  0  0  0  0  0  0
  3 19  1  6  0  0  0
  3 16  1  0  0  0  0
  4  6  1  0  0  0  0
  6 13  1  6  0  0  0
  6 11  1  0  0  0  0
  6  7  1  0  0  0  0
  8 15  1  0  0  0  0
 10  5  1  1  0  0  0
 10  7  1  0  0  0  0
 10  3  1  0  0  0  0
 11 17  1  0  0  0  0
 12  1  1  0  0  0  0
 14  1  1  0  0  0  0
 15 14  1  0  0  0  0
 15  2  1  1  0  0  0
 16  9  1  1  0  0  0
 16 18  1  0  0  0  0
 17  8  1  0  0  0  0
 18 12  1  0  0  0  0
 20 24  1  0  0  0  0
 20 23  1  1  0  0  0
 21 32  1  6  0  0  0
 21 22  1  0  0  0  0
 21 19  1  0  0  0  0
 22 24  1  0  0  0  0
 25 27  1  1  0  0  0
 25 21  1  0  0  0  0
 25 20  1  0  0  0  0
 27 26  1  6  0  0  0
 28 27  1  0  0  0  0
 28 30  1  0  0  0  0
 30 29  1  0  0  0  0
 31 30  2  0  0  0  0
 33 32  1  0  0  0  0
 34 35  1  0  0  0  0
 34 33  1  0  0  0  0
 36 38  1  6  0  0  0
 36 17  1  0  0  0  0
 36 46  1  0  0  0  0
 37 38  2  0  0  0  0
 39 43  1  0  0  0  0
 40 41  1  0  0  0  0
 41 43  2  0  0  0  0
 42 39  2  0  0  0  0
 43 37  1  0  0  0  0
 44 40  1  0  0  0  0
 45 42  1  0  0  0  0
 45 40  2  0  0  0  0
 46 52  1  0  0  0  0
 47 51  1  0  0  0  0
 48 53  1  0  0  0  0
 49 50  2  0  0  0  0
 50 48  1  0  0  0  0
 51 48  2  0  0  0  0
 52 47  2  0  0  0  0
 52 49  1  0  0  0  0
 53 55  2  0  0  0  0
 53 54  1  0  0  0  0
M  END
>  <MODEL>
5

>  <REMARK>
 VINA RESULT:      -3.9      2.910      5.586
  Name = 
  13 active torsions:
  status: ('A' for Active; 'I' for Inactive)
    1  A    between atoms: C_2  and  C_44
    2  A    between atoms: C_6  and  C_8
    3  A    between atoms: C_6  and  C_46
    4  A    between atoms: C_7  and  C_8
    5  A    between atoms: C_10  and  C_32
    6  A    between atoms: N_11  and  C_38
    7  A    between atoms: C_12  and  C_14
    8  A    between atoms: C_14  and  C_46
    9  A    between atoms: C_28  and  C_49
   10  A    between atoms: C_33  and  C_49
   11  A    between atoms: C_33  and  C_52
   12  A    between atoms: C_38  and  C_53
   13  A    between atoms: N_45  and  C_49
                            x       y       z     vdW  Elec       q    Type
                         _______ _______ _______ _____ _____    ______ ____

>  <TORSDO>
F 13

$$$$
=
 OpenBabel11052415113D

 55 58  0  0  1  0  0  0  0  0999 V2000
  181.0090  177.6870  142.5960 C   0  0  0  0  0  2  0  0  0  0  0  0
  182.8640  179.3760  145.1260 C   0  0  0  0  0  1  0  0  0  0  0  0
  181.2670  178.4090  138.3750 C   0  0  2  0  0  3  0  0  0  0  0  0
  184.8240  180.4220  138.6830 O   0  0  0  0  0  1  0  0  0  0  0  0
  181.7360  180.7500  138.3670 O   0  0  0  0  0  1  0  0  0  0  0  0
  184.4070  179.3810  139.5200 C   0  0  2  0  0  0  0  0  0  0  0  0
  183.0080  179.4200  139.7280 O   0  0  0  0  0  0  0  0  0  0  0  0
  184.0330  179.5340  142.9560 C   0  0  0  0  0  2  0  0  0  0  0  0
  179.0950  178.4160  139.3640 F   0  0  0  0  0  0  0  0  0  0  0  0
  182.3340  179.4960  138.4930 C   0  0  1  0  0  3  0  0  0  0  0  0
  185.1090  179.5630  140.8620 C   0  0  0  0  0  2  0  0  0  0  0  0
  181.6300  177.2690  141.2720 C   0  0  0  0  0  2  0  0  0  0  0  0
  184.8350  178.0470  138.9180 C   0  0  0  0  0  1  0  0  0  0  0  0
  181.5930  179.0170  143.0430 C   0  0  0  0  0  2  0  0  0  0  0  0
  182.9350  178.8130  143.7270 C   0  0  2  0  0  3  0  0  0  0  0  0
  180.4360  178.2670  139.6600 C   0  0  1  0  0  3  0  0  0  0  0  0
  184.5530  178.6820  141.8940 N   0  0  0  0  0  0  0  0  0  0  0  0
  180.6360  177.0410  140.3140 O   0  0  0  0  0  0  0  0  0  0  0  0
  181.8830  177.1010  137.8770 C   0  0  0  0  0  2  0  0  0  0  0  0
  179.2740  175.5140  136.8380 C   0  0  1  0  0  3  0  0  0  0  0  0
  181.3360  176.6540  136.5100 C   0  0  2  0  0  0  0  0  0  0  0  0
  180.3090  177.5440  136.1170 O   0  0  0  0  0  0  0  0  0  0  0  0
  179.0170  175.6750  138.1990 O   0  0  0  0  0  1  0  0  0  0  0  0
  179.0890  176.8390  136.1500 C   0  0  0  0  0  2  0  0  0  0  0  0
  180.7340  175.2500  136.5970 C   0  0  1  0  0  3  0  0  0  0  0  0
  182.7500  173.8290  137.0550 C   0  0  0  0  0  1  0  0  0  0  0  0
  181.3940  174.2700  137.5850 C   0  0  2  0  0  3  0  0  0  0  0  0
  180.5480  173.0980  137.7770 N   0  0  0  0  0  2  0  0  0  0  0  0
  180.9330  172.2590  135.4050 C   0  0  0  0  0  1  0  0  0  0  0  0
  180.3180  172.1230  136.7570 C   0  0  0  0  0  0  0  0  0  0  0  0
  179.5990  171.1220  137.0080 O   0  0  0  0  0  0  0  0  0  0  0  0
  182.4750  176.6840  135.4810 C   0  0  0  0  0  2  0  0  0  0  0  0
  183.6760  177.5000  135.9380 C   0  0  0  0  0  2  0  0  0  0  0  0
  184.9110  177.1260  135.1400 C   0  0  0  0  0  2  0  0  0  0  0  0
  185.5450  175.8930  135.7430 C   0  0  0  0  0  1  0  0  0  0  0  0
  185.5750  177.8030  142.4900 C   0  0  1  0  0  3  0  0  0  0  0  0
  187.3650  177.2960  140.9070 C   0  0  0  0  0  3  0  0  0  0  0  0
  186.9220  178.0600  141.9010 C   0  0  0  0  0  3  0  0  0  0  0  0
  188.7670  177.7090  138.9260 C   0  0  0  0  0  3  0  0  0  0  0  0
  191.1150  177.5000  140.4270 C   0  0  0  0  0  0  0  0  0  0  0  0
  189.8700  177.3580  141.0480 C   0  0  0  0  0  3  0  0  0  0  0  0
  190.0110  177.8540  138.3060 C   0  0  0  0  0  3  0  0  0  0  0  0
  188.6890  177.4660  140.2970 C   0  0  0  0  0  0  0  0  0  0  0  0
  192.2530  177.4060  141.1570 F   0  0  0  0  0  0  0  0  0  0  0  0
  191.1850  177.7500  139.0570 C   0  0  0  0  0  3  0  0  0  0  0  0
  185.6120  177.8010  144.0190 C   0  0  0  0  0  2  0  0  0  0  0  0
  187.8100  176.6080  143.9040 C   0  0  0  0  0  3  0  0  0  0  0  0
  189.5960  177.1040  145.4820 C   0  0  0  0  0  0  0  0  0  0  0  0
  187.4800  178.2940  145.6100 C   0  0  0  0  0  3  0  0  0  0  0  0
  188.7750  178.0650  146.0920 C   0  0  0  0  0  3  0  0  0  0  0  0
  189.1040  176.3770  144.3870 C   0  0  0  0  0  3  0  0  0  0  0  0
  186.9980  177.5690  144.5130 C   0  0  0  0  0  0  0  0  0  0  0  0
  190.9540  176.8510  145.9950 C   0  0  0  0  0  0  0  0  0  0  0  0
  191.1450  176.0070  146.9080 O   0  0  0  0  0  1  0  0  0  0  0  0
  192.0410  177.5410  145.4670 O   0  0  0  0  0  0  0  0  0  0  0  0
  1 14  1  0  0  0  0
  3 19  1  1  0  0  0
  3 10  1  0  0  0  0
  3 16  1  0  0  0  0
  4  6  1  0  0  0  0
  6 13  1  6  0  0  0
  6  7  1  0  0  0  0
  6 11  1  0  0  0  0
  8 15  1  0  0  0  0
 10  5  1  1  0  0  0
 10  7  1  0  0  0  0
 11 17  1  0  0  0  0
 12  1  1  0  0  0  0
 14 15  1  0  0  0  0
 15  2  1  1  0  0  0
 16  9  1  6  0  0  0
 16 18  1  0  0  0  0
 17 36  1  0  0  0  0
 17  8  1  0  0  0  0
 18 12  1  0  0  0  0
 20 23  1  1  0  0  0
 21 32  1  6  0  0  0
 21 25  1  0  0  0  0
 21 19  1  0  0  0  0
 22 24  1  0  0  0  0
 22 21  1  0  0  0  0
 24 20  1  0  0  0  0
 25 20  1  0  0  0  0
 25 27  1  1  0  0  0
 27 26  1  6  0  0  0
 27 28  1  0  0  0  0
 29 30  1  0  0  0  0
 30 31  2  0  0  0  0
 30 28  1  0  0  0  0
 32 33  1  0  0  0  0
 34 35  1  0  0  0  0
 34 33  1  0  0  0  0
 36 38  1  6  0  0  0
 36 46  1  0  0  0  0
 37 38  2  0  0  0  0
 39 43  1  0  0  0  0
 40 41  1  0  0  0  0
 40 44  1  0  0  0  0
 42 39  2  0  0  0  0
 42 45  1  0  0  0  0
 43 37  1  0  0  0  0
 43 41  2  0  0  0  0
 45 40  2  0  0  0  0
 46 52  1  0  0  0  0
 47 51  2  0  0  0  0
 47 52  1  0  0  0  0
 48 53  1  0  0  0  0
 48 50  2  0  0  0  0
 49 50  1  0  0  0  0
 51 48  1  0  0  0  0
 52 49  2  0  0  0  0
 53 54  1  0  0  0  0
 55 53  2  0  0  0  0
M  END
>  <MODEL>
6

>  <REMARK>
 VINA RESULT:      -3.9      2.354      4.092
  Name = 
  13 active torsions:
  status: ('A' for Active; 'I' for Inactive)
    1  A    between atoms: C_2  and  C_44
    2  A    between atoms: C_6  and  C_8
    3  A    between atoms: C_6  and  C_46
    4  A    between atoms: C_7  and  C_8
    5  A    between atoms: C_10  and  C_32
    6  A    between atoms: N_11  and  C_38
    7  A    between atoms: C_12  and  C_14
    8  A    between atoms: C_14  and  C_46
    9  A    between atoms: C_28  and  C_49
   10  A    between atoms: C_33  and  C_49
   11  A    between atoms: C_33  and  C_52
   12  A    between atoms: C_38  and  C_53
   13  A    between atoms: N_45  and  C_49
                            x       y       z     vdW  Elec       q    Type
                         _______ _______ _______ _____ _____    ______ ____

>  <TORSDO>
F 13

$$$$
=
 OpenBabel11052415113D

 55 58  0  0  1  0  0  0  0  0999 V2000
  183.3560  177.4980  141.5520 C   0  0  0  0  0  2  0  0  0  0  0  0
  185.4820  180.0370  142.8670 C   0  0  0  0  0  1  0  0  0  0  0  0
  182.7970  176.5800  137.3990 C   0  0  2  0  0  3  0  0  0  0  0  0
  186.1680  178.6030  136.2400 O   0  0  0  0  0  1  0  0  0  0  0  0
  183.0570  178.7510  136.4400 O   0  0  0  0  0  1  0  0  0  0  0  0
  185.9970  177.9490  137.4640 C   0  0  2  0  0  0  0  0  0  0  0  0
  184.6590  178.0460  137.9140 O   0  0  0  0  0  0  0  0  0  0  0  0
  186.2280  179.3800  140.6060 C   0  0  0  0  0  2  0  0  0  0  0  0
  180.8430  176.9330  138.7230 F   0  0  0  0  0  0  0  0  0  0  0  0
  183.7720  177.6440  136.8970 C   0  0  1  0  0  3  0  0  0  0  0  0
  186.9090  178.6310  138.4800 C   0  0  0  0  0  2  0  0  0  0  0  0
  183.7650  176.6190  140.3790 C   0  0  0  0  0  2  0  0  0  0  0  0
  186.4230  176.4910  137.3230 C   0  0  0  0  0  1  0  0  0  0  0  0
  183.8960  178.9050  141.3540 C   0  0  0  0  0  2  0  0  0  0  0  0
  185.3510  178.9890  141.7880 C   0  0  2  0  0  3  0  0  0  0  0  0
  182.2230  176.9230  138.7830 C   0  0  1  0  0  3  0  0  0  0  0  0
  186.6220  178.1970  139.8510 N   0  0  0  0  0  0  0  0  0  0  0  0
  182.6400  176.0360  139.7880 O   0  0  0  0  0  0  0  0  0  0  0  0
  183.4240  175.1880  137.3050 C   0  0  0  0  0  2  0  0  0  0  0  0
  180.9590  174.1800  135.4840 C   0  0  1  0  0  3  0  0  0  0  0  0
  183.2700  174.5460  135.9150 C   0  0  2  0  0  0  0  0  0  0  0  0
  182.8620  175.5410  134.9960 O   0  0  0  0  0  0  0  0  0  0  0  0
  180.3190  174.7870  136.5640 O   0  0  0  0  0  1  0  0  0  0  0  0
  181.5400  175.2500  134.6010 C   0  0  0  0  0  2  0  0  0  0  0  0
  182.1960  173.4560  135.9350 C   0  0  1  0  0  3  0  0  0  0  0  0
  182.9970  171.4640  137.2340 C   0  0  0  0  0  1  0  0  0  0  0  0
  182.0460  172.6520  137.2400 C   0  0  2  0  0  3  0  0  0  0  0  0
  180.6770  172.1710  137.3830 N   0  0  0  0  0  2  0  0  0  0  0  0
  180.9160  170.4980  135.4800 C   0  0  0  0  0  1  0  0  0  0  0  0
  180.1180  171.1430  136.5620 C   0  0  0  0  0  0  0  0  0  0  0  0
  178.9370  170.7600  136.7670 O   0  0  0  0  0  0  0  0  0  0  0  0
  184.6210  173.9580  135.4820 C   0  0  0  0  0  2  0  0  0  0  0  0
  185.4930  173.5330  136.6550 C   0  0  0  0  0  2  0  0  0  0  0  0
  186.7660  172.8710  136.1630 C   0  0  0  0  0  2  0  0  0  0  0  0
  187.5010  172.2600  137.3340 C   0  0  0  0  0  1  0  0  0  0  0  0
  187.8040  177.6190  140.5140 C   0  0  1  0  0  3  0  0  0  0  0  0
  189.9310  176.9410  139.5220 C   0  0  0  0  0  3  0  0  0  0  0  0
  188.6100  176.7950  139.5660 C   0  0  0  0  0  3  0  0  0  0  0  0
  190.2220  175.1600  137.8480 C   0  0  0  0  0  3  0  0  0  0  0  0
  192.9490  175.7130  137.5940 C   0  0  0  0  0  0  0  0  0  0  0  0
  192.1590  176.4660  138.4680 C   0  0  0  0  0  3  0  0  0  0  0  0
  191.0110  174.4090  136.9720 C   0  0  0  0  0  3  0  0  0  0  0  0
  190.7880  176.1920  138.5960 C   0  0  0  0  0  0  0  0  0  0  0  0
  194.2700  175.9860  137.4660 F   0  0  0  0  0  0  0  0  0  0  0  0
  192.3750  174.6870  136.8450 C   0  0  0  0  0  3  0  0  0  0  0  0
  188.6710  178.6230  141.2770 C   0  0  0  0  0  2  0  0  0  0  0  0
  187.8780  177.5380  143.3900 C   0  0  0  0  0  3  0  0  0  0  0  0
  189.3380  177.3420  145.3290 C   0  0  0  0  0  0  0  0  0  0  0  0
  190.1440  178.3850  143.2860 C   0  0  0  0  0  3  0  0  0  0  0  0
  190.3620  177.9740  144.6070 C   0  0  0  0  0  3  0  0  0  0  0  0
  188.0950  177.1290  144.7120 C   0  0  0  0  0  3  0  0  0  0  0  0
  188.9040  178.1630  142.6750 C   0  0  0  0  0  0  0  0  0  0  0  0
  189.5590  176.9210  146.7230 C   0  0  0  0  0  0  0  0  0  0  0  0
  190.7230  176.8700  147.1990 O   0  0  0  0  0  0  0  0  0  0  0  0
  188.4790  176.5800  147.5310 O   0  0  0  0  0  1  0  0  0  0  0  0
  3 19  1  1  0  0  0
  3 16  1  0  0  0  0
  4  6  1  0  0  0  0
  6 13  1  6  0  0  0
  6  7  1  0  0  0  0
  6 11  1  0  0  0  0
  8 15  1  0  0  0  0
 10  5  1  1  0  0  0
 10  3  1  0  0  0  0
 10  7  1  0  0  0  0
 11 17  1  0  0  0  0
 12  1  1  0  0  0  0
 14  1  1  0  0  0  0
 14 15  1  0  0  0  0
 15  2  1  1  0  0  0
 16  9  1  6  0  0  0
 16 18  1  0  0  0  0
 17 36  1  0  0  0  0
 17  8  1  0  0  0  0
 18 12  1  0  0  0  0
 20 25  1  0  0  0  0
 20 23  1  1  0  0  0
 21 32  1  6  0  0  0
 21 25  1  0  0  0  0
 21 19  1  0  0  0  0
 22 21  1  0  0  0  0
 24 22  1  0  0  0  0
 24 20  1  0  0  0  0
 25 27  1  1  0  0  0
 27 26  1  6  0  0  0
 27 28  1  0  0  0  0
 29 30  1  0  0  0  0
 30 31  2  0  0  0  0
 30 28  1  0  0  0  0
 32 33  1  0  0  0  0
 34 33  1  0  0  0  0
 34 35  1  0  0  0  0
 36 38  1  6  0  0  0
 36 46  1  0  0  0  0
 37 38  2  0  0  0  0
 39 43  1  0  0  0  0
 40 41  1  0  0  0  0
 41 43  2  0  0  0  0
 42 39  2  0  0  0  0
 43 37  1  0  0  0  0
 44 40  1  0  0  0  0
 45 42  1  0  0  0  0
 45 40  2  0  0  0  0
 46 52  1  0  0  0  0
 47 51  1  0  0  0  0
 48 53  1  0  0  0  0
 49 50  2  0  0  0  0
 50 48  1  0  0  0  0
 51 48  2  0  0  0  0
 52 49  1  0  0  0  0
 52 47  2  0  0  0  0
 53 54  2  0  0  0  0
 53 55  1  0  0  0  0
M  END
>  <MODEL>
7

>  <REMARK>
 VINA RESULT:      -3.4      2.581      4.954
  Name = 
  13 active torsions:
  status: ('A' for Active; 'I' for Inactive)
    1  A    between atoms: C_2  and  C_44
    2  A    between atoms: C_6  and  C_8
    3  A    between atoms: C_6  and  C_46
    4  A    between atoms: C_7  and  C_8
    5  A    between atoms: C_10  and  C_32
    6  A    between atoms: N_11  and  C_38
    7  A    between atoms: C_12  and  C_14
    8  A    between atoms: C_14  and  C_46
    9  A    between atoms: C_28  and  C_49
   10  A    between atoms: C_33  and  C_49
   11  A    between atoms: C_33  and  C_52
   12  A    between atoms: C_38  and  C_53
   13  A    between atoms: N_45  and  C_49
                            x       y       z     vdW  Elec       q    Type
                         _______ _______ _______ _____ _____    ______ ____

>  <TORSDO>
F 13

$$$$
=
 OpenBabel11052415113D

 55 58  0  0  1  0  0  0  0  0999 V2000
  187.2850  177.7100  141.9940 C   0  0  0  0  0  2  0  0  0  0  0  0
  190.6460  178.1660  140.9030 C   0  0  0  0  0  1  0  0  0  0  0  0
  183.7580  178.8760  139.8490 C   0  0  2  0  0  3  0  0  0  0  0  0
  185.7540  179.2920  136.2930 O   0  0  0  0  0  1  0  0  0  0  0  0
  184.5600  180.8290  138.7330 O   0  0  0  0  0  1  0  0  0  0  0  0
  186.0820  178.3840  137.3060 C   0  0  2  0  0  0  0  0  0  0  0  0
  185.8280  178.9300  138.5860 O   0  0  0  0  0  0  0  0  0  0  0  0
  189.1080  178.1720  138.9700 C   0  0  0  0  0  2  0  0  0  0  0  0
  183.9490  179.5800  142.1220 F   0  0  0  0  0  0  0  0  0  0  0  0
  184.5150  179.4380  138.6470 C   0  0  1  0  0  3  0  0  0  0  0  0
  187.5740  178.0840  137.1860 C   0  0  0  0  0  2  0  0  0  0  0  0
  186.1730  177.2800  141.0500 C   0  0  0  0  0  2  0  0  0  0  0  0
  185.3030  177.0900  137.0960 C   0  0  0  0  0  1  0  0  0  0  0  0
  188.2510  178.6310  141.2670 C   0  0  0  0  0  2  0  0  0  0  0  0
  189.2470  177.8270  140.4470 C   0  0  2  0  0  3  0  0  0  0  0  0
  184.6100  178.8830  141.1280 C   0  0  1  0  0  3  0  0  0  0  0  0
  188.0780  177.3480  138.3490 N   0  0  0  0  0  0  0  0  0  0  0  0
  184.9210  177.5940  141.5900 O   0  0  0  0  0  0  0  0  0  0  0  0
  183.1410  177.5180  139.5110 C   0  0  0  0  0  2  0  0  0  0  0  0
  180.4520  179.3020  139.4730 C   0  0  1  0  0  3  0  0  0  0  0  0
  181.9010  177.6240  138.6070 C   0  0  2  0  0  0  0  0  0  0  0  0
  182.0400  178.7570  137.7720 O   0  0  0  0  0  0  0  0  0  0  0  0
  181.1850  179.8680  140.5160 O   0  0  0  0  0  1  0  0  0  0  0  0
  181.0770  179.7080  138.1660 C   0  0  0  0  0  2  0  0  0  0  0  0
  180.6320  177.8100  139.4420 C   0  0  1  0  0  3  0  0  0  0  0  0
  180.2920  175.6360  140.6480 C   0  0  0  0  0  1  0  0  0  0  0  0
  180.5970  177.1170  140.8170 C   0  0  2  0  0  3  0  0  0  0  0  0
  179.5780  177.7250  141.6640 N   0  0  0  0  0  2  0  0  0  0  0  0
  181.2380  178.2540  143.5200 C   0  0  0  0  0  1  0  0  0  0  0  0
  179.8600  178.2800  142.9520 C   0  0  0  0  0  0  0  0  0  0  0  0
  178.9320  178.8150  143.6120 O   0  0  0  0  0  0  0  0  0  0  0  0
  181.7950  176.3540  137.7500 C   0  0  0  0  0  2  0  0  0  0  0  0
  181.3930  176.6350  136.3090 C   0  0  0  0  0  2  0  0  0  0  0  0
  181.7930  175.4820  135.4080 C   0  0  0  0  0  2  0  0  0  0  0  0
  181.6490  174.1810  136.1640 C   0  0  0  0  0  1  0  0  0  0  0  0
  188.7010  176.0660  137.9740 C   0  0  1  0  0  3  0  0  0  0  0  0
  187.6720  174.3010  136.6360 C   0  0  0  0  0  3  0  0  0  0  0  0
  187.6730  175.0040  137.7630 C   0  0  0  0  0  3  0  0  0  0  0  0
  186.8610  172.4590  135.2160 C   0  0  0  0  0  3  0  0  0  0  0  0
  184.5970  172.0990  136.8140 C   0  0  0  0  0  0  0  0  0  0  0  0
  185.5370  173.0810  137.1410 C   0  0  0  0  0  3  0  0  0  0  0  0
  185.9230  171.4760  134.8920 C   0  0  0  0  0  3  0  0  0  0  0  0
  186.6770  173.2630  136.3420 C   0  0  0  0  0  0  0  0  0  0  0  0
  183.5020  171.9200  137.5940 F   0  0  0  0  0  0  0  0  0  0  0  0
  184.7910  171.2950  135.6910 C   0  0  0  0  0  3  0  0  0  0  0  0
  189.6870  176.1460  136.8060 C   0  0  0  0  0  2  0  0  0  0  0  0
  191.9160  176.4940  137.8900 C   0  0  0  0  0  3  0  0  0  0  0  0
  193.5830  174.7210  137.9400 C   0  0  0  0  0  0  0  0  0  0  0  0
  191.4210  174.3430  136.8960 C   0  0  0  0  0  3  0  0  0  0  0  0
  192.6910  173.8790  137.2590 C   0  0  0  0  0  3  0  0  0  0  0  0
  193.1880  176.0310  138.2520 C   0  0  0  0  0  3  0  0  0  0  0  0
  191.0300  175.6500  137.2150 C   0  0  0  0  0  0  0  0  0  0  0  0
  194.9260  174.2400  138.3120 C   0  0  0  0  0  0  0  0  0  0  0  0
  195.9530  174.8680  137.9470 O   0  0  0  0  0  0  0  0  0  0  0  0
  195.0680  173.0870  139.0780 O   0  0  0  0  0  1  0  0  0  0  0  0
  3 19  1  6  0  0  0
  3 16  1  0  0  0  0
  4  6  1  0  0  0  0
  6 13  1  6  0  0  0
  6  7  1  0  0  0  0
  7 10  1  0  0  0  0
  8 15  1  0  0  0  0
 10  5  1  1  0  0  0
 10  3  1  0  0  0  0
 11  6  1  0  0  0  0
 11 17  1  0  0  0  0
 12 18  1  0  0  0  0
 12  1  1  0  0  0  0
 14  1  1  0  0  0  0
 15  2  1  1  0  0  0
 15 14  1  0  0  0  0
 16 18  1  0  0  0  0
 16  9  1  1  0  0  0
 17  8  1  0  0  0  0
 20 23  1  1  0  0  0
 21 32  1  6  0  0  0
 21 25  1  0  0  0  0
 21 19  1  0  0  0  0
 22 24  1  0  0  0  0
 22 21  1  0  0  0  0
 24 20  1  0  0  0  0
 25 20  1  0  0  0  0
 25 27  1  1  0  0  0
 27 26  1  6  0  0  0
 27 28  1  0  0  0  0
 28 30  1  0  0  0  0
 30 29  1  0  0  0  0
 30 31  2  0  0  0  0
 33 32  1  0  0  0  0
 34 35  1  0  0  0  0
 34 33  1  0  0  0  0
 36 46  1  6  0  0  0
 36 17  1  0  0  0  0
 37 38  2  0  0  0  0
 38 36  1  0  0  0  0
 39 43  1  0  0  0  0
 40 41  1  0  0  0  0
 40 44  1  0  0  0  0
 42 39  2  0  0  0  0
 42 45  1  0  0  0  0
 43 37  1  0  0  0  0
 43 41  2  0  0  0  0
 45 40  2  0  0  0  0
 46 52  1  0  0  0  0
 47 51  1  0  0  0  0
 48 51  2  0  0  0  0
 48 53  1  0  0  0  0
 49 52  1  0  0  0  0
 49 50  2  0  0  0  0
 50 48  1  0  0  0  0
 52 47  2  0  0  0  0
 53 55  1  0  0  0  0
 54 53  2  0  0  0  0
M  END
>  <MODEL>
8

>  <REMARK>
 VINA RESULT:      -3.4      3.210      8.103
  Name = 
  13 active torsions:
  status: ('A' for Active; 'I' for Inactive)
    1  A    between atoms: C_2  and  C_44
    2  A    between atoms: C_6  and  C_8
    3  A    between atoms: C_6  and  C_46
    4  A    between atoms: C_7  and  C_8
    5  A    between atoms: C_10  and  C_32
    6  A    between atoms: N_11  and  C_38
    7  A    between atoms: C_12  and  C_14
    8  A    between atoms: C_14  and  C_46
    9  A    between atoms: C_28  and  C_49
   10  A    between atoms: C_33  and  C_49
   11  A    between atoms: C_33  and  C_52
   12  A    between atoms: C_38  and  C_53
   13  A    between atoms: N_45  and  C_49
                            x       y       z     vdW  Elec       q    Type
                         _______ _______ _______ _____ _____    ______ ____

>  <TORSDO>
F 13

$$$$
=
 OpenBabel11052415113D

 55 58  0  0  1  0  0  0  0  0999 V2000
  189.3900  177.0300  140.4890 C   0  0  0  0  0  2  0  0  0  0  0  0
  192.7740  176.7630  139.4020 C   0  0  0  0  0  1  0  0  0  0  0  0
  186.0970  178.4680  138.1460 C   0  0  2  0  0  3  0  0  0  0  0  0
  188.1120  178.0530  134.6010 O   0  0  0  0  0  1  0  0  0  0  0  0
  187.2090  180.0880  136.7890 O   0  0  0  0  0  1  0  0  0  0  0  0
  188.2900  177.2500  135.7320 C   0  0  2  0  0  0  0  0  0  0  0  0
  188.1390  178.0000  136.9220 O   0  0  0  0  0  0  0  0  0  0  0  0
  191.2470  176.7630  137.4610 C   0  0  0  0  0  2  0  0  0  0  0  0
  186.4190  179.4330  140.3050 F   0  0  0  0  0  0  0  0  0  0  0  0
  186.9310  178.7250  136.8920 C   0  0  1  0  0  3  0  0  0  0  0  0
  189.7080  176.6910  135.6800 C   0  0  0  0  0  2  0  0  0  0  0  0
  188.2160  176.6680  139.5920 C   0  0  0  0  0  2  0  0  0  0  0  0
  187.3020  176.0890  135.6870 C   0  0  0  0  0  1  0  0  0  0  0  0
  190.4940  177.6680  139.6600 C   0  0  0  0  0  2  0  0  0  0  0  0
  191.3350  176.6050  138.9730 C   0  0  2  0  0  3  0  0  0  0  0  0
  186.9460  178.5060  139.4260 C   0  0  1  0  0  3  0  0  0  0  0  0
  190.0890  176.0460  136.9410 N   0  0  0  0  0  0  0  0  0  0  0  0
  187.0390  177.2590  140.0640 O   0  0  0  0  0  0  0  0  0  0  0  0
  185.2580  177.1990  137.9850 C   0  0  0  0  0  2  0  0  0  0  0  0
  182.3420  178.0920  139.0380 C   0  0  1  0  0  3  0  0  0  0  0  0
  183.8850  177.4590  137.3410 C   0  0  2  0  0  0  0  0  0  0  0  0
  183.6940  178.8550  137.2200 O   0  0  0  0  0  0  0  0  0  0  0  0
  183.1330  178.2080  140.1800 O   0  0  0  0  0  1  0  0  0  0  0  0
  182.6650  179.2300  138.1080 C   0  0  0  0  0  2  0  0  0  0  0  0
  182.7590  176.9040  138.2170 C   0  0  1  0  0  3  0  0  0  0  0  0
  183.4080  174.4840  138.0770 C   0  0  0  0  0  1  0  0  0  0  0  0
  183.0690  175.6280  139.0220 C   0  0  2  0  0  3  0  0  0  0  0  0
  181.9210  175.2540  139.8390 N   0  0  0  0  0  2  0  0  0  0  0  0
  180.4180  174.9030  137.8140 C   0  0  0  0  0  1  0  0  0  0  0  0
  180.6500  174.8980  139.2870 C   0  0  0  0  0  0  0  0  0  0  0  0
  179.7150  174.5570  140.0560 O   0  0  0  0  0  0  0  0  0  0  0  0
  183.8510  176.8050  135.9520 C   0  0  0  0  0  2  0  0  0  0  0  0
  183.0520  177.6050  134.9320 C   0  0  0  0  0  2  0  0  0  0  0  0
  181.6270  177.0920  134.8490 C   0  0  0  0  0  2  0  0  0  0  0  0
  180.6670  178.2490  135.0100 C   0  0  0  0  0  1  0  0  0  0  0  0
  190.4850  174.6390  136.7530 C   0  0  1  0  0  3  0  0  0  0  0  0
  189.0710  172.9400  135.7130 C   0  0  0  0  0  3  0  0  0  0  0  0
  189.2960  173.7360  136.7530 C   0  0  0  0  0  3  0  0  0  0  0  0
  188.0730  170.7900  135.0450 C   0  0  0  0  0  3  0  0  0  0  0  0
  185.5490  171.5720  135.9530 C   0  0  0  0  0  0  0  0  0  0  0  0
  186.6380  172.4390  136.0780 C   0  0  0  0  0  3  0  0  0  0  0  0
  186.9850  169.9230  134.9230 C   0  0  0  0  0  3  0  0  0  0  0  0
  187.9080  172.0480  135.6250 C   0  0  0  0  0  0  0  0  0  0  0  0
  184.3260  171.9480  136.4010 F   0  0  0  0  0  0  0  0  0  0  0  0
  185.7220  170.3130  135.3780 C   0  0  0  0  0  3  0  0  0  0  0  0
  191.3970  174.3800  135.5520 C   0  0  0  0  0  2  0  0  0  0  0  0
  193.6980  175.2890  135.1660 C   0  0  0  0  0  3  0  0  0  0  0  0
  195.5420  174.7190  136.6500 C   0  0  0  0  0  0  0  0  0  0  0  0
  193.3150  173.8340  137.0640 C   0  0  0  0  0  3  0  0  0  0  0  0
  194.6650  173.9390  137.4210 C   0  0  0  0  0  3  0  0  0  0  0  0
  195.0490  175.3910  135.5210 C   0  0  0  0  0  3  0  0  0  0  0  0
  192.8290  174.5130  135.9390 C   0  0  0  0  0  0  0  0  0  0  0  0
  196.9660  174.8200  137.0150 C   0  0  0  0  0  0  0  0  0  0  0  0
  197.5350  173.8840  137.6350 O   0  0  0  0  0  1  0  0  0  0  0  0
  197.6980  175.9520  136.6700 O   0  0  0  0  0  0  0  0  0  0  0  0
  3 19  1  6  0  0  0
  3 16  1  0  0  0  0
  4  6  1  0  0  0  0
  6 13  1  6  0  0  0
  6  7  1  0  0  0  0
  8 15  1  0  0  0  0
 10  5  1  1  0  0  0
 10  7  1  0  0  0  0
 10  3  1  0  0  0  0
 11  6  1  0  0  0  0
 11 17  1  0  0  0  0
 12 18  1  0  0  0  0
 12  1  1  0  0  0  0
 14  1  1  0  0  0  0
 15  2  1  1  0  0  0
 15 14  1  0  0  0  0
 16 18  1  0  0  0  0
 16  9  1  1  0  0  0
 17  8  1  0  0  0  0
 20 23  1  1  0  0  0
 21 32  1  6  0  0  0
 21 19  1  0  0  0  0
 21 25  1  0  0  0  0
 22 21  1  0  0  0  0
 22 24  1  0  0  0  0
 24 20  1  0  0  0  0
 25 27  1  1  0  0  0
 25 20  1  0  0  0  0
 27 26  1  6  0  0  0
 27 28  1  0  0  0  0
 29 30  1  0  0  0  0
 30 28  1  0  0  0  0
 30 31  2  0  0  0  0
 33 32  1  0  0  0  0
 34 33  1  0  0  0  0
 34 35  1  0  0  0  0
 36 46  1  6  0  0  0
 36 17  1  0  0  0  0
 37 38  2  0  0  0  0
 38 36  1  0  0  0  0
 39 43  1  0  0  0  0
 40 41  1  0  0  0  0
 40 44  1  0  0  0  0
 42 39  2  0  0  0  0
 42 45  1  0  0  0  0
 43 37  1  0  0  0  0
 43 41  2  0  0  0  0
 45 40  2  0  0  0  0
 46 52  1  0  0  0  0
 47 51  2  0  0  0  0
 47 52  1  0  0  0  0
 48 53  1  0  0  0  0
 48 50  2  0  0  0  0
 49 50  1  0  0  0  0
 51 48  1  0  0  0  0
 52 49  2  0  0  0  0
 53 54  1  0  0  0  0
 55 53  2  0  0  0  0
M  END
>  <MODEL>
9

>  <REMARK>
 VINA RESULT:      -3.3      4.023      9.087
  Name = 
  13 active torsions:
  status: ('A' for Active; 'I' for Inactive)
    1  A    between atoms: C_2  and  C_44
    2  A    between atoms: C_6  and  C_8
    3  A    between atoms: C_6  and  C_46
    4  A    between atoms: C_7  and  C_8
    5  A    between atoms: C_10  and  C_32
    6  A    between atoms: N_11  and  C_38
    7  A    between atoms: C_12  and  C_14
    8  A    between atoms: C_14  and  C_46
    9  A    between atoms: C_28  and  C_49
   10  A    between atoms: C_33  and  C_49
   11  A    between atoms: C_33  and  C_52
   12  A    between atoms: C_38  and  C_53
   13  A    between atoms: N_45  and  C_49
                            x       y       z     vdW  Elec       q    Type
                         _______ _______ _______ _____ _____    ______ ____

>  <TORSDO>
F 13

$$$$
