=
 OpenBabel11052413153D

 31 34  0  0  1  0  0  0  0  0999 V2000
  185.2330  178.2920  146.1350 C   0  0  0  0  0  0  0  0  0  0  0  0
  188.3390  177.5910  144.0490 C   0  0  2  0  0  3  0  0  0  0  0  0
  189.2950  176.7450  144.8920 C   0  0  1  0  0  3  0  0  0  0  0  0
  186.9430  177.9020  144.4670 C   0  0  0  0  0  0  0  0  0  0  0  0
  184.3540  178.7200  145.1340 C   0  0  0  0  0  3  0  0  0  0  0  0
  187.8820  177.9480  141.7260 N   0  0  0  0  0  0  0  0  0  0  0  0
  184.8300  178.2750  147.4270 F   0  0  0  0  0  0  0  0  0  0  0  0
  189.6720  176.4070  142.6200 C   0  0  0  0  0  0  0  0  0  0  0  0
  186.4690  178.3130  141.9850 C   0  0  0  0  0  2  0  0  0  0  0  0
  188.2840  176.9250  142.6960 C   0  0  1  0  0  3  0  0  0  0  0  0
  186.5300  177.8920  145.8030 C   0  0  0  0  0  3  0  0  0  0  0  0
  186.0650  178.3520  143.4570 C   0  0  0  0  0  0  0  0  0  0  0  0
  184.7680  178.7450  143.7990 C   0  0  0  0  0  3  0  0  0  0  0  0
  190.2540  176.0470  141.5640 O   0  0  0  0  0  0  0  0  0  0  0  0
  190.2430  176.2360  143.9090 N   0  0  0  0  0  2  0  0  0  0  0  0
  190.0470  177.6100  145.8950 C   0  0  0  0  0  2  0  0  0  0  0  0
  190.2240  176.9060  147.2310 C   0  0  0  0  0  2  0  0  0  0  0  0
  191.6370  176.4690  147.4220 C   0  0  0  0  0  0  0  0  0  0  0  0
  192.4210  177.0660  148.4000 O   0  0  0  0  0  1  0  0  0  0  0  0
  192.1100  175.5400  146.7180 O   0  0  0  0  0  0  0  0  0  0  0  0
  187.8930  177.3550  140.3950 C   0  0  0  0  0  2  0  0  0  0  0  0
  189.0920  179.2780  139.7560 O   0  0  0  0  0  0  0  0  0  0  0  0
  188.3800  178.3530  139.3970 C   0  0  0  0  0  0  0  0  0  0  0  0
  189.3280  175.7560  137.4010 C   0  0  2  0  0  3  0  0  0  0  0  0
  186.9470  177.0820  137.7660 C   0  0  0  0  0  2  0  0  0  0  0  0
  189.5910  179.3230  136.4600 F   0  0  0  0  0  0  0  0  0  0  0  0
  190.1310  174.5980  136.8470 C   0  0  0  0  0  1  0  0  0  0  0  0
  187.5670  175.5220  137.0060 S   0  0  0  0  0  0  0  0  0  0  0  0
  189.1550  178.1730  137.0350 C   0  0  0  0  0  0  0  0  0  0  0  0
  187.9680  178.2160  137.9620 C   0  0  2  0  0  3  0  0  0  0  0  0
  189.7980  177.0300  136.7840 C   0  0  0  0  0  3  0  0  0  0  0  0
  1  7  1  0  0  0  0
  2  4  1  1  0  0  0
  2  3  1  0  0  0  0
  3 16  1  1  0  0  0
  4 11  2  0  0  0  0
  5  1  2  0  0  0  0
  6  9  1  0  0  0  0
  6 10  1  0  0  0  0
  8 15  1  0  0  0  0
  9 12  1  0  0  0  0
 10  8  1  6  0  0  0
 10  2  1  0  0  0  0
 11  1  1  0  0  0  0
 12 13  2  0  0  0  0
 12  4  1  0  0  0  0
 13  5  1  0  0  0  0
 14  8  2  0  0  0  0
 15  3  1  0  0  0  0
 16 17  1  0  0  0  0
 17 18  1  0  0  0  0
 18 19  1  0  0  0  0
 20 18  2  0  0  0  0
 21  6  1  0  0  0  0
 23 22  2  0  0  0  0
 23 21  1  0  0  0  0
 24 27  1  6  0  0  0
 25 30  1  0  0  0  0
 26 29  1  0  0  0  0
 28 24  1  0  0  0  0
 28 25  1  0  0  0  0
 29 30  1  0  0  0  0
 30 23  1  1  0  0  0
 31 29  2  0  0  0  0
 31 24  1  0  0  0  0
M  END
>  <MODEL>
1

>  <REMARK>
 VINA RESULT:      -8.9      0.000      0.000
  Name = 
  6 active torsions:
  status: ('A' for Active; 'I' for Inactive)
    1  A    between atoms: C_5  and  C_14
    2  A    between atoms: C_9  and  C_22
    3  A    between atoms: C_9  and  C_23
    4  A    between atoms: C_10  and  C_14
    5  A    between atoms: C_10  and  C_18
    6  A    between atoms: N_15  and  C_23
                            x       y       z     vdW  Elec       q    Type
                         _______ _______ _______ _____ _____    ______ ____

>  <TORSDO>
F 6

$$$$
=
 OpenBabel11052413153D

 31 34  0  0  1  0  0  0  0  0999 V2000
  184.2210  178.7960  145.3500 C   0  0  0  0  0  0  0  0  0  0  0  0
  185.9100  178.1630  141.9990 C   0  0  2  0  0  3  0  0  0  0  0  0
  185.1760  178.9810  140.9350 C   0  0  1  0  0  3  0  0  0  0  0  0
  185.6470  178.3020  143.4580 C   0  0  0  0  0  0  0  0  0  0  0  0
  185.2020  178.3040  146.2180 C   0  0  0  0  0  3  0  0  0  0  0  0
  188.1050  177.2650  142.3260 N   0  0  0  0  0  0  0  0  0  0  0  0
  183.0540  179.2710  145.8460 F   0  0  0  0  0  0  0  0  0  0  0  0
  187.3710  178.5620  140.2880 C   0  0  0  0  0  0  0  0  0  0  0  0
  187.9830  177.3120  143.8030 C   0  0  0  0  0  2  0  0  0  0  0  0
  187.3810  178.4080  141.7630 C   0  0  1  0  0  3  0  0  0  0  0  0
  184.4390  178.7860  143.9700 C   0  0  0  0  0  3  0  0  0  0  0  0
  186.6310  177.7870  144.3300 C   0  0  0  0  0  0  0  0  0  0  0  0
  186.4050  177.8060  145.7090 C   0  0  0  0  0  3  0  0  0  0  0  0
  188.3810  178.4650  139.5430 O   0  0  0  0  0  0  0  0  0  0  0  0
  186.0970  178.9640  139.8060 N   0  0  0  0  0  2  0  0  0  0  0  0
  183.8800  178.2960  140.5190 C   0  0  0  0  0  2  0  0  0  0  0  0
  183.5490  178.5460  139.0570 C   0  0  0  0  0  2  0  0  0  0  0  0
  182.7220  179.7760  138.8990 C   0  0  0  0  0  0  0  0  0  0  0  0
  181.3390  179.6980  138.9830 O   0  0  0  0  0  1  0  0  0  0  0  0
  183.2780  180.8900  138.7190 O   0  0  0  0  0  0  0  0  0  0  0  0
  189.5260  177.4340  142.0490 C   0  0  0  0  0  2  0  0  0  0  0  0
  189.9810  175.2650  142.8430 O   0  0  0  0  0  0  0  0  0  0  0  0
  190.3190  176.4380  142.8300 C   0  0  0  0  0  0  0  0  0  0  0  0
  190.2550  177.1200  146.1710 C   0  0  2  0  0  3  0  0  0  0  0  0
  192.0440  175.8050  144.5480 C   0  0  0  0  0  2  0  0  0  0  0  0
  191.6800  179.3680  143.6020 F   0  0  0  0  0  0  0  0  0  0  0  0
  189.7390  177.5020  147.5420 C   0  0  0  0  0  1  0  0  0  0  0  0
  191.6810  176.0020  146.3440 S   0  0  0  0  0  0  0  0  0  0  0  0
  191.2870  178.2420  144.2510 C   0  0  0  0  0  0  0  0  0  0  0  0
  191.5150  176.9010  143.6060 C   0  0  2  0  0  3  0  0  0  0  0  0
  190.6860  178.3470  145.4390 C   0  0  0  0  0  3  0  0  0  0  0  0
  1  7  1  0  0  0  0
  1  5  1  0  0  0  0
  2  4  1  1  0  0  0
  3 16  1  6  0  0  0
  3  2  1  0  0  0  0
  4 11  1  0  0  0  0
  4 12  2  0  0  0  0
  6  9  1  0  0  0  0
  9 12  1  0  0  0  0
 10  8  1  6  0  0  0
 10  2  1  0  0  0  0
 10  6  1  0  0  0  0
 11  1  2  0  0  0  0
 12 13  1  0  0  0  0
 13  5  2  0  0  0  0
 14  8  2  0  0  0  0
 15  8  1  0  0  0  0
 15  3  1  0  0  0  0
 17 16  1  0  0  0  0
 18 19  1  0  0  0  0
 18 17  1  0  0  0  0
 20 18  2  0  0  0  0
 21  6  1  0  0  0  0
 21 23  1  0  0  0  0
 23 22  2  0  0  0  0
 24 28  1  0  0  0  0
 24 27  1  1  0  0  0
 25 28  1  0  0  0  0
 26 29  1  0  0  0  0
 29 31  2  0  0  0  0
 30 23  1  1  0  0  0
 30 29  1  0  0  0  0
 30 25  1  0  0  0  0
 31 24  1  0  0  0  0
M  END
>  <MODEL>
2

>  <REMARK>
 VINA RESULT:      -8.9      3.394      7.096
  Name = 
  6 active torsions:
  status: ('A' for Active; 'I' for Inactive)
    1  A    between atoms: C_5  and  C_14
    2  A    between atoms: C_9  and  C_22
    3  A    between atoms: C_9  and  C_23
    4  A    between atoms: C_10  and  C_14
    5  A    between atoms: C_10  and  C_18
    6  A    between atoms: N_15  and  C_23
                            x       y       z     vdW  Elec       q    Type
                         _______ _______ _______ _____ _____    ______ ____

>  <TORSDO>
F 6

$$$$
=
 OpenBabel11052413153D

 31 34  0  0  1  0  0  0  0  0999 V2000
  185.3700  178.3200  145.8750 C   0  0  0  0  0  0  0  0  0  0  0  0
  188.5010  177.5930  143.8360 C   0  0  2  0  0  3  0  0  0  0  0  0
  189.4340  176.7320  144.6900 C   0  0  1  0  0  3  0  0  0  0  0  0
  187.1030  177.9190  144.2330 C   0  0  0  0  0  0  0  0  0  0  0  0
  184.5120  178.7630  144.8620 C   0  0  0  0  0  3  0  0  0  0  0  0
  188.0870  177.9670  141.5080 N   0  0  0  0  0  0  0  0  0  0  0  0
  184.9460  178.3010  147.1600 F   0  0  0  0  0  0  0  0  0  0  0  0
  189.8430  176.4010  142.4230 C   0  0  0  0  0  0  0  0  0  0  0  0
  186.6730  178.3470  141.7460 C   0  0  0  0  0  2  0  0  0  0  0  0
  188.4610  176.9340  142.4790 C   0  0  1  0  0  3  0  0  0  0  0  0
  186.6680  177.9070  145.5620 C   0  0  0  0  0  3  0  0  0  0  0  0
  186.2460  178.3830  143.2110 C   0  0  0  0  0  0  0  0  0  0  0  0
  184.9490  178.7900  143.5340 C   0  0  0  0  0  3  0  0  0  0  0  0
  190.4390  176.0400  141.3740 O   0  0  0  0  0  0  0  0  0  0  0  0
  190.3920  176.2170  143.7200 N   0  0  0  0  0  2  0  0  0  0  0  0
  190.1790  177.5840  145.7100 C   0  0  0  0  0  2  0  0  0  0  0  0
  190.2740  176.8960  147.0630 C   0  0  0  0  0  2  0  0  0  0  0  0
  191.6730  176.4650  147.3450 C   0  0  0  0  0  0  0  0  0  0  0  0
  192.3500  176.9820  148.4410 O   0  0  0  0  0  1  0  0  0  0  0  0
  192.2300  175.6090  146.6100 O   0  0  0  0  0  0  0  0  0  0  0  0
  188.1120  177.3810  140.1740 C   0  0  0  0  0  2  0  0  0  0  0  0
  188.9590  179.4720  139.5030 O   0  0  0  0  0  0  0  0  0  0  0  0
  188.8330  178.2880  139.2330 C   0  0  0  0  0  0  0  0  0  0  0  0
  186.9070  176.7970  136.8460 C   0  0  2  0  0  3  0  0  0  0  0  0
  188.9870  178.5930  136.7400 C   0  0  0  0  0  2  0  0  0  0  0  0
  190.0270  175.3590  138.2180 F   0  0  0  0  0  0  0  0  0  0  0  0
  185.7610  176.0530  136.1930 C   0  0  0  0  0  1  0  0  0  0  0  0
  187.6640  177.9320  135.6410 S   0  0  0  0  0  0  0  0  0  0  0  0
  189.0960  176.2590  137.8090 C   0  0  0  0  0  0  0  0  0  0  0  0
  189.3800  177.7310  137.9530 C   0  0  2  0  0  3  0  0  0  0  0  0
  187.9380  175.8220  137.3080 C   0  0  0  0  0  3  0  0  0  0  0  0
  1  7  1  0  0  0  0
  2  4  1  1  0  0  0
  2  3  1  0  0  0  0
  3 16  1  1  0  0  0
  4 11  2  0  0  0  0
  5  1  2  0  0  0  0
  6  9  1  0  0  0  0
  6 10  1  0  0  0  0
  8 15  1  0  0  0  0
  9 12  1  0  0  0  0
 10  8  1  6  0  0  0
 10  2  1  0  0  0  0
 11  1  1  0  0  0  0
 12 13  2  0  0  0  0
 12  4  1  0  0  0  0
 13  5  1  0  0  0  0
 14  8  2  0  0  0  0
 15  3  1  0  0  0  0
 16 17  1  0  0  0  0
 17 18  1  0  0  0  0
 18 19  1  0  0  0  0
 20 18  2  0  0  0  0
 21  6  1  0  0  0  0
 23 22  2  0  0  0  0
 23 21  1  0  0  0  0
 24 27  1  6  0  0  0
 24 31  1  0  0  0  0
 25 30  1  0  0  0  0
 28 25  1  0  0  0  0
 28 24  1  0  0  0  0
 29 30  1  0  0  0  0
 29 26  1  0  0  0  0
 30 23  1  1  0  0  0
 31 29  2  0  0  0  0
M  END
>  <MODEL>
3

>  <REMARK>
 VINA RESULT:      -8.8      1.125      1.572
  Name = 
  6 active torsions:
  status: ('A' for Active; 'I' for Inactive)
    1  A    between atoms: C_5  and  C_14
    2  A    between atoms: C_9  and  C_22
    3  A    between atoms: C_9  and  C_23
    4  A    between atoms: C_10  and  C_14
    5  A    between atoms: C_10  and  C_18
    6  A    between atoms: N_15  and  C_23
                            x       y       z     vdW  Elec       q    Type
                         _______ _______ _______ _____ _____    ______ ____

>  <TORSDO>
F 6

$$$$
=
 OpenBabel11052413153D

 31 34  0  0  1  0  0  0  0  0999 V2000
  184.4610  178.5700  144.3900 C   0  0  0  0  0  0  0  0  0  0  0  0
  188.0600  177.7160  143.4940 C   0  0  2  0  0  3  0  0  0  0  0  0
  188.6600  176.9160  144.6520 C   0  0  1  0  0  3  0  0  0  0  0  0
  186.6140  178.0640  143.4080 C   0  0  0  0  0  0  0  0  0  0  0  0
  183.9740  178.9430  143.1320 C   0  0  0  0  0  3  0  0  0  0  0  0
  188.4070  177.9330  141.1350 N   0  0  0  0  0  0  0  0  0  0  0  0
  183.6530  178.6360  145.4750 F   0  0  0  0  0  0  0  0  0  0  0  0
  189.7560  176.4350  142.6560 C   0  0  0  0  0  0  0  0  0  0  0  0
  186.9980  178.3260  140.8900 C   0  0  0  0  0  2  0  0  0  0  0  0
  188.4370  176.9680  142.2380 C   0  0  1  0  0  3  0  0  0  0  0  0
  185.7830  178.1400  144.5300 C   0  0  0  0  0  3  0  0  0  0  0  0
  186.1320  178.4580  142.1410 C   0  0  0  0  0  0  0  0  0  0  0  0
  184.8070  178.8830  142.0110 C   0  0  0  0  0  3  0  0  0  0  0  0
  190.6440  176.0060  141.8740 O   0  0  0  0  0  0  0  0  0  0  0  0
  189.8650  176.3390  144.0690 N   0  0  0  0  0  2  0  0  0  0  0  0
  189.0620  177.8340  145.7980 C   0  0  0  0  0  2  0  0  0  0  0  0
  188.9120  177.1550  147.1500 C   0  0  0  0  0  2  0  0  0  0  0  0
  187.9830  177.9190  148.0310 C   0  0  0  0  0  0  0  0  0  0  0  0
  186.8260  178.4750  147.5030 O   0  0  0  0  0  0  0  0  0  0  0  0
  188.2310  178.0350  149.2590 O   0  0  0  0  0  1  0  0  0  0  0  0
  188.8400  177.2600  139.9180 C   0  0  0  0  0  2  0  0  0  0  0  0
  188.9930  179.2590  138.6840 O   0  0  0  0  0  0  0  0  0  0  0  0
  188.5550  178.1200  138.7310 C   0  0  0  0  0  0  0  0  0  0  0  0
  189.8380  176.5530  135.9870 C   0  0  2  0  0  3  0  0  0  0  0  0
  187.6860  176.0370  137.6190 C   0  0  0  0  0  2  0  0  0  0  0  0
  187.3430  179.2810  135.8650 F   0  0  0  0  0  0  0  0  0  0  0  0
  190.8060  176.1440  134.8970 C   0  0  0  0  0  1  0  0  0  0  0  0
  188.6930  175.1820  136.3340 S   0  0  0  0  0  0  0  0  0  0  0  0
  188.0530  178.2060  136.2910 C   0  0  0  0  0  0  0  0  0  0  0  0
  187.7130  177.5750  137.6160 C   0  0  2  0  0  3  0  0  0  0  0  0
  189.0520  177.7400  135.5380 C   0  0  0  0  0  3  0  0  0  0  0  0
  1 11  1  0  0  0  0
  1  7  1  0  0  0  0
  2  4  1  1  0  0  0
  2  3  1  0  0  0  0
  3 16  1  1  0  0  0
  4 11  2  0  0  0  0
  5  1  2  0  0  0  0
  6 10  1  0  0  0  0
  8 15  1  0  0  0  0
  9  6  1  0  0  0  0
  9 12  1  0  0  0  0
 10  8  1  1  0  0  0
 10  2  1  0  0  0  0
 12  4  1  0  0  0  0
 13 12  2  0  0  0  0
 13  5  1  0  0  0  0
 14  8  2  0  0  0  0
 15  3  1  0  0  0  0
 16 17  1  0  0  0  0
 17 18  1  0  0  0  0
 18 20  1  0  0  0  0
 19 18  2  0  0  0  0
 21  6  1  0  0  0  0
 22 23  2  0  0  0  0
 23 21  1  0  0  0  0
 24 27  1  6  0  0  0
 24 28  1  0  0  0  0
 26 29  1  0  0  0  0
 28 25  1  0  0  0  0
 29 30  1  0  0  0  0
 30 25  1  0  0  0  0
 30 23  1  1  0  0  0
 31 24  1  0  0  0  0
 31 29  2  0  0  0  0
M  END
>  <MODEL>
4

>  <REMARK>
 VINA RESULT:      -8.7      1.806      2.064
  Name = 
  6 active torsions:
  status: ('A' for Active; 'I' for Inactive)
    1  A    between atoms: C_5  and  C_14
    2  A    between atoms: C_9  and  C_22
    3  A    between atoms: C_9  and  C_23
    4  A    between atoms: C_10  and  C_14
    5  A    between atoms: C_10  and  C_18
    6  A    between atoms: N_15  and  C_23
                            x       y       z     vdW  Elec       q    Type
                         _______ _______ _______ _____ _____    ______ ____

>  <TORSDO>
F 6

$$$$
=
 OpenBabel11052413153D

 31 34  0  0  1  0  0  0  0  0999 V2000
  190.4460  177.0930  146.1610 C   0  0  0  0  0  0  0  0  0  0  0  0
  188.1440  177.5080  143.1590 C   0  0  2  0  0  3  0  0  0  0  0  0
  186.8930  178.2580  143.6200 C   0  0  1  0  0  3  0  0  0  0  0  0
  189.3480  177.3270  144.0170 C   0  0  0  0  0  0  0  0  0  0  0  0
  191.6390  176.7520  145.5130 C   0  0  0  0  0  3  0  0  0  0  0  0
  189.3650  177.2040  141.1220 N   0  0  0  0  0  0  0  0  0  0  0  0
  190.4010  177.1420  147.5130 F   0  0  0  0  0  0  0  0  0  0  0  0
  187.2520  178.5680  141.3420 C   0  0  0  0  0  0  0  0  0  0  0  0
  190.6430  176.9710  141.8370 C   0  0  0  0  0  2  0  0  0  0  0  0
  188.5790  178.1820  141.8790 C   0  0  1  0  0  3  0  0  0  0  0  0
  189.2990  177.3710  145.4140 C   0  0  0  0  0  3  0  0  0  0  0  0
  190.5440  176.9650  143.3610 C   0  0  0  0  0  0  0  0  0  0  0  0
  191.6880  176.6930  144.1170 C   0  0  0  0  0  3  0  0  0  0  0  0
  187.0170  178.8760  140.1440 O   0  0  0  0  0  0  0  0  0  0  0  0
  186.2770  178.6810  142.3690 N   0  0  0  0  0  2  0  0  0  0  0  0
  185.9350  177.3230  144.3470 C   0  0  0  0  0  2  0  0  0  0  0  0
  185.9840  177.5180  145.8540 C   0  0  0  0  0  2  0  0  0  0  0  0
  185.2180  178.7310  146.2610 C   0  0  0  0  0  0  0  0  0  0  0  0
  183.9830  178.9960  145.6860 O   0  0  0  0  0  0  0  0  0  0  0  0
  185.6770  179.4970  147.1480 O   0  0  0  0  0  1  0  0  0  0  0  0
  189.7380  177.7980  139.8450 C   0  0  0  0  0  2  0  0  0  0  0  0
  190.4190  175.6320  139.2220 O   0  0  0  0  0  0  0  0  0  0  0  0
  190.0210  176.7240  138.8470 C   0  0  0  0  0  0  0  0  0  0  0  0
  186.9750  176.7470  137.3120 C   0  0  2  0  0  3  0  0  0  0  0  0
  189.1780  178.3850  137.1560 C   0  0  0  0  0  2  0  0  0  0  0  0
  189.9420  174.9330  136.0500 F   0  0  0  0  0  0  0  0  0  0  0  0
  185.5200  176.4460  137.0180 C   0  0  0  0  0  1  0  0  0  0  0  0
  187.4000  178.3970  136.6730 S   0  0  0  0  0  0  0  0  0  0  0  0
  189.1690  175.8630  136.6680 C   0  0  0  0  0  0  0  0  0  0  0  0
  189.8280  177.0100  137.3870 C   0  0  2  0  0  3  0  0  0  0  0  0
  187.8400  175.7300  136.6450 C   0  0  0  0  0  3  0  0  0  0  0  0
  1  7  1  0  0  0  0
  2  3  1  0  0  0  0
  2  4  1  1  0  0  0
  3 16  1  6  0  0  0
  4 11  1  0  0  0  0
  5  1  1  0  0  0  0
  6  9  1  0  0  0  0
  6 10  1  0  0  0  0
  8 15  1  0  0  0  0
  9 12  1  0  0  0  0
 10  8  1  6  0  0  0
 10  2  1  0  0  0  0
 11  1  2  0  0  0  0
 12  4  2  0  0  0  0
 12 13  1  0  0  0  0
 13  5  2  0  0  0  0
 14  8  2  0  0  0  0
 15  3  1  0  0  0  0
 16 17  1  0  0  0  0
 17 18  1  0  0  0  0
 18 20  1  0  0  0  0
 19 18  2  0  0  0  0
 21  6  1  0  0  0  0
 23 22  2  0  0  0  0
 23 21  1  0  0  0  0
 24 27  1  6  0  0  0
 25 30  1  0  0  0  0
 26 29  1  0  0  0  0
 28 25  1  0  0  0  0
 28 24  1  0  0  0  0
 29 30  1  0  0  0  0
 30 23  1  1  0  0  0
 31 29  2  0  0  0  0
 31 24  1  0  0  0  0
M  END
>  <MODEL>
5

>  <REMARK>
 VINA RESULT:      -8.5      2.705      4.518
  Name = 
  6 active torsions:
  status: ('A' for Active; 'I' for Inactive)
    1  A    between atoms: C_5  and  C_14
    2  A    between atoms: C_9  and  C_22
    3  A    between atoms: C_9  and  C_23
    4  A    between atoms: C_10  and  C_14
    5  A    between atoms: C_10  and  C_18
    6  A    between atoms: N_15  and  C_23
                            x       y       z     vdW  Elec       q    Type
                         _______ _______ _______ _____ _____    ______ ____

>  <TORSDO>
F 6

$$$$
=
 OpenBabel11052413153D

 31 34  0  0  1  0  0  0  0  0999 V2000
  190.6680  177.2240  145.0320 C   0  0  0  0  0  0  0  0  0  0  0  0
  187.6690  177.7980  142.7600 C   0  0  2  0  0  3  0  0  0  0  0  0
  186.5510  178.4220  143.5980 C   0  0  1  0  0  3  0  0  0  0  0  0
  189.0560  177.6050  143.2670 C   0  0  0  0  0  0  0  0  0  0  0  0
  191.6690  177.0220  144.0750 C   0  0  0  0  0  3  0  0  0  0  0  0
  188.3440  177.7720  140.4640 N   0  0  0  0  0  0  0  0  0  0  0  0
  190.9650  177.1360  146.3500 F   0  0  0  0  0  0  0  0  0  0  0  0
  186.3110  178.9780  141.3510 C   0  0  0  0  0  0  0  0  0  0  0  0
  189.7680  177.5460  140.8090 C   0  0  0  0  0  2  0  0  0  0  0  0
  187.7430  178.6200  141.4970 C   0  0  1  0  0  3  0  0  0  0  0  0
  189.3600  177.5060  144.6290 C   0  0  0  0  0  3  0  0  0  0  0  0
  190.0590  177.3820  142.2990 C   0  0  0  0  0  0  0  0  0  0  0  0
  191.3650  177.1050  142.7130 C   0  0  0  0  0  3  0  0  0  0  0  0
  185.7710  179.3890  140.2910 O   0  0  0  0  0  0  0  0  0  0  0  0
  185.6250  178.9290  142.5940 N   0  0  0  0  0  2  0  0  0  0  0  0
  185.8390  177.3630  144.4310 C   0  0  0  0  0  2  0  0  0  0  0  0
  186.0430  177.5810  145.9220 C   0  0  0  0  0  2  0  0  0  0  0  0
  185.2350  178.7350  146.4080 C   0  0  0  0  0  0  0  0  0  0  0  0
  183.9890  178.9940  145.8510 O   0  0  0  0  0  0  0  0  0  0  0  0
  185.6660  179.4570  147.3440 O   0  0  0  0  0  1  0  0  0  0  0  0
  188.3620  178.5110  139.2080 C   0  0  0  0  0  2  0  0  0  0  0  0
  186.9870  177.0020  138.0350 O   0  0  0  0  0  0  0  0  0  0  0  0
  188.0550  177.5920  138.0710 C   0  0  0  0  0  0  0  0  0  0  0  0
  188.9340  174.5340  136.8430 C   0  0  2  0  0  3  0  0  0  0  0  0
  188.4330  176.9670  135.6640 C   0  0  0  0  0  2  0  0  0  0  0  0
  191.3400  177.1140  137.9550 F   0  0  0  0  0  0  0  0  0  0  0  0
  189.1620  173.0400  136.7590 C   0  0  0  0  0  1  0  0  0  0  0  0
  188.6060  175.1980  135.1810 S   0  0  0  0  0  0  0  0  0  0  0  0
  190.2230  176.5270  137.4550 C   0  0  0  0  0  0  0  0  0  0  0  0
  189.0790  177.3920  136.9940 C   0  0  2  0  0  3  0  0  0  0  0  0
  190.1500  175.1950  137.3990 C   0  0  0  0  0  3  0  0  0  0  0  0
  1  7  1  0  0  0  0
  2  4  1  1  0  0  0
  2  3  1  0  0  0  0
  3 16  1  1  0  0  0
  4 11  2  0  0  0  0
  5  1  2  0  0  0  0
  6  9  1  0  0  0  0
  6 10  1  0  0  0  0
  8 15  1  0  0  0  0
  9 12  1  0  0  0  0
 10  8  1  6  0  0  0
 10  2  1  0  0  0  0
 11  1  1  0  0  0  0
 12 13  2  0  0  0  0
 12  4  1  0  0  0  0
 13  5  1  0  0  0  0
 14  8  2  0  0  0  0
 15  3  1  0  0  0  0
 16 17  1  0  0  0  0
 17 18  1  0  0  0  0
 18 20  1  0  0  0  0
 19 18  2  0  0  0  0
 21  6  1  0  0  0  0
 22 23  2  0  0  0  0
 23 21  1  0  0  0  0
 24 27  1  6  0  0  0
 24 31  1  0  0  0  0
 25 30  1  0  0  0  0
 28 25  1  0  0  0  0
 28 24  1  0  0  0  0
 29 26  1  0  0  0  0
 30 29  1  0  0  0  0
 30 23  1  1  0  0  0
 31 29  2  0  0  0  0
M  END
>  <MODEL>
6

>  <REMARK>
 VINA RESULT:      -8.3      2.861      4.427
  Name = 
  6 active torsions:
  status: ('A' for Active; 'I' for Inactive)
    1  A    between atoms: C_5  and  C_14
    2  A    between atoms: C_9  and  C_22
    3  A    between atoms: C_9  and  C_23
    4  A    between atoms: C_10  and  C_14
    5  A    between atoms: C_10  and  C_18
    6  A    between atoms: N_15  and  C_23
                            x       y       z     vdW  Elec       q    Type
                         _______ _______ _______ _____ _____    ______ ____

>  <TORSDO>
F 6

$$$$
=
 OpenBabel11052413153D

 31 34  0  0  1  0  0  0  0  0999 V2000
  189.8980  177.2080  146.5450 C   0  0  0  0  0  0  0  0  0  0  0  0
  188.5320  177.4710  143.0020 C   0  0  2  0  0  3  0  0  0  0  0  0
  187.2590  178.3180  143.0460 C   0  0  1  0  0  3  0  0  0  0  0  0
  189.4420  177.3070  144.1700 C   0  0  0  0  0  0  0  0  0  0  0  0
  191.1940  176.7550  146.2770 C   0  0  0  0  0  3  0  0  0  0  0  0
  190.2350  176.9300  141.4090 N   0  0  0  0  0  0  0  0  0  0  0  0
  189.4910  177.3780  147.8250 F   0  0  0  0  0  0  0  0  0  0  0  0
  188.2430  178.4100  140.9390 C   0  0  0  0  0  0  0  0  0  0  0  0
  191.2510  176.6990  142.4640 C   0  0  0  0  0  2  0  0  0  0  0  0
  189.3440  178.0080  141.8480 C   0  0  1  0  0  3  0  0  0  0  0  0
  189.0190  177.4750  145.4920 C   0  0  0  0  0  3  0  0  0  0  0  0
  190.7430  176.8310  143.8970 C   0  0  0  0  0  0  0  0  0  0  0  0
  191.6160  176.5710  144.9570 C   0  0  0  0  0  3  0  0  0  0  0  0
  188.3640  178.6220  139.7040 O   0  0  0  0  0  0  0  0  0  0  0  0
  187.0370  178.6580  141.6460 N   0  0  0  0  0  2  0  0  0  0  0  0
  186.0750  177.4980  143.5440 C   0  0  0  0  0  2  0  0  0  0  0  0
  184.8380  178.3560  143.7560 C   0  0  0  0  0  2  0  0  0  0  0  0
  184.6860  178.7270  145.1920 C   0  0  0  0  0  0  0  0  0  0  0  0
  185.8040  178.7960  146.0130 O   0  0  0  0  0  1  0  0  0  0  0  0
  183.5500  179.0080  145.6530 O   0  0  0  0  0  0  0  0  0  0  0  0
  190.9810  177.3910  140.2450 C   0  0  0  0  0  2  0  0  0  0  0  0
  189.8720  175.6140  139.1700 O   0  0  0  0  0  0  0  0  0  0  0  0
  190.6130  176.5770  139.0480 C   0  0  0  0  0  0  0  0  0  0  0  0
  191.5040  174.2910  136.6790 C   0  0  2  0  0  3  0  0  0  0  0  0
  190.1700  176.6930  136.5750 C   0  0  0  0  0  2  0  0  0  0  0  0
  193.6450  177.0950  137.7940 F   0  0  0  0  0  0  0  0  0  0  0  0
  191.9490  172.9910  136.0430 C   0  0  0  0  0  1  0  0  0  0  0  0
  190.4650  175.2200  135.5090 S   0  0  0  0  0  0  0  0  0  0  0  0
  192.5460  176.3560  137.4910 C   0  0  0  0  0  0  0  0  0  0  0  0
  191.1780  176.9460  137.7090 C   0  0  2  0  0  3  0  0  0  0  0  0
  192.7000  175.1140  137.0250 C   0  0  0  0  0  3  0  0  0  0  0  0
  1  7  1  0  0  0  0
  2  3  1  0  0  0  0
  2  4  1  1  0  0  0
  3 16  1  6  0  0  0
  4 11  1  0  0  0  0
  5  1  1  0  0  0  0
  6 10  1  0  0  0  0
  6  9  1  0  0  0  0
  8 15  1  0  0  0  0
  9 12  1  0  0  0  0
 10  8  1  6  0  0  0
 10  2  1  0  0  0  0
 11  1  2  0  0  0  0
 12  4  2  0  0  0  0
 12 13  1  0  0  0  0
 13  5  2  0  0  0  0
 14  8  2  0  0  0  0
 15  3  1  0  0  0  0
 16 17  1  0  0  0  0
 17 18  1  0  0  0  0
 18 20  2  0  0  0  0
 18 19  1  0  0  0  0
 21  6  1  0  0  0  0
 23 22  2  0  0  0  0
 23 21  1  0  0  0  0
 24 27  1  6  0  0  0
 24 31  1  0  0  0  0
 25 30  1  0  0  0  0
 28 25  1  0  0  0  0
 28 24  1  0  0  0  0
 29 30  1  0  0  0  0
 29 26  1  0  0  0  0
 30 23  1  1  0  0  0
 31 29  2  0  0  0  0
M  END
>  <MODEL>
7

>  <REMARK>
 VINA RESULT:      -8.3      2.818      4.654
  Name = 
  6 active torsions:
  status: ('A' for Active; 'I' for Inactive)
    1  A    between atoms: C_5  and  C_14
    2  A    between atoms: C_9  and  C_22
    3  A    between atoms: C_9  and  C_23
    4  A    between atoms: C_10  and  C_14
    5  A    between atoms: C_10  and  C_18
    6  A    between atoms: N_15  and  C_23
                            x       y       z     vdW  Elec       q    Type
                         _______ _______ _______ _____ _____    ______ ____

>  <TORSDO>
F 6

$$$$
=
 OpenBabel11052413153D

 31 34  0  0  1  0  0  0  0  0999 V2000
  190.0820  177.7270  145.2810 C   0  0  0  0  0  0  0  0  0  0  0  0
  188.1550  177.6980  141.9990 C   0  0  2  0  0  3  0  0  0  0  0  0
  186.8830  178.5270  142.1890 C   0  0  1  0  0  3  0  0  0  0  0  0
  189.2450  177.6380  143.0120 C   0  0  0  0  0  0  0  0  0  0  0  0
  191.3300  177.2740  144.8390 C   0  0  0  0  0  3  0  0  0  0  0  0
  189.5910  177.0640  140.1930 N   0  0  0  0  0  0  0  0  0  0  0  0
  189.8830  177.9880  146.5950 F   0  0  0  0  0  0  0  0  0  0  0  0
  187.5100  178.4730  139.9490 C   0  0  0  0  0  0  0  0  0  0  0  0
  190.7710  176.9290  141.0820 C   0  0  0  0  0  2  0  0  0  0  0  0
  188.7540  178.1580  140.6920 C   0  0  1  0  0  3  0  0  0  0  0  0
  189.0370  177.9000  144.3690 C   0  0  0  0  0  3  0  0  0  0  0  0
  190.4980  177.1620  142.5650 C   0  0  0  0  0  0  0  0  0  0  0  0
  191.5370  176.9970  143.4850 C   0  0  0  0  0  3  0  0  0  0  0  0
  187.4250  178.5920  138.6980 O   0  0  0  0  0  0  0  0  0  0  0  0
  186.4280  178.7570  140.8230 N   0  0  0  0  0  2  0  0  0  0  0  0
  185.8180  177.7300  142.9320 C   0  0  0  0  0  2  0  0  0  0  0  0
  184.7030  178.6210  143.4560 C   0  0  0  0  0  2  0  0  0  0  0  0
  184.7600  178.7290  144.9410 C   0  0  0  0  0  0  0  0  0  0  0  0
  183.6330  179.1210  145.6520 O   0  0  0  0  0  1  0  0  0  0  0  0
  185.8190  178.4380  145.5550 O   0  0  0  0  0  0  0  0  0  0  0  0
  190.1270  177.4460  138.8930 C   0  0  0  0  0  2  0  0  0  0  0  0
  190.6520  175.1700  138.5960 O   0  0  0  0  0  0  0  0  0  0  0  0
  190.3620  176.2280  138.0610 C   0  0  0  0  0  0  0  0  0  0  0  0
  187.5060  175.5570  136.3210 C   0  0  2  0  0  3  0  0  0  0  0  0
  189.4060  177.5360  136.1360 C   0  0  0  0  0  2  0  0  0  0  0  0
  190.8370  174.1820  135.4880 F   0  0  0  0  0  0  0  0  0  0  0  0
  186.1550  174.9750  135.9600 C   0  0  0  0  0  1  0  0  0  0  0  0
  187.7020  177.1840  135.5300 S   0  0  0  0  0  0  0  0  0  0  0  0
  189.8660  175.0160  135.9400 C   0  0  0  0  0  0  0  0  0  0  0  0
  190.2550  176.3280  136.5680 C   0  0  2  0  0  3  0  0  0  0  0  0
  188.5870  174.6490  135.8370 C   0  0  0  0  0  3  0  0  0  0  0  0
  1  7  1  0  0  0  0
  2  3  1  0  0  0  0
  2  4  1  1  0  0  0
  3 16  1  1  0  0  0
  4 11  1  0  0  0  0
  5  1  1  0  0  0  0
  6 10  1  0  0  0  0
  6  9  1  0  0  0  0
  8 15  1  0  0  0  0
  9 12  1  0  0  0  0
 10  8  1  6  0  0  0
 10  2  1  0  0  0  0
 11  1  2  0  0  0  0
 12  4  2  0  0  0  0
 12 13  1  0  0  0  0
 13  5  2  0  0  0  0
 14  8  2  0  0  0  0
 15  3  1  0  0  0  0
 16 17  1  0  0  0  0
 17 18  1  0  0  0  0
 18 20  2  0  0  0  0
 18 19  1  0  0  0  0
 21  6  1  0  0  0  0
 23 22  2  0  0  0  0
 23 21  1  0  0  0  0
 24 27  1  6  0  0  0
 25 30  1  0  0  0  0
 26 29  1  0  0  0  0
 28 25  1  0  0  0  0
 28 24  1  0  0  0  0
 29 30  1  0  0  0  0
 30 23  1  1  0  0  0
 31 29  2  0  0  0  0
 31 24  1  0  0  0  0
M  END
>  <MODEL>
8

>  <REMARK>
 VINA RESULT:      -8.0      2.785      4.803
  Name = 
  6 active torsions:
  status: ('A' for Active; 'I' for Inactive)
    1  A    between atoms: C_5  and  C_14
    2  A    between atoms: C_9  and  C_22
    3  A    between atoms: C_9  and  C_23
    4  A    between atoms: C_10  and  C_14
    5  A    between atoms: C_10  and  C_18
    6  A    between atoms: N_15  and  C_23
                            x       y       z     vdW  Elec       q    Type
                         _______ _______ _______ _____ _____    ______ ____

>  <TORSDO>
F 6

$$$$
=
 OpenBabel11052413153D

 31 34  0  0  1  0  0  0  0  0999 V2000
  188.2820  177.6370  146.1260 C   0  0  0  0  0  0  0  0  0  0  0  0
  187.2040  177.7770  142.4780 C   0  0  2  0  0  3  0  0  0  0  0  0
  185.9510  178.6510  142.3870 C   0  0  1  0  0  3  0  0  0  0  0  0
  188.0160  177.6450  143.7200 C   0  0  0  0  0  0  0  0  0  0  0  0
  189.5850  177.1470  145.9800 C   0  0  0  0  0  3  0  0  0  0  0  0
  189.0130  177.1350  141.0480 N   0  0  0  0  0  0  0  0  0  0  0  0
  187.7810  177.8700  147.3620 F   0  0  0  0  0  0  0  0  0  0  0  0
  187.0990  178.6330  140.3630 C   0  0  0  0  0  0  0  0  0  0  0  0
  189.9380  176.9280  142.1880 C   0  0  0  0  0  2  0  0  0  0  0  0
  188.1160  178.2480  141.3720 C   0  0  1  0  0  3  0  0  0  0  0  0
  187.4950  177.8770  144.9970 C   0  0  0  0  0  3  0  0  0  0  0  0
  189.3220  177.1310  143.5710 C   0  0  0  0  0  0  0  0  0  0  0  0
  190.1040  176.8990  144.7060 C   0  0  0  0  0  3  0  0  0  0  0  0
  187.3220  178.7910  139.1340 O   0  0  0  0  0  0  0  0  0  0  0  0
  185.8480  178.9360  140.9610 N   0  0  0  0  0  2  0  0  0  0  0  0
  184.7140  177.8770  142.8230 C   0  0  0  0  0  2  0  0  0  0  0  0
  183.4320  178.6320  142.5100 C   0  0  0  0  0  2  0  0  0  0  0  0
  182.6820  178.9510  143.7580 C   0  0  0  0  0  0  0  0  0  0  0  0
  181.2940  178.9530  143.7520 O   0  0  0  0  0  0  0  0  0  0  0  0
  183.3050  179.1890  144.8250 O   0  0  0  0  0  1  0  0  0  0  0  0
  189.8590  177.5310  139.9290 C   0  0  0  0  0  2  0  0  0  0  0  0
  190.7230  175.5470  139.0030 O   0  0  0  0  0  0  0  0  0  0  0  0
  189.8970  176.4410  138.9090 C   0  0  0  0  0  0  0  0  0  0  0  0
  190.5810  175.1800  135.8150 C   0  0  2  0  0  3  0  0  0  0  0  0
  188.3730  175.0720  137.4490 C   0  0  0  0  0  2  0  0  0  0  0  0
  189.1770  178.5450  136.4410 F   0  0  0  0  0  0  0  0  0  0  0  0
  191.3560  174.7200  134.5980 C   0  0  0  0  0  1  0  0  0  0  0  0
  189.0320  174.2340  135.9470 S   0  0  0  0  0  0  0  0  0  0  0  0
  189.4710  177.2270  136.5820 C   0  0  0  0  0  0  0  0  0  0  0  0
  188.9270  176.4720  137.7660 C   0  0  2  0  0  3  0  0  0  0  0  0
  190.2550  176.6300  135.6800 C   0  0  0  0  0  3  0  0  0  0  0  0
  1  7  1  0  0  0  0
  2  4  1  1  0  0  0
  3  2  1  0  0  0  0
  3 16  1  6  0  0  0
  4 11  1  0  0  0  0
  5  1  1  0  0  0  0
  6 10  1  0  0  0  0
  6  9  1  0  0  0  0
  8 15  1  0  0  0  0
  9 12  1  0  0  0  0
 10  8  1  6  0  0  0
 10  2  1  0  0  0  0
 11  1  2  0  0  0  0
 12  4  2  0  0  0  0
 12 13  1  0  0  0  0
 13  5  2  0  0  0  0
 14  8  2  0  0  0  0
 15  3  1  0  0  0  0
 17 16  1  0  0  0  0
 17 18  1  0  0  0  0
 18 20  1  0  0  0  0
 19 18  2  0  0  0  0
 21  6  1  0  0  0  0
 23 22  2  0  0  0  0
 23 21  1  0  0  0  0
 24 27  1  6  0  0  0
 24 28  1  0  0  0  0
 25 30  1  0  0  0  0
 26 29  1  0  0  0  0
 28 25  1  0  0  0  0
 29 30  1  0  0  0  0
 30 23  1  1  0  0  0
 31 24  1  0  0  0  0
 31 29  2  0  0  0  0
M  END
>  <MODEL>
9

>  <REMARK>
 VINA RESULT:      -7.9      2.777      4.839
  Name = 
  6 active torsions:
  status: ('A' for Active; 'I' for Inactive)
    1  A    between atoms: C_5  and  C_14
    2  A    between atoms: C_9  and  C_22
    3  A    between atoms: C_9  and  C_23
    4  A    between atoms: C_10  and  C_14
    5  A    between atoms: C_10  and  C_18
    6  A    between atoms: N_15  and  C_23
                            x       y       z     vdW  Elec       q    Type
                         _______ _______ _______ _____ _____    ______ ____

>  <TORSDO>
F 6

$$$$
