=
 OpenBabel11052414533D

 55 61  0  0  1  0  0  0  0  0999 V2000
  187.1280  178.6090  142.2340 C   0  0  0  0  0  2  0  0  0  0  0  0
  185.5540  175.9660  136.9610 C   0  0  0  0  0  2  0  0  0  0  0  0
  187.3630  177.4750  137.8260 C   0  0  2  0  0  3  0  0  0  0  0  0
  189.7080  175.8410  137.3070 C   0  0  0  0  0  3  0  0  0  0  0  0
  190.8600  175.1130  137.0100 C   0  0  0  0  0  3  0  0  0  0  0  0
  190.8540  176.9130  139.1600 C   0  0  0  0  0  0  0  0  0  0  0  0
  192.0100  176.1970  138.8320 C   0  0  0  0  0  3  0  0  0  0  0  0
  186.4970  178.6710  138.1690 C   0  0  0  0  0  1  0  0  0  0  0  0
  192.0140  175.2970  137.7650 C   0  0  0  0  0  3  0  0  0  0  0  0
  184.9120  178.9980  143.3210 C   0  0  0  0  0  3  0  0  0  0  0  0
  189.6870  176.7520  138.3710 C   0  0  0  0  0  0  0  0  0  0  0  0
  183.5730  178.0090  141.0680 C   0  0  0  0  0  0  0  0  0  0  0  0
  187.7190  177.2230  142.0180 C   0  0  0  0  0  2  0  0  0  0  0  0
  184.9680  178.0610  141.0870 C   0  0  0  0  0  3  0  0  0  0  0  0
  189.7940  178.2880  140.9530 C   0  0  0  0  0  2  0  0  0  0  0  0
  183.7080  177.4000  136.7410 C   0  0  0  0  0  2  0  0  0  0  0  0
  190.9260  177.7860  140.2570 O   0  0  0  0  0  0  0  0  0  0  0  0
  184.2240  176.2520  137.4760 N   0  0  0  0  0  2  0  0  0  0  0  0
  186.5930  176.1850  138.0520 C   0  0  0  0  0  2  0  0  0  0  0  0
  183.5160  178.9610  143.2960 C   0  0  0  0  0  3  0  0  0  0  0  0
  182.4710  177.9960  137.4240 C   0  0  2  0  0  3  0  0  0  0  0  0
  185.6410  178.5460  142.2150 C   0  0  0  0  0  0  0  0  0  0  0  0
  188.5340  177.5040  138.6410 O   0  0  0  0  0  0  0  0  0  0  0  0
  189.2500  177.2180  141.8970 C   0  0  1  0  0  3  0  0  0  0  0  0
  182.7180  178.5680  138.8210 C   0  0  0  0  0  2  0  0  0  0  0  0
  182.8750  177.4740  139.8720 C   0  0  0  0  0  2  0  0  0  0  0  0
  182.8450  178.4670  142.1700 C   0  0  0  0  0  3  0  0  0  0  0  0
  190.8950  176.0390  143.1610 C   0  0  0  0  0  2  0  0  0  0  0  0
  191.2410  176.9400  145.4550 N   0  0  0  0  0  0  0  0  0  0  0  0
  189.0570  177.0820  144.3090 C   0  0  0  0  0  2  0  0  0  0  0  0
  189.7950  176.7720  145.6150 C   0  0  0  0  0  2  0  0  0  0  0  0
  191.7380  175.9950  144.4420 C   0  0  0  0  0  2  0  0  0  0  0  0
  189.9800  177.1840  143.1710 N   0  0  0  0  0  0  0  0  0  0  0  0
  191.8910  176.7180  146.7490 C   0  0  0  0  0  3  0  0  0  0  0  0
  192.2100  175.2460  146.9550 C   0  0  0  0  0  1  0  0  0  0  0  0
  191.1020  177.2610  147.9340 C   0  0  0  0  0  1  0  0  0  0  0  0
  181.1790  177.1940  137.2560 C   0  0  0  0  0  2  0  0  0  0  0  0
  181.3770  175.6900  137.3540 C   0  0  0  0  0  2  0  0  0  0  0  0
  180.6950  174.9920  136.1860 C   0  0  0  0  0  2  0  0  0  0  0  0
  180.9330  171.5180  134.7150 C   0  0  2  0  0  3  0  0  0  0  0  0
  181.5560  173.4610  138.1930 F   0  0  0  0  0  0  0  0  0  0  0  0
  181.5500  172.7110  137.0300 C   0  0  2  0  0  0  0  0  0  0  0  0
  182.7670  171.9610  137.0500 O   0  0  0  0  0  0  0  0  0  0  0  0
  181.4110  173.6880  135.8320 C   0  0  1  0  0  3  0  0  0  0  0  0
  178.9360  170.5130  135.8120 C   0  0  0  0  0  1  0  0  0  0  0  0
  182.4230  171.2230  134.5980 C   0  0  0  0  0  2  0  0  0  0  0  0
  183.8510  170.0740  136.1850 C   0  0  0  0  0  1  0  0  0  0  0  0
  183.3340  171.4530  135.8340 C   0  0  2  0  0  0  0  0  0  0  0  0
  180.7000  173.0140  134.6620 C   0  0  0  0  0  2  0  0  0  0  0  0
  180.4330  171.8420  137.1140 O   0  0  0  0  0  0  0  0  0  0  0  0
  180.3750  170.9420  136.0200 C   0  0  2  0  0  3  0  0  0  0  0  0
  184.3680  173.6370  134.7070 C   0  0  0  0  0  1  0  0  0  0  0  0
  184.5620  172.2930  135.3970 C   0  0  0  0  0  0  0  0  0  0  0  0
  185.8510  171.5700  135.0570 C   0  0  0  0  0  2  0  0  0  0  0  0
  185.7170  172.3230  136.3730 C   0  0  0  0  0  2  0  0  0  0  0  0
  2 18  1  0  0  0  0
  2 19  1  0  0  0  0
  3 19  1  0  0  0  0
  3  8  1  1  0  0  0
  3 23  1  0  0  0  0
  4 11  1  0  0  0  0
  5  4  2  0  0  0  0
  5  9  1  0  0  0  0
  6 17  1  0  0  0  0
  7  6  1  0  0  0  0
  9  7  2  0  0  0  0
 11 23  1  0  0  0  0
 11  6  2  0  0  0  0
 12 14  2  0  0  0  0
 12 27  1  0  0  0  0
 13  1  1  0  0  0  0
 14 22  1  0  0  0  0
 16 21  1  0  0  0  0
 16 18  1  0  0  0  0
 17 15  1  0  0  0  0
 20 10  1  0  0  0  0
 21 37  1  1  0  0  0
 21 25  1  0  0  0  0
 22  1  1  0  0  0  0
 22 10  2  0  0  0  0
 24 15  1  1  0  0  0
 24 13  1  0  0  0  0
 24 33  1  0  0  0  0
 25 26  1  0  0  0  0
 26 12  1  0  0  0  0
 27 20  2  0  0  0  0
 28 33  1  0  0  0  0
 28 32  1  0  0  0  0
 29 31  1  0  0  0  0
 29 34  1  0  0  0  0
 30 31  1  0  0  0  0
 32 29  1  0  0  0  0
 33 30  1  0  0  0  0
 34 35  1  0  0  0  0
 34 36  1  0  0  0  0
 37 38  1  0  0  0  0
 39 38  1  0  0  0  0
 40 46  1  1  0  0  0
 40 51  1  0  0  0  0
 42 43  1  0  0  0  0
 42 50  1  0  0  0  0
 42 41  1  1  0  0  0
 44 39  1  1  0  0  0
 44 42  1  0  0  0  0
 46 48  1  0  0  0  0
 48 47  1  1  0  0  0
 48 43  1  0  0  0  0
 49 40  1  0  0  0  0
 49 44  1  0  0  0  0
 51 45  1  6  0  0  0
 51 50  1  0  0  0  0
 52 53  1  0  0  0  0
 53 48  1  0  0  0  0
 53 55  1  0  0  0  0
 54 53  1  0  0  0  0
 54 55  1  0  0  0  0
M  END
>  <MODEL>
1

>  <REMARK>
 VINA RESULT:      -8.0      0.000      0.000
  Name = 
  7 active torsions:
  status: ('A' for Active; 'I' for Inactive)
    1  A    between atoms: C_7  and  C_20
    2  A    between atoms: C_7  and  C_22
    3  A    between atoms: C_8  and  C_22
    4  A    between atoms: C_8  and  C_43
    5  A    between atoms: C_10  and  N_32
    6  A    between atoms: C_12  and  C_38
    7  A    between atoms: C_49  and  N_52
                            x       y       z     vdW  Elec       q    Type
                         _______ _______ _______ _____ _____    ______ ____

>  <TORSDO>
F 7

$$$$
=
 OpenBabel11052414533D

 55 61  0  0  1  0  0  0  0  0999 V2000
  187.4550  178.6290  142.0640 C   0  0  0  0  0  2  0  0  0  0  0  0
  185.7800  176.0500  136.7910 C   0  0  0  0  0  2  0  0  0  0  0  0
  187.6570  177.4710  137.6620 C   0  0  2  0  0  3  0  0  0  0  0  0
  189.9210  175.7220  137.1600 C   0  0  0  0  0  3  0  0  0  0  0  0
  191.0380  174.9370  136.8710 C   0  0  0  0  0  3  0  0  0  0  0  0
  191.1090  176.7420  139.0160 C   0  0  0  0  0  0  0  0  0  0  0  0
  192.2300  175.9690  138.6970 C   0  0  0  0  0  3  0  0  0  0  0  0
  186.8490  178.7090  137.9970 C   0  0  0  0  0  1  0  0  0  0  0  0
  192.1960  175.0670  137.6320 C   0  0  0  0  0  3  0  0  0  0  0  0
  185.2550  179.1300  143.1390 C   0  0  0  0  0  3  0  0  0  0  0  0
  189.9400  176.6360  138.2210 C   0  0  0  0  0  0  0  0  0  0  0  0
  183.8800  178.2010  140.8820 C   0  0  0  0  0  0  0  0  0  0  0  0
  187.9780  177.2150  141.8560 C   0  0  0  0  0  2  0  0  0  0  0  0
  185.2760  178.1840  140.9080 C   0  0  0  0  0  3  0  0  0  0  0  0
  190.1080  178.1730  140.8000 C   0  0  0  0  0  2  0  0  0  0  0  0
  184.0080  177.5720  136.5570 C   0  0  0  0  0  2  0  0  0  0  0  0
  191.2180  177.6140  140.1110 O   0  0  0  0  0  0  0  0  0  0  0  0
  184.4630  176.4020  137.2980 N   0  0  0  0  0  2  0  0  0  0  0  0
  186.8230  176.2210  137.8870 C   0  0  0  0  0  2  0  0  0  0  0  0
  183.8580  179.1610  143.1060 C   0  0  0  0  0  3  0  0  0  0  0  0
  182.7990  178.2300  137.2320 C   0  0  2  0  0  3  0  0  0  0  0  0
  185.9660  178.6390  142.0380 C   0  0  0  0  0  0  0  0  0  0  0  0
  188.8240  177.4440  138.4830 O   0  0  0  0  0  0  0  0  0  0  0  0
  189.5070  177.1340  141.7430 C   0  0  1  0  0  3  0  0  0  0  0  0
  183.0660  178.7940  138.6280 C   0  0  0  0  0  2  0  0  0  0  0  0
  183.1630  177.6970  139.6830 C   0  0  0  0  0  2  0  0  0  0  0  0
  183.1700  178.6980  141.9780 C   0  0  0  0  0  3  0  0  0  0  0  0
  190.8520  175.7480  143.1440 C   0  0  0  0  0  2  0  0  0  0  0  0
  191.4310  176.7850  145.3320 N   0  0  0  0  0  0  0  0  0  0  0  0
  189.3230  177.3070  144.1540 C   0  0  0  0  0  2  0  0  0  0  0  0
  189.9880  176.9760  145.4930 C   0  0  0  0  0  2  0  0  0  0  0  0
  191.6800  175.6470  144.4330 C   0  0  0  0  0  2  0  0  0  0  0  0
  190.2280  177.0690  143.0210 N   0  0  0  0  0  0  0  0  0  0  0  0
  192.0300  176.5580  146.6500 C   0  0  0  0  0  3  0  0  0  0  0  0
  192.3750  175.0910  146.8480 C   0  0  0  0  0  1  0  0  0  0  0  0
  191.1790  177.0650  147.8070 C   0  0  0  0  0  1  0  0  0  0  0  0
  181.4700  177.4930  137.0590 C   0  0  0  0  0  2  0  0  0  0  0  0
  181.0220  177.3720  135.6100 C   0  0  0  0  0  2  0  0  0  0  0  0
  181.4550  176.0300  135.0360 C   0  0  0  0  0  2  0  0  0  0  0  0
  179.2590  174.5080  137.7100 C   0  0  2  0  0  3  0  0  0  0  0  0
  183.0540  174.3550  136.3580 F   0  0  0  0  0  0  0  0  0  0  0  0
  181.7580  174.1820  136.8080 C   0  0  2  0  0  0  0  0  0  0  0  0
  181.5770  172.7690  136.9270 O   0  0  0  0  0  0  0  0  0  0  0  0
  180.8050  174.8730  135.7960 C   0  0  1  0  0  3  0  0  0  0  0  0
  180.1710  175.7280  139.6780 C   0  0  0  0  0  1  0  0  0  0  0  0
  179.0350  173.0630  137.2830 C   0  0  0  0  0  2  0  0  0  0  0  0
  180.2910  171.0950  137.9420 C   0  0  0  0  0  1  0  0  0  0  0  0
  180.2630  172.1930  136.9000 C   0  0  2  0  0  0  0  0  0  0  0  0
  179.5380  175.3640  136.4910 C   0  0  0  0  0  2  0  0  0  0  0  0
  181.6850  174.7980  138.0820 O   0  0  0  0  0  0  0  0  0  0  0  0
  180.4240  174.5990  138.6990 C   0  0  2  0  0  3  0  0  0  0  0  0
  178.9310  172.0780  134.5940 C   0  0  0  0  0  1  0  0  0  0  0  0
  179.9820  171.5090  135.5380 C   0  0  0  0  0  0  0  0  0  0  0  0
  180.2280  170.0170  135.4100 C   0  0  0  0  0  2  0  0  0  0  0  0
  181.1990  171.0110  134.7900 C   0  0  0  0  0  2  0  0  0  0  0  0
  2 18  1  0  0  0  0
  2 19  1  0  0  0  0
  3 19  1  0  0  0  0
  3  8  1  1  0  0  0
  3 23  1  0  0  0  0
  4 11  1  0  0  0  0
  5  4  2  0  0  0  0
  5  9  1  0  0  0  0
  6 17  1  0  0  0  0
  7  6  1  0  0  0  0
  9  7  2  0  0  0  0
 11 23  1  0  0  0  0
 11  6  2  0  0  0  0
 12 14  2  0  0  0  0
 12 27  1  0  0  0  0
 13  1  1  0  0  0  0
 14 22  1  0  0  0  0
 16 21  1  0  0  0  0
 16 18  1  0  0  0  0
 17 15  1  0  0  0  0
 20 10  1  0  0  0  0
 21 37  1  1  0  0  0
 21 25  1  0  0  0  0
 22  1  1  0  0  0  0
 22 10  2  0  0  0  0
 24 15  1  1  0  0  0
 24 13  1  0  0  0  0
 24 33  1  0  0  0  0
 25 26  1  0  0  0  0
 26 12  1  0  0  0  0
 27 20  2  0  0  0  0
 28 32  1  0  0  0  0
 29 31  1  0  0  0  0
 29 34  1  0  0  0  0
 30 31  1  0  0  0  0
 32 29  1  0  0  0  0
 33 28  1  0  0  0  0
 33 30  1  0  0  0  0
 34 35  1  0  0  0  0
 34 36  1  0  0  0  0
 38 37  1  0  0  0  0
 39 38  1  0  0  0  0
 40 49  1  6  0  0  0
 40 51  1  0  0  0  0
 42 41  1  6  0  0  0
 42 43  1  0  0  0  0
 42 50  1  0  0  0  0
 44 39  1  1  0  0  0
 44 49  1  0  0  0  0
 44 42  1  0  0  0  0
 46 40  1  0  0  0  0
 48 43  1  0  0  0  0
 48 46  1  0  0  0  0
 48 47  1  1  0  0  0
 50 51  1  0  0  0  0
 51 45  1  1  0  0  0
 52 53  1  0  0  0  0
 53 48  1  0  0  0  0
 54 53  1  0  0  0  0
 55 54  1  0  0  0  0
 55 53  1  0  0  0  0
M  END
>  <MODEL>
2

>  <REMARK>
 VINA RESULT:      -7.2      1.391      2.316
  Name = 
  7 active torsions:
  status: ('A' for Active; 'I' for Inactive)
    1  A    between atoms: C_7  and  C_20
    2  A    between atoms: C_7  and  C_22
    3  A    between atoms: C_8  and  C_22
    4  A    between atoms: C_8  and  C_43
    5  A    between atoms: C_10  and  N_32
    6  A    between atoms: C_12  and  C_38
    7  A    between atoms: C_49  and  N_52
                            x       y       z     vdW  Elec       q    Type
                         _______ _______ _______ _____ _____    ______ ____

>  <TORSDO>
F 7

$$$$
=
 OpenBabel11052414533D

 55 61  0  0  1  0  0  0  0  0999 V2000
  191.5320  176.4780  137.2400 C   0  0  0  0  0  2  0  0  0  0  0  0
  187.3000  172.3060  135.8500 C   0  0  0  0  0  2  0  0  0  0  0  0
  189.4110  173.2260  134.8550 C   0  0  2  0  0  3  0  0  0  0  0  0
  191.0310  170.8180  134.7310 C   0  0  0  0  0  3  0  0  0  0  0  0
  191.8120  169.6700  134.5940 C   0  0  0  0  0  3  0  0  0  0  0  0
  193.0390  172.1700  134.9230 C   0  0  0  0  0  0  0  0  0  0  0  0
  193.8090  171.0140  134.7560 C   0  0  0  0  0  3  0  0  0  0  0  0
  188.9370  174.6470  134.6260 C   0  0  0  0  0  1  0  0  0  0  0  0
  193.2000  169.7680  134.5960 C   0  0  0  0  0  3  0  0  0  0  0  0
  190.2110  178.1810  138.5050 C   0  0  0  0  0  3  0  0  0  0  0  0
  191.6250  172.0770  134.8870 C   0  0  0  0  0  0  0  0  0  0  0  0
  187.8410  176.7580  138.0530 C   0  0  0  0  0  0  0  0  0  0  0  0
  191.8190  175.0820  137.7730 C   0  0  0  0  0  2  0  0  0  0  0  0
  189.0530  176.2800  137.5500 C   0  0  0  0  0  3  0  0  0  0  0  0
  193.1470  174.5580  135.6440 C   0  0  0  0  0  2  0  0  0  0  0  0
  185.7170  173.9870  135.4210 C   0  0  0  0  0  2  0  0  0  0  0  0
  193.7270  173.3820  135.0950 O   0  0  0  0  0  0  0  0  0  0  0  0
  186.4410  173.2960  136.4820 N   0  0  0  0  0  2  0  0  0  0  0  0
  188.7620  172.6480  136.1010 C   0  0  0  0  0  2  0  0  0  0  0  0
  188.9960  178.6680  138.9950 C   0  0  0  0  0  3  0  0  0  0  0  0
  185.0490  175.2670  135.9370 C   0  0  2  0  0  3  0  0  0  0  0  0
  190.2400  176.9830  137.7830 C   0  0  0  0  0  0  0  0  0  0  0  0
  190.8320  173.2290  134.9920 O   0  0  0  0  0  0  0  0  0  0  0  0
  193.0720  174.4350  137.1640 C   0  0  1  0  0  3  0  0  0  0  0  0
  186.0140  176.3380  136.4460 C   0  0  0  0  0  2  0  0  0  0  0  0
  186.5930  175.9890  137.8130 C   0  0  0  0  0  2  0  0  0  0  0  0
  187.8110  177.9580  138.7690 C   0  0  0  0  0  3  0  0  0  0  0  0
  195.1130  173.5740  138.0510 C   0  0  0  0  0  2  0  0  0  0  0  0
  196.5730  175.3060  139.0840 N   0  0  0  0  0  0  0  0  0  0  0  0
  194.1110  175.5080  139.0730 C   0  0  0  0  0  2  0  0  0  0  0  0
  195.4000  175.6510  139.8890 C   0  0  0  0  0  2  0  0  0  0  0  0
  196.4840  173.8990  138.6600 C   0  0  0  0  0  2  0  0  0  0  0  0
  194.3420  174.7970  137.8090 N   0  0  0  0  0  0  0  0  0  0  0  0
  197.7800  175.5420  139.8800 C   0  0  0  0  0  3  0  0  0  0  0  0
  198.9590  174.7520  139.3340 C   0  0  0  0  0  1  0  0  0  0  0  0
  197.5990  175.2660  141.3670 C   0  0  0  0  0  1  0  0  0  0  0  0
  183.7910  175.0540  136.7810 C   0  0  0  0  0  2  0  0  0  0  0  0
  183.0610  176.3440  137.1250 C   0  0  0  0  0  2  0  0  0  0  0  0
  183.2790  176.6970  138.5900 C   0  0  0  0  0  2  0  0  0  0  0  0
  179.7450  178.0380  138.5640 C   0  0  2  0  0  3  0  0  0  0  0  0
  183.5560  179.3470  138.7050 F   0  0  0  0  0  0  0  0  0  0  0  0
  182.2150  179.0320  138.8350 C   0  0  2  0  0  0  0  0  0  0  0  0
  181.7190  179.8820  139.8720 O   0  0  0  0  0  0  0  0  0  0  0  0
  182.1080  177.5130  139.1370 C   0  0  1  0  0  3  0  0  0  0  0  0
  179.6950  178.9060  136.2310 C   0  0  0  0  0  1  0  0  0  0  0  0
  179.4970  178.5670  139.9700 C   0  0  0  0  0  2  0  0  0  0  0  0
  179.7850  180.8320  140.7890 C   0  0  0  0  0  1  0  0  0  0  0  0
  180.5370  179.5310  140.6050 C   0  0  2  0  0  0  0  0  0  0  0  0
  180.7950  176.9450  138.6050 C   0  0  0  0  0  2  0  0  0  0  0  0
  181.6020  179.3520  137.5980 O   0  0  0  0  0  0  0  0  0  0  0  0
  180.1960  179.1690  137.6370 C   0  0  2  0  0  3  0  0  0  0  0  0
  182.3440  178.7660  142.4100 C   0  0  0  0  0  1  0  0  0  0  0  0
  180.8920  179.0150  142.0230 C   0  0  0  0  0  0  0  0  0  0  0  0
  179.8710  178.1750  142.7660 C   0  0  0  0  0  2  0  0  0  0  0  0
  180.1040  179.6260  143.1600 C   0  0  0  0  0  2  0  0  0  0  0  0
  1 13  1  0  0  0  0
  1 22  1  0  0  0  0
  2 19  1  0  0  0  0
  2 18  1  0  0  0  0
  3  8  1  1  0  0  0
  3 23  1  0  0  0  0
  3 19  1  0  0  0  0
  4 11  1  0  0  0  0
  5  9  1  0  0  0  0
  5  4  2  0  0  0  0
  6 17  1  0  0  0  0
  7  6  1  0  0  0  0
  9  7  2  0  0  0  0
 10 20  1  0  0  0  0
 11  6  2  0  0  0  0
 11 23  1  0  0  0  0
 12 27  1  0  0  0  0
 14 22  1  0  0  0  0
 14 12  2  0  0  0  0
 16 21  1  0  0  0  0
 16 18  1  0  0  0  0
 17 15  1  0  0  0  0
 21 25  1  0  0  0  0
 21 37  1  1  0  0  0
 22 10  2  0  0  0  0
 24 15  1  6  0  0  0
 24 13  1  0  0  0  0
 24 33  1  0  0  0  0
 25 26  1  0  0  0  0
 26 12  1  0  0  0  0
 27 20  2  0  0  0  0
 28 32  1  0  0  0  0
 29 34  1  0  0  0  0
 29 31  1  0  0  0  0
 30 31  1  0  0  0  0
 32 29  1  0  0  0  0
 33 28  1  0  0  0  0
 33 30  1  0  0  0  0
 34 36  1  0  0  0  0
 35 34  1  0  0  0  0
 37 38  1  0  0  0  0
 38 39  1  0  0  0  0
 40 49  1  1  0  0  0
 40 46  1  0  0  0  0
 42 41  1  6  0  0  0
 42 44  1  0  0  0  0
 42 43  1  0  0  0  0
 43 48  1  0  0  0  0
 44 39  1  6  0  0  0
 46 48  1  0  0  0  0
 48 47  1  1  0  0  0
 48 53  1  0  0  0  0
 49 44  1  0  0  0  0
 50 51  1  0  0  0  0
 50 42  1  0  0  0  0
 51 45  1  6  0  0  0
 51 40  1  0  0  0  0
 53 52  1  0  0  0  0
 53 54  1  0  0  0  0
 53 55  1  0  0  0  0
 54 55  1  0  0  0  0
M  END
>  <MODEL>
3

>  <REMARK>
 VINA RESULT:      -6.6      4.322      7.249
  Name = 
  7 active torsions:
  status: ('A' for Active; 'I' for Inactive)
    1  A    between atoms: C_7  and  C_20
    2  A    between atoms: C_7  and  C_22
    3  A    between atoms: C_8  and  C_22
    4  A    between atoms: C_8  and  C_43
    5  A    between atoms: C_10  and  N_32
    6  A    between atoms: C_12  and  C_38
    7  A    between atoms: C_49  and  N_52
                            x       y       z     vdW  Elec       q    Type
                         _______ _______ _______ _____ _____    ______ ____

>  <TORSDO>
F 7

$$$$
=
 OpenBabel11052414533D

 55 61  0  0  1  0  0  0  0  0999 V2000
  190.6100  177.0890  141.3990 C   0  0  0  0  0  2  0  0  0  0  0  0
  184.6960  178.3200  140.5250 C   0  0  0  0  0  2  0  0  0  0  0  0
  186.9090  179.0170  139.5700 C   0  0  2  0  0  3  0  0  0  0  0  0
  186.5760  178.1890  136.8060 C   0  0  0  0  0  3  0  0  0  0  0  0
  186.4240  177.8660  135.4570 C   0  0  0  0  0  3  0  0  0  0  0  0
  188.9790  177.8940  136.6150 C   0  0  0  0  0  0  0  0  0  0  0  0
  188.8140  177.6000  135.2570 C   0  0  0  0  0  3  0  0  0  0  0  0
  187.4740  179.6850  140.8080 C   0  0  0  0  0  1  0  0  0  0  0  0
  187.5430  177.5810  134.6800 C   0  0  0  0  0  3  0  0  0  0  0  0
  190.7000  176.6020  143.8490 C   0  0  0  0  0  3  0  0  0  0  0  0
  187.8440  178.2170  137.4000 C   0  0  0  0  0  0  0  0  0  0  0  0
  187.9790  177.2060  144.1240 C   0  0  0  0  0  0  0  0  0  0  0  0
  189.9150  176.1820  140.3940 C   0  0  0  0  0  2  0  0  0  0  0  0
  188.5940  177.2960  142.8730 C   0  0  0  0  0  3  0  0  0  0  0  0
  190.6050  177.7720  138.5050 C   0  0  0  0  0  2  0  0  0  0  0  0
  184.5900  179.4840  142.5620 C   0  0  0  0  0  2  0  0  0  0  0  0
  190.2870  177.8760  137.1230 O   0  0  0  0  0  0  0  0  0  0  0  0
  184.6800  178.1540  141.9710 N   0  0  0  0  0  2  0  0  0  0  0  0
  186.0270  177.8430  139.9610 C   0  0  0  0  0  2  0  0  0  0  0  0
  190.0890  176.5260  145.1030 C   0  0  0  0  0  3  0  0  0  0  0  0
  184.9090  179.4560  144.0610 C   0  0  2  0  0  3  0  0  0  0  0  0
  189.9510  176.9850  142.7310 C   0  0  0  0  0  0  0  0  0  0  0  0
  187.9890  178.5750  138.7490 O   0  0  0  0  0  0  0  0  0  0  0  0
  190.4530  176.3230  138.9620 C   0  0  1  0  0  3  0  0  0  0  0  0
  186.3330  179.0240  144.4100 C   0  0  0  0  0  2  0  0  0  0  0  0
  186.5330  177.5200  144.2550 C   0  0  0  0  0  2  0  0  0  0  0  0
  188.7280  176.8290  145.2420 C   0  0  0  0  0  3  0  0  0  0  0  0
  192.7090  176.4170  138.1890 C   0  0  0  0  0  2  0  0  0  0  0  0
  193.7880  174.1860  137.9540 N   0  0  0  0  0  0  0  0  0  0  0  0
  191.3580  174.5030  137.6410 C   0  0  0  0  0  2  0  0  0  0  0  0
  192.6380  173.8460  137.1150 C   0  0  0  0  0  2  0  0  0  0  0  0
  194.0060  175.6410  137.9230 C   0  0  0  0  0  2  0  0  0  0  0  0
  191.6470  175.5220  138.6590 N   0  0  0  0  0  0  0  0  0  0  0  0
  194.9650  173.4650  137.4610 C   0  0  0  0  0  3  0  0  0  0  0  0
  195.4810  172.4850  138.5020 C   0  0  0  0  0  1  0  0  0  0  0  0
  196.0890  174.3770  136.9850 C   0  0  0  0  0  1  0  0  0  0  0  0
  183.8060  178.8860  144.9550 C   0  0  0  0  0  2  0  0  0  0  0  0
  182.4030  179.2850  144.5240 C   0  0  0  0  0  2  0  0  0  0  0  0
  181.5940  178.0480  144.1570 C   0  0  0  0  0  2  0  0  0  0  0  0
  180.6800  179.7720  140.9190 C   0  0  2  0  0  3  0  0  0  0  0  0
  179.1680  177.1200  143.5530 F   0  0  0  0  0  0  0  0  0  0  0  0
  179.6330  177.8770  142.4930 C   0  0  2  0  0  0  0  0  0  0  0  0
  179.2850  177.1440  141.3150 O   0  0  0  0  0  0  0  0  0  0  0  0
  181.1570  178.0940  142.6930 C   0  0  1  0  0  3  0  0  0  0  0  0
  179.0090  181.3840  141.8160 C   0  0  0  0  0  1  0  0  0  0  0  0
  180.7430  178.6910  139.8470 C   0  0  0  0  0  2  0  0  0  0  0  0
  178.9350  177.3110  139.0060 C   0  0  0  0  0  1  0  0  0  0  0  0
  179.9940  177.3510  140.0860 C   0  0  2  0  0  0  0  0  0  0  0  0
  181.6040  179.4110  142.0650 C   0  0  0  0  0  2  0  0  0  0  0  0
  178.9310  179.1070  142.5340 O   0  0  0  0  0  0  0  0  0  0  0  0
  179.2460  179.9380  141.4280 C   0  0  2  0  0  3  0  0  0  0  0  0
  180.6550  174.7770  140.3040 C   0  0  0  0  0  1  0  0  0  0  0  0
  180.9690  176.1800  139.8000 C   0  0  0  0  0  0  0  0  0  0  0  0
  182.4440  176.4900  139.6250 C   0  0  0  0  0  2  0  0  0  0  0  0
  181.5800  176.1580  138.4160 C   0  0  0  0  0  2  0  0  0  0  0  0
  1 22  1  0  0  0  0
  2 18  1  0  0  0  0
  3 19  1  0  0  0  0
  3  8  1  1  0  0  0
  4 11  1  0  0  0  0
  5  4  2  0  0  0  0
  6 17  1  0  0  0  0
  6 11  2  0  0  0  0
  7  6  1  0  0  0  0
  9  7  2  0  0  0  0
  9  5  1  0  0  0  0
 10 20  1  0  0  0  0
 11 23  1  0  0  0  0
 12 26  1  0  0  0  0
 12 27  1  0  0  0  0
 13  1  1  0  0  0  0
 14 12  2  0  0  0  0
 16 21  1  0  0  0  0
 17 15  1  0  0  0  0
 18 16  1  0  0  0  0
 19  2  1  0  0  0  0
 20 27  2  0  0  0  0
 21 25  1  0  0  0  0
 21 37  1  1  0  0  0
 22 14  1  0  0  0  0
 22 10  2  0  0  0  0
 23  3  1  0  0  0  0
 24 15  1  1  0  0  0
 24 13  1  0  0  0  0
 26 25  1  0  0  0  0
 28 33  1  0  0  0  0
 30 33  1  0  0  0  0
 31 30  1  0  0  0  0
 31 29  1  0  0  0  0
 32 29  1  0  0  0  0
 32 28  1  0  0  0  0
 33 24  1  0  0  0  0
 34 29  1  0  0  0  0
 34 35  1  0  0  0  0
 36 34  1  0  0  0  0
 38 37  1  0  0  0  0
 39 38  1  0  0  0  0
 40 46  1  6  0  0  0
 40 51  1  0  0  0  0
 40 49  1  0  0  0  0
 42 50  1  0  0  0  0
 42 44  1  0  0  0  0
 42 41  1  1  0  0  0
 43 42  1  0  0  0  0
 44 39  1  1  0  0  0
 46 48  1  0  0  0  0
 48 47  1  6  0  0  0
 48 43  1  0  0  0  0
 49 44  1  0  0  0  0
 51 45  1  1  0  0  0
 51 50  1  0  0  0  0
 53 48  1  0  0  0  0
 53 52  1  0  0  0  0
 54 53  1  0  0  0  0
 55 54  1  0  0  0  0
 55 53  1  0  0  0  0
M  END
>  <MODEL>
4

>  <REMARK>
 VINA RESULT:      -5.5      3.742      7.000
  Name = 
  7 active torsions:
  status: ('A' for Active; 'I' for Inactive)
    1  A    between atoms: C_7  and  C_20
    2  A    between atoms: C_7  and  C_22
    3  A    between atoms: C_8  and  C_22
    4  A    between atoms: C_8  and  C_43
    5  A    between atoms: C_10  and  N_32
    6  A    between atoms: C_12  and  C_38
    7  A    between atoms: C_49  and  N_52
                            x       y       z     vdW  Elec       q    Type
                         _______ _______ _______ _____ _____    ______ ____

>  <TORSDO>
F 7

$$$$
