=
 OpenBabel11052416543D

 32 35  0  0  1  0  0  0  0  0999 V2000
  186.5580  178.6910  141.3310 N   0  0  1  0  0  0  0  0  0  0  0  0
  186.2390  177.4930  146.0650 C   0  0  0  0  0  3  0  0  0  0  0  0
  185.2130  178.3310  146.1870 C   0  0  0  0  0  3  0  0  0  0  0  0
  184.3750  179.1560  140.2480 C   0  0  0  0  0  0  0  0  0  0  0  0
  182.9420  179.2380  140.3290 N   0  0  0  0  0  0  0  0  0  0  0  0
  188.7140  177.9400  140.5860 C   0  0  2  0  0  3  0  0  0  0  0  0
  188.6770  177.8930  142.1040 C   0  0  2  0  0  3  0  0  0  0  0  0
  186.8160  177.1810  144.7200 C   0  0  0  0  0  2  0  0  0  0  0  0
  187.1890  177.9200  142.3920 C   0  0  1  0  0  3  0  0  0  0  0  0
  185.3350  178.9890  143.7270 C   0  0  1  0  0  3  0  0  0  0  0  0
  184.4550  178.2920  142.6710 C   0  0  1  0  0  3  0  0  0  0  0  0
  184.6970  179.0250  145.0460 N   0  0  0  0  0  2  0  0  0  0  0  0
  186.7630  178.3900  143.7840 C   0  0  1  0  0  3  0  0  0  0  0  0
  183.0160  178.8300  142.7150 C   0  0  0  0  0  2  0  0  0  0  0  0
  187.2790  178.2280  140.1500 C   0  0  0  0  0  2  0  0  0  0  0  0
  184.9890  179.7460  139.3180 O   0  0  0  0  0  0  0  0  0  0  0  0
  185.1350  178.3080  141.2530 C   0  0  2  0  0  3  0  0  0  0  0  0
  182.2770  178.5230  141.4250 C   0  0  1  0  0  3  0  0  0  0  0  0
  180.6850  179.9450  142.5020 O   0  0  0  0  0  1  0  0  0  0  0  0
  180.8090  178.9010  141.5880 C   0  0  0  0  0  2  0  0  0  0  0  0
  181.8920  179.1110  138.1220 C   0  0  0  0  0  1  0  0  0  0  0  0
  182.1920  179.9910  139.3230 C   0  0  0  0  0  2  0  0  0  0  0  0
  189.1690  176.6010  140.0370 C   0  0  0  0  0  2  0  0  0  0  0  0
  190.4750  176.3360  140.4500 O   0  0  0  0  0  1  0  0  0  0  0  0
  189.3230  179.0870  142.6320 N   0  0  0  0  0  2  0  0  0  0  0  0
  190.5390  178.6560  143.3030 C   0  0  0  0  0  2  0  0  0  0  0  0
  190.2890  178.5180  144.7970 C   0  0  0  0  0  2  0  0  0  0  0  0
  190.5040  177.0840  145.2580 C   0  0  0  0  0  2  0  0  0  0  0  0
  190.2190  176.9530  146.7500 C   0  0  0  0  0  2  0  0  0  0  0  0
  191.3480  176.2420  147.4880 C   0  0  2  0  0  3  0  0  0  0  0  0
  192.1140  177.1540  148.2160 O   0  0  0  0  0  1  0  0  0  0  0  0
  192.2330  175.4680  146.5270 C   0  0  0  0  0  1  0  0  0  0  0  0
  1 15  1  6  0  0  0
  1  9  1  0  0  0  0
  2  3  2  0  0  0  0
  4  5  1  0  0  0  0
  4 17  1  0  0  0  0
  5 18  1  0  0  0  0
  6 23  1  6  0  0  0
  6  7  1  0  0  0  0
  7  9  1  0  0  0  0
  7 25  1  1  0  0  0
  8  2  1  0  0  0  0
  9 13  1  0  0  0  0
 10 13  1  0  0  0  0
 10 12  1  0  0  0  0
 11 14  1  0  0  0  0
 11 10  1  0  0  0  0
 12  3  1  0  0  0  0
 13  8  1  0  0  0  0
 15  6  1  0  0  0  0
 16  4  2  0  0  0  0
 17  1  1  0  0  0  0
 17 11  1  0  0  0  0
 18 20  1  0  0  0  0
 18 14  1  0  0  0  0
 20 19  1  0  0  0  0
 21 22  1  0  0  0  0
 22  5  1  0  0  0  0
 23 24  1  0  0  0  0
 25 26  1  0  0  0  0
 26 27  1  0  0  0  0
 27 28  1  0  0  0  0
 28 29  1  0  0  0  0
 29 30  1  0  0  0  0
 30 31  1  0  0  0  0
 32 30  1  0  0  0  0
M  END
>  <MODEL>
1

>  <REMARK>
 VINA RESULT:      -7.5      0.000      0.000
  Name = 
  9 active torsions:
  status: ('A' for Active; 'I' for Inactive)
    1  A    between atoms: C_1  and  C_24
    2  A    between atoms: C_2  and  C_10
    3  A    between atoms: C_2  and  C_12
    4  A    between atoms: N_7  and  C_22
    5  A    between atoms: C_8  and  C_19
    6  A    between atoms: C_9  and  N_21
    7  A    between atoms: C_10  and  C_24
    8  A    between atoms: C_12  and  N_21
    9  A    between atoms: C_30  and  C_32
                            x       y       z     vdW  Elec       q    Type
                         _______ _______ _______ _____ _____    ______ ____

>  <TORSDO>
F 9

$$$$
=
 OpenBabel11052416543D

 32 35  0  0  1  0  0  0  0  0999 V2000
  190.8130  177.2990  142.0530 N   0  0  1  0  0  0  0  0  0  0  0  0
  185.9930  178.0500  142.4460 C   0  0  0  0  0  3  0  0  0  0  0  0
  186.0140  178.6700  141.2690 C   0  0  0  0  0  3  0  0  0  0  0  0
  191.5950  176.8960  139.7330 C   0  0  0  0  0  0  0  0  0  0  0  0
  191.3040  176.7470  138.3330 N   0  0  0  0  0  0  0  0  0  0  0  0
  191.5890  176.7120  144.2480 C   0  0  2  0  0  3  0  0  0  0  0  0
  190.1790  177.2680  144.3600 C   0  0  2  0  0  3  0  0  0  0  0  0
  187.2050  177.3370  142.9570 C   0  0  0  0  0  2  0  0  0  0  0  0
  189.6690  177.1410  142.9380 C   0  0  1  0  0  3  0  0  0  0  0  0
  188.5240  178.3030  141.0150 C   0  0  1  0  0  3  0  0  0  0  0  0
  189.0780  177.0980  140.2280 C   0  0  1  0  0  3  0  0  0  0  0  0
  187.2220  178.7470  140.5060 N   0  0  0  0  0  2  0  0  0  0  0  0
  188.4970  178.0420  142.5420 C   0  0  1  0  0  3  0  0  0  0  0  0
  188.9870  177.3430  138.7140 C   0  0  0  0  0  2  0  0  0  0  0  0
  191.8450  176.5410  142.7530 C   0  0  0  0  0  2  0  0  0  0  0  0
  192.7690  177.1660  140.1070 O   0  0  0  0  0  0  0  0  0  0  0  0
  190.4960  176.6700  140.7560 C   0  0  2  0  0  3  0  0  0  0  0  0
  189.9240  176.4210  137.9530 C   0  0  1  0  0  3  0  0  0  0  0  0
  189.1890  177.8450  136.1790 O   0  0  0  0  0  1  0  0  0  0  0  0
  189.6610  176.5640  136.4580 C   0  0  0  0  0  2  0  0  0  0  0  0
  193.0910  175.5670  137.1500 C   0  0  0  0  0  1  0  0  0  0  0  0
  192.3710  176.8890  137.3430 C   0  0  0  0  0  2  0  0  0  0  0  0
  191.6730  175.3700  144.9510 C   0  0  0  0  0  2  0  0  0  0  0  0
  192.1850  175.5380  146.2370 O   0  0  0  0  0  1  0  0  0  0  0  0
  190.2500  178.6680  144.7550 N   0  0  0  0  0  2  0  0  0  0  0  0
  189.7800  178.7490  146.1290 C   0  0  0  0  0  2  0  0  0  0  0  0
  188.9900  177.4990  146.4850 C   0  0  0  0  0  2  0  0  0  0  0  0
  187.7090  177.8530  147.2250 C   0  0  0  0  0  2  0  0  0  0  0  0
  186.5000  177.6900  146.3110 C   0  0  0  0  0  2  0  0  0  0  0  0
  185.7220  178.9920  146.1520 C   0  0  2  0  0  3  0  0  0  0  0  0
  185.6810  179.6920  147.3600 O   0  0  0  0  0  1  0  0  0  0  0  0
  184.3120  178.7350  145.6510 C   0  0  0  0  0  1  0  0  0  0  0  0
  1 15  1  1  0  0  0
  1  9  1  0  0  0  0
  2  8  1  0  0  0  0
  3  2  2  0  0  0  0
  4 16  2  0  0  0  0
  4 17  1  0  0  0  0
  5  4  1  0  0  0  0
  6  7  1  0  0  0  0
  6 23  1  1  0  0  0
  7 25  1  6  0  0  0
  9  7  1  0  0  0  0
 10 13  1  0  0  0  0
 11 17  1  0  0  0  0
 11 10  1  0  0  0  0
 12 10  1  0  0  0  0
 12  3  1  0  0  0  0
 13  9  1  0  0  0  0
 13  8  1  0  0  0  0
 14 11  1  0  0  0  0
 15  6  1  0  0  0  0
 17  1  1  0  0  0  0
 18  5  1  0  0  0  0
 18 14  1  0  0  0  0
 19 20  1  0  0  0  0
 20 18  1  0  0  0  0
 21 22  1  0  0  0  0
 22  5  1  0  0  0  0
 23 24  1  0  0  0  0
 25 26  1  0  0  0  0
 26 27  1  0  0  0  0
 27 28  1  0  0  0  0
 29 28  1  0  0  0  0
 30 29  1  0  0  0  0
 30 31  1  0  0  0  0
 32 30  1  0  0  0  0
M  END
>  <MODEL>
2

>  <REMARK>
 VINA RESULT:      -6.9      2.960      6.465
  Name = 
  9 active torsions:
  status: ('A' for Active; 'I' for Inactive)
    1  A    between atoms: C_1  and  C_24
    2  A    between atoms: C_2  and  C_10
    3  A    between atoms: C_2  and  C_12
    4  A    between atoms: N_7  and  C_22
    5  A    between atoms: C_8  and  C_19
    6  A    between atoms: C_9  and  N_21
    7  A    between atoms: C_10  and  C_24
    8  A    between atoms: C_12  and  N_21
    9  A    between atoms: C_30  and  C_32
                            x       y       z     vdW  Elec       q    Type
                         _______ _______ _______ _____ _____    ______ ____

>  <TORSDO>
F 9

$$$$
=
 OpenBabel11052416543D

 32 35  0  0  1  0  0  0  0  0999 V2000
  189.4470  177.5350  140.8630 N   0  0  1  0  0  0  0  0  0  0  0  0
  184.9800  178.3940  142.6670 C   0  0  0  0  0  3  0  0  0  0  0  0
  184.7170  179.1480  141.6020 C   0  0  0  0  0  3  0  0  0  0  0  0
  189.5350  177.3840  138.3880 C   0  0  0  0  0  0  0  0  0  0  0  0
  188.8620  177.4110  137.1180 N   0  0  0  0  0  0  0  0  0  0  0  0
  190.7560  176.6670  142.6790 C   0  0  2  0  0  3  0  0  0  0  0  0
  189.4700  177.2520  143.2390 C   0  0  2  0  0  3  0  0  0  0  0  0
  186.2370  177.5850  142.7400 C   0  0  0  0  0  2  0  0  0  0  0  0
  188.5830  177.3110  142.0120 C   0  0  1  0  0  3  0  0  0  0  0  0
  187.0320  178.7310  140.6180 C   0  0  1  0  0  3  0  0  0  0  0  0
  187.2690  177.6100  139.5870 C   0  0  1  0  0  3  0  0  0  0  0  0
  185.6720  179.2750  140.5440 N   0  0  0  0  0  2  0  0  0  0  0  0
  187.4080  178.2910  142.0560 C   0  0  1  0  0  3  0  0  0  0  0  0
  186.7830  178.0350  138.1930 C   0  0  0  0  0  2  0  0  0  0  0  0
  190.5800  176.6660  141.1630 C   0  0  0  0  0  2  0  0  0  0  0  0
  190.7820  177.5690  138.4450 O   0  0  0  0  0  0  0  0  0  0  0  0
  188.7470  177.0750  139.6490 C   0  0  2  0  0  3  0  0  0  0  0  0
  187.4130  177.1790  137.1080 C   0  0  1  0  0  3  0  0  0  0  0  0
  185.3720  177.4340  135.8890 O   0  0  0  0  0  1  0  0  0  0  0  0
  186.7590  177.5060  135.7700 C   0  0  0  0  0  2  0  0  0  0  0  0
  190.1590  176.3190  135.3540 C   0  0  0  0  0  1  0  0  0  0  0  0
  189.6230  177.6350  135.8890 C   0  0  0  0  0  2  0  0  0  0  0  0
  190.9430  175.2490  143.1860 C   0  0  0  0  0  2  0  0  0  0  0  0
  191.9890  175.2070  144.1080 O   0  0  0  0  0  1  0  0  0  0  0  0
  189.7380  178.5920  143.7430 N   0  0  0  0  0  2  0  0  0  0  0  0
  189.9430  178.4770  145.1780 C   0  0  0  0  0  2  0  0  0  0  0  0
  189.0520  177.3840  145.7460 C   0  0  0  0  0  2  0  0  0  0  0  0
  188.0580  177.9520  146.7470 C   0  0  0  0  0  2  0  0  0  0  0  0
  186.6280  177.6650  146.3040 C   0  0  0  0  0  2  0  0  0  0  0  0
  185.7710  178.9260  146.2820 C   0  0  2  0  0  3  0  0  0  0  0  0
  185.9060  179.6340  147.4780 O   0  0  0  0  0  1  0  0  0  0  0  0
  184.3100  178.5950  146.0350 C   0  0  0  0  0  1  0  0  0  0  0  0
  1 15  1  1  0  0  0
  1  9  1  0  0  0  0
  2  8  1  0  0  0  0
  3  2  2  0  0  0  0
  4 16  2  0  0  0  0
  4 17  1  0  0  0  0
  5  4  1  0  0  0  0
  6 23  1  1  0  0  0
  6  7  1  0  0  0  0
  7 25  1  6  0  0  0
  9 13  1  0  0  0  0
  9  7  1  0  0  0  0
 10 13  1  0  0  0  0
 11 17  1  0  0  0  0
 11 10  1  0  0  0  0
 12 10  1  0  0  0  0
 12  3  1  0  0  0  0
 13  8  1  0  0  0  0
 14 11  1  0  0  0  0
 15  6  1  0  0  0  0
 17  1  1  0  0  0  0
 18  5  1  0  0  0  0
 18 14  1  0  0  0  0
 20 19  1  0  0  0  0
 20 18  1  0  0  0  0
 21 22  1  0  0  0  0
 22  5  1  0  0  0  0
 23 24  1  0  0  0  0
 25 26  1  0  0  0  0
 26 27  1  0  0  0  0
 27 28  1  0  0  0  0
 29 28  1  0  0  0  0
 30 29  1  0  0  0  0
 30 31  1  0  0  0  0
 32 30  1  0  0  0  0
M  END
>  <MODEL>
3

>  <REMARK>
 VINA RESULT:      -6.9      2.684      5.232
  Name = 
  9 active torsions:
  status: ('A' for Active; 'I' for Inactive)
    1  A    between atoms: C_1  and  C_24
    2  A    between atoms: C_2  and  C_10
    3  A    between atoms: C_2  and  C_12
    4  A    between atoms: N_7  and  C_22
    5  A    between atoms: C_8  and  C_19
    6  A    between atoms: C_9  and  N_21
    7  A    between atoms: C_10  and  C_24
    8  A    between atoms: C_12  and  N_21
    9  A    between atoms: C_30  and  C_32
                            x       y       z     vdW  Elec       q    Type
                         _______ _______ _______ _____ _____    ______ ____

>  <TORSDO>
F 9

$$$$
=
 OpenBabel11052416543D

 32 35  0  0  1  0  0  0  0  0999 V2000
  182.7310  179.2160  141.9740 N   0  0  1  0  0  0  0  0  0  0  0  0
  184.8390  177.8130  137.7860 C   0  0  0  0  0  3  0  0  0  0  0  0
  186.0060  178.2520  138.2490 C   0  0  0  0  0  3  0  0  0  0  0  0
  184.1730  178.9580  143.9760 C   0  0  0  0  0  0  0  0  0  0  0  0
  185.4200  178.5500  144.5640 N   0  0  0  0  0  0  0  0  0  0  0  0
  180.3660  179.2630  141.5600 C   0  0  2  0  0  3  0  0  0  0  0  0
  181.0940  179.1520  140.2310 C   0  0  2  0  0  3  0  0  0  0  0  0
  183.6340  177.7610  138.6720 C   0  0  0  0  0  2  0  0  0  0  0  0
  182.4660  178.6660  140.6530 C   0  0  1  0  0  3  0  0  0  0  0  0
  184.9580  178.9990  140.4500 C   0  0  1  0  0  3  0  0  0  0  0  0
  184.9720  178.0850  141.6910 C   0  0  1  0  0  3  0  0  0  0  0  0
  186.1150  178.7710  139.5790 N   0  0  0  0  0  2  0  0  0  0  0  0
  183.6180  178.9140  139.6770 C   0  0  1  0  0  3  0  0  0  0  0  0
  186.3490  178.1050  142.3720 C   0  0  0  0  0  2  0  0  0  0  0  0
  181.4370  179.0660  142.6300 C   0  0  0  0  0  2  0  0  0  0  0  0
  183.4140  179.7530  144.5950 O   0  0  0  0  0  0  0  0  0  0  0  0
  183.7500  178.3800  142.6360 C   0  0  2  0  0  3  0  0  0  0  0  0
  186.2590  177.6140  143.8050 C   0  0  1  0  0  3  0  0  0  0  0  0
  188.6000  177.9450  143.4560 O   0  0  0  0  0  1  0  0  0  0  0  0
  187.6660  177.4690  144.3740 C   0  0  0  0  0  2  0  0  0  0  0  0
  185.1010  178.2410  146.9700 C   0  0  0  0  0  1  0  0  0  0  0  0
  185.8030  179.0410  145.8870 C   0  0  0  0  0  2  0  0  0  0  0  0
  179.3130  178.1760  141.6670 C   0  0  0  0  0  2  0  0  0  0  0  0
  179.4580  177.4900  142.8720 O   0  0  0  0  0  1  0  0  0  0  0  0
  181.1820  180.4740  139.6260 N   0  0  0  0  0  2  0  0  0  0  0  0
  180.4810  180.4110  138.3540 C   0  0  0  0  0  2  0  0  0  0  0  0
  181.1080  181.3800  137.3640 C   0  0  0  0  0  2  0  0  0  0  0  0
  180.1570  182.5210  137.0340 C   0  0  0  0  0  2  0  0  0  0  0  0
  180.8150  183.5090  136.0780 C   0  0  0  0  0  2  0  0  0  0  0  0
  181.1840  184.8160  136.7690 C   0  0  2  0  0  3  0  0  0  0  0  0
  182.3070  184.6450  137.5810 O   0  0  0  0  0  1  0  0  0  0  0  0
  180.0250  185.3520  137.5900 C   0  0  0  0  0  1  0  0  0  0  0  0
  1 15  1  1  0  0  0
  1 17  1  0  0  0  0
  2  3  2  0  0  0  0
  2  8  1  0  0  0  0
  3 12  1  0  0  0  0
  4  5  1  0  0  0  0
  4 16  2  0  0  0  0
  5 22  1  0  0  0  0
  6 23  1  6  0  0  0
  6 15  1  0  0  0  0
  7 25  1  1  0  0  0
  7  9  1  0  0  0  0
  7  6  1  0  0  0  0
  8 13  1  0  0  0  0
  9  1  1  0  0  0  0
 10 11  1  0  0  0  0
 11 14  1  0  0  0  0
 11 17  1  0  0  0  0
 12 10  1  0  0  0  0
 13 10  1  0  0  0  0
 13  9  1  0  0  0  0
 14 18  1  0  0  0  0
 17  4  1  0  0  0  0
 18 20  1  0  0  0  0
 18  5  1  0  0  0  0
 19 20  1  0  0  0  0
 22 21  1  0  0  0  0
 23 24  1  0  0  0  0
 26 25  1  0  0  0  0
 27 26  1  0  0  0  0
 28 27  1  0  0  0  0
 29 30  1  0  0  0  0
 29 28  1  0  0  0  0
 30 31  1  0  0  0  0
 30 32  1  0  0  0  0
M  END
>  <MODEL>
4

>  <REMARK>
 VINA RESULT:      -6.7      2.859      9.296
  Name = 
  9 active torsions:
  status: ('A' for Active; 'I' for Inactive)
    1  A    between atoms: C_1  and  C_24
    2  A    between atoms: C_2  and  C_10
    3  A    between atoms: C_2  and  C_12
    4  A    between atoms: N_7  and  C_22
    5  A    between atoms: C_8  and  C_19
    6  A    between atoms: C_9  and  N_21
    7  A    between atoms: C_10  and  C_24
    8  A    between atoms: C_12  and  N_21
    9  A    between atoms: C_30  and  C_32
                            x       y       z     vdW  Elec       q    Type
                         _______ _______ _______ _____ _____    ______ ____

>  <TORSDO>
F 9

$$$$
=
 OpenBabel11052416543D

 32 35  0  0  1  0  0  0  0  0999 V2000
  190.5100  176.7290  142.5790 N   0  0  1  0  0  0  0  0  0  0  0  0
  186.3470  178.9860  141.3440 C   0  0  0  0  0  3  0  0  0  0  0  0
  185.7570  178.4330  142.4010 C   0  0  0  0  0  3  0  0  0  0  0  0
  190.8630  176.5100  145.0250 C   0  0  0  0  0  0  0  0  0  0  0  0
  190.4180  176.7530  146.3700 N   0  0  0  0  0  0  0  0  0  0  0  0
  191.9310  176.8210  140.6450 C   0  0  2  0  0  3  0  0  0  0  0  0
  190.5200  177.2100  140.2360 C   0  0  2  0  0  3  0  0  0  0  0  0
  187.8240  178.8630  141.1410 C   0  0  0  0  0  2  0  0  0  0  0  0
  189.8840  177.5640  141.5650 C   0  0  1  0  0  3  0  0  0  0  0  0
  187.9010  177.2360  143.0880 C   0  0  1  0  0  3  0  0  0  0  0  0
  188.8590  177.8520  144.1270 C   0  0  1  0  0  3  0  0  0  0  0  0
  186.5070  177.6300  143.3180 N   0  0  0  0  0  2  0  0  0  0  0  0
  188.3560  177.5160  141.6340 C   0  0  1  0  0  3  0  0  0  0  0  0
  188.3240  177.6550  145.5530 C   0  0  0  0  0  2  0  0  0  0  0  0
  191.9100  176.7550  142.1710 C   0  0  0  0  0  2  0  0  0  0  0  0
  191.7190  175.6120  144.7970 O   0  0  0  0  0  0  0  0  0  0  0  0
  190.3400  177.3780  143.8940 C   0  0  2  0  0  3  0  0  0  0  0  0
  189.4290  177.8170  146.5810 C   0  0  1  0  0  3  0  0  0  0  0  0
  187.4620  178.1150  147.9060 O   0  0  0  0  0  1  0  0  0  0  0  0
  188.8190  177.8050  147.9780 C   0  0  0  0  0  2  0  0  0  0  0  0
  192.2800  176.5780  147.9480 C   0  0  0  0  0  1  0  0  0  0  0  0
  190.9690  175.9730  147.4780 C   0  0  0  0  0  2  0  0  0  0  0  0
  192.9150  177.8780  140.1800 C   0  0  0  0  0  2  0  0  0  0  0  0
  193.6770  177.3850  139.1210 O   0  0  0  0  0  1  0  0  0  0  0  0
  189.8610  176.0540  139.6440 N   0  0  0  0  0  2  0  0  0  0  0  0
  190.3900  175.9020  138.2980 C   0  0  0  0  0  2  0  0  0  0  0  0
  189.3790  175.1810  137.4190 C   0  0  0  0  0  2  0  0  0  0  0  0
  188.6660  176.1550  136.4920 C   0  0  0  0  0  2  0  0  0  0  0  0
  189.3670  177.5080  136.4960 C   0  0  0  0  0  2  0  0  0  0  0  0
  188.4130  178.6460  136.8440 C   0  0  2  0  0  3  0  0  0  0  0  0
  189.0550  179.6050  137.6300 O   0  0  0  0  0  1  0  0  0  0  0  0
  187.1770  178.1300  137.5580 C   0  0  0  0  0  1  0  0  0  0  0  0
  1 15  1  6  0  0  0
  1 17  1  0  0  0  0
  2  3  2  0  0  0  0
  3 12  1  0  0  0  0
  4  5  1  0  0  0  0
  5 18  1  0  0  0  0
  5 22  1  0  0  0  0
  6 23  1  1  0  0  0
  6 15  1  0  0  0  0
  7 25  1  1  0  0  0
  7  6  1  0  0  0  0
  7  9  1  0  0  0  0
  8  2  1  0  0  0  0
  8 13  1  0  0  0  0
  9 13  1  0  0  0  0
  9  1  1  0  0  0  0
 10 12  1  0  0  0  0
 10 11  1  0  0  0  0
 11 14  1  0  0  0  0
 13 10  1  0  0  0  0
 14 18  1  0  0  0  0
 16  4  2  0  0  0  0
 17 11  1  0  0  0  0
 17  4  1  0  0  0  0
 18 20  1  0  0  0  0
 19 20  1  0  0  0  0
 22 21  1  0  0  0  0
 24 23  1  0  0  0  0
 26 25  1  0  0  0  0
 27 26  1  0  0  0  0
 28 29  1  0  0  0  0
 28 27  1  0  0  0  0
 29 30  1  0  0  0  0
 30 32  1  0  0  0  0
 30 31  1  0  0  0  0
M  END
>  <MODEL>
5

>  <REMARK>
 VINA RESULT:      -6.5      3.142      7.604
  Name = 
  9 active torsions:
  status: ('A' for Active; 'I' for Inactive)
    1  A    between atoms: C_1  and  C_24
    2  A    between atoms: C_2  and  C_10
    3  A    between atoms: C_2  and  C_12
    4  A    between atoms: N_7  and  C_22
    5  A    between atoms: C_8  and  C_19
    6  A    between atoms: C_9  and  N_21
    7  A    between atoms: C_10  and  C_24
    8  A    between atoms: C_12  and  N_21
    9  A    between atoms: C_30  and  C_32
                            x       y       z     vdW  Elec       q    Type
                         _______ _______ _______ _____ _____    ______ ____

>  <TORSDO>
F 9

$$$$
=
 OpenBabel11052416543D

 32 35  0  0  1  0  0  0  0  0999 V2000
  186.9620  178.5510  140.7020 N   0  0  1  0  0  0  0  0  0  0  0  0
  191.4600  176.7530  141.3950 C   0  0  0  0  0  3  0  0  0  0  0  0
  191.5150  177.3940  142.5600 C   0  0  0  0  0  3  0  0  0  0  0  0
  185.6270  178.7870  142.7800 C   0  0  0  0  0  0  0  0  0  0  0  0
  185.5090  178.6270  144.2040 N   0  0  0  0  0  0  0  0  0  0  0  0
  186.4640  178.2530  138.3720 C   0  0  2  0  0  3  0  0  0  0  0  0
  187.9490  178.0170  138.5890 C   0  0  2  0  0  3  0  0  0  0  0  0
  190.1880  176.7030  140.6090 C   0  0  0  0  0  2  0  0  0  0  0  0
  188.0210  177.7690  140.0830 C   0  0  1  0  0  3  0  0  0  0  0  0
  189.1750  178.3560  142.2480 C   0  0  1  0  0  3  0  0  0  0  0  0
  187.9390  177.6600  142.8530 C   0  0  1  0  0  3  0  0  0  0  0  0
  190.3850  178.1280  143.0430 N   0  0  0  0  0  2  0  0  0  0  0  0
  189.3780  177.9920  140.7560 C   0  0  1  0  0  3  0  0  0  0  0  0
  187.8290  177.9500  144.3580 C   0  0  0  0  0  2  0  0  0  0  0  0
  185.8570  178.3580  139.7690 C   0  0  0  0  0  2  0  0  0  0  0  0
  184.8570  179.5760  142.1680 O   0  0  0  0  0  0  0  0  0  0  0  0
  186.6430  177.9570  142.0140 C   0  0  2  0  0  3  0  0  0  0  0  0
  186.4220  177.6870  144.8650 C   0  0  1  0  0  3  0  0  0  0  0  0
  187.7130  177.7860  146.8740 O   0  0  0  0  0  1  0  0  0  0  0  0
  186.4080  177.8010  146.3850 C   0  0  0  0  0  2  0  0  0  0  0  0
  183.1160  178.7510  144.7040 C   0  0  0  0  0  1  0  0  0  0  0  0
  184.4840  179.3650  144.9420 C   0  0  0  0  0  2  0  0  0  0  0  0
  185.8570  177.0820  137.6230 C   0  0  0  0  0  2  0  0  0  0  0  0
  186.1300  177.1950  136.2600 O   0  0  0  0  0  1  0  0  0  0  0  0
  188.6800  179.2270  138.2350 N   0  0  0  0  0  2  0  0  0  0  0  0
  189.3850  178.9530  136.9930 C   0  0  0  0  0  2  0  0  0  0  0  0
  189.8340  177.5010  136.9580 C   0  0  0  0  0  2  0  0  0  0  0  0
  189.6520  176.9040  135.5700 C   0  0  0  0  0  2  0  0  0  0  0  0
  189.6720  175.3810  135.6350 C   0  0  0  0  0  2  0  0  0  0  0  0
  189.1920  174.8590  136.9850 C   0  0  2  0  0  3  0  0  0  0  0  0
  190.1820  174.0840  137.5930 O   0  0  0  0  0  1  0  0  0  0  0  0
  187.9140  174.0530  136.8420 C   0  0  0  0  0  1  0  0  0  0  0  0
  1 15  1  6  0  0  0
  1 17  1  0  0  0  0
  2  3  2  0  0  0  0
  3 12  1  0  0  0  0
  4  5  1  0  0  0  0
  5 18  1  0  0  0  0
  5 22  1  0  0  0  0
  6 23  1  1  0  0  0
  6  7  1  0  0  0  0
  6 15  1  0  0  0  0
  7 25  1  1  0  0  0
  7  9  1  0  0  0  0
  8 13  1  0  0  0  0
  8  2  1  0  0  0  0
  9  1  1  0  0  0  0
  9 13  1  0  0  0  0
 10 11  1  0  0  0  0
 10 12  1  0  0  0  0
 11 14  1  0  0  0  0
 13 10  1  0  0  0  0
 14 18  1  0  0  0  0
 16  4  2  0  0  0  0
 17  4  1  0  0  0  0
 17 11  1  0  0  0  0
 18 20  1  0  0  0  0
 20 19  1  0  0  0  0
 21 22  1  0  0  0  0
 24 23  1  0  0  0  0
 26 25  1  0  0  0  0
 27 26  1  0  0  0  0
 28 29  1  0  0  0  0
 28 27  1  0  0  0  0
 29 30  1  0  0  0  0
 30 31  1  0  0  0  0
 32 30  1  0  0  0  0
M  END
>  <MODEL>
6

>  <REMARK>
 VINA RESULT:      -6.4      2.734      6.402
  Name = 
  9 active torsions:
  status: ('A' for Active; 'I' for Inactive)
    1  A    between atoms: C_1  and  C_24
    2  A    between atoms: C_2  and  C_10
    3  A    between atoms: C_2  and  C_12
    4  A    between atoms: N_7  and  C_22
    5  A    between atoms: C_8  and  C_19
    6  A    between atoms: C_9  and  N_21
    7  A    between atoms: C_10  and  C_24
    8  A    between atoms: C_12  and  N_21
    9  A    between atoms: C_30  and  C_32
                            x       y       z     vdW  Elec       q    Type
                         _______ _______ _______ _____ _____    ______ ____

>  <TORSDO>
F 9

$$$$
=
 OpenBabel11052416543D

 32 35  0  0  1  0  0  0  0  0999 V2000
  188.3770  177.9550  141.5410 N   0  0  1  0  0  0  0  0  0  0  0  0
  191.6800  175.9030  144.5110 C   0  0  0  0  0  3  0  0  0  0  0  0
  191.2920  176.7280  145.4800 C   0  0  0  0  0  3  0  0  0  0  0  0
  186.2890  178.6670  142.6760 C   0  0  0  0  0  0  0  0  0  0  0  0
  185.4990  178.7680  143.8740 N   0  0  0  0  0  0  0  0  0  0  0  0
  188.9760  177.3060  139.3080 C   0  0  2  0  0  3  0  0  0  0  0  0
  190.1300  176.9770  140.2400 C   0  0  2  0  0  3  0  0  0  0  0  0
  190.9290  175.8330  143.2190 C   0  0  0  0  0  2  0  0  0  0  0  0
  189.4600  176.9850  141.5990 C   0  0  1  0  0  3  0  0  0  0  0  0
  189.5550  177.8300  143.9740 C   0  0  1  0  0  3  0  0  0  0  0  0
  188.0860  177.3640  143.9790 C   0  0  1  0  0  3  0  0  0  0  0  0
  190.2040  177.6340  145.2750 N   0  0  0  0  0  2  0  0  0  0  0  0
  190.3650  177.1960  142.8150 C   0  0  1  0  0  3  0  0  0  0  0  0
  187.3380  177.9190  145.2020 C   0  0  0  0  0  2  0  0  0  0  0  0
  187.8160  177.7050  140.2180 C   0  0  0  0  0  2  0  0  0  0  0  0
  186.0300  179.4060  141.6870 O   0  0  0  0  0  0  0  0  0  0  0  0
  187.3940  177.6290  142.5920 C   0  0  2  0  0  3  0  0  0  0  0  0
  185.8350  177.8770  144.9910 C   0  0  1  0  0  3  0  0  0  0  0  0
  185.8790  179.2190  146.9690 O   0  0  0  0  0  1  0  0  0  0  0  0
  185.1370  178.2530  146.2930 C   0  0  0  0  0  2  0  0  0  0  0  0
  183.0810  179.0150  143.5950 C   0  0  0  0  0  1  0  0  0  0  0  0
  184.3840  179.7130  143.9400 C   0  0  0  0  0  2  0  0  0  0  0  0
  188.6040  176.0820  138.4910 C   0  0  0  0  0  2  0  0  0  0  0  0
  188.9530  176.2780  137.1550 O   0  0  0  0  0  1  0  0  0  0  0  0
  191.1270  178.0350  140.1540 N   0  0  0  0  0  2  0  0  0  0  0  0
  192.3950  177.4040  139.8280 C   0  0  0  0  0  2  0  0  0  0  0  0
  192.1820  176.3080  138.7950 C   0  0  0  0  0  2  0  0  0  0  0  0
  193.2340  176.3780  137.6970 C   0  0  0  0  0  2  0  0  0  0  0  0
  193.7280  174.9810  137.3400 C   0  0  0  0  0  2  0  0  0  0  0  0
  195.2110  174.8020  137.6460 C   0  0  2  0  0  3  0  0  0  0  0  0
  195.9150  174.4600  136.4900 O   0  0  0  0  0  1  0  0  0  0  0  0
  195.4300  173.7510  138.7190 C   0  0  0  0  0  1  0  0  0  0  0  0
  1 15  1  6  0  0  0
  1  9  1  0  0  0  0
  1 17  1  0  0  0  0
  2  3  2  0  0  0  0
  4  5  1  0  0  0  0
  5 22  1  0  0  0  0
  5 18  1  0  0  0  0
  6 23  1  1  0  0  0
  6 15  1  0  0  0  0
  6  7  1  0  0  0  0
  7 25  1  1  0  0  0
  7  9  1  0  0  0  0
  8  2  1  0  0  0  0
  9 13  1  0  0  0  0
 10 11  1  0  0  0  0
 10 12  1  0  0  0  0
 11 14  1  0  0  0  0
 12  3  1  0  0  0  0
 13  8  1  0  0  0  0
 13 10  1  0  0  0  0
 16  4  2  0  0  0  0
 17  4  1  0  0  0  0
 17 11  1  0  0  0  0
 18 14  1  0  0  0  0
 18 20  1  0  0  0  0
 20 19  1  0  0  0  0
 21 22  1  0  0  0  0
 24 23  1  0  0  0  0
 26 25  1  0  0  0  0
 27 26  1  0  0  0  0
 28 27  1  0  0  0  0
 29 30  1  0  0  0  0
 29 28  1  0  0  0  0
 30 32  1  0  0  0  0
 31 30  1  0  0  0  0
M  END
>  <MODEL>
7

>  <REMARK>
 VINA RESULT:      -6.3      3.252      5.713
  Name = 
  9 active torsions:
  status: ('A' for Active; 'I' for Inactive)
    1  A    between atoms: C_1  and  C_24
    2  A    between atoms: C_2  and  C_10
    3  A    between atoms: C_2  and  C_12
    4  A    between atoms: N_7  and  C_22
    5  A    between atoms: C_8  and  C_19
    6  A    between atoms: C_9  and  N_21
    7  A    between atoms: C_10  and  C_24
    8  A    between atoms: C_12  and  N_21
    9  A    between atoms: C_30  and  C_32
                            x       y       z     vdW  Elec       q    Type
                         _______ _______ _______ _____ _____    ______ ____

>  <TORSDO>
F 9

$$$$
=
 OpenBabel11052416543D

 32 35  0  0  1  0  0  0  0  0999 V2000
  189.3560  177.6150  141.3170 N   0  0  1  0  0  0  0  0  0  0  0  0
  184.9270  178.3790  143.2530 C   0  0  0  0  0  3  0  0  0  0  0  0
  184.6460  179.1930  142.2390 C   0  0  0  0  0  3  0  0  0  0  0  0
  189.3960  177.6060  138.8370 C   0  0  0  0  0  0  0  0  0  0  0  0
  188.6990  177.7070  137.5840 N   0  0  0  0  0  0  0  0  0  0  0  0
  190.6970  176.6410  143.0550 C   0  0  2  0  0  3  0  0  0  0  0  0
  189.4240  177.1960  143.6720 C   0  0  2  0  0  3  0  0  0  0  0  0
  186.1820  177.5650  143.2560 C   0  0  0  0  0  2  0  0  0  0  0  0
  188.5130  177.3280  142.4680 C   0  0  1  0  0  3  0  0  0  0  0  0
  186.9400  178.8280  141.1880 C   0  0  1  0  0  3  0  0  0  0  0  0
  187.1540  177.7680  140.0900 C   0  0  1  0  0  3  0  0  0  0  0  0
  185.5810  179.3780  141.1710 N   0  0  0  0  0  2  0  0  0  0  0  0
  187.3430  178.3060  142.5900 C   0  0  1  0  0  3  0  0  0  0  0  0
  186.6420  178.2730  138.7320 C   0  0  0  0  0  2  0  0  0  0  0  0
  190.4920  176.7280  141.5450 C   0  0  0  0  0  2  0  0  0  0  0  0
  190.6440  177.7840  138.8800 O   0  0  0  0  0  0  0  0  0  0  0  0
  188.6310  177.2270  140.0930 C   0  0  2  0  0  3  0  0  0  0  0  0
  187.2480  177.4790  137.5880 C   0  0  1  0  0  3  0  0  0  0  0  0
  185.9290  176.7820  135.7210 O   0  0  0  0  0  1  0  0  0  0  0  0
  186.5710  177.8840  136.2840 C   0  0  0  0  0  2  0  0  0  0  0  0
  189.8890  176.7090  135.6930 C   0  0  0  0  0  1  0  0  0  0  0  0
  189.4360  177.9990  136.3550 C   0  0  0  0  0  2  0  0  0  0  0  0
  190.8890  175.1960  143.4760 C   0  0  0  0  0  2  0  0  0  0  0  0
  192.1360  175.0380  144.0810 O   0  0  0  0  0  1  0  0  0  0  0  0
  189.7060  178.5050  144.2470 N   0  0  0  0  0  2  0  0  0  0  0  0
  189.1090  178.5280  145.5730 C   0  0  0  0  0  2  0  0  0  0  0  0
  188.6660  177.1290  145.9690 C   0  0  0  0  0  2  0  0  0  0  0  0
  189.1220  176.7880  147.3800 C   0  0  0  0  0  2  0  0  0  0  0  0
  190.3090  175.8320  147.3430 C   0  0  0  0  0  2  0  0  0  0  0  0
  191.6360  176.5600  147.5230 C   0  0  2  0  0  3  0  0  0  0  0  0
  192.0550  177.1260  146.3180 O   0  0  0  0  0  1  0  0  0  0  0  0
  192.7070  175.6280  148.0610 C   0  0  0  0  0  1  0  0  0  0  0  0
  1 15  1  1  0  0  0
  1  9  1  0  0  0  0
  2  8  1  0  0  0  0
  3  2  2  0  0  0  0
  4 16  2  0  0  0  0
  4 17  1  0  0  0  0
  5 18  1  0  0  0  0
  5  4  1  0  0  0  0
  6 23  1  1  0  0  0
  6  7  1  0  0  0  0
  7 25  1  6  0  0  0
  9 13  1  0  0  0  0
  9  7  1  0  0  0  0
 10 13  1  0  0  0  0
 11 17  1  0  0  0  0
 11 10  1  0  0  0  0
 12 10  1  0  0  0  0
 12  3  1  0  0  0  0
 13  8  1  0  0  0  0
 14 11  1  0  0  0  0
 15  6  1  0  0  0  0
 17  1  1  0  0  0  0
 18 14  1  0  0  0  0
 19 20  1  0  0  0  0
 20 18  1  0  0  0  0
 21 22  1  0  0  0  0
 22  5  1  0  0  0  0
 23 24  1  0  0  0  0
 25 26  1  0  0  0  0
 26 27  1  0  0  0  0
 27 28  1  0  0  0  0
 29 28  1  0  0  0  0
 29 30  1  0  0  0  0
 30 32  1  0  0  0  0
 31 30  1  0  0  0  0
M  END
>  <MODEL>
8

>  <REMARK>
 VINA RESULT:      -6.2      2.785      4.530
  Name = 
  9 active torsions:
  status: ('A' for Active; 'I' for Inactive)
    1  A    between atoms: C_1  and  C_24
    2  A    between atoms: C_2  and  C_10
    3  A    between atoms: C_2  and  C_12
    4  A    between atoms: N_7  and  C_22
    5  A    between atoms: C_8  and  C_19
    6  A    between atoms: C_9  and  N_21
    7  A    between atoms: C_10  and  C_24
    8  A    between atoms: C_12  and  N_21
    9  A    between atoms: C_30  and  C_32
                            x       y       z     vdW  Elec       q    Type
                         _______ _______ _______ _____ _____    ______ ____

>  <TORSDO>
F 9

$$$$
=
 OpenBabel11052416543D

 32 35  0  0  1  0  0  0  0  0999 V2000
  186.7830  177.8240  140.5690 N   0  0  1  0  0  0  0  0  0  0  0  0
  182.6000  179.8940  139.0960 C   0  0  0  0  0  3  0  0  0  0  0  0
  181.9850  179.3450  140.1400 C   0  0  0  0  0  3  0  0  0  0  0  0
  187.0350  177.6760  143.0320 C   0  0  0  0  0  0  0  0  0  0  0  0
  186.5220  177.9340  144.3500 N   0  0  0  0  0  0  0  0  0  0  0  0
  188.2840  177.9220  138.6960 C   0  0  2  0  0  3  0  0  0  0  0  0
  186.8800  178.2480  138.2160 C   0  0  2  0  0  3  0  0  0  0  0  0
  184.0890  179.8210  138.9610 C   0  0  0  0  0  2  0  0  0  0  0  0
  186.1730  178.6100  139.5070 C   0  0  1  0  0  3  0  0  0  0  0  0
  184.1370  178.2450  140.9510 C   0  0  1  0  0  3  0  0  0  0  0  0
  185.0260  178.9210  142.0140 C   0  0  1  0  0  3  0  0  0  0  0  0
  182.7210  178.5920  141.1100 N   0  0  0  0  0  2  0  0  0  0  0  0
  184.6460  178.5070  139.5110 C   0  0  1  0  0  3  0  0  0  0  0  0
  184.4350  178.7380  143.4200 C   0  0  0  0  0  2  0  0  0  0  0  0
  188.1980  177.8910  140.2200 C   0  0  0  0  0  2  0  0  0  0  0  0
  187.9320  176.8050  142.8640 O   0  0  0  0  0  0  0  0  0  0  0  0
  186.5320  178.4960  141.8570 C   0  0  2  0  0  3  0  0  0  0  0  0
  185.4880  178.9660  144.4910 C   0  0  1  0  0  3  0  0  0  0  0  0
  183.4320  179.0030  145.7100 O   0  0  0  0  0  1  0  0  0  0  0  0
  184.8170  178.9650  145.8600 C   0  0  0  0  0  2  0  0  0  0  0  0
  188.3130  177.8710  146.0160 C   0  0  0  0  0  1  0  0  0  0  0  0
  187.0520  177.2020  145.5000 C   0  0  0  0  0  2  0  0  0  0  0  0
  189.2500  179.0020  138.2470 C   0  0  0  0  0  2  0  0  0  0  0  0
  188.6790  179.7530  137.2200 O   0  0  0  0  0  1  0  0  0  0  0  0
  186.2900  177.0540  137.6260 N   0  0  0  0  0  2  0  0  0  0  0  0
  186.1860  177.2900  136.1950 C   0  0  0  0  0  2  0  0  0  0  0  0
  184.7600  177.0390  135.7270 C   0  0  0  0  0  2  0  0  0  0  0  0
  183.9360  176.3690  136.8170 C   0  0  0  0  0  2  0  0  0  0  0  0
  182.4960  176.8670  136.7820 C   0  0  0  0  0  2  0  0  0  0  0  0
  181.6060  176.1140  137.7640 C   0  0  2  0  0  3  0  0  0  0  0  0
  180.5480  176.9210  138.1880 O   0  0  0  0  0  1  0  0  0  0  0  0
  182.3990  175.6230  138.9620 C   0  0  0  0  0  1  0  0  0  0  0  0
  1 15  1  6  0  0  0
  1 17  1  0  0  0  0
  2  3  2  0  0  0  0
  3 12  1  0  0  0  0
  4  5  1  0  0  0  0
  5 18  1  0  0  0  0
  5 22  1  0  0  0  0
  6 23  1  1  0  0  0
  6 15  1  0  0  0  0
  7 25  1  1  0  0  0
  7  6  1  0  0  0  0
  7  9  1  0  0  0  0
  8  2  1  0  0  0  0
  8 13  1  0  0  0  0
  9 13  1  0  0  0  0
  9  1  1  0  0  0  0
 10 12  1  0  0  0  0
 10 11  1  0  0  0  0
 11 14  1  0  0  0  0
 13 10  1  0  0  0  0
 14 18  1  0  0  0  0
 16  4  2  0  0  0  0
 17 11  1  0  0  0  0
 17  4  1  0  0  0  0
 18 20  1  0  0  0  0
 19 20  1  0  0  0  0
 22 21  1  0  0  0  0
 24 23  1  0  0  0  0
 26 25  1  0  0  0  0
 27 26  1  0  0  0  0
 27 28  1  0  0  0  0
 29 28  1  0  0  0  0
 29 30  1  0  0  0  0
 30 31  1  0  0  0  0
 30 32  1  0  0  0  0
M  END
>  <MODEL>
9

>  <REMARK>
 VINA RESULT:      -6.2      2.570      7.271
  Name = 
  9 active torsions:
  status: ('A' for Active; 'I' for Inactive)
    1  A    between atoms: C_1  and  C_24
    2  A    between atoms: C_2  and  C_10
    3  A    between atoms: C_2  and  C_12
    4  A    between atoms: N_7  and  C_22
    5  A    between atoms: C_8  and  C_19
    6  A    between atoms: C_9  and  N_21
    7  A    between atoms: C_10  and  C_24
    8  A    between atoms: C_12  and  N_21
    9  A    between atoms: C_30  and  C_32
                            x       y       z     vdW  Elec       q    Type
                         _______ _______ _______ _____ _____    ______ ____

>  <TORSDO>
F 9

$$$$
