=
 OpenBabel11052416453D

 32 37  0  0  1  0  0  0  0  0999 V2000
  187.4600  176.9470  137.2220 C   0  0  0  0  0  2  0  0  0  0  0  0
  188.0230  177.9160  142.1960 C   0  0  0  0  0  0  0  0  0  0  0  0
  183.1540  178.7400  142.8270 C   0  0  0  0  0  2  0  0  0  0  0  0
  183.4720  179.3410  144.1820 C   0  0  0  0  0  2  0  0  0  0  0  0
  189.4500  177.4450  144.2280 C   0  0  0  0  0  0  0  0  0  0  0  0
  189.4900  177.3570  145.6190 C   0  0  0  0  0  0  0  0  0  0  0  0
  188.9270  177.8060  139.9150 C   0  0  0  0  0  0  0  0  0  0  0  0
  186.6040  178.3870  140.2680 C   0  0  0  0  0  3  0  0  0  0  0  0
  188.8300  177.4080  147.6800 C   0  0  0  0  0  0  0  0  0  0  0  0
  187.4170  178.3050  137.9290 C   0  0  0  0  0  2  0  0  0  0  0  0
  184.3420  178.9540  141.9030 C   0  0  0  0  0  2  0  0  0  0  0  0
  186.7570  178.2650  141.6590 C   0  0  0  0  0  0  0  0  0  0  0  0
  185.6550  178.4920  142.5030 C   0  0  0  0  0  0  0  0  0  0  0  0
  187.0560  178.0420  144.4540 C   0  0  0  0  0  0  0  0  0  0  0  0
  190.1070  177.0860  147.6330 O   0  0  0  0  0  0  0  0  0  0  0  0
  189.9430  177.0740  137.6340 C   0  0  0  0  0  2  0  0  0  0  0  0
  187.6690  178.1710  139.3970 C   0  0  0  0  0  0  0  0  0  0  0  0
  190.5440  177.0450  146.4010 N   0  0  0  0  0  0  0  0  0  0  0  0
  190.1600  177.5610  139.0730 C   0  0  0  0  0  2  0  0  0  0  0  0
  188.7360  176.1480  137.5060 C   0  0  2  0  0  3  0  0  0  0  0  0
  184.6080  178.5500  144.8150 C   0  0  0  0  0  2  0  0  0  0  0  0
  185.8080  178.3930  143.9020 C   0  0  0  0  0  0  0  0  0  0  0  0
  187.1720  177.9320  145.8570 C   0  0  0  0  0  3  0  0  0  0  0  0
  189.0810  177.6960  141.2970 C   0  0  0  0  0  3  0  0  0  0  0  0
  190.7190  177.1650  143.4880 C   0  0  0  0  0  1  0  0  0  0  0  0
  188.0270  177.5410  148.9270 C   0  0  0  0  0  1  0  0  0  0  0  0
  188.1970  177.7980  143.6070 C   0  0  0  0  0  0  0  0  0  0  0  0
  188.3980  177.5900  146.3920 C   0  0  0  0  0  0  0  0  0  0  0  0
  188.9500  175.1400  136.3900 C   0  0  0  0  0  2  0  0  0  0  0  0
  189.3660  173.8200  136.9440 C   0  0  0  0  0  0  0  0  0  0  0  0
  190.6010  173.6840  137.5650 O   0  0  0  0  0  1  0  0  0  0  0  0
  188.5860  172.8350  136.8770 O   0  0  0  0  0  0  0  0  0  0  0  0
  1 20  1  0  0  0  0
  1 10  1  0  0  0  0
  2 27  1  0  0  0  0
  3  4  1  0  0  0  0
  4 21  1  0  0  0  0
  5  6  1  0  0  0  0
  6 28  1  0  0  0  0
  6 18  2  0  0  0  0
  7 24  1  0  0  0  0
  8 12  2  0  0  0  0
  9 26  1  0  0  0  0
 10 17  1  0  0  0  0
 11 13  1  0  0  0  0
 11  3  1  0  0  0  0
 12  2  1  0  0  0  0
 12 13  1  0  0  0  0
 13 22  2  0  0  0  0
 14 23  2  0  0  0  0
 15  9  1  0  0  0  0
 16 19  1  0  0  0  0
 17  7  2  0  0  0  0
 17  8  1  0  0  0  0
 18 15  1  0  0  0  0
 19  7  1  0  0  0  0
 20 29  1  6  0  0  0
 20 16  1  0  0  0  0
 22 14  1  0  0  0  0
 22 21  1  0  0  0  0
 23 28  1  0  0  0  0
 24  2  2  0  0  0  0
 25  5  1  0  0  0  0
 27  5  2  0  0  0  0
 27 14  1  0  0  0  0
 28  9  2  0  0  0  0
 29 30  1  0  0  0  0
 30 31  1  0  0  0  0
 32 30  2  0  0  0  0
M  END
>  <MODEL>
1

>  <REMARK>
 VINA RESULT:     -11.8      0.000      0.000
  Name = 
  2 active torsions:
  status: ('A' for Active; 'I' for Inactive)
    1  A    between atoms: C_1  and  C_10
    2  A    between atoms: C_10  and  C_24
                            x       y       z     vdW  Elec       q    Type
                         _______ _______ _______ _____ _____    ______ ____

>  <TORSDO>
F 2

$$$$
=
 OpenBabel11052416453D

 32 37  0  0  1  0  0  0  0  0999 V2000
  189.4690  176.3900  137.2870 C   0  0  0  0  0  2  0  0  0  0  0  0
  189.1650  177.6290  142.2240 C   0  0  0  0  0  0  0  0  0  0  0  0
  184.2820  178.5560  141.9330 C   0  0  0  0  0  2  0  0  0  0  0  0
  184.3700  179.2280  143.2890 C   0  0  0  0  0  2  0  0  0  0  0  0
  190.1980  177.2530  144.5000 C   0  0  0  0  0  0  0  0  0  0  0  0
  189.9890  177.2430  145.8780 C   0  0  0  0  0  0  0  0  0  0  0  0
  190.4560  177.3780  140.1490 C   0  0  0  0  0  0  0  0  0  0  0  0
  188.1220  178.0110  140.0520 C   0  0  0  0  0  3  0  0  0  0  0  0
  188.9760  177.4190  147.7830 C   0  0  0  0  0  0  0  0  0  0  0  0
  189.3340  177.7860  137.9030 C   0  0  0  0  0  2  0  0  0  0  0  0
  185.6210  178.7010  141.2250 C   0  0  0  0  0  2  0  0  0  0  0  0
  188.0230  177.9660  141.4530 C   0  0  0  0  0  0  0  0  0  0  0  0
  186.7950  178.2550  142.0730 C   0  0  0  0  0  0  0  0  0  0  0  0
  187.8170  177.8950  144.2630 C   0  0  0  0  0  0  0  0  0  0  0  0
  190.2340  177.0770  147.9810 O   0  0  0  0  0  0  0  0  0  0  0  0
  191.8420  176.5040  138.1280 C   0  0  0  0  0  2  0  0  0  0  0  0
  189.3190  177.7310  139.3970 C   0  0  0  0  0  0  0  0  0  0  0  0
  190.8800  176.9600  146.8500 N   0  0  0  0  0  0  0  0  0  0  0  0
  191.8130  177.0680  139.5540 C   0  0  0  0  0  2  0  0  0  0  0  0
  190.6550  175.5900  137.8360 C   0  0  2  0  0  3  0  0  0  0  0  0
  185.3560  178.4580  144.1560 C   0  0  0  0  0  2  0  0  0  0  0  0
  186.6950  178.2320  143.4800 C   0  0  0  0  0  0  0  0  0  0  0  0
  187.6800  177.8640  145.6690 C   0  0  0  0  0  3  0  0  0  0  0  0
  190.3600  177.3430  141.5410 C   0  0  0  0  0  3  0  0  0  0  0  0
  191.5710  176.9130  144.0130 C   0  0  0  0  0  1  0  0  0  0  0  0
  187.9690  177.6330  148.8580 C   0  0  0  0  0  1  0  0  0  0  0  0
  189.0840  177.5880  143.6470 C   0  0  0  0  0  0  0  0  0  0  0  0
  188.7840  177.5350  146.4300 C   0  0  0  0  0  0  0  0  0  0  0  0
  191.0390  174.5170  136.8310 C   0  0  0  0  0  2  0  0  0  0  0  0
  191.9700  175.0650  135.8050 C   0  0  0  0  0  0  0  0  0  0  0  0
  191.4920  175.9070  134.8100 O   0  0  0  0  0  0  0  0  0  0  0  0
  193.1970  174.7890  135.8570 O   0  0  0  0  0  1  0  0  0  0  0  0
  1 20  1  0  0  0  0
  1 10  1  0  0  0  0
  2 27  1  0  0  0  0
  3  4  1  0  0  0  0
  4 21  1  0  0  0  0
  5  6  1  0  0  0  0
  6 28  1  0  0  0  0
  6 18  2  0  0  0  0
  7 24  2  0  0  0  0
  8 12  1  0  0  0  0
  9 15  1  0  0  0  0
  9 26  1  0  0  0  0
 10 17  1  0  0  0  0
 11  3  1  0  0  0  0
 11 13  1  0  0  0  0
 12 13  1  0  0  0  0
 12  2  2  0  0  0  0
 13 22  2  0  0  0  0
 14 23  2  0  0  0  0
 16 19  1  0  0  0  0
 17  8  2  0  0  0  0
 17  7  1  0  0  0  0
 18 15  1  0  0  0  0
 19  7  1  0  0  0  0
 20 29  1  6  0  0  0
 20 16  1  0  0  0  0
 22 21  1  0  0  0  0
 22 14  1  0  0  0  0
 23 28  1  0  0  0  0
 24  2  1  0  0  0  0
 25  5  1  0  0  0  0
 27 14  1  0  0  0  0
 27  5  2  0  0  0  0
 28  9  2  0  0  0  0
 30 32  1  0  0  0  0
 30 29  1  0  0  0  0
 31 30  2  0  0  0  0
M  END
>  <MODEL>
2

>  <REMARK>
 VINA RESULT:     -11.2      1.423      1.773
  Name = 
  2 active torsions:
  status: ('A' for Active; 'I' for Inactive)
    1  A    between atoms: C_1  and  C_10
    2  A    between atoms: C_10  and  C_24
                            x       y       z     vdW  Elec       q    Type
                         _______ _______ _______ _____ _____    ______ ____

>  <TORSDO>
F 2

$$$$
=
 OpenBabel11052416453D

 32 37  0  0  1  0  0  0  0  0999 V2000
  183.9630  177.9400  138.2940 C   0  0  0  0  0  2  0  0  0  0  0  0
  187.3390  178.0090  142.1150 C   0  0  0  0  0  0  0  0  0  0  0  0
  183.7880  178.5880  145.5560 C   0  0  0  0  0  2  0  0  0  0  0  0
  184.8710  178.9430  146.5560 C   0  0  0  0  0  2  0  0  0  0  0  0
  189.6240  177.2150  142.8480 C   0  0  0  0  0  0  0  0  0  0  0  0
  190.4410  176.8780  143.9260 C   0  0  0  0  0  0  0  0  0  0  0  0
  186.7690  178.3340  139.7480 C   0  0  0  0  0  0  0  0  0  0  0  0
  185.1210  178.7860  141.4620 C   0  0  0  0  0  3  0  0  0  0  0  0
  191.0800  176.5410  145.9660 C   0  0  0  0  0  0  0  0  0  0  0  0
  184.4460  179.1470  139.1060 C   0  0  0  0  0  2  0  0  0  0  0  0
  184.2510  178.9950  144.1650 C   0  0  0  0  0  2  0  0  0  0  0  0
  186.0280  178.4190  142.4700 C   0  0  0  0  0  0  0  0  0  0  0  0
  185.6270  178.4640  143.8170 C   0  0  0  0  0  0  0  0  0  0  0  0
  187.8450  177.7030  144.5020 C   0  0  0  0  0  0  0  0  0  0  0  0
  192.0710  176.2640  145.1410 O   0  0  0  0  0  0  0  0  0  0  0  0
  186.2380  178.0500  137.2170 C   0  0  0  0  0  2  0  0  0  0  0  0
  185.4760  178.7560  140.1160 C   0  0  0  0  0  0  0  0  0  0  0  0
  191.7220  176.4560  143.8960 N   0  0  0  0  0  0  0  0  0  0  0  0
  187.2770  178.2750  138.3240 C   0  0  0  0  0  2  0  0  0  0  0  0
  185.1010  177.1340  137.6600 C   0  0  2  0  0  3  0  0  0  0  0  0
  186.0930  178.0780  146.2830 C   0  0  0  0  0  2  0  0  0  0  0  0
  186.5400  178.1170  144.8340 C   0  0  0  0  0  0  0  0  0  0  0  0
  188.7300  177.3450  145.5430 C   0  0  0  0  0  3  0  0  0  0  0  0
  187.6730  177.9800  140.7510 C   0  0  0  0  0  3  0  0  0  0  0  0
  190.2160  177.1030  141.4780 C   0  0  0  0  0  1  0  0  0  0  0  0
  191.1460  176.4270  147.4490 C   0  0  0  0  0  1  0  0  0  0  0  0
  188.2750  177.6430  143.1270 C   0  0  0  0  0  0  0  0  0  0  0  0
  190.0090  176.9420  145.2110 C   0  0  0  0  0  0  0  0  0  0  0  0
  184.5550  176.3490  136.4790 C   0  0  0  0  0  2  0  0  0  0  0  0
  184.9000  174.9040  136.6010 C   0  0  0  0  0  0  0  0  0  0  0  0
  184.4090  174.1590  137.6650 O   0  0  0  0  0  1  0  0  0  0  0  0
  185.6120  174.3500  135.7230 O   0  0  0  0  0  0  0  0  0  0  0  0
  1 10  1  0  0  0  0
  2 12  1  0  0  0  0
  2 27  1  0  0  0  0
  3  4  1  0  0  0  0
  5 27  2  0  0  0  0
  5  6  1  0  0  0  0
  6 28  1  0  0  0  0
  7 17  2  0  0  0  0
  7 24  1  0  0  0  0
  8 12  2  0  0  0  0
  9 26  1  0  0  0  0
 10 17  1  0  0  0  0
 11  3  1  0  0  0  0
 12 13  1  0  0  0  0
 13 11  1  0  0  0  0
 13 22  2  0  0  0  0
 14 22  1  0  0  0  0
 14 23  2  0  0  0  0
 15  9  1  0  0  0  0
 16 20  1  0  0  0  0
 16 19  1  0  0  0  0
 17  8  1  0  0  0  0
 18  6  2  0  0  0  0
 18 15  1  0  0  0  0
 19  7  1  0  0  0  0
 20 29  1  6  0  0  0
 20  1  1  0  0  0  0
 21  4  1  0  0  0  0
 22 21  1  0  0  0  0
 24  2  2  0  0  0  0
 25  5  1  0  0  0  0
 27 14  1  0  0  0  0
 28 23  1  0  0  0  0
 28  9  2  0  0  0  0
 29 30  1  0  0  0  0
 30 31  1  0  0  0  0
 32 30  2  0  0  0  0
M  END
>  <MODEL>
3

>  <REMARK>
 VINA RESULT:     -11.0      2.205      2.867
  Name = 
  2 active torsions:
  status: ('A' for Active; 'I' for Inactive)
    1  A    between atoms: C_1  and  C_10
    2  A    between atoms: C_10  and  C_24
                            x       y       z     vdW  Elec       q    Type
                         _______ _______ _______ _____ _____    ______ ____

>  <TORSDO>
F 2

$$$$
=
 OpenBabel11052416453D

 32 37  0  0  1  0  0  0  0  0999 V2000
  181.8770  180.5080  137.9550 C   0  0  0  0  0  2  0  0  0  0  0  0
  184.4180  178.6490  141.9660 C   0  0  0  0  0  0  0  0  0  0  0  0
  188.6890  178.3600  139.4240 C   0  0  0  0  0  2  0  0  0  0  0  0
  189.2490  177.5030  140.5420 C   0  0  0  0  0  2  0  0  0  0  0  0
  184.4990  178.5830  144.4910 C   0  0  0  0  0  0  0  0  0  0  0  0
  185.3030  178.4290  145.6190 C   0  0  0  0  0  0  0  0  0  0  0  0
  182.3240  179.0270  140.7380 C   0  0  0  0  0  0  0  0  0  0  0  0
  184.3940  178.6950  139.5260 C   0  0  0  0  0  3  0  0  0  0  0  0
  187.0700  178.1160  146.8310 C   0  0  0  0  0  0  0  0  0  0  0  0
  182.3380  179.0670  138.1940 C   0  0  0  0  0  2  0  0  0  0  0  0
  187.1840  178.1540  139.3540 C   0  0  0  0  0  2  0  0  0  0  0  0
  185.1080  178.5600  140.7290 C   0  0  0  0  0  0  0  0  0  0  0  0
  186.4950  178.3360  140.6920 C   0  0  0  0  0  0  0  0  0  0  0  0
  186.5480  178.2680  143.1340 C   0  0  0  0  0  0  0  0  0  0  0  0
  186.0200  178.2750  147.6120 O   0  0  0  0  0  0  0  0  0  0  0  0
  180.1410  179.9980  139.7080 C   0  0  0  0  0  2  0  0  0  0  0  0
  183.0190  178.9180  139.5170 C   0  0  0  0  0  0  0  0  0  0  0  0
  184.9300  178.4680  146.9150 N   0  0  0  0  0  0  0  0  0  0  0  0
  180.8320  179.2510  140.8560 C   0  0  0  0  0  2  0  0  0  0  0  0
  181.0280  181.0780  139.0960 C   0  0  2  0  0  3  0  0  0  0  0  0
  188.7220  178.0240  141.8710 C   0  0  0  0  0  2  0  0  0  0  0  0
  187.2140  178.1780  141.8960 C   0  0  0  0  0  0  0  0  0  0  0  0
  187.2990  178.1230  144.3220 C   0  0  0  0  0  3  0  0  0  0  0  0
  183.0320  178.8810  141.9320 C   0  0  0  0  0  3  0  0  0  0  0  0
  183.0390  178.8210  144.7180 C   0  0  0  0  0  1  0  0  0  0  0  0
  188.4600  177.8780  147.3050 C   0  0  0  0  0  1  0  0  0  0  0  0
  185.1270  178.5040  143.1950 C   0  0  0  0  0  0  0  0  0  0  0  0
  186.6400  178.2100  145.5320 C   0  0  0  0  0  0  0  0  0  0  0  0
  180.1860  182.2250  138.5630 C   0  0  0  0  0  2  0  0  0  0  0  0
  180.9580  183.0360  137.5800 C   0  0  0  0  0  0  0  0  0  0  0  0
  180.5930  183.0370  136.2400 O   0  0  0  0  0  0  0  0  0  0  0  0
  181.9220  183.7450  137.9680 O   0  0  0  0  0  1  0  0  0  0  0  0
  1 10  1  0  0  0  0
  1 20  1  0  0  0  0
  2 27  1  0  0  0  0
  3  4  1  0  0  0  0
  4 21  1  0  0  0  0
  5 25  1  0  0  0  0
  5  6  1  0  0  0  0
  6 18  2  0  0  0  0
  7 19  1  0  0  0  0
  7 24  2  0  0  0  0
  8 12  1  0  0  0  0
  9 26  1  0  0  0  0
  9 15  1  0  0  0  0
 10 17  1  0  0  0  0
 11  3  1  0  0  0  0
 11 13  1  0  0  0  0
 12  2  2  0  0  0  0
 13 12  1  0  0  0  0
 13 22  2  0  0  0  0
 14 27  1  0  0  0  0
 14 23  2  0  0  0  0
 16 19  1  0  0  0  0
 17  8  2  0  0  0  0
 17  7  1  0  0  0  0
 18 15  1  0  0  0  0
 20 29  1  6  0  0  0
 20 16  1  0  0  0  0
 21 22  1  0  0  0  0
 22 14  1  0  0  0  0
 23 28  1  0  0  0  0
 24  2  1  0  0  0  0
 27  5  2  0  0  0  0
 28  6  1  0  0  0  0
 28  9  2  0  0  0  0
 30 32  1  0  0  0  0
 30 29  1  0  0  0  0
 31 30  2  0  0  0  0
M  END
>  <MODEL>
4

>  <REMARK>
 VINA RESULT:      -9.9      4.314      6.753
  Name = 
  2 active torsions:
  status: ('A' for Active; 'I' for Inactive)
    1  A    between atoms: C_1  and  C_10
    2  A    between atoms: C_10  and  C_24
                            x       y       z     vdW  Elec       q    Type
                         _______ _______ _______ _____ _____    ______ ____

>  <TORSDO>
F 2

$$$$
=
 OpenBabel11052416453D

 32 37  0  0  1  0  0  0  0  0999 V2000
  181.2940  177.9880  140.0420 C   0  0  0  0  0  2  0  0  0  0  0  0
  185.9850  178.2870  142.0170 C   0  0  0  0  0  0  0  0  0  0  0  0
  184.2770  178.1930  146.6930 C   0  0  0  0  0  2  0  0  0  0  0  0
  185.6510  178.6300  147.1610 C   0  0  0  0  0  2  0  0  0  0  0  0
  188.4220  177.7630  141.6030 C   0  0  0  0  0  0  0  0  0  0  0  0
  189.6590  177.4770  142.1790 C   0  0  0  0  0  0  0  0  0  0  0  0
  184.4020  178.6680  140.1780 C   0  0  0  0  0  0  0  0  0  0  0  0
  183.6440  178.7990  142.4730 C   0  0  0  0  0  3  0  0  0  0  0  0
  191.1610  177.1110  143.6950 C   0  0  0  0  0  0  0  0  0  0  0  0
  181.9680  179.1990  140.6920 C   0  0  0  0  0  2  0  0  0  0  0  0
  184.0390  178.7350  145.2920 C   0  0  0  0  0  2  0  0  0  0  0  0
  184.9320  178.4990  142.9450 C   0  0  0  0  0  0  0  0  0  0  0  0
  185.1630  178.4130  144.3290 C   0  0  0  0  0  0  0  0  0  0  0  0
  187.5180  177.9150  143.9040 C   0  0  0  0  0  0  0  0  0  0  0  0
  191.7070  177.0160  142.4990 O   0  0  0  0  0  0  0  0  0  0  0  0
  182.8390  178.4600  138.1080 C   0  0  0  0  0  2  0  0  0  0  0  0
  183.3700  178.8930  141.1110 C   0  0  0  0  0  0  0  0  0  0  0  0
  190.8290  177.2310  141.5540 N   0  0  0  0  0  0  0  0  0  0  0  0
  184.2330  178.7580  138.6770 C   0  0  0  0  0  2  0  0  0  0  0  0
  182.1060  177.3770  138.8950 C   0  0  2  0  0  3  0  0  0  0  0  0
  186.7040  177.9530  146.2950 C   0  0  0  0  0  2  0  0  0  0  0  0
  186.4600  178.1330  144.8090 C   0  0  0  0  0  0  0  0  0  0  0  0
  188.8010  177.6200  144.4160 C   0  0  0  0  0  3  0  0  0  0  0  0
  185.6840  178.3810  140.6480 C   0  0  0  0  0  3  0  0  0  0  0  0
  188.3580  177.8080  140.1080 C   0  0  0  0  0  1  0  0  0  0  0  0
  191.8830  176.9240  144.9830 C   0  0  0  0  0  1  0  0  0  0  0  0
  187.3010  177.9910  142.4810 C   0  0  0  0  0  0  0  0  0  0  0  0
  189.8330  177.4090  143.5240 C   0  0  0  0  0  0  0  0  0  0  0  0
  181.1720  176.5950  137.9870 C   0  0  0  0  0  2  0  0  0  0  0  0
  180.5840  177.4820  136.9440 C   0  0  0  0  0  0  0  0  0  0  0  0
  181.0940  177.4720  135.6530 O   0  0  0  0  0  0  0  0  0  0  0  0
  179.6030  178.2190  137.2250 O   0  0  0  0  0  1  0  0  0  0  0  0
  1 10  1  0  0  0  0
  2 27  1  0  0  0  0
  2 12  1  0  0  0  0
  3  4  1  0  0  0  0
  5  6  1  0  0  0  0
  5 27  2  0  0  0  0
  6 28  1  0  0  0  0
  7 24  1  0  0  0  0
  7 17  2  0  0  0  0
  8 12  2  0  0  0  0
  9 26  1  0  0  0  0
 10 17  1  0  0  0  0
 11  3  1  0  0  0  0
 12 13  1  0  0  0  0
 13 22  2  0  0  0  0
 13 11  1  0  0  0  0
 14 23  2  0  0  0  0
 14 22  1  0  0  0  0
 15  9  1  0  0  0  0
 16 19  1  0  0  0  0
 16 20  1  0  0  0  0
 17  8  1  0  0  0  0
 18  6  2  0  0  0  0
 18 15  1  0  0  0  0
 19  7  1  0  0  0  0
 20 29  1  6  0  0  0
 20  1  1  0  0  0  0
 21  4  1  0  0  0  0
 22 21  1  0  0  0  0
 24  2  2  0  0  0  0
 25  5  1  0  0  0  0
 27 14  1  0  0  0  0
 28  9  2  0  0  0  0
 28 23  1  0  0  0  0
 30 32  1  0  0  0  0
 30 29  1  0  0  0  0
 31 30  2  0  0  0  0
M  END
>  <MODEL>
5

>  <REMARK>
 VINA RESULT:      -9.7      3.529      5.270
  Name = 
  2 active torsions:
  status: ('A' for Active; 'I' for Inactive)
    1  A    between atoms: C_1  and  C_10
    2  A    between atoms: C_10  and  C_24
                            x       y       z     vdW  Elec       q    Type
                         _______ _______ _______ _____ _____    ______ ____

>  <TORSDO>
F 2

$$$$
=
 OpenBabel11052416453D

 32 37  0  0  1  0  0  0  0  0999 V2000
  190.5380  176.1520  136.8720 C   0  0  0  0  0  2  0  0  0  0  0  0
  188.4650  177.7780  141.2380 C   0  0  0  0  0  0  0  0  0  0  0  0
  184.0030  178.4640  139.1390 C   0  0  0  0  0  2  0  0  0  0  0  0
  183.5900  179.2480  140.3690 C   0  0  0  0  0  2  0  0  0  0  0  0
  188.6150  177.6360  143.7570 C   0  0  0  0  0  0  0  0  0  0  0  0
  187.9240  177.7290  144.9640 C   0  0  0  0  0  0  0  0  0  0  0  0
  190.4190  177.4140  139.7940 C   0  0  0  0  0  0  0  0  0  0  0  0
  188.2680  177.9350  138.8110 C   0  0  0  0  0  3  0  0  0  0  0  0
  186.2920  178.0160  146.3570 C   0  0  0  0  0  0  0  0  0  0  0  0
  190.1740  177.5870  137.2670 C   0  0  0  0  0  2  0  0  0  0  0  0
  185.5050  178.6090  138.9450 C   0  0  0  0  0  2  0  0  0  0  0  0
  187.6730  178.0000  140.0820 C   0  0  0  0  0  0  0  0  0  0  0  0
  186.3010  178.2860  140.1930 C   0  0  0  0  0  0  0  0  0  0  0  0
  186.4710  178.1520  142.6270 C   0  0  0  0  0  0  0  0  0  0  0  0
  187.3980  177.7470  147.0210 O   0  0  0  0  0  0  0  0  0  0  0  0
  192.4480  176.4390  138.4890 C   0  0  0  0  0  2  0  0  0  0  0  0
  189.6240  177.6540  138.6550 C   0  0  0  0  0  0  0  0  0  0  0  0
  188.4100  177.5670  146.2120 N   0  0  0  0  0  0  0  0  0  0  0  0
  191.9020  177.1160  139.7530 C   0  0  0  0  0  2  0  0  0  0  0  0
  191.4560  175.4530  137.8790 C   0  0  2  0  0  3  0  0  0  0  0  0
  184.2080  178.5950  141.5970 C   0  0  0  0  0  2  0  0  0  0  0  0
  185.7020  178.3740  141.4680 C   0  0  0  0  0  0  0  0  0  0  0  0
  185.8380  178.2290  143.8880 C   0  0  0  0  0  3  0  0  0  0  0  0
  189.8290  177.4900  141.0560 C   0  0  0  0  0  3  0  0  0  0  0  0
  190.0750  177.3170  143.8260 C   0  0  0  0  0  1  0  0  0  0  0  0
  184.9640  178.2740  146.9760 C   0  0  0  0  0  1  0  0  0  0  0  0
  187.8780  177.8500  142.5360 C   0  0  0  0  0  0  0  0  0  0  0  0
  186.5980  178.0120  145.0200 C   0  0  0  0  0  0  0  0  0  0  0  0
  192.1880  174.3200  137.1810 C   0  0  0  0  0  2  0  0  0  0  0  0
  193.6620  174.5320  137.2330 C   0  0  0  0  0  0  0  0  0  0  0  0
  194.3960  174.0550  138.3110 O   0  0  0  0  0  1  0  0  0  0  0  0
  194.2480  175.1160  136.2850 O   0  0  0  0  0  0  0  0  0  0  0  0
  1 10  1  0  0  0  0
  1 20  1  0  0  0  0
  2 27  1  0  0  0  0
  3  4  1  0  0  0  0
  4 21  1  0  0  0  0
  5 25  1  0  0  0  0
  5  6  1  0  0  0  0
  6 28  1  0  0  0  0
  6 18  2  0  0  0  0
  7 24  2  0  0  0  0
  8 12  1  0  0  0  0
  9 26  1  0  0  0  0
  9 15  1  0  0  0  0
 10 17  1  0  0  0  0
 11  3  1  0  0  0  0
 11 13  1  0  0  0  0
 12 13  1  0  0  0  0
 12  2  2  0  0  0  0
 13 22  2  0  0  0  0
 14 23  2  0  0  0  0
 16 19  1  0  0  0  0
 17  8  2  0  0  0  0
 17  7  1  0  0  0  0
 18 15  1  0  0  0  0
 19  7  1  0  0  0  0
 20 29  1  6  0  0  0
 20 16  1  0  0  0  0
 22 21  1  0  0  0  0
 22 14  1  0  0  0  0
 23 28  1  0  0  0  0
 24  2  1  0  0  0  0
 27 14  1  0  0  0  0
 27  5  2  0  0  0  0
 28  9  2  0  0  0  0
 29 30  1  0  0  0  0
 30 31  1  0  0  0  0
 32 30  2  0  0  0  0
M  END
>  <MODEL>
6

>  <REMARK>
 VINA RESULT:      -9.5      2.013      2.828
  Name = 
  2 active torsions:
  status: ('A' for Active; 'I' for Inactive)
    1  A    between atoms: C_1  and  C_10
    2  A    between atoms: C_10  and  C_24
                            x       y       z     vdW  Elec       q    Type
                         _______ _______ _______ _____ _____    ______ ____

>  <TORSDO>
F 2

$$$$
=
 OpenBabel11052416453D

 32 37  0  0  1  0  0  0  0  0999 V2000
  191.8750  176.5050  143.5550 C   0  0  0  0  0  2  0  0  0  0  0  0
  187.1660  178.2680  142.7100 C   0  0  0  0  0  0  0  0  0  0  0  0
  187.6000  177.7440  137.7780 C   0  0  0  0  0  2  0  0  0  0  0  0
  186.3540  178.5910  137.6190 C   0  0  0  0  0  2  0  0  0  0  0  0
  184.8570  178.5090  143.7080 C   0  0  0  0  0  0  0  0  0  0  0  0
  183.4920  178.6280  143.4510 C   0  0  0  0  0  0  0  0  0  0  0  0
  189.1800  178.1090  144.1070 C   0  0  0  0  0  0  0  0  0  0  0  0
  189.3730  178.0450  141.6950 C   0  0  0  0  0  3  0  0  0  0  0  0
  181.6340  178.7700  142.3490 C   0  0  0  0  0  0  0  0  0  0  0  0
  191.4650  177.8780  143.0130 C   0  0  0  0  0  2  0  0  0  0  0  0
  188.3180  178.1600  139.0530 C   0  0  0  0  0  2  0  0  0  0  0  0
  187.9810  178.1640  141.5530 C   0  0  0  0  0  0  0  0  0  0  0  0
  187.4120  178.1800  140.2670 C   0  0  0  0  0  0  0  0  0  0  0  0
  185.1900  178.4210  141.2540 C   0  0  0  0  0  0  0  0  0  0  0  0
  181.3860  178.8240  143.6420 O   0  0  0  0  0  0  0  0  0  0  0  0
  191.0530  177.3920  145.7660 C   0  0  0  0  0  2  0  0  0  0  0  0
  189.9780  178.0240  142.9500 C   0  0  0  0  0  0  0  0  0  0  0  0
  182.4870  178.7410  144.3430 N   0  0  0  0  0  0  0  0  0  0  0  0
  189.7210  178.1130  145.5210 C   0  0  0  0  0  2  0  0  0  0  0  0
  191.2150  176.1510  144.8910 C   0  0  2  0  0  3  0  0  0  0  0  0
  185.3830  178.2530  138.7410 C   0  0  0  0  0  2  0  0  0  0  0  0
  186.0160  178.3210  140.1180 C   0  0  0  0  0  0  0  0  0  0  0  0
  183.7940  178.5430  141.0720 C   0  0  0  0  0  3  0  0  0  0  0  0
  187.7980  178.2380  143.9650 C   0  0  0  0  0  3  0  0  0  0  0  0
  185.2860  178.5040  145.1410 C   0  0  0  0  0  1  0  0  0  0  0  0
  180.6040  178.8380  141.2770 C   0  0  0  0  0  1  0  0  0  0  0  0
  185.7520  178.4000  142.5820 C   0  0  0  0  0  0  0  0  0  0  0  0
  182.9900  178.6430  142.1900 C   0  0  0  0  0  0  0  0  0  0  0  0
  192.0550  175.1030  145.5990 C   0  0  0  0  0  2  0  0  0  0  0  0
  192.0570  175.3340  147.0710 C   0  0  0  0  0  0  0  0  0  0  0  0
  193.2430  175.6410  147.7260 O   0  0  0  0  0  1  0  0  0  0  0  0
  190.9790  175.2810  147.7180 O   0  0  0  0  0  0  0  0  0  0  0  0
  1 20  1  0  0  0  0
  2 24  1  0  0  0  0
  3 11  1  0  0  0  0
  4  3  1  0  0  0  0
  4 21  1  0  0  0  0
  5 25  1  0  0  0  0
  6  5  1  0  0  0  0
  6 18  2  0  0  0  0
  7 19  1  0  0  0  0
  8 17  2  0  0  0  0
  9 15  1  0  0  0  0
 10  1  1  0  0  0  0
 11 13  1  0  0  0  0
 12  8  1  0  0  0  0
 12  2  2  0  0  0  0
 13 12  1  0  0  0  0
 14 27  1  0  0  0  0
 15 18  1  0  0  0  0
 17 10  1  0  0  0  0
 17  7  1  0  0  0  0
 19 16  1  0  0  0  0
 20 29  1  1  0  0  0
 20 16  1  0  0  0  0
 21 22  1  0  0  0  0
 22 13  2  0  0  0  0
 22 14  1  0  0  0  0
 23 14  2  0  0  0  0
 23 28  1  0  0  0  0
 24  7  2  0  0  0  0
 26  9  1  0  0  0  0
 27  2  1  0  0  0  0
 27  5  2  0  0  0  0
 28  9  2  0  0  0  0
 28  6  1  0  0  0  0
 29 30  1  0  0  0  0
 30 32  2  0  0  0  0
 30 31  1  0  0  0  0
M  END
>  <MODEL>
7

>  <REMARK>
 VINA RESULT:      -9.2      3.516      6.914
  Name = 
  2 active torsions:
  status: ('A' for Active; 'I' for Inactive)
    1  A    between atoms: C_1  and  C_10
    2  A    between atoms: C_10  and  C_24
                            x       y       z     vdW  Elec       q    Type
                         _______ _______ _______ _____ _____    ______ ____

>  <TORSDO>
F 2

$$$$
=
 OpenBabel11052416453D

 32 37  0  0  1  0  0  0  0  0999 V2000
  179.9660  178.0720  142.4680 C   0  0  0  0  0  2  0  0  0  0  0  0
  185.0500  178.4630  142.4210 C   0  0  0  0  0  0  0  0  0  0  0  0
  185.3710  177.9570  147.3630 C   0  0  0  0  0  2  0  0  0  0  0  0
  186.8090  178.4280  147.2780 C   0  0  0  0  0  2  0  0  0  0  0  0
  187.1230  178.0900  141.0240 C   0  0  0  0  0  0  0  0  0  0  0  0
  188.4920  177.8260  141.0310 C   0  0  0  0  0  0  0  0  0  0  0  0
  182.8550  178.8940  141.4070 C   0  0  0  0  0  0  0  0  0  0  0  0
  183.0820  178.8250  143.8160 C   0  0  0  0  0  3  0  0  0  0  0  0
  190.4820  177.4300  141.7840 C   0  0  0  0  0  0  0  0  0  0  0  0
  180.8250  179.2670  142.8940 C   0  0  0  0  0  2  0  0  0  0  0  0
  184.5790  178.5840  146.2260 C   0  0  0  0  0  2  0  0  0  0  0  0
  184.4560  178.5570  143.7060 C   0  0  0  0  0  0  0  0  0  0  0  0
  185.2260  178.3860  144.8700 C   0  0  0  0  0  0  0  0  0  0  0  0
  187.2190  178.0360  143.4990 C   0  0  0  0  0  0  0  0  0  0  0  0
  190.5030  177.4450  140.4650 O   0  0  0  0  0  0  0  0  0  0  0  0
  180.5940  178.7550  140.1250 C   0  0  0  0  0  2  0  0  0  0  0  0
  182.2820  179.0020  142.6890 C   0  0  0  0  0  0  0  0  0  0  0  0
  189.3150  177.6820  139.9730 N   0  0  0  0  0  0  0  0  0  0  0  0
  182.0940  179.0800  140.1120 C   0  0  0  0  0  2  0  0  0  0  0  0
  180.2580  177.5850  141.0460 C   0  0  2  0  0  3  0  0  0  0  0  0
  187.4350  177.8660  146.0100 C   0  0  0  0  0  2  0  0  0  0  0  0
  186.6110  178.1380  144.7660 C   0  0  0  0  0  0  0  0  0  0  0  0
  188.6040  177.7690  143.4280 C   0  0  0  0  0  3  0  0  0  0  0  0
  184.2220  178.6380  141.2990 C   0  0  0  0  0  3  0  0  0  0  0  0
  186.4610  178.2370  139.6890 C   0  0  0  0  0  1  0  0  0  0  0  0
  191.6650  177.1880  142.6540 C   0  0  0  0  0  1  0  0  0  0  0  0
  186.4460  178.2010  142.2930 C   0  0  0  0  0  0  0  0  0  0  0  0
  189.1930  177.6730  142.1830 C   0  0  0  0  0  0  0  0  0  0  0  0
  179.0520  176.8230  140.5240 C   0  0  0  0  0  2  0  0  0  0  0  0
  179.2900  175.3530  140.5800 C   0  0  0  0  0  0  0  0  0  0  0  0
  178.9300  174.6320  141.7110 O   0  0  0  0  0  1  0  0  0  0  0  0
  179.7900  174.7580  139.5890 O   0  0  0  0  0  0  0  0  0  0  0  0
  1 10  1  0  0  0  0
  2 12  1  0  0  0  0
  4  3  1  0  0  0  0
  5  6  1  0  0  0  0
  5 27  2  0  0  0  0
  6 28  1  0  0  0  0
  7 17  2  0  0  0  0
  9 28  2  0  0  0  0
  9 26  1  0  0  0  0
 11  3  1  0  0  0  0
 12  8  2  0  0  0  0
 12 13  1  0  0  0  0
 13 11  1  0  0  0  0
 14 22  1  0  0  0  0
 15  9  1  0  0  0  0
 16 20  1  0  0  0  0
 17 10  1  0  0  0  0
 17  8  1  0  0  0  0
 18 15  1  0  0  0  0
 18  6  2  0  0  0  0
 19 16  1  0  0  0  0
 19  7  1  0  0  0  0
 20 29  1  6  0  0  0
 20  1  1  0  0  0  0
 21  4  1  0  0  0  0
 22 13  2  0  0  0  0
 22 21  1  0  0  0  0
 23 14  2  0  0  0  0
 24  7  1  0  0  0  0
 24  2  2  0  0  0  0
 25  5  1  0  0  0  0
 27  2  1  0  0  0  0
 27 14  1  0  0  0  0
 28 23  1  0  0  0  0
 29 30  1  0  0  0  0
 30 31  1  0  0  0  0
 32 30  2  0  0  0  0
M  END
>  <MODEL>
8

>  <REMARK>
 VINA RESULT:      -8.9      3.565      6.627
  Name = 
  2 active torsions:
  status: ('A' for Active; 'I' for Inactive)
    1  A    between atoms: C_1  and  C_10
    2  A    between atoms: C_10  and  C_24
                            x       y       z     vdW  Elec       q    Type
                         _______ _______ _______ _____ _____    ______ ____

>  <TORSDO>
F 2

$$$$
