=
 OpenBabel11052416483D

 32 37  0  0  1  0  0  0  0  0999 V2000
  186.8380  173.5480  135.7180 C   0  0  0  0  0  0  0  0  0  0  0  0
  189.9100  173.9670  137.6010 O   0  0  0  0  0  0  0  0  0  0  0  0
  188.5660  178.5890  138.7730 C   0  0  0  0  0  3  0  0  0  0  0  0
  190.8280  176.6850  143.9670 C   0  0  0  0  0  2  0  0  0  0  0  0
  189.3520  176.3050  144.0670 C   0  0  0  0  0  2  0  0  0  0  0  0
  189.7900  177.0030  137.2860 C   0  0  0  0  0  0  0  0  0  0  0  0
  190.8180  176.5870  139.5390 C   0  0  0  0  0  3  0  0  0  0  0  0
  187.8300  173.1550  136.6040 C   0  0  0  0  0  3  0  0  0  0  0  0
  190.9940  174.8900  137.6820 C   0  0  0  0  0  2  0  0  0  0  0  0
  191.2540  176.7140  142.5020 C   0  0  0  0  0  2  0  0  0  0  0  0
  190.1490  177.4500  140.3120 C   0  0  0  0  0  0  0  0  0  0  0  0
  190.3140  177.5190  141.7250 N   0  0  0  0  0  0  0  0  0  0  0  0
  188.2810  178.5360  141.1900 N   0  0  0  0  0  0  0  0  0  0  0  0
  187.1510  175.0860  135.1160 S   0  0  0  0  0  0  0  0  0  0  0  0
  188.5750  175.2900  135.9860 C   0  0  0  0  0  0  0  0  0  0  0  0
  185.7080  172.7590  135.3670 N   0  0  0  0  0  1  0  0  0  0  0  0
  190.5150  176.2370  138.1320 C   0  0  0  0  0  0  0  0  0  0  0  0
  189.4440  176.5060  135.9120 C   0  0  0  0  0  2  0  0  0  0  0  0
  188.8130  174.1410  136.7470 C   0  0  0  0  0  0  0  0  0  0  0  0
  188.4200  177.2540  143.2910 C   0  0  0  0  0  2  0  0  0  0  0  0
  189.1500  178.1890  142.3170 C   0  0  1  0  0  3  0  0  0  0  0  0
  189.4460  178.4270  137.5790 C   0  0  0  0  0  2  0  0  0  0  0  0
  188.9300  178.1600  139.9790 C   0  0  0  0  0  0  0  0  0  0  0  0
  187.1510  179.4540  141.2890 C   0  0  0  0  0  2  0  0  0  0  0  0
  185.2370  178.9940  142.8280 C   0  0  0  0  0  2  0  0  0  0  0  0
  183.7980  178.5690  142.9600 C   0  0  0  0  0  0  0  0  0  0  0  0
  184.8540  179.0670  140.3520 C   0  0  2  0  0  3  0  0  0  0  0  0
  183.5970  178.2150  140.5010 C   0  0  0  0  0  2  0  0  0  0  0  0
  183.0440  178.2720  141.8980 C   0  0  0  0  0  3  0  0  0  0  0  0
  183.2190  178.5510  144.2210 O   0  0  0  0  0  1  0  0  0  0  0  0
  185.4140  178.8260  139.0960 O   0  0  0  0  0  1  0  0  0  0  0  0
  185.8430  178.6880  141.4540 C   0  0  1  0  0  3  0  0  0  0  0  0
  1  8  2  0  0  0  0
  2  9  1  0  0  0  0
  3 23  2  0  0  0  0
  4  5  1  0  0  0  0
  6 22  1  0  0  0  0
  6 17  2  0  0  0  0
  7 11  2  0  0  0  0
  8 19  1  0  0  0  0
  9 17  1  0  0  0  0
 10  4  1  0  0  0  0
 11 12  1  0  0  0  0
 12 21  1  0  0  0  0
 12 10  1  0  0  0  0
 13 24  1  0  0  0  0
 13 21  1  0  0  0  0
 14  1  1  0  0  0  0
 14 15  1  0  0  0  0
 15 19  2  0  0  0  0
 16  1  1  0  0  0  0
 17  7  1  0  0  0  0
 18 15  1  0  0  0  0
 18  6  1  0  0  0  0
 19  2  1  0  0  0  0
 20  5  1  0  0  0  0
 21 20  1  1  0  0  0
 22  3  1  0  0  0  0
 23 11  1  0  0  0  0
 23 13  1  0  0  0  0
 25 26  1  0  0  0  0
 26 30  1  0  0  0  0
 27 31  1  6  0  0  0
 27 28  1  0  0  0  0
 27 32  1  0  0  0  0
 28 29  1  0  0  0  0
 29 26  2  0  0  0  0
 32 24  1  6  0  0  0
 32 25  1  0  0  0  0
M  END
>  <MODEL>
1

>  <REMARK>
 VINA RESULT:      -8.3      0.000      0.000
  Name = 
  2 active torsions:
  status: ('A' for Active; 'I' for Inactive)
    1  A    between atoms: N_16  and  C_27
    2  A    between atoms: C_27  and  C_32
                            x       y       z     vdW  Elec       q    Type
                         _______ _______ _______ _____ _____    ______ ____

>  <TORSDO>
F 2

$$$$
=
 OpenBabel11052416483D

 32 37  0  0  1  0  0  0  0  0999 V2000
  183.4580  173.4520  136.7770 C   0  0  0  0  0  0  0  0  0  0  0  0
  187.0340  173.8080  137.2670 O   0  0  0  0  0  0  0  0  0  0  0  0
  186.3740  178.5120  138.6780 C   0  0  0  0  0  3  0  0  0  0  0  0
  190.4700  176.6780  142.6260 C   0  0  0  0  0  2  0  0  0  0  0  0
  189.1460  176.3590  143.3190 C   0  0  0  0  0  2  0  0  0  0  0  0
  186.8700  176.8360  136.8970 C   0  0  0  0  0  0  0  0  0  0  0  0
  188.6990  176.4490  138.5730 C   0  0  0  0  0  3  0  0  0  0  0  0
  184.7100  173.0470  137.2130 C   0  0  0  0  0  3  0  0  0  0  0  0
  188.0820  174.6910  136.8730 C   0  0  0  0  0  2  0  0  0  0  0  0
  190.2790  176.6470  141.1120 C   0  0  0  0  0  2  0  0  0  0  0  0
  188.4120  177.3590  139.5100 C   0  0  0  0  0  0  0  0  0  0  0  0
  189.1270  177.4640  140.7380 N   0  0  0  0  0  0  0  0  0  0  0  0
  187.0730  178.5420  141.0100 N   0  0  0  0  0  0  0  0  0  0  0  0
  183.5420  174.9570  136.0340 S   0  0  0  0  0  0  0  0  0  0  0  0
  185.1980  175.1330  136.2590 C   0  0  0  0  0  0  0  0  0  0  0  0
  182.2630  172.6960  136.9360 N   0  0  0  0  0  1  0  0  0  0  0  0
  187.8530  176.0680  137.4180 C   0  0  0  0  0  0  0  0  0  0  0  0
  185.9940  176.3110  135.7950 C   0  0  0  0  0  2  0  0  0  0  0  0
  185.6920  173.9990  136.9110 C   0  0  0  0  0  0  0  0  0  0  0  0
  188.0060  177.3190  142.9360 C   0  0  0  0  0  2  0  0  0  0  0  0
  188.3100  178.1960  141.7130 C   0  0  1  0  0  3  0  0  0  0  0  0
  186.7030  178.2800  137.2410 C   0  0  0  0  0  2  0  0  0  0  0  0
  187.1780  178.1050  139.6570 C   0  0  0  0  0  0  0  0  0  0  0  0
  186.0970  179.5060  141.5080 C   0  0  0  0  0  2  0  0  0  0  0  0
  185.0960  179.2480  143.7830 C   0  0  0  0  0  2  0  0  0  0  0  0
  183.8760  178.8900  144.5920 C   0  0  0  0  0  0  0  0  0  0  0  0
  183.6270  179.1310  141.7560 C   0  0  2  0  0  3  0  0  0  0  0  0
  182.5780  178.3440  142.5360 C   0  0  0  0  0  2  0  0  0  0  0  0
  182.7220  178.5370  144.0200 C   0  0  0  0  0  3  0  0  0  0  0  0
  183.9360  178.9990  145.9740 O   0  0  0  0  0  1  0  0  0  0  0  0
  183.5530  178.7660  140.4100 O   0  0  0  0  0  1  0  0  0  0  0  0
  185.0100  178.8070  142.3180 C   0  0  1  0  0  3  0  0  0  0  0  0
  1 16  1  0  0  0  0
  1  8  2  0  0  0  0
  3 23  2  0  0  0  0
  4  5  1  0  0  0  0
  6 22  1  0  0  0  0
  6 17  2  0  0  0  0
  7 11  2  0  0  0  0
  9  2  1  0  0  0  0
  9 17  1  0  0  0  0
 10  4  1  0  0  0  0
 11 23  1  0  0  0  0
 11 12  1  0  0  0  0
 12 10  1  0  0  0  0
 12 21  1  0  0  0  0
 13 24  1  0  0  0  0
 13 21  1  0  0  0  0
 14 15  1  0  0  0  0
 14  1  1  0  0  0  0
 15 19  2  0  0  0  0
 17  7  1  0  0  0  0
 18 15  1  0  0  0  0
 18  6  1  0  0  0  0
 19  8  1  0  0  0  0
 19  2  1  0  0  0  0
 20  5  1  0  0  0  0
 21 20  1  1  0  0  0
 22  3  1  0  0  0  0
 23 13  1  0  0  0  0
 25 26  1  0  0  0  0
 26 30  1  0  0  0  0
 27 31  1  6  0  0  0
 27 32  1  0  0  0  0
 27 28  1  0  0  0  0
 28 29  1  0  0  0  0
 29 26  2  0  0  0  0
 32 24  1  6  0  0  0
 32 25  1  0  0  0  0
M  END
>  <MODEL>
2

>  <REMARK>
 VINA RESULT:      -8.0      1.983      2.386
  Name = 
  2 active torsions:
  status: ('A' for Active; 'I' for Inactive)
    1  A    between atoms: N_16  and  C_27
    2  A    between atoms: C_27  and  C_32
                            x       y       z     vdW  Elec       q    Type
                         _______ _______ _______ _____ _____    ______ ____

>  <TORSDO>
F 2

$$$$
=
 OpenBabel11052416483D

 32 37  0  0  1  0  0  0  0  0999 V2000
  186.9870  173.0540  135.7070 C   0  0  0  0  0  0  0  0  0  0  0  0
  189.7220  174.4110  137.6650 O   0  0  0  0  0  0  0  0  0  0  0  0
  187.0710  178.5060  138.5350 C   0  0  0  0  0  3  0  0  0  0  0  0
  189.5290  177.5520  143.8980 C   0  0  0  0  0  2  0  0  0  0  0  0
  188.2170  176.7720  143.9700 C   0  0  0  0  0  2  0  0  0  0  0  0
  188.7640  177.2710  137.1790 C   0  0  0  0  0  0  0  0  0  0  0  0
  189.7590  177.2630  139.4840 C   0  0  0  0  0  3  0  0  0  0  0  0
  188.0060  172.9980  136.6460 C   0  0  0  0  0  3  0  0  0  0  0  0
  190.4950  175.6080  137.7310 C   0  0  0  0  0  2  0  0  0  0  0  0
  189.9990  177.6380  142.4490 C   0  0  0  0  0  2  0  0  0  0  0  0
  188.8370  177.9330  140.1860 C   0  0  0  0  0  0  0  0  0  0  0  0
  188.9080  178.1080  141.5980 N   0  0  0  0  0  0  0  0  0  0  0  0
  186.6980  178.4790  140.9400 N   0  0  0  0  0  0  0  0  0  0  0  0
  186.8810  174.5890  135.0310 S   0  0  0  0  0  0  0  0  0  0  0  0
  188.1460  175.2280  135.9360 C   0  0  0  0  0  0  0  0  0  0  0  0
  186.1440  171.9610  135.3630 N   0  0  0  0  0  1  0  0  0  0  0  0
  189.6340  176.7810  138.0900 C   0  0  0  0  0  0  0  0  0  0  0  0
  188.6380  176.6360  135.8240 C   0  0  0  0  0  2  0  0  0  0  0  0
  188.6620  174.2290  136.7660 C   0  0  0  0  0  0  0  0  0  0  0  0
  187.0940  177.3830  143.1120 C   0  0  0  0  0  2  0  0  0  0  0  0
  187.5750  178.4430  142.1120 C   0  0  1  0  0  3  0  0  0  0  0  0
  188.0170  178.5500  137.3810 C   0  0  0  0  0  2  0  0  0  0  0  0
  187.4840  178.2510  139.7740 C   0  0  0  0  0  0  0  0  0  0  0  0
  185.3510  179.0410  140.9500 C   0  0  0  0  0  2  0  0  0  0  0  0
  183.6610  177.2710  140.4450 C   0  0  0  0  0  2  0  0  0  0  0  0
  182.5440  176.8130  139.5450 C   0  0  0  0  0  0  0  0  0  0  0  0
  183.5750  179.4590  139.2250 C   0  0  2  0  0  3  0  0  0  0  0  0
  182.8020  178.8130  138.0800 C   0  0  0  0  0  2  0  0  0  0  0  0
  182.1210  177.5440  138.5090 C   0  0  0  0  0  3  0  0  0  0  0  0
  181.8880  175.6280  139.8440 O   0  0  0  0  0  1  0  0  0  0  0  0
  184.3250  180.5220  138.7190 O   0  0  0  0  0  1  0  0  0  0  0  0
  184.4940  178.4140  139.8550 C   0  0  1  0  0  3  0  0  0  0  0  0
  1  8  2  0  0  0  0
  2  9  1  0  0  0  0
  3 23  2  0  0  0  0
  4  5  1  0  0  0  0
  6 22  1  0  0  0  0
  6 17  2  0  0  0  0
  7 11  2  0  0  0  0
  8 19  1  0  0  0  0
  9 17  1  0  0  0  0
 10  4  1  0  0  0  0
 11 12  1  0  0  0  0
 12 21  1  0  0  0  0
 12 10  1  0  0  0  0
 13 24  1  0  0  0  0
 13 21  1  0  0  0  0
 14  1  1  0  0  0  0
 14 15  1  0  0  0  0
 15 19  2  0  0  0  0
 16  1  1  0  0  0  0
 17  7  1  0  0  0  0
 18 15  1  0  0  0  0
 18  6  1  0  0  0  0
 19  2  1  0  0  0  0
 20  5  1  0  0  0  0
 21 20  1  1  0  0  0
 22  3  1  0  0  0  0
 23 11  1  0  0  0  0
 23 13  1  0  0  0  0
 26 30  1  0  0  0  0
 26 25  1  0  0  0  0
 27 31  1  6  0  0  0
 27 32  1  0  0  0  0
 28 29  1  0  0  0  0
 28 27  1  0  0  0  0
 29 26  2  0  0  0  0
 32 25  1  0  0  0  0
 32 24  1  1  0  0  0
M  END
>  <MODEL>
3

>  <REMARK>
 VINA RESULT:      -7.6      1.521      1.963
  Name = 
  2 active torsions:
  status: ('A' for Active; 'I' for Inactive)
    1  A    between atoms: N_16  and  C_27
    2  A    between atoms: C_27  and  C_32
                            x       y       z     vdW  Elec       q    Type
                         _______ _______ _______ _____ _____    ______ ____

>  <TORSDO>
F 2

$$$$
=
 OpenBabel11052416483D

 32 37  0  0  1  0  0  0  0  0999 V2000
  181.1950  175.2600  139.1290 C   0  0  0  0  0  0  0  0  0  0  0  0
  183.8320  177.5600  138.1750 O   0  0  0  0  0  0  0  0  0  0  0  0
  185.0020  178.2030  142.9470 C   0  0  0  0  0  3  0  0  0  0  0  0
  190.4240  177.8770  140.4550 C   0  0  0  0  0  2  0  0  0  0  0  0
  190.1090  176.4230  140.8010 C   0  0  0  0  0  2  0  0  0  0  0  0
  183.7520  178.9200  140.9090 C   0  0  0  0  0  0  0  0  0  0  0  0
  186.1510  179.0050  140.1710 C   0  0  0  0  0  3  0  0  0  0  0  0
  182.2700  175.6880  138.3650 C   0  0  0  0  0  3  0  0  0  0  0  0
  184.2660  178.8790  138.5000 C   0  0  0  0  0  2  0  0  0  0  0  0
  189.1260  178.6430  140.2190 C   0  0  0  0  0  2  0  0  0  0  0  0
  186.7950  178.6210  141.2790 C   0  0  0  0  0  0  0  0  0  0  0  0
  188.2040  178.4160  141.3300 N   0  0  0  0  0  0  0  0  0  0  0  0
  187.2510  177.2920  143.1410 N   0  0  0  0  0  0  0  0  0  0  0  0
  180.8240  176.3850  140.3220 S   0  0  0  0  0  0  0  0  0  0  0  0
  182.0450  177.4560  139.8890 C   0  0  0  0  0  0  0  0  0  0  0  0
  180.5000  174.0340  138.9320 N   0  0  0  0  0  1  0  0  0  0  0  0
  184.6890  178.9630  139.9360 C   0  0  0  0  0  0  0  0  0  0  0  0
  182.2990  178.7660  140.5650 C   0  0  0  0  0  2  0  0  0  0  0  0
  182.7420  176.9340  138.7950 C   0  0  0  0  0  0  0  0  0  0  0  0
  189.2020  176.2680  142.0360 C   0  0  0  0  0  2  0  0  0  0  0  0
  188.5300  177.5730  142.4850 C   0  0  1  0  0  3  0  0  0  0  0  0
  184.0650  179.1950  142.3440 C   0  0  0  0  0  2  0  0  0  0  0  0
  186.2200  177.9960  142.4540 C   0  0  0  0  0  0  0  0  0  0  0  0
  187.1320  176.7220  144.4790 C   0  0  0  0  0  2  0  0  0  0  0  0
  186.3430  178.3210  146.2300 C   0  0  0  0  0  2  0  0  0  0  0  0
  186.6650  179.0570  147.5040 C   0  0  0  0  0  0  0  0  0  0  0  0
  188.4820  177.0590  146.5690 C   0  0  2  0  0  3  0  0  0  0  0  0
  188.9720  178.1150  147.5550 C   0  0  0  0  0  2  0  0  0  0  0  0
  187.8370  178.9140  148.1300 C   0  0  0  0  0  3  0  0  0  0  0  0
  185.6860  179.8530  148.0810 O   0  0  0  0  0  1  0  0  0  0  0  0
  189.5870  176.4820  145.9410 O   0  0  0  0  0  1  0  0  0  0  0  0
  187.5740  177.7270  145.5370 C   0  0  1  0  0  3  0  0  0  0  0  0
  1 14  1  0  0  0  0
  2  9  1  0  0  0  0
  2 19  1  0  0  0  0
  4  5  1  0  0  0  0
  5 20  1  0  0  0  0
  6 22  1  0  0  0  0
  7 11  2  0  0  0  0
  8 19  1  0  0  0  0
  8  1  2  0  0  0  0
  9 17  1  0  0  0  0
 10  4  1  0  0  0  0
 10 12  1  0  0  0  0
 11 12  1  0  0  0  0
 11 23  1  0  0  0  0
 12 21  1  0  0  0  0
 13 24  1  0  0  0  0
 15 14  1  0  0  0  0
 15 18  1  0  0  0  0
 16  1  1  0  0  0  0
 17  7  1  0  0  0  0
 17  6  2  0  0  0  0
 18  6  1  0  0  0  0
 19 15  2  0  0  0  0
 21 20  1  6  0  0  0
 21 13  1  0  0  0  0
 22  3  1  0  0  0  0
 23  3  2  0  0  0  0
 23 13  1  0  0  0  0
 25 26  1  0  0  0  0
 26 30  1  0  0  0  0
 26 29  2  0  0  0  0
 27 31  1  6  0  0  0
 27 28  1  0  0  0  0
 28 29  1  0  0  0  0
 32 24  1  6  0  0  0
 32 25  1  0  0  0  0
 32 27  1  0  0  0  0
M  END
>  <MODEL>
4

>  <REMARK>
 VINA RESULT:      -7.1      3.532      6.016
  Name = 
  2 active torsions:
  status: ('A' for Active; 'I' for Inactive)
    1  A    between atoms: N_16  and  C_27
    2  A    between atoms: C_27  and  C_32
                            x       y       z     vdW  Elec       q    Type
                         _______ _______ _______ _____ _____    ______ ____

>  <TORSDO>
F 2

$$$$
=
 OpenBabel11052416483D

 32 37  0  0  1  0  0  0  0  0999 V2000
  188.4350  176.5650  142.9650 C   0  0  0  0  0  0  0  0  0  0  0  0
  185.1080  177.8560  143.6130 O   0  0  0  0  0  0  0  0  0  0  0  0
  184.1990  177.9670  138.7430 C   0  0  0  0  0  3  0  0  0  0  0  0
  179.0100  175.8780  140.8470 C   0  0  0  0  0  2  0  0  0  0  0  0
  179.8230  174.6090  140.5950 C   0  0  0  0  0  2  0  0  0  0  0  0
  184.9580  179.1060  140.8290 C   0  0  0  0  0  0  0  0  0  0  0  0
  182.6170  178.3900  141.3860 C   0  0  0  0  0  3  0  0  0  0  0  0
  187.2180  176.6200  143.6270 C   0  0  0  0  0  3  0  0  0  0  0  0
  184.2860  178.9440  143.1940 C   0  0  0  0  0  2  0  0  0  0  0  0
  179.9510  177.0420  141.1400 C   0  0  0  0  0  2  0  0  0  0  0  0
  182.2340  177.7880  140.2540 C   0  0  0  0  0  0  0  0  0  0  0  0
  180.9860  177.1180  140.1120 N   0  0  0  0  0  0  0  0  0  0  0  0
  182.4110  176.3450  138.4300 N   0  0  0  0  0  0  0  0  0  0  0  0
  188.5070  177.7240  141.7500 S   0  0  0  0  0  0  0  0  0  0  0  0
  186.9650  178.3280  142.0410 C   0  0  0  0  0  0  0  0  0  0  0  0
  189.4810  175.6510  143.2700 N   0  0  0  0  0  1  0  0  0  0  0  0
  183.9820  178.8500  141.7290 C   0  0  0  0  0  0  0  0  0  0  0  0
  186.3440  179.4600  141.2860 C   0  0  0  0  0  2  0  0  0  0  0  0
  186.3930  177.6230  143.1050 C   0  0  0  0  0  0  0  0  0  0  0  0
  180.8300  174.7450  139.4390 C   0  0  0  0  0  2  0  0  0  0  0  0
  181.0610  176.1910  138.9770 C   0  0  1  0  0  3  0  0  0  0  0  0
  184.6940  179.2300  139.3640 C   0  0  0  0  0  2  0  0  0  0  0  0
  183.0830  177.3710  139.1560 C   0  0  0  0  0  0  0  0  0  0  0  0
  182.8270  175.8210  137.1330 C   0  0  0  0  0  2  0  0  0  0  0  0
  183.0350  173.3330  137.0370 C   0  0  0  0  0  2  0  0  0  0  0  0
  183.9470  172.1490  136.8450 C   0  0  0  0  0  0  0  0  0  0  0  0
  184.9710  174.7720  136.3540 C   0  0  2  0  0  3  0  0  0  0  0  0
  185.9420  173.6260  136.6190 C   0  0  0  0  0  2  0  0  0  0  0  0
  185.2520  172.2900  136.5990 C   0  0  0  0  0  3  0  0  0  0  0  0
  183.3980  170.8750  136.8550 O   0  0  0  0  0  1  0  0  0  0  0  0
  185.6330  175.9820  136.5660 O   0  0  0  0  0  1  0  0  0  0  0  0
  183.7810  174.6440  137.3050 C   0  0  1  0  0  3  0  0  0  0  0  0
  1 16  1  0  0  0  0
  1  8  2  0  0  0  0
  3 23  2  0  0  0  0
  3 22  1  0  0  0  0
  4 10  1  0  0  0  0
  5  4  1  0  0  0  0
  6 18  1  0  0  0  0
  6 17  2  0  0  0  0
  7 17  1  0  0  0  0
  9  2  1  0  0  0  0
 11  7  2  0  0  0  0
 12 11  1  0  0  0  0
 12 10  1  0  0  0  0
 13 21  1  0  0  0  0
 13 23  1  0  0  0  0
 14 15  1  0  0  0  0
 14  1  1  0  0  0  0
 15 19  2  0  0  0  0
 17  9  1  0  0  0  0
 18 15  1  0  0  0  0
 19  2  1  0  0  0  0
 19  8  1  0  0  0  0
 20  5  1  0  0  0  0
 21 20  1  1  0  0  0
 21 12  1  0  0  0  0
 22  6  1  0  0  0  0
 23 11  1  0  0  0  0
 24 13  1  0  0  0  0
 25 32  1  0  0  0  0
 26 30  1  0  0  0  0
 26 25  1  0  0  0  0
 27 31  1  1  0  0  0
 27 28  1  0  0  0  0
 27 32  1  0  0  0  0
 29 28  1  0  0  0  0
 29 26  2  0  0  0  0
 32 24  1  6  0  0  0
M  END
>  <MODEL>
5

>  <REMARK>
 VINA RESULT:      -7.0      3.557      8.091
  Name = 
  2 active torsions:
  status: ('A' for Active; 'I' for Inactive)
    1  A    between atoms: N_16  and  C_27
    2  A    between atoms: C_27  and  C_32
                            x       y       z     vdW  Elec       q    Type
                         _______ _______ _______ _____ _____    ______ ____

>  <TORSDO>
F 2

$$$$
=
 OpenBabel11052416483D

 32 37  0  0  1  0  0  0  0  0999 V2000
  182.6330  174.9660  137.9960 C   0  0  0  0  0  0  0  0  0  0  0  0
  185.5630  177.0530  137.5290 O   0  0  0  0  0  0  0  0  0  0  0  0
  185.5400  178.1690  142.3560 C   0  0  0  0  0  3  0  0  0  0  0  0
  191.3830  177.3810  141.3730 C   0  0  0  0  0  2  0  0  0  0  0  0
  190.9010  175.9850  141.7650 C   0  0  0  0  0  2  0  0  0  0  0  0
  184.8870  178.7050  140.0080 C   0  0  0  0  0  0  0  0  0  0  0  0
  187.3940  178.6230  139.9010 C   0  0  0  0  0  3  0  0  0  0  0  0
  183.8890  175.2700  137.4930 C   0  0  0  0  0  3  0  0  0  0  0  0
  185.9830  178.3830  137.8250 C   0  0  0  0  0  2  0  0  0  0  0  0
  190.2350  178.1620  140.7410 C   0  0  0  0  0  2  0  0  0  0  0  0
  187.7160  178.3400  141.1690 C   0  0  0  0  0  0  0  0  0  0  0  0
  189.0520  178.0910  141.5960 N   0  0  0  0  0  0  0  0  0  0  0  0
  187.6090  177.2050  143.2040 N   0  0  0  0  0  0  0  0  0  0  0  0
  182.0460  176.2270  138.9400 S   0  0  0  0  0  0  0  0  0  0  0  0
  183.4010  177.2000  138.7320 C   0  0  0  0  0  0  0  0  0  0  0  0
  181.9350  173.7520  137.7480 N   0  0  0  0  0  1  0  0  0  0  0  0
  186.0380  178.6080  139.3060 C   0  0  0  0  0  0  0  0  0  0  0  0
  183.5590  178.5660  139.3210 C   0  0  0  0  0  2  0  0  0  0  0  0
  184.3160  176.5370  137.9070 C   0  0  0  0  0  0  0  0  0  0  0  0
  189.7060  175.9990  142.7370 C   0  0  0  0  0  2  0  0  0  0  0  0
  189.0260  177.3680  142.8720 C   0  0  1  0  0  3  0  0  0  0  0  0
  184.8470  179.1240  141.4420 C   0  0  0  0  0  2  0  0  0  0  0  0
  186.8280  177.8670  142.2120 C   0  0  0  0  0  0  0  0  0  0  0  0
  187.1240  176.7890  144.5160 C   0  0  0  0  0  2  0  0  0  0  0  0
  186.3950  178.4430  146.2430 C   0  0  0  0  0  2  0  0  0  0  0  0
  186.7210  179.1440  147.5350 C   0  0  0  0  0  0  0  0  0  0  0  0
  188.4040  177.0050  146.6650 C   0  0  2  0  0  3  0  0  0  0  0  0
  188.9370  178.0120  147.6790 C   0  0  0  0  0  2  0  0  0  0  0  0
  187.8490  178.9020  148.2100 C   0  0  0  0  0  3  0  0  0  0  0  0
  185.7880  180.0170  148.0760 O   0  0  0  0  0  1  0  0  0  0  0  0
  189.4840  176.3400  146.0810 O   0  0  0  0  0  1  0  0  0  0  0  0
  187.6020  177.7500  145.6000 C   0  0  1  0  0  3  0  0  0  0  0  0
  1 14  1  0  0  0  0
  2  9  1  0  0  0  0
  2 19  1  0  0  0  0
  4  5  1  0  0  0  0
  5 20  1  0  0  0  0
  6 22  1  0  0  0  0
  7 11  2  0  0  0  0
  8 19  1  0  0  0  0
  8  1  2  0  0  0  0
  9 17  1  0  0  0  0
 10  4  1  0  0  0  0
 10 12  1  0  0  0  0
 11 12  1  0  0  0  0
 11 23  1  0  0  0  0
 12 21  1  0  0  0  0
 13 24  1  0  0  0  0
 15 14  1  0  0  0  0
 15 18  1  0  0  0  0
 16  1  1  0  0  0  0
 17  7  1  0  0  0  0
 17  6  2  0  0  0  0
 18  6  1  0  0  0  0
 19 15  2  0  0  0  0
 21 20  1  6  0  0  0
 21 13  1  0  0  0  0
 22  3  1  0  0  0  0
 23  3  2  0  0  0  0
 23 13  1  0  0  0  0
 25 26  1  0  0  0  0
 26 30  1  0  0  0  0
 26 29  2  0  0  0  0
 27 31  1  6  0  0  0
 27 28  1  0  0  0  0
 28 29  1  0  0  0  0
 32 24  1  6  0  0  0
 32 25  1  0  0  0  0
 32 27  1  0  0  0  0
M  END
>  <MODEL>
6

>  <REMARK>
 VINA RESULT:      -6.9      3.154      5.168
  Name = 
  2 active torsions:
  status: ('A' for Active; 'I' for Inactive)
    1  A    between atoms: N_16  and  C_27
    2  A    between atoms: C_27  and  C_32
                            x       y       z     vdW  Elec       q    Type
                         _______ _______ _______ _____ _____    ______ ____

>  <TORSDO>
F 2

$$$$
=
 OpenBabel11052416483D

 32 37  0  0  1  0  0  0  0  0999 V2000
  189.6600  173.3130  136.4850 C   0  0  0  0  0  0  0  0  0  0  0  0
  191.7490  175.7940  138.1080 O   0  0  0  0  0  0  0  0  0  0  0  0
  187.8180  177.4670  140.6180 C   0  0  0  0  0  3  0  0  0  0  0  0
  192.0310  177.5680  144.8550 C   0  0  0  0  0  2  0  0  0  0  0  0
  191.4330  176.1690  144.9890 C   0  0  0  0  0  2  0  0  0  0  0  0
  189.3410  177.5950  138.6450 C   0  0  0  0  0  0  0  0  0  0  0  0
  190.8930  177.9280  140.5900 C   0  0  0  0  0  3  0  0  0  0  0  0
  190.8010  173.7620  137.1310 C   0  0  0  0  0  3  0  0  0  0  0  0
  191.7530  177.2030  138.3340 C   0  0  0  0  0  2  0  0  0  0  0  0
  191.8720  178.0610  143.4200 C   0  0  0  0  0  2  0  0  0  0  0  0
  190.0530  177.8590  141.6300 C   0  0  0  0  0  0  0  0  0  0  0  0
  190.4870  177.8940  142.9860 N   0  0  0  0  0  0  0  0  0  0  0  0
  188.3400  176.9780  142.9450 N   0  0  0  0  0  0  0  0  0  0  0  0
  188.5490  174.5610  136.2970 S   0  0  0  0  0  0  0  0  0  0  0  0
  189.5090  175.7170  137.0490 C   0  0  0  0  0  0  0  0  0  0  0  0
  189.4540  171.9770  136.0420 N   0  0  0  0  0  1  0  0  0  0  0  0
  190.5830  177.6110  139.1770 C   0  0  0  0  0  0  0  0  0  0  0  0
  189.1220  177.1510  137.2270 C   0  0  0  0  0  2  0  0  0  0  0  0
  190.7140  175.1250  137.4420 C   0  0  0  0  0  0  0  0  0  0  0  0
  189.9460  176.0970  144.5930 C   0  0  0  0  0  2  0  0  0  0  0  0
  189.4370  177.3370  143.8450 C   0  0  1  0  0  3  0  0  0  0  0  0
  188.1540  178.1720  139.3460 C   0  0  0  0  0  2  0  0  0  0  0  0
  188.6880  177.3730  141.6200 C   0  0  0  0  0  0  0  0  0  0  0  0
  186.9920  176.6470  143.3970 C   0  0  0  0  0  2  0  0  0  0  0  0
  184.9460  178.0170  142.9710 C   0  0  0  0  0  2  0  0  0  0  0  0
  183.9640  179.0210  143.5150 C   0  0  0  0  0  0  0  0  0  0  0  0
  185.8930  177.8810  145.2880 C   0  0  2  0  0  3  0  0  0  0  0  0
  185.2140  179.1940  145.6640 C   0  0  0  0  0  2  0  0  0  0  0  0
  184.0580  179.5080  144.7560 C   0  0  0  0  0  3  0  0  0  0  0  0
  182.8880  179.4000  142.7240 O   0  0  0  0  0  1  0  0  0  0  0  0
  187.0570  177.7430  146.0460 O   0  0  0  0  0  1  0  0  0  0  0  0
  186.2310  177.9070  143.7970 C   0  0  1  0  0  3  0  0  0  0  0  0
  1  8  2  0  0  0  0
  2  9  1  0  0  0  0
  3 23  2  0  0  0  0
  4  5  1  0  0  0  0
  6 17  2  0  0  0  0
  6 22  1  0  0  0  0
  7 11  2  0  0  0  0
  8 19  1  0  0  0  0
  9 17  1  0  0  0  0
 10  4  1  0  0  0  0
 11 12  1  0  0  0  0
 12 10  1  0  0  0  0
 12 21  1  0  0  0  0
 13 24  1  0  0  0  0
 13 21  1  0  0  0  0
 14  1  1  0  0  0  0
 14 15  1  0  0  0  0
 15 18  1  0  0  0  0
 15 19  2  0  0  0  0
 16  1  1  0  0  0  0
 17  7  1  0  0  0  0
 18  6  1  0  0  0  0
 19  2  1  0  0  0  0
 20  5  1  0  0  0  0
 21 20  1  6  0  0  0
 22  3  1  0  0  0  0
 23 11  1  0  0  0  0
 23 13  1  0  0  0  0
 25 26  1  0  0  0  0
 25 32  1  0  0  0  0
 26 29  2  0  0  0  0
 27 28  1  0  0  0  0
 27 31  1  1  0  0  0
 29 28  1  0  0  0  0
 30 26  1  0  0  0  0
 32 24  1  6  0  0  0
 32 27  1  0  0  0  0
M  END
>  <MODEL>
7

>  <REMARK>
 VINA RESULT:      -6.3      1.932      2.815
  Name = 
  2 active torsions:
  status: ('A' for Active; 'I' for Inactive)
    1  A    between atoms: N_16  and  C_27
    2  A    between atoms: C_27  and  C_32
                            x       y       z     vdW  Elec       q    Type
                         _______ _______ _______ _____ _____    ______ ____

>  <TORSDO>
F 2

$$$$
=
 OpenBabel11052416483D

 32 37  0  0  1  0  0  0  0  0999 V2000
  180.1840  174.7970  139.5950 C   0  0  0  0  0  0  0  0  0  0  0  0
  183.2340  175.3000  137.6980 O   0  0  0  0  0  0  0  0  0  0  0  0
  184.0760  179.5140  140.1640 C   0  0  0  0  0  3  0  0  0  0  0  0
  189.5670  177.1620  139.9740 C   0  0  0  0  0  2  0  0  0  0  0  0
  188.9900  176.5990  141.2720 C   0  0  0  0  0  2  0  0  0  0  0  0
  183.1420  178.3140  138.1860 C   0  0  0  0  0  0  0  0  0  0  0  0
  185.5770  177.7020  138.1300 C   0  0  0  0  0  3  0  0  0  0  0  0
  181.3760  174.4000  139.0090 C   0  0  0  0  0  3  0  0  0  0  0  0
  183.8490  176.3230  136.9180 C   0  0  0  0  0  2  0  0  0  0  0  0
  188.4370  177.4520  138.9910 C   0  0  0  0  0  2  0  0  0  0  0  0
  186.0520  178.3600  139.1950 C   0  0  0  0  0  0  0  0  0  0  0  0
  187.3980  178.2440  139.6450 N   0  0  0  0  0  0  0  0  0  0  0  0
  186.1210  179.0800  141.4130 N   0  0  0  0  0  0  0  0  0  0  0  0
  179.9000  176.4310  139.3230 S   0  0  0  0  0  0  0  0  0  0  0  0
  181.3130  176.6750  138.4450 C   0  0  0  0  0  0  0  0  0  0  0  0
  179.3170  173.9390  140.3270 N   0  0  0  0  0  1  0  0  0  0  0  0
  184.1540  177.5250  137.7600 C   0  0  0  0  0  0  0  0  0  0  0  0
  181.7190  177.9820  137.8430 C   0  0  0  0  0  2  0  0  0  0  0  0
  182.0070  175.4640  138.3540 C   0  0  0  0  0  0  0  0  0  0  0  0
  187.9660  177.5340  141.9430 C   0  0  0  0  0  2  0  0  0  0  0  0
  187.4810  178.6790  141.0430 C   0  0  1  0  0  3  0  0  0  0  0  0
  183.3700  179.6300  138.8550 C   0  0  0  0  0  2  0  0  0  0  0  0
  185.2830  178.9610  140.2660 C   0  0  0  0  0  0  0  0  0  0  0  0
  185.7950  179.8340  142.6180 C   0  0  0  0  0  2  0  0  0  0  0  0
  186.4580  178.6510  144.7160 C   0  0  0  0  0  2  0  0  0  0  0  0
  186.0060  178.0330  146.0140 C   0  0  0  0  0  0  0  0  0  0  0  0
  184.1180  179.5090  144.4580 C   0  0  2  0  0  3  0  0  0  0  0  0
  183.6160  178.5100  145.4960 C   0  0  0  0  0  2  0  0  0  0  0  0
  184.7240  178.0240  146.3870 C   0  0  0  0  0  3  0  0  0  0  0  0
  186.9630  177.5200  146.8780 O   0  0  0  0  0  1  0  0  0  0  0  0
  183.0860  179.7770  143.5560 O   0  0  0  0  0  1  0  0  0  0  0  0
  185.3160  178.9040  143.7270 C   0  0  1  0  0  3  0  0  0  0  0  0
  1 16  1  0  0  0  0
  2 19  1  0  0  0  0
  3 23  2  0  0  0  0
  4  5  1  0  0  0  0
  5 20  1  0  0  0  0
  6 22  1  0  0  0  0
  7 11  2  0  0  0  0
  8  1  2  0  0  0  0
  9  2  1  0  0  0  0
  9 17  1  0  0  0  0
 10 12  1  0  0  0  0
 10  4  1  0  0  0  0
 11 12  1  0  0  0  0
 11 23  1  0  0  0  0
 12 21  1  0  0  0  0
 13 24  1  0  0  0  0
 14  1  1  0  0  0  0
 15 14  1  0  0  0  0
 17  7  1  0  0  0  0
 17  6  2  0  0  0  0
 18  6  1  0  0  0  0
 18 15  1  0  0  0  0
 19 15  2  0  0  0  0
 19  8  1  0  0  0  0
 21 13  1  0  0  0  0
 21 20  1  1  0  0  0
 22  3  1  0  0  0  0
 23 13  1  0  0  0  0
 25 26  1  0  0  0  0
 26 29  2  0  0  0  0
 26 30  1  0  0  0  0
 27 31  1  6  0  0  0
 27 28  1  0  0  0  0
 28 29  1  0  0  0  0
 32 24  1  6  0  0  0
 32 27  1  0  0  0  0
 32 25  1  0  0  0  0
M  END
>  <MODEL>
8

>  <REMARK>
 VINA RESULT:      -6.2      3.397      5.466
  Name = 
  2 active torsions:
  status: ('A' for Active; 'I' for Inactive)
    1  A    between atoms: N_16  and  C_27
    2  A    between atoms: C_27  and  C_32
                            x       y       z     vdW  Elec       q    Type
                         _______ _______ _______ _____ _____    ______ ____

>  <TORSDO>
F 2

$$$$
=
 OpenBabel11052416483D

 32 37  0  0  1  0  0  0  0  0999 V2000
  179.9040  175.0530  140.5860 C   0  0  0  0  0  0  0  0  0  0  0  0
  181.7340  175.7370  137.5300 O   0  0  0  0  0  0  0  0  0  0  0  0
  184.2290  179.3480  139.8290 C   0  0  0  0  0  3  0  0  0  0  0  0
  188.5830  176.7720  136.6460 C   0  0  0  0  0  2  0  0  0  0  0  0
  188.6130  176.0050  137.9670 C   0  0  0  0  0  2  0  0  0  0  0  0
  182.3120  178.6030  138.4160 C   0  0  0  0  0  0  0  0  0  0  0  0
  184.3170  177.8780  137.0900 C   0  0  0  0  0  3  0  0  0  0  0  0
  180.6080  174.7090  139.4420 C   0  0  0  0  0  3  0  0  0  0  0  0
  182.0450  176.8550  136.7010 C   0  0  0  0  0  2  0  0  0  0  0  0
  187.1760  177.3070  136.3940 C   0  0  0  0  0  2  0  0  0  0  0  0
  185.3260  178.2920  137.8660 C   0  0  0  0  0  0  0  0  0  0  0  0
  186.6940  178.0170  137.5770 N   0  0  0  0  0  0  0  0  0  0  0  0
  186.5360  178.5690  139.8410 N   0  0  0  0  0  0  0  0  0  0  0  0
  179.7610  176.7220  140.7200 S   0  0  0  0  0  0  0  0  0  0  0  0
  180.6100  177.0490  139.3070 C   0  0  0  0  0  0  0  0  0  0  0  0
  179.3750  174.1200  141.5210 N   0  0  0  0  0  1  0  0  0  0  0  0
  182.8790  177.8550  137.4440 C   0  0  0  0  0  0  0  0  0  0  0  0
  180.8640  178.4230  138.7720 C   0  0  0  0  0  2  0  0  0  0  0  0
  181.0000  175.8420  138.7190 C   0  0  0  0  0  0  0  0  0  0  0  0
  188.1720  176.8500  139.1770 C   0  0  0  0  0  2  0  0  0  0  0  0
  187.4870  178.1720  138.8010 C   0  0  1  0  0  3  0  0  0  0  0  0
  183.0130  179.7520  139.0650 C   0  0  0  0  0  2  0  0  0  0  0  0
  185.2480  178.7200  139.2480 C   0  0  0  0  0  0  0  0  0  0  0  0
  186.9290  179.0970  141.1430 C   0  0  0  0  0  2  0  0  0  0  0  0
  188.9260  178.1450  142.3040 C   0  0  0  0  0  2  0  0  0  0  0  0
  189.4440  177.3090  143.4450 C   0  0  0  0  0  0  0  0  0  0  0  0
  186.6690  177.9910  143.3830 C   0  0  2  0  0  3  0  0  0  0  0  0
  187.1310  176.8060  144.2260 C   0  0  0  0  0  2  0  0  0  0  0  0
  188.6280  176.7530  144.3450 C   0  0  0  0  0  3  0  0  0  0  0  0
  190.8150  177.1710  143.6050 O   0  0  0  0  0  1  0  0  0  0  0  0
  185.2960  177.8780  143.1610 O   0  0  0  0  0  1  0  0  0  0  0  0
  187.4240  177.9780  142.0540 C   0  0  1  0  0  3  0  0  0  0  0  0
  1 14  1  0  0  0  0
  1 16  1  0  0  0  0
  2 19  1  0  0  0  0
  4  5  1  0  0  0  0
  5 20  1  0  0  0  0
  6 18  1  0  0  0  0
  6 22  1  0  0  0  0
  7 17  1  0  0  0  0
  7 11  2  0  0  0  0
  8  1  2  0  0  0  0
  9 17  1  0  0  0  0
  9  2  1  0  0  0  0
 10  4  1  0  0  0  0
 10 12  1  0  0  0  0
 11 23  1  0  0  0  0
 12 11  1  0  0  0  0
 12 21  1  0  0  0  0
 13 24  1  0  0  0  0
 15 14  1  0  0  0  0
 17  6  2  0  0  0  0
 18 15  1  0  0  0  0
 19 15  2  0  0  0  0
 19  8  1  0  0  0  0
 21 20  1  1  0  0  0
 21 13  1  0  0  0  0
 22  3  1  0  0  0  0
 23  3  2  0  0  0  0
 23 13  1  0  0  0  0
 25 26  1  0  0  0  0
 26 30  1  0  0  0  0
 26 29  2  0  0  0  0
 27 31  1  6  0  0  0
 27 28  1  0  0  0  0
 28 29  1  0  0  0  0
 32 24  1  6  0  0  0
 32 25  1  0  0  0  0
 32 27  1  0  0  0  0
M  END
>  <MODEL>
9

>  <REMARK>
 VINA RESULT:      -6.2      3.693      6.618
  Name = 
  2 active torsions:
  status: ('A' for Active; 'I' for Inactive)
    1  A    between atoms: N_16  and  C_27
    2  A    between atoms: C_27  and  C_32
                            x       y       z     vdW  Elec       q    Type
                         _______ _______ _______ _____ _____    ______ ____

>  <TORSDO>
F 2

$$$$
