=
 OpenBabel11052412573D

 31 35  0  0  1  0  0  0  0  0999 V2000
  190.8930  177.0310  139.3510 C   0  0  0  0  0  0  0  0  0  0  0  0
  188.4070  177.2710  142.1750 N   0  0  0  0  0  0  0  0  0  0  0  0
  189.0060  176.5470  143.2720 C   0  0  0  0  0  0  0  0  0  0  0  0
  189.0390  177.3960  140.8800 C   0  0  0  0  0  0  0  0  0  0  0  0
  190.2040  177.7100  138.3440 C   0  0  0  0  0  3  0  0  0  0  0  0
  189.9030  175.6840  143.0720 O   0  0  0  0  0  0  0  0  0  0  0  0
  186.4800  178.5180  141.3800 C   0  0  0  0  0  0  0  0  0  0  0  0
  192.1240  176.5210  139.1030 F   0  0  0  0  0  0  0  0  0  0  0  0
  187.1320  177.2350  144.7540 C   0  0  0  0  0  3  0  0  0  0  0  0
  187.1010  178.6280  140.1260 O   0  0  0  0  0  0  0  0  0  0  0  0
  187.1120  177.8810  142.3910 C   0  0  0  0  0  0  0  0  0  0  0  0
  190.3160  176.8770  140.6140 C   0  0  0  0  0  3  0  0  0  0  0  0
  188.3590  178.0860  139.8650 C   0  0  0  0  0  0  0  0  0  0  0  0
  188.9360  178.2380  138.6020 C   0  0  0  0  0  3  0  0  0  0  0  0
  186.4740  177.7470  143.7140 C   0  0  0  0  0  3  0  0  0  0  0  0
  188.5790  176.8290  144.6820 C   0  0  2  0  0  3  0  0  0  0  0  0
  184.4790  179.3520  140.1980 C   0  0  0  0  0  2  0  0  0  0  0  0
  184.0240  178.2200  141.0880 C   0  0  1  0  0  3  0  0  0  0  0  0
  185.1270  179.1560  141.5570 C   0  0  1  0  0  3  0  0  0  0  0  0
  182.6850  178.6160  141.6980 C   0  0  0  0  0  2  0  0  0  0  0  0
  180.3140  177.1050  138.9760 C   0  0  0  0  0  0  0  0  0  0  0  0
  179.8270  180.0670  140.9680 C   0  0  0  0  0  1  0  0  0  0  0  0
  179.3140  176.3550  139.2550 N   0  0  0  0  0  2  0  0  0  0  0  0
  181.8750  176.8050  139.7570 S   0  0  0  0  0  0  0  0  0  0  0  0
  180.8420  179.3620  140.0910 C   0  0  1  0  0  3  0  0  0  0  0  0
  181.4780  178.1950  140.8590 C   0  0  2  0  0  3  0  0  0  0  0  0
  180.0410  178.8070  138.5440 S   0  0  0  0  0  0  0  0  0  0  0  0
  189.4620  177.9250  145.2660 C   0  0  0  0  0  2  0  0  0  0  0  0
  189.7880  177.6580  146.7290 C   0  0  0  0  0  2  0  0  0  0  0  0
  192.0090  176.2780  146.9350 N   0  0  0  0  0  0  0  0  0  0  0  0
  191.0290  176.8870  146.8440 C   0  0  0  0  0  0  0  0  0  0  0  0
  1 12  1  0  0  0  0
  2 11  1  0  0  0  0
  2  3  1  0  0  0  0
  3 16  1  0  0  0  0
  4  2  1  0  0  0  0
  5 14  1  0  0  0  0
  5  1  2  0  0  0  0
  6  3  2  0  0  0  0
  7 11  2  0  0  0  0
  8  1  1  0  0  0  0
 10  7  1  0  0  0  0
 11 15  1  0  0  0  0
 12  4  2  0  0  0  0
 13 10  1  0  0  0  0
 13  4  1  0  0  0  0
 14 13  2  0  0  0  0
 15  9  2  0  0  0  0
 16  9  1  0  0  0  0
 16 28  1  6  0  0  0
 17 18  1  0  0  0  0
 17 19  1  0  0  0  0
 18 19  1  0  0  0  0
 18 20  1  1  0  0  0
 19  7  1  6  0  0  0
 21 23  2  0  0  0  0
 21 24  1  0  0  0  0
 24 26  1  0  0  0  0
 25 26  1  0  0  0  0
 25 22  1  1  0  0  0
 26 20  1  6  0  0  0
 27 21  1  0  0  0  0
 27 25  1  0  0  0  0
 28 29  1  0  0  0  0
 29 31  1  0  0  0  0
 31 30  3  0  0  0  0
M  END
>  <MODEL>
1

>  <REMARK>
 VINA RESULT:      -8.7      0.000      0.000
  Name = 
  6 active torsions:
  status: ('A' for Active; 'I' for Inactive)
    1  A    between atoms: C_3  and  C_9
    2  A    between atoms: C_3  and  C_22
    3  A    between atoms: C_15  and  C_23
    4  A    between atoms: C_18  and  C_26
    5  A    between atoms: C_26  and  C_31
    6  A    between atoms: C_30  and  C_31
                            x       y       z     vdW  Elec       q    Type
                         _______ _______ _______ _____ _____    ______ ____

>  <TORSDO>
F 6

$$$$
=
 OpenBabel11052412573D

 31 35  0  0  1  0  0  0  0  0999 V2000
  190.8650  177.0910  139.2910 C   0  0  0  0  0  0  0  0  0  0  0  0
  188.3660  177.2860  142.1080 N   0  0  0  0  0  0  0  0  0  0  0  0
  188.9620  176.5500  143.1980 C   0  0  0  0  0  0  0  0  0  0  0  0
  189.0020  177.4300  140.8170 C   0  0  0  0  0  0  0  0  0  0  0  0
  190.1770  177.7810  138.2900 C   0  0  0  0  0  3  0  0  0  0  0  0
  189.8620  175.6920  142.9900 O   0  0  0  0  0  0  0  0  0  0  0  0
  186.4380  178.5380  141.3210 C   0  0  0  0  0  0  0  0  0  0  0  0
  192.0990  176.5880  139.0420 F   0  0  0  0  0  0  0  0  0  0  0  0
  187.0800  177.2120  144.6800 C   0  0  0  0  0  3  0  0  0  0  0  0
  187.0640  178.6660  140.0710 O   0  0  0  0  0  0  0  0  0  0  0  0
  187.0670  177.8890  142.3260 C   0  0  0  0  0  0  0  0  0  0  0  0
  190.2820  176.9190  140.5500 C   0  0  0  0  0  3  0  0  0  0  0  0
  188.3250  178.1320  139.8090 C   0  0  0  0  0  0  0  0  0  0  0  0
  188.9070  178.3020  138.5500 C   0  0  0  0  0  3  0  0  0  0  0  0
  186.4250  177.7370  143.6450 C   0  0  0  0  0  3  0  0  0  0  0  0
  188.5280  176.8120  144.6090 C   0  0  2  0  0  3  0  0  0  0  0  0
  184.4390  179.3770  140.1410 C   0  0  0  0  0  2  0  0  0  0  0  0
  183.9840  178.2350  141.0170 C   0  0  1  0  0  3  0  0  0  0  0  0
  185.0820  179.1700  141.5000 C   0  0  1  0  0  3  0  0  0  0  0  0
  182.6420  178.6190  141.6270 C   0  0  0  0  0  2  0  0  0  0  0  0
  179.2420  179.1630  139.7680 C   0  0  0  0  0  0  0  0  0  0  0  0
  181.4460  176.3180  139.6070 C   0  0  0  0  0  1  0  0  0  0  0  0
  179.1610  179.5840  138.5610 N   0  0  0  0  0  2  0  0  0  0  0  0
  180.3300  179.9750  140.9060 S   0  0  0  0  0  0  0  0  0  0  0  0
  180.7540  177.2480  140.5830 C   0  0  1  0  0  3  0  0  0  0  0  0
  181.4830  178.5970  140.6290 C   0  0  2  0  0  3  0  0  0  0  0  0
  178.9960  177.4370  140.1140 S   0  0  0  0  0  0  0  0  0  0  0  0
  189.4050  177.9040  145.2120 C   0  0  0  0  0  2  0  0  0  0  0  0
  189.9590  177.4890  146.5670 C   0  0  0  0  0  2  0  0  0  0  0  0
  188.2440  178.0530  148.4700 N   0  0  0  0  0  0  0  0  0  0  0  0
  189.0010  177.8040  147.6300 C   0  0  0  0  0  0  0  0  0  0  0  0
  1 12  1  0  0  0  0
  2 11  1  0  0  0  0
  2  3  1  0  0  0  0
  3 16  1  0  0  0  0
  4  2  1  0  0  0  0
  5 14  1  0  0  0  0
  5  1  2  0  0  0  0
  6  3  2  0  0  0  0
  7 11  2  0  0  0  0
  8  1  1  0  0  0  0
 10  7  1  0  0  0  0
 11 15  1  0  0  0  0
 12  4  2  0  0  0  0
 13 10  1  0  0  0  0
 13  4  1  0  0  0  0
 14 13  2  0  0  0  0
 15  9  2  0  0  0  0
 16  9  1  0  0  0  0
 16 28  1  6  0  0  0
 17 18  1  0  0  0  0
 17 19  1  0  0  0  0
 18 19  1  0  0  0  0
 18 20  1  1  0  0  0
 19  7  1  6  0  0  0
 21 27  1  0  0  0  0
 21 24  1  0  0  0  0
 23 21  2  0  0  0  0
 25 22  1  6  0  0  0
 25 26  1  0  0  0  0
 26 24  1  0  0  0  0
 26 20  1  1  0  0  0
 27 25  1  0  0  0  0
 28 29  1  0  0  0  0
 29 31  1  0  0  0  0
 31 30  3  0  0  0  0
M  END
>  <MODEL>
2

>  <REMARK>
 VINA RESULT:      -8.6      1.308      1.657
  Name = 
  6 active torsions:
  status: ('A' for Active; 'I' for Inactive)
    1  A    between atoms: C_3  and  C_9
    2  A    between atoms: C_3  and  C_22
    3  A    between atoms: C_15  and  C_23
    4  A    between atoms: C_18  and  C_26
    5  A    between atoms: C_26  and  C_31
    6  A    between atoms: C_30  and  C_31
                            x       y       z     vdW  Elec       q    Type
                         _______ _______ _______ _____ _____    ______ ____

>  <TORSDO>
F 6

$$$$
=
 OpenBabel11052412573D

 31 35  0  0  1  0  0  0  0  0999 V2000
  185.1610  178.1670  146.0320 C   0  0  0  0  0  0  0  0  0  0  0  0
  188.8360  177.9210  145.2250 N   0  0  0  0  0  0  0  0  0  0  0  0
  189.5040  177.8750  146.5050 C   0  0  0  0  0  0  0  0  0  0  0  0
  187.4010  178.0440  145.0940 C   0  0  0  0  0  0  0  0  0  0  0  0
  184.6220  178.2540  144.7460 C   0  0  0  0  0  3  0  0  0  0  0  0
  188.9450  178.3080  147.5490 O   0  0  0  0  0  0  0  0  0  0  0  0
  189.0820  177.9560  142.8090 C   0  0  0  0  0  0  0  0  0  0  0  0
  184.3420  178.1870  147.1120 F   0  0  0  0  0  0  0  0  0  0  0  0
  191.6800  177.5080  145.3600 C   0  0  0  0  0  3  0  0  0  0  0  0
  187.6890  178.0800  142.6940 O   0  0  0  0  0  0  0  0  0  0  0  0
  189.6520  177.8560  144.0310 C   0  0  0  0  0  0  0  0  0  0  0  0
  186.5430  178.0590  146.2050 C   0  0  0  0  0  3  0  0  0  0  0  0
  186.8480  178.1200  143.8060 C   0  0  0  0  0  0  0  0  0  0  0  0
  185.4670  178.2300  143.6330 C   0  0  0  0  0  3  0  0  0  0  0  0
  191.1140  177.7330  144.1740 C   0  0  0  0  0  3  0  0  0  0  0  0
  190.8800  177.2880  146.6140 C   0  0  2  0  0  3  0  0  0  0  0  0
  189.9560  176.4730  141.0390 C   0  0  0  0  0  2  0  0  0  0  0  0
  189.0330  177.4610  140.3680 C   0  0  1  0  0  3  0  0  0  0  0  0
  189.8940  177.9050  141.5400 C   0  0  1  0  0  3  0  0  0  0  0  0
  189.6690  177.8720  139.0460 C   0  0  0  0  0  2  0  0  0  0  0  0
  189.1920  175.5900  135.9030 C   0  0  0  0  0  0  0  0  0  0  0  0
  187.4640  178.6400  136.7310 C   0  0  0  0  0  1  0  0  0  0  0  0
  188.2710  174.7050  135.8110 N   0  0  0  0  0  2  0  0  0  0  0  0
  190.1520  175.6990  137.3870 S   0  0  0  0  0  0  0  0  0  0  0  0
  188.8480  178.0330  136.6300 C   0  0  1  0  0  3  0  0  0  0  0  0
  189.1120  177.1210  137.8360 C   0  0  2  0  0  3  0  0  0  0  0  0
  189.0140  177.1360  135.0450 S   0  0  0  0  0  0  0  0  0  0  0  0
  190.7680  175.7970  146.9120 C   0  0  0  0  0  2  0  0  0  0  0  0
  192.1290  175.1860  147.2160 C   0  0  0  0  0  2  0  0  0  0  0  0
  193.3070  176.4910  149.1620 N   0  0  0  0  0  0  0  0  0  0  0  0
  192.7870  175.9150  148.3030 C   0  0  0  0  0  0  0  0  0  0  0  0
  1 12  1  0  0  0  0
  1  8  1  0  0  0  0
  2  3  1  0  0  0  0
  3 16  1  0  0  0  0
  3  6  2  0  0  0  0
  4  2  1  0  0  0  0
  4 12  2  0  0  0  0
  5  1  2  0  0  0  0
  7 11  2  0  0  0  0
  9 16  1  0  0  0  0
 10  7  1  0  0  0  0
 10 13  1  0  0  0  0
 11 15  1  0  0  0  0
 11  2  1  0  0  0  0
 13  4  1  0  0  0  0
 14 13  2  0  0  0  0
 14  5  1  0  0  0  0
 15  9  2  0  0  0  0
 16 28  1  6  0  0  0
 17 19  1  0  0  0  0
 18 20  1  6  0  0  0
 18 17  1  0  0  0  0
 18 19  1  0  0  0  0
 19  7  1  1  0  0  0
 21 24  1  0  0  0  0
 23 21  2  0  0  0  0
 24 26  1  0  0  0  0
 25 22  1  1  0  0  0
 25 26  1  0  0  0  0
 26 20  1  1  0  0  0
 27 21  1  0  0  0  0
 27 25  1  0  0  0  0
 28 29  1  0  0  0  0
 29 31  1  0  0  0  0
 31 30  3  0  0  0  0
M  END
>  <MODEL>
3

>  <REMARK>
 VINA RESULT:      -7.7      4.530      6.451
  Name = 
  6 active torsions:
  status: ('A' for Active; 'I' for Inactive)
    1  A    between atoms: C_3  and  C_9
    2  A    between atoms: C_3  and  C_22
    3  A    between atoms: C_15  and  C_23
    4  A    between atoms: C_18  and  C_26
    5  A    between atoms: C_26  and  C_31
    6  A    between atoms: C_30  and  C_31
                            x       y       z     vdW  Elec       q    Type
                         _______ _______ _______ _____ _____    ______ ____

>  <TORSDO>
F 6

$$$$
=
 OpenBabel11052412573D

 31 35  0  0  1  0  0  0  0  0999 V2000
  189.8940  177.1260  146.7400 C   0  0  0  0  0  0  0  0  0  0  0  0
  187.9230  177.6520  143.5680 N   0  0  0  0  0  0  0  0  0  0  0  0
  186.5370  177.6560  143.9780 C   0  0  0  0  0  0  0  0  0  0  0  0
  189.0140  177.4500  144.4960 C   0  0  0  0  0  0  0  0  0  0  0  0
  191.1940  177.0910  146.2300 C   0  0  0  0  0  3  0  0  0  0  0  0
  186.1760  177.1210  145.0600 O   0  0  0  0  0  0  0  0  0  0  0  0
  189.4920  177.7930  141.7190 C   0  0  0  0  0  0  0  0  0  0  0  0
  189.6840  176.9840  148.0710 F   0  0  0  0  0  0  0  0  0  0  0  0
  185.8510  178.2320  141.6590 C   0  0  0  0  0  3  0  0  0  0  0  0
  190.5420  177.5910  142.6280 O   0  0  0  0  0  0  0  0  0  0  0  0
  188.2160  177.8470  142.1640 C   0  0  0  0  0  0  0  0  0  0  0  0
  188.8090  177.3080  145.8770 C   0  0  0  0  0  3  0  0  0  0  0  0
  190.3250  177.4250  143.9960 C   0  0  0  0  0  0  0  0  0  0  0  0
  191.4090  177.2410  144.8570 C   0  0  0  0  0  3  0  0  0  0  0  0
  187.0980  178.0520  141.2250 C   0  0  0  0  0  3  0  0  0  0  0  0
  185.5010  178.3190  143.1190 C   0  0  2  0  0  3  0  0  0  0  0  0
  191.2110  177.3800  139.9960 C   0  0  0  0  0  2  0  0  0  0  0  0
  189.9700  176.6340  139.5670 C   0  0  1  0  0  3  0  0  0  0  0  0
  189.8420  177.9780  140.2660 C   0  0  1  0  0  3  0  0  0  0  0  0
  189.8270  176.7940  138.0580 C   0  0  0  0  0  2  0  0  0  0  0  0
  187.1740  174.7440  136.0420 C   0  0  0  0  0  0  0  0  0  0  0  0
  186.8360  178.0300  137.4800 C   0  0  0  0  0  1  0  0  0  0  0  0
  186.2550  174.0460  136.5990 N   0  0  0  0  0  2  0  0  0  0  0  0
  188.8380  174.6260  136.6350 S   0  0  0  0  0  0  0  0  0  0  0  0
  187.7510  177.1830  136.6180 C   0  0  1  0  0  3  0  0  0  0  0  0
  188.5360  176.1990  137.4960 C   0  0  2  0  0  3  0  0  0  0  0  0
  186.7700  176.3240  135.3360 S   0  0  0  0  0  0  0  0  0  0  0  0
  185.3570  179.7770  143.5400 C   0  0  0  0  0  2  0  0  0  0  0  0
  184.2320  179.9570  144.5490 C   0  0  0  0  0  2  0  0  0  0  0  0
  182.0430  178.7890  143.7000 N   0  0  0  0  0  0  0  0  0  0  0  0
  183.0090  179.3050  144.0750 C   0  0  0  0  0  0  0  0  0  0  0  0
  1  8  1  0  0  0  0
  2  3  1  0  0  0  0
  2  4  1  0  0  0  0
  3  6  2  0  0  0  0
  4 12  1  0  0  0  0
  5  1  1  0  0  0  0
  7 11  2  0  0  0  0
  7 10  1  0  0  0  0
  9 16  1  0  0  0  0
 10 13  1  0  0  0  0
 11  2  1  0  0  0  0
 12  1  2  0  0  0  0
 13  4  2  0  0  0  0
 13 14  1  0  0  0  0
 14  5  2  0  0  0  0
 15  9  2  0  0  0  0
 15 11  1  0  0  0  0
 16 28  1  1  0  0  0
 16  3  1  0  0  0  0
 17 19  1  0  0  0  0
 18 20  1  6  0  0  0
 18 17  1  0  0  0  0
 18 19  1  0  0  0  0
 19  7  1  1  0  0  0
 21 23  2  0  0  0  0
 21 24  1  0  0  0  0
 24 26  1  0  0  0  0
 25 22  1  1  0  0  0
 25 26  1  0  0  0  0
 26 20  1  6  0  0  0
 27 21  1  0  0  0  0
 27 25  1  0  0  0  0
 28 29  1  0  0  0  0
 30 31  3  0  0  0  0
 31 29  1  0  0  0  0
M  END
>  <MODEL>
4

>  <REMARK>
 VINA RESULT:      -7.7      3.626      6.455
  Name = 
  6 active torsions:
  status: ('A' for Active; 'I' for Inactive)
    1  A    between atoms: C_3  and  C_9
    2  A    between atoms: C_3  and  C_22
    3  A    between atoms: C_15  and  C_23
    4  A    between atoms: C_18  and  C_26
    5  A    between atoms: C_26  and  C_31
    6  A    between atoms: C_30  and  C_31
                            x       y       z     vdW  Elec       q    Type
                         _______ _______ _______ _____ _____    ______ ____

>  <TORSDO>
F 6

$$$$
=
 OpenBabel11052412573D

 31 35  0  0  1  0  0  0  0  0999 V2000
  190.2270  177.2980  145.8430 C   0  0  0  0  0  0  0  0  0  0  0  0
  187.6400  177.8000  143.1460 N   0  0  0  0  0  0  0  0  0  0  0  0
  186.3660  177.6670  143.8120 C   0  0  0  0  0  0  0  0  0  0  0  0
  188.9040  177.6490  143.8340 C   0  0  0  0  0  0  0  0  0  0  0  0
  191.4020  177.3970  145.0930 C   0  0  0  0  0  3  0  0  0  0  0  0
  186.2640  177.0540  144.9090 O   0  0  0  0  0  0  0  0  0  0  0  0
  188.8020  178.1580  141.0430 C   0  0  0  0  0  0  0  0  0  0  0  0
  190.2940  177.0780  147.1790 F   0  0  0  0  0  0  0  0  0  0  0  0
  185.1970  178.2890  141.7080 C   0  0  0  0  0  3  0  0  0  0  0  0
  190.0220  178.0040  141.7200 O   0  0  0  0  0  0  0  0  0  0  0  0
  187.6380  178.0830  141.7260 C   0  0  0  0  0  0  0  0  0  0  0  0
  188.9840  177.4270  145.2170 C   0  0  0  0  0  3  0  0  0  0  0  0
  190.0890  177.7580  143.0910 C   0  0  0  0  0  0  0  0  0  0  0  0
  191.3320  177.6270  143.7160 C   0  0  0  0  0  3  0  0  0  0  0  0
  186.3450  178.2350  141.0330 C   0  0  0  0  0  3  0  0  0  0  0  0
  185.1350  178.2780  143.2110 C   0  0  2  0  0  3  0  0  0  0  0  0
  190.1220  177.8610  138.9780 C   0  0  0  0  0  2  0  0  0  0  0  0
  188.8100  177.1440  138.7680 C   0  0  1  0  0  3  0  0  0  0  0  0
  188.8460  178.4390  139.5640 C   0  0  1  0  0  3  0  0  0  0  0  0
  188.3600  177.4030  137.3350 C   0  0  0  0  0  2  0  0  0  0  0  0
  187.0770  173.9900  135.9140 C   0  0  0  0  0  0  0  0  0  0  0  0
  190.4090  175.3530  135.7840 C   0  0  0  0  0  1  0  0  0  0  0  0
  186.7440  173.8210  134.6890 N   0  0  0  0  0  2  0  0  0  0  0  0
  186.4980  175.4190  136.7870 S   0  0  0  0  0  0  0  0  0  0  0  0
  189.2560  175.0860  136.7300 C   0  0  1  0  0  3  0  0  0  0  0  0
  188.1500  176.1290  136.5160 C   0  0  2  0  0  3  0  0  0  0  0  0
  188.6430  173.3800  136.4890 S   0  0  0  0  0  0  0  0  0  0  0  0
  184.9680  179.6980  143.7400 C   0  0  0  0  0  2  0  0  0  0  0  0
  183.8090  179.7940  144.7220 C   0  0  0  0  0  2  0  0  0  0  0  0
  181.6220  178.8130  143.6590 N   0  0  0  0  0  0  0  0  0  0  0  0
  182.5870  179.2460  144.1280 C   0  0  0  0  0  0  0  0  0  0  0  0
  1  8  1  0  0  0  0
  2  3  1  0  0  0  0
  2  4  1  0  0  0  0
  3  6  2  0  0  0  0
  4 12  2  0  0  0  0
  5  1  2  0  0  0  0
  7 10  1  0  0  0  0
  7 11  2  0  0  0  0
  9 16  1  0  0  0  0
 10 13  1  0  0  0  0
 11  2  1  0  0  0  0
 12  1  1  0  0  0  0
 13 14  2  0  0  0  0
 13  4  1  0  0  0  0
 14  5  1  0  0  0  0
 15  9  2  0  0  0  0
 15 11  1  0  0  0  0
 16 28  1  1  0  0  0
 16  3  1  0  0  0  0
 17 19  1  0  0  0  0
 18 20  1  6  0  0  0
 18 17  1  0  0  0  0
 18 19  1  0  0  0  0
 19  7  1  1  0  0  0
 21 27  1  0  0  0  0
 21 24  1  0  0  0  0
 23 21  2  0  0  0  0
 25 22  1  6  0  0  0
 26 25  1  0  0  0  0
 26 24  1  0  0  0  0
 26 20  1  1  0  0  0
 27 25  1  0  0  0  0
 28 29  1  0  0  0  0
 30 31  3  0  0  0  0
 31 29  1  0  0  0  0
M  END
>  <MODEL>
5

>  <REMARK>
 VINA RESULT:      -7.4      3.623      6.605
  Name = 
  6 active torsions:
  status: ('A' for Active; 'I' for Inactive)
    1  A    between atoms: C_3  and  C_9
    2  A    between atoms: C_3  and  C_22
    3  A    between atoms: C_15  and  C_23
    4  A    between atoms: C_18  and  C_26
    5  A    between atoms: C_26  and  C_31
    6  A    between atoms: C_30  and  C_31
                            x       y       z     vdW  Elec       q    Type
                         _______ _______ _______ _____ _____    ______ ____

>  <TORSDO>
F 6

$$$$
=
 OpenBabel11052412573D

 31 35  0  0  1  0  0  0  0  0999 V2000
  190.0380  177.0790  146.5390 C   0  0  0  0  0  0  0  0  0  0  0  0
  187.7700  177.6610  143.5840 N   0  0  0  0  0  0  0  0  0  0  0  0
  186.4280  177.5750  144.1110 C   0  0  0  0  0  0  0  0  0  0  0  0
  188.9480  177.4690  144.4010 C   0  0  0  0  0  0  0  0  0  0  0  0
  191.2880  177.1340  145.9180 C   0  0  0  0  0  3  0  0  0  0  0  0
  186.1890  176.9700  145.1910 O   0  0  0  0  0  0  0  0  0  0  0  0
  189.1600  177.9700  141.6150 C   0  0  0  0  0  0  0  0  0  0  0  0
  189.9550  176.8620  147.8740 F   0  0  0  0  0  0  0  0  0  0  0  0
  185.5120  178.2290  141.8950 C   0  0  0  0  0  3  0  0  0  0  0  0
  190.2950  177.7760  142.4180 O   0  0  0  0  0  0  0  0  0  0  0  0
  187.9280  177.9380  142.1710 C   0  0  0  0  0  0  0  0  0  0  0  0
  188.8730  177.2490  145.7850 C   0  0  0  0  0  3  0  0  0  0  0  0
  190.2080  177.5330  143.7880 C   0  0  0  0  0  0  0  0  0  0  0  0
  191.3720  177.3620  144.5410 C   0  0  0  0  0  3  0  0  0  0  0  0
  186.7220  178.1320  141.3450 C   0  0  0  0  0  3  0  0  0  0  0  0
  185.2910  178.2260  143.3820 C   0  0  2  0  0  3  0  0  0  0  0  0
  190.6780  177.6170  139.7010 C   0  0  0  0  0  2  0  0  0  0  0  0
  189.3710  176.9470  139.3530 C   0  0  1  0  0  3  0  0  0  0  0  0
  189.3700  178.2430  140.1480 C   0  0  1  0  0  3  0  0  0  0  0  0
  189.0840  177.2170  137.8810 C   0  0  0  0  0  2  0  0  0  0  0  0
  189.8100  174.5090  135.1520 C   0  0  0  0  0  0  0  0  0  0  0  0
  186.7310  175.1360  136.9140 C   0  0  0  0  0  1  0  0  0  0  0  0
  190.1050  173.2940  135.4300 N   0  0  0  0  0  2  0  0  0  0  0  0
  190.6100  175.8240  136.0280 S   0  0  0  0  0  0  0  0  0  0  0  0
  187.8330  175.8270  136.1380 C   0  0  1  0  0  3  0  0  0  0  0  0
  189.0880  175.9580  137.0130 C   0  0  2  0  0  3  0  0  0  0  0  0
  188.1700  174.9070  134.5940 S   0  0  0  0  0  0  0  0  0  0  0  0
  185.1180  179.6530  143.8910 C   0  0  0  0  0  2  0  0  0  0  0  0
  183.8470  179.8010  144.7150 C   0  0  0  0  0  2  0  0  0  0  0  0
  181.7630  179.0010  143.3380 N   0  0  0  0  0  0  0  0  0  0  0  0
  182.6830  179.3540  143.9460 C   0  0  0  0  0  0  0  0  0  0  0  0
  1  8  1  0  0  0  0
  2  3  1  0  0  0  0
  2  4  1  0  0  0  0
  3  6  2  0  0  0  0
  4 12  1  0  0  0  0
  5  1  1  0  0  0  0
  7 11  2  0  0  0  0
  7 10  1  0  0  0  0
  9 16  1  0  0  0  0
 10 13  1  0  0  0  0
 11  2  1  0  0  0  0
 12  1  2  0  0  0  0
 13  4  2  0  0  0  0
 13 14  1  0  0  0  0
 14  5  2  0  0  0  0
 15  9  2  0  0  0  0
 15 11  1  0  0  0  0
 16 28  1  1  0  0  0
 16  3  1  0  0  0  0
 17 19  1  0  0  0  0
 18 20  1  6  0  0  0
 18 17  1  0  0  0  0
 18 19  1  0  0  0  0
 19  7  1  1  0  0  0
 21 23  2  0  0  0  0
 21 24  1  0  0  0  0
 24 26  1  0  0  0  0
 25 22  1  1  0  0  0
 25 26  1  0  0  0  0
 26 20  1  6  0  0  0
 27 21  1  0  0  0  0
 27 25  1  0  0  0  0
 28 29  1  0  0  0  0
 30 31  3  0  0  0  0
 31 29  1  0  0  0  0
M  END
>  <MODEL>
6

>  <REMARK>
 VINA RESULT:      -7.3      3.872      6.948
  Name = 
  6 active torsions:
  status: ('A' for Active; 'I' for Inactive)
    1  A    between atoms: C_3  and  C_9
    2  A    between atoms: C_3  and  C_22
    3  A    between atoms: C_15  and  C_23
    4  A    between atoms: C_18  and  C_26
    5  A    between atoms: C_26  and  C_31
    6  A    between atoms: C_30  and  C_31
                            x       y       z     vdW  Elec       q    Type
                         _______ _______ _______ _____ _____    ______ ____

>  <TORSDO>
F 6

$$$$
=
 OpenBabel11052412573D

 31 35  0  0  1  0  0  0  0  0999 V2000
  191.1910  176.6630  146.5970 C   0  0  0  0  0  0  0  0  0  0  0  0
  189.1450  177.7580  143.6240 N   0  0  0  0  0  0  0  0  0  0  0  0
  190.0990  177.9550  142.5570 C   0  0  0  0  0  0  0  0  0  0  0  0
  189.5320  177.3550  144.9580 C   0  0  0  0  0  0  0  0  0  0  0  0
  190.1920  176.5510  147.5670 C   0  0  0  0  0  3  0  0  0  0  0  0
  191.3190  178.1570  142.8020 O   0  0  0  0  0  0  0  0  0  0  0  0
  186.8190  177.8790  144.3120 C   0  0  0  0  0  0  0  0  0  0  0  0
  192.4780  176.3870  146.9150 F   0  0  0  0  0  0  0  0  0  0  0  0
  188.2380  178.3960  140.9690 C   0  0  0  0  0  3  0  0  0  0  0  0
  187.2070  177.4930  145.6040 O   0  0  0  0  0  0  0  0  0  0  0  0
  187.7460  177.9910  143.3340 C   0  0  0  0  0  0  0  0  0  0  0  0
  190.8620  177.0600  145.2970 C   0  0  0  0  0  3  0  0  0  0  0  0
  188.5350  177.2280  145.9370 C   0  0  0  0  0  0  0  0  0  0  0  0
  188.8640  176.8330  147.2360 C   0  0  0  0  0  3  0  0  0  0  0  0
  187.3600  178.4020  141.9720 C   0  0  0  0  0  3  0  0  0  0  0  0
  189.6500  177.9020  141.1270 C   0  0  2  0  0  3  0  0  0  0  0  0
  184.6180  178.2000  145.3840 C   0  0  0  0  0  2  0  0  0  0  0  0
  184.9260  179.4690  144.6250 C   0  0  1  0  0  3  0  0  0  0  0  0
  185.3540  178.1240  144.0580 C   0  0  1  0  0  3  0  0  0  0  0  0
  183.6360  179.9450  143.9680 C   0  0  0  0  0  2  0  0  0  0  0  0
  182.6190  178.0060  140.7260 C   0  0  0  0  0  0  0  0  0  0  0  0
  180.8210  178.2530  143.8370 C   0  0  0  0  0  1  0  0  0  0  0  0
  182.8240  176.7520  140.5640 N   0  0  0  0  0  2  0  0  0  0  0  0
  183.9170  179.0280  141.3640 S   0  0  0  0  0  0  0  0  0  0  0  0
  181.5350  179.0870  142.7930 C   0  0  1  0  0  3  0  0  0  0  0  0
  183.0540  178.9520  142.9620 C   0  0  2  0  0  3  0  0  0  0  0  0
  180.9860  178.5840  141.1220 S   0  0  0  0  0  0  0  0  0  0  0  0
  189.7680  176.4710  140.6150 C   0  0  0  0  0  2  0  0  0  0  0  0
  190.7240  176.3780  139.4350 C   0  0  0  0  0  2  0  0  0  0  0  0
  189.6980  177.5540  137.3270 N   0  0  0  0  0  0  0  0  0  0  0  0
  190.1500  177.0350  138.2570 C   0  0  0  0  0  0  0  0  0  0  0  0
  1  8  1  0  0  0  0
  1  5  1  0  0  0  0
  2  4  1  0  0  0  0
  3  6  2  0  0  0  0
  3  2  1  0  0  0  0
  4 12  1  0  0  0  0
  4 13  2  0  0  0  0
  7 10  1  0  0  0  0
  9 16  1  0  0  0  0
  9 15  2  0  0  0  0
 10 13  1  0  0  0  0
 11  2  1  0  0  0  0
 11  7  2  0  0  0  0
 12  1  2  0  0  0  0
 13 14  1  0  0  0  0
 14  5  2  0  0  0  0
 15 11  1  0  0  0  0
 16 28  1  1  0  0  0
 16  3  1  0  0  0  0
 18 20  1  6  0  0  0
 18 17  1  0  0  0  0
 19  7  1  1  0  0  0
 19 18  1  0  0  0  0
 19 17  1  0  0  0  0
 21 27  1  0  0  0  0
 21 24  1  0  0  0  0
 23 21  2  0  0  0  0
 24 26  1  0  0  0  0
 25 26  1  0  0  0  0
 25 22  1  1  0  0  0
 26 20  1  1  0  0  0
 27 25  1  0  0  0  0
 29 28  1  0  0  0  0
 30 31  3  0  0  0  0
 31 29  1  0  0  0  0
M  END
>  <MODEL>
7

>  <REMARK>
 VINA RESULT:      -7.1      2.546      5.169
  Name = 
  6 active torsions:
  status: ('A' for Active; 'I' for Inactive)
    1  A    between atoms: C_3  and  C_9
    2  A    between atoms: C_3  and  C_22
    3  A    between atoms: C_15  and  C_23
    4  A    between atoms: C_18  and  C_26
    5  A    between atoms: C_26  and  C_31
    6  A    between atoms: C_30  and  C_31
                            x       y       z     vdW  Elec       q    Type
                         _______ _______ _______ _____ _____    ______ ____

>  <TORSDO>
F 6

$$$$
=
 OpenBabel11052412573D

 31 35  0  0  1  0  0  0  0  0999 V2000
  190.2290  177.2250  146.9070 C   0  0  0  0  0  0  0  0  0  0  0  0
  188.8260  177.8960  143.4720 N   0  0  0  0  0  0  0  0  0  0  0  0
  189.9760  178.1340  142.6310 C   0  0  0  0  0  0  0  0  0  0  0  0
  188.9330  177.6230  144.8880 C   0  0  0  0  0  0  0  0  0  0  0  0
  189.0500  177.0600  147.6370 C   0  0  0  0  0  3  0  0  0  0  0  0
  191.0820  178.4870  143.1220 O   0  0  0  0  0  0  0  0  0  0  0  0
  186.4030  177.7970  143.6130 C   0  0  0  0  0  0  0  0  0  0  0  0
  191.4300  177.1150  147.5250 F   0  0  0  0  0  0  0  0  0  0  0  0
  188.4960  178.2640  140.6370 C   0  0  0  0  0  3  0  0  0  0  0  0
  186.5190  177.5370  144.9880 O   0  0  0  0  0  0  0  0  0  0  0  0
  187.5150  177.9520  142.8600 C   0  0  0  0  0  0  0  0  0  0  0  0
  190.1710  177.5020  145.5380 C   0  0  0  0  0  3  0  0  0  0  0  0
  187.7550  177.4440  145.6280 C   0  0  0  0  0  0  0  0  0  0  0  0
  187.8120  177.1700  146.9970 C   0  0  0  0  0  3  0  0  0  0  0  0
  187.4140  178.2330  141.4160 C   0  0  0  0  0  3  0  0  0  0  0  0
  189.8740  177.9430  141.1460 C   0  0  2  0  0  3  0  0  0  0  0  0
  184.3310  179.1320  143.4790 C   0  0  0  0  0  2  0  0  0  0  0  0
  184.8880  179.0450  142.0790 C   0  0  1  0  0  3  0  0  0  0  0  0
  185.0190  177.8590  143.0210 C   0  0  1  0  0  3  0  0  0  0  0  0
  183.7200  178.8480  141.1210 C   0  0  0  0  0  2  0  0  0  0  0  0
  184.8440  177.6890  137.5570 C   0  0  0  0  0  0  0  0  0  0  0  0
  182.4680  176.1260  139.7670 C   0  0  0  0  0  1  0  0  0  0  0  0
  185.7430  176.7980  137.3600 N   0  0  0  0  0  2  0  0  0  0  0  0
  185.1350  178.9770  138.7380 S   0  0  0  0  0  0  0  0  0  0  0  0
  182.8450  177.4610  139.1590 C   0  0  1  0  0  3  0  0  0  0  0  0
  184.0750  178.0350  139.8750 C   0  0  2  0  0  3  0  0  0  0  0  0
  183.1300  177.2630  137.3640 S   0  0  0  0  0  0  0  0  0  0  0  0
  190.2430  176.5060  140.7970 C   0  0  0  0  0  2  0  0  0  0  0  0
  190.6930  176.3820  139.3480 C   0  0  0  0  0  2  0  0  0  0  0  0
  193.2190  177.0450  139.1120 N   0  0  0  0  0  0  0  0  0  0  0  0
  192.1040  176.7520  139.2160 C   0  0  0  0  0  0  0  0  0  0  0  0
  1  8  1  0  0  0  0
  1  5  1  0  0  0  0
  2  4  1  0  0  0  0
  3  6  2  0  0  0  0
  3  2  1  0  0  0  0
  4 12  1  0  0  0  0
  4 13  2  0  0  0  0
  7 10  1  0  0  0  0
  9 16  1  0  0  0  0
  9 15  2  0  0  0  0
 10 13  1  0  0  0  0
 11  2  1  0  0  0  0
 11  7  2  0  0  0  0
 12  1  2  0  0  0  0
 13 14  1  0  0  0  0
 14  5  2  0  0  0  0
 15 11  1  0  0  0  0
 16 28  1  1  0  0  0
 16  3  1  0  0  0  0
 18 20  1  6  0  0  0
 18 19  1  0  0  0  0
 18 17  1  0  0  0  0
 19 17  1  0  0  0  0
 19  7  1  1  0  0  0
 21 24  1  0  0  0  0
 23 21  2  0  0  0  0
 24 26  1  0  0  0  0
 25 22  1  1  0  0  0
 25 26  1  0  0  0  0
 26 20  1  1  0  0  0
 27 21  1  0  0  0  0
 27 25  1  0  0  0  0
 29 28  1  0  0  0  0
 30 31  3  0  0  0  0
 31 29  1  0  0  0  0
M  END
>  <MODEL>
8

>  <REMARK>
 VINA RESULT:      -7.0      2.885      5.117
  Name = 
  6 active torsions:
  status: ('A' for Active; 'I' for Inactive)
    1  A    between atoms: C_3  and  C_9
    2  A    between atoms: C_3  and  C_22
    3  A    between atoms: C_15  and  C_23
    4  A    between atoms: C_18  and  C_26
    5  A    between atoms: C_26  and  C_31
    6  A    between atoms: C_30  and  C_31
                            x       y       z     vdW  Elec       q    Type
                         _______ _______ _______ _____ _____    ______ ____

>  <TORSDO>
F 6

$$$$
=
 OpenBabel11052412573D

 31 35  0  0  1  0  0  0  0  0999 V2000
  189.6780  176.9430  145.1900 C   0  0  0  0  0  0  0  0  0  0  0  0
  189.0130  177.9050  141.6050 N   0  0  0  0  0  0  0  0  0  0  0  0
  190.2800  177.7480  140.9280 C   0  0  0  0  0  0  0  0  0  0  0  0
  188.8450  177.6570  143.0190 C   0  0  0  0  0  0  0  0  0  0  0  0
  188.4210  177.1750  145.7540 C   0  0  0  0  0  3  0  0  0  0  0  0
  191.3660  177.7580  141.5660 O   0  0  0  0  0  0  0  0  0  0  0  0
  186.6830  178.5640  141.4200 C   0  0  0  0  0  0  0  0  0  0  0  0
  190.6940  176.4880  145.9620 F   0  0  0  0  0  0  0  0  0  0  0  0
  189.1860  178.2650  138.7560 C   0  0  0  0  0  3  0  0  0  0  0  0
  186.5320  178.3250  142.7950 O   0  0  0  0  0  0  0  0  0  0  0  0
  187.8760  178.3440  140.8240 C   0  0  0  0  0  0  0  0  0  0  0  0
  189.8880  177.1800  143.8280 C   0  0  0  0  0  3  0  0  0  0  0  0
  187.5830  177.8760  143.5940 C   0  0  0  0  0  0  0  0  0  0  0  0
  187.3740  177.6410  144.9550 C   0  0  0  0  0  3  0  0  0  0  0  0
  188.0570  178.5950  139.3820 C   0  0  0  0  0  3  0  0  0  0  0  0
  190.3180  177.5510  139.4410 C   0  0  2  0  0  3  0  0  0  0  0  0
  184.9470  177.8900  139.7990 C   0  0  0  0  0  2  0  0  0  0  0  0
  184.2330  178.2660  141.0760 C   0  0  1  0  0  3  0  0  0  0  0  0
  185.4760  179.0320  140.6480 C   0  0  1  0  0  3  0  0  0  0  0  0
  182.9710  179.0320  140.6980 C   0  0  0  0  0  2  0  0  0  0  0  0
  179.3600  177.5490  140.9610 C   0  0  0  0  0  0  0  0  0  0  0  0
  181.4110  178.9140  143.5890 C   0  0  0  0  0  1  0  0  0  0  0  0
  179.1200  176.3450  141.3240 N   0  0  0  0  0  2  0  0  0  0  0  0
  180.6310  177.8660  139.7680 S   0  0  0  0  0  0  0  0  0  0  0  0
  180.9030  179.2000  142.1900 C   0  0  1  0  0  3  0  0  0  0  0  0
  181.6810  178.3600  141.1680 C   0  0  2  0  0  3  0  0  0  0  0  0
  179.1040  178.8800  142.1110 S   0  0  0  0  0  0  0  0  0  0  0  0
  190.2640  176.0590  139.1300 C   0  0  0  0  0  2  0  0  0  0  0  0
  191.2050  175.6930  137.9910 C   0  0  0  0  0  2  0  0  0  0  0  0
  193.5820  176.7250  138.3960 N   0  0  0  0  0  0  0  0  0  0  0  0
  192.5330  176.2700  138.2170 C   0  0  0  0  0  0  0  0  0  0  0  0
  1  5  1  0  0  0  0
  1  8  1  0  0  0  0
  2  4  1  0  0  0  0
  3  6  2  0  0  0  0
  3  2  1  0  0  0  0
  4 13  2  0  0  0  0
  4 12  1  0  0  0  0
  7 10  1  0  0  0  0
  9 15  2  0  0  0  0
  9 16  1  0  0  0  0
 10 13  1  0  0  0  0
 11  7  2  0  0  0  0
 11  2  1  0  0  0  0
 12  1  2  0  0  0  0
 13 14  1  0  0  0  0
 14  5  2  0  0  0  0
 15 11  1  0  0  0  0
 16 28  1  1  0  0  0
 16  3  1  0  0  0  0
 17 19  1  0  0  0  0
 17 18  1  0  0  0  0
 18 20  1  6  0  0  0
 19 18  1  0  0  0  0
 19  7  1  1  0  0  0
 21 23  2  0  0  0  0
 21 27  1  0  0  0  0
 24 21  1  0  0  0  0
 24 26  1  0  0  0  0
 25 22  1  1  0  0  0
 26 20  1  6  0  0  0
 26 25  1  0  0  0  0
 27 25  1  0  0  0  0
 29 31  1  0  0  0  0
 29 28  1  0  0  0  0
 31 30  3  0  0  0  0
M  END
>  <MODEL>
9

>  <REMARK>
 VINA RESULT:      -7.0      2.317      4.621
  Name = 
  6 active torsions:
  status: ('A' for Active; 'I' for Inactive)
    1  A    between atoms: C_3  and  C_9
    2  A    between atoms: C_3  and  C_22
    3  A    between atoms: C_15  and  C_23
    4  A    between atoms: C_18  and  C_26
    5  A    between atoms: C_26  and  C_31
    6  A    between atoms: C_30  and  C_31
                            x       y       z     vdW  Elec       q    Type
                         _______ _______ _______ _____ _____    ______ ____

>  <TORSDO>
F 6

$$$$
