=
 OpenBabel11052413423D

 27 30  0  0  1  0  0  0  0  0999 V2000
  181.1750  177.7140  140.5770 N   0  0  0  0  0  2  0  0  0  0  0  0
  179.7800  177.0460  138.7980 N   0  0  0  0  0  2  0  0  0  0  0  0
  184.6870  178.8290  141.3050 C   0  0  1  0  0  3  0  0  0  0  0  0
  183.8230  179.4350  139.0040 C   0  0  0  0  0  3  0  0  0  0  0  0
  181.1540  179.3200  138.3740 S   0  0  0  0  0  0  0  0  0  0  0  0
  185.0460  179.1010  139.8250 C   0  0  2  0  0  3  0  0  0  0  0  0
  180.5040  177.9640  139.3450 C   0  0  0  0  0  0  0  0  0  0  0  0
  182.2730  178.6330  140.8000 C   0  0  2  0  0  3  0  0  0  0  0  0
  182.5760  179.2160  139.4500 C   0  0  0  0  0  0  0  0  0  0  0  0
  183.4730  177.9090  141.3990 C   0  0  0  0  0  2  0  0  0  0  0  0
  185.7810  178.2780  142.0340 O   0  0  0  0  0  0  0  0  0  0  0  0
  186.0390  178.2380  146.2270 C   0  0  0  0  0  3  0  0  0  0  0  0
  185.8440  178.2710  143.4310 C   0  0  0  0  0  0  0  0  0  0  0  0
  184.9400  179.0080  144.2140 C   0  0  0  0  0  3  0  0  0  0  0  0
  185.0390  178.9910  145.6080 C   0  0  0  0  0  3  0  0  0  0  0  0
  186.9400  177.5000  145.4530 C   0  0  0  0  0  3  0  0  0  0  0  0
  186.8410  177.5170  144.0590 C   0  0  0  0  0  3  0  0  0  0  0  0
  185.7470  177.9120  139.1730 C   0  0  0  0  0  2  0  0  0  0  0  0
  188.1940  178.3190  138.5820 C   0  0  0  0  0  0  0  0  0  0  0  0
  187.0170  178.3320  135.5800 C   0  0  0  0  0  1  0  0  0  0  0  0
  187.0880  176.1640  136.8650 C   0  0  0  0  0  2  0  0  0  0  0  0
  189.0000  179.0580  137.7150 O   0  0  0  0  0  1  0  0  0  0  0  0
  188.2880  178.8820  139.8560 O   0  0  0  0  0  1  0  0  0  0  0  0
  186.5010  177.5760  136.7930 C   0  0  1  0  0  3  0  0  0  0  0  0
  188.5540  176.1860  137.2880 C   0  0  0  0  0  2  0  0  0  0  0  0
  188.7010  176.8760  138.6400 C   0  0  0  0  0  2  0  0  0  0  0  0
  186.7290  178.3700  138.0930 C   0  0  1  0  0  3  0  0  0  0  0  0
  1  8  1  0  0  0  0
  2  7  2  0  0  0  0
  3 10  1  0  0  0  0
  3 11  1  1  0  0  0
  4  9  2  0  0  0  0
  4  6  1  0  0  0  0
  5  7  1  0  0  0  0
  5  9  1  0  0  0  0
  6 18  1  6  0  0  0
  6  3  1  0  0  0  0
  7  1  1  0  0  0  0
  8 10  1  6  0  0  0
  9  8  1  0  0  0  0
 11 13  1  0  0  0  0
 13 17  2  0  0  0  0
 13 14  1  0  0  0  0
 14 15  2  0  0  0  0
 15 12  1  0  0  0  0
 16 12  2  0  0  0  0
 17 16  1  0  0  0  0
 19 26  1  0  0  0  0
 19 23  1  0  0  0  0
 21 25  1  0  0  0  0
 22 19  1  0  0  0  0
 24 20  1  6  0  0  0
 24 21  1  0  0  0  0
 24 27  1  0  0  0  0
 25 26  1  0  0  0  0
 27 19  1  0  0  0  0
 27 18  1  1  0  0  0
M  END
>  <MODEL>
1

>  <REMARK>
 VINA RESULT:      -7.2      0.000      0.000
  Name = 
  4 active torsions:
  status: ('A' for Active; 'I' for Inactive)
    1  A    between atoms: O_2  and  C_6
    2  A    between atoms: O_2  and  C_9
    3  A    between atoms: C_3  and  C_14
    4  A    between atoms: C_3  and  C_26
                            x       y       z     vdW  Elec       q    Type
                         _______ _______ _______ _____ _____    ______ ____

>  <TORSDO>
F 4

$$$$
=
 OpenBabel11052413423D

 27 30  0  0  1  0  0  0  0  0999 V2000
  185.2110  179.8240  145.5010 N   0  0  0  0  0  2  0  0  0  0  0  0
  186.0680  179.8430  147.6970 N   0  0  0  0  0  2  0  0  0  0  0  0
  185.9280  178.4660  142.0730 C   0  0  1  0  0  3  0  0  0  0  0  0
  186.7590  177.0360  143.9900 C   0  0  0  0  0  3  0  0  0  0  0  0
  185.8890  177.4070  146.5670 S   0  0  0  0  0  0  0  0  0  0  0  0
  186.9910  177.4490  142.5560 C   0  0  2  0  0  3  0  0  0  0  0  0
  185.5890  179.1660  146.7080 C   0  0  0  0  0  0  0  0  0  0  0  0
  185.1450  178.9110  144.3770 C   0  0  2  0  0  3  0  0  0  0  0  0
  185.9280  177.7040  144.8060 C   0  0  0  0  0  0  0  0  0  0  0  0
  185.7190  179.5560  143.1200 C   0  0  0  0  0  2  0  0  0  0  0  0
  186.2700  179.0480  140.8170 O   0  0  0  0  0  0  0  0  0  0  0  0
  185.1420  177.3880  137.1260 C   0  0  0  0  0  3  0  0  0  0  0  0
  185.8730  178.5060  139.5900 C   0  0  0  0  0  0  0  0  0  0  0  0
  184.5180  178.3650  139.2490 C   0  0  0  0  0  3  0  0  0  0  0  0
  184.1550  177.8060  138.0210 C   0  0  0  0  0  3  0  0  0  0  0  0
  186.4930  177.5290  137.4580 C   0  0  0  0  0  3  0  0  0  0  0  0
  186.8560  178.0870  138.6870 C   0  0  0  0  0  3  0  0  0  0  0  0
  188.4110  177.9990  142.4420 C   0  0  0  0  0  2  0  0  0  0  0  0
  190.5770  176.6760  142.6790 C   0  0  0  0  0  0  0  0  0  0  0  0
  190.2100  177.4630  145.7840 C   0  0  0  0  0  1  0  0  0  0  0  0
  190.8120  179.2600  144.1220 C   0  0  0  0  0  2  0  0  0  0  0  0
  191.2140  175.7620  143.5220 O   0  0  0  0  0  1  0  0  0  0  0  0
  190.1520  175.9970  141.5360 O   0  0  0  0  0  1  0  0  0  0  0  0
  189.7600  178.2350  144.5550 C   0  0  1  0  0  3  0  0  0  0  0  0
  192.0170  178.5870  143.4700 C   0  0  0  0  0  2  0  0  0  0  0  0
  191.5720  177.7640  142.2660 C   0  0  0  0  0  2  0  0  0  0  0  0
  189.3600  177.2890  143.4080 C   0  0  1  0  0  3  0  0  0  0  0  0
  1  7  1  0  0  0  0
  3 11  1  6  0  0  0
  3  6  1  0  0  0  0
  3 10  1  0  0  0  0
  4  9  2  0  0  0  0
  5  7  1  0  0  0  0
  6 18  1  1  0  0  0
  6  4  1  0  0  0  0
  7  2  2  0  0  0  0
  8 10  1  6  0  0  0
  8  9  1  0  0  0  0
  8  1  1  0  0  0  0
  9  5  1  0  0  0  0
 12 16  2  0  0  0  0
 12 15  1  0  0  0  0
 13 11  1  0  0  0  0
 14 13  1  0  0  0  0
 15 14  2  0  0  0  0
 16 17  1  0  0  0  0
 17 13  2  0  0  0  0
 19 27  1  0  0  0  0
 19 22  1  0  0  0  0
 21 24  1  0  0  0  0
 23 19  1  0  0  0  0
 24 20  1  1  0  0  0
 25 21  1  0  0  0  0
 26 19  1  0  0  0  0
 26 25  1  0  0  0  0
 27 18  1  6  0  0  0
 27 24  1  0  0  0  0
M  END
>  <MODEL>
2

>  <REMARK>
 VINA RESULT:      -7.1      3.856      6.776
  Name = 
  4 active torsions:
  status: ('A' for Active; 'I' for Inactive)
    1  A    between atoms: O_2  and  C_6
    2  A    between atoms: O_2  and  C_9
    3  A    between atoms: C_3  and  C_14
    4  A    between atoms: C_3  and  C_26
                            x       y       z     vdW  Elec       q    Type
                         _______ _______ _______ _____ _____    ______ ____

>  <TORSDO>
F 4

$$$$
=
 OpenBabel11052413423D

 27 30  0  0  1  0  0  0  0  0999 V2000
  185.2210  179.7750  145.7420 N   0  0  0  0  0  2  0  0  0  0  0  0
  186.1140  179.8940  147.9200 N   0  0  0  0  0  2  0  0  0  0  0  0
  185.9250  178.3290  142.3470 C   0  0  1  0  0  3  0  0  0  0  0  0
  186.8360  176.9910  144.2940 C   0  0  0  0  0  3  0  0  0  0  0  0
  185.9980  177.4190  146.8730 S   0  0  0  0  0  0  0  0  0  0  0  0
  187.0290  177.3650  142.8440 C   0  0  2  0  0  3  0  0  0  0  0  0
  185.6400  179.1700  146.9620 C   0  0  0  0  0  0  0  0  0  0  0  0
  185.1660  178.8240  144.6490 C   0  0  2  0  0  3  0  0  0  0  0  0
  185.9970  177.6580  145.1030 C   0  0  0  0  0  0  0  0  0  0  0  0
  185.6970  179.4450  143.3620 C   0  0  0  0  0  2  0  0  0  0  0  0
  186.2250  178.8800  141.0670 O   0  0  0  0  0  0  0  0  0  0  0  0
  183.9880  177.9990  137.6220 C   0  0  0  0  0  3  0  0  0  0  0  0
  185.4980  178.5730  139.9120 C   0  0  0  0  0  0  0  0  0  0  0  0
  186.1350  178.1800  138.7230 C   0  0  0  0  0  3  0  0  0  0  0  0
  185.3800  177.8940  137.5820 C   0  0  0  0  0  3  0  0  0  0  0  0
  183.3490  178.3880  138.8030 C   0  0  0  0  0  3  0  0  0  0  0  0
  184.1030  178.6730  139.9440 C   0  0  0  0  0  3  0  0  0  0  0  0
  188.4270  177.9570  142.6860 C   0  0  0  0  0  2  0  0  0  0  0  0
  190.6330  176.6860  142.8320 C   0  0  0  0  0  0  0  0  0  0  0  0
  190.3670  177.4480  145.9540 C   0  0  0  0  0  1  0  0  0  0  0  0
  190.8610  179.2680  144.2800 C   0  0  0  0  0  2  0  0  0  0  0  0
  191.3240  175.7840  143.6440 O   0  0  0  0  0  1  0  0  0  0  0  0
  190.1800  176.0030  141.7010 O   0  0  0  0  0  1  0  0  0  0  0  0
  189.8520  178.2150  144.7470 C   0  0  1  0  0  3  0  0  0  0  0  0
  192.0560  178.6280  143.5790 C   0  0  0  0  0  2  0  0  0  0  0  0
  191.5850  177.8000  142.3880 C   0  0  0  0  0  2  0  0  0  0  0  0
  189.4310  177.2650  143.6110 C   0  0  1  0  0  3  0  0  0  0  0  0
  1  7  1  0  0  0  0
  3 11  1  6  0  0  0
  3  6  1  0  0  0  0
  3 10  1  0  0  0  0
  4  9  2  0  0  0  0
  5  7  1  0  0  0  0
  6 18  1  1  0  0  0
  6  4  1  0  0  0  0
  7  2  2  0  0  0  0
  8 10  1  6  0  0  0
  8  9  1  0  0  0  0
  8  1  1  0  0  0  0
  9  5  1  0  0  0  0
 12 16  1  0  0  0  0
 13 17  1  0  0  0  0
 13 11  1  0  0  0  0
 14 13  2  0  0  0  0
 15 12  2  0  0  0  0
 15 14  1  0  0  0  0
 16 17  2  0  0  0  0
 19 27  1  0  0  0  0
 19 22  1  0  0  0  0
 21 24  1  0  0  0  0
 23 19  1  0  0  0  0
 24 20  1  1  0  0  0
 25 21  1  0  0  0  0
 26 19  1  0  0  0  0
 26 25  1  0  0  0  0
 27 18  1  6  0  0  0
 27 24  1  0  0  0  0
M  END
>  <MODEL>
3

>  <REMARK>
 VINA RESULT:      -7.0      3.930      6.903
  Name = 
  4 active torsions:
  status: ('A' for Active; 'I' for Inactive)
    1  A    between atoms: O_2  and  C_6
    2  A    between atoms: O_2  and  C_9
    3  A    between atoms: C_3  and  C_14
    4  A    between atoms: C_3  and  C_26
                            x       y       z     vdW  Elec       q    Type
                         _______ _______ _______ _____ _____    ______ ____

>  <TORSDO>
F 4

$$$$
=
 OpenBabel11052413423D

 27 30  0  0  1  0  0  0  0  0999 V2000
  194.5000  175.9610  136.9910 N   0  0  0  0  0  2  0  0  0  0  0  0
  195.0590  175.5620  134.7360 N   0  0  0  0  0  2  0  0  0  0  0  0
  191.5370  176.2930  139.2750 C   0  0  1  0  0  3  0  0  0  0  0  0
  191.1980  174.7550  137.2930 C   0  0  0  0  0  3  0  0  0  0  0  0
  193.3020  173.8220  135.7980 S   0  0  0  0  0  0  0  0  0  0  0  0
  190.5280  175.6960  138.2650 C   0  0  2  0  0  3  0  0  0  0  0  0
  194.5140  175.1390  135.8270 C   0  0  0  0  0  0  0  0  0  0  0  0
  193.4830  175.5520  137.9380 C   0  0  2  0  0  3  0  0  0  0  0  0
  192.5310  174.7000  137.1490 C   0  0  0  0  0  0  0  0  0  0  0  0
  192.7950  176.7660  138.5540 C   0  0  0  0  0  2  0  0  0  0  0  0
  190.9740  177.3590  140.0350 O   0  0  0  0  0  0  0  0  0  0  0  0
  189.2790  176.8070  143.8400 C   0  0  0  0  0  3  0  0  0  0  0  0
  190.4290  177.1850  141.3120 C   0  0  0  0  0  0  0  0  0  0  0  0
  191.2420  177.0960  142.4540 C   0  0  0  0  0  3  0  0  0  0  0  0
  190.6670  176.9070  143.7140 C   0  0  0  0  0  3  0  0  0  0  0  0
  188.4650  176.8970  142.7070 C   0  0  0  0  0  3  0  0  0  0  0  0
  189.0400  177.0860  141.4470 C   0  0  0  0  0  3  0  0  0  0  0  0
  189.8060  176.7760  137.4620 C   0  0  0  0  0  2  0  0  0  0  0  0
  187.6540  178.1110  137.7570 C   0  0  0  0  0  0  0  0  0  0  0  0
  186.3050  175.2670  137.0590 C   0  0  0  0  0  1  0  0  0  0  0  0
  187.5220  176.5300  135.2480 C   0  0  0  0  0  2  0  0  0  0  0  0
  186.3670  178.0060  138.2880 O   0  0  0  0  0  1  0  0  0  0  0  0
  188.4120  178.9260  138.6010 O   0  0  0  0  0  1  0  0  0  0  0  0
  187.6450  175.8160  136.5970 C   0  0  1  0  0  3  0  0  0  0  0  0
  186.8240  177.8790  135.3890 C   0  0  0  0  0  2  0  0  0  0  0  0
  187.5810  178.7630  136.3740 C   0  0  0  0  0  2  0  0  0  0  0  0
  188.2930  176.7070  137.6730 C   0  0  1  0  0  3  0  0  0  0  0  0
  1  8  1  0  0  0  0
  2  7  2  0  0  0  0
  3 11  1  6  0  0  0
  4  6  1  0  0  0  0
  5  7  1  0  0  0  0
  5  9  1  0  0  0  0
  6 18  1  6  0  0  0
  6  3  1  0  0  0  0
  7  1  1  0  0  0  0
  8 10  1  6  0  0  0
  9  4  2  0  0  0  0
  9  8  1  0  0  0  0
 10  3  1  0  0  0  0
 11 13  1  0  0  0  0
 13 17  2  0  0  0  0
 13 14  1  0  0  0  0
 14 15  2  0  0  0  0
 15 12  1  0  0  0  0
 16 12  2  0  0  0  0
 17 16  1  0  0  0  0
 19 22  1  0  0  0  0
 19 23  1  0  0  0  0
 21 25  1  0  0  0  0
 21 24  1  0  0  0  0
 24 20  1  1  0  0  0
 24 27  1  0  0  0  0
 25 26  1  0  0  0  0
 26 19  1  0  0  0  0
 27 18  1  6  0  0  0
 27 19  1  0  0  0  0
M  END
>  <MODEL>
4

>  <REMARK>
 VINA RESULT:      -6.9      5.791      7.824
  Name = 
  4 active torsions:
  status: ('A' for Active; 'I' for Inactive)
    1  A    between atoms: O_2  and  C_6
    2  A    between atoms: O_2  and  C_9
    3  A    between atoms: C_3  and  C_14
    4  A    between atoms: C_3  and  C_26
                            x       y       z     vdW  Elec       q    Type
                         _______ _______ _______ _____ _____    ______ ____

>  <TORSDO>
F 4

$$$$
=
 OpenBabel11052413423D

 27 30  0  0  1  0  0  0  0  0999 V2000
  186.3540  177.0520  137.2530 N   0  0  0  0  0  2  0  0  0  0  0  0
  187.4870  175.8800  135.5500 N   0  0  0  0  0  2  0  0  0  0  0  0
  186.9140  178.6280  140.6160 C   0  0  1  0  0  3  0  0  0  0  0  0
  188.9270  178.6290  139.0810 C   0  0  0  0  0  3  0  0  0  0  0  0
  188.7080  178.1260  136.3920 S   0  0  0  0  0  0  0  0  0  0  0  0
  188.4580  178.6000  140.5160 C   0  0  2  0  0  3  0  0  0  0  0  0
  187.3570  176.9600  136.2440 C   0  0  0  0  0  0  0  0  0  0  0  0
  186.6380  178.0970  138.2150 C   0  0  2  0  0  3  0  0  0  0  0  0
  188.1000  178.3960  138.0490 C   0  0  0  0  0  0  0  0  0  0  0  0
  186.2990  177.6390  139.6290 C   0  0  0  0  0  2  0  0  0  0  0  0
  186.4530  178.3560  141.9370 O   0  0  0  0  0  0  0  0  0  0  0  0
  182.5030  179.0030  143.2140 C   0  0  0  0  0  3  0  0  0  0  0  0
  185.1300  178.5590  142.3430 C   0  0  0  0  0  0  0  0  0  0  0  0
  184.0630  178.5120  141.4310 C   0  0  0  0  0  3  0  0  0  0  0  0
  182.7540  178.7340  141.8670 C   0  0  0  0  0  3  0  0  0  0  0  0
  183.5610  179.0490  144.1280 C   0  0  0  0  0  3  0  0  0  0  0  0
  184.8700  178.8270  143.6920 C   0  0  0  0  0  3  0  0  0  0  0  0
  189.0590  177.3690  141.1900 C   0  0  0  0  0  2  0  0  0  0  0  0
  189.1760  176.3860  143.5400 C   0  0  0  0  0  0  0  0  0  0  0  0
  190.9300  179.0350  144.0910 C   0  0  0  0  0  1  0  0  0  0  0  0
  191.8900  177.2010  142.6520 C   0  0  0  0  0  2  0  0  0  0  0  0
  189.1370  176.7610  144.8840 O   0  0  0  0  0  1  0  0  0  0  0  0
  187.9640  175.7730  143.2190 O   0  0  0  0  0  1  0  0  0  0  0  0
  190.7850  178.2510  142.7980 C   0  0  1  0  0  3  0  0  0  0  0  0
  191.6690  176.0200  143.5930 C   0  0  0  0  0  2  0  0  0  0  0  0
  190.3110  175.3810  143.3260 C   0  0  0  0  0  2  0  0  0  0  0  0
  189.3780  177.6410  142.6610 C   0  0  1  0  0  3  0  0  0  0  0  0
  1  8  1  0  0  0  0
  2  7  2  0  0  0  0
  3 11  1  1  0  0  0
  4  6  1  0  0  0  0
  5  9  1  0  0  0  0
  6  3  1  0  0  0  0
  6 18  1  6  0  0  0
  7  5  1  0  0  0  0
  7  1  1  0  0  0  0
  8 10  1  1  0  0  0
  9  8  1  0  0  0  0
  9  4  2  0  0  0  0
 10  3  1  0  0  0  0
 11 13  1  0  0  0  0
 12 16  1  0  0  0  0
 13 17  1  0  0  0  0
 14 15  1  0  0  0  0
 14 13  2  0  0  0  0
 15 12  2  0  0  0  0
 17 16  2  0  0  0  0
 19 22  1  0  0  0  0
 21 24  1  0  0  0  0
 21 25  1  0  0  0  0
 23 19  1  0  0  0  0
 24 20  1  1  0  0  0
 26 19  1  0  0  0  0
 26 25  1  0  0  0  0
 27 18  1  6  0  0  0
 27 24  1  0  0  0  0
 27 19  1  0  0  0  0
M  END
>  <MODEL>
5

>  <REMARK>
 VINA RESULT:      -6.9      3.620      5.598
  Name = 
  4 active torsions:
  status: ('A' for Active; 'I' for Inactive)
    1  A    between atoms: O_2  and  C_6
    2  A    between atoms: O_2  and  C_9
    3  A    between atoms: C_3  and  C_14
    4  A    between atoms: C_3  and  C_26
                            x       y       z     vdW  Elec       q    Type
                         _______ _______ _______ _____ _____    ______ ____

>  <TORSDO>
F 4

$$$$
=
 OpenBabel11052413423D

 27 30  0  0  1  0  0  0  0  0999 V2000
  188.4760  175.5740  137.4830 N   0  0  0  0  0  2  0  0  0  0  0  0
  189.7900  173.6400  137.1890 N   0  0  0  0  0  2  0  0  0  0  0  0
  187.9350  178.4330  139.8580 C   0  0  1  0  0  3  0  0  0  0  0  0
  190.2930  177.5140  139.8030 C   0  0  0  0  0  3  0  0  0  0  0  0
  191.1690  175.8720  137.7860 S   0  0  0  0  0  0  0  0  0  0  0  0
  189.2430  178.1930  140.6500 C   0  0  2  0  0  3  0  0  0  0  0  0
  189.7310  174.9240  137.2990 C   0  0  0  0  0  0  0  0  0  0  0  0
  188.6240  176.9040  138.0390 C   0  0  2  0  0  3  0  0  0  0  0  0
  190.0040  176.9310  138.6290 C   0  0  0  0  0  0  0  0  0  0  0  0
  187.5450  177.1790  139.0810 C   0  0  0  0  0  2  0  0  0  0  0  0
  186.8620  178.8450  140.7010 O   0  0  0  0  0  0  0  0  0  0  0  0
  182.8000  178.4740  139.6930 C   0  0  0  0  0  3  0  0  0  0  0  0
  185.5150  178.7190  140.3420 C   0  0  0  0  0  0  0  0  0  0  0  0
  185.0670  179.0110  139.0430 C   0  0  0  0  0  3  0  0  0  0  0  0
  183.7130  178.8890  138.7220 C   0  0  0  0  0  3  0  0  0  0  0  0
  183.2400  178.1790  140.9870 C   0  0  0  0  0  3  0  0  0  0  0  0
  184.5950  178.3000  141.3090 C   0  0  0  0  0  3  0  0  0  0  0  0
  189.0150  177.3440  141.8980 C   0  0  0  0  0  2  0  0  0  0  0  0
  188.9650  177.3520  144.4470 C   0  0  0  0  0  0  0  0  0  0  0  0
  191.1260  179.7120  144.0510 C   0  0  0  0  0  1  0  0  0  0  0  0
  191.7770  177.3410  143.4950 C   0  0  0  0  0  2  0  0  0  0  0  0
  188.9840  178.2220  145.5390 O   0  0  0  0  0  1  0  0  0  0  0  0
  187.6700  176.8490  144.3080 O   0  0  0  0  0  1  0  0  0  0  0  0
  190.8570  178.5170  143.1520 C   0  0  1  0  0  3  0  0  0  0  0  0
  191.3650  176.6690  144.8020 C   0  0  0  0  0  2  0  0  0  0  0  0
  189.9220  176.1860  144.7120 C   0  0  0  0  0  2  0  0  0  0  0  0
  189.3700  178.1180  143.1680 C   0  0  1  0  0  3  0  0  0  0  0  0
  1  8  1  0  0  0  0
  2  7  2  0  0  0  0
  3  6  1  0  0  0  0
  3 11  1  1  0  0  0
  4  6  1  0  0  0  0
  5  9  1  0  0  0  0
  6 18  1  1  0  0  0
  7  1  1  0  0  0  0
  7  5  1  0  0  0  0
  8  9  1  0  0  0  0
  8 10  1  1  0  0  0
  9  4  2  0  0  0  0
 10  3  1  0  0  0  0
 12 16  1  0  0  0  0
 13 11  1  0  0  0  0
 13 17  1  0  0  0  0
 14 13  2  0  0  0  0
 15 14  1  0  0  0  0
 15 12  2  0  0  0  0
 16 17  2  0  0  0  0
 19 26  1  0  0  0  0
 19 22  1  0  0  0  0
 21 25  1  0  0  0  0
 23 19  1  0  0  0  0
 24 27  1  0  0  0  0
 24 21  1  0  0  0  0
 24 20  1  1  0  0  0
 26 25  1  0  0  0  0
 27 18  1  6  0  0  0
 27 19  1  0  0  0  0
M  END
>  <MODEL>
6

>  <REMARK>
 VINA RESULT:      -6.7      4.122      6.913
  Name = 
  4 active torsions:
  status: ('A' for Active; 'I' for Inactive)
    1  A    between atoms: O_2  and  C_6
    2  A    between atoms: O_2  and  C_9
    3  A    between atoms: C_3  and  C_14
    4  A    between atoms: C_3  and  C_26
                            x       y       z     vdW  Elec       q    Type
                         _______ _______ _______ _____ _____    ______ ____

>  <TORSDO>
F 4

$$$$
=
 OpenBabel11052413423D

 27 30  0  0  1  0  0  0  0  0999 V2000
  186.3340  177.5530  137.9630 N   0  0  0  0  0  2  0  0  0  0  0  0
  185.7570  177.1840  135.7070 N   0  0  0  0  0  2  0  0  0  0  0  0
  189.3000  177.6400  140.2660 C   0  0  1  0  0  3  0  0  0  0  0  0
  189.7850  178.2850  137.8670 C   0  0  0  0  0  3  0  0  0  0  0  0
  187.7840  178.9110  136.0950 S   0  0  0  0  0  0  0  0  0  0  0  0
  190.3470  177.6730  139.1270 C   0  0  2  0  0  3  0  0  0  0  0  0
  186.3970  177.8890  136.5790 C   0  0  0  0  0  0  0  0  0  0  0  0
  187.4340  178.1230  138.7150 C   0  0  2  0  0  3  0  0  0  0  0  0
  188.4690  178.4800  137.6870 C   0  0  0  0  0  0  0  0  0  0  0  0
  187.9610  177.1280  139.7430 C   0  0  0  0  0  2  0  0  0  0  0  0
  189.7310  176.8510  141.3730 O   0  0  0  0  0  0  0  0  0  0  0  0
  188.9950  177.8780  145.3800 C   0  0  0  0  0  3  0  0  0  0  0  0
  189.5010  177.2120  142.7050 C   0  0  0  0  0  0  0  0  0  0  0  0
  190.4320  177.9690  143.4360 C   0  0  0  0  0  3  0  0  0  0  0  0
  190.1780  178.2990  144.7700 C   0  0  0  0  0  3  0  0  0  0  0  0
  188.0630  177.1260  144.6570 C   0  0  0  0  0  3  0  0  0  0  0  0
  188.3170  176.7960  143.3230 C   0  0  0  0  0  3  0  0  0  0  0  0
  190.8750  176.2810  138.7870 C   0  0  0  0  0  2  0  0  0  0  0  0
  192.8900  175.9400  137.2620 C   0  0  0  0  0  0  0  0  0  0  0  0
  190.5910  175.4910  135.0470 C   0  0  0  0  0  1  0  0  0  0  0  0
  190.9270  173.7530  136.8420 C   0  0  0  0  0  2  0  0  0  0  0  0
  193.3500  176.2310  135.9760 O   0  0  0  0  0  1  0  0  0  0  0  0
  193.5680  176.7610  138.1670 O   0  0  0  0  0  1  0  0  0  0  0  0
  190.5350  175.2020  136.5370 C   0  0  1  0  0  3  0  0  0  0  0  0
  192.4280  173.5320  136.6800 C   0  0  0  0  0  2  0  0  0  0  0  0
  193.2010  174.4780  137.5940 C   0  0  0  0  0  2  0  0  0  0  0  0
  191.3720  176.2140  137.3420 C   0  0  1  0  0  3  0  0  0  0  0  0
  1  8  1  0  0  0  0
  2  7  2  0  0  0  0
  3 11  1  1  0  0  0
  4  6  1  0  0  0  0
  5  7  1  0  0  0  0
  5  9  1  0  0  0  0
  6 18  1  6  0  0  0
  6  3  1  0  0  0  0
  7  1  1  0  0  0  0
  8 10  1  1  0  0  0
  9  4  2  0  0  0  0
  9  8  1  0  0  0  0
 10  3  1  0  0  0  0
 11 13  1  0  0  0  0
 13 17  2  0  0  0  0
 13 14  1  0  0  0  0
 14 15  2  0  0  0  0
 15 12  1  0  0  0  0
 16 12  2  0  0  0  0
 17 16  1  0  0  0  0
 19 27  1  0  0  0  0
 19 26  1  0  0  0  0
 19 23  1  0  0  0  0
 22 19  1  0  0  0  0
 24 20  1  6  0  0  0
 24 21  1  0  0  0  0
 24 27  1  0  0  0  0
 25 21  1  0  0  0  0
 25 26  1  0  0  0  0
 27 18  1  1  0  0  0
M  END
>  <MODEL>
7

>  <REMARK>
 VINA RESULT:      -6.5      3.823      5.190
  Name = 
  4 active torsions:
  status: ('A' for Active; 'I' for Inactive)
    1  A    between atoms: O_2  and  C_6
    2  A    between atoms: O_2  and  C_9
    3  A    between atoms: C_3  and  C_14
    4  A    between atoms: C_3  and  C_26
                            x       y       z     vdW  Elec       q    Type
                         _______ _______ _______ _____ _____    ______ ____

>  <TORSDO>
F 4

$$$$
=
 OpenBabel11052413423D

 27 30  0  0  1  0  0  0  0  0999 V2000
  187.9820  178.6890  139.1980 N   0  0  0  0  0  2  0  0  0  0  0  0
  189.0560  179.3860  137.2180 N   0  0  0  0  0  2  0  0  0  0  0  0
  184.5660  178.2520  140.6970 C   0  0  1  0  0  3  0  0  0  0  0  0
  184.6810  177.9620  138.1850 C   0  0  0  0  0  3  0  0  0  0  0  0
  187.0640  177.6110  136.8680 S   0  0  0  0  0  0  0  0  0  0  0  0
  183.8160  178.3800  139.3500 C   0  0  2  0  0  3  0  0  0  0  0  0
  188.2580  178.5580  137.8060 C   0  0  0  0  0  0  0  0  0  0  0  0
  186.7600  178.0100  139.5810 C   0  0  2  0  0  3  0  0  0  0  0  0
  186.0100  177.8020  138.2970 C   0  0  0  0  0  0  0  0  0  0  0  0
  185.9690  178.8410  140.5840 C   0  0  0  0  0  2  0  0  0  0  0  0
  183.8580  178.8680  141.7700 O   0  0  0  0  0  0  0  0  0  0  0  0
  185.0810  178.5090  145.7740 C   0  0  0  0  0  3  0  0  0  0  0  0
  184.2420  178.7480  143.1100 C   0  0  0  0  0  0  0  0  0  0  0  0
  183.3860  179.1220  144.1590 C   0  0  0  0  0  3  0  0  0  0  0  0
  183.8060  179.0030  145.4870 C   0  0  0  0  0  3  0  0  0  0  0  0
  185.9360  178.1330  144.7340 C   0  0  0  0  0  3  0  0  0  0  0  0
  185.5160  178.2520  143.4060 C   0  0  0  0  0  3  0  0  0  0  0  0
  183.3280  179.8040  139.0930 C   0  0  0  0  0  2  0  0  0  0  0  0
  181.1750  181.0140  138.4580 C   0  0  0  0  0  0  0  0  0  0  0  0
  179.8290  178.5050  139.9700 C   0  0  0  0  0  1  0  0  0  0  0  0
  180.9620  178.1400  137.7470 C   0  0  0  0  0  2  0  0  0  0  0  0
  179.9110  181.3310  138.9570 O   0  0  0  0  0  1  0  0  0  0  0  0
  181.9580  182.1710  138.4750 O   0  0  0  0  0  1  0  0  0  0  0  0
  181.1440  178.5550  139.2100 C   0  0  1  0  0  3  0  0  0  0  0  0
  180.2560  179.2250  136.9400 C   0  0  0  0  0  2  0  0  0  0  0  0
  181.0430  180.5300  137.0110 C   0  0  0  0  0  2  0  0  0  0  0  0
  181.8240  179.9300  139.3460 C   0  0  1  0  0  3  0  0  0  0  0  0
  1  8  1  0  0  0  0
  2  7  2  0  0  0  0
  3 11  1  1  0  0  0
  4  9  2  0  0  0  0
  4  6  1  0  0  0  0
  5  7  1  0  0  0  0
  5  9  1  0  0  0  0
  6 18  1  6  0  0  0
  6  3  1  0  0  0  0
  7  1  1  0  0  0  0
  8 10  1  1  0  0  0
  9  8  1  0  0  0  0
 10  3  1  0  0  0  0
 11 13  1  0  0  0  0
 13 17  2  0  0  0  0
 13 14  1  0  0  0  0
 14 15  2  0  0  0  0
 15 12  1  0  0  0  0
 16 12  2  0  0  0  0
 17 16  1  0  0  0  0
 19 23  1  0  0  0  0
 19 22  1  0  0  0  0
 19 27  1  0  0  0  0
 21 24  1  0  0  0  0
 24 27  1  0  0  0  0
 24 20  1  6  0  0  0
 25 26  1  0  0  0  0
 25 21  1  0  0  0  0
 26 19  1  0  0  0  0
 27 18  1  6  0  0  0
M  END
>  <MODEL>
8

>  <REMARK>
 VINA RESULT:      -6.5      3.395      5.618
  Name = 
  4 active torsions:
  status: ('A' for Active; 'I' for Inactive)
    1  A    between atoms: O_2  and  C_6
    2  A    between atoms: O_2  and  C_9
    3  A    between atoms: C_3  and  C_14
    4  A    between atoms: C_3  and  C_26
                            x       y       z     vdW  Elec       q    Type
                         _______ _______ _______ _____ _____    ______ ____

>  <TORSDO>
F 4

$$$$
=
 OpenBabel11052413423D

 27 30  0  0  1  0  0  0  0  0999 V2000
  184.6490  177.5410  136.6470 N   0  0  0  0  0  2  0  0  0  0  0  0
  183.2130  177.3990  134.7830 N   0  0  0  0  0  2  0  0  0  0  0  0
  184.5980  178.0090  140.3730 C   0  0  1  0  0  3  0  0  0  0  0  0
  182.5580  176.8640  139.4070 C   0  0  0  0  0  3  0  0  0  0  0  0
  182.5350  175.8330  136.8640 S   0  0  0  0  0  0  0  0  0  0  0  0
  183.0800  177.7460  140.5160 C   0  0  2  0  0  3  0  0  0  0  0  0
  183.6010  176.9120  135.9140 C   0  0  0  0  0  0  0  0  0  0  0  0
  184.6390  177.1680  138.0470 C   0  0  2  0  0  3  0  0  0  0  0  0
  183.2660  176.6120  138.2940 C   0  0  0  0  0  0  0  0  0  0  0  0
  184.9430  178.3720  138.9320 C   0  0  0  0  0  2  0  0  0  0  0  0
  185.0560  179.0270  141.2600 O   0  0  0  0  0  0  0  0  0  0  0  0
  185.7480  178.3710  145.3520 C   0  0  0  0  0  3  0  0  0  0  0  0
  185.3090  178.8030  142.6170 C   0  0  0  0  0  0  0  0  0  0  0  0
  186.3570  177.9720  143.0450 C   0  0  0  0  0  3  0  0  0  0  0  0
  186.5740  177.7570  144.4080 C   0  0  0  0  0  3  0  0  0  0  0  0
  184.7040  179.2010  144.9320 C   0  0  0  0  0  3  0  0  0  0  0  0
  184.4870  179.4160  143.5690 C   0  0  0  0  0  3  0  0  0  0  0  0
  182.2670  179.0390  140.5200 C   0  0  0  0  0  2  0  0  0  0  0  0
  179.8340  179.3730  139.8350 C   0  0  0  0  0  0  0  0  0  0  0  0
  181.1560  179.7130  136.9140 C   0  0  0  0  0  1  0  0  0  0  0  0
  181.5190  181.5090  138.6450 C   0  0  0  0  0  2  0  0  0  0  0  0
  178.9310  179.0540  138.8190 O   0  0  0  0  0  1  0  0  0  0  0  0
  179.5330  178.5930  140.9530 O   0  0  0  0  0  1  0  0  0  0  0  0
  181.7600  180.0450  138.2680 C   0  0  1  0  0  3  0  0  0  0  0  0
  180.0650  181.7540  139.0410 C   0  0  0  0  0  2  0  0  0  0  0  0
  179.6780  180.8500  140.2070 C   0  0  0  0  0  2  0  0  0  0  0  0
  181.2730  179.0730  139.3580 C   0  0  1  0  0  3  0  0  0  0  0  0
  1  8  1  0  0  0  0
  2  7  2  0  0  0  0
  3  6  1  0  0  0  0
  3 11  1  1  0  0  0
  4  6  1  0  0  0  0
  5  9  1  0  0  0  0
  6 18  1  6  0  0  0
  7  1  1  0  0  0  0
  7  5  1  0  0  0  0
  8  9  1  0  0  0  0
  8 10  1  1  0  0  0
  9  4  2  0  0  0  0
 10  3  1  0  0  0  0
 11 13  1  0  0  0  0
 13 14  2  0  0  0  0
 13 17  1  0  0  0  0
 14 15  1  0  0  0  0
 15 12  2  0  0  0  0
 16 12  1  0  0  0  0
 17 16  2  0  0  0  0
 19 26  1  0  0  0  0
 19 23  1  0  0  0  0
 21 25  1  0  0  0  0
 22 19  1  0  0  0  0
 24 20  1  6  0  0  0
 24 21  1  0  0  0  0
 24 27  1  0  0  0  0
 25 26  1  0  0  0  0
 27 19  1  0  0  0  0
 27 18  1  1  0  0  0
M  END
>  <MODEL>
9

>  <REMARK>
 VINA RESULT:      -6.4      3.053      5.482
  Name = 
  4 active torsions:
  status: ('A' for Active; 'I' for Inactive)
    1  A    between atoms: O_2  and  C_6
    2  A    between atoms: O_2  and  C_9
    3  A    between atoms: C_3  and  C_14
    4  A    between atoms: C_3  and  C_26
                            x       y       z     vdW  Elec       q    Type
                         _______ _______ _______ _____ _____    ______ ____

>  <TORSDO>
F 4

$$$$
