=
 OpenBabel11052413403D

 27 31  0  0  1  0  0  0  0  0999 V2000
  190.5270  178.7200  143.7960 C   0  0  0  0  0  2  0  0  0  0  0  0
  188.5210  177.9530  144.9990 C   0  0  0  0  0  0  0  0  0  0  0  0
  187.9730  177.8320  142.5600 O   0  0  0  0  0  0  0  0  0  0  0  0
  184.3830  178.3630  145.8610 C   0  0  0  0  0  3  0  0  0  0  0  0
  183.9140  179.1070  143.5630 C   0  0  0  0  0  2  0  0  0  0  0  0
  188.0500  178.0020  146.2740 N   0  0  0  0  0  0  0  0  0  0  0  0
  185.1940  178.4060  143.0880 C   0  0  1  0  0  3  0  0  0  0  0  0
  190.4050  176.7510  140.0090 C   0  0  0  0  0  0  0  0  0  0  0  0
  185.6830  179.1810  141.8750 C   0  0  0  0  0  1  0  0  0  0  0  0
  190.3700  175.9510  138.4520 Cl  0  0  0  0  0  0  0  0  0  0  0  0
  186.2480  178.3080  144.1910 C   0  0  0  0  0  0  0  0  0  0  0  0
  189.9360  177.8550  144.8010 N   0  0  0  0  0  0  0  0  0  0  0  0
  183.4860  178.6850  144.9340 C   0  0  0  0  0  3  0  0  0  0  0  0
  185.8130  178.2980  145.5320 C   0  0  0  0  0  0  0  0  0  0  0  0
  190.4520  178.0340  142.4910 C   0  0  0  0  0  0  0  0  0  0  0  0
  187.6160  178.0530  143.9090 C   0  0  0  0  0  0  0  0  0  0  0  0
  189.2150  176.9840  140.7010 C   0  0  0  0  0  3  0  0  0  0  0  0
  186.7340  178.1450  146.5590 C   0  0  0  0  0  3  0  0  0  0  0  0
  191.6220  177.1590  140.5560 C   0  0  0  0  0  3  0  0  0  0  0  0
  191.6430  177.8010  141.7950 C   0  0  0  0  0  3  0  0  0  0  0  0
  189.2210  177.6160  141.9500 C   0  0  0  0  0  0  0  0  0  0  0  0
  192.4100  175.2480  147.0820 C   0  0  0  0  0  3  0  0  0  0  0  0
  190.7650  176.9610  145.5740 C   0  0  0  0  0  0  0  0  0  0  0  0
  191.4730  175.9180  144.9530 C   0  0  0  0  0  3  0  0  0  0  0  0
  192.2880  175.0660  145.7020 C   0  0  0  0  0  3  0  0  0  0  0  0
  191.7160  176.2850  147.7120 C   0  0  0  0  0  3  0  0  0  0  0  0
  190.9010  177.1370  146.9610 C   0  0  0  0  0  3  0  0  0  0  0  0
  1 12  1  0  0  0  0
  2  6  1  0  0  0  0
  3 16  1  0  0  0  0
  5 13  1  0  0  0  0
  6 18  2  0  0  0  0
  7  9  1  6  0  0  0
  7  5  1  0  0  0  0
  7 11  1  0  0  0  0
  8 19  2  0  0  0  0
  8 17  1  0  0  0  0
 10  8  1  0  0  0  0
 11 14  2  0  0  0  0
 12  2  1  0  0  0  0
 12 23  1  0  0  0  0
 13  4  2  0  0  0  0
 14  4  1  0  0  0  0
 14 18  1  0  0  0  0
 15  1  1  0  0  0  0
 16 11  1  0  0  0  0
 16  2  2  0  0  0  0
 17 21  2  0  0  0  0
 19 20  1  0  0  0  0
 20 15  2  0  0  0  0
 21 15  1  0  0  0  0
 21  3  1  0  0  0  0
 22 26  1  0  0  0  0
 23 27  1  0  0  0  0
 24 23  2  0  0  0  0
 24 25  1  0  0  0  0
 25 22  2  0  0  0  0
 27 26  2  0  0  0  0
M  END
>  <MODEL>
1

>  <REMARK>
 VINA RESULT:     -10.5      0.000      0.000
  Name = 
  1 active torsions:
  status: ('A' for Active; 'I' for Inactive)
    1  A    between atoms: C_9  and  N_15
                            x       y       z     vdW  Elec       q    Type
                         _______ _______ _______ _____ _____    ______ ____

>  <TORSDO>
F 1

$$$$
=
 OpenBabel11052413403D

 27 31  0  0  1  0  0  0  0  0999 V2000
  187.4380  179.3360  141.1050 C   0  0  0  0  0  2  0  0  0  0  0  0
  188.4930  177.8380  142.7480 C   0  0  0  0  0  0  0  0  0  0  0  0
  186.0720  177.9770  143.3680 O   0  0  0  0  0  0  0  0  0  0  0  0
  189.4260  176.8990  146.7830 C   0  0  0  0  0  3  0  0  0  0  0  0
  187.2950  177.8510  147.5630 C   0  0  0  0  0  2  0  0  0  0  0  0
  189.7590  177.5360  143.1460 N   0  0  0  0  0  0  0  0  0  0  0  0
  186.7000  177.6350  146.1650 C   0  0  1  0  0  3  0  0  0  0  0  0
  183.3640  178.0790  140.8690 C   0  0  0  0  0  0  0  0  0  0  0  0
  185.6410  178.7090  145.9780 C   0  0  0  0  0  1  0  0  0  0  0  0
  181.6910  177.5750  140.7600 Cl  0  0  0  0  0  0  0  0  0  0  0  0
  187.7670  177.6590  145.0690 C   0  0  0  0  0  0  0  0  0  0  0  0
  188.2770  178.1840  141.3750 N   0  0  0  0  0  0  0  0  0  0  0  0
  188.5720  177.1010  147.7830 C   0  0  0  0  0  3  0  0  0  0  0  0
  189.0870  177.3010  145.4120 C   0  0  0  0  0  0  0  0  0  0  0  0
  186.0330  178.8870  141.0530 C   0  0  0  0  0  0  0  0  0  0  0  0
  187.4400  177.8570  143.7010 C   0  0  0  0  0  0  0  0  0  0  0  0
  184.0900  177.8420  142.0380 C   0  0  0  0  0  3  0  0  0  0  0  0
  190.0680  177.2470  144.4320 C   0  0  0  0  0  3  0  0  0  0  0  0
  183.9710  178.7200  139.7890 C   0  0  0  0  0  3  0  0  0  0  0  0
  185.3040  179.1240  139.8830 C   0  0  0  0  0  3  0  0  0  0  0  0
  185.4310  178.2310  142.1440 C   0  0  0  0  0  0  0  0  0  0  0  0
  190.0730  176.0460  138.1630 C   0  0  0  0  0  3  0  0  0  0  0  0
  188.8780  177.4470  140.2890 C   0  0  0  0  0  0  0  0  0  0  0  0
  188.1740  177.2200  139.0950 C   0  0  0  0  0  3  0  0  0  0  0  0
  188.7660  176.5220  138.0390 C   0  0  0  0  0  3  0  0  0  0  0  0
  190.7890  176.2690  139.3420 C   0  0  0  0  0  3  0  0  0  0  0  0
  190.1950  176.9670  140.3970 C   0  0  0  0  0  3  0  0  0  0  0  0
  1 12  1  0  0  0  0
  2  6  2  0  0  0  0
  2 16  1  0  0  0  0
  3 16  1  0  0  0  0
  4 13  2  0  0  0  0
  5 13  1  0  0  0  0
  6 18  1  0  0  0  0
  7  9  1  6  0  0  0
  7  5  1  0  0  0  0
  8 17  1  0  0  0  0
 10  8  1  0  0  0  0
 11 14  1  0  0  0  0
 11  7  1  0  0  0  0
 12  2  1  0  0  0  0
 14  4  1  0  0  0  0
 15  1  1  0  0  0  0
 15 21  1  0  0  0  0
 16 11  2  0  0  0  0
 17 21  2  0  0  0  0
 18 14  2  0  0  0  0
 19 20  1  0  0  0  0
 19  8  2  0  0  0  0
 20 15  2  0  0  0  0
 21  3  1  0  0  0  0
 22 26  1  0  0  0  0
 23 27  1  0  0  0  0
 23 12  1  0  0  0  0
 24 23  2  0  0  0  0
 25 22  2  0  0  0  0
 25 24  1  0  0  0  0
 26 27  2  0  0  0  0
M  END
>  <MODEL>
2

>  <REMARK>
 VINA RESULT:      -9.1      2.533      5.675
  Name = 
  1 active torsions:
  status: ('A' for Active; 'I' for Inactive)
    1  A    between atoms: C_9  and  N_15
                            x       y       z     vdW  Elec       q    Type
                         _______ _______ _______ _____ _____    ______ ____

>  <TORSDO>
F 1

$$$$
=
 OpenBabel11052413403D

 27 31  0  0  1  0  0  0  0  0999 V2000
  189.5680  178.6280  138.4130 C   0  0  0  0  0  2  0  0  0  0  0  0
  189.6290  177.3840  140.5350 C   0  0  0  0  0  0  0  0  0  0  0  0
  187.2120  177.7600  140.0040 O   0  0  0  0  0  0  0  0  0  0  0  0
  188.6330  177.1140  144.6550 C   0  0  0  0  0  3  0  0  0  0  0  0
  186.5100  178.3020  144.2840 C   0  0  0  0  0  2  0  0  0  0  0  0
  190.5560  177.0880  141.4860 N   0  0  0  0  0  0  0  0  0  0  0  0
  186.5440  177.8780  142.8090 C   0  0  1  0  0  3  0  0  0  0  0  0
  185.8590  177.5720  136.5790 C   0  0  0  0  0  0  0  0  0  0  0  0
  185.8080  178.9590  142.0350 C   0  0  0  0  0  1  0  0  0  0  0  0
  184.3420  177.1480  135.8140 Cl  0  0  0  0  0  0  0  0  0  0  0  0
  187.9690  177.6520  142.3010 C   0  0  0  0  0  0  0  0  0  0  0  0
  190.0610  177.4960  139.1750 N   0  0  0  0  0  0  0  0  0  0  0  0
  187.4680  177.5330  145.1400 C   0  0  0  0  0  3  0  0  0  0  0  0
  188.9610  177.2880  143.2340 C   0  0  0  0  0  0  0  0  0  0  0  0
  188.2740  178.2530  137.8090 C   0  0  0  0  0  0  0  0  0  0  0  0
  188.2820  177.6260  140.9170 C   0  0  0  0  0  0  0  0  0  0  0  0
  185.9830  177.5030  137.9680 C   0  0  0  0  0  3  0  0  0  0  0  0
  190.2510  177.0110  142.8020 C   0  0  0  0  0  3  0  0  0  0  0  0
  186.9430  177.9800  135.8010 C   0  0  0  0  0  3  0  0  0  0  0  0
  188.1480  178.3210  136.4170 C   0  0  0  0  0  3  0  0  0  0  0  0
  187.1890  177.8310  138.6000 C   0  0  0  0  0  0  0  0  0  0  0  0
  192.7450  174.7310  137.3660 C   0  0  0  0  0  3  0  0  0  0  0  0
  190.9700  176.5490  138.5730 C   0  0  0  0  0  0  0  0  0  0  0  0
  190.4890  175.3830  137.9550 C   0  0  0  0  0  3  0  0  0  0  0  0
  191.3710  174.4780  137.3570 C   0  0  0  0  0  3  0  0  0  0  0  0
  193.2360  175.8900  137.9720 C   0  0  0  0  0  3  0  0  0  0  0  0
  192.3540  176.7940  138.5690 C   0  0  0  0  0  3  0  0  0  0  0  0
  1 12  1  0  0  0  0
  2 16  2  0  0  0  0
  2  6  1  0  0  0  0
  3 16  1  0  0  0  0
  4 13  2  0  0  0  0
  5 13  1  0  0  0  0
  6 18  2  0  0  0  0
  7  9  1  6  0  0  0
  7  5  1  0  0  0  0
  8 17  1  0  0  0  0
 10  8  1  0  0  0  0
 11  7  1  0  0  0  0
 11 14  2  0  0  0  0
 12  2  1  0  0  0  0
 14  4  1  0  0  0  0
 15  1  1  0  0  0  0
 15 21  1  0  0  0  0
 16 11  1  0  0  0  0
 17 21  2  0  0  0  0
 18 14  1  0  0  0  0
 19 20  1  0  0  0  0
 19  8  2  0  0  0  0
 20 15  2  0  0  0  0
 21  3  1  0  0  0  0
 22 26  1  0  0  0  0
 23 12  1  0  0  0  0
 24 23  2  0  0  0  0
 25 22  2  0  0  0  0
 25 24  1  0  0  0  0
 26 27  2  0  0  0  0
 27 23  1  0  0  0  0
M  END
>  <MODEL>
3

>  <REMARK>
 VINA RESULT:      -8.6      3.246      5.738
  Name = 
  1 active torsions:
  status: ('A' for Active; 'I' for Inactive)
    1  A    between atoms: C_9  and  N_15
                            x       y       z     vdW  Elec       q    Type
                         _______ _______ _______ _____ _____    ______ ____

>  <TORSDO>
F 1

$$$$
=
 OpenBabel11052413403D

 27 31  0  0  1  0  0  0  0  0999 V2000
  188.3960  179.1120  141.2410 C   0  0  0  0  0  2  0  0  0  0  0  0
  189.7190  177.4080  142.4240 C   0  0  0  0  0  0  0  0  0  0  0  0
  187.6150  177.7120  143.7440 O   0  0  0  0  0  0  0  0  0  0  0  0
  191.6860  176.0900  145.9500 C   0  0  0  0  0  3  0  0  0  0  0  0
  189.9900  177.1660  147.3730 C   0  0  0  0  0  2  0  0  0  0  0  0
  191.0060  176.9660  142.4120 N   0  0  0  0  0  0  0  0  0  0  0  0
  188.9930  177.1090  146.2080 C   0  0  1  0  0  3  0  0  0  0  0  0
  184.3210  178.2410  142.1750 C   0  0  0  0  0  0  0  0  0  0  0  0
  188.0470  178.2830  146.3940 C   0  0  0  0  0  1  0  0  0  0  0  0
  182.6460  177.8960  142.5470 Cl  0  0  0  0  0  0  0  0  0  0  0  0
  189.6880  177.1200  144.8450 C   0  0  0  0  0  0  0  0  0  0  0  0
  189.1490  177.8730  141.1950 N   0  0  0  0  0  0  0  0  0  0  0  0
  191.1880  176.2920  147.1670 C   0  0  0  0  0  3  0  0  0  0  0  0
  191.0050  176.6220  144.7620 C   0  0  0  0  0  0  0  0  0  0  0  0
  186.9970  178.7930  141.5900 C   0  0  0  0  0  0  0  0  0  0  0  0
  188.9990  177.4470  143.6480 C   0  0  0  0  0  0  0  0  0  0  0  0
  185.3270  177.8540  143.0620 C   0  0  0  0  0  3  0  0  0  0  0  0
  191.6450  176.5550  143.5330 C   0  0  0  0  0  3  0  0  0  0  0  0
  184.6500  178.9040  140.9920 C   0  0  0  0  0  3  0  0  0  0  0  0
  185.9870  179.1810  140.7030 C   0  0  0  0  0  3  0  0  0  0  0  0
  186.6740  178.1130  142.7800 C   0  0  0  0  0  0  0  0  0  0  0  0
  189.6900  175.8300  137.5000 C   0  0  0  0  0  3  0  0  0  0  0  0
  189.3240  177.1690  139.9480 C   0  0  0  0  0  0  0  0  0  0  0  0
  188.2980  177.1360  138.9890 C   0  0  0  0  0  3  0  0  0  0  0  0
  188.4780  176.4690  137.7740 C   0  0  0  0  0  3  0  0  0  0  0  0
  190.7220  175.8600  138.4420 C   0  0  0  0  0  3  0  0  0  0  0  0
  190.5400  176.5270  139.6570 C   0  0  0  0  0  3  0  0  0  0  0  0
  1 15  1  0  0  0  0
  2 16  1  0  0  0  0
  4 13  2  0  0  0  0
  6  2  2  0  0  0  0
  6 18  1  0  0  0  0
  7  9  1  6  0  0  0
  7  5  1  0  0  0  0
  8 10  1  0  0  0  0
  8 17  1  0  0  0  0
 11  7  1  0  0  0  0
 12  1  1  0  0  0  0
 12  2  1  0  0  0  0
 13  5  1  0  0  0  0
 14 11  1  0  0  0  0
 14  4  1  0  0  0  0
 15 21  1  0  0  0  0
 16  3  1  0  0  0  0
 16 11  2  0  0  0  0
 18 14  2  0  0  0  0
 19  8  2  0  0  0  0
 20 19  1  0  0  0  0
 20 15  2  0  0  0  0
 21 17  2  0  0  0  0
 21  3  1  0  0  0  0
 22 25  2  0  0  0  0
 22 26  1  0  0  0  0
 23 12  1  0  0  0  0
 24 23  2  0  0  0  0
 25 24  1  0  0  0  0
 26 27  2  0  0  0  0
 27 23  1  0  0  0  0
M  END
>  <MODEL>
4

>  <REMARK>
 VINA RESULT:      -8.5      2.503      6.183
  Name = 
  1 active torsions:
  status: ('A' for Active; 'I' for Inactive)
    1  A    between atoms: C_9  and  N_15
                            x       y       z     vdW  Elec       q    Type
                         _______ _______ _______ _____ _____    ______ ____

>  <TORSDO>
F 1

$$$$
=
 OpenBabel11052413403D

 27 31  0  0  1  0  0  0  0  0999 V2000
  184.3010  179.8020  139.1920 C   0  0  0  0  0  2  0  0  0  0  0  0
  185.9260  178.4950  140.4970 C   0  0  0  0  0  0  0  0  0  0  0  0
  183.7410  178.3160  141.7050 O   0  0  0  0  0  0  0  0  0  0  0  0
  187.9540  177.7720  144.1580 C   0  0  0  0  0  3  0  0  0  0  0  0
  185.9760  178.4430  145.4590 C   0  0  0  0  0  2  0  0  0  0  0  0
  187.2790  178.3750  140.5620 N   0  0  0  0  0  0  0  0  0  0  0  0
  185.0870  178.1200  144.2510 C   0  0  1  0  0  3  0  0  0  0  0  0
  180.5060  178.0000  139.9630 C   0  0  0  0  0  0  0  0  0  0  0  0
  183.8780  179.0370  144.3500 C   0  0  0  0  0  1  0  0  0  0  0  0
  178.9440  177.2720  140.2680 Cl  0  0  0  0  0  0  0  0  0  0  0  0
  185.8320  178.2660  142.9230 C   0  0  0  0  0  0  0  0  0  0  0  0
  185.3290  178.7790  139.2270 N   0  0  0  0  0  0  0  0  0  0  0  0
  187.3580  177.8780  145.3420 C   0  0  0  0  0  3  0  0  0  0  0  0
  187.2320  178.0970  142.9210 C   0  0  0  0  0  0  0  0  0  0  0  0
  183.0010  179.1650  139.4860 C   0  0  0  0  0  0  0  0  0  0  0  0
  185.1510  178.3890  141.6840 C   0  0  0  0  0  0  0  0  0  0  0  0
  181.5260  177.8870  140.9100 C   0  0  0  0  0  3  0  0  0  0  0  0
  187.9360  178.1570  141.7260 C   0  0  0  0  0  3  0  0  0  0  0  0
  180.7320  178.6940  138.7740 C   0  0  0  0  0  3  0  0  0  0  0  0
  181.9780  179.2770  138.5390 C   0  0  0  0  0  3  0  0  0  0  0  0
  182.7850  178.4560  140.6840 C   0  0  0  0  0  0  0  0  0  0  0  0
  186.5060  176.8320  135.6300 C   0  0  0  0  0  3  0  0  0  0  0  0
  185.7350  178.1090  138.0150 C   0  0  0  0  0  0  0  0  0  0  0  0
  185.0790  176.9440  137.5820 C   0  0  0  0  0  3  0  0  0  0  0  0
  185.4630  176.3080  136.3980 C   0  0  0  0  0  3  0  0  0  0  0  0
  187.1630  177.9930  136.0450 C   0  0  0  0  0  3  0  0  0  0  0  0
  186.7780  178.6280  137.2290 C   0  0  0  0  0  3  0  0  0  0  0  0
  1 12  1  0  0  0  0
  1 15  1  0  0  0  0
  2  6  2  0  0  0  0
  2 16  1  0  0  0  0
  4 13  2  0  0  0  0
  6 18  1  0  0  0  0
  7  9  1  6  0  0  0
  7  5  1  0  0  0  0
  8 10  1  0  0  0  0
  8 17  1  0  0  0  0
 11  7  1  0  0  0  0
 12  2  1  0  0  0  0
 13  5  1  0  0  0  0
 14 11  1  0  0  0  0
 14  4  1  0  0  0  0
 15 21  1  0  0  0  0
 16  3  1  0  0  0  0
 16 11  2  0  0  0  0
 18 14  2  0  0  0  0
 19  8  2  0  0  0  0
 20 19  1  0  0  0  0
 20 15  2  0  0  0  0
 21 17  2  0  0  0  0
 21  3  1  0  0  0  0
 22 26  2  0  0  0  0
 22 25  1  0  0  0  0
 23 12  1  0  0  0  0
 24 23  1  0  0  0  0
 25 24  2  0  0  0  0
 26 27  1  0  0  0  0
 27 23  2  0  0  0  0
M  END
>  <MODEL>
5

>  <REMARK>
 VINA RESULT:      -8.3      4.421      7.896
  Name = 
  1 active torsions:
  status: ('A' for Active; 'I' for Inactive)
    1  A    between atoms: C_9  and  N_15
                            x       y       z     vdW  Elec       q    Type
                         _______ _______ _______ _____ _____    ______ ____

>  <TORSDO>
F 1

$$$$
=
 OpenBabel11052413403D

 27 31  0  0  1  0  0  0  0  0999 V2000
  189.3570  179.0250  142.3330 C   0  0  0  0  0  2  0  0  0  0  0  0
  188.3070  177.9510  140.3840 C   0  0  0  0  0  0  0  0  0  0  0  0
  190.3840  176.6450  140.8780 O   0  0  0  0  0  0  0  0  0  0  0  0
  188.5260  176.6800  136.3380 C   0  0  0  0  0  3  0  0  0  0  0  0
  190.9190  176.1520  136.5680 C   0  0  0  0  0  2  0  0  0  0  0  0
  187.3470  178.2680  139.4740 N   0  0  0  0  0  0  0  0  0  0  0  0
  190.7290  176.0080  138.0840 C   0  0  1  0  0  3  0  0  0  0  0  0
  191.5340  175.9260  144.3070 C   0  0  0  0  0  0  0  0  0  0  0  0
  192.0590  176.3770  138.7200 C   0  0  0  0  0  1  0  0  0  0  0  0
  192.4310  174.6670  145.1280 Cl  0  0  0  0  0  0  0  0  0  0  0  0
  189.5680  176.8540  138.6080 C   0  0  0  0  0  0  0  0  0  0  0  0
  188.1730  178.4560  141.7180 N   0  0  0  0  0  0  0  0  0  0  0  0
  189.6280  176.1540  135.8100 C   0  0  0  0  0  3  0  0  0  0  0  0
  188.5160  177.1680  137.7230 C   0  0  0  0  0  0  0  0  0  0  0  0
  190.1090  177.9360  142.9870 C   0  0  0  0  0  0  0  0  0  0  0  0
  189.4310  177.1800  139.9830 C   0  0  0  0  0  0  0  0  0  0  0  0
  191.2840  175.8250  142.9370 C   0  0  0  0  0  3  0  0  0  0  0  0
  187.4150  177.8780  138.1790 C   0  0  0  0  0  3  0  0  0  0  0  0
  191.0710  177.0320  145.0210 C   0  0  0  0  0  3  0  0  0  0  0  0
  190.3610  178.0350  144.3600 C   0  0  0  0  0  3  0  0  0  0  0  0
  190.5630  176.8180  142.2610 C   0  0  0  0  0  0  0  0  0  0  0  0
  184.4750  178.4380  143.8240 C   0  0  0  0  0  3  0  0  0  0  0  0
  186.9170  178.4360  142.4290 C   0  0  0  0  0  0  0  0  0  0  0  0
  186.8260  177.8780  143.7150 C   0  0  0  0  0  3  0  0  0  0  0  0
  185.6130  177.8770  144.4080 C   0  0  0  0  0  3  0  0  0  0  0  0
  184.5510  179.0030  142.5480 C   0  0  0  0  0  3  0  0  0  0  0  0
  185.7650  179.0030  141.8560 C   0  0  0  0  0  3  0  0  0  0  0  0
  1 15  1  0  0  0  0
  2 12  1  0  0  0  0
  3 21  1  0  0  0  0
  4 14  1  0  0  0  0
  5  7  1  0  0  0  0
  6  2  2  0  0  0  0
  7 11  1  0  0  0  0
  7  9  1  1  0  0  0
  8 19  1  0  0  0  0
  8 10  1  0  0  0  0
 11 16  2  0  0  0  0
 12  1  1  0  0  0  0
 12 23  1  0  0  0  0
 13  4  2  0  0  0  0
 13  5  1  0  0  0  0
 14 18  2  0  0  0  0
 14 11  1  0  0  0  0
 15 20  1  0  0  0  0
 16  2  1  0  0  0  0
 16  3  1  0  0  0  0
 17  8  2  0  0  0  0
 18  6  1  0  0  0  0
 20 19  2  0  0  0  0
 21 17  1  0  0  0  0
 21 15  2  0  0  0  0
 22 25  1  0  0  0  0
 23 24  1  0  0  0  0
 24 25  2  0  0  0  0
 26 22  2  0  0  0  0
 27 23  2  0  0  0  0
 27 26  1  0  0  0  0
M  END
>  <MODEL>
6

>  <REMARK>
 VINA RESULT:      -8.2      2.757      6.693
  Name = 
  1 active torsions:
  status: ('A' for Active; 'I' for Inactive)
    1  A    between atoms: C_9  and  N_15
                            x       y       z     vdW  Elec       q    Type
                         _______ _______ _______ _____ _____    ______ ____

>  <TORSDO>
F 1

$$$$
=
 OpenBabel11052413403D

 27 31  0  0  1  0  0  0  0  0999 V2000
  183.4680  177.2930  139.2190 C   0  0  0  0  0  2  0  0  0  0  0  0
  183.2060  178.5900  141.2940 C   0  0  0  0  0  0  0  0  0  0  0  0
  185.6670  178.2810  140.9580 O   0  0  0  0  0  0  0  0  0  0  0  0
  183.8740  179.0030  145.4670 C   0  0  0  0  0  3  0  0  0  0  0  0
  186.0550  177.8760  145.2930 C   0  0  0  0  0  2  0  0  0  0  0  0
  182.2000  178.8810  142.1620 N   0  0  0  0  0  0  0  0  0  0  0  0
  186.1210  178.2600  143.8090 C   0  0  1  0  0  3  0  0  0  0  0  0
  187.2730  178.4230  137.6430 C   0  0  0  0  0  0  0  0  0  0  0  0
  186.9480  177.1840  143.1240 C   0  0  0  0  0  1  0  0  0  0  0  0
  188.8300  178.8770  136.9830 Cl  0  0  0  0  0  0  0  0  0  0  0  0
  184.7330  178.4240  143.1880 C   0  0  0  0  0  0  0  0  0  0  0  0
  182.8830  178.4280  139.9080 N   0  0  0  0  0  0  0  0  0  0  0  0
  185.0100  178.6350  146.0520 C   0  0  0  0  0  3  0  0  0  0  0  0
  183.6610  178.7800  144.0310 C   0  0  0  0  0  0  0  0  0  0  0  0
  184.7920  177.6950  138.7040 C   0  0  0  0  0  0  0  0  0  0  0  0
  184.5270  178.4040  141.7830 C   0  0  0  0  0  0  0  0  0  0  0  0
  187.0400  178.5240  139.0160 C   0  0  0  0  0  3  0  0  0  0  0  0
  182.4010  179.0020  143.4950 C   0  0  0  0  0  3  0  0  0  0  0  0
  186.2650  177.9590  136.7970 C   0  0  0  0  0  3  0  0  0  0  0  0
  185.0280  177.5940  137.3290 C   0  0  0  0  0  3  0  0  0  0  0  0
  185.8000  178.1740  139.5630 C   0  0  0  0  0  0  0  0  0  0  0  0
  180.2550  181.1020  137.8930 C   0  0  0  0  0  3  0  0  0  0  0  0
  181.9950  179.3270  139.2120 C   0  0  0  0  0  0  0  0  0  0  0  0
  180.6830  178.9390  138.8910 C   0  0  0  0  0  3  0  0  0  0  0  0
  179.8190  179.8200  138.2340 C   0  0  0  0  0  3  0  0  0  0  0  0
  181.5550  181.5040  138.2110 C   0  0  0  0  0  3  0  0  0  0  0  0
  182.4180  180.6230  138.8680 C   0  0  0  0  0  3  0  0  0  0  0  0
  1 12  1  0  0  0  0
  2 16  2  0  0  0  0
  2  6  1  0  0  0  0
  3 16  1  0  0  0  0
  4 13  2  0  0  0  0
  5 13  1  0  0  0  0
  6 18  2  0  0  0  0
  7  9  1  6  0  0  0
  7  5  1  0  0  0  0
  8 17  1  0  0  0  0
 10  8  1  0  0  0  0
 11  7  1  0  0  0  0
 11 14  2  0  0  0  0
 12  2  1  0  0  0  0
 14  4  1  0  0  0  0
 15  1  1  0  0  0  0
 15 21  1  0  0  0  0
 16 11  1  0  0  0  0
 17 21  2  0  0  0  0
 18 14  1  0  0  0  0
 19 20  1  0  0  0  0
 19  8  2  0  0  0  0
 20 15  2  0  0  0  0
 21  3  1  0  0  0  0
 22 26  2  0  0  0  0
 22 25  1  0  0  0  0
 23 12  1  0  0  0  0
 24 23  1  0  0  0  0
 25 24  2  0  0  0  0
 26 27  1  0  0  0  0
 27 23  2  0  0  0  0
M  END
>  <MODEL>
7

>  <REMARK>
 VINA RESULT:      -8.1      4.166      7.919
  Name = 
  1 active torsions:
  status: ('A' for Active; 'I' for Inactive)
    1  A    between atoms: C_9  and  N_15
                            x       y       z     vdW  Elec       q    Type
                         _______ _______ _______ _____ _____    ______ ____

>  <TORSDO>
F 1

$$$$
=
 OpenBabel11052413403D

 27 31  0  0  1  0  0  0  0  0999 V2000
  187.9070  176.4290  142.9040 C   0  0  0  0  0  2  0  0  0  0  0  0
  189.0710  177.4750  141.0040 C   0  0  0  0  0  0  0  0  0  0  0  0
  186.6990  178.2660  140.9030 O   0  0  0  0  0  0  0  0  0  0  0  0
  189.4150  178.1180  136.8210 C   0  0  0  0  0  3  0  0  0  0  0  0
  186.9710  178.0510  136.5460 C   0  0  0  0  0  2  0  0  0  0  0  0
  190.2450  177.2960  140.3390 N   0  0  0  0  0  0  0  0  0  0  0  0
  186.8060  178.4310  138.0230 C   0  0  1  0  0  3  0  0  0  0  0  0
  184.7340  179.1050  143.9080 C   0  0  0  0  0  0  0  0  0  0  0  0
  185.4900  177.8230  138.4790 C   0  0  0  0  0  1  0  0  0  0  0  0
  183.4290  180.1920  144.3330 Cl  0  0  0  0  0  0  0  0  0  0  0  0
  187.9920  177.9800  138.8770 C   0  0  0  0  0  0  0  0  0  0  0  0
  189.0360  177.1940  142.4090 N   0  0  0  0  0  0  0  0  0  0  0  0
  188.3580  178.2780  136.0300 C   0  0  0  0  0  3  0  0  0  0  0  0
  189.2480  177.8310  138.2510 C   0  0  0  0  0  0  0  0  0  0  0  0
  186.8130  177.3680  143.2210 C   0  0  0  0  0  0  0  0  0  0  0  0
  187.9110  177.8780  140.2900 C   0  0  0  0  0  0  0  0  0  0  0  0
  185.2330  179.0890  142.6040 C   0  0  0  0  0  3  0  0  0  0  0  0
  190.3610  177.4870  139.0040 C   0  0  0  0  0  3  0  0  0  0  0  0
  185.2740  178.2530  144.8720 C   0  0  0  0  0  3  0  0  0  0  0  0
  186.3110  177.3850  144.5260 C   0  0  0  0  0  3  0  0  0  0  0  0
  186.2810  178.2320  142.2450 C   0  0  0  0  0  0  0  0  0  0  0  0
  192.0880  178.4560  145.0930 C   0  0  0  0  0  3  0  0  0  0  0  0
  190.0800  177.6220  143.3080 C   0  0  0  0  0  0  0  0  0  0  0  0
  190.4960  178.9640  143.3430 C   0  0  0  0  0  3  0  0  0  0  0  0
  191.4950  179.3780  144.2280 C   0  0  0  0  0  3  0  0  0  0  0  0
  191.6800  177.1190  145.0740 C   0  0  0  0  0  3  0  0  0  0  0  0
  190.6820  176.7060  144.1880 C   0  0  0  0  0  3  0  0  0  0  0  0
  1 15  1  0  0  0  0
  2 12  1  0  0  0  0
  3 21  1  0  0  0  0
  4 14  1  0  0  0  0
  5  7  1  0  0  0  0
  6  2  1  0  0  0  0
  7  9  1  1  0  0  0
  7 11  1  0  0  0  0
  8 10  1  0  0  0  0
  8 19  1  0  0  0  0
 11 16  1  0  0  0  0
 12  1  1  0  0  0  0
 12 23  1  0  0  0  0
 13  5  1  0  0  0  0
 13  4  2  0  0  0  0
 14 11  2  0  0  0  0
 14 18  1  0  0  0  0
 15 20  1  0  0  0  0
 16  3  1  0  0  0  0
 16  2  2  0  0  0  0
 17  8  2  0  0  0  0
 18  6  2  0  0  0  0
 20 19  2  0  0  0  0
 21 17  1  0  0  0  0
 21 15  2  0  0  0  0
 23 24  2  0  0  0  0
 23 27  1  0  0  0  0
 24 25  1  0  0  0  0
 25 22  2  0  0  0  0
 26 22  1  0  0  0  0
 27 26  2  0  0  0  0
M  END
>  <MODEL>
8

>  <REMARK>
 VINA RESULT:      -7.8      3.077      5.902
  Name = 
  1 active torsions:
  status: ('A' for Active; 'I' for Inactive)
    1  A    between atoms: C_9  and  N_15
                            x       y       z     vdW  Elec       q    Type
                         _______ _______ _______ _____ _____    ______ ____

>  <TORSDO>
F 1

$$$$
=
 OpenBabel11052413403D

 27 31  0  0  1  0  0  0  0  0999 V2000
  188.5630  179.3100  140.9480 C   0  0  0  0  0  2  0  0  0  0  0  0
  186.7920  178.4300  142.4120 C   0  0  0  0  0  0  0  0  0  0  0  0
  185.9450  178.2120  140.0670 O   0  0  0  0  0  0  0  0  0  0  0  0
  182.7810  178.5620  143.8000 C   0  0  0  0  0  3  0  0  0  0  0  0
  181.9650  179.2160  141.5720 C   0  0  0  0  0  2  0  0  0  0  0  0
  186.4870  178.4750  143.7370 N   0  0  0  0  0  0  0  0  0  0  0  0
  183.2220  178.5970  140.9440 C   0  0  1  0  0  3  0  0  0  0  0  0
  188.1010  177.2500  137.2360 C   0  0  0  0  0  0  0  0  0  0  0  0
  183.4910  179.3770  139.6670 C   0  0  0  0  0  1  0  0  0  0  0  0
  187.9250  176.4130  135.7080 Cl  0  0  0  0  0  0  0  0  0  0  0  0
  184.4140  178.6010  141.9020 C   0  0  0  0  0  0  0  0  0  0  0  0
  188.1730  178.4290  142.0320 N   0  0  0  0  0  0  0  0  0  0  0  0
  181.7500  178.7960  142.9930 C   0  0  0  0  0  3  0  0  0  0  0  0
  184.1570  178.5920  143.2880 C   0  0  0  0  0  0  0  0  0  0  0  0
  188.3720  178.5900  139.6730 C   0  0  0  0  0  0  0  0  0  0  0  0
  185.7490  178.4390  141.4470 C   0  0  0  0  0  0  0  0  0  0  0  0
  186.9960  177.4120  138.0740 C   0  0  0  0  0  3  0  0  0  0  0  0
  185.2120  178.5290  144.1880 C   0  0  0  0  0  3  0  0  0  0  0  0
  189.3450  177.7560  137.6150 C   0  0  0  0  0  3  0  0  0  0  0  0
  189.4780  178.4270  138.8310 C   0  0  0  0  0  3  0  0  0  0  0  0
  187.1160  178.0720  139.3030 C   0  0  0  0  0  0  0  0  0  0  0  0
  191.1080  176.0420  143.9830 C   0  0  0  0  0  3  0  0  0  0  0  0
  189.1580  177.6150  142.7030 C   0  0  0  0  0  0  0  0  0  0  0  0
  189.2330  176.2320  142.4650 C   0  0  0  0  0  3  0  0  0  0  0  0
  190.2000  175.4500  143.1020 C   0  0  0  0  0  3  0  0  0  0  0  0
  191.0500  177.4170  144.2250 C   0  0  0  0  0  3  0  0  0  0  0  0
  190.0820  178.1980  143.5870 C   0  0  0  0  0  3  0  0  0  0  0  0
  1 12  1  0  0  0  0
  2  6  1  0  0  0  0
  3 16  1  0  0  0  0
  5 13  1  0  0  0  0
  6 18  2  0  0  0  0
  7  9  1  6  0  0  0
  7  5  1  0  0  0  0
  7 11  1  0  0  0  0
  8 19  2  0  0  0  0
  8 17  1  0  0  0  0
 10  8  1  0  0  0  0
 11 14  2  0  0  0  0
 12  2  1  0  0  0  0
 12 23  1  0  0  0  0
 13  4  2  0  0  0  0
 14  4  1  0  0  0  0
 14 18  1  0  0  0  0
 15  1  1  0  0  0  0
 16 11  1  0  0  0  0
 16  2  2  0  0  0  0
 17 21  2  0  0  0  0
 19 20  1  0  0  0  0
 20 15  2  0  0  0  0
 21 15  1  0  0  0  0
 21  3  1  0  0  0  0
 22 26  1  0  0  0  0
 23 27  1  0  0  0  0
 24 23  2  0  0  0  0
 24 25  1  0  0  0  0
 25 22  2  0  0  0  0
 27 26  2  0  0  0  0
M  END
>  <MODEL>
9

>  <REMARK>
 VINA RESULT:      -7.6      2.344      3.283
  Name = 
  1 active torsions:
  status: ('A' for Active; 'I' for Inactive)
    1  A    between atoms: C_9  and  N_15
                            x       y       z     vdW  Elec       q    Type
                         _______ _______ _______ _____ _____    ______ ____

>  <TORSDO>
F 1

$$$$
