=
 OpenBabel11052413033D

 31 35  0  0  1  0  0  0  0  0999 V2000
  185.0770  178.5710  145.0530 C   0  0  0  0  0  0  0  0  0  0  0  0
  187.9650  177.1530  142.9450 C   0  0  1  0  0  3  0  0  0  0  0  0
  189.0760  176.8920  143.9710 C   0  0  0  0  0  0  0  0  0  0  0  0
  189.5410  177.6530  146.2800 C   0  0  0  0  0  3  0  0  0  0  0  0
  186.7470  177.9590  143.3880 C   0  0  0  0  0  0  0  0  0  0  0  0
  184.4000  179.3410  144.1070 C   0  0  0  0  0  3  0  0  0  0  0  0
  188.7400  176.7310  145.4230 C   0  0  0  0  0  2  0  0  0  0  0  0
  187.4930  177.9210  140.5940 C   0  0  2  0  0  3  0  0  0  0  0  0
  184.5650  178.4860  146.4460 C   0  0  0  0  0  1  0  0  0  0  0  0
  190.5500  176.3800  142.0730 C   0  0  0  0  0  3  0  0  0  0  0  0
  190.8620  177.5500  146.3910 C   0  0  0  0  0  3  0  0  0  0  0  0
  186.4490  178.7530  141.0940 O   0  0  0  0  0  0  0  0  0  0  0  0
  188.5700  177.7550  141.6610 C   0  0  2  0  0  3  0  0  0  0  0  0
  186.2310  177.8750  144.6910 C   0  0  0  0  0  3  0  0  0  0  0  0
  191.6870  176.5920  145.6350 C   0  0  0  0  0  3  0  0  0  0  0  0
  186.0240  178.7010  142.4250 C   0  0  0  0  0  0  0  0  0  0  0  0
  184.8710  179.4020  142.7940 C   0  0  0  0  0  3  0  0  0  0  0  0
  189.7190  176.9210  141.1820 C   0  0  0  0  0  3  0  0  0  0  0  0
  190.3010  176.5080  143.5240 C   0  0  0  0  0  0  0  0  0  0  0  0
  191.4340  176.1360  144.4020 C   0  0  0  0  0  3  0  0  0  0  0  0
  187.0300  177.0310  137.9240 O   0  0  0  0  0  0  0  0  0  0  0  0
  187.7770  178.0350  138.0840 C   0  0  0  0  0  0  0  0  0  0  0  0
  188.0570  178.5270  139.3950 N   0  0  0  0  0  2  0  0  0  0  0  0
  188.9570  179.9450  137.2890 O   0  0  0  0  0  1  0  0  0  0  0  0
  188.3490  178.7460  136.9000 C   0  0  1  0  0  3  0  0  0  0  0  0
  190.2110  175.7180  136.4890 C   0  0  2  0  0  3  0  0  0  0  0  0
  188.6150  176.9050  135.1810 C   0  0  0  0  0  2  0  0  0  0  0  0
  191.5480  175.3550  136.3280 O   0  0  0  0  0  1  0  0  0  0  0  0
  189.5150  175.7050  135.1460 C   0  0  0  0  0  2  0  0  0  0  0  0
  189.3210  177.8560  136.1250 C   0  0  2  0  0  3  0  0  0  0  0  0
  190.1280  177.0640  137.0450 N   0  0  0  0  0  2  0  0  0  0  0  0
  1  9  1  0  0  0  0
  2  5  1  1  0  0  0
  2  3  1  0  0  0  0
  3  7  1  0  0  0  0
  4 11  2  0  0  0  0
  5 14  2  0  0  0  0
  6  1  2  0  0  0  0
  7  4  1  0  0  0  0
  8 23  1  6  0  0  0
  8 12  1  0  0  0  0
  8 13  1  0  0  0  0
 10 19  1  0  0  0  0
 12 16  1  0  0  0  0
 13 18  1  6  0  0  0
 13  2  1  0  0  0  0
 14  1  1  0  0  0  0
 15 11  1  0  0  0  0
 16 17  2  0  0  0  0
 16  5  1  0  0  0  0
 17  6  1  0  0  0  0
 18 10  2  0  0  0  0
 19  3  2  0  0  0  0
 19 20  1  0  0  0  0
 20 15  2  0  0  0  0
 21 22  2  0  0  0  0
 22 23  1  0  0  0  0
 25 24  1  1  0  0  0
 25 22  1  0  0  0  0
 26 28  1  6  0  0  0
 26 31  1  0  0  0  0
 27 30  1  0  0  0  0
 29 27  1  0  0  0  0
 29 26  1  0  0  0  0
 30 25  1  1  0  0  0
 30 31  1  0  0  0  0
M  END
>  <MODEL>
1

>  <REMARK>
 VINA RESULT:     -10.3      0.000      0.000
  Name = 
  3 active torsions:
  status: ('A' for Active; 'I' for Inactive)
    1  A    between atoms: C_9  and  C_22
    2  A    between atoms: C_15  and  N_23
    3  A    between atoms: C_19  and  C_22
                            x       y       z     vdW  Elec       q    Type
                         _______ _______ _______ _____ _____    ______ ____

>  <TORSDO>
F 3

$$$$
=
 OpenBabel11052413033D

 31 35  0  0  1  0  0  0  0  0999 V2000
  185.2840  178.4990  143.3540 C   0  0  0  0  0  0  0  0  0  0  0  0
  188.7530  176.9010  143.8050 C   0  0  1  0  0  3  0  0  0  0  0  0
  189.0320  177.0430  145.3080 C   0  0  0  0  0  0  0  0  0  0  0  0
  188.1060  178.4290  147.1360 C   0  0  0  0  0  3  0  0  0  0  0  0
  187.5660  177.6570  143.2160 C   0  0  0  0  0  0  0  0  0  0  0  0
  185.3440  178.9150  142.0240 C   0  0  0  0  0  3  0  0  0  0  0  0
  187.8980  177.2330  146.2710 C   0  0  0  0  0  2  0  0  0  0  0  0
  189.8030  176.9680  141.5170 C   0  0  2  0  0  3  0  0  0  0  0  0
  184.0480  178.7270  144.1490 C   0  0  0  0  0  1  0  0  0  0  0  0
  191.2990  176.2140  144.8480 C   0  0  0  0  0  3  0  0  0  0  0  0
  189.1000  178.5050  148.0160 C   0  0  0  0  0  3  0  0  0  0  0  0
  188.7240  177.7830  141.0650 O   0  0  0  0  0  0  0  0  0  0  0  0
  190.0360  177.2070  143.0050 C   0  0  2  0  0  3  0  0  0  0  0  0
  186.3800  177.8630  143.9380 C   0  0  0  0  0  3  0  0  0  0  0  0
  190.1440  177.4780  148.1800 C   0  0  0  0  0  3  0  0  0  0  0  0
  187.5970  178.0360  141.8530 C   0  0  0  0  0  0  0  0  0  0  0  0
  186.4980  178.6790  141.2740 C   0  0  0  0  0  3  0  0  0  0  0  0
  191.1860  176.4070  143.5350 C   0  0  0  0  0  3  0  0  0  0  0  0
  190.2560  176.6910  145.7820 C   0  0  0  0  0  0  0  0  0  0  0  0
  190.6310  176.6890  147.2140 C   0  0  0  0  0  3  0  0  0  0  0  0
  190.5490  175.7940  139.0270 O   0  0  0  0  0  0  0  0  0  0  0  0
  191.3130  176.6740  139.5100 C   0  0  0  0  0  0  0  0  0  0  0  0
  191.0020  177.2950  140.7580 N   0  0  0  0  0  2  0  0  0  0  0  0
  193.6430  177.1520  139.6150 O   0  0  0  0  0  1  0  0  0  0  0  0
  192.5340  177.1050  138.7640 C   0  0  1  0  0  3  0  0  0  0  0  0
  194.7280  175.6050  136.3680 C   0  0  2  0  0  3  0  0  0  0  0  0
  193.1400  174.7870  137.9420 C   0  0  0  0  0  2  0  0  0  0  0  0
  194.8530  175.5690  134.9790 O   0  0  0  0  0  1  0  0  0  0  0  0
  194.0670  174.3340  136.8520 C   0  0  0  0  0  2  0  0  0  0  0  0
  192.7980  176.2100  137.5530 C   0  0  2  0  0  3  0  0  0  0  0  0
  193.9010  176.7410  136.7610 N   0  0  0  0  0  2  0  0  0  0  0  0
  1 14  1  0  0  0  0
  1  9  1  0  0  0  0
  2  5  1  6  0  0  0
  2  3  1  0  0  0  0
  3 19  2  0  0  0  0
  3  7  1  0  0  0  0
  4 11  2  0  0  0  0
  5 14  2  0  0  0  0
  6  1  2  0  0  0  0
  7  4  1  0  0  0  0
  8 23  1  6  0  0  0
  8 13  1  0  0  0  0
 10 19  1  0  0  0  0
 11 15  1  0  0  0  0
 12  8  1  0  0  0  0
 12 16  1  0  0  0  0
 13 18  1  1  0  0  0
 13  2  1  0  0  0  0
 16  5  1  0  0  0  0
 17 16  2  0  0  0  0
 17  6  1  0  0  0  0
 18 10  2  0  0  0  0
 19 20  1  0  0  0  0
 20 15  2  0  0  0  0
 21 22  2  0  0  0  0
 22 23  1  0  0  0  0
 25 22  1  0  0  0  0
 25 24  1  1  0  0  0
 26 28  1  6  0  0  0
 26 31  1  0  0  0  0
 26 29  1  0  0  0  0
 29 27  1  0  0  0  0
 30 27  1  0  0  0  0
 30 25  1  1  0  0  0
 31 30  1  0  0  0  0
M  END
>  <MODEL>
2

>  <REMARK>
 VINA RESULT:     -10.3      2.485      3.220
  Name = 
  3 active torsions:
  status: ('A' for Active; 'I' for Inactive)
    1  A    between atoms: C_9  and  C_22
    2  A    between atoms: C_15  and  N_23
    3  A    between atoms: C_19  and  C_22
                            x       y       z     vdW  Elec       q    Type
                         _______ _______ _______ _____ _____    ______ ____

>  <TORSDO>
F 3

$$$$
=
 OpenBabel11052413033D

 31 35  0  0  1  0  0  0  0  0999 V2000
  187.1580  177.9100  147.2370 C   0  0  0  0  0  0  0  0  0  0  0  0
  187.5280  177.5100  143.4290 C   0  0  1  0  0  3  0  0  0  0  0  0
  189.0460  177.4560  143.2110 C   0  0  0  0  0  0  0  0  0  0  0  0
  191.0310  178.0880  144.5460 C   0  0  0  0  0  3  0  0  0  0  0  0
  187.0100  177.9220  144.8050 C   0  0  0  0  0  0  0  0  0  0  0  0
  185.9270  178.5610  147.3260 C   0  0  0  0  0  3  0  0  0  0  0  0
  189.9580  177.0740  144.3380 C   0  0  0  0  0  2  0  0  0  0  0  0
  185.3540  178.3470  142.4720 C   0  0  2  0  0  3  0  0  0  0  0  0
  187.9050  177.5610  148.4740 C   0  0  0  0  0  1  0  0  0  0  0  0
  188.5850  177.5330  140.7980 C   0  0  0  0  0  3  0  0  0  0  0  0
  191.9680  178.3280  143.6330 C   0  0  0  0  0  3  0  0  0  0  0  0
  184.9880  178.8230  143.7660 O   0  0  0  0  0  0  0  0  0  0  0  0
  186.8720  178.3700  142.3300 C   0  0  2  0  0  3  0  0  0  0  0  0
  187.6860  177.5810  145.9870 C   0  0  0  0  0  3  0  0  0  0  0  0
  192.0110  177.6980  142.3020 C   0  0  0  0  0  3  0  0  0  0  0  0
  185.7400  178.5350  144.9090 C   0  0  0  0  0  0  0  0  0  0  0  0
  185.2180  178.8690  146.1630 C   0  0  0  0  0  3  0  0  0  0  0  0
  187.3210  177.9180  140.9740 C   0  0  0  0  0  3  0  0  0  0  0  0
  189.5230  177.4520  141.9380 C   0  0  0  0  0  0  0  0  0  0  0  0
  190.9530  177.3100  141.5790 C   0  0  0  0  0  3  0  0  0  0  0  0
  183.3010  177.5260  140.6710 O   0  0  0  0  0  0  0  0  0  0  0  0
  183.7050  178.7190  140.5920 C   0  0  0  0  0  0  0  0  0  0  0  0
  184.7370  179.1910  141.4580 N   0  0  0  0  0  2  0  0  0  0  0  0
  184.0670  180.3580  138.9030 O   0  0  0  0  0  1  0  0  0  0  0  0
  183.0830  179.6630  139.6140 C   0  0  1  0  0  3  0  0  0  0  0  0
  181.0370  179.5420  136.6810 C   0  0  2  0  0  3  0  0  0  0  0  0
  182.8290  178.2310  137.5400 C   0  0  0  0  0  2  0  0  0  0  0  0
  179.6950  179.3070  136.3810 O   0  0  0  0  0  1  0  0  0  0  0  0
  181.8450  178.2940  136.4080 C   0  0  0  0  0  2  0  0  0  0  0  0
  182.1190  178.9420  138.6720 C   0  0  2  0  0  3  0  0  0  0  0  0
  181.1740  179.8890  138.0910 N   0  0  0  0  0  2  0  0  0  0  0  0
  1  6  1  0  0  0  0
  1  9  1  0  0  0  0
  2  3  1  1  0  0  0
  2  5  1  0  0  0  0
  3  7  1  0  0  0  0
  5 16  2  0  0  0  0
  5 14  1  0  0  0  0
  7  4  1  0  0  0  0
  8 23  1  6  0  0  0
  8 12  1  0  0  0  0
 10 18  2  0  0  0  0
 10 19  1  0  0  0  0
 11  4  2  0  0  0  0
 12 16  1  0  0  0  0
 13 18  1  6  0  0  0
 13  8  1  0  0  0  0
 13  2  1  0  0  0  0
 14  1  2  0  0  0  0
 15 11  1  0  0  0  0
 16 17  1  0  0  0  0
 17  6  2  0  0  0  0
 19  3  2  0  0  0  0
 20 19  1  0  0  0  0
 20 15  2  0  0  0  0
 22 21  2  0  0  0  0
 22 23  1  0  0  0  0
 25 24  1  6  0  0  0
 25 22  1  0  0  0  0
 26 28  1  1  0  0  0
 26 31  1  0  0  0  0
 27 30  1  0  0  0  0
 29 26  1  0  0  0  0
 29 27  1  0  0  0  0
 30 25  1  1  0  0  0
 31 30  1  0  0  0  0
M  END
>  <MODEL>
3

>  <REMARK>
 VINA RESULT:      -9.9      3.515      5.010
  Name = 
  3 active torsions:
  status: ('A' for Active; 'I' for Inactive)
    1  A    between atoms: C_9  and  C_22
    2  A    between atoms: C_15  and  N_23
    3  A    between atoms: C_19  and  C_22
                            x       y       z     vdW  Elec       q    Type
                         _______ _______ _______ _____ _____    ______ ____

>  <TORSDO>
F 3

$$$$
=
 OpenBabel11052413033D

 31 35  0  0  1  0  0  0  0  0999 V2000
  191.0720  177.3220  140.6030 C   0  0  0  0  0  0  0  0  0  0  0  0
  189.2830  177.9510  143.9500 C   0  0  1  0  0  3  0  0  0  0  0  0
  190.2120  177.3090  144.9900 C   0  0  0  0  0  0  0  0  0  0  0  0
  192.0560  175.6610  144.9100 C   0  0  0  0  0  3  0  0  0  0  0  0
  189.5500  177.6720  142.4730 C   0  0  0  0  0  0  0  0  0  0  0  0
  189.9970  177.3230  139.7140 C   0  0  0  0  0  3  0  0  0  0  0  0
  191.6580  177.0780  144.6700 C   0  0  0  0  0  2  0  0  0  0  0  0
  186.8750  178.3580  143.3350 C   0  0  2  0  0  3  0  0  0  0  0  0
  192.4560  177.1280  140.0960 C   0  0  0  0  0  1  0  0  0  0  0  0
  188.4590  177.7460  146.6550 C   0  0  0  0  0  3  0  0  0  0  0  0
  192.0540  175.1190  146.1240 C   0  0  0  0  0  3  0  0  0  0  0  0
  187.1690  177.9610  141.9970 O   0  0  0  0  0  0  0  0  0  0  0  0
  187.8140  177.6400  144.2990 C   0  0  2  0  0  3  0  0  0  0  0  0
  190.8490  177.5100  141.9680 C   0  0  0  0  0  3  0  0  0  0  0  0
  191.5890  175.8070  147.3400 C   0  0  0  0  0  3  0  0  0  0  0  0
  188.4740  177.7220  141.5570 C   0  0  0  0  0  0  0  0  0  0  0  0
  188.7010  177.5270  140.1900 C   0  0  0  0  0  3  0  0  0  0  0  0
  187.5310  177.9850  145.7290 C   0  0  0  0  0  3  0  0  0  0  0  0
  189.7960  177.2390  146.2820 C   0  0  0  0  0  0  0  0  0  0  0  0
  190.6220  176.7310  147.4020 C   0  0  0  0  0  3  0  0  0  0  0  0
  184.8380  180.2520  143.9650 O   0  0  0  0  0  0  0  0  0  0  0  0
  184.5150  179.0330  143.9400 C   0  0  0  0  0  0  0  0  0  0  0  0
  185.4890  178.0330  143.6400 N   0  0  0  0  0  2  0  0  0  0  0  0
  182.6900  179.0030  145.4690 O   0  0  0  0  0  1  0  0  0  0  0  0
  183.1000  178.6220  144.1870 C   0  0  1  0  0  3  0  0  0  0  0  0
  181.2520  178.2940  141.1400 C   0  0  2  0  0  3  0  0  0  0  0  0
  180.7060  178.8480  143.3890 C   0  0  0  0  0  2  0  0  0  0  0  0
  181.1800  178.9540  139.9130 O   0  0  0  0  0  1  0  0  0  0  0  0
  180.1030  178.7300  142.0200 C   0  0  0  0  0  2  0  0  0  0  0  0
  182.1590  179.1730  143.1150 C   0  0  2  0  0  3  0  0  0  0  0  0
  182.5050  178.6280  141.8070 N   0  0  0  0  0  2  0  0  0  0  0  0
  1 14  1  0  0  0  0
  2  5  1  6  0  0  0
  2 13  1  0  0  0  0
  2  3  1  0  0  0  0
  3 19  2  0  0  0  0
  4 11  2  0  0  0  0
  6 17  1  0  0  0  0
  6  1  2  0  0  0  0
  7  4  1  0  0  0  0
  7  3  1  0  0  0  0
  8 23  1  1  0  0  0
  8 13  1  0  0  0  0
  9  1  1  0  0  0  0
 11 15  1  0  0  0  0
 12  8  1  0  0  0  0
 13 18  1  1  0  0  0
 14  5  2  0  0  0  0
 15 20  2  0  0  0  0
 16 12  1  0  0  0  0
 16  5  1  0  0  0  0
 17 16  2  0  0  0  0
 18 10  2  0  0  0  0
 19 10  1  0  0  0  0
 19 20  1  0  0  0  0
 22 21  2  0  0  0  0
 22 25  1  0  0  0  0
 23 22  1  0  0  0  0
 25 24  1  1  0  0  0
 26 28  1  6  0  0  0
 26 31  1  0  0  0  0
 26 29  1  0  0  0  0
 29 27  1  0  0  0  0
 30 27  1  0  0  0  0
 30 25  1  1  0  0  0
 31 30  1  0  0  0  0
M  END
>  <MODEL>
4

>  <REMARK>
 VINA RESULT:      -9.9      3.214      6.793
  Name = 
  3 active torsions:
  status: ('A' for Active; 'I' for Inactive)
    1  A    between atoms: C_9  and  C_22
    2  A    between atoms: C_15  and  N_23
    3  A    between atoms: C_19  and  C_22
                            x       y       z     vdW  Elec       q    Type
                         _______ _______ _______ _____ _____    ______ ____

>  <TORSDO>
F 3

$$$$
=
 OpenBabel11052413033D

 31 35  0  0  1  0  0  0  0  0999 V2000
  185.2870  178.2400  145.2830 C   0  0  0  0  0  0  0  0  0  0  0  0
  188.6670  176.7910  144.1530 C   0  0  1  0  0  3  0  0  0  0  0  0
  189.5030  176.7620  145.4390 C   0  0  0  0  0  0  0  0  0  0  0  0
  189.3510  177.8600  147.6520 C   0  0  0  0  0  3  0  0  0  0  0  0
  187.3420  177.5490  144.1700 C   0  0  0  0  0  0  0  0  0  0  0  0
  184.8280  178.8190  144.1000 C   0  0  0  0  0  3  0  0  0  0  0  0
  188.8290  176.7700  146.7790 C   0  0  0  0  0  2  0  0  0  0  0  0
  188.7510  177.1980  141.6690 C   0  0  2  0  0  3  0  0  0  0  0  0
  184.4540  178.3000  146.5130 C   0  0  0  0  0  1  0  0  0  0  0  0
  191.4200  176.1220  144.0410 C   0  0  0  0  0  3  0  0  0  0  0  0
  190.6080  177.8810  148.0860 C   0  0  0  0  0  3  0  0  0  0  0  0
  187.5780  178.0010  141.7790 O   0  0  0  0  0  0  0  0  0  0  0  0
  189.5400  177.2640  142.9730 C   0  0  2  0  0  3  0  0  0  0  0  0
  186.5260  177.5980  145.3120 C   0  0  0  0  0  3  0  0  0  0  0  0
  191.6380  176.9010  147.6980 C   0  0  0  0  0  3  0  0  0  0  0  0
  186.8430  178.0940  142.9640 C   0  0  0  0  0  0  0  0  0  0  0  0
  185.6030  178.7420  142.9420 C   0  0  0  0  0  3  0  0  0  0  0  0
  190.8080  176.4690  142.9100 C   0  0  0  0  0  3  0  0  0  0  0  0
  190.8170  176.4220  145.3570 C   0  0  0  0  0  0  0  0  0  0  0  0
  191.7160  176.2650  146.5230 C   0  0  0  0  0  3  0  0  0  0  0  0
  189.0670  175.8800  139.1600 O   0  0  0  0  0  0  0  0  0  0  0  0
  189.6710  176.9750  139.3250 C   0  0  0  0  0  0  0  0  0  0  0  0
  189.5630  177.6810  140.5610 N   0  0  0  0  0  2  0  0  0  0  0  0
  191.5500  176.7280  137.8820 O   0  0  0  0  0  1  0  0  0  0  0  0
  190.4800  177.5650  138.2150 C   0  0  1  0  0  3  0  0  0  0  0  0
  187.8040  176.7990  135.9650 C   0  0  2  0  0  3  0  0  0  0  0  0
  188.3650  178.6560  137.3460 C   0  0  0  0  0  2  0  0  0  0  0  0
  187.6490  176.5980  134.5940 O   0  0  0  0  0  1  0  0  0  0  0  0
  187.3620  178.1990  136.3270 C   0  0  0  0  0  2  0  0  0  0  0  0
  189.6150  177.8770  136.9940 C   0  0  2  0  0  3  0  0  0  0  0  0
  189.2080  176.6430  136.3320 N   0  0  0  0  0  2  0  0  0  0  0  0
  1 14  1  0  0  0  0
  1  9  1  0  0  0  0
  2  5  1  1  0  0  0
  2  3  1  0  0  0  0
  3  7  1  0  0  0  0
  4 11  2  0  0  0  0
  5 14  2  0  0  0  0
  6  1  2  0  0  0  0
  7  4  1  0  0  0  0
  8 23  1  6  0  0  0
  8 12  1  0  0  0  0
  8 13  1  0  0  0  0
 10 19  1  0  0  0  0
 12 16  1  0  0  0  0
 13 18  1  6  0  0  0
 13  2  1  0  0  0  0
 15 11  1  0  0  0  0
 16  5  1  0  0  0  0
 17 16  2  0  0  0  0
 17  6  1  0  0  0  0
 18 10  2  0  0  0  0
 19  3  2  0  0  0  0
 19 20  1  0  0  0  0
 20 15  2  0  0  0  0
 21 22  2  0  0  0  0
 22 23  1  0  0  0  0
 25 24  1  6  0  0  0
 25 22  1  0  0  0  0
 26 28  1  6  0  0  0
 26 29  1  0  0  0  0
 26 31  1  0  0  0  0
 29 27  1  0  0  0  0
 30 27  1  0  0  0  0
 30 25  1  1  0  0  0
 31 30  1  0  0  0  0
M  END
>  <MODEL>
5

>  <REMARK>
 VINA RESULT:      -9.6      1.475      2.112
  Name = 
  3 active torsions:
  status: ('A' for Active; 'I' for Inactive)
    1  A    between atoms: C_9  and  C_22
    2  A    between atoms: C_15  and  N_23
    3  A    between atoms: C_19  and  C_22
                            x       y       z     vdW  Elec       q    Type
                         _______ _______ _______ _____ _____    ______ ____

>  <TORSDO>
F 3

$$$$
=
 OpenBabel11052413033D

 31 35  0  0  1  0  0  0  0  0999 V2000
  190.8020  176.7740  145.8160 C   0  0  0  0  0  0  0  0  0  0  0  0
  188.2450  178.2770  143.3670 C   0  0  1  0  0  3  0  0  0  0  0  0
  186.9820  178.4620  144.2200 C   0  0  0  0  0  0  0  0  0  0  0  0
  186.1830  177.5610  146.3820 C   0  0  0  0  0  3  0  0  0  0  0  0
  189.3960  177.4620  143.9480 C   0  0  0  0  0  0  0  0  0  0  0  0
  191.6340  176.0700  144.9450 C   0  0  0  0  0  3  0  0  0  0  0  0
  187.0860  178.5420  145.7140 C   0  0  0  0  0  2  0  0  0  0  0  0
  189.0910  177.6550  141.0780 C   0  0  2  0  0  3  0  0  0  0  0  0
  191.0900  176.7840  147.2740 C   0  0  0  0  0  1  0  0  0  0  0  0
  185.8090  179.0660  142.1470 C   0  0  0  0  0  3  0  0  0  0  0  0
  184.8580  177.6390  146.2910 C   0  0  0  0  0  3  0  0  0  0  0  0
  190.0640  176.8090  141.6880 O   0  0  0  0  0  0  0  0  0  0  0  0
  187.8590  177.7440  141.9720 C   0  0  2  0  0  3  0  0  0  0  0  0
  189.7020  177.4750  145.3180 C   0  0  0  0  0  3  0  0  0  0  0  0
  184.1390  178.6290  145.4710 C   0  0  0  0  0  3  0  0  0  0  0  0
  190.2760  176.7870  143.0700 C   0  0  0  0  0  0  0  0  0  0  0  0
  191.3730  176.0810  143.5740 C   0  0  0  0  0  3  0  0  0  0  0  0
  186.7800  178.5900  141.3680 C   0  0  0  0  0  3  0  0  0  0  0  0
  185.8330  178.8560  143.6100 C   0  0  0  0  0  0  0  0  0  0  0  0
  184.5700  179.1610  144.3200 C   0  0  0  0  0  3  0  0  0  0  0  0
  189.0140  179.1380  138.6440 O   0  0  0  0  0  0  0  0  0  0  0  0
  188.7220  177.9120  138.5900 C   0  0  0  0  0  0  0  0  0  0  0  0
  188.7330  177.1140  139.7740 N   0  0  0  0  0  2  0  0  0  0  0  0
  188.4320  175.8760  137.3900 O   0  0  0  0  0  1  0  0  0  0  0  0
  188.3980  177.2690  137.2800 C   0  0  1  0  0  3  0  0  0  0  0  0
  185.1890  176.6730  135.8130 C   0  0  2  0  0  3  0  0  0  0  0  0
  185.9640  177.7580  137.7850 C   0  0  0  0  0  2  0  0  0  0  0  0
  184.4980  177.0740  134.6710 O   0  0  0  0  0  1  0  0  0  0  0  0
  184.7150  177.4770  137.0030 C   0  0  0  0  0  2  0  0  0  0  0  0
  187.0540  177.7530  136.7350 C   0  0  2  0  0  3  0  0  0  0  0  0
  186.6180  176.9030  135.6330 N   0  0  0  0  0  2  0  0  0  0  0  0
  1  9  1  0  0  0  0
  2  5  1  1  0  0  0
  2  3  1  0  0  0  0
  3  7  1  0  0  0  0
  5 14  2  0  0  0  0
  6  1  2  0  0  0  0
  7  4  1  0  0  0  0
  8 23  1  6  0  0  0
  8 12  1  0  0  0  0
  8 13  1  0  0  0  0
 10 19  1  0  0  0  0
 11  4  2  0  0  0  0
 12 16  1  0  0  0  0
 13 18  1  6  0  0  0
 13  2  1  0  0  0  0
 14  1  1  0  0  0  0
 15 11  1  0  0  0  0
 16 17  2  0  0  0  0
 16  5  1  0  0  0  0
 17  6  1  0  0  0  0
 18 10  2  0  0  0  0
 19  3  2  0  0  0  0
 19 20  1  0  0  0  0
 20 15  2  0  0  0  0
 22 21  2  0  0  0  0
 22 23  1  0  0  0  0
 25 24  1  1  0  0  0
 25 22  1  0  0  0  0
 26 28  1  6  0  0  0
 26 29  1  0  0  0  0
 29 27  1  0  0  0  0
 30 25  1  1  0  0  0
 30 27  1  0  0  0  0
 31 26  1  0  0  0  0
 31 30  1  0  0  0  0
M  END
>  <MODEL>
6

>  <REMARK>
 VINA RESULT:      -9.3      1.868      4.708
  Name = 
  3 active torsions:
  status: ('A' for Active; 'I' for Inactive)
    1  A    between atoms: C_9  and  C_22
    2  A    between atoms: C_15  and  N_23
    3  A    between atoms: C_19  and  C_22
                            x       y       z     vdW  Elec       q    Type
                         _______ _______ _______ _____ _____    ______ ____

>  <TORSDO>
F 3

$$$$
=
 OpenBabel11052413033D

 31 35  0  0  1  0  0  0  0  0999 V2000
  190.8380  176.7510  145.8560 C   0  0  0  0  0  0  0  0  0  0  0  0
  188.2710  178.2740  143.4300 C   0  0  1  0  0  3  0  0  0  0  0  0
  187.0140  178.4580  144.2910 C   0  0  0  0  0  0  0  0  0  0  0  0
  186.2240  177.5490  146.4530 C   0  0  0  0  0  3  0  0  0  0  0  0
  189.4230  177.4520  144.0000 C   0  0  0  0  0  0  0  0  0  0  0  0
  191.6620  176.0490  144.9770 C   0  0  0  0  0  3  0  0  0  0  0  0
  187.1260  178.5300  145.7850 C   0  0  0  0  0  2  0  0  0  0  0  0
  189.1020  177.6610  141.1330 C   0  0  2  0  0  3  0  0  0  0  0  0
  191.1340  176.7530  147.3130 C   0  0  0  0  0  1  0  0  0  0  0  0
  185.8310  179.0760  142.2280 C   0  0  0  0  0  3  0  0  0  0  0  0
  184.8990  177.6320  146.3710 C   0  0  0  0  0  3  0  0  0  0  0  0
  190.0760  176.8090  141.7330 O   0  0  0  0  0  0  0  0  0  0  0  0
  187.8750  177.7490  142.0350 C   0  0  2  0  0  3  0  0  0  0  0  0
  189.7370  177.4580  145.3680 C   0  0  0  0  0  3  0  0  0  0  0  0
  184.1780  178.6280  145.5600 C   0  0  0  0  0  3  0  0  0  0  0  0
  190.2960  176.7800  143.1130 C   0  0  0  0  0  0  0  0  0  0  0  0
  191.3930  176.0680  143.6070 C   0  0  0  0  0  3  0  0  0  0  0  0
  186.7950  178.6020  141.4420 C   0  0  0  0  0  3  0  0  0  0  0  0
  185.8630  178.8590  143.6900 C   0  0  0  0  0  0  0  0  0  0  0  0
  184.6040  179.1640  144.4090 C   0  0  0  0  0  3  0  0  0  0  0  0
  189.0560  179.1470  138.6990 O   0  0  0  0  0  0  0  0  0  0  0  0
  188.7410  177.9260  138.6450 C   0  0  0  0  0  0  0  0  0  0  0  0
  188.7350  177.1280  139.8290 N   0  0  0  0  0  2  0  0  0  0  0  0
  188.0270  178.2580  136.3980 O   0  0  0  0  0  1  0  0  0  0  0  0
  188.4050  177.2910  137.3340 C   0  0  1  0  0  3  0  0  0  0  0  0
  191.5040  175.5580  137.7880 C   0  0  2  0  0  3  0  0  0  0  0  0
  189.3300  174.9520  137.0300 C   0  0  0  0  0  2  0  0  0  0  0  0
  192.7780  175.5800  137.2230 O   0  0  0  0  0  1  0  0  0  0  0  0
  190.7130  174.4020  137.2180 C   0  0  0  0  0  2  0  0  0  0  0  0
  189.5590  176.4330  136.8140 C   0  0  2  0  0  3  0  0  0  0  0  0
  190.8040  176.8010  137.4780 N   0  0  0  0  0  2  0  0  0  0  0  0
  1  9  1  0  0  0  0
  2  5  1  1  0  0  0
  2  3  1  0  0  0  0
  3  7  1  0  0  0  0
  5 14  2  0  0  0  0
  6  1  2  0  0  0  0
  7  4  1  0  0  0  0
  8 23  1  6  0  0  0
  8 12  1  0  0  0  0
  8 13  1  0  0  0  0
 10 19  1  0  0  0  0
 11  4  2  0  0  0  0
 12 16  1  0  0  0  0
 13 18  1  6  0  0  0
 13  2  1  0  0  0  0
 14  1  1  0  0  0  0
 15 11  1  0  0  0  0
 16 17  2  0  0  0  0
 16  5  1  0  0  0  0
 17  6  1  0  0  0  0
 18 10  2  0  0  0  0
 19  3  2  0  0  0  0
 19 20  1  0  0  0  0
 20 15  2  0  0  0  0
 22 21  2  0  0  0  0
 22 23  1  0  0  0  0
 25 24  1  6  0  0  0
 25 22  1  0  0  0  0
 26 28  1  6  0  0  0
 27 29  1  0  0  0  0
 29 26  1  0  0  0  0
 30 27  1  0  0  0  0
 30 25  1  1  0  0  0
 30 31  1  0  0  0  0
 31 26  1  0  0  0  0
M  END
>  <MODEL>
7

>  <REMARK>
 VINA RESULT:      -9.2      1.408      4.229
  Name = 
  3 active torsions:
  status: ('A' for Active; 'I' for Inactive)
    1  A    between atoms: C_9  and  C_22
    2  A    between atoms: C_15  and  N_23
    3  A    between atoms: C_19  and  C_22
                            x       y       z     vdW  Elec       q    Type
                         _______ _______ _______ _____ _____    ______ ____

>  <TORSDO>
F 3

$$$$
=
 OpenBabel11052413033D

 31 35  0  0  1  0  0  0  0  0999 V2000
  187.9630  178.0070  138.0870 C   0  0  0  0  0  0  0  0  0  0  0  0
  185.6980  178.7660  141.1010 C   0  0  1  0  0  3  0  0  0  0  0  0
  186.5250  178.3050  142.3090 C   0  0  0  0  0  0  0  0  0  0  0  0
  188.4860  176.8300  142.6270 C   0  0  0  0  0  3  0  0  0  0  0  0
  186.1810  178.3820  139.7060 C   0  0  0  0  0  0  0  0  0  0  0  0
  187.0210  177.8330  137.0730 C   0  0  0  0  0  3  0  0  0  0  0  0
  188.0150  178.1780  142.1990 C   0  0  0  0  0  2  0  0  0  0  0  0
  183.3700  178.8990  140.1490 C   0  0  2  0  0  3  0  0  0  0  0  0
  189.4140  177.8950  137.7810 C   0  0  0  0  0  1  0  0  0  0  0  0
  184.5360  178.7280  143.6870 C   0  0  0  0  0  3  0  0  0  0  0  0
  188.3640  176.3990  143.8790 C   0  0  0  0  0  3  0  0  0  0  0  0
  183.8700  178.4130  138.9060 O   0  0  0  0  0  0  0  0  0  0  0  0
  184.2240  178.3560  141.2910 C   0  0  2  0  0  3  0  0  0  0  0  0
  187.5450  178.2940  139.3870 C   0  0  0  0  0  3  0  0  0  0  0  0
  187.6870  177.1480  144.9530 C   0  0  0  0  0  3  0  0  0  0  0  0
  185.2380  178.2550  138.6600 C   0  0  0  0  0  0  0  0  0  0  0  0
  185.6610  177.9610  137.3590 C   0  0  0  0  0  3  0  0  0  0  0  0
  183.7250  178.7990  142.6320 C   0  0  0  0  0  3  0  0  0  0  0  0
  185.9460  178.3130  143.5390 C   0  0  0  0  0  0  0  0  0  0  0  0
  186.6510  177.9830  144.7990 C   0  0  0  0  0  3  0  0  0  0  0  0
  181.0960  180.3100  139.1660 O   0  0  0  0  0  0  0  0  0  0  0  0
  180.8900  179.2290  139.7820 C   0  0  0  0  0  0  0  0  0  0  0  0
  181.9850  178.4780  140.3080 N   0  0  0  0  0  2  0  0  0  0  0  0
  179.4460  177.3450  139.5990 O   0  0  0  0  0  1  0  0  0  0  0  0
  179.5010  178.7010  139.9370 C   0  0  1  0  0  3  0  0  0  0  0  0
  179.8130  178.5830  143.5010 C   0  0  2  0  0  3  0  0  0  0  0  0
  179.3710  180.2930  141.9040 C   0  0  0  0  0  2  0  0  0  0  0  0
  179.1140  178.0230  144.5690 O   0  0  0  0  0  1  0  0  0  0  0  0
  179.4710  180.0510  143.3820 C   0  0  0  0  0  2  0  0  0  0  0  0
  178.9610  178.9460  141.3470 C   0  0  2  0  0  3  0  0  0  0  0  0
  179.4390  177.9130  142.2600 N   0  0  0  0  0  2  0  0  0  0  0  0
  1 14  1  0  0  0  0
  2  5  1  6  0  0  0
  2 13  1  0  0  0  0
  2  3  1  0  0  0  0
  3 19  2  0  0  0  0
  4 11  2  0  0  0  0
  6 17  1  0  0  0  0
  6  1  2  0  0  0  0
  7  3  1  0  0  0  0
  7  4  1  0  0  0  0
  8 23  1  1  0  0  0
  8 13  1  0  0  0  0
  9  1  1  0  0  0  0
 11 15  1  0  0  0  0
 12  8  1  0  0  0  0
 13 18  1  1  0  0  0
 14  5  2  0  0  0  0
 16 12  1  0  0  0  0
 16  5  1  0  0  0  0
 17 16  2  0  0  0  0
 18 10  2  0  0  0  0
 19 10  1  0  0  0  0
 19 20  1  0  0  0  0
 20 15  2  0  0  0  0
 21 22  2  0  0  0  0
 22 25  1  0  0  0  0
 22 23  1  0  0  0  0
 25 24  1  1  0  0  0
 26 28  1  1  0  0  0
 27 29  1  0  0  0  0
 29 26  1  0  0  0  0
 30 25  1  6  0  0  0
 30 27  1  0  0  0  0
 30 31  1  0  0  0  0
 31 26  1  0  0  0  0
M  END
>  <MODEL>
8

>  <REMARK>
 VINA RESULT:      -9.0      4.046      7.830
  Name = 
  3 active torsions:
  status: ('A' for Active; 'I' for Inactive)
    1  A    between atoms: C_9  and  C_22
    2  A    between atoms: C_15  and  N_23
    3  A    between atoms: C_19  and  C_22
                            x       y       z     vdW  Elec       q    Type
                         _______ _______ _______ _____ _____    ______ ____

>  <TORSDO>
F 3

$$$$
=
 OpenBabel11052413033D

 31 35  0  0  1  0  0  0  0  0999 V2000
  190.8570  176.7520  145.8670 C   0  0  0  0  0  0  0  0  0  0  0  0
  188.2560  178.2750  143.4770 C   0  0  1  0  0  3  0  0  0  0  0  0
  187.0110  178.4590  144.3560 C   0  0  0  0  0  0  0  0  0  0  0  0
  186.2520  177.5490  146.5280 C   0  0  0  0  0  3  0  0  0  0  0  0
  189.4170  177.4530  144.0310 C   0  0  0  0  0  0  0  0  0  0  0  0
  191.6690  176.0500  144.9770 C   0  0  0  0  0  3  0  0  0  0  0  0
  187.1450  178.5300  145.8470 C   0  0  0  0  0  2  0  0  0  0  0  0
  189.0560  177.6610  141.1690 C   0  0  2  0  0  3  0  0  0  0  0  0
  191.1740  176.7540  147.3200 C   0  0  0  0  0  1  0  0  0  0  0  0
  185.8000  179.0760  142.3100 C   0  0  0  0  0  3  0  0  0  0  0  0
  184.9260  177.6310  146.4650 C   0  0  0  0  0  3  0  0  0  0  0  0
  190.0380  176.8100  141.7550 O   0  0  0  0  0  0  0  0  0  0  0  0
  187.8420  177.7490  142.0880 C   0  0  2  0  0  3  0  0  0  0  0  0
  189.7500  177.4590  145.3940 C   0  0  0  0  0  3  0  0  0  0  0  0
  184.1940  178.6270  145.6640 C   0  0  0  0  0  3  0  0  0  0  0  0
  190.2770  176.7810  143.1320 C   0  0  0  0  0  0  0  0  0  0  0  0
  191.3820  176.0690  143.6110 C   0  0  0  0  0  3  0  0  0  0  0  0
  186.7530  178.6010  141.5090 C   0  0  0  0  0  3  0  0  0  0  0  0
  185.8520  178.8590  143.7710 C   0  0  0  0  0  0  0  0  0  0  0  0
  184.6030  179.1640  144.5070 C   0  0  0  0  0  3  0  0  0  0  0  0
  189.0550  179.1250  138.7210 O   0  0  0  0  0  0  0  0  0  0  0  0
  188.7010  177.9150  138.6780 C   0  0  0  0  0  0  0  0  0  0  0  0
  188.6700  177.1280  139.8690 N   0  0  0  0  0  2  0  0  0  0  0  0
  188.4610  178.1970  136.3260 O   0  0  0  0  0  1  0  0  0  0  0  0
  188.3440  177.2780  137.3740 C   0  0  1  0  0  3  0  0  0  0  0  0
  189.0940  174.3160  135.5110 C   0  0  2  0  0  3  0  0  0  0  0  0
  190.3070  176.2690  136.1300 C   0  0  0  0  0  2  0  0  0  0  0  0
  189.2180  172.9510  135.7690 O   0  0  0  0  0  1  0  0  0  0  0  0
  190.4660  174.9470  135.4370 C   0  0  0  0  0  2  0  0  0  0  0  0
  189.1810  176.0250  137.1130 C   0  0  2  0  0  3  0  0  0  0  0  0
  188.3420  174.9560  136.5850 N   0  0  0  0  0  2  0  0  0  0  0  0
  1  9  1  0  0  0  0
  2  5  1  1  0  0  0
  2  3  1  0  0  0  0
  3  7  1  0  0  0  0
  5 14  2  0  0  0  0
  6  1  2  0  0  0  0
  7  4  1  0  0  0  0
  8 23  1  6  0  0  0
  8 12  1  0  0  0  0
  8 13  1  0  0  0  0
 10 19  1  0  0  0  0
 11  4  2  0  0  0  0
 12 16  1  0  0  0  0
 13 18  1  6  0  0  0
 13  2  1  0  0  0  0
 14  1  1  0  0  0  0
 15 11  1  0  0  0  0
 16 17  2  0  0  0  0
 16  5  1  0  0  0  0
 17  6  1  0  0  0  0
 18 10  2  0  0  0  0
 19  3  2  0  0  0  0
 19 20  1  0  0  0  0
 20 15  2  0  0  0  0
 22 21  2  0  0  0  0
 22 23  1  0  0  0  0
 25 24  1  6  0  0  0
 25 22  1  0  0  0  0
 26 28  1  1  0  0  0
 26 31  1  0  0  0  0
 27 30  1  0  0  0  0
 29 26  1  0  0  0  0
 29 27  1  0  0  0  0
 30 25  1  6  0  0  0
 31 30  1  0  0  0  0
M  END
>  <MODEL>
9

>  <REMARK>
 VINA RESULT:      -8.9      1.550      4.265
  Name = 
  3 active torsions:
  status: ('A' for Active; 'I' for Inactive)
    1  A    between atoms: C_9  and  C_22
    2  A    between atoms: C_15  and  N_23
    3  A    between atoms: C_19  and  C_22
                            x       y       z     vdW  Elec       q    Type
                         _______ _______ _______ _____ _____    ______ ____

>  <TORSDO>
F 3

$$$$
