=
 OpenBabel11052413443D

 27 31  0  0  1  0  0  0  0  0999 V2000
  185.3550  178.8630  145.0570 C   0  0  0  0  0  3  0  0  0  0  0  0
  186.5970  178.2390  143.0110 C   0  0  0  0  0  0  0  0  0  0  0  0
  187.8890  177.1740  144.8650 C   0  0  0  0  0  3  0  0  0  0  0  0
  189.6430  177.7590  140.5100 N   0  0  0  0  0  0  0  0  0  0  0  0
  191.8520  177.5770  141.3820 N   0  0  0  0  0  1  0  0  0  0  0  0
  186.5700  178.9090  141.6770 C   0  0  0  0  0  3  0  0  0  0  0  0
  189.9740  176.7790  142.6320 N   0  0  0  0  0  0  0  0  0  0  0  0
  188.6190  177.5490  148.0270 C   0  0  0  0  0  2  0  0  0  0  0  0
  189.2550  175.5070  142.6100 C   0  0  0  0  0  1  0  0  0  0  0  0
  188.2480  179.0170  148.2530 C   0  0  0  0  0  2  0  0  0  0  0  0
  189.0510  177.9270  142.7180 C   0  0  1  0  0  3  0  0  0  0  0  0
  185.3170  178.0700  143.7930 C   0  0  2  0  0  3  0  0  0  0  0  0
  190.5550  176.9280  141.2860 C   0  0  1  0  0  3  0  0  0  0  0  0
  188.8180  178.3110  141.3200 C   0  0  0  0  0  0  0  0  0  0  0  0
  186.1980  178.5990  146.0550 C   0  0  0  0  0  0  0  0  0  0  0  0
  187.7640  177.7560  143.5070 C   0  0  0  0  0  0  0  0  0  0  0  0
  187.5780  176.7680  147.2220 C   0  0  0  0  0  2  0  0  0  0  0  0
  187.6070  178.9260  140.8940 N   0  0  0  0  0  0  0  0  0  0  0  0
  186.7460  179.1890  148.4440 C   0  0  0  0  0  2  0  0  0  0  0  0
  186.0930  179.4150  147.1950 O   0  0  0  0  0  0  0  0  0  0  0  0
  187.1950  177.4870  145.9710 C   0  0  0  0  0  0  0  0  0  0  0  0
  181.6720  178.7560  141.6100 C   0  0  0  0  0  3  0  0  0  0  0  0
  184.0580  178.3160  143.0100 C   0  0  0  0  0  0  0  0  0  0  0  0
  183.9530  177.9490  141.6590 C   0  0  0  0  0  3  0  0  0  0  0  0
  182.7620  178.1710  140.9600 C   0  0  0  0  0  3  0  0  0  0  0  0
  181.7700  179.1170  142.9560 C   0  0  0  0  0  3  0  0  0  0  0  0
  182.9600  178.8960  143.6550 C   0  0  0  0  0  3  0  0  0  0  0  0
  1 15  2  0  0  0  0
  2 16  2  0  0  0  0
  2 12  1  0  0  0  0
  3 21  2  0  0  0  0
  4 13  1  0  0  0  0
  4 14  2  0  0  0  0
  6  2  1  0  0  0  0
  7 11  1  0  0  0  0
  8 10  1  0  0  0  0
  9  7  1  0  0  0  0
 10 19  1  0  0  0  0
 11 14  1  6  0  0  0
 11 16  1  0  0  0  0
 12 23  1  6  0  0  0
 12  1  1  0  0  0  0
 13  5  1  1  0  0  0
 13  7  1  0  0  0  0
 15 20  1  0  0  0  0
 16  3  1  0  0  0  0
 17  8  1  0  0  0  0
 18 14  1  0  0  0  0
 18  6  2  0  0  0  0
 20 19  1  0  0  0  0
 21 15  1  0  0  0  0
 21 17  1  0  0  0  0
 22 26  1  0  0  0  0
 23 27  1  0  0  0  0
 24 23  2  0  0  0  0
 25 22  2  0  0  0  0
 25 24  1  0  0  0  0
 26 27  2  0  0  0  0
M  END
>  <MODEL>
1

>  <REMARK>
 VINA RESULT:      -8.8      0.000      0.000
  Name = 
  1 active torsions:
  status: ('A' for Active; 'I' for Inactive)
    1  A    between atoms: C_9  and  C_15
                            x       y       z     vdW  Elec       q    Type
                         _______ _______ _______ _____ _____    ______ ____

>  <TORSDO>
F 1

$$$$
=
 OpenBabel11052413443D

 27 31  0  0  1  0  0  0  0  0999 V2000
  191.5410  176.9280  139.7800 C   0  0  0  0  0  3  0  0  0  0  0  0
  189.1090  177.1470  139.3870 C   0  0  0  0  0  0  0  0  0  0  0  0
  189.8760  175.5480  137.6260 C   0  0  0  0  0  3  0  0  0  0  0  0
  185.6930  177.7530  137.4550 N   0  0  0  0  0  0  0  0  0  0  0  0
  185.5980  177.3760  135.1050 N   0  0  0  0  0  1  0  0  0  0  0  0
  188.2020  178.2520  139.8180 C   0  0  0  0  0  3  0  0  0  0  0  0
  187.0640  176.0890  136.4910 N   0  0  0  0  0  0  0  0  0  0  0  0
  192.4840  174.7900  135.8120 C   0  0  0  0  0  2  0  0  0  0  0  0
  186.8490  174.8780  137.2810 C   0  0  0  0  0  1  0  0  0  0  0  0
  193.3320  176.0570  135.9530 C   0  0  0  0  0  2  0  0  0  0  0  0
  187.8730  177.0820  137.2240 C   0  0  1  0  0  3  0  0  0  0  0  0
  190.1800  176.6450  140.3230 C   0  0  2  0  0  3  0  0  0  0  0  0
  185.7450  176.7420  136.4050 C   0  0  1  0  0  3  0  0  0  0  0  0
  186.8830  177.9340  137.8950 C   0  0  0  0  0  0  0  0  0  0  0  0
  192.0110  176.3620  138.6680 C   0  0  0  0  0  0  0  0  0  0  0  0
  188.9520  176.5750  138.1660 C   0  0  0  0  0  0  0  0  0  0  0  0
  191.8810  174.3030  137.1310 C   0  0  0  0  0  2  0  0  0  0  0  0
  187.1620  178.6010  139.1210 N   0  0  0  0  0  0  0  0  0  0  0  0
  194.0910  176.0750  137.2730 C   0  0  0  0  0  2  0  0  0  0  0  0
  193.3230  176.7060  138.2990 O   0  0  0  0  0  0  0  0  0  0  0  0
  191.1900  175.4060  137.8620 C   0  0  0  0  0  0  0  0  0  0  0  0
  189.8440  177.9330  144.4170 C   0  0  0  0  0  3  0  0  0  0  0  0
  190.0370  177.0960  141.7500 C   0  0  0  0  0  0  0  0  0  0  0  0
  188.9750  176.6550  142.5540 C   0  0  0  0  0  3  0  0  0  0  0  0
  188.8780  177.0740  143.8850 C   0  0  0  0  0  3  0  0  0  0  0  0
  190.9070  178.3690  143.6210 C   0  0  0  0  0  3  0  0  0  0  0  0
  191.0040  177.9500  142.2910 C   0  0  0  0  0  3  0  0  0  0  0  0
  1 12  1  0  0  0  0
  2  6  1  0  0  0  0
  2 12  1  0  0  0  0
  3 21  2  0  0  0  0
  3 16  1  0  0  0  0
  4 14  2  0  0  0  0
  7 11  1  0  0  0  0
  7  9  1  0  0  0  0
  8 10  1  0  0  0  0
  8 17  1  0  0  0  0
 10 19  1  0  0  0  0
 11 14  1  1  0  0  0
 11 16  1  0  0  0  0
 12 23  1  1  0  0  0
 13  5  1  6  0  0  0
 13  7  1  0  0  0  0
 13  4  1  0  0  0  0
 14 18  1  0  0  0  0
 15  1  2  0  0  0  0
 16  2  2  0  0  0  0
 17 21  1  0  0  0  0
 18  6  2  0  0  0  0
 19 20  1  0  0  0  0
 20 15  1  0  0  0  0
 21 15  1  0  0  0  0
 23 27  2  0  0  0  0
 23 24  1  0  0  0  0
 24 25  2  0  0  0  0
 25 22  1  0  0  0  0
 26 22  2  0  0  0  0
 27 26  1  0  0  0  0
M  END
>  <MODEL>
2

>  <REMARK>
 VINA RESULT:      -8.5      4.545      8.255
  Name = 
  1 active torsions:
  status: ('A' for Active; 'I' for Inactive)
    1  A    between atoms: C_9  and  C_15
                            x       y       z     vdW  Elec       q    Type
                         _______ _______ _______ _____ _____    ______ ____

>  <TORSDO>
F 1

$$$$
=
 OpenBabel11052413443D

 27 31  0  0  1  0  0  0  0  0999 V2000
  187.1950  177.7750  142.7260 C   0  0  0  0  0  3  0  0  0  0  0  0
  188.9050  177.5030  140.9590 C   0  0  0  0  0  0  0  0  0  0  0  0
  186.9970  178.6280  139.8020 C   0  0  0  0  0  3  0  0  0  0  0  0
  190.5280  176.5040  137.4760 N   0  0  0  0  0  0  0  0  0  0  0  0
  189.1370  176.3150  135.5520 N   0  0  0  0  0  1  0  0  0  0  0  0
  190.0490  176.5440  140.9250 C   0  0  0  0  0  3  0  0  0  0  0  0
  188.6120  177.8730  137.2900 N   0  0  0  0  0  0  0  0  0  0  0  0
  183.7430  178.8970  139.8920 C   0  0  0  0  0  2  0  0  0  0  0  0
  189.0630  179.2400  137.5460 C   0  0  0  0  0  1  0  0  0  0  0  0
  183.3610  177.6890  140.7500 C   0  0  0  0  0  2  0  0  0  0  0  0
  188.5720  177.0710  138.5280 C   0  0  1  0  0  3  0  0  0  0  0  0
  188.5440  178.1980  142.2500 C   0  0  2  0  0  3  0  0  0  0  0  0
  189.6990  177.2360  136.5250 C   0  0  1  0  0  3  0  0  0  0  0  0
  189.8850  176.4160  138.5810 C   0  0  0  0  0  0  0  0  0  0  0  0
  186.0710  178.0540  142.0650 C   0  0  0  0  0  0  0  0  0  0  0  0
  188.2070  177.7720  139.8260 C   0  0  0  0  0  0  0  0  0  0  0  0
  184.9290  179.6920  140.4420 C   0  0  0  0  0  2  0  0  0  0  0  0
  190.5040  176.0550  139.8110 N   0  0  0  0  0  0  0  0  0  0  0  0
  183.5570  177.9730  142.2330 C   0  0  0  0  0  2  0  0  0  0  0  0
  184.8730  177.6140  142.6550 O   0  0  0  0  0  0  0  0  0  0  0  0
  186.0830  178.8030  140.7700 C   0  0  0  0  0  0  0  0  0  0  0  0
  191.4600  177.9100  145.4030 C   0  0  0  0  0  3  0  0  0  0  0  0
  189.5810  178.1000  143.3330 C   0  0  0  0  0  0  0  0  0  0  0  0
  190.7430  178.8880  143.3090 C   0  0  0  0  0  3  0  0  0  0  0  0
  191.6810  178.7910  144.3410 C   0  0  0  0  0  3  0  0  0  0  0  0
  190.3020  177.1280  145.4350 C   0  0  0  0  0  3  0  0  0  0  0  0
  189.3640  177.2240  144.4030 C   0  0  0  0  0  3  0  0  0  0  0  0
  2 12  1  0  0  0  0
  3 16  1  0  0  0  0
  3 21  2  0  0  0  0
  4 14  2  0  0  0  0
  6  2  1  0  0  0  0
  7  9  1  0  0  0  0
  7 11  1  0  0  0  0
  8 17  1  0  0  0  0
  8 10  1  0  0  0  0
 10 19  1  0  0  0  0
 11 14  1  1  0  0  0
 11 16  1  0  0  0  0
 12  1  1  0  0  0  0
 12 23  1  1  0  0  0
 13  5  1  6  0  0  0
 13  7  1  0  0  0  0
 13  4  1  0  0  0  0
 14 18  1  0  0  0  0
 15 20  1  0  0  0  0
 15  1  2  0  0  0  0
 16  2  2  0  0  0  0
 17 21  1  0  0  0  0
 18  6  2  0  0  0  0
 19 20  1  0  0  0  0
 21 15  1  0  0  0  0
 22 26  1  0  0  0  0
 23 27  1  0  0  0  0
 24 23  2  0  0  0  0
 24 25  1  0  0  0  0
 25 22  2  0  0  0  0
 27 26  2  0  0  0  0
M  END
>  <MODEL>
3

>  <REMARK>
 VINA RESULT:      -7.7      2.668      6.260
  Name = 
  1 active torsions:
  status: ('A' for Active; 'I' for Inactive)
    1  A    between atoms: C_9  and  C_15
                            x       y       z     vdW  Elec       q    Type
                         _______ _______ _______ _____ _____    ______ ____

>  <TORSDO>
F 1

$$$$
=
 OpenBabel11052413443D

 27 31  0  0  1  0  0  0  0  0999 V2000
  186.0210  177.9820  140.3800 C   0  0  0  0  0  3  0  0  0  0  0  0
  187.2170  177.8590  142.5420 C   0  0  0  0  0  0  0  0  0  0  0  0
  189.0100  178.3530  140.8730 C   0  0  0  0  0  3  0  0  0  0  0  0
  189.9200  176.7750  145.2400 N   0  0  0  0  0  0  0  0  0  0  0  0
  192.0550  176.0110  144.5110 N   0  0  0  0  0  1  0  0  0  0  0  0
  186.7760  177.1870  143.8000 C   0  0  0  0  0  3  0  0  0  0  0  0
  190.8420  177.6380  143.2440 N   0  0  0  0  0  0  0  0  0  0  0  0
  189.7890  177.8930  137.7350 C   0  0  0  0  0  2  0  0  0  0  0  0
  190.7540  179.0930  143.3510 C   0  0  0  0  0  1  0  0  0  0  0  0
  188.8340  176.7610  137.3460 C   0  0  0  0  0  2  0  0  0  0  0  0
  189.5210  177.0280  142.9970 C   0  0  1  0  0  3  0  0  0  0  0  0
  186.2190  178.6280  141.7110 C   0  0  2  0  0  3  0  0  0  0  0  0
  191.1720  177.1620  144.5990 C   0  0  1  0  0  3  0  0  0  0  0  0
  189.0160  176.7000  144.3360 C   0  0  0  0  0  0  0  0  0  0  0  0
  186.9830  177.9070  139.4590 C   0  0  0  0  0  0  0  0  0  0  0  0
  188.5180  177.8030  142.1590 C   0  0  0  0  0  0  0  0  0  0  0  0
  189.1270  179.0030  138.5530 C   0  0  0  0  0  2  0  0  0  0  0  0
  187.6240  176.6620  144.6330 N   0  0  0  0  0  0  0  0  0  0  0  0
  187.4340  177.2860  137.0580 C   0  0  0  0  0  2  0  0  0  0  0  0
  186.6360  177.2960  138.2420 O   0  0  0  0  0  0  0  0  0  0  0  0
  188.3540  178.4510  139.7050 C   0  0  0  0  0  0  0  0  0  0  0  0
  182.5110  179.4400  143.7410 C   0  0  0  0  0  3  0  0  0  0  0  0
  184.9130  178.9180  142.3970 C   0  0  0  0  0  0  0  0  0  0  0  0
  183.6840  178.5990  141.7980 C   0  0  0  0  0  3  0  0  0  0  0  0
  182.4860  178.8610  142.4680 C   0  0  0  0  0  3  0  0  0  0  0  0
  183.7320  179.7530  144.3430 C   0  0  0  0  0  3  0  0  0  0  0  0
  184.9310  179.4910  143.6730 C   0  0  0  0  0  3  0  0  0  0  0  0
  1 12  1  0  0  0  0
  2  6  1  0  0  0  0
  3 16  1  0  0  0  0
  6 18  2  0  0  0  0
  7  9  1  0  0  0  0
  7 13  1  0  0  0  0
  8 17  1  0  0  0  0
 10  8  1  0  0  0  0
 11 16  1  1  0  0  0
 11  7  1  0  0  0  0
 11 14  1  0  0  0  0
 12 23  1  1  0  0  0
 12  2  1  0  0  0  0
 13  5  1  6  0  0  0
 13  4  1  0  0  0  0
 14 18  1  0  0  0  0
 14  4  2  0  0  0  0
 15 21  1  0  0  0  0
 15  1  2  0  0  0  0
 16  2  2  0  0  0  0
 17 21  1  0  0  0  0
 19 10  1  0  0  0  0
 19 20  1  0  0  0  0
 20 15  1  0  0  0  0
 21  3  2  0  0  0  0
 22 26  1  0  0  0  0
 23 27  1  0  0  0  0
 24 23  2  0  0  0  0
 24 25  1  0  0  0  0
 25 22  2  0  0  0  0
 27 26  2  0  0  0  0
M  END
>  <MODEL>
4

>  <REMARK>
 VINA RESULT:      -7.4      2.884      5.424
  Name = 
  1 active torsions:
  status: ('A' for Active; 'I' for Inactive)
    1  A    between atoms: C_9  and  C_15
                            x       y       z     vdW  Elec       q    Type
                         _______ _______ _______ _____ _____    ______ ____

>  <TORSDO>
F 1

$$$$
=
 OpenBabel11052413443D

 27 31  0  0  1  0  0  0  0  0999 V2000
  188.8330  176.8920  139.1510 C   0  0  0  0  0  3  0  0  0  0  0  0
  188.8780  177.3130  141.5880 C   0  0  0  0  0  0  0  0  0  0  0  0
  191.2810  177.3790  140.9060 C   0  0  0  0  0  3  0  0  0  0  0  0
  189.8930  176.9420  145.4080 N   0  0  0  0  0  0  0  0  0  0  0  0
  192.0190  176.0250  145.9680 N   0  0  0  0  0  1  0  0  0  0  0  0
  187.8340  176.9760  142.6000 C   0  0  0  0  0  3  0  0  0  0  0  0
  191.7220  177.2820  143.9530 N   0  0  0  0  0  0  0  0  0  0  0  0
  193.3560  176.1520  138.7010 C   0  0  0  0  0  2  0  0  0  0  0  0
  191.7650  178.7170  143.6820 C   0  0  0  0  0  1  0  0  0  0  0  0
  192.5610  174.9580  138.1680 C   0  0  0  0  0  2  0  0  0  0  0  0
  190.6010  176.6270  143.2510 C   0  0  1  0  0  3  0  0  0  0  0  0
  188.4710  177.8490  140.2370 C   0  0  2  0  0  3  0  0  0  0  0  0
  191.3350  177.1590  145.3700 C   0  0  1  0  0  3  0  0  0  0  0  0
  189.5030  176.6420  144.2250 C   0  0  0  0  0  0  0  0  0  0  0  0
  190.0940  176.5910  138.8380 C   0  0  0  0  0  0  0  0  0  0  0  0
  190.1930  177.1670  141.8910 C   0  0  0  0  0  0  0  0  0  0  0  0
  192.5260  177.4300  138.8410 C   0  0  0  0  0  2  0  0  0  0  0  0
  188.1360  176.6770  143.8280 N   0  0  0  0  0  0  0  0  0  0  0  0
  191.5220  175.3920  137.1420 C   0  0  0  0  0  2  0  0  0  0  0  0
  190.2760  175.6950  137.7710 O   0  0  0  0  0  0  0  0  0  0  0  0
  191.2520  177.1820  139.5780 C   0  0  0  0  0  0  0  0  0  0  0  0
  184.3870  179.1660  139.8890 C   0  0  0  0  0  3  0  0  0  0  0  0
  187.0400  178.2990  140.1390 C   0  0  0  0  0  0  0  0  0  0  0  0
  186.3510  178.7990  141.2550 C   0  0  0  0  0  3  0  0  0  0  0  0
  185.0270  179.2300  141.1300 C   0  0  0  0  0  3  0  0  0  0  0  0
  185.0710  178.6740  138.7740 C   0  0  0  0  0  3  0  0  0  0  0  0
  186.3950  178.2430  138.8980 C   0  0  0  0  0  3  0  0  0  0  0  0
  1 12  1  0  0  0  0
  2 16  2  0  0  0  0
  2  6  1  0  0  0  0
  3 16  1  0  0  0  0
  6 18  2  0  0  0  0
  7 13  1  0  0  0  0
  8 17  1  0  0  0  0
  9  7  1  0  0  0  0
 10  8  1  0  0  0  0
 11 16  1  6  0  0  0
 11  7  1  0  0  0  0
 11 14  1  0  0  0  0
 12 23  1  1  0  0  0
 12  2  1  0  0  0  0
 13  4  1  0  0  0  0
 13  5  1  6  0  0  0
 14  4  2  0  0  0  0
 15  1  2  0  0  0  0
 15 21  1  0  0  0  0
 17 21  1  0  0  0  0
 18 14  1  0  0  0  0
 19 20  1  0  0  0  0
 19 10  1  0  0  0  0
 20 15  1  0  0  0  0
 21  3  2  0  0  0  0
 22 25  1  0  0  0  0
 23 24  1  0  0  0  0
 25 24  2  0  0  0  0
 26 27  1  0  0  0  0
 26 22  2  0  0  0  0
 27 23  2  0  0  0  0
M  END
>  <MODEL>
5

>  <REMARK>
 VINA RESULT:      -7.4      3.620      6.393
  Name = 
  1 active torsions:
  status: ('A' for Active; 'I' for Inactive)
    1  A    between atoms: C_9  and  C_15
                            x       y       z     vdW  Elec       q    Type
                         _______ _______ _______ _____ _____    ______ ____

>  <TORSDO>
F 1

$$$$
=
 OpenBabel11052413443D

 27 31  0  0  1  0  0  0  0  0999 V2000
  188.1580  178.5300  140.7380 C   0  0  0  0  0  3  0  0  0  0  0  0
  185.8540  178.4170  141.6320 C   0  0  0  0  0  0  0  0  0  0  0  0
  185.6240  177.7180  139.2430 C   0  0  0  0  0  3  0  0  0  0  0  0
  181.9400  179.0190  141.9120 N   0  0  0  0  0  0  0  0  0  0  0  0
  180.6860  179.4870  139.9410 N   0  0  0  0  0  1  0  0  0  0  0  0
  185.2970  179.1080  142.8320 C   0  0  0  0  0  3  0  0  0  0  0  0
  182.6270  178.0910  139.8520 N   0  0  0  0  0  0  0  0  0  0  0  0
  186.9780  178.1520  136.3030 C   0  0  0  0  0  2  0  0  0  0  0  0
  182.8140  176.6610  140.0920 C   0  0  0  0  0  1  0  0  0  0  0  0
  187.8030  179.4210  136.5320 C   0  0  0  0  0  2  0  0  0  0  0  0
  183.7080  178.8920  140.4590 C   0  0  1  0  0  3  0  0  0  0  0  0
  187.2410  177.8250  141.6810 C   0  0  2  0  0  3  0  0  0  0  0  0
  181.4500  178.4740  140.6500 C   0  0  1  0  0  3  0  0  0  0  0  0
  183.1930  179.2510  141.7860 C   0  0  0  0  0  0  0  0  0  0  0  0
  188.0070  178.4930  139.4140 C   0  0  0  0  0  0  0  0  0  0  0  0
  185.1040  178.2950  140.5060 C   0  0  0  0  0  0  0  0  0  0  0  0
  187.1010  177.1260  137.4310 C   0  0  0  0  0  2  0  0  0  0  0  0
  184.0540  179.4800  142.8970 N   0  0  0  0  0  0  0  0  0  0  0  0
  189.1180  179.1120  137.2380 C   0  0  0  0  0  2  0  0  0  0  0  0
  188.9680  179.1840  138.6560 O   0  0  0  0  0  0  0  0  0  0  0  0
  186.8800  177.7490  138.7700 C   0  0  0  0  0  0  0  0  0  0  0  0
  188.9950  177.4650  145.5960 C   0  0  0  0  0  3  0  0  0  0  0  0
  187.8310  177.7060  143.0580 C   0  0  0  0  0  0  0  0  0  0  0  0
  187.0880  177.1880  144.1310 C   0  0  0  0  0  3  0  0  0  0  0  0
  187.6690  177.0690  145.3970 C   0  0  0  0  0  3  0  0  0  0  0  0
  189.7400  177.9750  144.5300 C   0  0  0  0  0  3  0  0  0  0  0  0
  189.1590  178.0940  143.2630 C   0  0  0  0  0  3  0  0  0  0  0  0
  1 12  1  0  0  0  0
  2 12  1  0  0  0  0
  2  6  1  0  0  0  0
  3 16  1  0  0  0  0
  6 18  2  0  0  0  0
  7  9  1  0  0  0  0
  7 11  1  0  0  0  0
  7 13  1  0  0  0  0
  8 10  1  0  0  0  0
  8 17  1  0  0  0  0
 10 19  1  0  0  0  0
 11 16  1  1  0  0  0
 11 14  1  0  0  0  0
 12 23  1  1  0  0  0
 13  5  1  6  0  0  0
 13  4  1  0  0  0  0
 14  4  2  0  0  0  0
 14 18  1  0  0  0  0
 15  1  2  0  0  0  0
 16  2  2  0  0  0  0
 17 21  1  0  0  0  0
 19 20  1  0  0  0  0
 20 15  1  0  0  0  0
 21  3  2  0  0  0  0
 21 15  1  0  0  0  0
 23 27  2  0  0  0  0
 23 24  1  0  0  0  0
 24 25  2  0  0  0  0
 25 22  1  0  0  0  0
 26 22  2  0  0  0  0
 27 26  1  0  0  0  0
M  END
>  <MODEL>
6

>  <REMARK>
 VINA RESULT:      -6.7      3.567      7.478
  Name = 
  1 active torsions:
  status: ('A' for Active; 'I' for Inactive)
    1  A    between atoms: C_9  and  C_15
                            x       y       z     vdW  Elec       q    Type
                         _______ _______ _______ _____ _____    ______ ____

>  <TORSDO>
F 1

$$$$
=
 OpenBabel11052413443D

 27 31  0  0  1  0  0  0  0  0999 V2000
  185.1970  178.7000  139.6500 C   0  0  0  0  0  3  0  0  0  0  0  0
  182.7670  178.9300  139.2490 C   0  0  0  0  0  0  0  0  0  0  0  0
  183.5710  177.5020  137.3630 C   0  0  0  0  0  3  0  0  0  0  0  0
  179.3670  179.6720  137.3400 N   0  0  0  0  0  0  0  0  0  0  0  0
  179.3010  179.5060  134.9640 N   0  0  0  0  0  1  0  0  0  0  0  0
  181.8440  179.9830  139.7670 C   0  0  0  0  0  3  0  0  0  0  0  0
  180.7660  178.1140  136.2470 N   0  0  0  0  0  0  0  0  0  0  0  0
  186.2070  176.9350  135.5190 C   0  0  0  0  0  2  0  0  0  0  0  0
  180.5560  176.8350  136.9230 C   0  0  0  0  0  1  0  0  0  0  0  0
  187.0390  178.1920  135.7830 C   0  0  0  0  0  2  0  0  0  0  0  0
  181.5560  179.0460  137.0750 C   0  0  1  0  0  3  0  0  0  0  0  0
  183.8340  178.3560  140.1500 C   0  0  2  0  0  3  0  0  0  0  0  0
  179.4420  178.7600  136.2040 C   0  0  1  0  0  3  0  0  0  0  0  0
  180.5490  179.8250  137.8080 C   0  0  0  0  0  0  0  0  0  0  0  0
  185.6860  178.2400  138.4980 C   0  0  0  0  0  0  0  0  0  0  0  0
  182.6300  178.4670  137.9800 C   0  0  0  0  0  0  0  0  0  0  0  0
  185.5950  176.3260  136.7820 C   0  0  0  0  0  2  0  0  0  0  0  0
  180.8090  180.3830  139.0920 N   0  0  0  0  0  0  0  0  0  0  0  0
  187.7840  178.1000  137.1080 C   0  0  0  0  0  2  0  0  0  0  0  0
  186.9980  178.6280  138.1760 O   0  0  0  0  0  0  0  0  0  0  0  0
  184.8840  177.3520  137.6000 C   0  0  0  0  0  0  0  0  0  0  0  0
  183.4300  179.2380  144.3440 C   0  0  0  0  0  3  0  0  0  0  0  0
  183.6710  178.6760  141.6090 C   0  0  0  0  0  0  0  0  0  0  0  0
  182.4140  178.6280  142.2330 C   0  0  0  0  0  3  0  0  0  0  0  0
  182.2940  178.9100  143.5970 C   0  0  0  0  0  3  0  0  0  0  0  0
  184.6840  179.2820  143.7280 C   0  0  0  0  0  3  0  0  0  0  0  0
  184.8040  179.0000  142.3640 C   0  0  0  0  0  3  0  0  0  0  0  0
  1 12  1  0  0  0  0
  2  6  1  0  0  0  0
  2 12  1  0  0  0  0
  3 21  2  0  0  0  0
  3 16  1  0  0  0  0
  4 14  2  0  0  0  0
  7  9  1  0  0  0  0
  7 11  1  0  0  0  0
  8 10  1  0  0  0  0
  8 17  1  0  0  0  0
 10 19  1  0  0  0  0
 11 14  1  1  0  0  0
 11 16  1  0  0  0  0
 12 23  1  1  0  0  0
 13  5  1  6  0  0  0
 13  7  1  0  0  0  0
 13  4  1  0  0  0  0
 14 18  1  0  0  0  0
 15  1  2  0  0  0  0
 16  2  2  0  0  0  0
 17 21  1  0  0  0  0
 18  6  2  0  0  0  0
 19 20  1  0  0  0  0
 20 15  1  0  0  0  0
 21 15  1  0  0  0  0
 23 24  2  0  0  0  0
 23 27  1  0  0  0  0
 24 25  1  0  0  0  0
 25 22  2  0  0  0  0
 26 22  1  0  0  0  0
 27 26  2  0  0  0  0
M  END
>  <MODEL>
7

>  <REMARK>
 VINA RESULT:      -6.7      5.276      8.579
  Name = 
  1 active torsions:
  status: ('A' for Active; 'I' for Inactive)
    1  A    between atoms: C_9  and  C_15
                            x       y       z     vdW  Elec       q    Type
                         _______ _______ _______ _____ _____    ______ ____

>  <TORSDO>
F 1

$$$$
=
 OpenBabel11052413443D

 27 31  0  0  1  0  0  0  0  0999 V2000
  191.1630  176.2510  139.3560 C   0  0  0  0  0  3  0  0  0  0  0  0
  189.8790  175.5460  137.3630 C   0  0  0  0  0  0  0  0  0  0  0  0
  188.3620  177.1460  138.5400 C   0  0  0  0  0  3  0  0  0  0  0  0
  186.8620  174.1750  135.1760 N   0  0  0  0  0  0  0  0  0  0  0  0
  184.6360  174.3750  136.0010 N   0  0  0  0  0  1  0  0  0  0  0  0
  190.0650  174.3190  136.5340 C   0  0  0  0  0  3  0  0  0  0  0  0
  186.2970  176.0050  136.5580 N   0  0  0  0  0  0  0  0  0  0  0  0
  187.6340  178.2700  141.5190 C   0  0  0  0  0  2  0  0  0  0  0  0
  186.7650  177.2010  135.8600 C   0  0  0  0  0  1  0  0  0  0  0  0
  188.2690  177.2010  142.4110 C   0  0  0  0  0  2  0  0  0  0  0  0
  187.4180  175.2340  137.1310 C   0  0  1  0  0  3  0  0  0  0  0  0
  191.0830  176.3040  137.8670 C   0  0  2  0  0  3  0  0  0  0  0  0
  185.7890  175.1070  135.5050 C   0  0  1  0  0  3  0  0  0  0  0  0
  187.7540  174.2540  136.0910 C   0  0  0  0  0  0  0  0  0  0  0  0
  190.2600  176.8240  140.1520 C   0  0  0  0  0  0  0  0  0  0  0  0
  188.6290  175.9990  137.6390 C   0  0  0  0  0  0  0  0  0  0  0  0
  188.5300  178.7170  140.3610 C   0  0  0  0  0  2  0  0  0  0  0  0
  189.0700  173.7330  135.9380 N   0  0  0  0  0  0  0  0  0  0  0  0
  189.7710  177.4130  142.5540 C   0  0  0  0  0  2  0  0  0  0  0  0
  190.4870  176.7150  141.5350 O   0  0  0  0  0  0  0  0  0  0  0  0
  189.0730  177.5510  139.6030 C   0  0  0  0  0  0  0  0  0  0  0  0
  194.8480  175.2350  136.0730 C   0  0  0  0  0  3  0  0  0  0  0  0
  192.3850  175.9270  137.2180 C   0  0  0  0  0  0  0  0  0  0  0  0
  192.6850  176.3080  135.9000 C   0  0  0  0  0  3  0  0  0  0  0  0
  193.9130  175.9620  135.3290 C   0  0  0  0  0  3  0  0  0  0  0  0
  194.5560  174.8590  137.3870 C   0  0  0  0  0  3  0  0  0  0  0  0
  193.3280  175.2050  137.9580 C   0  0  0  0  0  3  0  0  0  0  0  0
  1 15  2  0  0  0  0
  2 16  2  0  0  0  0
  2 12  1  0  0  0  0
  3 21  2  0  0  0  0
  4 13  1  0  0  0  0
  4 14  2  0  0  0  0
  6  2  1  0  0  0  0
  7 11  1  0  0  0  0
  8 10  1  0  0  0  0
  9  7  1  0  0  0  0
 10 19  1  0  0  0  0
 11 14  1  6  0  0  0
 11 16  1  0  0  0  0
 12 23  1  6  0  0  0
 12  1  1  0  0  0  0
 13  5  1  1  0  0  0
 13  7  1  0  0  0  0
 15 20  1  0  0  0  0
 16  3  1  0  0  0  0
 17  8  1  0  0  0  0
 18 14  1  0  0  0  0
 18  6  2  0  0  0  0
 20 19  1  0  0  0  0
 21 15  1  0  0  0  0
 21 17  1  0  0  0  0
 22 26  1  0  0  0  0
 23 27  1  0  0  0  0
 24 23  2  0  0  0  0
 25 24  1  0  0  0  0
 25 22  2  0  0  0  0
 26 27  2  0  0  0  0
M  END
>  <MODEL>
8

>  <REMARK>
 VINA RESULT:      -6.6      5.061      8.776
  Name = 
  1 active torsions:
  status: ('A' for Active; 'I' for Inactive)
    1  A    between atoms: C_9  and  C_15
                            x       y       z     vdW  Elec       q    Type
                         _______ _______ _______ _____ _____    ______ ____

>  <TORSDO>
F 1

$$$$
=
 OpenBabel11052413443D

 27 31  0  0  1  0  0  0  0  0999 V2000
  184.9060  177.9040  143.0960 C   0  0  0  0  0  3  0  0  0  0  0  0
  187.3130  177.5640  142.6360 C   0  0  0  0  0  0  0  0  0  0  0  0
  186.4310  178.6260  140.5530 C   0  0  0  0  0  3  0  0  0  0  0  0
  190.6130  176.4220  140.7480 N   0  0  0  0  0  0  0  0  0  0  0  0
  190.5670  176.1400  138.3830 N   0  0  0  0  0  1  0  0  0  0  0  0
  188.2510  176.6110  143.3000 C   0  0  0  0  0  3  0  0  0  0  0  0
  189.1760  177.7710  139.4470 N   0  0  0  0  0  0  0  0  0  0  0  0
  183.7150  178.8820  138.7570 C   0  0  0  0  0  2  0  0  0  0  0  0
  189.4270  179.1500  139.8600 C   0  0  0  0  0  1  0  0  0  0  0  0
  182.8870  177.7100  139.2890 C   0  0  0  0  0  2  0  0  0  0  0  0
  188.4190  177.0230  140.4700 C   0  0  1  0  0  3  0  0  0  0  0  0
  186.2940  178.3130  143.4610 C   0  0  2  0  0  3  0  0  0  0  0  0
  190.4920  177.1070  139.4660 C   0  0  1  0  0  3  0  0  0  0  0  0
  189.4530  176.3790  141.2890 C   0  0  0  0  0  0  0  0  0  0  0  0
  184.3670  178.1480  141.9010 C   0  0  0  0  0  0  0  0  0  0  0  0
  187.3930  177.7790  141.2980 C   0  0  0  0  0  0  0  0  0  0  0  0
  184.3910  179.7060  139.8540 C   0  0  0  0  0  2  0  0  0  0  0  0
  189.2510  176.0750  142.6660 N   0  0  0  0  0  0  0  0  0  0  0  0
  182.2060  178.0600  140.6060 C   0  0  0  0  0  2  0  0  0  0  0  0
  183.0380  177.7280  141.7180 O   0  0  0  0  0  0  0  0  0  0  0  0
  185.1320  178.8390  140.8180 C   0  0  0  0  0  0  0  0  0  0  0  0
  186.9130  178.2480  147.7200 C   0  0  0  0  0  3  0  0  0  0  0  0
  186.5250  178.2690  144.9450 C   0  0  0  0  0  0  0  0  0  0  0  0
  187.7650  177.8900  145.4830 C   0  0  0  0  0  3  0  0  0  0  0  0
  187.9570  177.8780  146.8680 C   0  0  0  0  0  3  0  0  0  0  0  0
  185.6780  178.6310  147.1890 C   0  0  0  0  0  3  0  0  0  0  0  0
  185.4860  178.6430  145.8040 C   0  0  0  0  0  3  0  0  0  0  0  0
  1 12  1  0  0  0  0
  2  6  1  0  0  0  0
  2 12  1  0  0  0  0
  3 21  2  0  0  0  0
  3 16  1  0  0  0  0
  4 14  2  0  0  0  0
  7 13  1  0  0  0  0
  7  9  1  0  0  0  0
  7 11  1  0  0  0  0
  8 10  1  0  0  0  0
  8 17  1  0  0  0  0
 10 19  1  0  0  0  0
 11 14  1  1  0  0  0
 11 16  1  0  0  0  0
 12 23  1  1  0  0  0
 13  5  1  6  0  0  0
 13  4  1  0  0  0  0
 14 18  1  0  0  0  0
 15  1  2  0  0  0  0
 16  2  2  0  0  0  0
 17 21  1  0  0  0  0
 18  6  2  0  0  0  0
 19 20  1  0  0  0  0
 20 15  1  0  0  0  0
 21 15  1  0  0  0  0
 23 24  2  0  0  0  0
 23 27  1  0  0  0  0
 24 25  1  0  0  0  0
 25 22  2  0  0  0  0
 26 22  1  0  0  0  0
 27 26  2  0  0  0  0
M  END
>  <MODEL>
9

>  <REMARK>
 VINA RESULT:      -6.6      1.917      5.466
  Name = 
  1 active torsions:
  status: ('A' for Active; 'I' for Inactive)
    1  A    between atoms: C_9  and  C_15
                            x       y       z     vdW  Elec       q    Type
                         _______ _______ _______ _____ _____    ______ ____

>  <TORSDO>
F 1

$$$$
