=
 OpenBabel11052416473D

 32 37  0  0  1  0  0  0  0  0999 V2000
  190.7750  177.5170  138.7330 C   0  0  1  0  0  3  0  0  0  0  0  0
  186.3590  175.9660  137.0720 C   0  0  0  0  0  3  0  0  0  0  0  0
  186.9650  174.8390  136.5170 C   0  0  0  0  0  3  0  0  0  0  0  0
  192.8920  176.3620  137.9940 C   0  0  0  0  0  0  0  0  0  0  0  0
  193.3880  175.0790  137.5030 C   0  0  0  0  0  0  0  0  0  0  0  0
  189.8760  177.3960  141.0680 C   0  0  2  0  0  3  0  0  0  0  0  0
  188.7040  178.6550  139.3430 O   0  0  0  0  0  0  0  0  0  0  0  0
  193.2440  173.0400  136.5400 C   0  0  0  0  0  0  0  0  0  0  0  0
  187.6700  178.5300  141.4860 C   0  0  0  0  0  1  0  0  0  0  0  0
  187.1420  176.9660  137.6500 C   0  0  0  0  0  3  0  0  0  0  0  0
  189.3670  177.9600  138.3010 C   0  0  2  0  0  3  0  0  0  0  0  0
  188.5390  176.8440  137.6920 C   0  0  0  0  0  0  0  0  0  0  0  0
  190.6430  175.6080  137.0700 C   0  0  0  0  0  0  0  0  0  0  0  0
  194.1970  172.9610  137.5900 N   0  0  0  0  0  2  0  0  0  0  0  0
  188.5250  177.8040  140.4600 C   0  0  2  0  0  3  0  0  0  0  0  0
  194.1990  174.2620  138.1680 C   0  0  0  0  0  3  0  0  0  0  0  0
  188.3560  174.7180  136.5270 C   0  0  0  0  0  3  0  0  0  0  0  0
  189.1600  175.7190  137.1010 C   0  0  0  0  0  0  0  0  0  0  0  0
  191.2240  174.5150  136.5330 C   0  0  0  0  0  3  0  0  0  0  0  0
  190.6860  176.6720  140.0010 C   0  0  0  0  0  2  0  0  0  0  0  0
  193.6110  177.0970  138.7260 O   0  0  0  0  0  0  0  0  0  0  0  0
  192.9400  172.0550  135.8160 O   0  0  0  0  0  0  0  0  0  0  0  0
  191.4890  176.7760  137.5940 C   0  0  1  0  0  3  0  0  0  0  0  0
  192.7130  174.4130  136.3610 C   0  0  1  0  0  3  0  0  0  0  0  0
  189.6770  176.4620  142.2590 C   0  0  0  0  0  2  0  0  0  0  0  0
  191.0340  178.6110  143.2340 S   0  0  0  0  0  1  0  0  0  0  0  0
  190.5510  176.8710  143.4360 C   0  0  1  0  0  3  0  0  0  0  0  0
  189.7880  176.7010  144.7400 C   0  0  0  0  0  2  0  0  0  0  0  0
  188.7450  177.7910  144.8930 C   0  0  0  0  0  2  0  0  0  0  0  0
  187.3890  177.1590  145.1260 C   0  0  0  0  0  3  0  0  0  0  0  0
  186.7390  177.8080  146.3300 C   0  0  0  0  0  2  0  0  0  0  0  0
  186.3100  178.2050  144.9330 C   0  0  0  0  0  2  0  0  0  0  0  0
  1 20  1  1  0  0  0
  2 10  1  0  0  0  0
  3 17  1  0  0  0  0
  3  2  2  0  0  0  0
  4 21  2  0  0  0  0
  5  4  1  0  0  0  0
  5 16  2  0  0  0  0
  6 25  1  1  0  0  0
  7 15  1  0  0  0  0
  8 14  1  0  0  0  0
 10 12  2  0  0  0  0
 11 12  1  1  0  0  0
 11  1  1  0  0  0  0
 11  7  1  0  0  0  0
 13 18  1  0  0  0  0
 14 16  1  0  0  0  0
 15  6  1  0  0  0  0
 15  9  1  1  0  0  0
 17 18  2  0  0  0  0
 18 12  1  0  0  0  0
 19 13  2  0  0  0  0
 20  6  1  0  0  0  0
 22  8  2  0  0  0  0
 23 13  1  1  0  0  0
 23  4  1  0  0  0  0
 23  1  1  0  0  0  0
 24 19  1  1  0  0  0
 24  8  1  0  0  0  0
 24  5  1  0  0  0  0
 25 27  1  0  0  0  0
 27 26  1  6  0  0  0
 27 28  1  0  0  0  0
 28 29  1  0  0  0  0
 29 30  1  0  0  0  0
 30 31  1  0  0  0  0
 32 30  1  0  0  0  0
 32 31  1  0  0  0  0
M  END
>  <MODEL>
1

>  <REMARK>
 VINA RESULT:      -7.9      0.000      0.000
  Name = 
  5 active torsions:
  status: ('A' for Active; 'I' for Inactive)
    1  A    between atoms: C_1  and  C_10
    2  A    between atoms: C_8  and  C_23
    3  A    between atoms: C_10  and  C_24
    4  A    between atoms: C_19  and  C_23
    5  A    between atoms: C_19  and  C_24
                            x       y       z     vdW  Elec       q    Type
                         _______ _______ _______ _____ _____    ______ ____

>  <TORSDO>
F 5

$$$$
=
 OpenBabel11052416473D

 32 37  0  0  1  0  0  0  0  0999 V2000
  190.6990  177.5490  138.7990 C   0  0  1  0  0  3  0  0  0  0  0  0
  186.2060  176.3520  137.0530 C   0  0  0  0  0  3  0  0  0  0  0  0
  186.7520  175.2370  136.4150 C   0  0  0  0  0  3  0  0  0  0  0  0
  192.7520  176.3420  137.9690 C   0  0  0  0  0  0  0  0  0  0  0  0
  193.1800  175.0740  137.3860 C   0  0  0  0  0  0  0  0  0  0  0  0
  189.7980  177.3070  141.1240 C   0  0  2  0  0  3  0  0  0  0  0  0
  188.6910  178.7460  139.5000 O   0  0  0  0  0  0  0  0  0  0  0  0
  192.9290  173.1180  136.2800 C   0  0  0  0  0  0  0  0  0  0  0  0
  187.6540  178.5220  141.6330 C   0  0  0  0  0  1  0  0  0  0  0  0
  187.0410  177.2660  137.6970 C   0  0  0  0  0  3  0  0  0  0  0  0
  189.3150  178.0940  138.4060 C   0  0  2  0  0  3  0  0  0  0  0  0
  188.4300  177.0700  137.7230 C   0  0  0  0  0  0  0  0  0  0  0  0
  190.4660  175.7730  137.0050 C   0  0  0  0  0  0  0  0  0  0  0  0
  193.8780  172.9150  137.3170 N   0  0  0  0  0  2  0  0  0  0  0  0
  188.4680  177.8280  140.5530 C   0  0  2  0  0  3  0  0  0  0  0  0
  193.9480  174.1700  137.9860 C   0  0  0  0  0  3  0  0  0  0  0  0
  188.1350  175.0450  136.4100 C   0  0  0  0  0  3  0  0  0  0  0  0
  188.9910  175.9590  137.0500 C   0  0  0  0  0  0  0  0  0  0  0  0
  190.9890  174.6930  136.3880 C   0  0  0  0  0  3  0  0  0  0  0  0
  190.5680  176.6210  140.0040 C   0  0  0  0  0  2  0  0  0  0  0  0
  193.5090  176.9840  138.7480 O   0  0  0  0  0  0  0  0  0  0  0  0
  192.5740  172.2060  135.4880 O   0  0  0  0  0  0  0  0  0  0  0  0
  191.3730  176.8550  137.6070 C   0  0  1  0  0  3  0  0  0  0  0  0
  192.4700  174.5270  136.2020 C   0  0  1  0  0  3  0  0  0  0  0  0
  189.5520  176.3020  142.2460 C   0  0  0  0  0  2  0  0  0  0  0  0
  191.2410  178.1960  143.2300 S   0  0  0  0  0  1  0  0  0  0  0  0
  190.1480  176.7820  143.5620 C   0  0  1  0  0  3  0  0  0  0  0  0
  189.0430  177.2030  144.5170 C   0  0  0  0  0  2  0  0  0  0  0  0
  189.5700  177.2890  145.9360 C   0  0  0  0  0  2  0  0  0  0  0  0
  188.4770  177.8090  146.8470 C   0  0  0  0  0  3  0  0  0  0  0  0
  188.3250  176.8710  148.0250 C   0  0  0  0  0  2  0  0  0  0  0  0
  189.0770  178.1750  148.1890 C   0  0  0  0  0  2  0  0  0  0  0  0
  1 20  1  1  0  0  0
  2 10  1  0  0  0  0
  3  2  2  0  0  0  0
  4 21  2  0  0  0  0
  5  4  1  0  0  0  0
  5 16  2  0  0  0  0
  6 25  1  1  0  0  0
  7 15  1  0  0  0  0
  8 14  1  0  0  0  0
 10 12  2  0  0  0  0
 11 12  1  1  0  0  0
 11  1  1  0  0  0  0
 11  7  1  0  0  0  0
 13 18  1  0  0  0  0
 14 16  1  0  0  0  0
 15  6  1  0  0  0  0
 15  9  1  1  0  0  0
 17  3  1  0  0  0  0
 17 18  2  0  0  0  0
 18 12  1  0  0  0  0
 19 13  2  0  0  0  0
 20  6  1  0  0  0  0
 22  8  2  0  0  0  0
 23 13  1  1  0  0  0
 23  4  1  0  0  0  0
 23  1  1  0  0  0  0
 24  8  1  0  0  0  0
 24 19  1  1  0  0  0
 24  5  1  0  0  0  0
 25 27  1  0  0  0  0
 27 26  1  6  0  0  0
 27 28  1  0  0  0  0
 28 29  1  0  0  0  0
 29 30  1  0  0  0  0
 30 31  1  0  0  0  0
 30 32  1  0  0  0  0
 31 32  1  0  0  0  0
M  END
>  <MODEL>
2

>  <REMARK>
 VINA RESULT:      -7.8      0.857      1.038
  Name = 
  5 active torsions:
  status: ('A' for Active; 'I' for Inactive)
    1  A    between atoms: C_1  and  C_10
    2  A    between atoms: C_8  and  C_23
    3  A    between atoms: C_10  and  C_24
    4  A    between atoms: C_19  and  C_23
    5  A    between atoms: C_19  and  C_24
                            x       y       z     vdW  Elec       q    Type
                         _______ _______ _______ _____ _____    ______ ____

>  <TORSDO>
F 5

$$$$
=
 OpenBabel11052416473D

 32 37  0  0  1  0  0  0  0  0999 V2000
  182.2500  179.1690  140.3280 C   0  0  1  0  0  3  0  0  0  0  0  0
  179.1140  175.3360  140.7040 C   0  0  0  0  0  3  0  0  0  0  0  0
  179.9420  174.5780  139.8750 C   0  0  0  0  0  3  0  0  0  0  0  0
  184.1470  179.1060  138.6660 C   0  0  0  0  0  0  0  0  0  0  0  0
  185.0010  178.1740  137.9360 C   0  0  0  0  0  0  0  0  0  0  0  0
  182.5820  179.0670  142.8090 C   0  0  2  0  0  3  0  0  0  0  0  0
  180.3460  179.2150  141.8540 O   0  0  0  0  0  0  0  0  0  0  0  0
  185.5910  176.1930  137.0210 C   0  0  0  0  0  0  0  0  0  0  0  0
  180.5010  179.0070  144.2220 C   0  0  0  0  0  1  0  0  0  0  0  0
  179.3990  176.6830  140.9320 C   0  0  0  0  0  3  0  0  0  0  0  0
  180.7910  178.7570  140.5880 C   0  0  2  0  0  3  0  0  0  0  0  0
  180.5220  177.2850  140.3460 C   0  0  0  0  0  0  0  0  0  0  0  0
  182.4990  177.1690  138.7900 C   0  0  0  0  0  0  0  0  0  0  0  0
  186.7650  176.8030  137.5360 N   0  0  0  0  0  2  0  0  0  0  0  0
  181.1130  178.6220  142.8850 C   0  0  2  0  0  3  0  0  0  0  0  0
  186.3070  178.0160  138.1260 C   0  0  0  0  0  3  0  0  0  0  0  0
  181.0480  175.1720  139.2630 C   0  0  0  0  0  3  0  0  0  0  0  0
  181.3460  176.5300  139.4780 C   0  0  0  0  0  0  0  0  0  0  0  0
  183.2980  176.4310  137.9900 C   0  0  0  0  0  3  0  0  0  0  0  0
  183.1420  178.6540  141.4550 C   0  0  0  0  0  2  0  0  0  0  0  0
  184.5860  180.2260  139.0460 O   0  0  0  0  0  0  0  0  0  0  0  0
  185.5970  175.0700  136.4510 O   0  0  0  0  0  0  0  0  0  0  0  0
  182.7200  178.6790  138.9510 C   0  0  1  0  0  3  0  0  0  0  0  0
  184.3930  177.0550  137.1730 C   0  0  1  0  0  3  0  0  0  0  0  0
  183.4080  178.4080  143.9110 C   0  0  0  0  0  2  0  0  0  0  0  0
  185.3280  179.0480  145.7300 S   0  0  0  0  0  1  0  0  0  0  0  0
  184.8050  179.0060  143.9900 C   0  0  1  0  0  3  0  0  0  0  0  0
  185.7820  178.1650  143.1830 C   0  0  0  0  0  2  0  0  0  0  0  0
  186.7510  177.4470  144.1020 C   0  0  0  0  0  2  0  0  0  0  0  0
  188.1710  177.7500  143.6700 C   0  0  0  0  0  3  0  0  0  0  0  0
  189.0790  177.7010  144.8810 C   0  0  0  0  0  2  0  0  0  0  0  0
  189.0400  176.5330  143.9170 C   0  0  0  0  0  2  0  0  0  0  0  0
  1 11  1  0  0  0  0
  1 20  1  1  0  0  0
  2 10  1  0  0  0  0
  3  2  2  0  0  0  0
  4 21  2  0  0  0  0
  5 16  2  0  0  0  0
  5  4  1  0  0  0  0
  6 15  1  0  0  0  0
  6 25  1  1  0  0  0
  7 15  1  0  0  0  0
  8 24  1  0  0  0  0
  8 14  1  0  0  0  0
 11 12  1  1  0  0  0
 11  7  1  0  0  0  0
 12 10  2  0  0  0  0
 13 23  1  0  0  0  0
 13 18  1  0  0  0  0
 14 16  1  0  0  0  0
 15  9  1  1  0  0  0
 17 18  2  0  0  0  0
 17  3  1  0  0  0  0
 18 12  1  0  0  0  0
 19 13  2  0  0  0  0
 20  6  1  0  0  0  0
 22  8  2  0  0  0  0
 23  4  1  1  0  0  0
 23  1  1  0  0  0  0
 24  5  1  0  0  0  0
 24 19  1  1  0  0  0
 25 27  1  0  0  0  0
 27 26  1  1  0  0  0
 28 27  1  0  0  0  0
 28 29  1  0  0  0  0
 30 32  1  0  0  0  0
 30 29  1  0  0  0  0
 30 31  1  0  0  0  0
 32 31  1  0  0  0  0
M  END
>  <MODEL>
3

>  <REMARK>
 VINA RESULT:      -7.3      5.053      7.661
  Name = 
  5 active torsions:
  status: ('A' for Active; 'I' for Inactive)
    1  A    between atoms: C_1  and  C_10
    2  A    between atoms: C_8  and  C_23
    3  A    between atoms: C_10  and  C_24
    4  A    between atoms: C_19  and  C_23
    5  A    between atoms: C_19  and  C_24
                            x       y       z     vdW  Elec       q    Type
                         _______ _______ _______ _____ _____    ______ ____

>  <TORSDO>
F 5

$$$$
=
 OpenBabel11052416473D

 32 37  0  0  1  0  0  0  0  0999 V2000
  187.6630  178.3670  138.2550 C   0  0  1  0  0  3  0  0  0  0  0  0
  190.9540  175.9030  135.4670 C   0  0  0  0  0  3  0  0  0  0  0  0
  191.5320  175.3730  136.6210 C   0  0  0  0  0  3  0  0  0  0  0  0
  187.9370  178.4670  140.7610 C   0  0  0  0  0  0  0  0  0  0  0  0
  188.5270  177.7390  141.8800 C   0  0  0  0  0  0  0  0  0  0  0  0
  185.8300  177.0970  137.1140 C   0  0  2  0  0  3  0  0  0  0  0  0
  187.4970  178.3150  135.8210 O   0  0  0  0  0  0  0  0  0  0  0  0
  189.9310  176.2820  142.8880 C   0  0  0  0  0  0  0  0  0  0  0  0
  185.8850  177.0570  134.5990 C   0  0  0  0  0  1  0  0  0  0  0  0
  189.9420  176.8590  135.5700 C   0  0  0  0  0  3  0  0  0  0  0  0
  188.4060  178.3450  136.9080 C   0  0  2  0  0  3  0  0  0  0  0  0
  189.4870  177.2850  136.8270 C   0  0  0  0  0  0  0  0  0  0  0  0
  189.6760  177.2700  139.3380 C   0  0  0  0  0  0  0  0  0  0  0  0
  188.6810  176.2190  143.5590 N   0  0  0  0  0  2  0  0  0  0  0  0
  186.7240  177.1300  135.8640 C   0  0  2  0  0  3  0  0  0  0  0  0
  187.8470  177.1270  142.8450 C   0  0  0  0  0  3  0  0  0  0  0  0
  191.1080  175.8090  137.8770 C   0  0  0  0  0  3  0  0  0  0  0  0
  190.0930  176.7750  137.9990 C   0  0  0  0  0  0  0  0  0  0  0  0
  190.2380  176.7530  140.4510 C   0  0  0  0  0  3  0  0  0  0  0  0
  186.7210  177.1690  138.3460 C   0  0  0  0  0  2  0  0  0  0  0  0
  186.8650  179.1170  140.9040 O   0  0  0  0  0  0  0  0  0  0  0  0
  190.9210  175.5780  143.2180 O   0  0  0  0  0  0  0  0  0  0  0  0
  188.6550  178.4120  139.4260 C   0  0  1  0  0  3  0  0  0  0  0  0
  189.9460  177.3070  141.8160 C   0  0  1  0  0  3  0  0  0  0  0  0
  185.0140  175.8080  137.1650 C   0  0  0  0  0  2  0  0  0  0  0  0
  182.6100  175.2190  136.0340 S   0  0  0  0  0  1  0  0  0  0  0  0
  183.5300  176.0960  137.3330 C   0  0  1  0  0  3  0  0  0  0  0  0
  183.0550  175.6280  138.7000 C   0  0  0  0  0  2  0  0  0  0  0  0
  182.4290  176.7750  139.4680 C   0  0  0  0  0  2  0  0  0  0  0  0
  183.5070  177.5170  140.2300 C   0  0  0  0  0  3  0  0  0  0  0  0
  183.5700  178.9460  139.7360 C   0  0  0  0  0  2  0  0  0  0  0  0
  182.8720  178.6280  141.0420 C   0  0  0  0  0  2  0  0  0  0  0  0
  1 20  1  1  0  0  0
  1 23  1  0  0  0  0
  2 10  2  0  0  0  0
  2  3  1  0  0  0  0
  3 17  2  0  0  0  0
  4 21  2  0  0  0  0
  4  5  1  0  0  0  0
  5 16  2  0  0  0  0
  6 25  1  1  0  0  0
  6 20  1  0  0  0  0
  7 15  1  0  0  0  0
  8 22  2  0  0  0  0
  8 14  1  0  0  0  0
 10 12  1  0  0  0  0
 11  7  1  6  0  0  0
 11  1  1  0  0  0  0
 12 11  1  0  0  0  0
 12 18  2  0  0  0  0
 13 19  2  0  0  0  0
 15  9  1  6  0  0  0
 15  6  1  0  0  0  0
 16 14  1  0  0  0  0
 17 18  1  0  0  0  0
 18 13  1  0  0  0  0
 23 13  1  1  0  0  0
 23  4  1  0  0  0  0
 24 19  1  6  0  0  0
 24  5  1  0  0  0  0
 24  8  1  0  0  0  0
 25 27  1  0  0  0  0
 27 26  1  6  0  0  0
 27 28  1  0  0  0  0
 28 29  1  0  0  0  0
 29 30  1  0  0  0  0
 30 32  1  0  0  0  0
 31 30  1  0  0  0  0
 31 32  1  0  0  0  0
M  END
>  <MODEL>
4

>  <REMARK>
 VINA RESULT:      -7.2      3.584      6.333
  Name = 
  5 active torsions:
  status: ('A' for Active; 'I' for Inactive)
    1  A    between atoms: C_1  and  C_10
    2  A    between atoms: C_8  and  C_23
    3  A    between atoms: C_10  and  C_24
    4  A    between atoms: C_19  and  C_23
    5  A    between atoms: C_19  and  C_24
                            x       y       z     vdW  Elec       q    Type
                         _______ _______ _______ _____ _____    ______ ____

>  <TORSDO>
F 5

$$$$
=
 OpenBabel11052416473D

 32 37  0  0  1  0  0  0  0  0999 V2000
  185.9430  178.3470  137.9190 C   0  0  1  0  0  3  0  0  0  0  0  0
  183.1300  174.3860  136.8840 C   0  0  0  0  0  3  0  0  0  0  0  0
  184.2700  173.5820  136.8660 C   0  0  0  0  0  3  0  0  0  0  0  0
  188.4580  178.1900  137.8010 C   0  0  0  0  0  0  0  0  0  0  0  0
  189.5530  177.2300  137.9030 C   0  0  0  0  0  0  0  0  0  0  0  0
  184.6720  178.6190  140.0610 C   0  0  2  0  0  3  0  0  0  0  0  0
  183.5050  178.4680  137.9280 O   0  0  0  0  0  0  0  0  0  0  0  0
  190.5220  175.1880  137.8620 C   0  0  0  0  0  0  0  0  0  0  0  0
  182.1620  178.6050  139.8910 C   0  0  0  0  0  1  0  0  0  0  0  0
  183.2530  175.7690  137.0260 C   0  0  0  0  0  3  0  0  0  0  0  0
  184.6220  177.8710  137.2910 C   0  0  2  0  0  3  0  0  0  0  0  0
  184.5160  176.3630  137.1660 C   0  0  0  0  0  0  0  0  0  0  0  0
  187.0280  176.1750  137.1890 C   0  0  0  0  0  0  0  0  0  0  0  0
  191.1480  175.9490  138.8860 N   0  0  0  0  0  2  0  0  0  0  0  0
  183.4560  178.0820  139.2890 C   0  0  2  0  0  3  0  0  0  0  0  0
  190.4590  177.1960  138.8750 C   0  0  0  0  0  3  0  0  0  0  0  0
  185.5350  174.1630  136.9770 C   0  0  0  0  0  3  0  0  0  0  0  0
  185.6770  175.5560  137.1160 C   0  0  0  0  0  0  0  0  0  0  0  0
  188.1270  175.3930  137.1720 C   0  0  0  0  0  3  0  0  0  0  0  0
  185.9360  178.0610  139.4180 C   0  0  0  0  0  2  0  0  0  0  0  0
  188.6030  179.3810  138.1910 O   0  0  0  0  0  0  0  0  0  0  0  0
  190.8450  174.0010  137.5980 O   0  0  0  0  0  0  0  0  0  0  0  0
  187.1460  177.7050  137.2150 C   0  0  1  0  0  3  0  0  0  0  0  0
  189.5120  175.9730  137.1130 C   0  0  1  0  0  3  0  0  0  0  0  0
  184.6250  178.1820  141.5230 C   0  0  0  0  0  2  0  0  0  0  0  0
  184.7260  179.6740  143.7970 S   0  0  0  0  0  1  0  0  0  0  0  0
  185.6100  178.9740  142.3710 C   0  0  1  0  0  3  0  0  0  0  0  0
  186.7290  178.0690  142.8580 C   0  0  0  0  0  2  0  0  0  0  0  0
  186.6490  177.8840  144.3610 C   0  0  0  0  0  2  0  0  0  0  0  0
  187.8110  177.0310  144.8260 C   0  0  0  0  0  3  0  0  0  0  0  0
  189.0390  177.9040  144.9710 C   0  0  0  0  0  2  0  0  0  0  0  0
  188.2540  177.4940  146.1990 C   0  0  0  0  0  2  0  0  0  0  0  0
  1 20  1  1  0  0  0
  2 10  1  0  0  0  0
  3  2  2  0  0  0  0
  3 17  1  0  0  0  0
  4  5  1  0  0  0  0
  4 21  2  0  0  0  0
  5 16  2  0  0  0  0
  6 25  1  1  0  0  0
  7 15  1  0  0  0  0
  8 14  1  0  0  0  0
 10 12  2  0  0  0  0
 11 12  1  1  0  0  0
 11  1  1  0  0  0  0
 11  7  1  0  0  0  0
 15  9  1  1  0  0  0
 15  6  1  0  0  0  0
 16 14  1  0  0  0  0
 17 18  2  0  0  0  0
 18 12  1  0  0  0  0
 18 13  1  0  0  0  0
 19 13  2  0  0  0  0
 20  6  1  0  0  0  0
 22  8  2  0  0  0  0
 23 13  1  1  0  0  0
 23  4  1  0  0  0  0
 23  1  1  0  0  0  0
 24 19  1  1  0  0  0
 24  8  1  0  0  0  0
 24  5  1  0  0  0  0
 25 27  1  0  0  0  0
 27 28  1  0  0  0  0
 27 26  1  1  0  0  0
 28 29  1  0  0  0  0
 29 30  1  0  0  0  0
 30 31  1  0  0  0  0
 30 32  1  0  0  0  0
 31 32  1  0  0  0  0
M  END
>  <MODEL>
5

>  <REMARK>
 VINA RESULT:      -7.0      2.765      4.328
  Name = 
  5 active torsions:
  status: ('A' for Active; 'I' for Inactive)
    1  A    between atoms: C_1  and  C_10
    2  A    between atoms: C_8  and  C_23
    3  A    between atoms: C_10  and  C_24
    4  A    between atoms: C_19  and  C_23
    5  A    between atoms: C_19  and  C_24
                            x       y       z     vdW  Elec       q    Type
                         _______ _______ _______ _____ _____    ______ ____

>  <TORSDO>
F 5

$$$$
=
 OpenBabel11052416473D

 32 37  0  0  1  0  0  0  0  0999 V2000
  184.9130  177.2960  136.8610 C   0  0  1  0  0  3  0  0  0  0  0  0
  183.9080  172.4420  136.5550 C   0  0  0  0  0  3  0  0  0  0  0  0
  185.2210  172.1480  136.9240 C   0  0  0  0  0  3  0  0  0  0  0  0
  187.2880  178.0900  137.1590 C   0  0  0  0  0  0  0  0  0  0  0  0
  188.5840  177.6620  137.6780 C   0  0  0  0  0  0  0  0  0  0  0  0
  183.1570  177.4890  138.6380 C   0  0  2  0  0  3  0  0  0  0  0  0
  182.6450  176.4770  136.4830 O   0  0  0  0  0  0  0  0  0  0  0  0
  190.1590  176.1820  138.3410 C   0  0  0  0  0  0  0  0  0  0  0  0
  180.9100  176.4850  138.1160 C   0  0  0  0  0  1  0  0  0  0  0  0
  183.5270  173.7650  136.3290 C   0  0  0  0  0  3  0  0  0  0  0  0
  184.0140  176.2360  136.2030 C   0  0  2  0  0  3  0  0  0  0  0  0
  184.4490  174.8100  136.4830 C   0  0  0  0  0  0  0  0  0  0  0  0
  186.7990  175.6030  136.9210 C   0  0  0  0  0  0  0  0  0  0  0  0
  190.2350  177.3130  139.1960 N   0  0  0  0  0  2  0  0  0  0  0  0
  182.4080  176.3850  137.8750 C   0  0  2  0  0  3  0  0  0  0  0  0
  189.1940  178.1730  138.7430 C   0  0  0  0  0  3  0  0  0  0  0  0
  186.1560  173.1760  137.0540 C   0  0  0  0  0  3  0  0  0  0  0  0
  185.7890  174.5150  136.8250 C   0  0  0  0  0  0  0  0  0  0  0  0
  188.0670  175.3140  137.2800 C   0  0  0  0  0  3  0  0  0  0  0  0
  184.6480  177.3380  138.3640 C   0  0  0  0  0  2  0  0  0  0  0  0
  186.9320  179.2980  137.2240 O   0  0  0  0  0  0  0  0  0  0  0  0
  190.9120  175.1800  138.4620 O   0  0  0  0  0  0  0  0  0  0  0  0
  186.3910  177.0330  136.5440 C   0  0  1  0  0  3  0  0  0  0  0  0
  189.1510  176.3530  137.2660 C   0  0  1  0  0  3  0  0  0  0  0  0
  182.9140  177.3730  140.1410 C   0  0  0  0  0  2  0  0  0  0  0  0
  180.8640  179.0430  140.7860 S   0  0  0  0  0  1  0  0  0  0  0  0
  182.6560  178.7350  140.7690 C   0  0  1  0  0  3  0  0  0  0  0  0
  183.1930  178.7680  142.1900 C   0  0  0  0  0  2  0  0  0  0  0  0
  184.5540  178.1030  142.2600 C   0  0  0  0  0  2  0  0  0  0  0  0
  185.4300  178.8540  143.2420 C   0  0  0  0  0  3  0  0  0  0  0  0
  184.9240  178.6080  144.6470 C   0  0  0  0  0  2  0  0  0  0  0  0
  186.1400  177.8610  144.1400 C   0  0  0  0  0  2  0  0  0  0  0  0
  1 20  1  1  0  0  0
  2  3  1  0  0  0  0
  3 17  2  0  0  0  0
  4 21  2  0  0  0  0
  4  5  1  0  0  0  0
  5 16  2  0  0  0  0
  6 25  1  1  0  0  0
  7 15  1  0  0  0  0
  8 22  2  0  0  0  0
  8 14  1  0  0  0  0
 10 12  1  0  0  0  0
 10  2  2  0  0  0  0
 11  7  1  1  0  0  0
 11 12  1  0  0  0  0
 11  1  1  0  0  0  0
 12 18  2  0  0  0  0
 13 19  2  0  0  0  0
 15  9  1  6  0  0  0
 15  6  1  0  0  0  0
 16 14  1  0  0  0  0
 18 13  1  0  0  0  0
 18 17  1  0  0  0  0
 20  6  1  0  0  0  0
 23  1  1  0  0  0  0
 23 13  1  1  0  0  0
 23  4  1  0  0  0  0
 24 19  1  1  0  0  0
 24  5  1  0  0  0  0
 24  8  1  0  0  0  0
 25 27  1  0  0  0  0
 27 26  1  1  0  0  0
 27 28  1  0  0  0  0
 28 29  1  0  0  0  0
 29 30  1  0  0  0  0
 30 32  1  0  0  0  0
 30 31  1  0  0  0  0
 32 31  1  0  0  0  0
M  END
>  <MODEL>
6

>  <REMARK>
 VINA RESULT:      -6.7      3.689      5.748
  Name = 
  5 active torsions:
  status: ('A' for Active; 'I' for Inactive)
    1  A    between atoms: C_1  and  C_10
    2  A    between atoms: C_8  and  C_23
    3  A    between atoms: C_10  and  C_24
    4  A    between atoms: C_19  and  C_23
    5  A    between atoms: C_19  and  C_24
                            x       y       z     vdW  Elec       q    Type
                         _______ _______ _______ _____ _____    ______ ____

>  <TORSDO>
F 5

$$$$
=
 OpenBabel11052416473D

 32 37  0  0  1  0  0  0  0  0999 V2000
  188.7790  177.4060  137.4940 C   0  0  1  0  0  3  0  0  0  0  0  0
  191.3930  177.1600  141.7100 C   0  0  0  0  0  3  0  0  0  0  0  0
  190.2280  177.3820  142.4450 C   0  0  0  0  0  3  0  0  0  0  0  0
  186.3750  178.1690  137.5280 C   0  0  0  0  0  0  0  0  0  0  0  0
  185.2080  178.2460  138.4020 C   0  0  0  0  0  0  0  0  0  0  0  0
  189.4760  175.0530  136.9910 C   0  0  2  0  0  3  0  0  0  0  0  0
  191.1330  176.7620  137.5080 O   0  0  0  0  0  0  0  0  0  0  0  0
  184.1010  178.2930  140.3730 C   0  0  0  0  0  0  0  0  0  0  0  0
  191.9340  174.5450  137.1660 C   0  0  0  0  0  1  0  0  0  0  0  0
  191.3630  177.2260  140.3170 C   0  0  0  0  0  3  0  0  0  0  0  0
  190.1680  177.5960  138.1270 C   0  0  2  0  0  3  0  0  0  0  0  0
  190.1660  177.5020  139.6410 C   0  0  0  0  0  0  0  0  0  0  0  0
  187.7260  178.1260  139.6850 C   0  0  0  0  0  0  0  0  0  0  0  0
  183.3060  177.5740  139.4410 N   0  0  0  0  0  2  0  0  0  0  0  0
  190.7960  175.4010  137.6980 C   0  0  2  0  0  3  0  0  0  0  0  0
  184.0830  177.5550  138.2480 C   0  0  0  0  0  3  0  0  0  0  0  0
  189.0350  177.6840  141.7850 C   0  0  0  0  0  3  0  0  0  0  0  0
  188.9890  177.7600  140.3820 C   0  0  0  0  0  0  0  0  0  0  0  0
  186.6010  178.3390  140.4000 C   0  0  0  0  0  3  0  0  0  0  0  0
  188.3750  175.9360  137.5640 C   0  0  0  0  0  2  0  0  0  0  0  0
  186.2430  177.9820  136.2880 O   0  0  0  0  0  0  0  0  0  0  0  0
  183.7510  178.4860  141.5660 O   0  0  0  0  0  0  0  0  0  0  0  0
  187.7440  178.3210  138.1630 C   0  0  1  0  0  3  0  0  0  0  0  0
  185.3370  178.8360  139.7590 C   0  0  1  0  0  3  0  0  0  0  0  0
  189.1070  173.5890  137.2170 C   0  0  0  0  0  2  0  0  0  0  0  0
  189.6210  172.3770  134.8350 S   0  0  0  0  0  1  0  0  0  0  0  0
  188.3860  173.0060  136.0110 C   0  0  1  0  0  3  0  0  0  0  0  0
  187.4700  171.8730  136.4440 C   0  0  0  0  0  2  0  0  0  0  0  0
  186.0160  172.2770  136.2960 C   0  0  0  0  0  2  0  0  0  0  0  0
  185.5590  172.9800  137.5570 C   0  0  0  0  0  3  0  0  0  0  0  0
  185.1210  174.3870  137.2110 C   0  0  0  0  0  2  0  0  0  0  0  0
  184.0840  173.3070  137.4420 C   0  0  0  0  0  2  0  0  0  0  0  0
  1 20  1  1  0  0  0
  1 11  1  0  0  0  0
  1 23  1  0  0  0  0
  2  3  1  0  0  0  0
  4  5  1  0  0  0  0
  5 24  1  0  0  0  0
  6 25  1  1  0  0  0
  6 20  1  0  0  0  0
  6 15  1  0  0  0  0
  7 15  1  0  0  0  0
  8 22  2  0  0  0  0
 10  2  2  0  0  0  0
 11  7  1  6  0  0  0
 11 12  1  0  0  0  0
 12 10  1  0  0  0  0
 12 18  2  0  0  0  0
 13 18  1  0  0  0  0
 13 19  2  0  0  0  0
 14  8  1  0  0  0  0
 15  9  1  6  0  0  0
 16  5  2  0  0  0  0
 16 14  1  0  0  0  0
 17  3  2  0  0  0  0
 18 17  1  0  0  0  0
 21  4  2  0  0  0  0
 23  4  1  6  0  0  0
 23 13  1  0  0  0  0
 24  8  1  0  0  0  0
 24 19  1  1  0  0  0
 27 26  1  6  0  0  0
 27 28  1  0  0  0  0
 27 25  1  0  0  0  0
 29 28  1  0  0  0  0
 29 30  1  0  0  0  0
 31 32  1  0  0  0  0
 31 30  1  0  0  0  0
 32 30  1  0  0  0  0
M  END
>  <MODEL>
7

>  <REMARK>
 VINA RESULT:      -6.7      3.624      7.705
  Name = 
  5 active torsions:
  status: ('A' for Active; 'I' for Inactive)
    1  A    between atoms: C_1  and  C_10
    2  A    between atoms: C_8  and  C_23
    3  A    between atoms: C_10  and  C_24
    4  A    between atoms: C_19  and  C_23
    5  A    between atoms: C_19  and  C_24
                            x       y       z     vdW  Elec       q    Type
                         _______ _______ _______ _____ _____    ______ ____

>  <TORSDO>
F 5

$$$$
=
 OpenBabel11052416473D

 32 37  0  0  1  0  0  0  0  0999 V2000
  185.9980  178.7790  139.0990 C   0  0  1  0  0  3  0  0  0  0  0  0
  182.1880  175.9730  137.5920 C   0  0  0  0  0  3  0  0  0  0  0  0
  183.0840  175.0170  137.1100 C   0  0  0  0  0  3  0  0  0  0  0  0
  188.3570  178.1960  138.4220 C   0  0  0  0  0  0  0  0  0  0  0  0
  189.1880  177.0660  138.0160 C   0  0  0  0  0  0  0  0  0  0  0  0
  185.1440  178.5790  141.4460 C   0  0  2  0  0  3  0  0  0  0  0  0
  183.6900  179.3490  139.6500 O   0  0  0  0  0  0  0  0  0  0  0  0
  189.6140  175.0030  137.1970 C   0  0  0  0  0  0  0  0  0  0  0  0
  182.7080  179.0950  141.8060 C   0  0  0  0  0  1  0  0  0  0  0  0
  182.6630  177.1850  138.0920 C   0  0  0  0  0  3  0  0  0  0  0  0
  184.5270  178.7900  138.6510 C   0  0  2  0  0  3  0  0  0  0  0  0
  184.0400  177.4520  138.1290 C   0  0  0  0  0  0  0  0  0  0  0  0
  186.4070  176.7960  137.5740 C   0  0  0  0  0  0  0  0  0  0  0  0
  190.5430  175.2590  138.2420 N   0  0  0  0  0  2  0  0  0  0  0  0
  183.7380  178.5600  140.8240 C   0  0  2  0  0  3  0  0  0  0  0  0
  190.1850  176.5490  138.7280 C   0  0  0  0  0  3  0  0  0  0  0  0
  184.4540  175.2810  137.1150 C   0  0  0  0  0  3  0  0  0  0  0  0
  184.9500  176.5010  137.6110 C   0  0  0  0  0  0  0  0  0  0  0  0
  187.2700  175.8680  137.1080 C   0  0  0  0  0  3  0  0  0  0  0  0
  186.1310  178.0310  140.4230 C   0  0  0  0  0  2  0  0  0  0  0  0
  188.8410  179.1470  139.0940 O   0  0  0  0  0  0  0  0  0  0  0  0
  189.5970  173.9260  136.5460 O   0  0  0  0  0  0  0  0  0  0  0  0
  186.8980  178.1840  138.0080 C   0  0  1  0  0  3  0  0  0  0  0  0
  188.7310  176.1640  136.9290 C   0  0  1  0  0  3  0  0  0  0  0  0
  185.1950  177.7110  142.7010 C   0  0  0  0  0  2  0  0  0  0  0  0
  184.7960  179.1900  144.9500 S   0  0  0  0  0  1  0  0  0  0  0  0
  185.9730  178.3940  143.8160 C   0  0  1  0  0  3  0  0  0  0  0  0
  186.8040  177.3730  144.5770 C   0  0  0  0  0  2  0  0  0  0  0  0
  187.6280  176.5360  143.6180 C   0  0  0  0  0  2  0  0  0  0  0  0
  189.0390  177.0840  143.5580 C   0  0  0  0  0  3  0  0  0  0  0  0
  189.9300  176.0840  142.8540 C   0  0  0  0  0  2  0  0  0  0  0  0
  189.4290  177.3030  142.1100 C   0  0  0  0  0  2  0  0  0  0  0  0
  1 20  1  1  0  0  0
  2 10  1  0  0  0  0
  3 17  1  0  0  0  0
  3  2  2  0  0  0  0
  4 21  2  0  0  0  0
  5  4  1  0  0  0  0
  5 16  2  0  0  0  0
  6 25  1  1  0  0  0
  7 15  1  0  0  0  0
  8 14  1  0  0  0  0
 10 12  2  0  0  0  0
 11 12  1  1  0  0  0
 11  1  1  0  0  0  0
 11  7  1  0  0  0  0
 13 18  1  0  0  0  0
 14 16  1  0  0  0  0
 15  6  1  0  0  0  0
 15  9  1  1  0  0  0
 17 18  2  0  0  0  0
 18 12  1  0  0  0  0
 19 13  2  0  0  0  0
 20  6  1  0  0  0  0
 22  8  2  0  0  0  0
 23 13  1  1  0  0  0
 23  4  1  0  0  0  0
 23  1  1  0  0  0  0
 24 19  1  1  0  0  0
 24  8  1  0  0  0  0
 24  5  1  0  0  0  0
 25 27  1  0  0  0  0
 27 28  1  0  0  0  0
 27 26  1  1  0  0  0
 29 28  1  0  0  0  0
 30 29  1  0  0  0  0
 31 30  1  0  0  0  0
 32 31  1  0  0  0  0
 32 30  1  0  0  0  0
M  END
>  <MODEL>
8

>  <REMARK>
 VINA RESULT:      -6.7      2.810      4.525
  Name = 
  5 active torsions:
  status: ('A' for Active; 'I' for Inactive)
    1  A    between atoms: C_1  and  C_10
    2  A    between atoms: C_8  and  C_23
    3  A    between atoms: C_10  and  C_24
    4  A    between atoms: C_19  and  C_23
    5  A    between atoms: C_19  and  C_24
                            x       y       z     vdW  Elec       q    Type
                         _______ _______ _______ _____ _____    ______ ____

>  <TORSDO>
F 5

$$$$
=
 OpenBabel11052416473D

 32 37  0  0  1  0  0  0  0  0999 V2000
  186.0970  178.9780  140.6580 C   0  0  1  0  0  3  0  0  0  0  0  0
  181.3250  177.8440  141.4380 C   0  0  0  0  0  3  0  0  0  0  0  0
  181.3420  177.0070  140.3220 C   0  0  0  0  0  3  0  0  0  0  0  0
  187.2460  178.2600  138.5300 C   0  0  0  0  0  0  0  0  0  0  0  0
  187.1850  177.2500  137.4780 C   0  0  0  0  0  0  0  0  0  0  0  0
  186.6340  178.0210  142.9100 C   0  0  2  0  0  3  0  0  0  0  0  0
  184.9120  179.7250  142.6560 O   0  0  0  0  0  0  0  0  0  0  0  0
  186.2230  175.6540  136.1980 C   0  0  0  0  0  0  0  0  0  0  0  0
  185.2310  178.8230  144.8380 C   0  0  0  0  0  1  0  0  0  0  0  0
  182.4380  178.6290  141.7390 C   0  0  0  0  0  3  0  0  0  0  0  0
  184.7720  179.4630  141.2700 C   0  0  2  0  0  3  0  0  0  0  0  0
  183.5870  178.5770  140.9360 C   0  0  0  0  0  0  0  0  0  0  0  0
  184.7780  177.7420  138.8790 C   0  0  0  0  0  0  0  0  0  0  0  0
  187.5730  175.2750  136.4280 N   0  0  0  0  0  2  0  0  0  0  0  0
  185.2530  178.5370  143.3460 C   0  0  2  0  0  3  0  0  0  0  0  0
  188.0930  176.3010  137.2680 C   0  0  0  0  0  3  0  0  0  0  0  0
  182.4690  176.9660  139.4980 C   0  0  0  0  0  3  0  0  0  0  0  0
  183.5970  177.7550  139.7840 C   0  0  0  0  0  0  0  0  0  0  0  0
  184.7900  176.9310  137.8010 C   0  0  0  0  0  3  0  0  0  0  0  0
  186.5970  177.7480  141.4120 C   0  0  0  0  0  2  0  0  0  0  0  0
  188.3510  178.7400  138.9030 O   0  0  0  0  0  0  0  0  0  0  0  0
  185.4240  174.9590  135.5170 O   0  0  0  0  0  0  0  0  0  0  0  0
  185.9390  178.7080  139.1550 C   0  0  1  0  0  3  0  0  0  0  0  0
  185.8990  176.9750  136.7890 C   0  0  1  0  0  3  0  0  0  0  0  0
  186.9880  176.7290  143.6420 C   0  0  0  0  0  2  0  0  0  0  0  0
  189.4860  176.0000  142.8460 S   0  0  0  0  0  1  0  0  0  0  0  0
  188.4300  176.7420  144.1260 C   0  0  1  0  0  3  0  0  0  0  0  0
  188.8810  178.1690  144.3950 C   0  0  0  0  0  2  0  0  0  0  0  0
  189.6330  178.2510  145.7090 C   0  0  0  0  0  2  0  0  0  0  0  0
  189.0460  177.2550  146.6870 C   0  0  0  0  0  3  0  0  0  0  0  0
  190.1080  176.8600  147.6910 C   0  0  0  0  0  2  0  0  0  0  0  0
  189.0400  177.8620  148.0760 C   0  0  0  0  0  2  0  0  0  0  0  0
  1 11  1  0  0  0  0
  1 20  1  1  0  0  0
  2 10  1  0  0  0  0
  3  2  2  0  0  0  0
  4 21  2  0  0  0  0
  5  4  1  0  0  0  0
  6 15  1  0  0  0  0
  6 25  1  1  0  0  0
  7 15  1  0  0  0  0
  8 14  1  0  0  0  0
  8 24  1  0  0  0  0
 11 12  1  1  0  0  0
 11  7  1  0  0  0  0
 12 10  2  0  0  0  0
 13 23  1  0  0  0  0
 13 18  1  0  0  0  0
 14 16  1  0  0  0  0
 15  9  1  1  0  0  0
 16  5  2  0  0  0  0
 17 18  2  0  0  0  0
 17  3  1  0  0  0  0
 18 12  1  0  0  0  0
 19 13  2  0  0  0  0
 20  6  1  0  0  0  0
 22  8  2  0  0  0  0
 23  4  1  1  0  0  0
 23  1  1  0  0  0  0
 24  5  1  0  0  0  0
 24 19  1  1  0  0  0
 25 27  1  0  0  0  0
 27 26  1  6  0  0  0
 27 28  1  0  0  0  0
 28 29  1  0  0  0  0
 29 30  1  0  0  0  0
 30 31  1  0  0  0  0
 30 32  1  0  0  0  0
 31 32  1  0  0  0  0
M  END
>  <MODEL>
9

>  <REMARK>
 VINA RESULT:      -6.6      3.639      5.580
  Name = 
  5 active torsions:
  status: ('A' for Active; 'I' for Inactive)
    1  A    between atoms: C_1  and  C_10
    2  A    between atoms: C_8  and  C_23
    3  A    between atoms: C_10  and  C_24
    4  A    between atoms: C_19  and  C_23
    5  A    between atoms: C_19  and  C_24
                            x       y       z     vdW  Elec       q    Type
                         _______ _______ _______ _____ _____    ______ ____

>  <TORSDO>
F 5

$$$$
