=
 OpenBabel11052416583D

 32 36  0  0  1  0  0  0  0  0999 V2000
  187.5600  177.7670  146.1590 C   0  0  2  0  0  3  0  0  0  0  0  0
  186.4520  178.2270  142.0580 C   0  0  0  0  0  0  0  0  0  0  0  0
  181.7980  178.9520  143.4130 C   0  0  0  0  0  3  0  0  0  0  0  0
  181.3860  178.7820  141.9780 C   0  0  0  0  0  2  0  0  0  0  0  0
  188.1800  177.7890  143.7010 C   0  0  0  0  0  0  0  0  0  0  0  0
  185.7780  177.9930  144.3900 C   0  0  0  0  0  3  0  0  0  0  0  0
  186.6660  177.2200  147.0620 F   0  0  0  0  0  0  0  0  0  0  0  0
  183.0810  178.8660  143.7680 C   0  0  0  0  0  3  0  0  0  0  0  0
  185.4430  178.3050  143.1310 C   0  0  0  0  0  0  0  0  0  0  0  0
  184.1080  178.7040  142.7740 N   0  0  0  0  0  0  0  0  0  0  0  0
  184.7590  178.7990  140.4460 C   0  0  0  0  0  0  0  0  0  0  0  0
  189.9580  177.8090  145.4510 C   0  0  1  0  0  3  0  0  0  0  0  0
  187.1310  177.4310  144.7330 C   0  0  2  0  0  3  0  0  0  0  0  0
  189.4730  177.8840  144.0250 C   0  0  0  0  0  3  0  0  0  0  0  0
  188.9430  177.1760  146.4040 C   0  0  0  0  0  2  0  0  0  0  0  0
  182.4100  179.3970  141.0250 C   0  0  0  0  0  2  0  0  0  0  0  0
  183.7960  178.9300  141.3820 C   0  0  0  0  0  0  0  0  0  0  0  0
  187.7900  177.9800  142.3740 O   0  0  0  0  0  0  0  0  0  0  0  0
  186.1030  178.4500  140.8270 N   0  0  0  0  0  0  0  0  0  0  0  0
  191.2740  177.1110  145.5290 C   0  0  0  0  0  0  0  0  0  0  0  0
  191.8120  176.6500  144.4840 O   0  0  0  0  0  0  0  0  0  0  0  0
  191.9000  176.9790  146.7690 O   0  0  0  0  0  0  0  0  0  0  0  0
  192.2860  175.7130  147.2820 C   0  0  0  0  0  1  0  0  0  0  0  0
  184.4750  179.0580  138.9970 C   0  0  0  0  0  2  0  0  0  0  0  0
  188.8520  178.7270  136.9020 C   0  0  0  0  0  1  0  0  0  0  0  0
  186.6080  178.7890  137.9230 N   0  0  0  0  0  0  0  0  0  0  0  0
  185.0040  177.1030  137.6030 C   0  0  0  0  0  0  0  0  0  0  0  0
  185.8920  176.4030  136.7890 C   0  0  0  0  0  3  0  0  0  0  0  0
  187.1590  176.9270  136.5530 C   0  0  0  0  0  3  0  0  0  0  0  0
  187.5070  178.1420  137.1370 C   0  0  0  0  0  0  0  0  0  0  0  0
  183.8560  176.6280  137.8210 O   0  0  0  0  0  0  0  0  0  0  0  0
  185.3890  178.2930  138.1570 N   0  0  0  0  0  0  0  0  0  0  0  0
  1 15  1  0  0  0  0
  1  7  1  1  0  0  0
  2 18  1  0  0  0  0
  2  9  1  0  0  0  0
  3  8  2  0  0  0  0
  4  3  1  0  0  0  0
  5 14  2  0  0  0  0
  5 13  1  0  0  0  0
  9  6  2  0  0  0  0
 10  9  1  0  0  0  0
 10  8  1  0  0  0  0
 11 19  1  0  0  0  0
 11 17  2  0  0  0  0
 12 20  1  6  0  0  0
 12 15  1  0  0  0  0
 13  6  1  6  0  0  0
 13  1  1  0  0  0  0
 14 12  1  0  0  0  0
 16 17  1  0  0  0  0
 16  4  1  0  0  0  0
 17 10  1  0  0  0  0
 18  5  1  0  0  0  0
 19  2  2  0  0  0  0
 20 22  1  0  0  0  0
 21 20  2  0  0  0  0
 22 23  1  0  0  0  0
 24 11  1  0  0  0  0
 25 30  1  0  0  0  0
 26 32  1  0  0  0  0
 27 31  2  0  0  0  0
 27 32  1  0  0  0  0
 28 27  1  0  0  0  0
 29 28  2  0  0  0  0
 29 30  1  0  0  0  0
 30 26  2  0  0  0  0
 32 24  1  0  0  0  0
M  END
>  <MODEL>
1

>  <REMARK>
 VINA RESULT:     -10.0      0.000      0.000
  Name = 
  4 active torsions:
  status: ('A' for Active; 'I' for Inactive)
    1  A    between atoms: C_1  and  O_10
    2  A    between atoms: C_1  and  C_19
    3  A    between atoms: C_16  and  C_27
    4  A    between atoms: C_27  and  N_32
                            x       y       z     vdW  Elec       q    Type
                         _______ _______ _______ _____ _____    ______ ____

>  <TORSDO>
F 4

$$$$
=
 OpenBabel11052416583D

 32 36  0  0  1  0  0  0  0  0999 V2000
  187.5910  177.7330  146.2570 C   0  0  2  0  0  3  0  0  0  0  0  0
  186.4440  178.2600  142.1740 C   0  0  0  0  0  0  0  0  0  0  0  0
  181.7970  178.9310  143.5830 C   0  0  0  0  0  3  0  0  0  0  0  0
  181.3740  178.7840  142.1500 C   0  0  0  0  0  2  0  0  0  0  0  0
  188.1890  177.8030  143.7940 C   0  0  0  0  0  0  0  0  0  0  0  0
  185.7930  177.9790  144.5070 C   0  0  0  0  0  3  0  0  0  0  0  0
  186.7090  177.1630  147.1570 F   0  0  0  0  0  0  0  0  0  0  0  0
  183.0850  178.8470  143.9250 C   0  0  0  0  0  3  0  0  0  0  0  0
  185.4440  178.3120  143.2580 C   0  0  0  0  0  0  0  0  0  0  0  0
  184.1040  178.7090  142.9200 N   0  0  0  0  0  0  0  0  0  0  0  0
  184.7330  178.8500  140.5880 C   0  0  0  0  0  0  0  0  0  0  0  0
  189.9830  177.8020  145.5270 C   0  0  1  0  0  3  0  0  0  0  0  0
  187.1520  177.4190  144.8280 C   0  0  2  0  0  3  0  0  0  0  0  0
  189.4840  177.9000  144.1080 C   0  0  0  0  0  3  0  0  0  0  0  0
  188.9800  177.1450  146.4780 C   0  0  0  0  0  2  0  0  0  0  0  0
  182.3850  179.4230  141.1990 C   0  0  0  0  0  2  0  0  0  0  0  0
  183.7780  178.9580  141.5350 C   0  0  0  0  0  0  0  0  0  0  0  0
  187.7860  178.0150  142.4730 O   0  0  0  0  0  0  0  0  0  0  0  0
  186.0830  178.5030  140.9510 N   0  0  0  0  0  0  0  0  0  0  0  0
  191.3040  177.1110  145.5810 C   0  0  0  0  0  0  0  0  0  0  0  0
  191.8350  176.6740  144.5230 O   0  0  0  0  0  0  0  0  0  0  0  0
  191.9400  176.9590  146.8130 O   0  0  0  0  0  0  0  0  0  0  0  0
  192.3510  175.6870  147.2920 C   0  0  0  0  0  1  0  0  0  0  0  0
  184.4340  179.1340  139.1470 C   0  0  0  0  0  2  0  0  0  0  0  0
  182.8650  174.7780  137.6580 C   0  0  0  0  0  1  0  0  0  0  0  0
  183.7510  176.9760  138.3410 N   0  0  0  0  0  0  0  0  0  0  0  0
  185.8170  177.8150  137.6010 C   0  0  0  0  0  0  0  0  0  0  0  0
  186.0250  176.6590  136.8500 C   0  0  0  0  0  3  0  0  0  0  0  0
  185.0610  175.6550  136.8610 C   0  0  0  0  0  3  0  0  0  0  0  0
  183.9100  175.8330  137.6250 C   0  0  0  0  0  0  0  0  0  0  0  0
  186.6880  178.7260  137.5890 O   0  0  0  0  0  0  0  0  0  0  0  0
  184.6710  177.9450  138.3360 N   0  0  0  0  0  0  0  0  0  0  0  0
  1 15  1  0  0  0  0
  1  7  1  1  0  0  0
  2 18  1  0  0  0  0
  2  9  1  0  0  0  0
  3  8  2  0  0  0  0
  4  3  1  0  0  0  0
  5 14  2  0  0  0  0
  5 13  1  0  0  0  0
  9  6  2  0  0  0  0
 10  9  1  0  0  0  0
 10  8  1  0  0  0  0
 11 19  1  0  0  0  0
 11 17  2  0  0  0  0
 12 20  1  6  0  0  0
 12 15  1  0  0  0  0
 13  6  1  6  0  0  0
 13  1  1  0  0  0  0
 14 12  1  0  0  0  0
 16 17  1  0  0  0  0
 16  4  1  0  0  0  0
 17 10  1  0  0  0  0
 18  5  1  0  0  0  0
 19  2  2  0  0  0  0
 20 22  1  0  0  0  0
 21 20  2  0  0  0  0
 22 23  1  0  0  0  0
 24 11  1  0  0  0  0
 27 32  1  0  0  0  0
 28 29  2  0  0  0  0
 28 27  1  0  0  0  0
 29 30  1  0  0  0  0
 30 25  1  0  0  0  0
 30 26  2  0  0  0  0
 31 27  2  0  0  0  0
 32 26  1  0  0  0  0
 32 24  1  0  0  0  0
M  END
>  <MODEL>
2

>  <REMARK>
 VINA RESULT:      -9.9      1.039      1.794
  Name = 
  4 active torsions:
  status: ('A' for Active; 'I' for Inactive)
    1  A    between atoms: C_1  and  O_10
    2  A    between atoms: C_1  and  C_19
    3  A    between atoms: C_16  and  C_27
    4  A    between atoms: C_27  and  N_32
                            x       y       z     vdW  Elec       q    Type
                         _______ _______ _______ _____ _____    ______ ____

>  <TORSDO>
F 4

$$$$
=
 OpenBabel11052416583D

 32 36  0  0  1  0  0  0  0  0999 V2000
  187.7160  177.6260  146.0290 C   0  0  2  0  0  3  0  0  0  0  0  0
  187.5610  177.9590  141.7710 C   0  0  0  0  0  0  0  0  0  0  0  0
  182.7560  178.8900  142.0350 C   0  0  0  0  0  3  0  0  0  0  0  0
  182.6650  178.6770  140.5510 C   0  0  0  0  0  2  0  0  0  0  0  0
  188.8640  177.5290  143.7700 C   0  0  0  0  0  0  0  0  0  0  0  0
  186.3800  177.8400  143.9010 C   0  0  0  0  0  3  0  0  0  0  0  0
  186.6240  177.1440  146.7270 F   0  0  0  0  0  0  0  0  0  0  0  0
  183.9250  178.7760  142.6690 C   0  0  0  0  0  3  0  0  0  0  0  0
  186.3430  178.1120  142.5910 C   0  0  0  0  0  0  0  0  0  0  0  0
  185.1380  178.5410  141.9340 N   0  0  0  0  0  0  0  0  0  0  0  0
  186.2900  178.5210  139.8060 C   0  0  0  0  0  0  0  0  0  0  0  0
  190.2110  177.5600  145.8690 C   0  0  1  0  0  3  0  0  0  0  0  0
  187.5990  177.2470  144.5540 C   0  0  2  0  0  3  0  0  0  0  0  0
  190.0560  177.5940  144.3700 C   0  0  0  0  0  3  0  0  0  0  0  0
  188.9850  176.9990  146.5930 C   0  0  0  0  0  2  0  0  0  0  0  0
  183.8980  179.2190  139.8300 C   0  0  0  0  0  2  0  0  0  0  0  0
  185.1510  178.7210  140.5010 C   0  0  0  0  0  0  0  0  0  0  0  0
  188.7840  177.6800  142.3840 O   0  0  0  0  0  0  0  0  0  0  0  0
  187.5020  178.1440  140.4870 N   0  0  0  0  0  0  0  0  0  0  0  0
  191.4480  176.8220  146.2600 C   0  0  0  0  0  0  0  0  0  0  0  0
  192.0850  176.1510  145.4010 O   0  0  0  0  0  0  0  0  0  0  0  0
  191.8890  176.8890  147.5810 O   0  0  0  0  0  0  0  0  0  0  0  0
  192.6890  175.8670  148.1560 C   0  0  0  0  0  1  0  0  0  0  0  0
  186.3440  178.7320  138.3230 C   0  0  0  0  0  2  0  0  0  0  0  0
  187.7170  174.3200  136.8030 C   0  0  0  0  0  1  0  0  0  0  0  0
  187.1210  176.5990  137.5350 N   0  0  0  0  0  0  0  0  0  0  0  0
  188.5990  178.4210  137.3950 C   0  0  0  0  0  0  0  0  0  0  0  0
  189.5780  177.5940  136.8460 C   0  0  0  0  0  3  0  0  0  0  0  0
  189.2980  176.2450  136.6470 C   0  0  0  0  0  3  0  0  0  0  0  0
  188.0440  175.7560  137.0020 C   0  0  0  0  0  0  0  0  0  0  0  0
  188.8500  179.6430  137.5730 O   0  0  0  0  0  0  0  0  0  0  0  0
  187.3800  177.8960  137.7300 N   0  0  0  0  0  0  0  0  0  0  0  0
  1 15  1  0  0  0  0
  1  7  1  1  0  0  0
  2 18  1  0  0  0  0
  2  9  1  0  0  0  0
  3  8  2  0  0  0  0
  4  3  1  0  0  0  0
  5 14  2  0  0  0  0
  5 13  1  0  0  0  0
  9  6  2  0  0  0  0
 10  9  1  0  0  0  0
 10  8  1  0  0  0  0
 11 19  1  0  0  0  0
 11 17  2  0  0  0  0
 12 20  1  6  0  0  0
 12 15  1  0  0  0  0
 13  6  1  6  0  0  0
 13  1  1  0  0  0  0
 14 12  1  0  0  0  0
 16 17  1  0  0  0  0
 16  4  1  0  0  0  0
 17 10  1  0  0  0  0
 18  5  1  0  0  0  0
 19  2  2  0  0  0  0
 20 22  1  0  0  0  0
 21 20  2  0  0  0  0
 22 23  1  0  0  0  0
 24 11  1  0  0  0  0
 25 30  1  0  0  0  0
 26 32  1  0  0  0  0
 27 31  2  0  0  0  0
 27 32  1  0  0  0  0
 28 27  1  0  0  0  0
 29 28  2  0  0  0  0
 29 30  1  0  0  0  0
 30 26  2  0  0  0  0
 32 24  1  0  0  0  0
M  END
>  <MODEL>
3

>  <REMARK>
 VINA RESULT:      -9.7      1.547      2.094
  Name = 
  4 active torsions:
  status: ('A' for Active; 'I' for Inactive)
    1  A    between atoms: C_1  and  O_10
    2  A    between atoms: C_1  and  C_19
    3  A    between atoms: C_16  and  C_27
    4  A    between atoms: C_27  and  N_32
                            x       y       z     vdW  Elec       q    Type
                         _______ _______ _______ _____ _____    ______ ____

>  <TORSDO>
F 4

$$$$
=
 OpenBabel11052416583D

 32 36  0  0  1  0  0  0  0  0999 V2000
  183.3020  178.5520  144.3210 C   0  0  2  0  0  3  0  0  0  0  0  0
  186.2800  178.5700  141.2570 C   0  0  0  0  0  0  0  0  0  0  0  0
  189.6600  177.2620  144.5570 C   0  0  0  0  0  3  0  0  0  0  0  0
  190.7250  177.5930  143.5510 C   0  0  0  0  0  2  0  0  0  0  0  0
  183.9710  178.9250  141.9040 C   0  0  0  0  0  0  0  0  0  0  0  0
  185.7210  178.4200  143.6260 C   0  0  0  0  0  3  0  0  0  0  0  0
  183.6400  178.8900  145.6200 F   0  0  0  0  0  0  0  0  0  0  0  0
  188.3690  177.4100  144.2540 C   0  0  0  0  0  3  0  0  0  0  0  0
  186.6300  178.2570  142.6560 C   0  0  0  0  0  0  0  0  0  0  0  0
  187.9650  177.7970  142.9300 N   0  0  0  0  0  0  0  0  0  0  0  0
  188.5420  178.0830  140.5980 C   0  0  0  0  0  0  0  0  0  0  0  0
  181.5620  178.8170  142.5440 C   0  0  1  0  0  3  0  0  0  0  0  0
  184.3790  179.0440  143.3580 C   0  0  2  0  0  3  0  0  0  0  0  0
  182.6850  178.8990  141.5420 C   0  0  0  0  0  3  0  0  0  0  0  0
  181.9820  179.2220  143.9590 C   0  0  0  0  0  2  0  0  0  0  0  0
  190.2980  177.2080  142.1350 C   0  0  0  0  0  2  0  0  0  0  0  0
  188.9190  177.7400  141.8470 C   0  0  0  0  0  0  0  0  0  0  0  0
  184.9620  178.8870  140.9210 O   0  0  0  0  0  0  0  0  0  0  0  0
  187.1870  178.4910  140.3310 N   0  0  0  0  0  0  0  0  0  0  0  0
  180.3830  179.6100  142.0890 C   0  0  0  0  0  0  0  0  0  0  0  0
  179.9920  180.6070  142.7570 O   0  0  0  0  0  0  0  0  0  0  0  0
  179.7250  179.2350  140.9170 O   0  0  0  0  0  0  0  0  0  0  0  0
  179.0580  177.9880  140.7990 C   0  0  0  0  0  1  0  0  0  0  0  0
  189.5010  178.0030  139.4470 C   0  0  0  0  0  2  0  0  0  0  0  0
  187.3130  174.5320  136.8330 C   0  0  0  0  0  1  0  0  0  0  0  0
  188.3920  176.3690  138.0770 N   0  0  0  0  0  0  0  0  0  0  0  0
  188.5660  178.5580  137.2420 C   0  0  0  0  0  0  0  0  0  0  0  0
  187.9050  178.1740  136.0770 C   0  0  0  0  0  3  0  0  0  0  0  0
  187.4890  176.8540  135.9330 C   0  0  0  0  0  3  0  0  0  0  0  0
  187.7440  175.9490  136.9600 C   0  0  0  0  0  0  0  0  0  0  0  0
  188.9410  179.7540  137.3760 O   0  0  0  0  0  0  0  0  0  0  0  0
  188.7950  177.6350  138.2250 N   0  0  0  0  0  0  0  0  0  0  0  0
  1  7  1  1  0  0  0
  2  9  1  0  0  0  0
  4  3  1  0  0  0  0
  5 13  1  0  0  0  0
  8  3  2  0  0  0  0
  9 10  1  0  0  0  0
  9  6  2  0  0  0  0
 10  8  1  0  0  0  0
 11 17  2  0  0  0  0
 12 20  1  6  0  0  0
 12 15  1  0  0  0  0
 13  6  1  6  0  0  0
 13  1  1  0  0  0  0
 14  5  2  0  0  0  0
 14 12  1  0  0  0  0
 15  1  1  0  0  0  0
 16  4  1  0  0  0  0
 17 16  1  0  0  0  0
 17 10  1  0  0  0  0
 18  2  1  0  0  0  0
 18  5  1  0  0  0  0
 19 11  1  0  0  0  0
 19  2  2  0  0  0  0
 20 21  2  0  0  0  0
 22 20  1  0  0  0  0
 23 22  1  0  0  0  0
 24 11  1  0  0  0  0
 25 30  1  0  0  0  0
 26 32  1  0  0  0  0
 27 31  2  0  0  0  0
 27 32  1  0  0  0  0
 28 27  1  0  0  0  0
 29 28  2  0  0  0  0
 29 30  1  0  0  0  0
 30 26  2  0  0  0  0
 32 24  1  0  0  0  0
M  END
>  <MODEL>
4

>  <REMARK>
 VINA RESULT:      -9.5      2.984      6.681
  Name = 
  4 active torsions:
  status: ('A' for Active; 'I' for Inactive)
    1  A    between atoms: C_1  and  O_10
    2  A    between atoms: C_1  and  C_19
    3  A    between atoms: C_16  and  C_27
    4  A    between atoms: C_27  and  N_32
                            x       y       z     vdW  Elec       q    Type
                         _______ _______ _______ _____ _____    ______ ____

>  <TORSDO>
F 4

$$$$
=
 OpenBabel11052416583D

 32 36  0  0  1  0  0  0  0  0999 V2000
  187.1870  178.0390  144.9860 C   0  0  2  0  0  3  0  0  0  0  0  0
  189.1310  177.6070  141.2050 C   0  0  0  0  0  0  0  0  0  0  0  0
  184.9120  178.6450  138.9360 C   0  0  0  0  0  3  0  0  0  0  0  0
  185.5240  178.1710  137.6490 C   0  0  0  0  0  2  0  0  0  0  0  0
  189.2630  177.5220  143.6240 C   0  0  0  0  0  0  0  0  0  0  0  0
  187.0670  177.8890  142.4720 C   0  0  0  0  0  3  0  0  0  0  0  0
  185.8510  177.7070  145.1210 F   0  0  0  0  0  0  0  0  0  0  0  0
  185.6150  178.6280  140.0710 C   0  0  0  0  0  3  0  0  0  0  0  0
  187.6920  177.9240  141.2890 C   0  0  0  0  0  0  0  0  0  0  0  0
  187.0010  178.2460  140.0700 N   0  0  0  0  0  0  0  0  0  0  0  0
  189.0250  177.8290  138.8110 C   0  0  0  0  0  0  0  0  0  0  0  0
  189.4310  177.9070  146.0830 C   0  0  1  0  0  3  0  0  0  0  0  0
  187.7560  177.4040  143.7190 C   0  0  2  0  0  3  0  0  0  0  0  0
  190.0190  177.6750  144.7150 C   0  0  0  0  0  3  0  0  0  0  0  0
  187.9590  177.5040  146.1870 C   0  0  0  0  0  2  0  0  0  0  0  0
  187.0000  178.5560  137.5540 C   0  0  0  0  0  2  0  0  0  0  0  0
  187.7190  178.1670  138.8190 C   0  0  0  0  0  0  0  0  0  0  0  0
  189.8750  177.4240  142.3730 O   0  0  0  0  0  0  0  0  0  0  0  0
  189.7150  177.5600  140.0460 N   0  0  0  0  0  0  0  0  0  0  0  0
  190.2460  177.2330  147.1350 C   0  0  0  0  0  0  0  0  0  0  0  0
  189.9890  177.4230  148.3570 O   0  0  0  0  0  0  0  0  0  0  0  0
  191.2890  176.3900  146.7500 O   0  0  0  0  0  0  0  0  0  0  0  0
  192.1120  175.7340  147.7020 C   0  0  0  0  0  1  0  0  0  0  0  0
  189.8050  177.7700  137.5330 C   0  0  0  0  0  2  0  0  0  0  0  0
  193.9490  175.2530  137.9270 C   0  0  0  0  0  1  0  0  0  0  0  0
  191.7930  176.4300  137.7020 N   0  0  0  0  0  0  0  0  0  0  0  0
  189.8170  175.3700  137.0020 C   0  0  0  0  0  0  0  0  0  0  0  0
  190.5000  174.1610  136.8800 C   0  0  0  0  0  3  0  0  0  0  0  0
  191.8570  174.1110  137.1830 C   0  0  0  0  0  3  0  0  0  0  0  0
  192.5000  175.2740  137.5990 C   0  0  0  0  0  0  0  0  0  0  0  0
  188.5860  175.4160  136.7310 O   0  0  0  0  0  0  0  0  0  0  0  0
  190.4890  176.4880  137.4150 N   0  0  0  0  0  0  0  0  0  0  0  0
  1  7  1  1  0  0  0
  1 15  1  0  0  0  0
  2  9  1  0  0  0  0
  2 18  1  0  0  0  0
  3  8  2  0  0  0  0
  4  3  1  0  0  0  0
  5 13  1  0  0  0  0
  5 14  2  0  0  0  0
  9  6  2  0  0  0  0
 10  8  1  0  0  0  0
 10  9  1  0  0  0  0
 11 17  2  0  0  0  0
 11 19  1  0  0  0  0
 12 15  1  0  0  0  0
 12 20  1  1  0  0  0
 13  6  1  6  0  0  0
 13  1  1  0  0  0  0
 14 12  1  0  0  0  0
 16  4  1  0  0  0  0
 16 17  1  0  0  0  0
 17 10  1  0  0  0  0
 18  5  1  0  0  0  0
 19  2  2  0  0  0  0
 20 21  2  0  0  0  0
 22 20  1  0  0  0  0
 22 23  1  0  0  0  0
 24 11  1  0  0  0  0
 27 32  1  0  0  0  0
 28 27  1  0  0  0  0
 28 29  2  0  0  0  0
 29 30  1  0  0  0  0
 30 26  2  0  0  0  0
 30 25  1  0  0  0  0
 31 27  2  0  0  0  0
 32 24  1  0  0  0  0
 32 26  1  0  0  0  0
M  END
>  <MODEL>
5

>  <REMARK>
 VINA RESULT:      -9.0      2.862      4.077
  Name = 
  4 active torsions:
  status: ('A' for Active; 'I' for Inactive)
    1  A    between atoms: C_1  and  O_10
    2  A    between atoms: C_1  and  C_19
    3  A    between atoms: C_16  and  C_27
    4  A    between atoms: C_27  and  N_32
                            x       y       z     vdW  Elec       q    Type
                         _______ _______ _______ _____ _____    ______ ____

>  <TORSDO>
F 4

$$$$
=
 OpenBabel11052416583D

 32 36  0  0  1  0  0  0  0  0999 V2000
  190.4520  176.6020  144.3150 C   0  0  2  0  0  3  0  0  0  0  0  0
  187.9560  178.0190  141.1490 C   0  0  0  0  0  0  0  0  0  0  0  0
  191.1670  176.3010  137.8690 C   0  0  0  0  0  3  0  0  0  0  0  0
  190.4530  177.0840  136.8050 C   0  0  0  0  0  2  0  0  0  0  0  0
  188.3580  177.7970  143.5290 C   0  0  0  0  0  0  0  0  0  0  0  0
  190.0830  177.0650  141.8640 C   0  0  0  0  0  3  0  0  0  0  0  0
  191.8260  176.5730  144.1550 F   0  0  0  0  0  0  0  0  0  0  0  0
  190.7480  176.3320  139.1350 C   0  0  0  0  0  3  0  0  0  0  0  0
  189.2400  177.3500  140.8630 C   0  0  0  0  0  0  0  0  0  0  0  0
  189.5480  177.0400  139.4940 N   0  0  0  0  0  0  0  0  0  0  0  0
  187.4980  178.1130  138.7880 C   0  0  0  0  0  0  0  0  0  0  0  0
  188.6070  177.1280  145.9190 C   0  0  1  0  0  3  0  0  0  0  0  0
  189.8260  177.5270  143.2720 C   0  0  2  0  0  3  0  0  0  0  0  0
  187.8330  177.6860  144.7520 C   0  0  0  0  0  3  0  0  0  0  0  0
  190.1220  177.1390  145.7020 C   0  0  0  0  0  2  0  0  0  0  0  0
  188.9420  177.0910  137.0330 C   0  0  0  0  0  2  0  0  0  0  0  0
  188.6350  177.4660  138.4590 C   0  0  0  0  0  0  0  0  0  0  0  0
  187.5500  178.2170  142.4700 O   0  0  0  0  0  0  0  0  0  0  0  0
  187.1790  178.3690  140.1690 N   0  0  0  0  0  0  0  0  0  0  0  0
  188.2430  177.8300  147.1840 C   0  0  0  0  0  0  0  0  0  0  0  0
  189.1430  178.3320  147.9140 O   0  0  0  0  0  0  0  0  0  0  0  0
  186.8990  177.9260  147.5450 O   0  0  0  0  0  0  0  0  0  0  0  0
  186.1150  179.0640  147.2170 C   0  0  0  0  0  1  0  0  0  0  0  0
  186.5140  178.5390  137.7400 C   0  0  0  0  0  2  0  0  0  0  0  0
  183.3650  174.8350  137.5790 C   0  0  0  0  0  1  0  0  0  0  0  0
  184.8830  176.7730  137.7210 N   0  0  0  0  0  0  0  0  0  0  0  0
  184.2570  178.8290  138.6700 C   0  0  0  0  0  0  0  0  0  0  0  0
  182.9870  178.3240  138.9450 C   0  0  0  0  0  3  0  0  0  0  0  0
  182.6840  177.0120  138.5910 C   0  0  0  0  0  3  0  0  0  0  0  0
  183.6600  176.2380  137.9690 C   0  0  0  0  0  0  0  0  0  0  0  0
  184.5340  180.0160  138.9920 O   0  0  0  0  0  0  0  0  0  0  0  0
  185.1840  178.0310  138.0570 N   0  0  0  0  0  0  0  0  0  0  0  0
  1  7  1  6  0  0  0
  1 15  1  0  0  0  0
  2 18  1  0  0  0  0
  3  8  2  0  0  0  0
  4 16  1  0  0  0  0
  4  3  1  0  0  0  0
  5 14  2  0  0  0  0
  8 10  1  0  0  0  0
  9  2  1  0  0  0  0
  9  6  2  0  0  0  0
 10  9  1  0  0  0  0
 11 19  1  0  0  0  0
 12 20  1  1  0  0  0
 13  6  1  6  0  0  0
 13  5  1  0  0  0  0
 13  1  1  0  0  0  0
 14 12  1  0  0  0  0
 15 12  1  0  0  0  0
 16 17  1  0  0  0  0
 17 11  2  0  0  0  0
 17 10  1  0  0  0  0
 18  5  1  0  0  0  0
 19  2  2  0  0  0  0
 20 22  1  0  0  0  0
 20 21  2  0  0  0  0
 23 22  1  0  0  0  0
 24 32  1  0  0  0  0
 24 11  1  0  0  0  0
 25 30  1  0  0  0  0
 26 30  2  0  0  0  0
 26 32  1  0  0  0  0
 27 28  1  0  0  0  0
 27 31  2  0  0  0  0
 29 28  2  0  0  0  0
 30 29  1  0  0  0  0
 32 27  1  0  0  0  0
M  END
>  <MODEL>
6

>  <REMARK>
 VINA RESULT:      -8.9      2.623      5.123
  Name = 
  4 active torsions:
  status: ('A' for Active; 'I' for Inactive)
    1  A    between atoms: C_1  and  O_10
    2  A    between atoms: C_1  and  C_19
    3  A    between atoms: C_16  and  C_27
    4  A    between atoms: C_27  and  N_32
                            x       y       z     vdW  Elec       q    Type
                         _______ _______ _______ _____ _____    ______ ____

>  <TORSDO>
F 4

$$$$
=
 OpenBabel11052416583D

 32 36  0  0  1  0  0  0  0  0999 V2000
  190.9210  176.9780  143.3260 C   0  0  2  0  0  3  0  0  0  0  0  0
  187.3100  178.2590  141.4340 C   0  0  0  0  0  0  0  0  0  0  0  0
  189.4250  177.6920  137.0490 C   0  0  0  0  0  3  0  0  0  0  0  0
  188.2810  178.4460  136.4340 C   0  0  0  0  0  2  0  0  0  0  0  0
  188.5310  177.8100  143.4800 C   0  0  0  0  0  0  0  0  0  0  0  0
  189.6710  177.6770  141.2510 C   0  0  0  0  0  3  0  0  0  0  0  0
  192.1450  177.2550  142.7440 F   0  0  0  0  0  0  0  0  0  0  0  0
  189.4640  177.4670  138.3640 C   0  0  0  0  0  3  0  0  0  0  0  0
  188.5040  177.9130  140.6390 C   0  0  0  0  0  0  0  0  0  0  0  0
  188.3680  177.8580  139.2080 N   0  0  0  0  0  0  0  0  0  0  0  0
  186.0630  178.5690  139.3990 C   0  0  0  0  0  0  0  0  0  0  0  0
  189.6800  176.8940  145.4960 C   0  0  1  0  0  3  0  0  0  0  0  0
  189.8450  177.8840  142.7310 C   0  0  2  0  0  3  0  0  0  0  0  0
  188.4790  177.4300  144.7600 C   0  0  0  0  0  3  0  0  0  0  0  0
  191.0090  177.2450  144.8240 C   0  0  0  0  0  2  0  0  0  0  0  0
  186.9560  178.1100  137.1180 C   0  0  0  0  0  2  0  0  0  0  0  0
  187.1030  178.2200  138.6130 C   0  0  0  0  0  0  0  0  0  0  0  0
  187.3560  178.1900  142.8280 O   0  0  0  0  0  0  0  0  0  0  0  0
  186.2010  178.5680  140.8330 N   0  0  0  0  0  0  0  0  0  0  0  0
  189.6690  177.3310  146.9220 C   0  0  0  0  0  0  0  0  0  0  0  0
  190.6400  177.0500  147.6800 O   0  0  0  0  0  0  0  0  0  0  0  0
  188.5780  178.0540  147.4030 O   0  0  0  0  0  0  0  0  0  0  0  0
  188.1120  177.9090  148.7360 C   0  0  0  0  0  1  0  0  0  0  0  0
  184.7280  178.9190  138.8130 C   0  0  0  0  0  2  0  0  0  0  0  0
  183.2850  174.4540  137.5290 C   0  0  0  0  0  1  0  0  0  0  0  0
  183.9350  176.7180  138.2630 N   0  0  0  0  0  0  0  0  0  0  0  0
  182.7670  177.9200  139.9090 C   0  0  0  0  0  0  0  0  0  0  0  0
  181.8720  176.8610  140.0570 C   0  0  0  0  0  3  0  0  0  0  0  0
  182.0340  175.7180  139.2810 C   0  0  0  0  0  3  0  0  0  0  0  0
  183.0880  175.6610  138.3730 C   0  0  0  0  0  0  0  0  0  0  0  0
  182.6240  178.9550  140.6140 O   0  0  0  0  0  0  0  0  0  0  0  0
  183.7880  177.8200  139.0040 N   0  0  0  0  0  0  0  0  0  0  0  0
  1  7  1  6  0  0  0
  1 15  1  0  0  0  0
  2 18  1  0  0  0  0
  3  8  2  0  0  0  0
  4  3  1  0  0  0  0
  4 16  1  0  0  0  0
  5 14  2  0  0  0  0
  8 10  1  0  0  0  0
  9  6  2  0  0  0  0
  9  2  1  0  0  0  0
 10  9  1  0  0  0  0
 11 19  1  0  0  0  0
 12 20  1  1  0  0  0
 13  6  1  6  0  0  0
 13  1  1  0  0  0  0
 13  5  1  0  0  0  0
 14 12  1  0  0  0  0
 15 12  1  0  0  0  0
 16 17  1  0  0  0  0
 17 10  1  0  0  0  0
 17 11  2  0  0  0  0
 18  5  1  0  0  0  0
 19  2  2  0  0  0  0
 20 22  1  0  0  0  0
 20 21  2  0  0  0  0
 22 23  1  0  0  0  0
 24 32  1  0  0  0  0
 24 11  1  0  0  0  0
 25 30  1  0  0  0  0
 26 30  2  0  0  0  0
 26 32  1  0  0  0  0
 27 28  1  0  0  0  0
 27 31  2  0  0  0  0
 29 28  2  0  0  0  0
 30 29  1  0  0  0  0
 32 27  1  0  0  0  0
M  END
>  <MODEL>
7

>  <REMARK>
 VINA RESULT:      -8.8      2.424      4.701
  Name = 
  4 active torsions:
  status: ('A' for Active; 'I' for Inactive)
    1  A    between atoms: C_1  and  O_10
    2  A    between atoms: C_1  and  C_19
    3  A    between atoms: C_16  and  C_27
    4  A    between atoms: C_27  and  N_32
                            x       y       z     vdW  Elec       q    Type
                         _______ _______ _______ _____ _____    ______ ____

>  <TORSDO>
F 4

$$$$
=
 OpenBabel11052416583D

 32 36  0  0  1  0  0  0  0  0999 V2000
  191.1580  177.2420  138.9840 C   0  0  2  0  0  3  0  0  0  0  0  0
  188.2960  177.5620  142.1410 C   0  0  0  0  0  0  0  0  0  0  0  0
  191.8230  176.6190  145.4120 C   0  0  0  0  0  3  0  0  0  0  0  0
  190.7600  176.4110  146.4520 C   0  0  0  0  0  2  0  0  0  0  0  0
  188.7760  177.6200  139.7660 C   0  0  0  0  0  0  0  0  0  0  0  0
  190.5490  176.9740  141.4150 C   0  0  0  0  0  3  0  0  0  0  0  0
  192.2280  176.3740  139.1030 F   0  0  0  0  0  0  0  0  0  0  0  0
  191.4960  176.9410  144.1580 C   0  0  0  0  0  3  0  0  0  0  0  0
  189.7070  177.2340  142.4240 C   0  0  0  0  0  0  0  0  0  0  0  0
  190.1270  177.1900  143.7990 N   0  0  0  0  0  0  0  0  0  0  0  0
  187.8570  177.6390  144.5060 C   0  0  0  0  0  0  0  0  0  0  0  0
  189.4240  178.1190  137.4090 C   0  0  1  0  0  3  0  0  0  0  0  0
  190.0720  176.8710  139.9920 C   0  0  2  0  0  3  0  0  0  0  0  0
  188.4580  178.1170  138.5670 C   0  0  0  0  0  3  0  0  0  0  0  0
  190.5770  177.1280  137.5790 C   0  0  0  0  0  2  0  0  0  0  0  0
  189.6000  177.3880  146.2700 C   0  0  0  0  0  2  0  0  0  0  0  0
  189.1410  177.3860  144.8360 C   0  0  0  0  0  0  0  0  0  0  0  0
  187.8740  177.7530  140.8240 O   0  0  0  0  0  0  0  0  0  0  0  0
  187.4640  177.7320  143.1240 N   0  0  0  0  0  0  0  0  0  0  0  0
  188.7090  177.8930  136.1190 C   0  0  0  0  0  0  0  0  0  0  0  0
  189.3350  177.4480  135.1160 O   0  0  0  0  0  0  0  0  0  0  0  0
  187.3460  178.1760  136.0400 O   0  0  0  0  0  0  0  0  0  0  0  0
  186.5820  177.8620  134.8850 C   0  0  0  0  0  1  0  0  0  0  0  0
  186.8170  177.8790  145.5590 C   0  0  0  0  0  2  0  0  0  0  0  0
  184.2650  178.5940  141.4800 C   0  0  0  0  0  1  0  0  0  0  0  0
  185.4630  178.2540  143.6090 N   0  0  0  0  0  0  0  0  0  0  0  0
  184.4790  178.6250  145.7100 C   0  0  0  0  0  0  0  0  0  0  0  0
  183.2860  178.9990  145.0930 C   0  0  0  0  0  3  0  0  0  0  0  0
  183.2050  178.9920  143.7040 C   0  0  0  0  0  3  0  0  0  0  0  0
  184.3210  178.6100  142.9640 C   0  0  0  0  0  0  0  0  0  0  0  0
  184.5530  178.6280  146.9680 O   0  0  0  0  0  0  0  0  0  0  0  0
  185.5500  178.2570  144.9430 N   0  0  0  0  0  0  0  0  0  0  0  0
  1  7  1  6  0  0  0
  1 13  1  0  0  0  0
  2  9  1  0  0  0  0
  2 19  2  0  0  0  0
  3  4  1  0  0  0  0
  5 13  1  0  0  0  0
  5 18  1  0  0  0  0
  6  9  2  0  0  0  0
  8  3  2  0  0  0  0
  9 10  1  0  0  0  0
 10  8  1  0  0  0  0
 10 17  1  0  0  0  0
 11 17  2  0  0  0  0
 11 24  1  0  0  0  0
 12 20  1  6  0  0  0
 12 15  1  0  0  0  0
 12 14  1  0  0  0  0
 13  6  1  1  0  0  0
 14  5  2  0  0  0  0
 15  1  1  0  0  0  0
 16  4  1  0  0  0  0
 17 16  1  0  0  0  0
 18  2  1  0  0  0  0
 19 11  1  0  0  0  0
 21 20  2  0  0  0  0
 22 20  1  0  0  0  0
 23 22  1  0  0  0  0
 25 30  1  0  0  0  0
 26 32  1  0  0  0  0
 27 31  2  0  0  0  0
 28 27  1  0  0  0  0
 29 28  2  0  0  0  0
 30 26  2  0  0  0  0
 30 29  1  0  0  0  0
 32 24  1  0  0  0  0
 32 27  1  0  0  0  0
M  END
>  <MODEL>
8

>  <REMARK>
 VINA RESULT:      -8.7      3.197      7.878
  Name = 
  4 active torsions:
  status: ('A' for Active; 'I' for Inactive)
    1  A    between atoms: C_1  and  O_10
    2  A    between atoms: C_1  and  C_19
    3  A    between atoms: C_16  and  C_27
    4  A    between atoms: C_27  and  N_32
                            x       y       z     vdW  Elec       q    Type
                         _______ _______ _______ _____ _____    ______ ____

>  <TORSDO>
F 4

$$$$
=
 OpenBabel11052416583D

 32 36  0  0  1  0  0  0  0  0999 V2000
  185.7590  178.2530  146.3300 C   0  0  2  0  0  3  0  0  0  0  0  0
  185.2620  178.2570  142.0860 C   0  0  0  0  0  0  0  0  0  0  0  0
  180.5590  179.5170  142.6540 C   0  0  0  0  0  3  0  0  0  0  0  0
  180.3300  179.1920  141.2060 C   0  0  0  0  0  2  0  0  0  0  0  0
  186.7030  177.9040  144.0030 C   0  0  0  0  0  0  0  0  0  0  0  0
  184.2610  178.3840  144.3060 C   0  0  0  0  0  3  0  0  0  0  0  0
  184.7040  177.9010  147.1520 F   0  0  0  0  0  0  0  0  0  0  0  0
  181.7690  179.3770  143.2000 C   0  0  0  0  0  3  0  0  0  0  0  0
  184.1290  178.5540  142.9840 C   0  0  0  0  0  0  0  0  0  0  0  0
  182.9000  179.0060  142.3920 N   0  0  0  0  0  0  0  0  0  0  0  0
  183.8630  178.7430  140.1890 C   0  0  0  0  0  0  0  0  0  0  0  0
  188.2240  178.0130  145.9770 C   0  0  1  0  0  3  0  0  0  0  0  0
  185.4950  177.7670  144.9070 C   0  0  2  0  0  3  0  0  0  0  0  0
  187.9430  177.9380  144.4980 C   0  0  0  0  0  3  0  0  0  0  0  0
  187.0330  177.5920  146.8420 C   0  0  0  0  0  2  0  0  0  0  0  0
  181.5260  179.5940  140.3450 C   0  0  0  0  0  2  0  0  0  0  0  0
  182.8010  179.0710  140.9530 C   0  0  0  0  0  0  0  0  0  0  0  0
  186.5150  177.9480  142.6200 O   0  0  0  0  0  0  0  0  0  0  0  0
  185.1040  178.3430  140.8000 N   0  0  0  0  0  0  0  0  0  0  0  0
  189.4440  177.2300  146.3290 C   0  0  0  0  0  0  0  0  0  0  0  0
  189.7220  176.9970  147.5380 O   0  0  0  0  0  0  0  0  0  0  0  0
  190.2660  176.7600  145.3060 O   0  0  0  0  0  0  0  0  0  0  0  0
  191.6800  176.7360  145.4330 C   0  0  0  0  0  1  0  0  0  0  0  0
  183.8020  178.8320  138.6930 C   0  0  0  0  0  2  0  0  0  0  0  0
  183.6820  174.1330  137.4410 C   0  0  0  0  0  1  0  0  0  0  0  0
  183.8470  176.5230  138.0260 N   0  0  0  0  0  0  0  0  0  0  0  0
  185.7650  177.8170  137.6160 C   0  0  0  0  0  0  0  0  0  0  0  0
  186.4030  176.7080  137.0610 C   0  0  0  0  0  3  0  0  0  0  0  0
  185.7270  175.4930  136.9980 C   0  0  0  0  0  3  0  0  0  0  0  0
  184.4280  175.4170  137.4930 C   0  0  0  0  0  0  0  0  0  0  0  0
  186.3750  178.9190  137.6710 O   0  0  0  0  0  0  0  0  0  0  0  0
  184.4880  177.6950  138.0900 N   0  0  0  0  0  0  0  0  0  0  0  0
  1 15  1  0  0  0  0
  1  7  1  1  0  0  0
  2 18  1  0  0  0  0
  2  9  1  0  0  0  0
  3  8  2  0  0  0  0
  4  3  1  0  0  0  0
  5 14  2  0  0  0  0
  5 13  1  0  0  0  0
  9  6  2  0  0  0  0
 10  9  1  0  0  0  0
 10  8  1  0  0  0  0
 11 19  1  0  0  0  0
 11 17  2  0  0  0  0
 12 20  1  6  0  0  0
 12 15  1  0  0  0  0
 13  6  1  6  0  0  0
 13  1  1  0  0  0  0
 14 12  1  0  0  0  0
 16 17  1  0  0  0  0
 16  4  1  0  0  0  0
 17 10  1  0  0  0  0
 18  5  1  0  0  0  0
 19  2  2  0  0  0  0
 20 21  2  0  0  0  0
 22 23  1  0  0  0  0
 22 20  1  0  0  0  0
 24 11  1  0  0  0  0
 25 30  1  0  0  0  0
 26 32  1  0  0  0  0
 27 31  2  0  0  0  0
 27 32  1  0  0  0  0
 28 27  1  0  0  0  0
 29 28  2  0  0  0  0
 29 30  1  0  0  0  0
 30 26  2  0  0  0  0
 32 24  1  0  0  0  0
M  END
>  <MODEL>
9

>  <REMARK>
 VINA RESULT:      -8.6      1.501      2.288
  Name = 
  4 active torsions:
  status: ('A' for Active; 'I' for Inactive)
    1  A    between atoms: C_1  and  O_10
    2  A    between atoms: C_1  and  C_19
    3  A    between atoms: C_16  and  C_27
    4  A    between atoms: C_27  and  N_32
                            x       y       z     vdW  Elec       q    Type
                         _______ _______ _______ _____ _____    ______ ____

>  <TORSDO>
F 4

$$$$
