=
 OpenBabel11052416473D

 32 37  0  0  1  0  0  0  0  0999 V2000
  187.4680  177.6040  137.6910 C   0  0  0  0  0  0  0  0  0  0  0  0
  187.3480  178.2640  141.9340 C   0  0  0  0  0  0  0  0  0  0  0  0
  182.4370  178.7770  142.4730 O   0  0  0  0  0  0  0  0  0  0  0  0
  182.7270  179.0270  143.8700 C   0  0  0  0  0  2  0  0  0  0  0  0
  188.7150  177.7980  144.1790 C   0  0  0  0  0  0  0  0  0  0  0  0
  188.6360  177.6320  145.5310 C   0  0  0  0  0  0  0  0  0  0  0  0
  188.6660  178.4110  139.7510 C   0  0  2  0  0  3  0  0  0  0  0  0
  186.1720  178.4310  139.7540 C   0  0  0  0  0  2  0  0  0  0  0  0
  188.2940  177.6590  148.3830 C   0  0  0  0  0  3  0  0  0  0  0  0
  186.8960  178.3830  136.7400 C   0  0  0  0  0  2  0  0  0  0  0  0
  183.5670  178.7830  141.5960 C   0  0  0  0  0  2  0  0  0  0  0  0
  186.1380  178.3160  141.2720 C   0  0  0  0  0  0  0  0  0  0  0  0
  184.9740  178.5000  142.0920 C   0  0  0  0  0  0  0  0  0  0  0  0
  186.2620  178.2480  144.0670 C   0  0  0  0  0  0  0  0  0  0  0  0
  189.6000  177.2400  147.6970 C   0  0  0  0  0  3  0  0  0  0  0  0
  189.7280  176.6950  138.2320 C   0  0  0  0  0  2  0  0  0  0  0  0
  187.4010  177.8040  139.1310 C   0  0  1  0  0  3  0  0  0  0  0  0
  189.7860  177.2140  146.3900 C   0  0  0  0  0  3  0  0  0  0  0  0
  189.9340  177.9220  139.0310 C   0  0  0  0  0  2  0  0  0  0  0  0
  188.6040  176.7740  137.3190 N   0  0  0  0  0  0  0  0  0  0  0  0
  183.9820  178.5050  144.2940 O   0  0  0  0  0  0  0  0  0  0  0  0
  185.1250  178.4420  143.4480 C   0  0  0  0  0  0  0  0  0  0  0  0
  186.3240  178.4560  145.4840 O   0  0  0  0  0  0  0  0  0  0  0  0
  188.6580  177.9220  141.1800 C   0  0  0  0  0  2  0  0  0  0  0  0
  189.9650  177.6930  143.5420 O   0  0  0  0  0  1  0  0  0  0  0  0
  187.1830  177.9070  147.7070 C   0  0  0  0  0  3  0  0  0  0  0  0
  187.4720  178.0280  143.3780 C   0  0  0  0  0  0  0  0  0  0  0  0
  187.2450  177.7360  146.2140 C   0  0  2  0  0  3  0  0  0  0  0  0
  188.7350  175.8990  136.0770 C   0  0  0  0  0  0  0  0  0  0  0  0
  189.1710  176.6100  134.7610 C   0  0  0  0  0  1  0  0  0  0  0  0
  189.8490  174.8190  136.2270 C   0  0  0  0  0  1  0  0  0  0  0  0
  187.4820  175.1200  135.7590 C   0  0  0  0  0  1  0  0  0  0  0  0
  1 17  1  0  0  0  0
  2 27  1  0  0  0  0
  3  4  1  0  0  0  0
  4 21  1  0  0  0  0
  5  6  2  0  0  0  0
  6 28  1  0  0  0  0
  6 18  1  0  0  0  0
  7 19  1  6  0  0  0
  7 24  1  0  0  0  0
  8 12  1  0  0  0  0
 10  1  2  0  0  0  0
 11 13  1  0  0  0  0
 11  3  1  0  0  0  0
 12  2  2  0  0  0  0
 12 13  1  0  0  0  0
 13 22  2  0  0  0  0
 14 23  1  0  0  0  0
 15  9  1  0  0  0  0
 16 19  1  0  0  0  0
 17  7  1  0  0  0  0
 17  8  1  6  0  0  0
 18 15  2  0  0  0  0
 20  1  1  0  0  0  0
 20 16  1  0  0  0  0
 22 14  1  0  0  0  0
 22 21  1  0  0  0  0
 23 28  1  0  0  0  0
 24  2  1  0  0  0  0
 25  5  1  0  0  0  0
 26  9  2  0  0  0  0
 27 14  2  0  0  0  0
 27  5  1  0  0  0  0
 28 26  1  1  0  0  0
 29 31  1  0  0  0  0
 29 20  1  0  0  0  0
 30 29  1  0  0  0  0
 32 29  1  0  0  0  0
M  END
>  <MODEL>
1

>  <REMARK>
 VINA RESULT:     -10.6      0.000      0.000
  Name = 
  1 active torsions:
  status: ('A' for Active; 'I' for Inactive)
    1  A    between atoms: C_1  and  N_24
                            x       y       z     vdW  Elec       q    Type
                         _______ _______ _______ _____ _____    ______ ____

>  <TORSDO>
F 1

$$$$
=
 OpenBabel11052416473D

 32 37  0  0  1  0  0  0  0  0999 V2000
  186.7150  177.8500  137.9290 C   0  0  0  0  0  0  0  0  0  0  0  0
  187.9710  178.0770  142.0300 C   0  0  0  0  0  0  0  0  0  0  0  0
  183.5140  178.6360  144.1480 O   0  0  0  0  0  0  0  0  0  0  0  0
  184.2410  178.7360  145.3960 C   0  0  0  0  0  2  0  0  0  0  0  0
  189.9500  177.3580  143.6720 C   0  0  0  0  0  0  0  0  0  0  0  0
  190.2910  177.0570  144.9580 C   0  0  0  0  0  0  0  0  0  0  0  0
  188.5410  178.4180  139.5630 C   0  0  2  0  0  3  0  0  0  0  0  0
  186.1790  178.4900  140.3620 C   0  0  0  0  0  2  0  0  0  0  0  0
  190.8660  176.8020  147.7610 C   0  0  0  0  0  3  0  0  0  0  0  0
  185.9150  178.7330  137.2820 C   0  0  0  0  0  2  0  0  0  0  0  0
  184.3090  178.7070  142.9610 C   0  0  0  0  0  2  0  0  0  0  0  0
  186.6190  178.2220  141.7950 C   0  0  0  0  0  0  0  0  0  0  0  0
  185.7840  178.3460  142.9550 C   0  0  0  0  0  0  0  0  0  0  0  0
  187.6130  177.8680  144.3860 C   0  0  0  0  0  0  0  0  0  0  0  0
  191.8670  176.4270  146.6600 C   0  0  0  0  0  3  0  0  0  0  0  0
  188.9800  176.8430  137.6370 C   0  0  0  0  0  2  0  0  0  0  0  0
  187.1160  177.9040  139.3260 C   0  0  1  0  0  3  0  0  0  0  0  0
  191.6300  176.5300  145.3640 C   0  0  0  0  0  2  0  0  0  0  0  0
  189.4910  177.9790  138.4360 C   0  0  0  0  0  2  0  0  0  0  0  0
  187.6320  177.0390  137.1410 N   0  0  0  0  0  0  0  0  0  0  0  0
  185.5360  178.1480  145.3500 O   0  0  0  0  0  0  0  0  0  0  0  0
  186.3510  178.1480  144.1820 C   0  0  0  0  0  0  0  0  0  0  0  0
  188.1290  177.9300  145.7230 O   0  0  0  0  0  0  0  0  0  0  0  0
  188.9580  177.7860  140.8710 C   0  0  0  0  0  2  0  0  0  0  0  0
  190.9290  177.2920  142.6620 O   0  0  0  0  0  1  0  0  0  0  0  0
  189.6130  177.1400  147.4980 C   0  0  0  0  0  3  0  0  0  0  0  0
  188.5310  177.6940  143.3320 C   0  0  0  0  0  0  0  0  0  0  0  0
  189.1940  177.1200  146.0540 C   0  0  0  0  0  0  0  0  0  0  0  0
  187.3190  176.2910  135.8490 C   0  0  0  0  0  0  0  0  0  0  0  0
  186.9860  177.1600  134.5990 C   0  0  0  0  0  1  0  0  0  0  0  0
  188.5360  175.4640  135.3330 C   0  0  0  0  0  1  0  0  0  0  0  0
  186.2020  175.2860  135.9930 C   0  0  0  0  0  1  0  0  0  0  0  0
  1 17  1  0  0  0  0
  2 27  1  0  0  0  0
  3  4  1  0  0  0  0
  5  6  2  0  0  0  0
  6 18  1  0  0  0  0
  6 28  1  0  0  0  0
  7 19  1  6  0  0  0
  7 24  1  0  0  0  0
  8 12  1  0  0  0  0
 10  1  2  0  0  0  0
 11  3  1  0  0  0  0
 12  2  2  0  0  0  0
 12 13  1  0  0  0  0
 13 11  1  0  0  0  0
 13 22  2  0  0  0  0
 14 23  1  0  0  0  0
 15  9  2  0  0  0  0
 16 19  1  0  0  0  0
 17  7  1  0  0  0  0
 17  8  1  1  0  0  0
 18 15  1  0  0  0  0
 20 16  1  0  0  0  0
 20  1  1  0  0  0  0
 21  4  1  0  0  0  0
 22 14  1  0  0  0  0
 22 21  1  0  0  0  0
 23 28  1  0  0  0  0
 24  2  1  0  0  0  0
 25  5  1  0  0  0  0
 26  9  1  0  0  0  0
 27  5  1  0  0  0  0
 27 14  2  0  0  0  0
 28 26  2  0  0  0  0
 29 32  1  0  0  0  0
 29 20  1  0  0  0  0
 30 29  1  0  0  0  0
 31 29  1  0  0  0  0
M  END
>  <MODEL>
2

>  <REMARK>
 VINA RESULT:     -10.2      1.205      1.591
  Name = 
  1 active torsions:
  status: ('A' for Active; 'I' for Inactive)
    1  A    between atoms: C_1  and  N_24
                            x       y       z     vdW  Elec       q    Type
                         _______ _______ _______ _____ _____    ______ ____

>  <TORSDO>
F 1

$$$$
=
 OpenBabel11052416473D

 32 37  0  0  1  0  0  0  0  0999 V2000
  189.4040  176.7370  137.3390 C   0  0  0  0  0  0  0  0  0  0  0  0
  189.1060  177.7060  141.5120 C   0  0  0  0  0  0  0  0  0  0  0  0
  184.2990  178.9490  141.6500 O   0  0  0  0  0  0  0  0  0  0  0  0
  184.5300  179.2530  143.0470 C   0  0  0  0  0  2  0  0  0  0  0  0
  190.2410  177.2110  143.8780 C   0  0  0  0  0  0  0  0  0  0  0  0
  190.0490  177.1540  145.2280 C   0  0  0  0  0  0  0  0  0  0  0  0
  190.5710  177.5100  139.4290 C   0  0  2  0  0  3  0  0  0  0  0  0
  188.1120  177.8840  139.2450 C   0  0  0  0  0  2  0  0  0  0  0  0
  189.5300  177.4320  148.0390 C   0  0  0  0  0  3  0  0  0  0  0  0
  189.0170  177.5200  136.3020 C   0  0  0  0  0  2  0  0  0  0  0  0
  185.4720  178.7320  140.8620 C   0  0  0  0  0  2  0  0  0  0  0  0
  187.9630  177.8830  140.7600 C   0  0  0  0  0  0  0  0  0  0  0  0
  186.7880  178.2880  141.4770 C   0  0  0  0  0  0  0  0  0  0  0  0
  187.8930  177.9960  143.5550 C   0  0  0  0  0  0  0  0  0  0  0  0
  190.8020  176.7840  147.4800 C   0  0  0  0  0  3  0  0  0  0  0  0
  191.4670  175.5560  138.1010 C   0  0  0  0  0  2  0  0  0  0  0  0
  189.2740  177.0460  138.7540 C   0  0  1  0  0  3  0  0  0  0  0  0
  191.0680  176.6390  146.1940 C   0  0  0  0  0  3  0  0  0  0  0  0
  191.7980  176.7960  138.8370 C   0  0  0  0  0  2  0  0  0  0  0  0
  190.4280  175.7300  137.1030 N   0  0  0  0  0  0  0  0  0  0  0  0
  185.6650  178.5900  143.5950 O   0  0  0  0  0  0  0  0  0  0  0  0
  186.8400  178.3060  142.8420 C   0  0  0  0  0  0  0  0  0  0  0  0
  187.8920  178.2930  144.9580 O   0  0  0  0  0  0  0  0  0  0  0  0
  190.3980  177.1290  140.8810 C   0  0  0  0  0  2  0  0  0  0  0  0
  191.5010  176.8840  143.3430 O   0  0  0  0  0  1  0  0  0  0  0  0
  188.5140  177.7860  147.2680 C   0  0  0  0  0  3  0  0  0  0  0  0
  189.0990  177.5580  142.9730 C   0  0  0  0  0  0  0  0  0  0  0  0
  188.6480  177.5030  145.7970 C   0  0  2  0  0  3  0  0  0  0  0  0
  190.5100  174.7590  135.9300 C   0  0  0  0  0  0  0  0  0  0  0  0
  191.0800  175.3220  134.5940 C   0  0  0  0  0  1  0  0  0  0  0  0
  191.4860  173.5760  136.2060 C   0  0  0  0  0  1  0  0  0  0  0  0
  189.1910  174.1030  135.6020 C   0  0  0  0  0  1  0  0  0  0  0  0
  1 17  1  0  0  0  0
  2 27  1  0  0  0  0
  3  4  1  0  0  0  0
  4 21  1  0  0  0  0
  5  6  2  0  0  0  0
  6 28  1  0  0  0  0
  6 18  1  0  0  0  0
  7 19  1  6  0  0  0
  7 24  1  0  0  0  0
  8 12  1  0  0  0  0
 10  1  2  0  0  0  0
 11 13  1  0  0  0  0
 11  3  1  0  0  0  0
 12 13  1  0  0  0  0
 12  2  2  0  0  0  0
 13 22  2  0  0  0  0
 14 23  1  0  0  0  0
 15  9  1  0  0  0  0
 16 19  1  0  0  0  0
 17  8  1  6  0  0  0
 17  7  1  0  0  0  0
 18 15  2  0  0  0  0
 20  1  1  0  0  0  0
 20 16  1  0  0  0  0
 22 14  1  0  0  0  0
 22 21  1  0  0  0  0
 23 28  1  0  0  0  0
 24  2  1  0  0  0  0
 25  5  1  0  0  0  0
 26  9  2  0  0  0  0
 27 14  2  0  0  0  0
 27  5  1  0  0  0  0
 28 26  1  1  0  0  0
 29 31  1  0  0  0  0
 29 20  1  0  0  0  0
 30 29  1  0  0  0  0
 32 29  1  0  0  0  0
M  END
>  <MODEL>
3

>  <REMARK>
 VINA RESULT:     -10.0      1.401      1.896
  Name = 
  1 active torsions:
  status: ('A' for Active; 'I' for Inactive)
    1  A    between atoms: C_1  and  N_24
                            x       y       z     vdW  Elec       q    Type
                         _______ _______ _______ _____ _____    ______ ____

>  <TORSDO>
F 1

$$$$
=
 OpenBabel11052416473D

 32 37  0  0  1  0  0  0  0  0999 V2000
  182.1690  179.5070  138.7970 C   0  0  0  0  0  0  0  0  0  0  0  0
  185.0360  178.2450  141.7360 C   0  0  0  0  0  0  0  0  0  0  0  0
  189.0920  178.2410  138.8690 O   0  0  0  0  0  0  0  0  0  0  0  0
  189.7880  177.7550  140.0430 C   0  0  0  0  0  2  0  0  0  0  0  0
  185.4810  178.2080  144.3680 C   0  0  0  0  0  0  0  0  0  0  0  0
  186.4290  178.1810  145.3490 C   0  0  0  0  0  0  0  0  0  0  0  0
  182.6080  178.2680  140.9420 C   0  0  2  0  0  3  0  0  0  0  0  0
  184.4930  178.5420  139.3320 C   0  0  0  0  0  2  0  0  0  0  0  0
  188.5570  177.7720  147.2340 C   0  0  0  0  0  3  0  0  0  0  0  0
  181.9700  178.9500  137.5770 C   0  0  0  0  0  2  0  0  0  0  0  0
  187.6650  178.2310  138.9480 C   0  0  0  0  0  2  0  0  0  0  0  0
  185.5150  178.4350  140.4550 C   0  0  0  0  0  0  0  0  0  0  0  0
  186.9300  178.2700  140.2760 C   0  0  0  0  0  0  0  0  0  0  0  0
  187.2550  178.0730  142.6170 C   0  0  0  0  0  0  0  0  0  0  0  0
  187.1250  178.1310  147.6490 C   0  0  0  0  0  3  0  0  0  0  0  0
  180.8240  180.0530  140.8270 C   0  0  0  0  0  2  0  0  0  0  0  0
  183.1610  179.1050  139.7820 C   0  0  1  0  0  3  0  0  0  0  0  0
  186.1260  178.3280  146.8060 C   0  0  0  0  0  3  0  0  0  0  0  0
  181.1830  178.7050  141.3200 C   0  0  0  0  0  2  0  0  0  0  0  0
  181.0740  180.2420  139.4110 N   0  0  0  0  0  0  0  0  0  0  0  0
  189.1230  178.0560  141.2650 O   0  0  0  0  0  0  0  0  0  0  0  0
  187.7050  178.1080  141.3890 C   0  0  0  0  0  0  0  0  0  0  0  0
  188.1360  177.6510  143.6670 O   0  0  0  0  0  0  0  0  0  0  0  0
  183.5560  178.5380  142.0880 C   0  0  0  0  0  2  0  0  0  0  0  0
  184.1200  178.2590  144.7230 O   0  0  0  0  0  1  0  0  0  0  0  0
  188.9500  177.7610  145.9700 C   0  0  0  0  0  3  0  0  0  0  0  0
  185.8920  178.2480  142.9290 C   0  0  0  0  0  0  0  0  0  0  0  0
  187.9250  178.1420  144.9370 C   0  0  2  0  0  3  0  0  0  0  0  0
  180.1670  181.2710  138.7420 C   0  0  0  0  0  0  0  0  0  0  0  0
  179.1040  180.7220  137.7440 C   0  0  0  0  0  1  0  0  0  0  0  0
  179.2680  182.0240  139.7670 C   0  0  0  0  0  1  0  0  0  0  0  0
  180.9260  182.3570  138.0200 C   0  0  0  0  0  1  0  0  0  0  0  0
  1 20  1  0  0  0  0
  1 17  1  0  0  0  0
  2 24  1  0  0  0  0
  2 27  1  0  0  0  0
  3 11  1  0  0  0  0
  3  4  1  0  0  0  0
  4 21  1  0  0  0  0
  5 25  1  0  0  0  0
  5  6  2  0  0  0  0
  6 18  1  0  0  0  0
  7 19  1  1  0  0  0
  7 24  1  0  0  0  0
  8 12  1  0  0  0  0
  9 15  1  0  0  0  0
 10  1  2  0  0  0  0
 11 13  1  0  0  0  0
 12  2  2  0  0  0  0
 13 12  1  0  0  0  0
 13 22  2  0  0  0  0
 14 27  2  0  0  0  0
 14 23  1  0  0  0  0
 16 19  1  0  0  0  0
 17  8  1  6  0  0  0
 17  7  1  0  0  0  0
 18 15  2  0  0  0  0
 20 16  1  0  0  0  0
 21 22  1  0  0  0  0
 22 14  1  0  0  0  0
 23 28  1  0  0  0  0
 26  9  2  0  0  0  0
 27  5  1  0  0  0  0
 28  6  1  0  0  0  0
 28 26  1  1  0  0  0
 29 20  1  0  0  0  0
 29 31  1  0  0  0  0
 30 29  1  0  0  0  0
 32 29  1  0  0  0  0
M  END
>  <MODEL>
4

>  <REMARK>
 VINA RESULT:      -9.9      3.063      6.168
  Name = 
  1 active torsions:
  status: ('A' for Active; 'I' for Inactive)
    1  A    between atoms: C_1  and  N_24
                            x       y       z     vdW  Elec       q    Type
                         _______ _______ _______ _____ _____    ______ ____

>  <TORSDO>
F 1

$$$$
=
 OpenBabel11052416473D

 32 37  0  0  1  0  0  0  0  0999 V2000
  181.7820  178.6260  141.6290 C   0  0  0  0  0  0  0  0  0  0  0  0
  186.0530  178.5410  142.0780 C   0  0  0  0  0  0  0  0  0  0  0  0
  186.2750  177.7070  146.9690 O   0  0  0  0  0  0  0  0  0  0  0  0
  187.7110  177.7930  146.8080 C   0  0  0  0  0  2  0  0  0  0  0  0
  188.3060  178.0790  140.7220 C   0  0  0  0  0  0  0  0  0  0  0  0
  189.6090  177.6820  140.8070 C   0  0  0  0  0  0  0  0  0  0  0  0
  184.0240  179.3660  140.7620 C   0  0  2  0  0  3  0  0  0  0  0  0
  183.8350  178.7560  143.1730 C   0  0  0  0  0  2  0  0  0  0  0  0
  192.3980  177.1620  141.2520 C   0  0  0  0  0  3  0  0  0  0  0  0
  180.9120  179.3780  142.3470 C   0  0  0  0  0  2  0  0  0  0  0  0
  185.4990  178.1390  145.8480 C   0  0  0  0  0  2  0  0  0  0  0  0
  185.3130  178.3930  143.2330 C   0  0  0  0  0  0  0  0  0  0  0  0
  186.0570  178.1430  144.4350 C   0  0  0  0  0  0  0  0  0  0  0  0
  188.0680  177.9080  143.2010 C   0  0  0  0  0  0  0  0  0  0  0  0
  191.7630  177.2020  139.8570 C   0  0  0  0  0  3  0  0  0  0  0  0
  182.3590  178.2400  139.2320 C   0  0  0  0  0  2  0  0  0  0  0  0
  183.2250  178.5680  141.8000 C   0  0  1  0  0  3  0  0  0  0  0  0
  190.4840  177.4350  139.6200 C   0  0  0  0  0  2  0  0  0  0  0  0
  183.3420  179.3350  139.3840 C   0  0  0  0  0  2  0  0  0  0  0  0
  181.3820  178.1800  140.3020 N   0  0  0  0  0  0  0  0  0  0  0  0
  188.1510  177.5420  145.4770 O   0  0  0  0  0  0  0  0  0  0  0  0
  187.3970  177.9070  144.3250 C   0  0  0  0  0  0  0  0  0  0  0  0
  189.5020  177.8940  143.2500 O   0  0  0  0  0  0  0  0  0  0  0  0
  185.3620  178.6660  140.6960 C   0  0  0  0  0  2  0  0  0  0  0  0
  187.7600  178.3960  139.4650 O   0  0  0  0  0  1  0  0  0  0  0  0
  191.6810  177.2270  142.3630 C   0  0  0  0  0  3  0  0  0  0  0  0
  187.4520  178.1140  141.9510 C   0  0  0  0  0  0  0  0  0  0  0  0
  190.1880  177.3210  142.2010 C   0  0  0  0  0  0  0  0  0  0  0  0
  180.0390  177.5780  139.9010 C   0  0  0  0  0  0  0  0  0  0  0  0
  178.9310  178.5760  139.4510 C   0  0  0  0  0  1  0  0  0  0  0  0
  180.1530  176.6600  138.6460 C   0  0  0  0  0  1  0  0  0  0  0  0
  179.4330  176.7010  140.9690 C   0  0  0  0  0  1  0  0  0  0  0  0
  1 17  1  0  0  0  0
  1 10  2  0  0  0  0
  2 12  1  0  0  0  0
  4  3  1  0  0  0  0
  5  6  2  0  0  0  0
  5 27  1  0  0  0  0
  6 28  1  0  0  0  0
  7 19  1  6  0  0  0
  7 17  1  0  0  0  0
  8 12  1  0  0  0  0
  9 26  1  0  0  0  0
 11  3  1  0  0  0  0
 12 13  2  0  0  0  0
 13 11  1  0  0  0  0
 14 23  1  0  0  0  0
 14 22  2  0  0  0  0
 15  9  2  0  0  0  0
 16 19  1  0  0  0  0
 16 20  1  0  0  0  0
 17  8  1  1  0  0  0
 18 15  1  0  0  0  0
 18  6  1  0  0  0  0
 20  1  1  0  0  0  0
 21  4  1  0  0  0  0
 22 13  1  0  0  0  0
 22 21  1  0  0  0  0
 24  7  1  0  0  0  0
 24  2  1  0  0  0  0
 25  5  1  0  0  0  0
 27  2  2  0  0  0  0
 27 14  1  0  0  0  0
 28 26  2  0  0  0  0
 28 23  1  0  0  0  0
 29 20  1  0  0  0  0
 29 32  1  0  0  0  0
 30 29  1  0  0  0  0
 31 29  1  0  0  0  0
M  END
>  <MODEL>
5

>  <REMARK>
 VINA RESULT:      -9.8      2.896      6.246
  Name = 
  1 active torsions:
  status: ('A' for Active; 'I' for Inactive)
    1  A    between atoms: C_1  and  N_24
                            x       y       z     vdW  Elec       q    Type
                         _______ _______ _______ _____ _____    ______ ____

>  <TORSDO>
F 1

$$$$
=
 OpenBabel11052416473D

 32 37  0  0  1  0  0  0  0  0999 V2000
  181.3130  178.6460  140.7300 C   0  0  0  0  0  0  0  0  0  0  0  0
  185.3890  178.6620  142.0830 C   0  0  0  0  0  0  0  0  0  0  0  0
  184.5580  178.3240  146.9680 O   0  0  0  0  0  0  0  0  0  0  0  0
  185.9970  178.4120  147.1080 C   0  0  0  0  0  2  0  0  0  0  0  0
  187.8760  178.0970  141.2910 C   0  0  0  0  0  0  0  0  0  0  0  0
  189.1270  177.7270  141.6900 C   0  0  0  0  0  0  0  0  0  0  0  0
  183.6950  179.3250  140.2900 C   0  0  2  0  0  3  0  0  0  0  0  0
  182.9920  178.9570  142.6540 C   0  0  0  0  0  2  0  0  0  0  0  0
  191.7530  177.2910  142.7680 C   0  0  0  0  0  3  0  0  0  0  0  0
  180.3170  179.4560  141.1680 C   0  0  0  0  0  2  0  0  0  0  0  0
  184.0430  178.6310  145.6700 C   0  0  0  0  0  2  0  0  0  0  0  0
  184.4190  178.6210  143.0630 C   0  0  0  0  0  0  0  0  0  0  0  0
  184.8880  178.5020  144.4150 C   0  0  0  0  0  0  0  0  0  0  0  0
  187.1140  178.1710  143.6670 C   0  0  0  0  0  0  0  0  0  0  0  0
  191.4300  177.1830  141.2730 C   0  0  0  0  0  3  0  0  0  0  0  0
  182.3830  178.0310  138.5620 C   0  0  0  0  0  2  0  0  0  0  0  0
  182.6860  178.6240  141.2090 C   0  0  1  0  0  3  0  0  0  0  0  0
  190.2330  177.3750  140.7480 C   0  0  0  0  0  2  0  0  0  0  0  0
  183.3210  179.1480  138.8080 C   0  0  0  0  0  2  0  0  0  0  0  0
  181.2010  178.0660  139.4000 N   0  0  0  0  0  0  0  0  0  0  0  0
  186.7080  178.0360  145.9330 O   0  0  0  0  0  0  0  0  0  0  0  0
  186.2200  178.2740  144.6170 C   0  0  0  0  0  0  0  0  0  0  0  0
  188.5040  178.1810  144.0200 O   0  0  0  0  0  0  0  0  0  0  0  0
  185.0100  178.6400  140.5810 C   0  0  0  0  0  2  0  0  0  0  0  0
  187.6120  178.2790  139.9210 O   0  0  0  0  0  1  0  0  0  0  0  0
  190.8160  177.4570  143.6880 C   0  0  0  0  0  3  0  0  0  0  0  0
  186.7800  178.2430  142.3000 C   0  0  0  0  0  0  0  0  0  0  0  0
  189.3930  177.5150  143.2050 C   0  0  0  0  0  0  0  0  0  0  0  0
  179.9690  177.4090  138.7850 C   0  0  0  0  0  0  0  0  0  0  0  0
  178.9500  178.3540  138.0820 C   0  0  0  0  0  1  0  0  0  0  0  0
  180.3350  176.4340  137.6250 C   0  0  0  0  0  1  0  0  0  0  0  0
  179.1860  176.5690  139.7640 C   0  0  0  0  0  1  0  0  0  0  0  0
  1 10  2  0  0  0  0
  1 17  1  0  0  0  0
  2 27  2  0  0  0  0
  2 12  1  0  0  0  0
  3  4  1  0  0  0  0
  5  6  2  0  0  0  0
  5 27  1  0  0  0  0
  6 28  1  0  0  0  0
  7 19  1  6  0  0  0
  7 24  1  0  0  0  0
  7 17  1  0  0  0  0
  8 12  1  0  0  0  0
  9 26  1  0  0  0  0
 11  3  1  0  0  0  0
 12 13  2  0  0  0  0
 13 22  1  0  0  0  0
 13 11  1  0  0  0  0
 14 23  1  0  0  0  0
 14 22  2  0  0  0  0
 15  9  2  0  0  0  0
 16 19  1  0  0  0  0
 16 20  1  0  0  0  0
 17  8  1  1  0  0  0
 18 15  1  0  0  0  0
 18  6  1  0  0  0  0
 20  1  1  0  0  0  0
 21  4  1  0  0  0  0
 22 21  1  0  0  0  0
 24  2  1  0  0  0  0
 25  5  1  0  0  0  0
 27 14  1  0  0  0  0
 28 26  2  0  0  0  0
 28 23  1  0  0  0  0
 29 20  1  0  0  0  0
 29 32  1  0  0  0  0
 30 29  1  0  0  0  0
 31 29  1  0  0  0  0
M  END
>  <MODEL>
6

>  <REMARK>
 VINA RESULT:      -9.7      3.189      5.743
  Name = 
  1 active torsions:
  status: ('A' for Active; 'I' for Inactive)
    1  A    between atoms: C_1  and  N_24
                            x       y       z     vdW  Elec       q    Type
                         _______ _______ _______ _____ _____    ______ ____

>  <TORSDO>
F 1

$$$$
=
 OpenBabel11052416473D

 32 37  0  0  1  0  0  0  0  0999 V2000
  182.8530  178.5910  139.4100 C   0  0  0  0  0  0  0  0  0  0  0  0
  186.1880  178.3350  142.1050 C   0  0  0  0  0  0  0  0  0  0  0  0
  183.7100  178.6770  146.3960 O   0  0  0  0  0  0  0  0  0  0  0  0
  185.0130  178.6280  147.0260 C   0  0  0  0  0  2  0  0  0  0  0  0
  188.6890  177.4160  142.2830 C   0  0  0  0  0  0  0  0  0  0  0  0
  189.6640  176.9660  143.1240 C   0  0  0  0  0  0  0  0  0  0  0  0
  185.3140  178.9540  139.7850 C   0  0  2  0  0  3  0  0  0  0  0  0
  183.8060  178.9500  141.7720 C   0  0  0  0  0  2  0  0  0  0  0  0
  191.6800  176.3850  145.0870 C   0  0  0  0  0  3  0  0  0  0  0  0
  181.8930  179.5480  139.4070 C   0  0  0  0  0  2  0  0  0  0  0  0
  183.7150  178.8800  144.9800 C   0  0  0  0  0  2  0  0  0  0  0  0
  184.9470  178.5150  142.6820 C   0  0  0  0  0  0  0  0  0  0  0  0
  184.9080  178.5100  144.1160 C   0  0  0  0  0  0  0  0  0  0  0  0
  187.1850  177.8570  144.2270 C   0  0  0  0  0  0  0  0  0  0  0  0
  191.8710  176.1330  143.5860 C   0  0  0  0  0  3  0  0  0  0  0  0
  184.4970  177.6080  137.8100 C   0  0  0  0  0  2  0  0  0  0  0  0
  183.9650  178.4800  140.3410 C   0  0  1  0  0  3  0  0  0  0  0  0
  190.9630  176.3860  142.6610 C   0  0  0  0  0  2  0  0  0  0  0  0
  185.4440  178.6400  138.2850 C   0  0  0  0  0  2  0  0  0  0  0  0
  183.1180  177.8690  138.1740 N   0  0  0  0  0  0  0  0  0  0  0  0
  186.0200  178.0390  146.2090 O   0  0  0  0  0  0  0  0  0  0  0  0
  186.0460  178.1680  144.7910 C   0  0  0  0  0  0  0  0  0  0  0  0
  188.3590  177.7610  145.0450 O   0  0  0  0  0  0  0  0  0  0  0  0
  186.3410  178.1720  140.5720 C   0  0  0  0  0  2  0  0  0  0  0  0
  188.9340  177.4590  140.8980 O   0  0  0  0  0  1  0  0  0  0  0  0
  190.5200  176.7600  145.6030 C   0  0  0  0  0  3  0  0  0  0  0  0
  187.3480  177.7990  142.8290 C   0  0  0  0  0  0  0  0  0  0  0  0
  189.3680  176.9100  144.6470 C   0  0  0  0  0  0  0  0  0  0  0  0
  182.0880  177.2780  137.2160 C   0  0  0  0  0  0  0  0  0  0  0  0
  181.4090  178.2660  136.2210 C   0  0  0  0  0  1  0  0  0  0  0  0
  182.7150  176.2390  136.2390 C   0  0  0  0  0  1  0  0  0  0  0  0
  180.9790  176.5310  137.9160 C   0  0  0  0  0  1  0  0  0  0  0  0
  1 17  1  0  0  0  0
  2 12  2  0  0  0  0
  2 27  1  0  0  0  0
  3  4  1  0  0  0  0
  5 27  1  0  0  0  0
  5  6  2  0  0  0  0
  6 28  1  0  0  0  0
  7 19  1  6  0  0  0
  7 17  1  0  0  0  0
  7 24  1  0  0  0  0
  8 12  1  0  0  0  0
  9 26  1  0  0  0  0
 10  1  2  0  0  0  0
 11  3  1  0  0  0  0
 12 13  1  0  0  0  0
 13 22  2  0  0  0  0
 13 11  1  0  0  0  0
 14 22  1  0  0  0  0
 14 23  1  0  0  0  0
 15  9  2  0  0  0  0
 16 20  1  0  0  0  0
 16 19  1  0  0  0  0
 17  8  1  1  0  0  0
 18  6  1  0  0  0  0
 18 15  1  0  0  0  0
 20  1  1  0  0  0  0
 21  4  1  0  0  0  0
 22 21  1  0  0  0  0
 24  2  1  0  0  0  0
 25  5  1  0  0  0  0
 27 14  2  0  0  0  0
 28 23  1  0  0  0  0
 28 26  2  0  0  0  0
 29 32  1  0  0  0  0
 29 20  1  0  0  0  0
 30 29  1  0  0  0  0
 31 29  1  0  0  0  0
M  END
>  <MODEL>
7

>  <REMARK>
 VINA RESULT:      -9.5      2.857      4.229
  Name = 
  1 active torsions:
  status: ('A' for Active; 'I' for Inactive)
    1  A    between atoms: C_1  and  N_24
                            x       y       z     vdW  Elec       q    Type
                         _______ _______ _______ _____ _____    ______ ____

>  <TORSDO>
F 1

$$$$
=
 OpenBabel11052416473D

 32 37  0  0  1  0  0  0  0  0999 V2000
  188.3340  177.1840  136.6060 C   0  0  0  0  0  0  0  0  0  0  0  0
  186.5700  178.3600  140.3420 C   0  0  0  0  0  0  0  0  0  0  0  0
  181.8790  178.9230  138.8100 O   0  0  0  0  0  0  0  0  0  0  0  0
  181.6010  179.3430  140.1680 C   0  0  0  0  0  2  0  0  0  0  0  0
  186.9090  178.1780  142.9840 C   0  0  0  0  0  0  0  0  0  0  0  0
  186.2920  178.1790  144.2000 C   0  0  0  0  0  0  0  0  0  0  0  0
  188.6520  178.2420  138.8670 C   0  0  2  0  0  3  0  0  0  0  0  0
  186.3650  178.2550  137.8700 C   0  0  0  0  0  2  0  0  0  0  0  0
  184.8470  178.5560  146.6540 C   0  0  0  0  0  3  0  0  0  0  0  0
  188.2240  177.8390  135.4240 C   0  0  0  0  0  2  0  0  0  0  0  0
  183.2630  178.8240  138.4630 C   0  0  0  0  0  2  0  0  0  0  0  0
  185.7260  178.3270  139.2500 C   0  0  0  0  0  0  0  0  0  0  0  0
  184.3430  178.6080  139.5090 C   0  0  0  0  0  0  0  0  0  0  0  0
  184.7270  178.6040  141.8490 C   0  0  0  0  0  0  0  0  0  0  0  0
  186.2970  178.0600  146.6000 C   0  0  0  0  0  3  0  0  0  0  0  0
  190.1480  176.3550  138.1050 C   0  0  0  0  0  2  0  0  0  0  0  0
  187.7110  177.5600  137.8660 C   0  0  1  0  0  3  0  0  0  0  0  0
  186.9860  177.8730  145.4890 C   0  0  0  0  0  3  0  0  0  0  0  0
  190.0770  177.6720  138.7750 C   0  0  0  0  0  2  0  0  0  0  0  0
  189.4840  176.3190  136.8160 N   0  0  0  0  0  0  0  0  0  0  0  0
  182.5580  178.8810  141.1140 O   0  0  0  0  0  0  0  0  0  0  0  0
  183.9400  178.7180  140.8090 C   0  0  0  0  0  0  0  0  0  0  0  0
  184.2300  178.9850  143.1390 O   0  0  0  0  0  0  0  0  0  0  0  0
  188.0530  177.9320  140.2190 C   0  0  0  0  0  2  0  0  0  0  0  0
  188.3040  177.9980  142.9160 O   0  0  0  0  0  1  0  0  0  0  0  0
  184.1090  178.7150  145.5670 C   0  0  0  0  0  3  0  0  0  0  0  0
  186.0990  178.3040  141.7310 C   0  0  0  0  0  0  0  0  0  0  0  0
  184.7510  178.3620  144.2530 C   0  0  2  0  0  3  0  0  0  0  0  0
  190.0570  175.2970  135.8380 C   0  0  0  0  0  0  0  0  0  0  0  0
  191.0410  175.8370  134.7580 C   0  0  0  0  0  1  0  0  0  0  0  0
  190.9380  174.2250  136.5490 C   0  0  0  0  0  1  0  0  0  0  0  0
  188.9970  174.5060  135.1110 C   0  0  0  0  0  1  0  0  0  0  0  0
  1 20  1  0  0  0  0
  1 17  1  0  0  0  0
  2 27  1  0  0  0  0
  3  4  1  0  0  0  0
  4 21  1  0  0  0  0
  5  6  2  0  0  0  0
  6 28  1  0  0  0  0
  6 18  1  0  0  0  0
  7 19  1  1  0  0  0
  7 24  1  0  0  0  0
  8 12  1  0  0  0  0
 10  1  2  0  0  0  0
 11  3  1  0  0  0  0
 11 13  1  0  0  0  0
 12 13  1  0  0  0  0
 12  2  2  0  0  0  0
 13 22  2  0  0  0  0
 14 23  1  0  0  0  0
 15  9  1  0  0  0  0
 16 19  1  0  0  0  0
 17  8  1  6  0  0  0
 17  7  1  0  0  0  0
 18 15  2  0  0  0  0
 20 16  1  0  0  0  0
 22 21  1  0  0  0  0
 22 14  1  0  0  0  0
 23 28  1  0  0  0  0
 24  2  1  0  0  0  0
 25  5  1  0  0  0  0
 26  9  2  0  0  0  0
 27 14  2  0  0  0  0
 27  5  1  0  0  0  0
 28 26  1  1  0  0  0
 29 31  1  0  0  0  0
 29 20  1  0  0  0  0
 30 29  1  0  0  0  0
 32 29  1  0  0  0  0
M  END
>  <MODEL>
8

>  <REMARK>
 VINA RESULT:      -9.2      1.581      2.504
  Name = 
  1 active torsions:
  status: ('A' for Active; 'I' for Inactive)
    1  A    between atoms: C_1  and  N_24
                            x       y       z     vdW  Elec       q    Type
                         _______ _______ _______ _____ _____    ______ ____

>  <TORSDO>
F 1

$$$$
=
 OpenBabel11052416473D

 32 37  0  0  1  0  0  0  0  0999 V2000
  182.4320  178.3910  140.9320 C   0  0  0  0  0  0  0  0  0  0  0  0
  186.7100  178.3890  141.3140 C   0  0  0  0  0  0  0  0  0  0  0  0
  187.0270  177.4390  146.1790 O   0  0  0  0  0  0  0  0  0  0  0  0
  188.4590  177.5600  145.9980 C   0  0  0  0  0  2  0  0  0  0  0  0
  188.9520  178.0100  139.9130 C   0  0  0  0  0  0  0  0  0  0  0  0
  190.2640  177.6400  139.9680 C   0  0  0  0  0  0  0  0  0  0  0  0
  184.6440  179.2020  140.0500 C   0  0  2  0  0  3  0  0  0  0  0  0
  184.5060  178.5280  142.4480 C   0  0  0  0  0  2  0  0  0  0  0  0
  193.0710  177.1700  140.3570 C   0  0  0  0  0  3  0  0  0  0  0  0
  181.5580  179.1070  141.6830 C   0  0  0  0  0  2  0  0  0  0  0  0
  186.2250  177.8810  145.0800 C   0  0  0  0  0  2  0  0  0  0  0  0
  185.9920  178.1960  142.4760 C   0  0  0  0  0  0  0  0  0  0  0  0
  186.7600  177.9330  143.6600 C   0  0  0  0  0  0  0  0  0  0  0  0
  188.7570  177.7730  142.3910 C   0  0  0  0  0  0  0  0  0  0  0  0
  192.4130  177.2310  138.9730 C   0  0  0  0  0  3  0  0  0  0  0  0
  182.9790  178.0780  138.5180 C   0  0  0  0  0  2  0  0  0  0  0  0
  183.8790  178.3610  141.0800 C   0  0  1  0  0  3  0  0  0  0  0  0
  191.1260  177.4420  138.7630 C   0  0  0  0  0  2  0  0  0  0  0  0
  183.9410  179.1900  138.6820 C   0  0  0  0  0  2  0  0  0  0  0  0
  182.0210  177.9710  139.6010 N   0  0  0  0  0  0  0  0  0  0  0  0
  188.8840  177.3530  144.6550 O   0  0  0  0  0  0  0  0  0  0  0  0
  188.1040  177.7300  143.5240 C   0  0  0  0  0  0  0  0  0  0  0  0
  190.1910  177.7890  142.4170 O   0  0  0  0  0  0  0  0  0  0  0  0
  185.9960  178.5330  139.9470 C   0  0  0  0  0  2  0  0  0  0  0  0
  188.3790  178.3460  138.6720 O   0  0  0  0  0  1  0  0  0  0  0  0
  192.3690  177.1930  141.4800 C   0  0  0  0  0  3  0  0  0  0  0  0
  188.1160  177.9960  141.1560 C   0  0  0  0  0  0  0  0  0  0  0  0
  190.8720  177.2570  141.3440 C   0  0  0  0  0  0  0  0  0  0  0  0
  180.6860  177.3490  139.2050 C   0  0  0  0  0  0  0  0  0  0  0  0
  180.7140  176.3090  138.0450 C   0  0  0  0  0  1  0  0  0  0  0  0
  180.0580  176.5080  140.3570 C   0  0  0  0  0  1  0  0  0  0  0  0
  179.6320  178.3700  138.8530 C   0  0  0  0  0  1  0  0  0  0  0  0
  1 17  1  0  0  0  0
  1 10  2  0  0  0  0
  2 12  1  0  0  0  0
  4  3  1  0  0  0  0
  5  6  2  0  0  0  0
  5 27  1  0  0  0  0
  6 28  1  0  0  0  0
  7 19  1  6  0  0  0
  7 17  1  0  0  0  0
  8 12  1  0  0  0  0
  9 26  1  0  0  0  0
 11  3  1  0  0  0  0
 12 13  2  0  0  0  0
 13 11  1  0  0  0  0
 14 23  1  0  0  0  0
 14 22  2  0  0  0  0
 15  9  2  0  0  0  0
 16 19  1  0  0  0  0
 16 20  1  0  0  0  0
 17  8  1  1  0  0  0
 18 15  1  0  0  0  0
 18  6  1  0  0  0  0
 20  1  1  0  0  0  0
 21  4  1  0  0  0  0
 22 13  1  0  0  0  0
 22 21  1  0  0  0  0
 24  7  1  0  0  0  0
 24  2  1  0  0  0  0
 25  5  1  0  0  0  0
 27  2  2  0  0  0  0
 27 14  1  0  0  0  0
 28 26  2  0  0  0  0
 28 23  1  0  0  0  0
 29 20  1  0  0  0  0
 29 31  1  0  0  0  0
 30 29  1  0  0  0  0
 32 29  1  0  0  0  0
M  END
>  <MODEL>
9

>  <REMARK>
 VINA RESULT:      -8.4      2.740      6.190
  Name = 
  1 active torsions:
  status: ('A' for Active; 'I' for Inactive)
    1  A    between atoms: C_1  and  N_24
                            x       y       z     vdW  Elec       q    Type
                         _______ _______ _______ _____ _____    ______ ____

>  <TORSDO>
F 1

$$$$
