=
 OpenBabel11052416363D

 43 48  0  0  1  0  0  0  0  0999 V2000
  191.3070  176.5230  146.9120 C   0  0  0  0  0  0  0  0  0  0  0  0
  187.0000  177.8130  144.5920 C   0  0  0  0  0  0  0  0  0  0  0  0
  187.6750  178.1700  141.9140 C   0  0  0  0  0  0  0  0  0  0  0  0
  188.9990  177.0690  146.4190 C   0  0  0  0  0  0  0  0  0  0  0  0
  191.6420  176.7050  145.5680 C   0  0  0  0  0  3  0  0  0  0  0  0
  192.3560  176.1370  147.8920 C   0  0  0  0  0  1  0  0  0  0  0  0
  189.3310  177.2500  145.0540 C   0  0  0  0  0  0  0  0  0  0  0  0
  189.9880  176.7060  147.3370 C   0  0  0  0  0  3  0  0  0  0  0  0
  190.6600  177.0680  144.6440 C   0  0  0  0  0  3  0  0  0  0  0  0
  188.6190  177.7930  142.8190 N   0  0  0  0  0  0  0  0  0  0  0  0
  188.3270  177.6170  144.1370 C   0  0  0  0  0  0  0  0  0  0  0  0
  186.6920  177.6280  145.9450 C   0  0  0  0  0  3  0  0  0  0  0  0
  186.0100  178.1940  143.6750 C   0  0  0  0  0  0  0  0  0  0  0  0
  186.3570  178.3720  142.3280 C   0  0  0  0  0  3  0  0  0  0  0  0
  187.6860  177.2570  146.8530 C   0  0  0  0  0  3  0  0  0  0  0  0
  188.0160  178.3520  140.4650 C   0  0  2  0  0  3  0  0  0  0  0  0
  186.8660  178.5870  139.7000 O   0  0  0  0  0  1  0  0  0  0  0  0
  188.8310  177.2520  139.9310 N   0  0  0  0  0  2  0  0  0  0  0  0
  190.1290  177.7270  139.4560 C   0  0  1  0  0  3  0  0  0  0  0  0
  191.2100  177.2440  140.4050 C   0  0  0  0  0  1  0  0  0  0  0  0
  190.3910  177.2000  138.0540 C   0  0  0  0  0  2  0  0  0  0  0  0
  189.7890  175.8850  137.8820 N   0  0  0  0  0  0  0  0  0  0  0  0
  189.4740  174.5470  135.8910 C   0  0  0  0  0  2  0  0  0  0  0  0
  190.8690  174.9120  137.8050 C   0  0  0  0  0  2  0  0  0  0  0  0
  189.1570  175.8690  136.5670 C   0  0  1  0  0  3  0  0  0  0  0  0
  190.4570  173.8570  136.8040 C   0  0  0  0  0  2  0  0  0  0  0  0
  187.0820  177.3460  136.4660 C   0  0  0  0  0  0  0  0  0  0  0  0
  187.6770  176.0890  136.6820 C   0  0  0  0  0  0  0  0  0  0  0  0
  183.5860  176.6110  136.9670 F   0  0  0  0  0  0  0  0  0  0  0  0
  185.4770  175.1710  137.1010 C   0  0  0  0  0  3  0  0  0  0  0  0
  184.9270  176.4330  136.8770 C   0  0  0  0  0  0  0  0  0  0  0  0
  186.8580  175.0020  137.0020 C   0  0  0  0  0  3  0  0  0  0  0  0
  185.7320  177.4840  136.5670 N   0  0  0  0  0  0  0  0  0  0  0  0
  187.8380  178.4260  136.1480 F   0  0  0  0  0  0  0  0  0  0  0  0
  184.6940  178.4020  144.1140 O   0  0  0  0  0  0  0  0  0  0  0  0
  182.4900  178.6670  141.0800 C   0  0  0  0  0  2  0  0  0  0  0  0
  181.1450  178.6390  141.8090 C   0  0  1  0  0  3  0  0  0  0  0  0
  182.3310  178.8480  144.0100 C   0  0  0  0  0  2  0  0  0  0  0  0
  183.5920  178.1150  141.9800 C   0  0  0  0  0  2  0  0  0  0  0  0
  183.6670  178.9200  143.2770 C   0  0  2  0  0  3  0  0  0  0  0  0
  181.2190  179.4110  143.1290 C   0  0  0  0  0  2  0  0  0  0  0  0
  179.5320  180.5420  141.3430 C   0  0  0  0  0  1  0  0  0  0  0  0
  180.0180  179.1610  140.9200 C   0  0  0  0  0  2  0  0  0  0  0  0
  1  8  1  0  0  0  0
  1  6  1  0  0  0  0
  2 12  1  0  0  0  0
  3 14  2  0  0  0  0
  3 10  1  0  0  0  0
  4 15  1  0  0  0  0
  4  8  2  0  0  0  0
  5  1  2  0  0  0  0
  7  4  1  0  0  0  0
  9  7  2  0  0  0  0
  9  5  1  0  0  0  0
 10 11  2  0  0  0  0
 11  2  1  0  0  0  0
 11  7  1  0  0  0  0
 12 15  2  0  0  0  0
 13 35  1  0  0  0  0
 13  2  2  0  0  0  0
 14 13  1  0  0  0  0
 16 17  1  6  0  0  0
 16  3  1  0  0  0  0
 18 16  1  0  0  0  0
 19 18  1  0  0  0  0
 19 20  1  1  0  0  0
 21 19  1  0  0  0  0
 22 21  1  0  0  0  0
 23 25  1  0  0  0  0
 23 26  1  0  0  0  0
 24 22  1  0  0  0  0
 25 28  1  1  0  0  0
 25 22  1  0  0  0  0
 26 24  1  0  0  0  0
 27 33  2  0  0  0  0
 27 28  1  0  0  0  0
 28 32  2  0  0  0  0
 31 29  1  0  0  0  0
 31 30  2  0  0  0  0
 32 30  1  0  0  0  0
 33 31  1  0  0  0  0
 34 27  1  0  0  0  0
 36 37  1  0  0  0  0
 36 39  1  0  0  0  0
 37 43  1  6  0  0  0
 37 41  1  0  0  0  0
 39 40  1  0  0  0  0
 40 38  1  0  0  0  0
 40 35  1  1  0  0  0
 41 38  1  0  0  0  0
 43 42  1  0  0  0  0
M  END
>  <MODEL>
1

>  <REMARK>
 VINA RESULT:     -10.6      0.000      0.000
  Name = 
  9 active torsions:
  status: ('A' for Active; 'I' for Inactive)
    1  A    between atoms: O_1  and  C_34
    2  A    between atoms: O_1  and  C_35
    3  A    between atoms: C_2  and  N_6
    4  A    between atoms: C_2  and  C_13
    5  A    between atoms: C_3  and  N_4
    6  A    between atoms: C_3  and  C_12
    7  A    between atoms: N_6  and  C_12
    8  A    between atoms: C_14  and  C_22
    9  A    between atoms: C_19  and  C_37
                            x       y       z     vdW  Elec       q    Type
                         _______ _______ _______ _____ _____    ______ ____

>  <TORSDO>
F 9

$$$$
=
 OpenBabel11052416363D

 43 48  0  0  1  0  0  0  0  0999 V2000
  191.4200  176.3560  146.9370 C   0  0  0  0  0  0  0  0  0  0  0  0
  187.2890  177.9130  144.4660 C   0  0  0  0  0  0  0  0  0  0  0  0
  187.9650  177.8410  141.7650 C   0  0  0  0  0  0  0  0  0  0  0  0
  189.1980  177.1410  146.3750 C   0  0  0  0  0  0  0  0  0  0  0  0
  191.7570  176.3240  145.5820 C   0  0  0  0  0  3  0  0  0  0  0  0
  192.4220  175.9580  147.9600 C   0  0  0  0  0  1  0  0  0  0  0  0
  189.5300  177.1050  145.0000 C   0  0  0  0  0  0  0  0  0  0  0  0
  190.1440  176.7660  147.3340 C   0  0  0  0  0  3  0  0  0  0  0  0
  190.8170  176.6970  144.6180 C   0  0  0  0  0  3  0  0  0  0  0  0
  188.8640  177.4560  142.7130 N   0  0  0  0  0  0  0  0  0  0  0  0
  188.5710  177.4860  144.0420 C   0  0  0  0  0  0  0  0  0  0  0  0
  186.9790  177.9410  145.8320 C   0  0  0  0  0  3  0  0  0  0  0  0
  186.3440  178.3060  143.5070 C   0  0  0  0  0  0  0  0  0  0  0  0
  186.6920  178.2670  142.1490 C   0  0  0  0  0  3  0  0  0  0  0  0
  187.9280  177.5560  146.7810 C   0  0  0  0  0  3  0  0  0  0  0  0
  188.3050  177.7940  140.3060 C   0  0  2  0  0  3  0  0  0  0  0  0
  189.6630  178.0650  140.0940 O   0  0  0  0  0  1  0  0  0  0  0  0
  187.4280  178.6450  139.4900 N   0  0  0  0  0  2  0  0  0  0  0  0
  186.7760  177.8820  138.4290 C   0  0  1  0  0  3  0  0  0  0  0  0
  185.3610  178.3980  138.2450 C   0  0  0  0  0  1  0  0  0  0  0  0
  187.5570  178.0280  137.1320 C   0  0  0  0  0  2  0  0  0  0  0  0
  188.2170  176.7750  136.7890 N   0  0  0  0  0  0  0  0  0  0  0  0
  188.3910  175.6180  134.6720 C   0  0  0  0  0  2  0  0  0  0  0  0
  189.5020  177.1030  136.1890 C   0  0  0  0  0  2  0  0  0  0  0  0
  187.4360  176.1560  135.7230 C   0  0  1  0  0  3  0  0  0  0  0  0
  189.7590  176.0950  135.0920 C   0  0  0  0  0  2  0  0  0  0  0  0
  185.1460  175.1450  136.1990 C   0  0  0  0  0  0  0  0  0  0  0  0
  186.5490  175.0750  136.2680 C   0  0  0  0  0  0  0  0  0  0  0  0
  184.1680  172.0370  137.7460 F   0  0  0  0  0  0  0  0  0  0  0  0
  186.3430  172.9230  137.3560 C   0  0  0  0  0  3  0  0  0  0  0  0
  184.9550  173.0300  137.2650 C   0  0  0  0  0  0  0  0  0  0  0  0
  187.1400  173.9520  136.8530 C   0  0  0  0  0  3  0  0  0  0  0  0
  184.3910  174.1280  136.6940 N   0  0  0  0  0  0  0  0  0  0  0  0
  184.5310  176.2150  135.6350 F   0  0  0  0  0  0  0  0  0  0  0  0
  185.0740  178.7410  143.9140 O   0  0  0  0  0  0  0  0  0  0  0  0
  181.3760  178.5620  143.2660 C   0  0  0  0  0  2  0  0  0  0  0  0
  181.4150  178.9500  141.7860 C   0  0  1  0  0  3  0  0  0  0  0  0
  183.9180  178.7730  141.8040 C   0  0  0  0  0  2  0  0  0  0  0  0
  182.6690  178.9850  143.9590 C   0  0  0  0  0  2  0  0  0  0  0  0
  183.8720  178.3440  143.2670 C   0  0  2  0  0  3  0  0  0  0  0  0
  182.6380  178.3450  141.0910 C   0  0  0  0  0  2  0  0  0  0  0  0
  179.7380  179.5520  139.9790 C   0  0  0  0  0  1  0  0  0  0  0  0
  180.1200  178.5630  141.0740 C   0  0  0  0  0  2  0  0  0  0  0  0
  1  8  1  0  0  0  0
  1  6  1  0  0  0  0
  2 12  1  0  0  0  0
  3 14  2  0  0  0  0
  3 10  1  0  0  0  0
  4 15  1  0  0  0  0
  4  8  2  0  0  0  0
  5  1  2  0  0  0  0
  7  4  1  0  0  0  0
  9  7  2  0  0  0  0
  9  5  1  0  0  0  0
 10 11  2  0  0  0  0
 11  2  1  0  0  0  0
 11  7  1  0  0  0  0
 12 15  2  0  0  0  0
 13 35  1  0  0  0  0
 13  2  2  0  0  0  0
 14 13  1  0  0  0  0
 16 17  1  1  0  0  0
 16  3  1  0  0  0  0
 18 16  1  0  0  0  0
 19 20  1  6  0  0  0
 19 18  1  0  0  0  0
 21 19  1  0  0  0  0
 22 21  1  0  0  0  0
 23 26  1  0  0  0  0
 23 25  1  0  0  0  0
 24 22  1  0  0  0  0
 25 28  1  1  0  0  0
 25 22  1  0  0  0  0
 26 24  1  0  0  0  0
 27 28  2  0  0  0  0
 27 33  1  0  0  0  0
 28 32  1  0  0  0  0
 31 30  1  0  0  0  0
 31 29  1  0  0  0  0
 32 30  2  0  0  0  0
 33 31  2  0  0  0  0
 34 27  1  0  0  0  0
 36 39  1  0  0  0  0
 37 43  1  6  0  0  0
 37 36  1  0  0  0  0
 38 40  1  0  0  0  0
 40 35  1  1  0  0  0
 40 39  1  0  0  0  0
 41 37  1  0  0  0  0
 41 38  1  0  0  0  0
 42 43  1  0  0  0  0
M  END
>  <MODEL>
2

>  <REMARK>
 VINA RESULT:     -10.2      1.494      2.250
  Name = 
  9 active torsions:
  status: ('A' for Active; 'I' for Inactive)
    1  A    between atoms: O_1  and  C_34
    2  A    between atoms: O_1  and  C_35
    3  A    between atoms: C_2  and  N_6
    4  A    between atoms: C_2  and  C_13
    5  A    between atoms: C_3  and  N_4
    6  A    between atoms: C_3  and  C_12
    7  A    between atoms: N_6  and  C_12
    8  A    between atoms: C_14  and  C_22
    9  A    between atoms: C_19  and  C_37
                            x       y       z     vdW  Elec       q    Type
                         _______ _______ _______ _____ _____    ______ ____

>  <TORSDO>
F 9

$$$$
=
 OpenBabel11052416363D

 43 48  0  0  1  0  0  0  0  0999 V2000
  188.0360  177.4550  146.8430 C   0  0  0  0  0  0  0  0  0  0  0  0
  185.9970  178.5660  142.3480 C   0  0  0  0  0  0  0  0  0  0  0  0
  188.0480  178.2250  140.4950 C   0  0  0  0  0  0  0  0  0  0  0  0
  186.5140  178.0840  145.0660 C   0  0  0  0  0  0  0  0  0  0  0  0
  189.0630  177.2870  145.9110 C   0  0  0  0  0  3  0  0  0  0  0  0
  188.2970  177.2110  148.2860 C   0  0  0  0  0  1  0  0  0  0  0  0
  187.5490  177.9110  144.1150 C   0  0  0  0  0  0  0  0  0  0  0  0
  186.7640  177.8540  146.4220 C   0  0  0  0  0  3  0  0  0  0  0  0
  188.8210  177.5140  144.5540 C   0  0  0  0  0  3  0  0  0  0  0  0
  188.2650  177.9820  141.8170 N   0  0  0  0  0  0  0  0  0  0  0  0
  187.2880  178.1470  142.7520 C   0  0  0  0  0  0  0  0  0  0  0  0
  184.9860  178.7320  143.3040 C   0  0  0  0  0  3  0  0  0  0  0  0
  185.7490  178.8140  140.9900 C   0  0  0  0  0  0  0  0  0  0  0  0
  186.7870  178.6400  140.0640 C   0  0  0  0  0  3  0  0  0  0  0  0
  185.2440  178.4910  144.6550 C   0  0  0  0  0  3  0  0  0  0  0  0
  189.1350  178.0310  139.4810 C   0  0  2  0  0  3  0  0  0  0  0  0
  189.0700  179.0050  138.4770 O   0  0  0  0  0  1  0  0  0  0  0  0
  189.1690  176.6660  138.9380 N   0  0  0  0  0  2  0  0  0  0  0  0
  189.6140  176.6530  137.5470 C   0  0  1  0  0  3  0  0  0  0  0  0
  191.1200  176.4780  137.5100 C   0  0  0  0  0  1  0  0  0  0  0  0
  188.9380  175.5140  136.7980 C   0  0  0  0  0  2  0  0  0  0  0  0
  187.8150  176.0130  136.0150 N   0  0  0  0  0  0  0  0  0  0  0  0
  185.9120  177.3550  136.6710 C   0  0  0  0  0  2  0  0  0  0  0  0
  188.0930  177.4020  135.6800 C   0  0  0  0  0  2  0  0  0  0  0  0
  186.6560  176.0510  136.9000 C   0  0  1  0  0  3  0  0  0  0  0  0
  186.7810  178.1500  135.7290 C   0  0  0  0  0  2  0  0  0  0  0  0
  184.9470  174.7410  135.5370 C   0  0  0  0  0  0  0  0  0  0  0  0
  185.7690  174.8620  136.6730 C   0  0  0  0  0  0  0  0  0  0  0  0
  183.3890  171.5340  136.0860 F   0  0  0  0  0  0  0  0  0  0  0  0
  184.9690  172.7060  137.4260 C   0  0  0  0  0  3  0  0  0  0  0  0
  184.1700  172.6230  136.2860 C   0  0  0  0  0  0  0  0  0  0  0  0
  185.7710  173.8320  137.6170 C   0  0  0  0  0  3  0  0  0  0  0  0
  184.1760  173.6320  135.3740 N   0  0  0  0  0  0  0  0  0  0  0  0
  184.9190  175.7150  134.5940 F   0  0  0  0  0  0  0  0  0  0  0  0
  184.4780  179.2410  140.5780 O   0  0  0  0  0  0  0  0  0  0  0  0
  182.7070  176.7810  138.3550 C   0  0  0  0  0  2  0  0  0  0  0  0
  181.5070  177.6630  138.0010 C   0  0  1  0  0  3  0  0  0  0  0  0
  182.6240  179.6250  139.0930 C   0  0  0  0  0  2  0  0  0  0  0  0
  183.3970  177.3050  139.6110 C   0  0  0  0  0  2  0  0  0  0  0  0
  183.8370  178.7550  139.4050 C   0  0  2  0  0  3  0  0  0  0  0  0
  181.9290  179.1240  137.8300 C   0  0  0  0  0  2  0  0  0  0  0  0
  181.4040  175.8680  136.2090 C   0  0  0  0  0  1  0  0  0  0  0  0
  180.7800  177.1440  136.7610 C   0  0  0  0  0  2  0  0  0  0  0  0
  1  6  1  0  0  0  0
  2 11  1  0  0  0  0
  2 12  1  0  0  0  0
  3 10  1  0  0  0  0
  4  8  2  0  0  0  0
  5  1  2  0  0  0  0
  7  9  2  0  0  0  0
  7  4  1  0  0  0  0
  8  1  1  0  0  0  0
  9  5  1  0  0  0  0
 10 11  2  0  0  0  0
 11  7  1  0  0  0  0
 12 15  2  0  0  0  0
 13  2  2  0  0  0  0
 14  3  2  0  0  0  0
 14 13  1  0  0  0  0
 15  4  1  0  0  0  0
 16 17  1  6  0  0  0
 16  3  1  0  0  0  0
 18 16  1  0  0  0  0
 19 20  1  1  0  0  0
 19 18  1  0  0  0  0
 21 19  1  0  0  0  0
 22 21  1  0  0  0  0
 22 25  1  0  0  0  0
 23 25  1  0  0  0  0
 24 26  1  0  0  0  0
 24 22  1  0  0  0  0
 25 28  1  6  0  0  0
 26 23  1  0  0  0  0
 27 28  1  0  0  0  0
 28 32  2  0  0  0  0
 29 31  1  0  0  0  0
 30 32  1  0  0  0  0
 31 30  2  0  0  0  0
 33 27  2  0  0  0  0
 33 31  1  0  0  0  0
 34 27  1  0  0  0  0
 35 13  1  0  0  0  0
 36 39  1  0  0  0  0
 37 43  1  6  0  0  0
 37 36  1  0  0  0  0
 38 40  1  0  0  0  0
 40 39  1  0  0  0  0
 40 35  1  1  0  0  0
 41 37  1  0  0  0  0
 41 38  1  0  0  0  0
 42 43  1  0  0  0  0
M  END
>  <MODEL>
3

>  <REMARK>
 VINA RESULT:      -9.8      2.125      3.502
  Name = 
  9 active torsions:
  status: ('A' for Active; 'I' for Inactive)
    1  A    between atoms: O_1  and  C_34
    2  A    between atoms: O_1  and  C_35
    3  A    between atoms: C_2  and  N_6
    4  A    between atoms: C_2  and  C_13
    5  A    between atoms: C_3  and  N_4
    6  A    between atoms: C_3  and  C_12
    7  A    between atoms: N_6  and  C_12
    8  A    between atoms: C_14  and  C_22
    9  A    between atoms: C_19  and  C_37
                            x       y       z     vdW  Elec       q    Type
                         _______ _______ _______ _____ _____    ______ ____

>  <TORSDO>
F 9

$$$$
=
 OpenBabel11052416363D

 43 48  0  0  1  0  0  0  0  0999 V2000
  187.8240  177.4950  146.6270 C   0  0  0  0  0  0  0  0  0  0  0  0
  185.7650  178.5950  142.1380 C   0  0  0  0  0  0  0  0  0  0  0  0
  187.8080  178.2530  140.2780 C   0  0  0  0  0  0  0  0  0  0  0  0
  186.2940  178.1190  144.8550 C   0  0  0  0  0  0  0  0  0  0  0  0
  188.8470  177.3270  145.6910 C   0  0  0  0  0  3  0  0  0  0  0  0
  188.0910  177.2550  148.0690 C   0  0  0  0  0  1  0  0  0  0  0  0
  187.3250  177.9460  143.9000 C   0  0  0  0  0  0  0  0  0  0  0  0
  186.5500  177.8920  146.2100 C   0  0  0  0  0  3  0  0  0  0  0  0
  188.6000  177.5520  144.3340 C   0  0  0  0  0  3  0  0  0  0  0  0
  188.0310  178.0130  141.5990 N   0  0  0  0  0  0  0  0  0  0  0  0
  187.0580  178.1780  142.5380 C   0  0  0  0  0  0  0  0  0  0  0  0
  184.7580  178.7610  143.0980 C   0  0  0  0  0  3  0  0  0  0  0  0
  185.5110  178.8400  140.7810 C   0  0  0  0  0  0  0  0  0  0  0  0
  186.5450  178.6650  139.8500 C   0  0  0  0  0  3  0  0  0  0  0  0
  185.0210  178.5230  144.4480 C   0  0  0  0  0  3  0  0  0  0  0  0
  188.8920  178.0590  139.2590 C   0  0  2  0  0  3  0  0  0  0  0  0
  189.0550  179.2040  138.4700 O   0  0  0  0  0  1  0  0  0  0  0  0
  188.7040  176.8440  138.4550 N   0  0  0  0  0  2  0  0  0  0  0  0
  189.8750  176.5610  137.6290 C   0  0  1  0  0  3  0  0  0  0  0  0
  190.9730  175.9880  138.5060 C   0  0  0  0  0  1  0  0  0  0  0  0
  189.5100  175.5680  136.5360 C   0  0  0  0  0  2  0  0  0  0  0  0
  188.4150  174.7110  136.9700 N   0  0  0  0  0  0  0  0  0  0  0  0
  187.1000  173.0950  135.7400 C   0  0  0  0  0  2  0  0  0  0  0  0
  188.9630  173.3850  137.2180 C   0  0  0  0  0  2  0  0  0  0  0  0
  187.5150  174.5530  135.8320 C   0  0  1  0  0  3  0  0  0  0  0  0
  187.9260  172.3780  136.7780 C   0  0  0  0  0  2  0  0  0  0  0  0
  186.2760  176.7280  135.3540 C   0  0  0  0  0  0  0  0  0  0  0  0
  186.3260  175.4600  135.9600 C   0  0  0  0  0  0  0  0  0  0  0  0
  182.9960  177.8830  136.3140 F   0  0  0  0  0  0  0  0  0  0  0  0
  184.0960  175.8340  136.8230 C   0  0  0  0  0  3  0  0  0  0  0  0
  184.0850  177.0840  136.2040 C   0  0  0  0  0  0  0  0  0  0  0  0
  185.2230  175.0210  136.6980 C   0  0  0  0  0  3  0  0  0  0  0  0
  185.1640  177.5010  135.4890 N   0  0  0  0  0  0  0  0  0  0  0  0
  187.3210  177.1900  134.6240 F   0  0  0  0  0  0  0  0  0  0  0  0
  184.2380  179.2640  140.3730 O   0  0  0  0  0  0  0  0  0  0  0  0
  182.1760  176.2260  139.5660 C   0  0  0  0  0  2  0  0  0  0  0  0
  180.8390  176.9430  139.3610 C   0  0  1  0  0  3  0  0  0  0  0  0
  182.0080  179.1600  139.4730 C   0  0  0  0  0  2  0  0  0  0  0  0
  183.1350  177.1110  140.3570 C   0  0  0  0  0  2  0  0  0  0  0  0
  183.3440  178.4410  139.6330 C   0  0  2  0  0  3  0  0  0  0  0  0
  181.0400  178.2950  138.6710 C   0  0  0  0  0  2  0  0  0  0  0  0
  180.3920  174.6710  138.3220 C   0  0  0  0  0  1  0  0  0  0  0  0
  179.8480  176.0680  138.5950 C   0  0  0  0  0  2  0  0  0  0  0  0
  1  6  1  0  0  0  0
  2 11  1  0  0  0  0
  2 12  1  0  0  0  0
  3 10  1  0  0  0  0
  4  8  2  0  0  0  0
  5  1  2  0  0  0  0
  7  9  2  0  0  0  0
  7  4  1  0  0  0  0
  8  1  1  0  0  0  0
  9  5  1  0  0  0  0
 10 11  2  0  0  0  0
 11  7  1  0  0  0  0
 12 15  2  0  0  0  0
 13  2  2  0  0  0  0
 14  3  2  0  0  0  0
 14 13  1  0  0  0  0
 15  4  1  0  0  0  0
 16 17  1  6  0  0  0
 16  3  1  0  0  0  0
 18 16  1  0  0  0  0
 19 18  1  0  0  0  0
 19 20  1  1  0  0  0
 21 22  1  0  0  0  0
 21 19  1  0  0  0  0
 22 24  1  0  0  0  0
 23 25  1  0  0  0  0
 23 26  1  0  0  0  0
 25 28  1  1  0  0  0
 25 22  1  0  0  0  0
 26 24  1  0  0  0  0
 27 33  2  0  0  0  0
 27 28  1  0  0  0  0
 28 32  2  0  0  0  0
 31 29  1  0  0  0  0
 31 30  2  0  0  0  0
 32 30  1  0  0  0  0
 33 31  1  0  0  0  0
 34 27  1  0  0  0  0
 35 13  1  0  0  0  0
 36 39  1  0  0  0  0
 37 43  1  6  0  0  0
 37 36  1  0  0  0  0
 38 40  1  0  0  0  0
 40 39  1  0  0  0  0
 40 35  1  1  0  0  0
 41 37  1  0  0  0  0
 41 38  1  0  0  0  0
 42 43  1  0  0  0  0
M  END
>  <MODEL>
4

>  <REMARK>
 VINA RESULT:      -9.7      1.915      2.919
  Name = 
  9 active torsions:
  status: ('A' for Active; 'I' for Inactive)
    1  A    between atoms: O_1  and  C_34
    2  A    between atoms: O_1  and  C_35
    3  A    between atoms: C_2  and  N_6
    4  A    between atoms: C_2  and  C_13
    5  A    between atoms: C_3  and  N_4
    6  A    between atoms: C_3  and  C_12
    7  A    between atoms: N_6  and  C_12
    8  A    between atoms: C_14  and  C_22
    9  A    between atoms: C_19  and  C_37
                            x       y       z     vdW  Elec       q    Type
                         _______ _______ _______ _____ _____    ______ ____

>  <TORSDO>
F 9

$$$$
=
 OpenBabel11052416363D

 43 48  0  0  1  0  0  0  0  0999 V2000
  181.1610  178.9210  142.5080 C   0  0  0  0  0  0  0  0  0  0  0  0
  185.9820  178.4390  143.9660 C   0  0  0  0  0  0  0  0  0  0  0  0
  187.4300  178.0190  141.6250 C   0  0  0  0  0  0  0  0  0  0  0  0
  183.2000  178.7930  143.8100 C   0  0  0  0  0  0  0  0  0  0  0  0
  181.8900  178.7080  141.3360 C   0  0  0  0  0  3  0  0  0  0  0  0
  179.6870  179.1020  142.4420 C   0  0  0  0  0  1  0  0  0  0  0  0
  183.9460  178.5810  142.6260 C   0  0  0  0  0  0  0  0  0  0  0  0
  181.8140  178.9620  143.7430 C   0  0  0  0  0  3  0  0  0  0  0  0
  183.2760  178.5380  141.3940 C   0  0  0  0  0  3  0  0  0  0  0  0
  186.0830  178.2100  141.5790 N   0  0  0  0  0  0  0  0  0  0  0  0
  185.3420  178.4100  142.7040 C   0  0  0  0  0  0  0  0  0  0  0  0
  185.2260  178.6500  145.1270 C   0  0  0  0  0  3  0  0  0  0  0  0
  187.3700  178.2530  144.0380 C   0  0  0  0  0  0  0  0  0  0  0  0
  188.0920  178.0420  142.8540 C   0  0  0  0  0  3  0  0  0  0  0  0
  183.8430  178.8270  145.0490 C   0  0  0  0  0  3  0  0  0  0  0  0
  188.2280  177.8070  140.3740 C   0  0  2  0  0  3  0  0  0  0  0  0
  189.5990  177.9690  140.6150 O   0  0  0  0  0  1  0  0  0  0  0  0
  187.7540  178.6290  139.2520 N   0  0  0  0  0  2  0  0  0  0  0  0
  187.3230  177.8030  138.1270 C   0  0  1  0  0  3  0  0  0  0  0  0
  186.4530  178.6360  137.2050 C   0  0  0  0  0  1  0  0  0  0  0  0
  188.5370  177.2850  137.3710 C   0  0  0  0  0  2  0  0  0  0  0  0
  188.7090  175.8560  137.5970 N   0  0  0  0  0  0  0  0  0  0  0  0
  189.2410  174.0710  136.0540 C   0  0  0  0  0  2  0  0  0  0  0  0
  190.1380  175.5900  137.6750 C   0  0  0  0  0  2  0  0  0  0  0  0
  188.2510  175.1710  136.3930 C   0  0  1  0  0  3  0  0  0  0  0  0
  190.3840  174.2500  137.0210 C   0  0  0  0  0  2  0  0  0  0  0  0
  185.7410  175.1920  135.9500 C   0  0  0  0  0  0  0  0  0  0  0  0
  186.8640  174.6280  136.5810 C   0  0  0  0  0  0  0  0  0  0  0  0
  183.0810  173.0470  137.1040 F   0  0  0  0  0  0  0  0  0  0  0  0
  185.4120  172.9730  137.5850 C   0  0  0  0  0  3  0  0  0  0  0  0
  184.3240  173.5610  136.9390 C   0  0  0  0  0  0  0  0  0  0  0  0
  186.6860  173.5110  137.4020 C   0  0  0  0  0  3  0  0  0  0  0  0
  184.5090  174.6470  136.1420 N   0  0  0  0  0  0  0  0  0  0  0  0
  185.8700  176.2730  135.1400 F   0  0  0  0  0  0  0  0  0  0  0  0
  188.0150  178.2680  145.2830 O   0  0  0  0  0  0  0  0  0  0  0  0
  191.4710  176.8340  145.6330 C   0  0  0  0  0  2  0  0  0  0  0  0
  191.4270  176.5750  147.1410 C   0  0  1  0  0  3  0  0  0  0  0  0
  188.9770  177.1150  147.1630 C   0  0  0  0  0  2  0  0  0  0  0  0
  190.3940  177.8400  145.2360 C   0  0  0  0  0  2  0  0  0  0  0  0
  189.0150  177.3280  145.6530 C   0  0  2  0  0  3  0  0  0  0  0  0
  190.0390  176.1000  147.5760 C   0  0  0  0  0  2  0  0  0  0  0  0
  193.1690  175.9850  148.8880 C   0  0  0  0  0  1  0  0  0  0  0  0
  192.5150  175.5920  147.5700 C   0  0  0  0  0  2  0  0  0  0  0  0
  1  8  1  0  0  0  0
  2 13  1  0  0  0  0
  2 12  1  0  0  0  0
  3 14  1  0  0  0  0
  4 15  1  0  0  0  0
  5  9  1  0  0  0  0
  5  1  2  0  0  0  0
  6  1  1  0  0  0  0
  7 11  1  0  0  0  0
  7  4  1  0  0  0  0
  8  4  2  0  0  0  0
  9  7  2  0  0  0  0
 10  3  2  0  0  0  0
 10 11  1  0  0  0  0
 11  2  2  0  0  0  0
 13 35  1  0  0  0  0
 14 13  2  0  0  0  0
 15 12  2  0  0  0  0
 16 17  1  1  0  0  0
 16  3  1  0  0  0  0
 18 16  1  0  0  0  0
 19 20  1  6  0  0  0
 19 18  1  0  0  0  0
 21 22  1  0  0  0  0
 21 19  1  0  0  0  0
 22 24  1  0  0  0  0
 23 25  1  0  0  0  0
 23 26  1  0  0  0  0
 25 28  1  1  0  0  0
 25 22  1  0  0  0  0
 26 24  1  0  0  0  0
 27 33  2  0  0  0  0
 27 28  1  0  0  0  0
 28 32  2  0  0  0  0
 31 29  1  0  0  0  0
 31 30  2  0  0  0  0
 32 30  1  0  0  0  0
 33 31  1  0  0  0  0
 34 27  1  0  0  0  0
 36 37  1  0  0  0  0
 37 43  1  6  0  0  0
 37 41  1  0  0  0  0
 38 41  1  0  0  0  0
 39 36  1  0  0  0  0
 39 40  1  0  0  0  0
 40 35  1  1  0  0  0
 40 38  1  0  0  0  0
 43 42  1  0  0  0  0
M  END
>  <MODEL>
5

>  <REMARK>
 VINA RESULT:      -9.7      1.608      6.546
  Name = 
  9 active torsions:
  status: ('A' for Active; 'I' for Inactive)
    1  A    between atoms: O_1  and  C_34
    2  A    between atoms: O_1  and  C_35
    3  A    between atoms: C_2  and  N_6
    4  A    between atoms: C_2  and  C_13
    5  A    between atoms: C_3  and  N_4
    6  A    between atoms: C_3  and  C_12
    7  A    between atoms: N_6  and  C_12
    8  A    between atoms: C_14  and  C_22
    9  A    between atoms: C_19  and  C_37
                            x       y       z     vdW  Elec       q    Type
                         _______ _______ _______ _____ _____    ______ ____

>  <TORSDO>
F 9

$$$$
=
 OpenBabel11052416363D

 43 48  0  0  1  0  0  0  0  0999 V2000
  188.5150  177.5020  146.6090 C   0  0  0  0  0  0  0  0  0  0  0  0
  189.5640  177.7560  141.6670 C   0  0  0  0  0  0  0  0  0  0  0  0
  187.1250  178.2380  140.4110 C   0  0  0  0  0  0  0  0  0  0  0  0
  189.6390  177.5170  144.4640 C   0  0  0  0  0  0  0  0  0  0  0  0
  187.2930  177.7410  145.9760 C   0  0  0  0  0  3  0  0  0  0  0  0
  188.5690  177.3650  148.0880 C   0  0  0  0  0  1  0  0  0  0  0  0
  188.4050  177.7640  143.8160 C   0  0  0  0  0  0  0  0  0  0  0  0
  189.6850  177.3880  145.8550 C   0  0  0  0  0  3  0  0  0  0  0  0
  187.2370  177.8710  144.5860 C   0  0  0  0  0  3  0  0  0  0  0  0
  187.1950  178.1340  141.7670 N   0  0  0  0  0  0  0  0  0  0  0  0
  188.3680  177.8900  142.4140 C   0  0  0  0  0  0  0  0  0  0  0  0
  190.7750  177.5120  142.3260 C   0  0  0  0  0  3  0  0  0  0  0  0
  189.5170  177.8680  140.2690 C   0  0  0  0  0  0  0  0  0  0  0  0
  188.2850  178.1100  139.6450 C   0  0  0  0  0  3  0  0  0  0  0  0
  190.8120  177.3940  143.7170 C   0  0  0  0  0  3  0  0  0  0  0  0
  185.8240  178.5130  139.7190 C   0  0  2  0  0  3  0  0  0  0  0  0
  186.0330  178.9990  138.4220 O   0  0  0  0  0  1  0  0  0  0  0  0
  184.9330  179.3760  140.5060 N   0  0  0  0  0  2  0  0  0  0  0  0
  183.8110  178.6240  141.0630 C   0  0  1  0  0  3  0  0  0  0  0  0
  183.8370  178.7430  142.5750 C   0  0  0  0  0  1  0  0  0  0  0  0
  182.5010  179.1720  140.5190 C   0  0  0  0  0  2  0  0  0  0  0  0
  182.5790  179.3440  139.0750 N   0  0  0  0  0  0  0  0  0  0  0  0
  180.9580  178.8680  137.3430 C   0  0  0  0  0  2  0  0  0  0  0  0
  181.8860  180.5800  138.7390 C   0  0  0  0  0  2  0  0  0  0  0  0
  181.7870  178.2780  138.4710 C   0  0  1  0  0  3  0  0  0  0  0  0
  181.1780  180.3580  137.4220 C   0  0  0  0  0  2  0  0  0  0  0  0
  182.7700  175.9340  138.6540 C   0  0  0  0  0  0  0  0  0  0  0  0
  182.6700  177.1660  137.9840 C   0  0  0  0  0  0  0  0  0  0  0  0
  185.0830  174.1290  136.5560 F   0  0  0  0  0  0  0  0  0  0  0  0
  184.2270  176.3390  136.3260 C   0  0  0  0  0  3  0  0  0  0  0  0
  184.2960  175.1300  137.0190 C   0  0  0  0  0  0  0  0  0  0  0  0
  183.4090  177.3590  136.8130 C   0  0  0  0  0  3  0  0  0  0  0  0
  183.5720  174.9540  138.1570 N   0  0  0  0  0  0  0  0  0  0  0  0
  182.0650  175.7030  139.7900 F   0  0  0  0  0  0  0  0  0  0  0  0
  190.6920  177.7260  139.5170 O   0  0  0  0  0  0  0  0  0  0  0  0
  190.6200  175.7720  136.3070 C   0  0  0  0  0  2  0  0  0  0  0  0
  192.1170  175.4650  136.2280 C   0  0  1  0  0  3  0  0  0  0  0  0
  192.4260  176.3680  138.5480 C   0  0  0  0  0  2  0  0  0  0  0  0
  190.3680  176.9440  137.2510 C   0  0  0  0  0  2  0  0  0  0  0  0
  190.9260  176.6310  138.6400 C   0  0  2  0  0  3  0  0  0  0  0  0
  192.6950  175.1880  137.6180 C   0  0  0  0  0  2  0  0  0  0  0  0
  191.8290  172.9880  135.7560 C   0  0  0  0  0  1  0  0  0  0  0  0
  192.4010  174.3130  135.2660 C   0  0  0  0  0  2  0  0  0  0  0  0
  1  6  1  0  0  0  0
  2 12  1  0  0  0  0
  2 11  1  0  0  0  0
  3 10  1  0  0  0  0
  4  8  1  0  0  0  0
  5  1  1  0  0  0  0
  7  4  2  0  0  0  0
  7  9  1  0  0  0  0
  8  1  2  0  0  0  0
  9  5  2  0  0  0  0
 10 11  2  0  0  0  0
 11  7  1  0  0  0  0
 12 15  2  0  0  0  0
 13  2  2  0  0  0  0
 14 13  1  0  0  0  0
 14  3  2  0  0  0  0
 15  4  1  0  0  0  0
 16 17  1  6  0  0  0
 16  3  1  0  0  0  0
 16 18  1  0  0  0  0
 18 19  1  0  0  0  0
 19 20  1  1  0  0  0
 21 19  1  0  0  0  0
 22 21  1  0  0  0  0
 23 26  1  0  0  0  0
 23 25  1  0  0  0  0
 24 22  1  0  0  0  0
 25 28  1  6  0  0  0
 25 22  1  0  0  0  0
 26 24  1  0  0  0  0
 27 34  1  0  0  0  0
 28 27  2  0  0  0  0
 29 31  1  0  0  0  0
 30 32  2  0  0  0  0
 30 31  1  0  0  0  0
 31 33  2  0  0  0  0
 32 28  1  0  0  0  0
 33 27  1  0  0  0  0
 35 13  1  0  0  0  0
 36 39  1  0  0  0  0
 37 43  1  6  0  0  0
 37 36  1  0  0  0  0
 37 41  1  0  0  0  0
 38 40  1  0  0  0  0
 39 40  1  0  0  0  0
 40 35  1  1  0  0  0
 41 38  1  0  0  0  0
 43 42  1  0  0  0  0
M  END
>  <MODEL>
6

>  <REMARK>
 VINA RESULT:      -9.6      2.349      7.200
  Name = 
  9 active torsions:
  status: ('A' for Active; 'I' for Inactive)
    1  A    between atoms: O_1  and  C_34
    2  A    between atoms: O_1  and  C_35
    3  A    between atoms: C_2  and  N_6
    4  A    between atoms: C_2  and  C_13
    5  A    between atoms: C_3  and  N_4
    6  A    between atoms: C_3  and  C_12
    7  A    between atoms: N_6  and  C_12
    8  A    between atoms: C_14  and  C_22
    9  A    between atoms: C_19  and  C_37
                            x       y       z     vdW  Elec       q    Type
                         _______ _______ _______ _____ _____    ______ ____

>  <TORSDO>
F 9

$$$$
=
 OpenBabel11052416363D

 43 48  0  0  1  0  0  0  0  0999 V2000
  191.3250  176.3970  146.9870 C   0  0  0  0  0  0  0  0  0  0  0  0
  187.3130  177.9270  144.3120 C   0  0  0  0  0  0  0  0  0  0  0  0
  188.1860  178.0650  141.6720 C   0  0  0  0  0  0  0  0  0  0  0  0
  189.1130  177.1160  146.3090 C   0  0  0  0  0  0  0  0  0  0  0  0
  191.7600  176.4690  145.6620 C   0  0  0  0  0  3  0  0  0  0  0  0
  192.2690  175.9770  148.0560 C   0  0  0  0  0  1  0  0  0  0  0  0
  189.5460  177.1870  144.9630 C   0  0  0  0  0  0  0  0  0  0  0  0
  190.0040  176.7210  147.3110 C   0  0  0  0  0  3  0  0  0  0  0  0
  190.8760  176.8630  144.6540 C   0  0  0  0  0  3  0  0  0  0  0  0
  189.0320  177.6590  142.6580 N   0  0  0  0  0  0  0  0  0  0  0  0
  188.6420  177.5880  143.9610 C   0  0  0  0  0  0  0  0  0  0  0  0
  186.9030  177.8500  145.6490 C   0  0  0  0  0  3  0  0  0  0  0  0
  186.4220  178.3410  143.3110 C   0  0  0  0  0  0  0  0  0  0  0  0
  186.8690  178.4070  141.9840 C   0  0  0  0  0  3  0  0  0  0  0  0
  187.7980  177.4460  146.6420 C   0  0  0  0  0  3  0  0  0  0  0  0
  188.6340  178.1300  140.2420 C   0  0  2  0  0  3  0  0  0  0  0  0
  187.6360  178.6730  139.4230 O   0  0  0  0  0  1  0  0  0  0  0  0
  189.1310  176.8400  139.7430 N   0  0  0  0  0  2  0  0  0  0  0  0
  190.4520  176.9730  139.1340 C   0  0  1  0  0  3  0  0  0  0  0  0
  191.4850  177.1660  140.2300 C   0  0  0  0  0  1  0  0  0  0  0  0
  190.7760  175.7280  138.3250 C   0  0  0  0  0  2  0  0  0  0  0  0
  191.3790  176.0900  137.0490 N   0  0  0  0  0  0  0  0  0  0  0  0
  191.5780  174.8360  134.9900 C   0  0  0  0  0  2  0  0  0  0  0  0
  190.3060  176.4990  136.1540 C   0  0  0  0  0  2  0  0  0  0  0  0
  191.9250  174.8680  136.4680 C   0  0  1  0  0  3  0  0  0  0  0  0
  190.6640  176.0140  134.7680 C   0  0  0  0  0  2  0  0  0  0  0  0
  194.2860  175.8140  136.3000 C   0  0  0  0  0  0  0  0  0  0  0  0
  193.4070  174.7870  136.6900 C   0  0  0  0  0  0  0  0  0  0  0  0
  197.4740  174.5160  137.3770 F   0  0  0  0  0  0  0  0  0  0  0  0
  195.3030  173.5550  137.5530 C   0  0  0  0  0  3  0  0  0  0  0  0
  196.1400  174.5970  137.1530 C   0  0  0  0  0  0  0  0  0  0  0  0
  193.9320  173.6540  137.3190 C   0  0  0  0  0  3  0  0  0  0  0  0
  195.6200  175.6940  136.5420 N   0  0  0  0  0  0  0  0  0  0  0  0
  193.8190  176.9330  135.6920 F   0  0  0  0  0  0  0  0  0  0  0  0
  185.1060  178.6900  143.6470 O   0  0  0  0  0  0  0  0  0  0  0  0
  181.5030  178.5460  142.5850 C   0  0  0  0  0  2  0  0  0  0  0  0
  181.7250  178.8100  141.0940 C   0  0  1  0  0  3  0  0  0  0  0  0
  184.2020  178.5770  141.4190 C   0  0  0  0  0  2  0  0  0  0  0  0
  182.7200  178.9930  143.3890 C   0  0  0  0  0  2  0  0  0  0  0  0
  183.9730  178.2690  142.8960 C   0  0  2  0  0  3  0  0  0  0  0  0
  182.9990  178.1220  140.5970 C   0  0  0  0  0  2  0  0  0  0  0  0
  179.3290  177.9750  141.1330 C   0  0  0  0  0  1  0  0  0  0  0  0
  180.5090  178.3970  140.2660 C   0  0  0  0  0  2  0  0  0  0  0  0
  1  8  1  0  0  0  0
  1  6  1  0  0  0  0
  2 12  1  0  0  0  0
  3 14  2  0  0  0  0
  3 10  1  0  0  0  0
  4 15  1  0  0  0  0
  4  8  2  0  0  0  0
  5  1  2  0  0  0  0
  7  4  1  0  0  0  0
  9  7  2  0  0  0  0
  9  5  1  0  0  0  0
 10 11  2  0  0  0  0
 11  2  1  0  0  0  0
 11  7  1  0  0  0  0
 12 15  2  0  0  0  0
 13 35  1  0  0  0  0
 13  2  2  0  0  0  0
 14 13  1  0  0  0  0
 16 17  1  6  0  0  0
 16  3  1  0  0  0  0
 18 16  1  0  0  0  0
 19 18  1  0  0  0  0
 19 20  1  1  0  0  0
 21 19  1  0  0  0  0
 22 21  1  0  0  0  0
 23 25  1  0  0  0  0
 24 22  1  0  0  0  0
 25 28  1  6  0  0  0
 25 22  1  0  0  0  0
 26 23  1  0  0  0  0
 26 24  1  0  0  0  0
 27 33  2  0  0  0  0
 27 28  1  0  0  0  0
 28 32  2  0  0  0  0
 31 29  1  0  0  0  0
 31 30  2  0  0  0  0
 32 30  1  0  0  0  0
 33 31  1  0  0  0  0
 34 27  1  0  0  0  0
 36 39  1  0  0  0  0
 37 43  1  6  0  0  0
 37 36  1  0  0  0  0
 38 40  1  0  0  0  0
 40 39  1  0  0  0  0
 40 35  1  1  0  0  0
 41 37  1  0  0  0  0
 41 38  1  0  0  0  0
 43 42  1  0  0  0  0
M  END
>  <MODEL>
7

>  <REMARK>
 VINA RESULT:      -9.6      2.636      4.267
  Name = 
  9 active torsions:
  status: ('A' for Active; 'I' for Inactive)
    1  A    between atoms: O_1  and  C_34
    2  A    between atoms: O_1  and  C_35
    3  A    between atoms: C_2  and  N_6
    4  A    between atoms: C_2  and  C_13
    5  A    between atoms: C_3  and  N_4
    6  A    between atoms: C_3  and  C_12
    7  A    between atoms: N_6  and  C_12
    8  A    between atoms: C_14  and  C_22
    9  A    between atoms: C_19  and  C_37
                            x       y       z     vdW  Elec       q    Type
                         _______ _______ _______ _____ _____    ______ ____

>  <TORSDO>
F 9

$$$$
=
 OpenBabel11052416363D

 43 48  0  0  1  0  0  0  0  0999 V2000
  187.4230  177.5870  145.2360 C   0  0  0  0  0  0  0  0  0  0  0  0
  189.8320  177.3820  140.7920 C   0  0  0  0  0  0  0  0  0  0  0  0
  187.9030  177.9640  138.8710 C   0  0  0  0  0  0  0  0  0  0  0  0
  189.0990  177.3490  143.5020 C   0  0  0  0  0  0  0  0  0  0  0  0
  186.4570  177.8770  144.2700 C   0  0  0  0  0  3  0  0  0  0  0  0
  187.0480  177.5580  146.6740 C   0  0  0  0  0  1  0  0  0  0  0  0
  188.1260  177.6460  142.5180 C   0  0  0  0  0  0  0  0  0  0  0  0
  188.7410  177.3220  144.8530 C   0  0  0  0  0  3  0  0  0  0  0  0
  186.8060  177.9050  142.9170 C   0  0  0  0  0  3  0  0  0  0  0  0
  187.5800  177.9570  140.1930 N   0  0  0  0  0  0  0  0  0  0  0  0
  188.4950  177.6690  141.1590 C   0  0  0  0  0  0  0  0  0  0  0  0
  190.7810  177.0900  141.7810 C   0  0  0  0  0  3  0  0  0  0  0  0
  190.1890  177.3910  139.4360 C   0  0  0  0  0  0  0  0  0  0  0  0
  189.2120  177.6860  138.4750 C   0  0  0  0  0  3  0  0  0  0  0  0
  190.4150  177.0750  143.1290 C   0  0  0  0  0  3  0  0  0  0  0  0
  186.8810  178.2910  137.8230 C   0  0  2  0  0  3  0  0  0  0  0  0
  187.3830  179.2140  136.8970 O   0  0  0  0  0  1  0  0  0  0  0  0
  185.5950  178.7120  138.3960 N   0  0  0  0  0  2  0  0  0  0  0  0
  184.4960  177.8750  137.9190 C   0  0  1  0  0  3  0  0  0  0  0  0
  185.0690  176.6540  137.2230 C   0  0  0  0  0  1  0  0  0  0  0  0
  183.6260  177.4470  139.0910 C   0  0  0  0  0  2  0  0  0  0  0  0
  182.2880  178.0100  138.9660 N   0  0  0  0  0  0  0  0  0  0  0  0
  181.5440  180.3110  138.9580 C   0  0  0  0  0  2  0  0  0  0  0  0
  182.1150  178.4340  137.5840 C   0  0  0  0  0  2  0  0  0  0  0  0
  182.2610  179.2360  139.7550 C   0  0  1  0  0  3  0  0  0  0  0  0
  181.2960  179.7040  137.6000 C   0  0  0  0  0  2  0  0  0  0  0  0
  182.3390  178.8940  142.2800 C   0  0  0  0  0  0  0  0  0  0  0  0
  181.6050  179.0030  141.0840 C   0  0  0  0  0  0  0  0  0  0  0  0
  179.7250  178.4110  144.7180 F   0  0  0  0  0  0  0  0  0  0  0  0
  179.5700  178.7040  142.3600 C   0  0  0  0  0  3  0  0  0  0  0  0
  180.3350  178.6040  143.5230 C   0  0  0  0  0  0  0  0  0  0  0  0
  180.2120  178.9050  141.1380 C   0  0  0  0  0  3  0  0  0  0  0  0
  181.6900  178.7010  143.4590 N   0  0  0  0  0  0  0  0  0  0  0  0
  183.6920  178.9900  142.2740 F   0  0  0  0  0  0  0  0  0  0  0  0
  191.5080  177.0980  139.0580 O   0  0  0  0  0  0  0  0  0  0  0  0
  193.7100  175.5930  136.4090 C   0  0  0  0  0  2  0  0  0  0  0  0
  193.1590  174.1670  136.4790 C   0  0  1  0  0  3  0  0  0  0  0  0
  191.3100  174.9540  137.9820 C   0  0  0  0  0  2  0  0  0  0  0  0
  193.3530  176.3620  137.6780 C   0  0  0  0  0  2  0  0  0  0  0  0
  191.8370  176.3820  137.8740 C   0  0  2  0  0  3  0  0  0  0  0  0
  191.6460  174.1740  136.7140 C   0  0  0  0  0  2  0  0  0  0  0  0
  192.8950  171.9790  135.2230 C   0  0  0  0  0  1  0  0  0  0  0  0
  193.5260  173.3650  135.2320 C   0  0  0  0  0  2  0  0  0  0  0  0
  1  6  1  0  0  0  0
  2 11  1  0  0  0  0
  2 12  1  0  0  0  0
  3 10  1  0  0  0  0
  4  8  2  0  0  0  0
  5  1  2  0  0  0  0
  7  9  2  0  0  0  0
  7  4  1  0  0  0  0
  8  1  1  0  0  0  0
  9  5  1  0  0  0  0
 10 11  2  0  0  0  0
 11  7  1  0  0  0  0
 12 15  2  0  0  0  0
 13  2  2  0  0  0  0
 14  3  2  0  0  0  0
 14 13  1  0  0  0  0
 15  4  1  0  0  0  0
 16 17  1  6  0  0  0
 16 18  1  0  0  0  0
 16  3  1  0  0  0  0
 19 20  1  1  0  0  0
 19 18  1  0  0  0  0
 19 21  1  0  0  0  0
 22 21  1  0  0  0  0
 22 25  1  0  0  0  0
 23 25  1  0  0  0  0
 24 26  1  0  0  0  0
 24 22  1  0  0  0  0
 25 28  1  1  0  0  0
 26 23  1  0  0  0  0
 27 33  1  0  0  0  0
 28 32  1  0  0  0  0
 28 27  2  0  0  0  0
 30 31  1  0  0  0  0
 31 29  1  0  0  0  0
 32 30  2  0  0  0  0
 33 31  2  0  0  0  0
 34 27  1  0  0  0  0
 35 13  1  0  0  0  0
 36 37  1  0  0  0  0
 36 39  1  0  0  0  0
 37 43  1  6  0  0  0
 37 41  1  0  0  0  0
 39 40  1  0  0  0  0
 40 38  1  0  0  0  0
 40 35  1  1  0  0  0
 41 38  1  0  0  0  0
 42 43  1  0  0  0  0
M  END
>  <MODEL>
8

>  <REMARK>
 VINA RESULT:      -9.5      2.834      8.250
  Name = 
  9 active torsions:
  status: ('A' for Active; 'I' for Inactive)
    1  A    between atoms: O_1  and  C_34
    2  A    between atoms: O_1  and  C_35
    3  A    between atoms: C_2  and  N_6
    4  A    between atoms: C_2  and  C_13
    5  A    between atoms: C_3  and  N_4
    6  A    between atoms: C_3  and  C_12
    7  A    between atoms: N_6  and  C_12
    8  A    between atoms: C_14  and  C_22
    9  A    between atoms: C_19  and  C_37
                            x       y       z     vdW  Elec       q    Type
                         _______ _______ _______ _____ _____    ______ ____

>  <TORSDO>
F 9

$$$$
=
 OpenBabel11052416363D

 43 48  0  0  1  0  0  0  0  0999 V2000
  187.8890  177.4360  147.0480 C   0  0  0  0  0  0  0  0  0  0  0  0
  187.7530  178.3400  142.0720 C   0  0  0  0  0  0  0  0  0  0  0  0
  185.0520  178.4340  141.4040 C   0  0  0  0  0  0  0  0  0  0  0  0
  188.4880  177.8700  144.7410 C   0  0  0  0  0  0  0  0  0  0  0  0
  186.5340  177.4820  146.7090 C   0  0  0  0  0  3  0  0  0  0  0  0
  188.2930  177.1800  148.4550 C   0  0  0  0  0  1  0  0  0  0  0  0
  187.1180  177.9220  144.3910 C   0  0  0  0  0  0  0  0  0  0  0  0
  188.8640  177.6280  146.0650 C   0  0  0  0  0  3  0  0  0  0  0  0
  186.1500  177.7230  145.3870 C   0  0  0  0  0  3  0  0  0  0  0  0
  185.4370  178.2240  142.6930 N   0  0  0  0  0  0  0  0  0  0  0  0
  186.7490  178.1640  143.0540 C   0  0  0  0  0  0  0  0  0  0  0  0
  189.1050  178.2850  142.4370 C   0  0  0  0  0  3  0  0  0  0  0  0
  187.3790  178.5650  140.7390 C   0  0  0  0  0  0  0  0  0  0  0  0
  186.0160  178.6110  140.4110 C   0  0  0  0  0  3  0  0  0  0  0  0
  189.4700  178.0520  143.7650 C   0  0  0  0  0  3  0  0  0  0  0  0
  183.6020  178.5040  141.0290 C   0  0  2  0  0  3  0  0  0  0  0  0
  182.8310  179.0170  142.0790 O   0  0  0  0  0  1  0  0  0  0  0  0
  183.0830  177.2240  140.5250 N   0  0  0  0  0  2  0  0  0  0  0  0
  182.1610  177.4220  139.4090 C   0  0  1  0  0  3  0  0  0  0  0  0
  182.8620  178.2150  138.3220 C   0  0  0  0  0  1  0  0  0  0  0  0
  181.7120  176.0750  138.8640 C   0  0  0  0  0  2  0  0  0  0  0  0
  182.0900  175.9380  137.4640 N   0  0  0  0  0  0  0  0  0  0  0  0
  181.8830  174.0590  135.9550 C   0  0  0  0  0  2  0  0  0  0  0  0
  180.8890  176.1200  136.6620 C   0  0  0  0  0  2  0  0  0  0  0  0
  182.4880  174.5490  137.2590 C   0  0  1  0  0  3  0  0  0  0  0  0
  180.9810  175.1730  135.4880 C   0  0  0  0  0  2  0  0  0  0  0  0
  184.6280  173.1750  137.4280 C   0  0  0  0  0  0  0  0  0  0  0  0
  183.9820  174.4140  137.2600 C   0  0  0  0  0  0  0  0  0  0  0  0
  188.1040  174.1100  137.2030 F   0  0  0  0  0  0  0  0  0  0  0  0
  186.1520  175.4660  137.0550 C   0  0  0  0  0  3  0  0  0  0  0  0
  186.7540  174.2180  137.2220 C   0  0  0  0  0  0  0  0  0  0  0  0
  184.7610  175.5600  137.0750 C   0  0  0  0  0  3  0  0  0  0  0  0
  185.9860  173.1090  137.4030 N   0  0  0  0  0  0  0  0  0  0  0  0
  183.9110  172.0380  137.6050 F   0  0  0  0  0  0  0  0  0  0  0  0
  188.3640  178.7300  139.7540 O   0  0  0  0  0  0  0  0  0  0  0  0
  189.3700  177.1120  136.5140 C   0  0  0  0  0  2  0  0  0  0  0  0
  190.6780  176.4850  137.0030 C   0  0  1  0  0  3  0  0  0  0  0  0
  190.0940  177.1030  139.3630 C   0  0  0  0  0  2  0  0  0  0  0  0
  188.9320  178.2280  137.4570 C   0  0  0  0  0  2  0  0  0  0  0  0
  188.7700  177.6860  138.8780 C   0  0  2  0  0  3  0  0  0  0  0  0
  190.5390  175.9730  138.4390 C   0  0  0  0  0  2  0  0  0  0  0  0
  191.3180  174.0410  136.7660 C   0  0  0  0  0  1  0  0  0  0  0  0
  191.1550  175.3820  136.0610 C   0  0  0  0  0  2  0  0  0  0  0  0
  1  6  1  0  0  0  0
  2 12  1  0  0  0  0
  2 11  1  0  0  0  0
  3 10  1  0  0  0  0
  4  8  1  0  0  0  0
  5  1  1  0  0  0  0
  7  4  2  0  0  0  0
  7  9  1  0  0  0  0
  8  1  2  0  0  0  0
  9  5  2  0  0  0  0
 10 11  2  0  0  0  0
 11  7  1  0  0  0  0
 12 15  2  0  0  0  0
 13  2  2  0  0  0  0
 14 13  1  0  0  0  0
 14  3  2  0  0  0  0
 15  4  1  0  0  0  0
 16  3  1  0  0  0  0
 16 17  1  1  0  0  0
 18 16  1  0  0  0  0
 19 20  1  6  0  0  0
 19 18  1  0  0  0  0
 21 19  1  0  0  0  0
 22 21  1  0  0  0  0
 23 25  1  0  0  0  0
 24 22  1  0  0  0  0
 25 28  1  6  0  0  0
 25 22  1  0  0  0  0
 26 23  1  0  0  0  0
 26 24  1  0  0  0  0
 27 34  1  0  0  0  0
 28 27  2  0  0  0  0
 29 31  1  0  0  0  0
 30 32  2  0  0  0  0
 30 31  1  0  0  0  0
 31 33  2  0  0  0  0
 32 28  1  0  0  0  0
 33 27  1  0  0  0  0
 35 13  1  0  0  0  0
 36 37  1  0  0  0  0
 36 39  1  0  0  0  0
 37 43  1  6  0  0  0
 37 41  1  0  0  0  0
 39 40  1  0  0  0  0
 40 38  1  0  0  0  0
 40 35  1  1  0  0  0
 41 38  1  0  0  0  0
 43 42  1  0  0  0  0
M  END
>  <MODEL>
9

>  <REMARK>
 VINA RESULT:      -9.5      2.435      6.587
  Name = 
  9 active torsions:
  status: ('A' for Active; 'I' for Inactive)
    1  A    between atoms: O_1  and  C_34
    2  A    between atoms: O_1  and  C_35
    3  A    between atoms: C_2  and  N_6
    4  A    between atoms: C_2  and  C_13
    5  A    between atoms: C_3  and  N_4
    6  A    between atoms: C_3  and  C_12
    7  A    between atoms: N_6  and  C_12
    8  A    between atoms: C_14  and  C_22
    9  A    between atoms: C_19  and  C_37
                            x       y       z     vdW  Elec       q    Type
                         _______ _______ _______ _____ _____    ______ ____

>  <TORSDO>
F 9

$$$$
