=
 OpenBabel11052414463D

 32 34  0  0  1  0  0  0  0  0999 V2000
  188.7500  176.7210  143.9130 C   0  0  0  0  0  2  0  0  0  0  0  0
  190.5510  177.9070  142.4040 C   0  0  2  0  0  3  0  0  0  0  0  0
  190.9710  176.5260  142.8670 C   0  0  0  0  0  2  0  0  0  0  0  0
  190.1300  177.3920  143.7880 C   0  0  2  0  0  3  0  0  0  0  0  0
  189.4660  177.8990  141.3520 C   0  0  0  0  0  0  0  0  0  0  0  0
  188.5750  178.7920  141.3370 O   0  0  0  0  0  0  0  0  0  0  0  0
  189.4150  176.8870  140.3820 O   0  0  0  0  0  0  0  0  0  0  0  0
  189.8460  177.0310  139.0240 C   0  0  1  0  0  3  0  0  0  0  0  0
  190.8850  175.9830  138.6300 C   0  0  0  0  0  2  0  0  0  0  0  0
  191.6850  176.4260  137.4200 C   0  0  2  0  0  3  0  0  0  0  0  0
  191.4340  175.5710  136.3450 O   0  0  0  0  0  1  0  0  0  0  0  0
  193.1590  176.3850  137.7570 C   0  0  0  0  0  1  0  0  0  0  0  0
  188.6540  177.0090  138.0760 C   0  0  0  0  0  2  0  0  0  0  0  0
  186.8730  178.5770  138.3120 O   0  0  0  0  0  0  0  0  0  0  0  0
  188.8160  179.4250  137.3640 N   0  0  0  0  0  1  0  0  0  0  0  0
  188.0580  178.3680  137.9400 C   0  0  0  0  0  0  0  0  0  0  0  0
  188.1490  176.8010  145.2590 N   0  0  0  0  0  0  0  0  0  0  0  0
  186.7770  177.1510  145.1530 N   0  0  0  0  0  0  0  0  0  0  0  0
  186.5310  178.2810  146.0630 C   0  0  0  0  0  2  0  0  0  0  0  0
  183.1980  178.6780  142.2600 C   0  0  0  0  0  3  0  0  0  0  0  0
  186.5190  177.6710  143.7980 C   0  0  0  0  0  2  0  0  0  0  0  0
  183.1160  179.1410  144.6370 C   0  0  0  0  0  3  0  0  0  0  0  0
  184.4180  178.6540  144.7800 C   0  0  0  0  0  0  0  0  0  0  0  0
  185.0340  178.5790  146.1460 C   0  0  0  0  0  2  0  0  0  0  0  0
  185.1040  178.1510  143.6580 C   0  0  0  0  0  0  0  0  0  0  0  0
  182.5070  179.1550  143.3780 C   0  0  0  0  0  3  0  0  0  0  0  0
  184.4970  178.1800  142.3990 C   0  0  0  0  0  3  0  0  0  0  0  0
  188.8770  177.8060  146.0460 C   0  0  0  0  0  2  0  0  0  0  0  0
  189.3700  177.1990  147.3490 C   0  0  1  0  0  3  0  0  0  0  0  0
  190.8170  176.7600  147.2010 C   0  0  0  0  0  1  0  0  0  0  0  0
  188.1060  177.9970  149.2090 O   0  0  0  0  0  1  0  0  0  0  0  0
  189.2550  178.2330  148.4530 C   0  0  0  0  0  2  0  0  0  0  0  0
  1 17  1  0  0  0  0
  2  5  1  6  0  0  0
  2  3  1  0  0  0  0
  2  4  1  0  0  0  0
  3  4  1  0  0  0  0
  4  1  1  6  0  0  0
  6  5  2  0  0  0  0
  7  5  1  0  0  0  0
  8 13  1  6  0  0  0
  8  7  1  0  0  0  0
  9  8  1  0  0  0  0
 10 12  1  1  0  0  0
 10  9  1  0  0  0  0
 11 10  1  0  0  0  0
 15 16  1  0  0  0  0
 16 13  1  0  0  0  0
 16 14  2  0  0  0  0
 17 28  1  0  0  0  0
 18 17  1  0  0  0  0
 18 19  1  0  0  0  0
 19 24  1  0  0  0  0
 20 27  2  0  0  0  0
 20 26  1  0  0  0  0
 21 18  1  0  0  0  0
 22 23  1  0  0  0  0
 23 24  1  0  0  0  0
 25 21  1  0  0  0  0
 25 23  2  0  0  0  0
 26 22  2  0  0  0  0
 27 25  1  0  0  0  0
 28 29  1  0  0  0  0
 29 30  1  6  0  0  0
 29 32  1  0  0  0  0
 32 31  1  0  0  0  0
M  END
>  <MODEL>
1

>  <REMARK>
 VINA RESULT:      -7.9      0.000      0.000
  Name = 
  13 active torsions:
  status: ('A' for Active; 'I' for Inactive)
    1  A    between atoms: C_1  and  N_5
    2  A    between atoms: C_1  and  C_30
    3  A    between atoms: N_2  and  N_5
    4  A    between atoms: C_3  and  C_8
    5  A    between atoms: C_3  and  C_20
    6  A    between atoms: C_4  and  C_24
    7  A    between atoms: N_5  and  C_14
    8  A    between atoms: C_13  and  C_14
    9  A    between atoms: C_13  and  C_29
   10  A    between atoms: C_15  and  C_20
   11  A    between atoms: C_15  and  C_26
   12  A    between atoms: O_16  and  C_20
   13  A    between atoms: O_16  and  C_24
                            x       y       z     vdW  Elec       q    Type
                         _______ _______ _______ _____ _____    ______ ____

>  <TORSDO>
F 13

$$$$
=
 OpenBabel11052414463D

 32 34  0  0  1  0  0  0  0  0999 V2000
  186.6250  177.3450  144.3620 C   0  0  0  0  0  2  0  0  0  0  0  0
  184.4770  178.8060  144.7920 C   0  0  2  0  0  3  0  0  0  0  0  0
  185.7080  179.3220  145.5110 C   0  0  0  0  0  2  0  0  0  0  0  0
  185.5290  177.8250  145.3310 C   0  0  2  0  0  3  0  0  0  0  0  0
  184.5010  179.0240  143.2970 C   0  0  0  0  0  0  0  0  0  0  0  0
  185.1890  179.9530  142.7910 O   0  0  0  0  0  0  0  0  0  0  0  0
  183.7400  178.2130  142.4420 O   0  0  0  0  0  0  0  0  0  0  0  0
  182.8570  178.6980  141.4250 C   0  0  1  0  0  3  0  0  0  0  0  0
  183.2610  178.2250  140.0300 C   0  0  0  0  0  2  0  0  0  0  0  0
  184.5870  178.8270  139.6040 C   0  0  2  0  0  3  0  0  0  0  0  0
  184.4340  180.1930  139.3650 O   0  0  0  0  0  1  0  0  0  0  0  0
  185.0560  178.1470  138.3370 C   0  0  0  0  0  1  0  0  0  0  0  0
  181.4140  178.3210  141.7390 C   0  0  0  0  0  2  0  0  0  0  0  0
  180.9260  178.6700  144.0460 O   0  0  0  0  0  0  0  0  0  0  0  0
  180.3190  180.4110  142.6350 N   0  0  0  0  0  1  0  0  0  0  0  0
  180.8900  179.1300  142.8750 C   0  0  0  0  0  0  0  0  0  0  0  0
  187.9910  177.7770  144.7180 N   0  0  0  0  0  0  0  0  0  0  0  0
  188.8300  177.7090  143.5740 N   0  0  0  0  0  0  0  0  0  0  0  0
  189.3160  176.3250  143.4570 C   0  0  0  0  0  2  0  0  0  0  0  0
  189.1810  178.2580  138.7700 C   0  0  0  0  0  3  0  0  0  0  0  0
  188.0150  177.9460  142.3690 C   0  0  0  0  0  2  0  0  0  0  0  0
  190.6590  176.7250  139.9260 C   0  0  0  0  0  3  0  0  0  0  0  0
  189.9280  176.9030  141.1040 C   0  0  0  0  0  0  0  0  0  0  0  0
  190.3800  176.2270  142.3640 C   0  0  0  0  0  2  0  0  0  0  0  0
  188.8320  177.7870  141.1190 C   0  0  0  0  0  0  0  0  0  0  0  0
  190.2850  177.3990  138.7590 C   0  0  0  0  0  3  0  0  0  0  0  0
  188.4530  178.4480  139.9480 C   0  0  0  0  0  3  0  0  0  0  0  0
  188.5030  176.9050  145.7850 C   0  0  0  0  0  2  0  0  0  0  0  0
  189.3660  177.7020  146.7480 C   0  0  1  0  0  3  0  0  0  0  0  0
  188.5720  178.0410  147.9960 C   0  0  0  0  0  1  0  0  0  0  0  0
  191.6440  177.1800  146.2630 O   0  0  0  0  0  1  0  0  0  0  0  0
  190.5840  176.8780  147.1200 C   0  0  0  0  0  2  0  0  0  0  0  0
  1 17  1  0  0  0  0
  2  5  1  6  0  0  0
  2  4  1  0  0  0  0
  2  3  1  0  0  0  0
  4  1  1  6  0  0  0
  4  3  1  0  0  0  0
  6  5  2  0  0  0  0
  7  5  1  0  0  0  0
  8  9  1  6  0  0  0
  8 13  1  0  0  0  0
  8  7  1  0  0  0  0
 10 12  1  6  0  0  0
 10  9  1  0  0  0  0
 11 10  1  0  0  0  0
 13 16  1  0  0  0  0
 15 16  1  0  0  0  0
 16 14  2  0  0  0  0
 17 28  1  0  0  0  0
 18 17  1  0  0  0  0
 19 18  1  0  0  0  0
 20 27  1  0  0  0  0
 21 18  1  0  0  0  0
 22 23  2  0  0  0  0
 23 25  1  0  0  0  0
 23 24  1  0  0  0  0
 24 19  1  0  0  0  0
 25 21  1  0  0  0  0
 26 20  2  0  0  0  0
 26 22  1  0  0  0  0
 27 25  2  0  0  0  0
 28 29  1  0  0  0  0
 29 32  1  0  0  0  0
 29 30  1  1  0  0  0
 31 32  1  0  0  0  0
M  END
>  <MODEL>
2

>  <REMARK>
 VINA RESULT:      -7.9      2.805      6.288
  Name = 
  13 active torsions:
  status: ('A' for Active; 'I' for Inactive)
    1  A    between atoms: C_1  and  N_5
    2  A    between atoms: C_1  and  C_30
    3  A    between atoms: N_2  and  N_5
    4  A    between atoms: C_3  and  C_8
    5  A    between atoms: C_3  and  C_20
    6  A    between atoms: C_4  and  C_24
    7  A    between atoms: N_5  and  C_14
    8  A    between atoms: C_13  and  C_14
    9  A    between atoms: C_13  and  C_29
   10  A    between atoms: C_15  and  C_20
   11  A    between atoms: C_15  and  C_26
   12  A    between atoms: O_16  and  C_20
   13  A    between atoms: O_16  and  C_24
                            x       y       z     vdW  Elec       q    Type
                         _______ _______ _______ _____ _____    ______ ____

>  <TORSDO>
F 13

$$$$
=
 OpenBabel11052414463D

 32 34  0  0  1  0  0  0  0  0999 V2000
  188.8460  177.4310  143.8300 C   0  0  0  0  0  2  0  0  0  0  0  0
  191.2330  177.7960  142.7820 C   0  0  2  0  0  3  0  0  0  0  0  0
  191.2500  176.9330  144.0280 C   0  0  0  0  0  2  0  0  0  0  0  0
  190.2450  178.0660  143.9260 C   0  0  2  0  0  3  0  0  0  0  0  0
  190.6480  177.1120  141.5680 C   0  0  0  0  0  0  0  0  0  0  0  0
  190.5580  175.8540  141.5160 O   0  0  0  0  0  0  0  0  0  0  0  0
  190.2120  177.8600  140.4640 O   0  0  0  0  0  0  0  0  0  0  0  0
  189.3520  177.3680  139.4300 C   0  0  1  0  0  3  0  0  0  0  0  0
  188.1880  178.3150  139.1450 C   0  0  0  0  0  2  0  0  0  0  0  0
  187.7050  178.1810  137.7130 C   0  0  2  0  0  3  0  0  0  0  0  0
  187.7830  179.4160  137.0670 O   0  0  0  0  0  1  0  0  0  0  0  0
  186.2680  177.7100  137.7170 C   0  0  0  0  0  1  0  0  0  0  0  0
  190.1460  177.0740  138.1640 C   0  0  0  0  0  2  0  0  0  0  0  0
  191.2410  174.9600  138.3080 O   0  0  0  0  0  0  0  0  0  0  0  0
  189.1860  174.9360  137.2240 N   0  0  0  0  0  1  0  0  0  0  0  0
  190.2310  175.6060  137.9200 C   0  0  0  0  0  0  0  0  0  0  0  0
  188.2180  177.1310  145.1320 N   0  0  0  0  0  0  0  0  0  0  0  0
  186.8190  177.3630  145.0550 N   0  0  0  0  0  0  0  0  0  0  0  0
  186.4950  178.4560  145.9860 C   0  0  0  0  0  2  0  0  0  0  0  0
  183.0700  178.6170  142.2490 C   0  0  0  0  0  3  0  0  0  0  0  0
  186.4930  177.8780  143.7120 C   0  0  0  0  0  2  0  0  0  0  0  0
  182.9920  179.0380  144.6330 C   0  0  0  0  0  3  0  0  0  0  0  0
  184.3340  178.6630  144.7460 C   0  0  0  0  0  0  0  0  0  0  0  0
  184.9790  178.6230  146.1000 C   0  0  0  0  0  2  0  0  0  0  0  0
  185.0390  178.2360  143.6050 C   0  0  0  0  0  0  0  0  0  0  0  0
  182.3610  179.0180  143.3850 C   0  0  0  0  0  3  0  0  0  0  0  0
  184.4090  178.2300  142.3570 C   0  0  0  0  0  3  0  0  0  0  0  0
  188.8260  177.9860  146.1610 C   0  0  0  0  0  2  0  0  0  0  0  0
  189.0980  177.1810  147.4210 C   0  0  1  0  0  3  0  0  0  0  0  0
  190.4540  176.5050  147.3200 C   0  0  0  0  0  1  0  0  0  0  0  0
  187.8020  178.1100  149.1970 O   0  0  0  0  0  1  0  0  0  0  0  0
  189.0730  178.1100  148.6190 C   0  0  0  0  0  2  0  0  0  0  0  0
  1 17  1  0  0  0  0
  2  5  1  6  0  0  0
  2  4  1  0  0  0  0
  2  3  1  0  0  0  0
  4  1  1  6  0  0  0
  4  3  1  0  0  0  0
  6  5  2  0  0  0  0
  7  5  1  0  0  0  0
  8 13  1  6  0  0  0
  8  7  1  0  0  0  0
  9  8  1  0  0  0  0
 10 12  1  1  0  0  0
 10  9  1  0  0  0  0
 11 10  1  0  0  0  0
 15 16  1  0  0  0  0
 16 13  1  0  0  0  0
 16 14  2  0  0  0  0
 17 28  1  0  0  0  0
 18 17  1  0  0  0  0
 18 19  1  0  0  0  0
 19 24  1  0  0  0  0
 20 27  2  0  0  0  0
 20 26  1  0  0  0  0
 21 18  1  0  0  0  0
 22 23  1  0  0  0  0
 23 24  1  0  0  0  0
 25 21  1  0  0  0  0
 25 23  2  0  0  0  0
 26 22  2  0  0  0  0
 27 25  1  0  0  0  0
 28 29  1  0  0  0  0
 29 30  1  6  0  0  0
 29 32  1  0  0  0  0
 32 31  1  0  0  0  0
M  END
>  <MODEL>
3

>  <REMARK>
 VINA RESULT:      -7.9      1.323      2.486
  Name = 
  13 active torsions:
  status: ('A' for Active; 'I' for Inactive)
    1  A    between atoms: C_1  and  N_5
    2  A    between atoms: C_1  and  C_30
    3  A    between atoms: N_2  and  N_5
    4  A    between atoms: C_3  and  C_8
    5  A    between atoms: C_3  and  C_20
    6  A    between atoms: C_4  and  C_24
    7  A    between atoms: N_5  and  C_14
    8  A    between atoms: C_13  and  C_14
    9  A    between atoms: C_13  and  C_29
   10  A    between atoms: C_15  and  C_20
   11  A    between atoms: C_15  and  C_26
   12  A    between atoms: O_16  and  C_20
   13  A    between atoms: O_16  and  C_24
                            x       y       z     vdW  Elec       q    Type
                         _______ _______ _______ _____ _____    ______ ____

>  <TORSDO>
F 13

$$$$
=
 OpenBabel11052414463D

 32 34  0  0  1  0  0  0  0  0999 V2000
  189.4090  176.6020  142.1940 C   0  0  0  0  0  2  0  0  0  0  0  0
  191.4710  177.1050  143.7510 C   0  0  2  0  0  3  0  0  0  0  0  0
  191.5090  177.8650  142.4400 C   0  0  0  0  0  2  0  0  0  0  0  0
  190.9180  176.4670  142.4680 C   0  0  2  0  0  3  0  0  0  0  0  0
  190.4320  177.6090  144.7240 C   0  0  0  0  0  0  0  0  0  0  0  0
  190.1920  178.8430  144.8300 O   0  0  0  0  0  0  0  0  0  0  0  0
  189.7290  176.7170  145.5480 O   0  0  0  0  0  0  0  0  0  0  0  0
  189.6750  176.7920  146.9770 C   0  0  1  0  0  3  0  0  0  0  0  0
  188.2410  176.8330  147.5020 C   0  0  0  0  0  2  0  0  0  0  0  0
  188.0570  177.9440  148.5190 C   0  0  2  0  0  3  0  0  0  0  0  0
  187.1120  178.8610  148.0560 O   0  0  0  0  0  1  0  0  0  0  0  0
  189.3780  178.6500  148.7270 C   0  0  0  0  0  1  0  0  0  0  0  0
  190.4610  175.6480  147.6060 C   0  0  0  0  0  2  0  0  0  0  0  0
  192.4700  176.7790  148.2130 O   0  0  0  0  0  0  0  0  0  0  0  0
  192.7120  175.1450  146.5810 N   0  0  0  0  0  1  0  0  0  0  0  0
  191.9270  175.8920  147.5030 C   0  0  0  0  0  0  0  0  0  0  0  0
  189.0350  177.7760  141.3820 N   0  0  0  0  0  0  0  0  0  0  0  0
  187.8990  178.4110  141.9500 N   0  0  0  0  0  0  0  0  0  0  0  0
  186.8170  178.3670  140.9530 C   0  0  0  0  0  2  0  0  0  0  0  0
  184.6280  178.4160  145.5280 C   0  0  0  0  0  3  0  0  0  0  0  0
  187.4200  177.6060  143.0880 C   0  0  0  0  0  2  0  0  0  0  0  0
  184.0700  179.3790  143.3760 C   0  0  0  0  0  3  0  0  0  0  0  0
  185.2650  178.8870  142.8430 C   0  0  0  0  0  0  0  0  0  0  0  0
  185.6290  179.2070  141.4230 C   0  0  0  0  0  2  0  0  0  0  0  0
  186.1580  178.1780  143.6680 C   0  0  0  0  0  0  0  0  0  0  0  0
  183.7500  179.1420  144.7160 C   0  0  0  0  0  3  0  0  0  0  0  0
  185.8290  177.9310  145.0030 C   0  0  0  0  0  3  0  0  0  0  0  0
  188.7450  177.3320  140.0100 C   0  0  0  0  0  2  0  0  0  0  0  0
  189.8610  177.7620  139.0720 C   0  0  1  0  0  3  0  0  0  0  0  0
  190.7920  176.5930  138.8060 C   0  0  0  0  0  1  0  0  0  0  0  0
  188.9100  179.5940  137.8740 O   0  0  0  0  0  1  0  0  0  0  0  0
  189.2540  178.2450  137.7690 C   0  0  0  0  0  2  0  0  0  0  0  0
  2  5  1  1  0  0  0
  3  4  1  0  0  0  0
  3  2  1  0  0  0  0
  4  1  1  1  0  0  0
  4  2  1  0  0  0  0
  5  6  2  0  0  0  0
  5  7  1  0  0  0  0
  7  8  1  0  0  0  0
  8  9  1  6  0  0  0
  8 13  1  0  0  0  0
  9 10  1  0  0  0  0
 10 12  1  6  0  0  0
 11 10  1  0  0  0  0
 15 16  1  0  0  0  0
 16 13  1  0  0  0  0
 16 14  2  0  0  0  0
 17 18  1  0  0  0  0
 17  1  1  0  0  0  0
 18 21  1  0  0  0  0
 19 24  1  0  0  0  0
 19 18  1  0  0  0  0
 21 25  1  0  0  0  0
 22 26  1  0  0  0  0
 23 22  2  0  0  0  0
 23 25  1  0  0  0  0
 24 23  1  0  0  0  0
 25 27  2  0  0  0  0
 26 20  2  0  0  0  0
 27 20  1  0  0  0  0
 28 17  1  0  0  0  0
 29 30  1  6  0  0  0
 29 28  1  0  0  0  0
 32 31  1  0  0  0  0
 32 29  1  0  0  0  0
M  END
>  <MODEL>
4

>  <REMARK>
 VINA RESULT:      -7.8      2.196      7.194
  Name = 
  13 active torsions:
  status: ('A' for Active; 'I' for Inactive)
    1  A    between atoms: C_1  and  N_5
    2  A    between atoms: C_1  and  C_30
    3  A    between atoms: N_2  and  N_5
    4  A    between atoms: C_3  and  C_8
    5  A    between atoms: C_3  and  C_20
    6  A    between atoms: C_4  and  C_24
    7  A    between atoms: N_5  and  C_14
    8  A    between atoms: C_13  and  C_14
    9  A    between atoms: C_13  and  C_29
   10  A    between atoms: C_15  and  C_20
   11  A    between atoms: C_15  and  C_26
   12  A    between atoms: O_16  and  C_20
   13  A    between atoms: O_16  and  C_24
                            x       y       z     vdW  Elec       q    Type
                         _______ _______ _______ _____ _____    ______ ____

>  <TORSDO>
F 13

$$$$
=
 OpenBabel11052414463D

 32 34  0  0  1  0  0  0  0  0999 V2000
  190.4100  178.0780  141.6960 C   0  0  0  0  0  2  0  0  0  0  0  0
  190.4350  176.1850  143.5260 C   0  0  2  0  0  3  0  0  0  0  0  0
  191.4310  177.2940  143.7960 C   0  0  0  0  0  2  0  0  0  0  0  0
  191.1390  176.8960  142.3610 C   0  0  2  0  0  3  0  0  0  0  0  0
  188.9950  176.5830  143.7520 C   0  0  0  0  0  0  0  0  0  0  0  0
  188.0510  175.8710  143.3130 O   0  0  0  0  0  0  0  0  0  0  0  0
  188.6780  177.7650  144.4370 O   0  0  0  0  0  0  0  0  0  0  0  0
  187.9760  177.8270  145.6840 C   0  0  1  0  0  3  0  0  0  0  0  0
  186.4670  177.6590  145.5100 C   0  0  0  0  0  2  0  0  0  0  0  0
  185.7350  178.9670  145.7400 C   0  0  2  0  0  3  0  0  0  0  0  0
  185.3650  179.0760  147.0810 O   0  0  0  0  0  1  0  0  0  0  0  0
  184.4950  179.0010  144.8750 C   0  0  0  0  0  1  0  0  0  0  0  0
  188.5340  176.8060  146.6670 C   0  0  0  0  0  2  0  0  0  0  0  0
  190.6070  177.3040  147.7350 O   0  0  0  0  0  0  0  0  0  0  0  0
  188.7360  178.2790  148.7070 N   0  0  0  0  0  1  0  0  0  0  0  0
  189.3590  177.4740  147.7140 C   0  0  0  0  0  0  0  0  0  0  0  0
  189.8650  177.7870  140.3550 N   0  0  0  0  0  0  0  0  0  0  0  0
  188.4460  177.7690  140.4060 N   0  0  0  0  0  0  0  0  0  0  0  0
  188.0160  178.8600  141.2950 C   0  0  0  0  0  2  0  0  0  0  0  0
  184.2990  178.1340  137.9220 C   0  0  0  0  0  3  0  0  0  0  0  0
  187.9160  178.1120  139.0750 C   0  0  0  0  0  2  0  0  0  0  0  0
  184.3600  178.7230  140.2720 C   0  0  0  0  0  3  0  0  0  0  0  0
  185.7520  178.5940  140.2710 C   0  0  0  0  0  0  0  0  0  0  0  0
  186.5110  178.7730  141.5520 C   0  0  0  0  0  2  0  0  0  0  0  0
  186.4170  178.2060  139.0930 C   0  0  0  0  0  0  0  0  0  0  0  0
  183.6340  178.4960  139.0980 C   0  0  0  0  0  3  0  0  0  0  0  0
  185.6900  177.9930  137.9190 C   0  0  0  0  0  3  0  0  0  0  0  0
  190.3810  176.4870  139.9040 C   0  0  0  0  0  2  0  0  0  0  0  0
  190.9920  176.6150  138.5190 C   0  0  1  0  0  3  0  0  0  0  0  0
  192.5050  176.5210  138.6100 C   0  0  0  0  0  1  0  0  0  0  0  0
  191.2280  174.3500  137.8030 O   0  0  0  0  0  1  0  0  0  0  0  0
  190.4580  175.5030  137.6370 C   0  0  0  0  0  2  0  0  0  0  0  0
  2  5  1  6  0  0  0
  2  3  1  0  0  0  0
  4  1  1  6  0  0  0
  4  2  1  0  0  0  0
  4  3  1  0  0  0  0
  5  7  1  0  0  0  0
  6  5  2  0  0  0  0
  7  8  1  0  0  0  0
  8  9  1  6  0  0  0
  8 13  1  0  0  0  0
  9 10  1  0  0  0  0
 10 12  1  6  0  0  0
 10 11  1  0  0  0  0
 13 16  1  0  0  0  0
 16 14  2  0  0  0  0
 16 15  1  0  0  0  0
 17 18  1  0  0  0  0
 17  1  1  0  0  0  0
 18 19  1  0  0  0  0
 19 24  1  0  0  0  0
 20 26  1  0  0  0  0
 21 25  1  0  0  0  0
 21 18  1  0  0  0  0
 23 22  1  0  0  0  0
 23 24  1  0  0  0  0
 25 23  2  0  0  0  0
 26 22  2  0  0  0  0
 27 20  2  0  0  0  0
 27 25  1  0  0  0  0
 28 17  1  0  0  0  0
 29 30  1  1  0  0  0
 29 28  1  0  0  0  0
 32 31  1  0  0  0  0
 32 29  1  0  0  0  0
M  END
>  <MODEL>
5

>  <REMARK>
 VINA RESULT:      -7.2      2.208      7.335
  Name = 
  13 active torsions:
  status: ('A' for Active; 'I' for Inactive)
    1  A    between atoms: C_1  and  N_5
    2  A    between atoms: C_1  and  C_30
    3  A    between atoms: N_2  and  N_5
    4  A    between atoms: C_3  and  C_8
    5  A    between atoms: C_3  and  C_20
    6  A    between atoms: C_4  and  C_24
    7  A    between atoms: N_5  and  C_14
    8  A    between atoms: C_13  and  C_14
    9  A    between atoms: C_13  and  C_29
   10  A    between atoms: C_15  and  C_20
   11  A    between atoms: C_15  and  C_26
   12  A    between atoms: O_16  and  C_20
   13  A    between atoms: O_16  and  C_24
                            x       y       z     vdW  Elec       q    Type
                         _______ _______ _______ _____ _____    ______ ____

>  <TORSDO>
F 13

$$$$
=
 OpenBabel11052414463D

 32 34  0  0  1  0  0  0  0  0999 V2000
  186.8730  177.9740  144.3300 C   0  0  0  0  0  2  0  0  0  0  0  0
  184.5890  178.3640  145.5790 C   0  0  2  0  0  3  0  0  0  0  0  0
  185.7420  179.1460  146.1780 C   0  0  0  0  0  2  0  0  0  0  0  0
  186.0060  177.7730  145.5870 C   0  0  2  0  0  3  0  0  0  0  0  0
  184.1140  178.8930  144.2460 C   0  0  0  0  0  0  0  0  0  0  0  0
  184.1110  180.1320  144.0070 O   0  0  0  0  0  0  0  0  0  0  0  0
  183.6460  178.0190  143.2540 O   0  0  0  0  0  0  0  0  0  0  0  0
  183.3770  178.3880  141.8970 C   0  0  1  0  0  3  0  0  0  0  0  0
  182.1840  179.3350  141.7780 C   0  0  0  0  0  2  0  0  0  0  0  0
  180.8860  178.5690  141.6030 C   0  0  2  0  0  3  0  0  0  0  0  0
  181.0920  177.4670  140.7730 O   0  0  0  0  0  1  0  0  0  0  0  0
  179.8540  179.4810  140.9770 C   0  0  0  0  0  1  0  0  0  0  0  0
  184.6200  178.9810  141.2440 C   0  0  0  0  0  2  0  0  0  0  0  0
  184.9570  179.7830  139.0250 O   0  0  0  0  0  0  0  0  0  0  0  0
  184.0180  177.6640  139.1770 N   0  0  0  0  0  1  0  0  0  0  0  0
  184.5570  178.8440  139.7620 C   0  0  0  0  0  0  0  0  0  0  0  0
  188.3220  178.0760  144.5940 N   0  0  0  0  0  0  0  0  0  0  0  0
  189.0430  177.9310  143.3790 N   0  0  0  0  0  0  0  0  0  0  0  0
  189.4700  176.5270  143.2770 C   0  0  0  0  0  2  0  0  0  0  0  0
  188.9420  178.2720  138.5440 C   0  0  0  0  0  3  0  0  0  0  0  0
  188.1220  178.1480  142.2480 C   0  0  0  0  0  2  0  0  0  0  0  0
  190.4750  176.7340  139.6190 C   0  0  0  0  0  3  0  0  0  0  0  0
  189.8680  176.9860  140.8520 C   0  0  0  0  0  0  0  0  0  0  0  0
  190.4200  176.3470  142.0920 C   0  0  0  0  0  2  0  0  0  0  0  0
  188.8080  177.9090  140.9340 C   0  0  0  0  0  0  0  0  0  0  0  0
  190.0110  177.3740  138.4650 C   0  0  0  0  0  3  0  0  0  0  0  0
  188.3380  178.5360  139.7770 C   0  0  0  0  0  3  0  0  0  0  0  0
  188.7060  177.0260  145.5490 C   0  0  0  0  0  2  0  0  0  0  0  0
  189.4630  177.6310  146.7200 C   0  0  1  0  0  3  0  0  0  0  0  0
  188.5620  177.6970  147.9400 C   0  0  0  0  0  1  0  0  0  0  0  0
  191.7440  177.1540  146.2040 O   0  0  0  0  0  1  0  0  0  0  0  0
  190.6780  176.7740  147.0210 C   0  0  0  0  0  2  0  0  0  0  0  0
  1 17  1  0  0  0  0
  2  5  1  6  0  0  0
  2  4  1  0  0  0  0
  2  3  1  0  0  0  0
  4  1  1  6  0  0  0
  4  3  1  0  0  0  0
  6  5  2  0  0  0  0
  7  5  1  0  0  0  0
  8 13  1  1  0  0  0
  8  7  1  0  0  0  0
  9  8  1  0  0  0  0
 10 12  1  6  0  0  0
 10  9  1  0  0  0  0
 11 10  1  0  0  0  0
 14 16  2  0  0  0  0
 15 16  1  0  0  0  0
 16 13  1  0  0  0  0
 17 28  1  0  0  0  0
 18 17  1  0  0  0  0
 19 18  1  0  0  0  0
 20 27  1  0  0  0  0
 21 18  1  0  0  0  0
 22 23  2  0  0  0  0
 23 25  1  0  0  0  0
 23 24  1  0  0  0  0
 24 19  1  0  0  0  0
 25 21  1  0  0  0  0
 26 20  2  0  0  0  0
 26 22  1  0  0  0  0
 27 25  2  0  0  0  0
 28 29  1  0  0  0  0
 29 32  1  0  0  0  0
 29 30  1  1  0  0  0
 31 32  1  0  0  0  0
M  END
>  <MODEL>
6

>  <REMARK>
 VINA RESULT:      -7.0      2.621      6.500
  Name = 
  13 active torsions:
  status: ('A' for Active; 'I' for Inactive)
    1  A    between atoms: C_1  and  N_5
    2  A    between atoms: C_1  and  C_30
    3  A    between atoms: N_2  and  N_5
    4  A    between atoms: C_3  and  C_8
    5  A    between atoms: C_3  and  C_20
    6  A    between atoms: C_4  and  C_24
    7  A    between atoms: N_5  and  C_14
    8  A    between atoms: C_13  and  C_14
    9  A    between atoms: C_13  and  C_29
   10  A    between atoms: C_15  and  C_20
   11  A    between atoms: C_15  and  C_26
   12  A    between atoms: O_16  and  C_20
   13  A    between atoms: O_16  and  C_24
                            x       y       z     vdW  Elec       q    Type
                         _______ _______ _______ _____ _____    ______ ____

>  <TORSDO>
F 13

$$$$
=
 OpenBabel11052414463D

 32 34  0  0  1  0  0  0  0  0999 V2000
  188.3930  177.6190  141.0090 C   0  0  0  0  0  2  0  0  0  0  0  0
  189.4730  177.8780  138.6230 C   0  0  2  0  0  3  0  0  0  0  0  0
  190.1230  176.7950  139.4620 C   0  0  0  0  0  2  0  0  0  0  0  0
  189.5940  178.0440  140.1450 C   0  0  2  0  0  3  0  0  0  0  0  0
  188.0950  177.5190  138.1170 C   0  0  0  0  0  0  0  0  0  0  0  0
  187.7540  176.3130  137.9730 O   0  0  0  0  0  0  0  0  0  0  0  0
  187.1740  178.5210  137.7750 O   0  0  0  0  0  0  0  0  0  0  0  0
  185.7660  178.3180  137.6150 C   0  0  1  0  0  3  0  0  0  0  0  0
  185.4490  177.0910  136.7620 C   0  0  0  0  0  2  0  0  0  0  0  0
  184.3140  176.2810  137.3590 C   0  0  2  0  0  3  0  0  0  0  0  0
  184.7050  174.9500  137.5040 O   0  0  0  0  0  1  0  0  0  0  0  0
  183.1160  176.3530  136.4380 C   0  0  0  0  0  1  0  0  0  0  0  0
  185.0750  178.2400  138.9710 C   0  0  0  0  0  2  0  0  0  0  0  0
  184.3060  180.4940  139.0840 O   0  0  0  0  0  0  0  0  0  0  0  0
  182.6440  178.8760  139.2130 N   0  0  0  0  0  1  0  0  0  0  0  0
  184.0050  179.2720  139.0810 C   0  0  0  0  0  0  0  0  0  0  0  0
  188.7340  177.2560  142.3990 N   0  0  0  0  0  0  0  0  0  0  0  0
  187.5750  177.3340  143.2150 N   0  0  0  0  0  0  0  0  0  0  0  0
  187.9570  177.9930  144.4740 C   0  0  0  0  0  2  0  0  0  0  0  0
  183.0550  179.0260  143.6800 C   0  0  0  0  0  3  0  0  0  0  0  0
  186.6000  178.2370  142.5760 C   0  0  0  0  0  2  0  0  0  0  0  0
  184.3940  178.5880  145.6510 C   0  0  0  0  0  3  0  0  0  0  0  0
  185.5120  178.3580  144.8450 C   0  0  0  0  0  0  0  0  0  0  0  0
  186.8040  177.9300  145.4760 C   0  0  0  0  0  2  0  0  0  0  0  0
  185.3920  178.4370  143.4440 C   0  0  0  0  0  0  0  0  0  0  0  0
  183.1670  178.9240  145.0690 C   0  0  0  0  0  3  0  0  0  0  0  0
  184.1680  178.7870  142.8680 C   0  0  0  0  0  3  0  0  0  0  0  0
  189.7720  178.1760  142.8890 C   0  0  0  0  0  2  0  0  0  0  0  0
  191.0410  177.4090  143.2180 C   0  0  1  0  0  3  0  0  0  0  0  0
  191.5680  177.8390  144.5760 C   0  0  0  0  0  1  0  0  0  0  0  0
  191.7520  175.2320  143.8920 O   0  0  0  0  0  1  0  0  0  0  0  0
  190.7350  175.9240  143.2300 C   0  0  0  0  0  2  0  0  0  0  0  0
  1 17  1  0  0  0  0
  2  5  1  1  0  0  0
  2  3  1  0  0  0  0
  2  4  1  0  0  0  0
  3  4  1  0  0  0  0
  4  1  1  1  0  0  0
  6  5  2  0  0  0  0
  7  5  1  0  0  0  0
  8  9  1  1  0  0  0
  8  7  1  0  0  0  0
  8 13  1  0  0  0  0
  9 10  1  0  0  0  0
 10 12  1  6  0  0  0
 10 11  1  0  0  0  0
 13 16  1  0  0  0  0
 16 14  2  0  0  0  0
 16 15  1  0  0  0  0
 17 28  1  0  0  0  0
 17 18  1  0  0  0  0
 18 19  1  0  0  0  0
 19 24  1  0  0  0  0
 20 26  1  0  0  0  0
 21 18  1  0  0  0  0
 21 25  1  0  0  0  0
 23 24  1  0  0  0  0
 23 22  1  0  0  0  0
 25 23  2  0  0  0  0
 26 22  2  0  0  0  0
 27 25  1  0  0  0  0
 27 20  2  0  0  0  0
 28 29  1  0  0  0  0
 29 32  1  0  0  0  0
 29 30  1  1  0  0  0
 32 31  1  0  0  0  0
M  END
>  <MODEL>
7

>  <REMARK>
 VINA RESULT:      -7.0      2.595      4.326
  Name = 
  13 active torsions:
  status: ('A' for Active; 'I' for Inactive)
    1  A    between atoms: C_1  and  N_5
    2  A    between atoms: C_1  and  C_30
    3  A    between atoms: N_2  and  N_5
    4  A    between atoms: C_3  and  C_8
    5  A    between atoms: C_3  and  C_20
    6  A    between atoms: C_4  and  C_24
    7  A    between atoms: N_5  and  C_14
    8  A    between atoms: C_13  and  C_14
    9  A    between atoms: C_13  and  C_29
   10  A    between atoms: C_15  and  C_20
   11  A    between atoms: C_15  and  C_26
   12  A    between atoms: O_16  and  C_20
   13  A    between atoms: O_16  and  C_24
                            x       y       z     vdW  Elec       q    Type
                         _______ _______ _______ _____ _____    ______ ____

>  <TORSDO>
F 13

$$$$
=
 OpenBabel11052414463D

 32 34  0  0  1  0  0  0  0  0999 V2000
  189.0940  176.7700  141.0540 C   0  0  0  0  0  2  0  0  0  0  0  0
  190.0610  177.4060  138.6900 C   0  0  2  0  0  3  0  0  0  0  0  0
  191.1320  177.2160  139.7460 C   0  0  0  0  0  2  0  0  0  0  0  0
  189.7910  177.8020  140.1490 C   0  0  2  0  0  3  0  0  0  0  0  0
  189.4090  176.1210  138.2360 C   0  0  0  0  0  0  0  0  0  0  0  0
  190.1010  175.0880  138.0200 O   0  0  0  0  0  0  0  0  0  0  0  0
  188.0250  176.0560  138.0220 O   0  0  0  0  0  0  0  0  0  0  0  0
  187.3890  176.1460  136.7420 C   0  0  1  0  0  3  0  0  0  0  0  0
  186.9890  174.7770  136.1950 C   0  0  0  0  0  2  0  0  0  0  0  0
  186.7610  173.7790  137.3150 C   0  0  2  0  0  3  0  0  0  0  0  0
  187.5190  172.6290  137.0900 O   0  0  0  0  0  1  0  0  0  0  0  0
  185.2950  173.4100  137.3600 C   0  0  0  0  0  1  0  0  0  0  0  0
  186.1930  177.0880  136.7990 C   0  0  0  0  0  2  0  0  0  0  0  0
  185.9920  178.6250  138.6100 O   0  0  0  0  0  0  0  0  0  0  0  0
  187.4800  179.2550  136.9420 N   0  0  0  0  0  1  0  0  0  0  0  0
  186.5440  178.3480  137.5130 C   0  0  0  0  0  0  0  0  0  0  0  0
  189.2610  177.0100  142.5010 N   0  0  0  0  0  0  0  0  0  0  0  0
  187.9880  177.1070  143.1230 N   0  0  0  0  0  0  0  0  0  0  0  0
  188.1760  177.7600  144.4280 C   0  0  0  0  0  2  0  0  0  0  0  0
  183.4810  178.8760  142.8670 C   0  0  0  0  0  3  0  0  0  0  0  0
  187.1430  178.0270  142.3390 C   0  0  0  0  0  2  0  0  0  0  0  0
  184.4810  178.4160  145.0250 C   0  0  0  0  0  3  0  0  0  0  0  0
  185.7100  178.1670  144.4060 C   0  0  0  0  0  0  0  0  0  0  0  0
  186.8770  177.7180  145.2340 C   0  0  0  0  0  2  0  0  0  0  0  0
  185.8150  178.2470  143.0040 C   0  0  0  0  0  0  0  0  0  0  0  0
  183.3690  178.7730  144.2560 C   0  0  0  0  0  3  0  0  0  0  0  0
  184.7050  178.6180  142.2410 C   0  0  0  0  0  3  0  0  0  0  0  0
  190.0240  178.2520  142.6920 C   0  0  0  0  0  2  0  0  0  0  0  0
  191.4300  177.9360  143.1740 C   0  0  1  0  0  3  0  0  0  0  0  0
  191.8410  178.9230  144.2530 C   0  0  0  0  0  1  0  0  0  0  0  0
  191.6540  176.5570  145.1090 O   0  0  0  0  0  1  0  0  0  0  0  0
  191.4600  176.5240  143.7270 C   0  0  0  0  0  2  0  0  0  0  0  0
  1 17  1  0  0  0  0
  2  5  1  1  0  0  0
  2  3  1  0  0  0  0
  2  4  1  0  0  0  0
  3  4  1  0  0  0  0
  4  1  1  1  0  0  0
  6  5  2  0  0  0  0
  7  5  1  0  0  0  0
  8  9  1  1  0  0  0
  8 13  1  0  0  0  0
  8  7  1  0  0  0  0
  9 10  1  0  0  0  0
 10 12  1  6  0  0  0
 11 10  1  0  0  0  0
 13 16  1  0  0  0  0
 15 16  1  0  0  0  0
 16 14  2  0  0  0  0
 17 28  1  0  0  0  0
 17 18  1  0  0  0  0
 18 19  1  0  0  0  0
 19 24  1  0  0  0  0
 20 26  1  0  0  0  0
 21 25  1  0  0  0  0
 21 18  1  0  0  0  0
 23 22  1  0  0  0  0
 23 24  1  0  0  0  0
 25 23  2  0  0  0  0
 26 22  2  0  0  0  0
 27 20  2  0  0  0  0
 27 25  1  0  0  0  0
 28 29  1  0  0  0  0
 29 32  1  0  0  0  0
 29 30  1  1  0  0  0
 32 31  1  0  0  0  0
M  END
>  <MODEL>
8

>  <REMARK>
 VINA RESULT:      -6.9      2.294      3.603
  Name = 
  13 active torsions:
  status: ('A' for Active; 'I' for Inactive)
    1  A    between atoms: C_1  and  N_5
    2  A    between atoms: C_1  and  C_30
    3  A    between atoms: N_2  and  N_5
    4  A    between atoms: C_3  and  C_8
    5  A    between atoms: C_3  and  C_20
    6  A    between atoms: C_4  and  C_24
    7  A    between atoms: N_5  and  C_14
    8  A    between atoms: C_13  and  C_14
    9  A    between atoms: C_13  and  C_29
   10  A    between atoms: C_15  and  C_20
   11  A    between atoms: C_15  and  C_26
   12  A    between atoms: O_16  and  C_20
   13  A    between atoms: O_16  and  C_24
                            x       y       z     vdW  Elec       q    Type
                         _______ _______ _______ _____ _____    ______ ____

>  <TORSDO>
F 13

$$$$
=
 OpenBabel11052414463D

 32 34  0  0  1  0  0  0  0  0999 V2000
  188.4210  177.1810  141.2260 C   0  0  0  0  0  2  0  0  0  0  0  0
  189.1510  178.4410  139.0330 C   0  0  2  0  0  3  0  0  0  0  0  0
  190.1870  177.4540  139.5310 C   0  0  0  0  0  2  0  0  0  0  0  0
  189.3390  178.2080  140.5390 C   0  0  2  0  0  3  0  0  0  0  0  0
  187.9280  177.7950  138.4250 C   0  0  0  0  0  0  0  0  0  0  0  0
  187.9770  176.6190  137.9710 O   0  0  0  0  0  0  0  0  0  0  0  0
  186.7180  178.4980  138.3310 O   0  0  0  0  0  0  0  0  0  0  0  0
  185.4310  177.9610  138.6580 C   0  0  1  0  0  3  0  0  0  0  0  0
  184.6460  178.8690  139.6030 C   0  0  0  0  0  2  0  0  0  0  0  0
  183.4900  179.5430  138.8880 C   0  0  2  0  0  3  0  0  0  0  0  0
  183.7580  180.9030  138.7260 O   0  0  0  0  0  1  0  0  0  0  0  0
  182.2320  179.3760  139.7120 C   0  0  0  0  0  1  0  0  0  0  0  0
  184.6360  177.6600  137.3940 C   0  0  0  0  0  2  0  0  0  0  0  0
  183.0580  175.9210  137.8050 O   0  0  0  0  0  0  0  0  0  0  0  0
  185.0740  175.2280  136.8830 N   0  0  0  0  0  1  0  0  0  0  0  0
  184.1970  176.2360  137.3700 C   0  0  0  0  0  0  0  0  0  0  0  0
  188.7600  176.8990  142.6340 N   0  0  0  0  0  0  0  0  0  0  0  0
  187.6120  177.0820  143.4510 N   0  0  0  0  0  0  0  0  0  0  0  0
  188.0370  177.7900  144.6690 C   0  0  0  0  0  2  0  0  0  0  0  0
  183.1890  179.0280  143.8420 C   0  0  0  0  0  3  0  0  0  0  0  0
  186.6800  177.9970  142.7670 C   0  0  0  0  0  2  0  0  0  0  0  0
  184.5190  178.6330  145.8290 C   0  0  0  0  0  3  0  0  0  0  0  0
  185.6180  178.3010  145.0310 C   0  0  0  0  0  0  0  0  0  0  0  0
  186.8910  177.8430  145.6790 C   0  0  0  0  0  2  0  0  0  0  0  0
  185.4900  178.3070  143.6290 C   0  0  0  0  0  0  0  0  0  0  0  0
  183.3060  178.9980  145.2350 C   0  0  0  0  0  3  0  0  0  0  0  0
  184.2810  178.6860  143.0390 C   0  0  0  0  0  3  0  0  0  0  0  0
  189.8400  177.8050  143.0530 C   0  0  0  0  0  2  0  0  0  0  0  0
  191.0060  177.0090  143.6140 C   0  0  1  0  0  3  0  0  0  0  0  0
  192.0050  176.7080  142.5110 C   0  0  0  0  0  1  0  0  0  0  0  0
  191.6590  177.0980  145.9090 O   0  0  0  0  0  1  0  0  0  0  0  0
  191.6750  177.8150  144.7110 C   0  0  0  0  0  2  0  0  0  0  0  0
  1 17  1  0  0  0  0
  2  5  1  6  0  0  0
  2  3  1  0  0  0  0
  2  4  1  0  0  0  0
  3  4  1  0  0  0  0
  4  1  1  6  0  0  0
  6  5  2  0  0  0  0
  7  5  1  0  0  0  0
  7  8  1  0  0  0  0
  8 13  1  6  0  0  0
  8  9  1  0  0  0  0
 10  9  1  0  0  0  0
 10 12  1  1  0  0  0
 11 10  1  0  0  0  0
 15 16  1  0  0  0  0
 16 13  1  0  0  0  0
 16 14  2  0  0  0  0
 17 28  1  0  0  0  0
 17 18  1  0  0  0  0
 18 19  1  0  0  0  0
 19 24  1  0  0  0  0
 20 26  1  0  0  0  0
 21 18  1  0  0  0  0
 21 25  1  0  0  0  0
 23 24  1  0  0  0  0
 23 22  1  0  0  0  0
 25 23  2  0  0  0  0
 26 22  2  0  0  0  0
 27 25  1  0  0  0  0
 27 20  2  0  0  0  0
 28 29  1  0  0  0  0
 29 30  1  6  0  0  0
 29 32  1  0  0  0  0
 32 31  1  0  0  0  0
M  END
>  <MODEL>
9

>  <REMARK>
 VINA RESULT:      -6.9      2.486      4.604
  Name = 
  13 active torsions:
  status: ('A' for Active; 'I' for Inactive)
    1  A    between atoms: C_1  and  N_5
    2  A    between atoms: C_1  and  C_30
    3  A    between atoms: N_2  and  N_5
    4  A    between atoms: C_3  and  C_8
    5  A    between atoms: C_3  and  C_20
    6  A    between atoms: C_4  and  C_24
    7  A    between atoms: N_5  and  C_14
    8  A    between atoms: C_13  and  C_14
    9  A    between atoms: C_13  and  C_29
   10  A    between atoms: C_15  and  C_20
   11  A    between atoms: C_15  and  C_26
   12  A    between atoms: O_16  and  C_20
   13  A    between atoms: O_16  and  C_24
                            x       y       z     vdW  Elec       q    Type
                         _______ _______ _______ _____ _____    ______ ____

>  <TORSDO>
F 13

$$$$
