=
 OpenBabel11052417043D

 32 36  0  0  1  0  0  0  0  0999 V2000
  187.7060  177.2780  143.6790 C   0  0  1  0  0  3  0  0  0  0  0  0
  190.6480  176.9620  139.5710 C   0  0  1  0  0  3  0  0  0  0  0  0
  192.8170  176.5630  138.3130 C   0  0  0  0  0  0  0  0  0  0  0  0
  193.5050  176.3530  137.0200 C   0  0  0  0  0  0  0  0  0  0  0  0
  189.7280  176.7140  141.6240 C   0  0  1  0  0  3  0  0  0  0  0  0
  188.8120  178.5600  140.2240 C   0  0  0  0  0  2  0  0  0  0  0  0
  194.7830  175.9690  134.5940 N   0  0  0  0  0  0  0  0  0  0  0  0
  187.9970  178.2780  142.5630 C   0  0  0  0  0  2  0  0  0  0  0  0
  189.5280  177.8910  139.0470 C   0  0  2  0  0  3  0  0  0  0  0  0
  188.5460  177.1470  138.1040 C   0  0  2  0  0  3  0  0  0  0  0  0
  190.6510  176.4240  137.0810 C   0  0  2  0  0  3  0  0  0  0  0  0
  195.5020  176.4040  135.6620 C   0  0  0  0  0  3  0  0  0  0  0  0
  188.9620  176.4660  143.9930 C   0  0  0  0  0  2  0  0  0  0  0  0
  188.4730  177.5470  141.3130 C   0  0  2  0  0  3  0  0  0  0  0  0
  194.8760  176.6040  136.8940 C   0  0  0  0  0  3  0  0  0  0  0  0
  189.4350  175.7240  142.7460 C   0  0  0  0  0  2  0  0  0  0  0  0
  189.1960  176.2060  137.1680 N   0  0  0  0  0  0  0  0  0  0  0  0
  191.3100  175.5980  135.9780 C   0  0  0  0  0  2  0  0  0  0  0  0
  190.1230  176.0140  140.4730 O   0  0  0  0  0  0  0  0  0  0  0  0
  193.4640  176.9550  139.3240 O   0  0  0  0  0  0  0  0  0  0  0  0
  193.4490  175.7200  134.6840 C   0  0  0  0  0  3  0  0  0  0  0  0
  191.3570  176.2190  138.4320 C   0  0  2  0  0  3  0  0  0  0  0  0
  192.7770  175.9150  135.8920 C   0  0  0  0  0  0  0  0  0  0  0  0
  188.4660  179.3530  137.0670 N   0  0  0  0  0  1  0  0  0  0  0  0
  187.7100  178.1360  137.3050 C   0  0  0  0  0  2  0  0  0  0  0  0
  187.8230  174.2390  136.7390 C   0  0  0  0  0  1  0  0  0  0  0  0
  188.9000  174.8470  137.6160 C   0  0  0  0  0  2  0  0  0  0  0  0
  187.2450  178.0280  144.9150 C   0  0  0  0  0  2  0  0  0  0  0  0
  185.0950  178.8610  145.9320 C   0  0  0  0  0  0  0  0  0  0  0  0
  185.8040  178.2220  144.8710 N   0  0  0  0  0  2  0  0  0  0  0  0
  183.7200  179.0210  145.8410 O   0  0  0  0  0  0  0  0  0  0  0  0
  185.7070  179.2810  146.9510 O   0  0  0  0  0  1  0  0  0  0  0  0
  1 13  1  0  0  0  0
  1 28  1  1  0  0  0
  2 19  1  1  0  0  0
  3 20  2  0  0  0  0
  4  3  1  0  0  0  0
  5 16  1  1  0  0  0
  7 21  2  0  0  0  0
  7 12  1  0  0  0  0
  8  1  1  0  0  0  0
  9  2  1  0  0  0  0
  9  6  1  1  0  0  0
 10 25  1  6  0  0  0
 10  9  1  0  0  0  0
 11 18  1  6  0  0  0
 11 17  1  0  0  0  0
 11 22  1  0  0  0  0
 12 15  2  0  0  0  0
 14  6  1  6  0  0  0
 14  5  1  0  0  0  0
 14  8  1  0  0  0  0
 15  4  1  0  0  0  0
 16 13  1  0  0  0  0
 17 27  1  0  0  0  0
 17 10  1  0  0  0  0
 19  5  1  0  0  0  0
 21 23  1  0  0  0  0
 22  3  1  6  0  0  0
 22  2  1  0  0  0  0
 23 18  1  0  0  0  0
 23  4  2  0  0  0  0
 24 25  1  0  0  0  0
 26 27  1  0  0  0  0
 29 32  1  0  0  0  0
 30 28  1  0  0  0  0
 30 29  1  0  0  0  0
 31 29  2  0  0  0  0
M  END
>  <MODEL>
1

>  <REMARK>
 VINA RESULT:      -7.5      0.000      0.000
  Name = 
  4 active torsions:
  status: ('A' for Active; 'I' for Inactive)
    1  A    between atoms: C_2  and  C_24
    2  A    between atoms: N_10  and  C_24
    3  A    between atoms: C_13  and  C_15
    4  A    between atoms: C_25  and  N_26
                            x       y       z     vdW  Elec       q    Type
                         _______ _______ _______ _____ _____    ______ ____

>  <TORSDO>
F 4

$$$$
=
 OpenBabel11052417043D

 32 36  0  0  1  0  0  0  0  0999 V2000
  186.0440  177.7500  143.1480 C   0  0  1  0  0  3  0  0  0  0  0  0
  182.6890  179.6920  139.8920 C   0  0  1  0  0  3  0  0  0  0  0  0
  181.8590  181.3300  138.1380 C   0  0  0  0  0  0  0  0  0  0  0  0
  180.8420  181.6820  137.1220 C   0  0  0  0  0  0  0  0  0  0  0  0
  184.5780  179.0700  140.9710 C   0  0  1  0  0  3  0  0  0  0  0  0
  182.4430  178.7230  142.2060 C   0  0  0  0  0  2  0  0  0  0  0  0
  178.9310  182.3350  135.2280 N   0  0  0  0  0  0  0  0  0  0  0  0
  184.6070  178.2260  143.3400 C   0  0  0  0  0  2  0  0  0  0  0  0
  181.7430  178.9440  140.8610 C   0  0  2  0  0  3  0  0  0  0  0  0
  181.2080  177.6230  140.2490 C   0  0  2  0  0  3  0  0  0  0  0  0
  180.7330  179.1140  138.3650 C   0  0  2  0  0  3  0  0  0  0  0  0
  179.7080  183.3180  135.7540 C   0  0  0  0  0  3  0  0  0  0  0  0
  186.7550  178.6360  142.1250 C   0  0  0  0  0  2  0  0  0  0  0  0
  183.8600  178.1940  142.0100 C   0  0  2  0  0  3  0  0  0  0  0  0
  180.6770  183.0100  136.7100 C   0  0  0  0  0  3  0  0  0  0  0  0
  186.0170  178.5960  140.7900 C   0  0  0  0  0  2  0  0  0  0  0  0
  180.8450  177.7160  138.8200 N   0  0  0  0  0  0  0  0  0  0  0  0
  180.1690  179.2340  136.9500 C   0  0  0  0  0  2  0  0  0  0  0  0
  183.9010  178.9910  139.7420 O   0  0  0  0  0  0  0  0  0  0  0  0
  182.6010  182.2220  138.6340 O   0  0  0  0  0  0  0  0  0  0  0  0
  179.0650  181.0360  135.6100 C   0  0  0  0  0  3  0  0  0  0  0  0
  182.0570  179.8850  138.5080 C   0  0  2  0  0  3  0  0  0  0  0  0
  180.0130  180.6810  136.5700 C   0  0  0  0  0  0  0  0  0  0  0  0
  179.1270  176.3560  140.1560 N   0  0  0  0  0  1  0  0  0  0  0  0
  180.0050  177.1140  141.0290 C   0  0  0  0  0  2  0  0  0  0  0  0
  182.5040  175.9340  138.9130 C   0  0  0  0  0  1  0  0  0  0  0  0
  181.8570  176.9980  138.0490 C   0  0  0  0  0  2  0  0  0  0  0  0
  186.7700  177.8020  144.4790 C   0  0  0  0  0  2  0  0  0  0  0  0
  186.3670  178.7010  146.7980 C   0  0  0  0  0  0  0  0  0  0  0  0
  186.0460  178.6540  145.4080 N   0  0  0  0  0  2  0  0  0  0  0  0
  185.6440  179.5310  147.6430 O   0  0  0  0  0  1  0  0  0  0  0  0
  187.3000  177.9950  147.2650 O   0  0  0  0  0  0  0  0  0  0  0  0
  1  8  1  0  0  0  0
  1 28  1  1  0  0  0
  2 19  1  6  0  0  0
  2  9  1  0  0  0  0
  3 20  2  0  0  0  0
  4  3  1  0  0  0  0
  5 16  1  6  0  0  0
  5 14  1  0  0  0  0
  7 21  2  0  0  0  0
  7 12  1  0  0  0  0
  9  6  1  1  0  0  0
 10  9  1  0  0  0  0
 10 25  1  1  0  0  0
 11 18  1  6  0  0  0
 11 22  1  0  0  0  0
 11 17  1  0  0  0  0
 12 15  2  0  0  0  0
 13  1  1  0  0  0  0
 14  6  1  1  0  0  0
 14  8  1  0  0  0  0
 15  4  1  0  0  0  0
 16 13  1  0  0  0  0
 17 10  1  0  0  0  0
 19  5  1  0  0  0  0
 21 23  1  0  0  0  0
 22  3  1  1  0  0  0
 22  2  1  0  0  0  0
 23 18  1  0  0  0  0
 23  4  2  0  0  0  0
 24 25  1  0  0  0  0
 27 17  1  0  0  0  0
 27 26  1  0  0  0  0
 28 30  1  0  0  0  0
 29 32  2  0  0  0  0
 29 31  1  0  0  0  0
 30 29  1  0  0  0  0
M  END
>  <MODEL>
2

>  <REMARK>
 VINA RESULT:      -7.2      6.498      9.407
  Name = 
  4 active torsions:
  status: ('A' for Active; 'I' for Inactive)
    1  A    between atoms: C_2  and  C_24
    2  A    between atoms: N_10  and  C_24
    3  A    between atoms: C_13  and  C_15
    4  A    between atoms: C_25  and  N_26
                            x       y       z     vdW  Elec       q    Type
                         _______ _______ _______ _____ _____    ______ ____

>  <TORSDO>
F 4

$$$$
=
 OpenBabel11052417043D

 32 36  0  0  1  0  0  0  0  0999 V2000
  184.5730  178.8720  144.0010 C   0  0  1  0  0  3  0  0  0  0  0  0
  188.6820  177.3470  141.4690 C   0  0  1  0  0  3  0  0  0  0  0  0
  190.0630  176.8550  139.3950 C   0  0  0  0  0  0  0  0  0  0  0  0
  191.3820  176.5340  138.8050 C   0  0  0  0  0  0  0  0  0  0  0  0
  186.7600  178.3540  142.1100 C   0  0  1  0  0  3  0  0  0  0  0  0
  187.5470  176.4750  143.5440 C   0  0  0  0  0  2  0  0  0  0  0  0
  193.8530  175.9270  137.7120 N   0  0  0  0  0  0  0  0  0  0  0  0
  185.3630  177.5680  144.0480 C   0  0  0  0  0  2  0  0  0  0  0  0
  188.8860  176.6070  142.8120 C   0  0  2  0  0  3  0  0  0  0  0  0
  189.9740  177.2810  143.6890 C   0  0  2  0  0  3  0  0  0  0  0  0
  191.2210  177.1710  141.5840 C   0  0  2  0  0  3  0  0  0  0  0  0
  192.7250  175.6380  137.0090 C   0  0  0  0  0  3  0  0  0  0  0  0
  184.5400  179.4120  142.5710 C   0  0  0  0  0  2  0  0  0  0  0  0
  186.7840  177.7960  143.5420 C   0  0  2  0  0  3  0  0  0  0  0  0
  191.4710  175.9370  137.5430 C   0  0  0  0  0  3  0  0  0  0  0  0
  185.9600  179.6530  142.0660 C   0  0  0  0  0  2  0  0  0  0  0  0
  191.1580  177.7480  142.9390 N   0  0  0  0  0  0  0  0  0  0  0  0
  192.5330  177.4840  140.8670 C   0  0  0  0  0  2  0  0  0  0  0  0
  188.0750  178.6000  141.6800 O   0  0  0  0  0  0  0  0  0  0  0  0
  189.0020  176.6080  138.7590 O   0  0  0  0  0  0  0  0  0  0  0  0
  193.7990  176.5050  138.9420 C   0  0  0  0  0  3  0  0  0  0  0  0
  190.0060  177.5590  140.7240 C   0  0  2  0  0  3  0  0  0  0  0  0
  192.5670  176.8120  139.5210 C   0  0  0  0  0  0  0  0  0  0  0  0
  190.1060  176.9070  146.0950 N   0  0  0  0  0  1  0  0  0  0  0  0
  190.4330  176.3450  144.7970 C   0  0  0  0  0  2  0  0  0  0  0  0
  191.3000  179.7860  144.2690 C   0  0  0  0  0  1  0  0  0  0  0  0
  191.1090  179.2080  142.8810 C   0  0  0  0  0  2  0  0  0  0  0  0
  183.1610  178.6200  144.4960 C   0  0  0  0  0  2  0  0  0  0  0  0
  180.8180  178.9580  143.6320 C   0  0  0  0  0  0  0  0  0  0  0  0
  182.2030  179.3010  143.6390 N   0  0  0  0  0  2  0  0  0  0  0  0
  179.9460  179.6390  142.7950 O   0  0  0  0  0  0  0  0  0  0  0  0
  180.3800  178.0430  144.3800 O   0  0  0  0  0  1  0  0  0  0  0  0
  1  8  1  0  0  0  0
  1 28  1  6  0  0  0
  2 19  1  1  0  0  0
  2  9  1  0  0  0  0
  4  3  1  0  0  0  0
  4 23  1  0  0  0  0
  5 16  1  1  0  0  0
  5 14  1  0  0  0  0
  7 21  1  0  0  0  0
  9  6  1  1  0  0  0
  9 10  1  0  0  0  0
 10 25  1  1  0  0  0
 11 18  1  6  0  0  0
 11 17  1  0  0  0  0
 12 15  1  0  0  0  0
 12  7  2  0  0  0  0
 13  1  1  0  0  0  0
 14  6  1  6  0  0  0
 14  8  1  0  0  0  0
 15  4  2  0  0  0  0
 16 13  1  0  0  0  0
 17 10  1  0  0  0  0
 19  5  1  0  0  0  0
 20  3  2  0  0  0  0
 21 23  2  0  0  0  0
 22  3  1  6  0  0  0
 22  2  1  0  0  0  0
 22 11  1  0  0  0  0
 23 18  1  0  0  0  0
 25 24  1  0  0  0  0
 27 17  1  0  0  0  0
 27 26  1  0  0  0  0
 29 30  1  0  0  0  0
 29 32  1  0  0  0  0
 30 28  1  0  0  0  0
 31 29  2  0  0  0  0
M  END
>  <MODEL>
3

>  <REMARK>
 VINA RESULT:      -7.0      2.790      5.040
  Name = 
  4 active torsions:
  status: ('A' for Active; 'I' for Inactive)
    1  A    between atoms: C_2  and  C_24
    2  A    between atoms: N_10  and  C_24
    3  A    between atoms: C_13  and  C_15
    4  A    between atoms: C_25  and  N_26
                            x       y       z     vdW  Elec       q    Type
                         _______ _______ _______ _____ _____    ______ ____

>  <TORSDO>
F 4

$$$$
=
 OpenBabel11052417043D

 32 36  0  0  1  0  0  0  0  0999 V2000
  193.4340  175.2460  135.5850 C   0  0  1  0  0  3  0  0  0  0  0  0
  190.2420  176.2560  139.3820 C   0  0  1  0  0  3  0  0  0  0  0  0
  189.5970  176.6860  141.8000 C   0  0  0  0  0  0  0  0  0  0  0  0
  188.5770  177.1400  142.7720 C   0  0  0  0  0  0  0  0  0  0  0  0
  192.0610  176.0660  138.0490 C   0  0  1  0  0  3  0  0  0  0  0  0
  190.0390  174.7970  137.3370 C   0  0  0  0  0  2  0  0  0  0  0  0
  186.6590  177.9850  144.5820 N   0  0  0  0  0  0  0  0  0  0  0  0
  192.1560  174.5510  136.0440 C   0  0  0  0  0  2  0  0  0  0  0  0
  189.2660  175.6550  138.3430 C   0  0  2  0  0  3  0  0  0  0  0  0
  188.4060  176.7460  137.6520 C   0  0  2  0  0  3  0  0  0  0  0  0
  188.0620  177.4320  139.9780 C   0  0  2  0  0  3  0  0  0  0  0  0
  187.6750  177.1900  145.0120 C   0  0  0  0  0  3  0  0  0  0  0  0
  194.2060  175.7730  136.7950 C   0  0  0  0  0  2  0  0  0  0  0  0
  191.2860  175.5190  136.8380 C   0  0  2  0  0  3  0  0  0  0  0  0
  188.6510  176.7540  144.1150 C   0  0  0  0  0  3  0  0  0  0  0  0
  193.3420  176.7520  137.5850 C   0  0  0  0  0  2  0  0  0  0  0  0
  187.9260  177.8080  138.5600 N   0  0  0  0  0  0  0  0  0  0  0  0
  187.3930  178.4280  140.9230 C   0  0  0  0  0  2  0  0  0  0  0  0
  191.2590  176.9900  138.7400 O   0  0  0  0  0  0  0  0  0  0  0  0
  190.5560  175.9570  142.1760 O   0  0  0  0  0  0  0  0  0  0  0  0
  186.5580  178.3740  143.2820 C   0  0  0  0  0  3  0  0  0  0  0  0
  189.5250  177.1750  140.3780 C   0  0  2  0  0  3  0  0  0  0  0  0
  187.5050  177.9550  142.3470 C   0  0  0  0  0  0  0  0  0  0  0  0
  186.1200  177.0810  136.8730 N   0  0  0  0  0  1  0  0  0  0  0  0
  187.2100  176.1250  136.9460 C   0  0  0  0  0  2  0  0  0  0  0  0
  189.1330  179.0200  136.8230 C   0  0  0  0  0  1  0  0  0  0  0  0
  188.6810  179.0260  138.2700 C   0  0  0  0  0  2  0  0  0  0  0  0
  194.2890  174.2620  134.8080 C   0  0  0  0  0  2  0  0  0  0  0  0
  194.9530  172.1740  136.0510 C   0  0  0  0  0  0  0  0  0  0  0  0
  194.0200  172.9060  135.2580 N   0  0  0  0  0  2  0  0  0  0  0  0
  194.6480  170.8820  136.4550 O   0  0  0  0  0  1  0  0  0  0  0  0
  196.0530  172.6900  136.3880 O   0  0  0  0  0  0  0  0  0  0  0  0
  1 28  1  1  0  0  0
  1  8  1  0  0  0  0
  1 13  1  0  0  0  0
  2 19  1  6  0  0  0
  2 22  1  0  0  0  0
  3 20  2  0  0  0  0
  3  4  1  0  0  0  0
  4 15  1  0  0  0  0
  5 16  1  6  0  0  0
  5 19  1  0  0  0  0
  7 12  1  0  0  0  0
  9  6  1  6  0  0  0
  9  2  1  0  0  0  0
 10 25  1  1  0  0  0
 10  9  1  0  0  0  0
 10 17  1  0  0  0  0
 11 22  1  0  0  0  0
 11 18  1  1  0  0  0
 13 16  1  0  0  0  0
 14  8  1  1  0  0  0
 14  6  1  0  0  0  0
 14  5  1  0  0  0  0
 15 12  2  0  0  0  0
 17 11  1  0  0  0  0
 18 23  1  0  0  0  0
 21  7  2  0  0  0  0
 22  3  1  1  0  0  0
 23  4  2  0  0  0  0
 23 21  1  0  0  0  0
 24 25  1  0  0  0  0
 26 27  1  0  0  0  0
 27 17  1  0  0  0  0
 28 30  1  0  0  0  0
 29 32  2  0  0  0  0
 29 31  1  0  0  0  0
 30 29  1  0  0  0  0
M  END
>  <MODEL>
4

>  <REMARK>
 VINA RESULT:      -6.4      2.483      8.589
  Name = 
  4 active torsions:
  status: ('A' for Active; 'I' for Inactive)
    1  A    between atoms: C_2  and  C_24
    2  A    between atoms: N_10  and  C_24
    3  A    between atoms: C_13  and  C_15
    4  A    between atoms: C_25  and  N_26
                            x       y       z     vdW  Elec       q    Type
                         _______ _______ _______ _____ _____    ______ ____

>  <TORSDO>
F 4

$$$$
=
 OpenBabel11052417043D

 32 36  0  0  1  0  0  0  0  0999 V2000
  184.7430  179.2790  144.9430 C   0  0  1  0  0  3  0  0  0  0  0  0
  182.5240  177.6510  140.6950 C   0  0  1  0  0  3  0  0  0  0  0  0
  180.8300  176.3350  139.3350 C   0  0  0  0  0  0  0  0  0  0  0  0
  180.1900  176.0770  138.0250 C   0  0  0  0  0  0  0  0  0  0  0  0
  182.9760  178.2760  142.8220 C   0  0  1  0  0  3  0  0  0  0  0  0
  184.9370  178.0510  141.3020 C   0  0  0  0  0  2  0  0  0  0  0  0
  179.0060  175.5960  135.5690 N   0  0  0  0  0  0  0  0  0  0  0  0
  185.3090  178.5800  143.7100 C   0  0  0  0  0  2  0  0  0  0  0  0
  183.9230  178.0340  140.1550 C   0  0  2  0  0  3  0  0  0  0  0  0
  183.8980  179.3710  139.3680 C   0  0  2  0  0  3  0  0  0  0  0  0
  181.9970  178.2740  138.2810 C   0  0  2  0  0  3  0  0  0  0  0  0
  178.9530  174.6380  136.5320 C   0  0  0  0  0  3  0  0  0  0  0  0
  183.3450  178.7430  145.2520 C   0  0  0  0  0  2  0  0  0  0  0  0
  184.3880  178.7990  142.5140 C   0  0  2  0  0  3  0  0  0  0  0  0
  179.5440  174.8610  137.7770 C   0  0  0  0  0  3  0  0  0  0  0  0
  182.4190  178.9700  144.0600 C   0  0  0  0  0  2  0  0  0  0  0  0
  182.7190  179.5410  138.4940 N   0  0  0  0  0  0  0  0  0  0  0  0
  180.8960  178.3890  137.2280 C   0  0  0  0  0  2  0  0  0  0  0  0
  182.1330  178.5270  141.7260 O   0  0  0  0  0  0  0  0  0  0  0  0
  180.7840  175.4670  140.2500 O   0  0  0  0  0  0  0  0  0  0  0  0
  179.6300  176.7870  135.7800 C   0  0  0  0  0  3  0  0  0  0  0  0
  181.4570  177.6790  139.5930 C   0  0  2  0  0  3  0  0  0  0  0  0
  180.2440  177.0510  137.0050 C   0  0  0  0  0  0  0  0  0  0  0  0
  185.5040  178.2650  137.9050 N   0  0  0  0  0  1  0  0  0  0  0  0
  185.1580  179.5280  138.5300 C   0  0  0  0  0  2  0  0  0  0  0  0
  181.9460  181.8480  138.3400 C   0  0  0  0  0  1  0  0  0  0  0  0
  181.8450  180.5420  139.1040 C   0  0  0  0  0  2  0  0  0  0  0  0
  185.6670  179.0390  146.1230 C   0  0  0  0  0  2  0  0  0  0  0  0
  187.8480  177.8770  146.6130 C   0  0  0  0  0  0  0  0  0  0  0  0
  186.8040  178.2320  145.7080 N   0  0  0  0  0  2  0  0  0  0  0  0
  188.9110  177.1050  146.1670 O   0  0  0  0  0  0  0  0  0  0  0  0
  187.8140  178.2580  147.8140 O   0  0  0  0  0  1  0  0  0  0  0  0
  1 13  1  0  0  0  0
  1 28  1  1  0  0  0
  2 19  1  1  0  0  0
  3 20  2  0  0  0  0
  4  3  1  0  0  0  0
  5 16  1  1  0  0  0
  7 21  2  0  0  0  0
  7 12  1  0  0  0  0
  8  1  1  0  0  0  0
  9  2  1  0  0  0  0
  9  6  1  1  0  0  0
 10 25  1  6  0  0  0
 10  9  1  0  0  0  0
 11 18  1  6  0  0  0
 11 17  1  0  0  0  0
 11 22  1  0  0  0  0
 12 15  2  0  0  0  0
 14  6  1  6  0  0  0
 14  5  1  0  0  0  0
 14  8  1  0  0  0  0
 15  4  1  0  0  0  0
 16 13  1  0  0  0  0
 17 27  1  0  0  0  0
 17 10  1  0  0  0  0
 19  5  1  0  0  0  0
 21 23  1  0  0  0  0
 22  3  1  6  0  0  0
 22  2  1  0  0  0  0
 23 18  1  0  0  0  0
 23  4  2  0  0  0  0
 24 25  1  0  0  0  0
 26 27  1  0  0  0  0
 29 32  1  0  0  0  0
 30 28  1  0  0  0  0
 30 29  1  0  0  0  0
 31 29  2  0  0  0  0
M  END
>  <MODEL>
5

>  <REMARK>
 VINA RESULT:      -6.2      6.216      9.052
  Name = 
  4 active torsions:
  status: ('A' for Active; 'I' for Inactive)
    1  A    between atoms: C_2  and  C_24
    2  A    between atoms: N_10  and  C_24
    3  A    between atoms: C_13  and  C_15
    4  A    between atoms: C_25  and  N_26
                            x       y       z     vdW  Elec       q    Type
                         _______ _______ _______ _____ _____    ______ ____

>  <TORSDO>
F 4

$$$$
=
 OpenBabel11052417043D

 32 36  0  0  1  0  0  0  0  0999 V2000
  194.0810  174.1780  135.7810 C   0  0  1  0  0  3  0  0  0  0  0  0
  190.1110  176.1220  138.2470 C   0  0  1  0  0  3  0  0  0  0  0  0
  188.9570  177.4250  140.0960 C   0  0  0  0  0  0  0  0  0  0  0  0
  187.7230  178.0590  140.6120 C   0  0  0  0  0  0  0  0  0  0  0  0
  192.1670  175.7120  137.3980 C   0  0  1  0  0  3  0  0  0  0  0  0
  190.4700  173.9160  137.0830 C   0  0  0  0  0  2  0  0  0  0  0  0
  185.4060  179.2350  141.5700 N   0  0  0  0  0  0  0  0  0  0  0  0
  192.8160  173.5270  136.3340 C   0  0  0  0  0  2  0  0  0  0  0  0
  189.4280  174.9670  137.4780 C   0  0  2  0  0  3  0  0  0  0  0  0
  188.6140  175.4780  136.2600 C   0  0  2  0  0  3  0  0  0  0  0  0
  187.7460  177.0220  137.9510 C   0  0  2  0  0  3  0  0  0  0  0  0
  186.3930  178.9020  142.4440 C   0  0  0  0  0  3  0  0  0  0  0  0
  194.5370  175.3040  136.7080 C   0  0  0  0  0  2  0  0  0  0  0  0
  191.7100  174.5670  136.4790 C   0  0  2  0  0  3  0  0  0  0  0  0
  187.5690  178.3090  141.9800 C   0  0  0  0  0  3  0  0  0  0  0  0
  193.4370  176.3520  136.8450 C   0  0  0  0  0  2  0  0  0  0  0  0
  187.8550  176.7200  136.5130 N   0  0  0  0  0  0  0  0  0  0  0  0
  186.8020  178.1870  138.2430 C   0  0  0  0  0  2  0  0  0  0  0  0
  191.1530  176.6800  137.4810 O   0  0  0  0  0  0  0  0  0  0  0  0
  189.8930  177.1170  140.8850 O   0  0  0  0  0  0  0  0  0  0  0  0
  185.5250  179.0030  140.2350 C   0  0  0  0  0  3  0  0  0  0  0  0
  189.1190  177.2330  138.6120 C   0  0  2  0  0  3  0  0  0  0  0  0
  186.6780  178.4010  139.7260 C   0  0  0  0  0  0  0  0  0  0  0  0
  187.1250  173.6510  136.8850 N   0  0  0  0  0  1  0  0  0  0  0  0
  187.6530  174.4070  135.7640 C   0  0  0  0  0  2  0  0  0  0  0  0
  189.2570  177.2630  134.5940 C   0  0  0  0  0  1  0  0  0  0  0  0
  188.5220  177.8090  135.8020 C   0  0  0  0  0  2  0  0  0  0  0  0
  195.1700  173.1290  135.6560 C   0  0  0  0  0  2  0  0  0  0  0  0
  195.4480  171.8010  137.7800 C   0  0  0  0  0  0  0  0  0  0  0  0
  194.8550  171.9830  136.4940 N   0  0  0  0  0  2  0  0  0  0  0  0
  195.1130  170.6890  138.5400 O   0  0  0  0  0  1  0  0  0  0  0  0
  196.2720  172.6400  138.2310 O   0  0  0  0  0  0  0  0  0  0  0  0
  1 28  1  1  0  0  0
  1  8  1  0  0  0  0
  1 13  1  0  0  0  0
  2 19  1  6  0  0  0
  2 22  1  0  0  0  0
  3  4  1  0  0  0  0
  3 20  2  0  0  0  0
  4 15  1  0  0  0  0
  5 16  1  6  0  0  0
  5 19  1  0  0  0  0
  7 12  1  0  0  0  0
  9  6  1  6  0  0  0
  9  2  1  0  0  0  0
 10 25  1  1  0  0  0
 10 17  1  0  0  0  0
 10  9  1  0  0  0  0
 11 18  1  6  0  0  0
 11 22  1  0  0  0  0
 13 16  1  0  0  0  0
 14  8  1  1  0  0  0
 14  6  1  0  0  0  0
 14  5  1  0  0  0  0
 15 12  2  0  0  0  0
 17 11  1  0  0  0  0
 18 23  1  0  0  0  0
 21  7  2  0  0  0  0
 22  3  1  1  0  0  0
 23 21  1  0  0  0  0
 23  4  2  0  0  0  0
 25 24  1  0  0  0  0
 26 27  1  0  0  0  0
 27 17  1  0  0  0  0
 28 30  1  0  0  0  0
 29 32  2  0  0  0  0
 29 31  1  0  0  0  0
 30 29  1  0  0  0  0
M  END
>  <MODEL>
6

>  <REMARK>
 VINA RESULT:      -6.2      2.814      8.435
  Name = 
  4 active torsions:
  status: ('A' for Active; 'I' for Inactive)
    1  A    between atoms: C_2  and  C_24
    2  A    between atoms: N_10  and  C_24
    3  A    between atoms: C_13  and  C_15
    4  A    between atoms: C_25  and  N_26
                            x       y       z     vdW  Elec       q    Type
                         _______ _______ _______ _____ _____    ______ ____

>  <TORSDO>
F 4

$$$$
=
 OpenBabel11052417043D

 32 36  0  0  1  0  0  0  0  0999 V2000
  187.6050  176.5180  135.7650 C   0  0  1  0  0  3  0  0  0  0  0  0
  183.7220  177.3500  138.9040 C   0  0  1  0  0  3  0  0  0  0  0  0
  182.5860  178.2990  140.9680 C   0  0  0  0  0  0  0  0  0  0  0  0
  181.3310  178.5870  141.6980 C   0  0  0  0  0  0  0  0  0  0  0  0
  185.6490  177.4940  137.7280 C   0  0  1  0  0  3  0  0  0  0  0  0
  184.4420  175.3180  137.5980 C   0  0  0  0  0  2  0  0  0  0  0  0
  178.9770  179.1150  143.0570 N   0  0  0  0  0  0  0  0  0  0  0  0
  186.6560  175.5580  136.4780 C   0  0  0  0  0  2  0  0  0  0  0  0
  183.2430  176.0600  138.1980 C   0  0  2  0  0  3  0  0  0  0  0  0
  182.1400  176.3460  137.1460 C   0  0  2  0  0  3  0  0  0  0  0  0
  181.1890  177.6030  139.0210 C   0  0  2  0  0  3  0  0  0  0  0  0
  180.1440  179.0470  143.7500 C   0  0  0  0  0  3  0  0  0  0  0  0
  187.9010  177.7210  136.6610 C   0  0  0  0  0  2  0  0  0  0  0  0
  185.3590  176.2730  136.8400 C   0  0  2  0  0  3  0  0  0  0  0  0
  181.3410  178.7820  143.0830 C   0  0  0  0  0  3  0  0  0  0  0  0
  186.6050  178.4450  137.0160 C   0  0  0  0  0  2  0  0  0  0  0  0
  181.1380  177.3460  137.5700 N   0  0  0  0  0  0  0  0  0  0  0  0
  180.0380  178.4810  139.5080 C   0  0  0  0  0  2  0  0  0  0  0  0
  184.4480  178.1640  138.0130 O   0  0  0  0  0  0  0  0  0  0  0  0
  183.6850  178.2420  141.5870 O   0  0  0  0  0  0  0  0  0  0  0  0
  178.9340  178.9270  141.7100 C   0  0  0  0  0  3  0  0  0  0  0  0
  182.5500  178.1620  139.4700 C   0  0  2  0  0  3  0  0  0  0  0  0
  180.1040  178.6490  141.0020 C   0  0  0  0  0  0  0  0  0  0  0  0
  181.0190  174.3330  137.9450 N   0  0  0  0  0  1  0  0  0  0  0  0
  181.4190  175.0640  136.7560 C   0  0  0  0  0  2  0  0  0  0  0  0
  181.9250  178.2370  135.4420 C   0  0  0  0  0  1  0  0  0  0  0  0
  181.3790  178.5750  136.8160 C   0  0  0  0  0  2  0  0  0  0  0  0
  188.8920  175.7900  135.4250 C   0  0  0  0  0  2  0  0  0  0  0  0
  190.2670  174.8890  137.3350 C   0  0  0  0  0  0  0  0  0  0  0  0
  189.8620  175.9680  136.4940 N   0  0  0  0  0  2  0  0  0  0  0  0
  191.1960  175.1120  138.3410 O   0  0  0  0  0  1  0  0  0  0  0  0
  189.7880  173.7340  137.1720 O   0  0  0  0  0  0  0  0  0  0  0  0
  1 28  1  1  0  0  0
  1  8  1  0  0  0  0
  1 13  1  0  0  0  0
  2 19  1  6  0  0  0
  2 22  1  0  0  0  0
  3 20  2  0  0  0  0
  3  4  1  0  0  0  0
  4 15  1  0  0  0  0
  5 16  1  6  0  0  0
  5 19  1  0  0  0  0
  7 12  1  0  0  0  0
  9  6  1  6  0  0  0
  9  2  1  0  0  0  0
 10 25  1  1  0  0  0
 10 17  1  0  0  0  0
 10  9  1  0  0  0  0
 11 22  1  0  0  0  0
 11 18  1  6  0  0  0
 13 16  1  0  0  0  0
 14  8  1  1  0  0  0
 14  6  1  0  0  0  0
 14  5  1  0  0  0  0
 15 12  2  0  0  0  0
 17 11  1  0  0  0  0
 18 23  1  0  0  0  0
 21  7  2  0  0  0  0
 22  3  1  1  0  0  0
 23  4  2  0  0  0  0
 23 21  1  0  0  0  0
 25 24  1  0  0  0  0
 26 27  1  0  0  0  0
 27 17  1  0  0  0  0
 28 30  1  0  0  0  0
 29 31  1  0  0  0  0
 30 29  1  0  0  0  0
 32 29  2  0  0  0  0
M  END
>  <MODEL>
7

>  <REMARK>
 VINA RESULT:      -5.7      5.209     10.363
  Name = 
  4 active torsions:
  status: ('A' for Active; 'I' for Inactive)
    1  A    between atoms: C_2  and  C_24
    2  A    between atoms: N_10  and  C_24
    3  A    between atoms: C_13  and  C_15
    4  A    between atoms: C_25  and  N_26
                            x       y       z     vdW  Elec       q    Type
                         _______ _______ _______ _____ _____    ______ ____

>  <TORSDO>
F 4

$$$$
=
 OpenBabel11052417043D

 32 36  0  0  1  0  0  0  0  0999 V2000
  192.9210  176.1860  137.9610 C   0  0  1  0  0  3  0  0  0  0  0  0
  189.3600  177.6200  141.2610 C   0  0  1  0  0  3  0  0  0  0  0  0
  187.0200  178.2910  141.9820 C   0  0  0  0  0  0  0  0  0  0  0  0
  186.0630  178.5480  143.0820 C   0  0  0  0  0  0  0  0  0  0  0  0
  190.4820  176.7550  139.4970 C   0  0  1  0  0  3  0  0  0  0  0  0
  191.7860  178.2520  141.0020 C   0  0  0  0  0  2  0  0  0  0  0  0
  184.2850  179.0330  145.1480 N   0  0  0  0  0  0  0  0  0  0  0  0
  192.8590  177.3590  138.9360 C   0  0  0  0  0  2  0  0  0  0  0  0
  190.6360  178.0880  142.0000 C   0  0  2  0  0  3  0  0  0  0  0  0
  191.0060  177.1480  143.1770 C   0  0  2  0  0  3  0  0  0  0  0  0
  188.6340  177.4670  143.6980 C   0  0  2  0  0  3  0  0  0  0  0  0
  184.0440  179.5720  143.9230 C   0  0  0  0  0  3  0  0  0  0  0  0
  191.5310  175.9070  137.3900 C   0  0  0  0  0  2  0  0  0  0  0  0
  191.8800  177.0520  140.0650 C   0  0  2  0  0  3  0  0  0  0  0  0
  184.9280  179.3380  142.8690 C   0  0  0  0  0  3  0  0  0  0  0  0
  190.5520  175.5890  138.5160 C   0  0  0  0  0  2  0  0  0  0  0  0
  189.8490  176.6780  143.9680 N   0  0  0  0  0  0  0  0  0  0  0  0
  187.4840  177.1270  144.6440 C   0  0  0  0  0  2  0  0  0  0  0  0
  189.6080  176.4310  140.5480 O   0  0  0  0  0  0  0  0  0  0  0  0
  186.8130  178.7690  140.8320 O   0  0  0  0  0  0  0  0  0  0  0  0
  185.3810  178.2630  145.3870 C   0  0  0  0  0  3  0  0  0  0  0  0
  188.1930  177.3810  142.2270 C   0  0  2  0  0  3  0  0  0  0  0  0
  186.2990  178.0110  144.3670 C   0  0  0  0  0  0  0  0  0  0  0  0
  191.6800  177.5030  145.4940 N   0  0  0  0  0  1  0  0  0  0  0  0
  192.0000  177.8190  144.1130 C   0  0  0  0  0  2  0  0  0  0  0  0
  190.9630  174.5430  143.5930 C   0  0  0  0  0  1  0  0  0  0  0  0
  189.6320  175.2670  143.6560 C   0  0  0  0  0  2  0  0  0  0  0  0
  193.8900  176.5170  136.8420 C   0  0  0  0  0  2  0  0  0  0  0  0
  196.0580  175.5350  136.0140 C   0  0  0  0  0  0  0  0  0  0  0  0
  194.7580  175.3790  136.5820 N   0  0  0  0  0  2  0  0  0  0  0  0
  196.8470  174.4160  135.7860 O   0  0  0  0  0  1  0  0  0  0  0  0
  196.4970  176.6790  135.7180 O   0  0  0  0  0  0  0  0  0  0  0  0
  1 28  1  6  0  0  0
  1  8  1  0  0  0  0
  2 19  1  1  0  0  0
  2  9  1  0  0  0  0
  2 22  1  0  0  0  0
  3  4  1  0  0  0  0
  4 23  1  0  0  0  0
  5 16  1  6  0  0  0
  5 14  1  0  0  0  0
  5 19  1  0  0  0  0
  7 21  1  0  0  0  0
  9  6  1  6  0  0  0
  9 10  1  0  0  0  0
 10 17  1  0  0  0  0
 10 25  1  1  0  0  0
 11 17  1  0  0  0  0
 11 18  1  1  0  0  0
 12  7  2  0  0  0  0
 13  1  1  0  0  0  0
 13 16  1  0  0  0  0
 14  8  1  6  0  0  0
 14  6  1  0  0  0  0
 15  4  2  0  0  0  0
 15 12  1  0  0  0  0
 20  3  2  0  0  0  0
 22  3  1  1  0  0  0
 22 11  1  0  0  0  0
 23 18  1  0  0  0  0
 23 21  2  0  0  0  0
 25 24  1  0  0  0  0
 26 27  1  0  0  0  0
 27 17  1  0  0  0  0
 29 30  1  0  0  0  0
 30 28  1  0  0  0  0
 31 29  1  0  0  0  0
 32 29  2  0  0  0  0
M  END
>  <MODEL>
8

>  <REMARK>
 VINA RESULT:      -5.7      2.794      9.399
  Name = 
  4 active torsions:
  status: ('A' for Active; 'I' for Inactive)
    1  A    between atoms: C_2  and  C_24
    2  A    between atoms: N_10  and  C_24
    3  A    between atoms: C_13  and  C_15
    4  A    between atoms: C_25  and  N_26
                            x       y       z     vdW  Elec       q    Type
                         _______ _______ _______ _____ _____    ______ ____

>  <TORSDO>
F 4

$$$$
=
 OpenBabel11052417043D

 32 36  0  0  1  0  0  0  0  0999 V2000
  180.1270  182.1130  135.9590 C   0  0  1  0  0  3  0  0  0  0  0  0
  181.6850  177.3600  136.7360 C   0  0  1  0  0  3  0  0  0  0  0  0
  181.7960  174.8640  136.2770 C   0  0  0  0  0  0  0  0  0  0  0  0
  182.4600  173.5650  136.5230 C   0  0  0  0  0  0  0  0  0  0  0  0
  180.9190  179.2870  135.8310 C   0  0  1  0  0  3  0  0  0  0  0  0
  181.0670  179.2220  138.3170 C   0  0  0  0  0  2  0  0  0  0  0  0
  183.7050  171.1370  136.9960 N   0  0  0  0  0  0  0  0  0  0  0  0
  180.0920  181.2270  137.2010 C   0  0  0  0  0  2  0  0  0  0  0  0
  181.9310  177.9710  138.1360 C   0  0  2  0  0  3  0  0  0  0  0  0
  183.4350  178.2490  138.3940 C   0  0  2  0  0  3  0  0  0  0  0  0
  183.6260  175.9450  137.5860 C   0  0  2  0  0  3  0  0  0  0  0  0
  182.4280  171.1500  136.5290 C   0  0  0  0  0  3  0  0  0  0  0  0
  179.8830  181.2680  134.7080 C   0  0  0  0  0  2  0  0  0  0  0  0
  181.1480  180.1320  137.0950 C   0  0  2  0  0  3  0  0  0  0  0  0
  181.7840  172.3630  136.2840 C   0  0  0  0  0  3  0  0  0  0  0  0
  180.9450  180.1780  134.5940 C   0  0  0  0  0  2  0  0  0  0  0  0
  184.3430  177.1930  137.9020 N   0  0  0  0  0  0  0  0  0  0  0  0
  184.5660  174.7850  137.2650 C   0  0  0  0  0  2  0  0  0  0  0  0
  181.9280  178.3140  135.7280 O   0  0  0  0  0  0  0  0  0  0  0  0
  180.6160  174.9040  135.8320 O   0  0  0  0  0  0  0  0  0  0  0  0
  184.3870  172.2880  137.2420 C   0  0  0  0  0  3  0  0  0  0  0  0
  182.5740  176.1370  136.4800 C   0  0  2  0  0  3  0  0  0  0  0  0
  183.7800  173.5260  137.0220 C   0  0  0  0  0  0  0  0  0  0  0  0
  184.7150  179.4890  140.0580 N   0  0  0  0  0  1  0  0  0  0  0  0
  183.6970  178.4700  139.8760 C   0  0  0  0  0  2  0  0  0  0  0  0
  186.4590  178.0860  137.0830 C   0  0  0  0  0  1  0  0  0  0  0  0
  185.0360  177.7070  136.7210 C   0  0  0  0  0  2  0  0  0  0  0  0
  179.0620  183.1870  136.0800 C   0  0  0  0  0  2  0  0  0  0  0  0
  180.1620  185.0820  137.3250 C   0  0  0  0  0  0  0  0  0  0  0  0
  179.2750  183.9640  137.2900 N   0  0  0  0  0  2  0  0  0  0  0  0
  180.3300  185.7900  138.5060 O   0  0  0  0  0  1  0  0  0  0  0  0
  180.7940  185.4310  136.2920 O   0  0  0  0  0  0  0  0  0  0  0  0
  1 28  1  1  0  0  0
  1  8  1  0  0  0  0
  2 19  1  6  0  0  0
  2  9  1  0  0  0  0
  3  4  1  0  0  0  0
  4 23  1  0  0  0  0
  5 16  1  6  0  0  0
  5 14  1  0  0  0  0
  7 21  1  0  0  0  0
  9  6  1  6  0  0  0
  9 10  1  0  0  0  0
 10 25  1  1  0  0  0
 11 18  1  6  0  0  0
 11 17  1  0  0  0  0
 12  7  2  0  0  0  0
 13  1  1  0  0  0  0
 14  8  1  1  0  0  0
 14  6  1  0  0  0  0
 15  4  2  0  0  0  0
 15 12  1  0  0  0  0
 16 13  1  0  0  0  0
 17 10  1  0  0  0  0
 19  5  1  0  0  0  0
 20  3  2  0  0  0  0
 22  3  1  1  0  0  0
 22  2  1  0  0  0  0
 22 11  1  0  0  0  0
 23 21  2  0  0  0  0
 23 18  1  0  0  0  0
 25 24  1  0  0  0  0
 27 26  1  0  0  0  0
 27 17  1  0  0  0  0
 28 30  1  0  0  0  0
 29 31  1  0  0  0  0
 30 29  1  0  0  0  0
 32 29  2  0  0  0  0
M  END
>  <MODEL>
9

>  <REMARK>
 VINA RESULT:      -5.4      7.201     10.167
  Name = 
  4 active torsions:
  status: ('A' for Active; 'I' for Inactive)
    1  A    between atoms: C_2  and  C_24
    2  A    between atoms: N_10  and  C_24
    3  A    between atoms: C_13  and  C_15
    4  A    between atoms: C_25  and  N_26
                            x       y       z     vdW  Elec       q    Type
                         _______ _______ _______ _____ _____    ______ ____

>  <TORSDO>
F 4

$$$$
