=
 OpenBabel11052414493D

 55 61  0  0  1  0  0  0  0  0999 V2000
  183.5630  176.3220  139.3900 C   0  0  0  0  0  3  0  0  0  0  0  0
  187.9390  177.4770  138.2910 C   0  0  0  0  0  2  0  0  0  0  0  0
  188.3930  177.3840  141.4390 C   0  0  0  0  0  1  0  0  0  0  0  0
  189.7170  176.3310  136.0980 C   0  0  0  0  0  2  0  0  0  0  0  0
  189.3490  178.3660  134.8140 C   0  0  0  0  0  2  0  0  0  0  0  0
  185.9340  177.7440  144.4710 C   0  0  0  0  0  3  0  0  0  0  0  0
  185.7860  178.2890  145.7520 C   0  0  0  0  0  3  0  0  0  0  0  0
  184.1830  179.2120  143.6470 C   0  0  0  0  0  0  0  0  0  0  0  0
  184.0470  179.7630  144.9270 C   0  0  0  0  0  3  0  0  0  0  0  0
  186.3030  178.5420  141.4100 O   0  0  0  0  0  0  0  0  0  0  0  0
  190.9000  176.7210  135.2910 C   0  0  0  0  0  0  0  0  0  0  0  0
  190.7090  177.8150  134.5940 C   0  0  0  0  0  3  0  0  0  0  0  0
  184.8460  179.2990  145.9800 C   0  0  0  0  0  3  0  0  0  0  0  0
  183.2930  174.2890  136.1910 C   0  0  0  0  0  2  0  0  0  0  0  0
  185.1280  178.1960  143.4210 C   0  0  0  0  0  0  0  0  0  0  0  0
  185.3200  175.7240  135.9400 C   0  0  1  0  0  3  0  0  0  0  0  0
  184.2210  177.3290  139.8720 N   0  0  0  0  0  0  0  0  0  0  0  0
  184.8270  176.5420  137.1560 C   0  0  0  0  0  2  0  0  0  0  0  0
  183.3050  179.0820  141.4060 C   0  0  0  0  0  0  0  0  0  0  0  0
  188.4480  178.2810  137.1060 C   0  0  0  0  0  2  0  0  0  0  0  0
  183.3650  179.6840  142.5640 N   0  0  0  0  0  0  0  0  0  0  0  0
  187.5060  178.4430  139.3750 C   0  0  0  0  0  2  0  0  0  0  0  0
  187.1300  177.7070  140.6500 C   0  0  1  0  0  3  0  0  0  0  0  0
  183.0830  174.8220  137.5710 C   0  0  0  0  0  3  0  0  0  0  0  0
  188.6980  177.4490  135.8470 C   0  0  2  0  0  0  0  0  0  0  0  0
  183.7820  175.8670  138.0170 C   0  0  0  0  0  0  0  0  0  0  0  0
  185.3530  177.7080  142.0230 C   0  0  1  0  0  3  0  0  0  0  0  0
  184.0200  177.7400  141.2520 C   0  0  2  0  0  3  0  0  0  0  0  0
  187.3860  176.9330  135.2480 C   0  0  0  0  0  2  0  0  0  0  0  0
  186.8350  175.6940  135.9480 C   0  0  0  0  0  2  0  0  0  0  0  0
  184.7830  174.2920  135.8920 C   0  0  0  0  0  2  0  0  0  0  0  0
  181.0190  179.3720  140.4360 C   0  0  0  0  0  3  0  0  0  0  0  0
  180.6080  180.7010  138.5020 C   0  0  0  0  0  0  0  0  0  0  0  0
  182.8570  180.4790  139.3530 C   0  0  0  0  0  3  0  0  0  0  0  0
  181.9730  181.0070  138.4140 C   0  0  0  0  0  3  0  0  0  0  0  0
  180.1710  179.8960  139.5090 N   0  0  0  0  0  0  0  0  0  0  0  0
  182.3940  179.6410  140.3750 C   0  0  0  0  0  0  0  0  0  0  0  0
  179.6700  181.1900  137.5780 O   0  0  0  0  0  0  0  0  0  0  0  0
  179.5620  182.8530  135.9400 O   0  0  0  0  0  0  0  0  0  0  0  0
  179.9560  181.7100  136.3070 C   0  0  0  0  0  3  0  0  0  0  0  0
  192.1100  176.0140  135.2260 O   0  0  0  0  0  0  0  0  0  0  0  0
  193.2420  176.2370  136.0720 C   0  0  1  0  0  3  0  0  0  0  0  0
  192.3840  173.0920  138.0420 O   0  0  0  0  0  1  0  0  0  0  0  0
  194.3700  174.2770  137.3600 C   0  0  0  0  0  2  0  0  0  0  0  0
  193.2540  175.3190  137.3090 C   0  0  2  0  0  0  0  0  0  0  0  0
  192.9570  173.8480  137.0150 C   0  0  2  0  0  0  0  0  0  0  0  0
  192.7240  175.8170  138.6590 C   0  0  0  0  0  2  0  0  0  0  0  0
  193.5920  176.9210  139.2420 C   0  0  0  0  0  1  0  0  0  0  0  0
  192.8360  173.3220  135.5810 C   0  0  1  0  0  3  0  0  0  0  0  0
  194.0630  172.8130  135.1400 O   0  0  0  0  0  1  0  0  0  0  0  0
  191.7460  172.2630  135.4560 C   0  0  0  0  0  2  0  0  0  0  0  0
  190.4910  172.8520  135.2830 O   0  0  0  0  0  1  0  0  0  0  0  0
  194.5720  176.2980  135.3120 C   0  0  0  0  0  3  0  0  0  0  0  0
  194.6660  177.5030  134.6150 O   0  0  0  0  0  1  0  0  0  0  0  0
  195.6380  176.2080  136.2120 O   0  0  0  0  0  1  0  0  0  0  0  0
  1 17  2  0  0  0  0
  2 22  1  0  0  0  0
  6  7  1  0  0  0  0
  7 13  2  0  0  0  0
  8  9  2  0  0  0  0
  9 13  1  0  0  0  0
 11  4  1  0  0  0  0
 12  5  1  0  0  0  0
 12 11  2  0  0  0  0
 14 24  1  0  0  0  0
 15  8  1  0  0  0  0
 15  6  2  0  0  0  0
 16 31  1  1  0  0  0
 16 30  1  0  0  0  0
 16 18  1  0  0  0  0
 18 26  1  0  0  0  0
 19 21  2  0  0  0  0
 20  2  1  0  0  0  0
 21  8  1  0  0  0  0
 22 23  1  0  0  0  0
 23 10  1  0  0  0  0
 23  3  1  1  0  0  0
 24 26  2  0  0  0  0
 25  5  1  6  0  0  0
 25  4  1  0  0  0  0
 25 20  1  0  0  0  0
 26  1  1  0  0  0  0
 27 10  1  6  0  0  0
 27 15  1  0  0  0  0
 28 17  1  6  0  0  0
 28 19  1  0  0  0  0
 28 27  1  0  0  0  0
 29 25  1  0  0  0  0
 29 30  1  0  0  0  0
 31 14  1  0  0  0  0
 33 36  2  0  0  0  0
 34 37  1  0  0  0  0
 35 33  1  0  0  0  0
 35 34  2  0  0  0  0
 36 32  1  0  0  0  0
 37 32  2  0  0  0  0
 37 19  1  0  0  0  0
 38 33  1  0  0  0  0
 39 40  2  0  0  0  0
 40 38  1  0  0  0  0
 41 11  1  0  0  0  0
 42 41  1  6  0  0  0
 42 45  1  0  0  0  0
 45 44  1  0  0  0  0
 45 47  1  1  0  0  0
 46 45  1  0  0  0  0
 46 44  1  0  0  0  0
 46 43  1  1  0  0  0
 47 48  1  0  0  0  0
 49 50  1  1  0  0  0
 49 46  1  0  0  0  0
 51 49  1  0  0  0  0
 52 51  1  0  0  0  0
 53 42  1  0  0  0  0
 53 55  1  0  0  0  0
 54 53  1  0  0  0  0
M  END
>  <MODEL>
1

>  <REMARK>
 VINA RESULT:      -2.0      0.000      0.000
  Name = 
  10 active torsions:
  status: ('A' for Active; 'I' for Inactive)
    1  A    between atoms: C_1  and  C_53
    2  A    between atoms: C_6  and  C_14
    3  A    between atoms: O_10  and  C_32
    4  A    between atoms: O_10  and  C_47
    5  A    between atoms: C_11  and  C_29
    6  A    between atoms: C_14  and  C_53
    7  A    between atoms: C_20  and  O_42
    8  A    between atoms: C_29  and  C_38
    9  A    between atoms: C_33  and  C_52
   10  A    between atoms: O_42  and  C_53
                            x       y       z     vdW  Elec       q    Type
                         _______ _______ _______ _____ _____    ______ ____

>  <TORSDO>
F 10

$$$$
=
 OpenBabel11052414493D

 55 61  0  0  1  0  0  0  0  0999 V2000
  183.3190  176.3040  139.4410 C   0  0  0  0  0  3  0  0  0  0  0  0
  187.6970  177.4150  138.3080 C   0  0  0  0  0  2  0  0  0  0  0  0
  188.1660  177.3570  141.4540 C   0  0  0  0  0  1  0  0  0  0  0  0
  189.4580  176.2300  136.1210 C   0  0  0  0  0  2  0  0  0  0  0  0
  189.0970  178.2530  134.8140 C   0  0  0  0  0  2  0  0  0  0  0  0
  185.7240  177.7710  144.4940 C   0  0  0  0  0  3  0  0  0  0  0  0
  185.5860  178.3330  145.7690 C   0  0  0  0  0  3  0  0  0  0  0  0
  183.9790  179.2410  143.6600 C   0  0  0  0  0  0  0  0  0  0  0  0
  183.8530  179.8090  144.9330 C   0  0  0  0  0  3  0  0  0  0  0  0
  186.0840  178.5290  141.4210 O   0  0  0  0  0  0  0  0  0  0  0  0
  190.6400  176.6030  135.3030 C   0  0  0  0  0  0  0  0  0  0  0  0
  190.4530  177.6900  134.5940 C   0  0  0  0  0  3  0  0  0  0  0  0
  184.6540  179.3520  145.9890 C   0  0  0  0  0  3  0  0  0  0  0  0
  183.0200  174.2350  136.2680 C   0  0  0  0  0  2  0  0  0  0  0  0
  184.9160  178.2160  143.4420 C   0  0  0  0  0  0  0  0  0  0  0  0
  185.0560  175.6520  135.9910 C   0  0  1  0  0  3  0  0  0  0  0  0
  183.9860  177.3120  139.9080 N   0  0  0  0  0  0  0  0  0  0  0  0
  184.5740  176.4880  137.1980 C   0  0  0  0  0  2  0  0  0  0  0  0
  183.0890  179.0900  141.4250 C   0  0  0  0  0  0  0  0  0  0  0  0
  188.2060  178.2020  137.1110 C   0  0  0  0  0  2  0  0  0  0  0  0
  183.1600  179.7050  142.5750 N   0  0  0  0  0  0  0  0  0  0  0  0
  187.2760  178.3980  139.3820 C   0  0  0  0  0  2  0  0  0  0  0  0
  186.9020  177.6790  140.6680 C   0  0  1  0  0  3  0  0  0  0  0  0
  182.8200  174.7860  137.6430 C   0  0  0  0  0  3  0  0  0  0  0  0
  188.4450  177.3520  135.8600 C   0  0  2  0  0  0  0  0  0  0  0  0
  183.5280  175.8320  138.0720 C   0  0  0  0  0  0  0  0  0  0  0  0
  185.1310  177.7100  142.0490 C   0  0  1  0  0  3  0  0  0  0  0  0
  183.7940  177.7410  141.2830 C   0  0  2  0  0  3  0  0  0  0  0  0
  187.1260  176.8380  135.2740 C   0  0  0  0  0  2  0  0  0  0  0  0
  186.5710  175.6120  135.9920 C   0  0  0  0  0  2  0  0  0  0  0  0
  184.5090  174.2240  135.9620 C   0  0  0  0  0  2  0  0  0  0  0  0
  182.6700  179.9470  139.1150 C   0  0  0  0  0  3  0  0  0  0  0  0
  180.5120  180.6350  138.3750 C   0  0  0  0  0  0  0  0  0  0  0  0
  180.8100  179.8310  140.6320 C   0  0  0  0  0  3  0  0  0  0  0  0
  179.9760  180.3290  139.6340 C   0  0  0  0  0  3  0  0  0  0  0  0
  181.8400  180.4330  138.1520 N   0  0  0  0  0  0  0  0  0  0  0  0
  182.1770  179.6430  140.3910 C   0  0  0  0  0  0  0  0  0  0  0  0
  179.7260  181.1530  137.3330 O   0  0  0  0  0  0  0  0  0  0  0  0
  179.9990  182.3400  135.3380 O   0  0  0  0  0  0  0  0  0  0  0  0
  180.1070  181.2610  135.9860 C   0  0  0  0  0  3  0  0  0  0  0  0
  191.8440  175.8870  135.2420 O   0  0  0  0  0  0  0  0  0  0  0  0
  193.0810  176.3020  135.8280 C   0  0  1  0  0  3  0  0  0  0  0  0
  194.2390  175.6470  139.3970 O   0  0  0  0  0  1  0  0  0  0  0  0
  192.3890  175.0190  137.9840 C   0  0  0  0  0  2  0  0  0  0  0  0
  193.5040  175.4190  137.0180 C   0  0  2  0  0  0  0  0  0  0  0  0
  193.3820  176.0920  138.3860 C   0  0  2  0  0  0  0  0  0  0  0  0
  194.6800  174.4430  136.8910 C   0  0  0  0  0  2  0  0  0  0  0  0
  194.7030  173.4250  138.0200 C   0  0  0  0  0  1  0  0  0  0  0  0
  192.7260  177.4670  138.5520 C   0  0  1  0  0  3  0  0  0  0  0  0
  191.3330  177.3580  138.4780 O   0  0  0  0  0  1  0  0  0  0  0  0
  193.1370  178.1370  139.8580 C   0  0  0  0  0  2  0  0  0  0  0  0
  192.1980  177.8950  140.8640 O   0  0  0  0  0  1  0  0  0  0  0  0
  194.1900  176.5590  134.8010 C   0  0  0  0  0  3  0  0  0  0  0  0
  194.7270  177.8330  134.9910 O   0  0  0  0  0  1  0  0  0  0  0  0
  195.2050  175.6090  134.9500 O   0  0  0  0  0  1  0  0  0  0  0  0
  1 17  2  0  0  0  0
  2 22  1  0  0  0  0
  6  7  1  0  0  0  0
  7 13  2  0  0  0  0
  8  9  2  0  0  0  0
  9 13  1  0  0  0  0
 11  4  1  0  0  0  0
 12  5  1  0  0  0  0
 12 11  2  0  0  0  0
 14 24  1  0  0  0  0
 15  8  1  0  0  0  0
 15  6  2  0  0  0  0
 16 31  1  1  0  0  0
 16 30  1  0  0  0  0
 16 18  1  0  0  0  0
 18 26  1  0  0  0  0
 19 21  2  0  0  0  0
 20  2  1  0  0  0  0
 21  8  1  0  0  0  0
 22 23  1  0  0  0  0
 23 10  1  0  0  0  0
 23  3  1  1  0  0  0
 24 26  2  0  0  0  0
 25  5  1  6  0  0  0
 25  4  1  0  0  0  0
 25 20  1  0  0  0  0
 26  1  1  0  0  0  0
 27 10  1  6  0  0  0
 27 15  1  0  0  0  0
 28 17  1  6  0  0  0
 28 19  1  0  0  0  0
 28 27  1  0  0  0  0
 29 25  1  0  0  0  0
 29 30  1  0  0  0  0
 31 14  1  0  0  0  0
 32 37  2  0  0  0  0
 33 35  1  0  0  0  0
 35 34  2  0  0  0  0
 36 33  2  0  0  0  0
 36 32  1  0  0  0  0
 37 34  1  0  0  0  0
 37 19  1  0  0  0  0
 38 33  1  0  0  0  0
 39 40  2  0  0  0  0
 40 38  1  0  0  0  0
 41 11  1  0  0  0  0
 41 42  1  0  0  0  0
 42 53  1  6  0  0  0
 42 45  1  0  0  0  0
 44 46  1  0  0  0  0
 45 47  1  6  0  0  0
 45 44  1  0  0  0  0
 45 46  1  0  0  0  0
 46 49  1  0  0  0  0
 46 43  1  1  0  0  0
 47 48  1  0  0  0  0
 49 50  1  1  0  0  0
 49 51  1  0  0  0  0
 51 52  1  0  0  0  0
 53 55  1  0  0  0  0
 53 54  1  0  0  0  0
M  END
>  <MODEL>
2

>  <REMARK>
 VINA RESULT:      -1.7      1.180      2.159
  Name = 
  10 active torsions:
  status: ('A' for Active; 'I' for Inactive)
    1  A    between atoms: C_1  and  C_53
    2  A    between atoms: C_6  and  C_14
    3  A    between atoms: O_10  and  C_32
    4  A    between atoms: O_10  and  C_47
    5  A    between atoms: C_11  and  C_29
    6  A    between atoms: C_14  and  C_53
    7  A    between atoms: C_20  and  O_42
    8  A    between atoms: C_29  and  C_38
    9  A    between atoms: C_33  and  C_52
   10  A    between atoms: O_42  and  C_53
                            x       y       z     vdW  Elec       q    Type
                         _______ _______ _______ _____ _____    ______ ____

>  <TORSDO>
F 10

$$$$
