=
 OpenBabel11052415563D

 34 39  0  0  0  0  0  0  0  0999 V2000
  187.7570  177.7680  142.6790 C   0  0  0  0  0  3  0  0  0  0  0  0
  184.7880  178.4580  144.9240 C   0  0  0  0  0  0  0  0  0  0  0  0
  185.4510  178.3490  146.2370 C   0  0  0  0  0  0  0  0  0  0  0  0
  189.7040  177.3850  144.0030 N   0  0  0  0  0  0  0  0  0  0  0  0
  186.9910  177.9600  143.8350 C   0  0  0  0  0  0  0  0  0  0  0  0
  189.0000  177.5640  145.1500 C   0  0  0  0  0  0  0  0  0  0  0  0
  188.9210  177.6410  147.5690 C   0  0  0  0  0  3  0  0  0  0  0  0
  189.6410  177.4570  146.3860 C   0  0  0  0  0  3  0  0  0  0  0  0
  189.1240  177.4780  142.7730 C   0  0  0  0  0  0  0  0  0  0  0  0
  186.8940  178.0420  146.2900 C   0  0  0  0  0  0  0  0  0  0  0  0
  187.6190  177.8580  145.0930 C   0  0  0  0  0  0  0  0  0  0  0  0
  187.5560  177.9320  147.5220 C   0  0  0  0  0  3  0  0  0  0  0  0
  183.4200  178.7500  144.8380 C   0  0  0  0  0  3  0  0  0  0  0  0
  182.7950  178.8490  143.5920 C   0  0  0  0  0  0  0  0  0  0  0  0
  183.5390  178.6670  142.4220 C   0  0  0  0  0  3  0  0  0  0  0  0
  184.7940  178.5180  147.3010 O   0  0  0  0  0  0  0  0  0  0  0  0
  184.9030  178.3770  142.4980 C   0  0  0  0  0  3  0  0  0  0  0  0
  185.5400  178.2690  143.7450 C   0  0  0  0  0  0  0  0  0  0  0  0
  192.1260  177.2650  140.4350 C   0  0  0  0  0  3  0  0  0  0  0  0
  189.3150  176.8900  140.3500 C   0  0  0  0  0  3  0  0  0  0  0  0
  190.8700  176.3020  137.2450 C   0  0  0  0  0  0  0  0  0  0  0  0
  191.9920  176.6370  138.0100 C   0  0  0  0  0  3  0  0  0  0  0  0
  191.4730  176.8880  139.2660 C   0  0  0  0  0  0  0  0  0  0  0  0
  189.7340  176.3470  137.9890 N   0  0  0  0  0  0  0  0  0  0  0  0
  190.1170  176.7070  139.2230 C   0  0  0  0  0  0  0  0  0  0  0  0
  188.3700  176.0680  137.5600 C   0  0  0  0  0  1  0  0  0  0  0  0
  189.9390  177.2730  141.5560 C   0  0  0  0  0  0  0  0  0  0  0  0
  191.3440  177.4580  141.5870 C   0  0  0  0  0  3  0  0  0  0  0  0
  190.9340  175.9490  135.8140 C   0  0  0  0  0  0  0  0  0  0  0  0
  190.5120  176.7450  134.9350 O   0  0  0  0  0  0  0  0  0  0  0  0
  191.4770  174.6950  135.4130 N   0  0  0  0  0  1  0  0  0  0  0  0
  181.3450  179.1760  143.5090 C   0  0  0  0  0  2  0  0  0  0  0  0
  180.9480  179.4300  142.0680 C   0  0  0  0  0  2  0  0  0  0  0  0
  180.1150  180.5460  142.0060 O   0  0  0  0  0  1  0  0  0  0  0  0
  1  9  2  0  0  0  0
  1  5  1  0  0  0  0
  2  3  1  0  0  0  0
  3 10  1  0  0  0  0
  3 16  2  0  0  0  0
  4  6  2  0  0  0  0
  5 11  2  0  0  0  0
  6  8  1  0  0  0  0
  8  7  2  0  0  0  0
  9  4  1  0  0  0  0
 10 12  2  0  0  0  0
 11  6  1  0  0  0  0
 11 10  1  0  0  0  0
 12  7  1  0  0  0  0
 13  2  1  0  0  0  0
 14 13  2  0  0  0  0
 15 17  2  0  0  0  0
 15 14  1  0  0  0  0
 17 18  1  0  0  0  0
 18  5  1  0  0  0  0
 18  2  2  0  0  0  0
 19 28  1  0  0  0  0
 20 27  1  0  0  0  0
 21 24  1  0  0  0  0
 21 22  2  0  0  0  0
 22 23  1  0  0  0  0
 23 19  2  0  0  0  0
 24 25  1  0  0  0  0
 25 23  1  0  0  0  0
 25 20  2  0  0  0  0
 26 24  1  0  0  0  0
 27 28  2  0  0  0  0
 27  9  1  0  0  0  0
 29 21  1  0  0  0  0
 30 29  2  0  0  0  0
 31 29  1  0  0  0  0
 32 14  1  0  0  0  0
 33 32  1  0  0  0  0
 34 33  1  0  0  0  0
M  END
>  <MODEL>
1

>  <REMARK>
 VINA RESULT:     -11.7      0.000      0.000
  Name = 
  4 active torsions:
  status: ('A' for Active; 'I' for Inactive)
    1  A    between atoms: C_3  and  C_13
    2  A    between atoms: C_3  and  C_25
    3  A    between atoms: C_7  and  C_11
    4  A    between atoms: C_18  and  C_30
                            x       y       z     vdW  Elec       q    Type
                         _______ _______ _______ _____ _____    ______ ____

>  <TORSDO>
F 4

$$$$
=
 OpenBabel11052415563D

 34 39  0  0  0  0  0  0  0  0999 V2000
  187.2010  177.7870  142.0790 C   0  0  0  0  0  3  0  0  0  0  0  0
  184.4790  178.5540  144.5940 C   0  0  0  0  0  0  0  0  0  0  0  0
  185.2620  178.4370  145.8390 C   0  0  0  0  0  0  0  0  0  0  0  0
  189.2590  177.3680  143.2110 N   0  0  0  0  0  0  0  0  0  0  0  0
  186.5550  178.0020  143.3020 C   0  0  0  0  0  0  0  0  0  0  0  0
  188.6720  177.5680  144.4190 C   0  0  0  0  0  0  0  0  0  0  0  0
  188.8290  177.6600  146.8340 C   0  0  0  0  0  3  0  0  0  0  0  0
  189.4280  177.4540  145.5890 C   0  0  0  0  0  3  0  0  0  0  0  0
  188.5650  177.4680  142.0430 C   0  0  0  0  0  0  0  0  0  0  0  0
  186.6970  178.0980  145.7550 C   0  0  0  0  0  0  0  0  0  0  0  0
  187.2990  177.8920  144.4950 C   0  0  0  0  0  0  0  0  0  0  0  0
  187.4720  177.9800  146.9170 C   0  0  0  0  0  3  0  0  0  0  0  0
  183.1150  178.8750  144.6390 C   0  0  0  0  0  3  0  0  0  0  0  0
  182.3750  178.9810  143.4580 C   0  0  0  0  0  0  0  0  0  0  0  0
  182.9990  178.7770  142.2240 C   0  0  0  0  0  3  0  0  0  0  0  0
  184.7150  178.6250  146.9600 O   0  0  0  0  0  0  0  0  0  0  0  0
  184.3570  178.4580  142.1700 C   0  0  0  0  0  3  0  0  0  0  0  0
  185.1090  178.3420  143.3500 C   0  0  0  0  0  0  0  0  0  0  0  0
  189.1620  176.9170  138.3190 C   0  0  0  0  0  3  0  0  0  0  0  0
  190.6590  177.1230  140.7200 C   0  0  0  0  0  3  0  0  0  0  0  0
  192.6800  176.5810  137.8870 C   0  0  0  0  0  0  0  0  0  0  0  0
  191.4200  176.5970  137.2780 C   0  0  0  0  0  3  0  0  0  0  0  0
  190.5480  176.8090  138.3290 C   0  0  0  0  0  0  0  0  0  0  0  0
  192.5810  176.7690  139.2290 N   0  0  0  0  0  0  0  0  0  0  0  0
  191.2720  176.9080  139.4850 C   0  0  0  0  0  0  0  0  0  0  0  0
  193.6580  176.8160  140.2090 C   0  0  0  0  0  1  0  0  0  0  0  0
  189.2530  177.2390  140.7540 C   0  0  0  0  0  0  0  0  0  0  0  0
  188.5150  177.1340  139.5490 C   0  0  0  0  0  3  0  0  0  0  0  0
  193.9410  176.3800  137.1480 C   0  0  0  0  0  0  0  0  0  0  0  0
  194.3170  177.2100  136.2790 O   0  0  0  0  0  0  0  0  0  0  0  0
  194.7480  175.2370  137.4130 N   0  0  0  0  0  1  0  0  0  0  0  0
  180.9310  179.3400  143.5130 C   0  0  0  0  0  2  0  0  0  0  0  0
  180.1110  178.1410  143.9490 C   0  0  0  0  0  2  0  0  0  0  0  0
  178.9310  178.5780  144.5470 O   0  0  0  0  0  1  0  0  0  0  0  0
  1  5  1  0  0  0  0
  2 13  1  0  0  0  0
  2  3  1  0  0  0  0
  3 16  2  0  0  0  0
  4  6  2  0  0  0  0
  5 18  1  0  0  0  0
  5 11  2  0  0  0  0
  6 11  1  0  0  0  0
  6  8  1  0  0  0  0
  7 12  1  0  0  0  0
  8  7  2  0  0  0  0
  9  1  2  0  0  0  0
  9  4  1  0  0  0  0
 10  3  1  0  0  0  0
 10 12  2  0  0  0  0
 11 10  1  0  0  0  0
 14 32  1  0  0  0  0
 14 13  2  0  0  0  0
 15 14  1  0  0  0  0
 17 15  2  0  0  0  0
 17 18  1  0  0  0  0
 18  2  2  0  0  0  0
 19 23  2  0  0  0  0
 19 28  1  0  0  0  0
 20 27  1  0  0  0  0
 21 24  1  0  0  0  0
 22 21  2  0  0  0  0
 22 23  1  0  0  0  0
 23 25  1  0  0  0  0
 24 25  1  0  0  0  0
 24 26  1  0  0  0  0
 25 20  2  0  0  0  0
 27  9  1  0  0  0  0
 28 27  2  0  0  0  0
 29 31  1  0  0  0  0
 29 21  1  0  0  0  0
 30 29  2  0  0  0  0
 32 33  1  0  0  0  0
 33 34  1  0  0  0  0
M  END
>  <MODEL>
2

>  <REMARK>
 VINA RESULT:     -11.3      1.509      2.101
  Name = 
  4 active torsions:
  status: ('A' for Active; 'I' for Inactive)
    1  A    between atoms: C_3  and  C_13
    2  A    between atoms: C_3  and  C_25
    3  A    between atoms: C_7  and  C_11
    4  A    between atoms: C_18  and  C_30
                            x       y       z     vdW  Elec       q    Type
                         _______ _______ _______ _____ _____    ______ ____

>  <TORSDO>
F 4

$$$$
=
 OpenBabel11052415563D

 34 39  0  0  0  0  0  0  0  0999 V2000
  186.8420  178.0420  143.3650 C   0  0  0  0  0  3  0  0  0  0  0  0
  190.5720  177.4350  143.5800 C   0  0  0  0  0  0  0  0  0  0  0  0
  190.7180  177.3530  145.0450 C   0  0  0  0  0  0  0  0  0  0  0  0
  185.9020  178.1040  145.5580 N   0  0  0  0  0  0  0  0  0  0  0  0
  188.1150  177.8170  143.9020 C   0  0  0  0  0  0  0  0  0  0  0  0
  187.1190  177.8860  146.1200 C   0  0  0  0  0  0  0  0  0  0  0  0
  188.4890  177.5860  148.0940 C   0  0  0  0  0  3  0  0  0  0  0  0
  187.2400  177.8100  147.5100 C   0  0  0  0  0  3  0  0  0  0  0  0
  185.7320  178.1860  144.2080 C   0  0  0  0  0  0  0  0  0  0  0  0
  189.5210  177.5100  145.8960 C   0  0  0  0  0  0  0  0  0  0  0  0
  188.2610  177.7360  145.3020 C   0  0  0  0  0  0  0  0  0  0  0  0
  189.6230  177.4370  147.2920 C   0  0  0  0  0  3  0  0  0  0  0  0
  191.6880  177.2890  142.7440 C   0  0  0  0  0  3  0  0  0  0  0  0
  191.5460  177.3720  141.3550 C   0  0  0  0  0  0  0  0  0  0  0  0
  190.2840  177.5900  140.7950 C   0  0  0  0  0  3  0  0  0  0  0  0
  191.8490  177.1490  145.5650 O   0  0  0  0  0  0  0  0  0  0  0  0
  189.1670  177.7360  141.6200 C   0  0  0  0  0  3  0  0  0  0  0  0
  189.2980  177.6620  143.0160 C   0  0  0  0  0  0  0  0  0  0  0  0
  182.0050  178.9490  143.9750 C   0  0  0  0  0  3  0  0  0  0  0  0
  184.1820  178.3610  142.2530 C   0  0  0  0  0  3  0  0  0  0  0  0
  181.1580  178.8610  140.5170 C   0  0  0  0  0  0  0  0  0  0  0  0
  180.7110  179.0540  141.8290 C   0  0  0  0  0  3  0  0  0  0  0  0
  181.8480  178.8760  142.5950 C   0  0  0  0  0  0  0  0  0  0  0  0
  182.4870  178.5800  140.4860 N   0  0  0  0  0  0  0  0  0  0  0  0
  182.8960  178.5920  141.7630 C   0  0  0  0  0  0  0  0  0  0  0  0
  183.3200  178.3160  139.3200 C   0  0  0  0  0  1  0  0  0  0  0  0
  184.3840  178.4250  143.6480 C   0  0  0  0  0  0  0  0  0  0  0  0
  183.2890  178.7190  144.4990 C   0  0  0  0  0  3  0  0  0  0  0  0
  180.2810  178.9530  139.3350 C   0  0  0  0  0  0  0  0  0  0  0  0
  179.6090  177.9600  138.9530 O   0  0  0  0  0  0  0  0  0  0  0  0
  180.1890  180.1760  138.6100 N   0  0  0  0  0  1  0  0  0  0  0  0
  192.7330  177.1980  140.4740 C   0  0  0  0  0  2  0  0  0  0  0  0
  192.2940  176.8190  139.0730 C   0  0  0  0  0  2  0  0  0  0  0  0
  193.3970  176.8250  138.2220 O   0  0  0  0  0  1  0  0  0  0  0  0
  1  5  2  0  0  0  0
  1  9  1  0  0  0  0
  2  3  1  0  0  0  0
  3 16  2  0  0  0  0
  3 10  1  0  0  0  0
  4  6  1  0  0  0  0
  5 11  1  0  0  0  0
  6  8  1  0  0  0  0
  8  7  2  0  0  0  0
  9  4  2  0  0  0  0
 10 12  2  0  0  0  0
 11 10  1  0  0  0  0
 11  6  2  0  0  0  0
 12  7  1  0  0  0  0
 13  2  2  0  0  0  0
 14 13  1  0  0  0  0
 15 14  2  0  0  0  0
 15 17  1  0  0  0  0
 17 18  2  0  0  0  0
 18  2  1  0  0  0  0
 18  5  1  0  0  0  0
 19 28  1  0  0  0  0
 20 27  1  0  0  0  0
 21 22  2  0  0  0  0
 22 23  1  0  0  0  0
 23 19  2  0  0  0  0
 24 21  1  0  0  0  0
 24 25  1  0  0  0  0
 25 20  2  0  0  0  0
 25 23  1  0  0  0  0
 26 24  1  0  0  0  0
 27  9  1  0  0  0  0
 27 28  2  0  0  0  0
 29 21  1  0  0  0  0
 30 29  2  0  0  0  0
 31 29  1  0  0  0  0
 32 14  1  0  0  0  0
 33 32  1  0  0  0  0
 34 33  1  0  0  0  0
M  END
>  <MODEL>
3

>  <REMARK>
 VINA RESULT:     -11.3      3.198      7.936
  Name = 
  4 active torsions:
  status: ('A' for Active; 'I' for Inactive)
    1  A    between atoms: C_3  and  C_13
    2  A    between atoms: C_3  and  C_25
    3  A    between atoms: C_7  and  C_11
    4  A    between atoms: C_18  and  C_30
                            x       y       z     vdW  Elec       q    Type
                         _______ _______ _______ _____ _____    ______ ____

>  <TORSDO>
F 4

$$$$
=
 OpenBabel11052415563D

 34 39  0  0  0  0  0  0  0  0999 V2000
  188.5190  177.3720  141.6490 C   0  0  0  0  0  3  0  0  0  0  0  0
  186.5710  178.0150  144.8300 C   0  0  0  0  0  0  0  0  0  0  0  0
  187.6350  177.7610  145.8190 C   0  0  0  0  0  0  0  0  0  0  0  0
  190.7690  176.7800  142.1800 N   0  0  0  0  0  0  0  0  0  0  0  0
  188.2170  177.5020  143.0100 C   0  0  0  0  0  0  0  0  0  0  0  0
  190.5190  176.8950  143.5100 C   0  0  0  0  0  0  0  0  0  0  0  0
  191.2870  176.7690  145.8030 C   0  0  0  0  0  3  0  0  0  0  0  0
  191.5380  176.6510  144.4340 C   0  0  0  0  0  3  0  0  0  0  0  0
  189.8090  177.0070  141.2400 C   0  0  0  0  0  0  0  0  0  0  0  0
  188.9800  177.3780  145.3440 C   0  0  0  0  0  0  0  0  0  0  0  0
  189.2310  177.2610  143.9600 C   0  0  0  0  0  0  0  0  0  0  0  0
  190.0160  177.1300  146.2560 C   0  0  0  0  0  3  0  0  0  0  0  0
  185.2830  178.3800  145.2470 C   0  0  0  0  0  3  0  0  0  0  0  0
  184.2760  178.6170  144.3070 C   0  0  0  0  0  0  0  0  0  0  0  0
  184.5550  178.4990  142.9420 C   0  0  0  0  0  3  0  0  0  0  0  0
  187.4010  177.8700  147.0540 O   0  0  0  0  0  0  0  0  0  0  0  0
  185.8350  178.1360  142.5170 C   0  0  0  0  0  3  0  0  0  0  0  0
  186.8520  177.8900  143.4530 C   0  0  0  0  0  0  0  0  0  0  0  0
  189.4890  177.0880  137.4430 C   0  0  0  0  0  3  0  0  0  0  0  0
  191.4000  176.3800  139.4160 C   0  0  0  0  0  3  0  0  0  0  0  0
  192.5770  175.8950  136.1320 C   0  0  0  0  0  0  0  0  0  0  0  0
  191.2940  176.3810  135.8530 C   0  0  0  0  0  3  0  0  0  0  0  0
  190.7470  176.6040  137.1020 C   0  0  0  0  0  0  0  0  0  0  0  0
  192.7980  175.8260  137.4710 N   0  0  0  0  0  0  0  0  0  0  0  0
  191.6700  176.2620  138.0520 C   0  0  0  0  0  0  0  0  0  0  0  0
  194.0000  175.3740  138.1580 C   0  0  0  0  0  1  0  0  0  0  0  0
  190.1350  176.8670  139.8050 C   0  0  0  0  0  0  0  0  0  0  0  0
  189.1870  177.2170  138.8100 C   0  0  0  0  0  3  0  0  0  0  0  0
  193.5490  175.5130  135.0900 C   0  0  0  0  0  0  0  0  0  0  0  0
  193.5690  174.3420  134.6280 O   0  0  0  0  0  0  0  0  0  0  0  0
  194.4790  176.4720  134.5960 N   0  0  0  0  0  1  0  0  0  0  0  0
  182.9160  179.0220  144.7580 C   0  0  0  0  0  2  0  0  0  0  0  0
  181.9540  179.0150  143.5870 C   0  0  0  0  0  2  0  0  0  0  0  0
  180.7480  178.4370  143.9800 O   0  0  0  0  0  1  0  0  0  0  0  0
  1  5  1  0  0  0  0
  2 13  1  0  0  0  0
  2  3  1  0  0  0  0
  3 16  2  0  0  0  0
  4  6  2  0  0  0  0
  5 18  1  0  0  0  0
  5 11  2  0  0  0  0
  6 11  1  0  0  0  0
  6  8  1  0  0  0  0
  7 12  1  0  0  0  0
  8  7  2  0  0  0  0
  9  1  2  0  0  0  0
  9  4  1  0  0  0  0
 10  3  1  0  0  0  0
 10 12  2  0  0  0  0
 11 10  1  0  0  0  0
 14 32  1  0  0  0  0
 14 13  2  0  0  0  0
 15 14  1  0  0  0  0
 17 15  2  0  0  0  0
 17 18  1  0  0  0  0
 18  2  2  0  0  0  0
 19 28  1  0  0  0  0
 20 27  1  0  0  0  0
 21 24  1  0  0  0  0
 22 21  2  0  0  0  0
 22 23  1  0  0  0  0
 23 19  2  0  0  0  0
 23 25  1  0  0  0  0
 24 25  1  0  0  0  0
 24 26  1  0  0  0  0
 25 20  2  0  0  0  0
 27  9  1  0  0  0  0
 28 27  2  0  0  0  0
 29 21  1  0  0  0  0
 30 29  2  0  0  0  0
 31 29  1  0  0  0  0
 33 34  1  0  0  0  0
 33 32  1  0  0  0  0
M  END
>  <MODEL>
4

>  <REMARK>
 VINA RESULT:     -10.8      1.716      2.602
  Name = 
  4 active torsions:
  status: ('A' for Active; 'I' for Inactive)
    1  A    between atoms: C_3  and  C_13
    2  A    between atoms: C_3  and  C_25
    3  A    between atoms: C_7  and  C_11
    4  A    between atoms: C_18  and  C_30
                            x       y       z     vdW  Elec       q    Type
                         _______ _______ _______ _____ _____    ______ ____

>  <TORSDO>
F 4

$$$$
=
 OpenBabel11052415563D

 34 39  0  0  0  0  0  0  0  0999 V2000
  187.0010  177.8720  142.7130 C   0  0  0  0  0  3  0  0  0  0  0  0
  190.5500  177.0110  141.7170 C   0  0  0  0  0  0  0  0  0  0  0  0
  191.1460  176.8610  143.0580 C   0  0  0  0  0  0  0  0  0  0  0  0
  186.8120  177.9100  145.0910 N   0  0  0  0  0  0  0  0  0  0  0  0
  188.3580  177.5420  142.8120 C   0  0  0  0  0  0  0  0  0  0  0  0
  188.1240  177.5900  145.2330 C   0  0  0  0  0  0  0  0  0  0  0  0
  190.0220  177.1210  146.6620 C   0  0  0  0  0  3  0  0  0  0  0  0
  188.6730  177.4510  146.5100 C   0  0  0  0  0  3  0  0  0  0  0  0
  186.2300  178.0560  143.8680 C   0  0  0  0  0  0  0  0  0  0  0  0
  190.2960  177.0640  144.2480 C   0  0  0  0  0  0  0  0  0  0  0  0
  188.9330  177.3960  144.0910 C   0  0  0  0  0  0  0  0  0  0  0  0
  190.8290  176.9290  145.5380 C   0  0  0  0  0  3  0  0  0  0  0  0
  191.3290  176.8250  140.5660 C   0  0  0  0  0  3  0  0  0  0  0  0
  190.7610  176.9710  139.2970 C   0  0  0  0  0  0  0  0  0  0  0  0
  189.4070  177.2950  139.1720 C   0  0  0  0  0  3  0  0  0  0  0  0
  192.3650  176.5620  143.1860 O   0  0  0  0  0  0  0  0  0  0  0  0
  188.6230  177.4820  140.3130 C   0  0  0  0  0  3  0  0  0  0  0  0
  189.1840  177.3440  141.5920 C   0  0  0  0  0  0  0  0  0  0  0  0
  182.6710  178.9990  144.8550 C   0  0  0  0  0  3  0  0  0  0  0  0
  184.1760  178.4830  142.5060 C   0  0  0  0  0  3  0  0  0  0  0  0
  180.8120  179.2780  141.8310 C   0  0  0  0  0  0  0  0  0  0  0  0
  180.7990  179.3650  143.2270 C   0  0  0  0  0  3  0  0  0  0  0  0
  182.0980  179.0650  143.5890 C   0  0  0  0  0  0  0  0  0  0  0  0
  182.0450  178.9430  141.3690 N   0  0  0  0  0  0  0  0  0  0  0  0
  182.8220  178.8160  142.4560 C   0  0  0  0  0  0  0  0  0  0  0  0
  182.4640  178.7550  139.9870 C   0  0  0  0  0  1  0  0  0  0  0  0
  184.7960  178.4060  143.7710 C   0  0  0  0  0  0  0  0  0  0  0  0
  184.0340  178.6650  144.9380 C   0  0  0  0  0  3  0  0  0  0  0  0
  179.6260  179.5200  140.9870 C   0  0  0  0  0  0  0  0  0  0  0  0
  178.9390  178.5600  140.5520 O   0  0  0  0  0  0  0  0  0  0  0  0
  179.2490  180.8530  140.6540 N   0  0  0  0  0  1  0  0  0  0  0  0
  191.5910  176.7540  138.0800 C   0  0  0  0  0  2  0  0  0  0  0  0
  191.9970  175.2970  137.9770 C   0  0  0  0  0  2  0  0  0  0  0  0
  190.8560  174.4970  137.9670 O   0  0  0  0  0  1  0  0  0  0  0  0
  1  5  2  0  0  0  0
  1  9  1  0  0  0  0
  2  3  1  0  0  0  0
  3 16  2  0  0  0  0
  3 10  1  0  0  0  0
  4  6  1  0  0  0  0
  5 11  1  0  0  0  0
  6  8  1  0  0  0  0
  8  7  2  0  0  0  0
  9  4  2  0  0  0  0
 10 12  2  0  0  0  0
 11 10  1  0  0  0  0
 11  6  2  0  0  0  0
 12  7  1  0  0  0  0
 13  2  2  0  0  0  0
 14 13  1  0  0  0  0
 15 14  2  0  0  0  0
 15 17  1  0  0  0  0
 17 18  2  0  0  0  0
 18  2  1  0  0  0  0
 18  5  1  0  0  0  0
 19 28  1  0  0  0  0
 20 27  1  0  0  0  0
 21 22  2  0  0  0  0
 22 23  1  0  0  0  0
 23 19  2  0  0  0  0
 24 21  1  0  0  0  0
 24 25  1  0  0  0  0
 25 20  2  0  0  0  0
 25 23  1  0  0  0  0
 26 24  1  0  0  0  0
 27  9  1  0  0  0  0
 27 28  2  0  0  0  0
 29 21  1  0  0  0  0
 30 29  2  0  0  0  0
 31 29  1  0  0  0  0
 32 14  1  0  0  0  0
 33 32  1  0  0  0  0
 34 33  1  0  0  0  0
M  END
>  <MODEL>
5

>  <REMARK>
 VINA RESULT:     -10.4      3.141      8.299
  Name = 
  4 active torsions:
  status: ('A' for Active; 'I' for Inactive)
    1  A    between atoms: C_3  and  C_13
    2  A    between atoms: C_3  and  C_25
    3  A    between atoms: C_7  and  C_11
    4  A    between atoms: C_18  and  C_30
                            x       y       z     vdW  Elec       q    Type
                         _______ _______ _______ _____ _____    ______ ____

>  <TORSDO>
F 4

$$$$
=
 OpenBabel11052415563D

 34 39  0  0  0  0  0  0  0  0999 V2000
  188.2960  177.6610  141.7670 C   0  0  0  0  0  3  0  0  0  0  0  0
  188.1670  177.7350  145.5490 C   0  0  0  0  0  0  0  0  0  0  0  0
  186.7690  178.1690  145.7320 C   0  0  0  0  0  0  0  0  0  0  0  0
  186.1820  178.3070  140.8690 N   0  0  0  0  0  0  0  0  0  0  0  0
  187.8090  177.8240  143.0690 C   0  0  0  0  0  0  0  0  0  0  0  0
  185.6690  178.4770  142.1150 C   0  0  0  0  0  0  0  0  0  0  0  0
  183.8100  179.0640  143.5510 C   0  0  0  0  0  3  0  0  0  0  0  0
  184.3430  178.8880  142.2720 C   0  0  0  0  0  3  0  0  0  0  0  0
  187.4680  177.9070  140.6630 C   0  0  0  0  0  0  0  0  0  0  0  0
  185.9320  178.4170  144.5420 C   0  0  0  0  0  0  0  0  0  0  0  0
  186.4740  178.2380  143.2510 C   0  0  0  0  0  0  0  0  0  0  0  0
  184.5990  178.8310  144.6800 C   0  0  0  0  0  3  0  0  0  0  0  0
  188.9880  177.4890  146.6580 C   0  0  0  0  0  3  0  0  0  0  0  0
  190.3130  177.0810  146.4800 C   0  0  0  0  0  0  0  0  0  0  0  0
  190.8210  176.9060  145.1890 C   0  0  0  0  0  3  0  0  0  0  0  0
  186.2940  178.3250  146.8910 O   0  0  0  0  0  0  0  0  0  0  0  0
  190.0100  177.1480  144.0780 C   0  0  0  0  0  3  0  0  0  0  0  0
  188.6800  177.5640  144.2460 C   0  0  0  0  0  0  0  0  0  0  0  0
  187.7650  178.1550  136.8720 C   0  0  0  0  0  3  0  0  0  0  0  0
  189.1580  177.0010  139.0570 C   0  0  0  0  0  3  0  0  0  0  0  0
  190.7020  176.3610  135.9570 C   0  0  0  0  0  0  0  0  0  0  0  0
  189.6080  177.1180  135.5230 C   0  0  0  0  0  3  0  0  0  0  0  0
  188.9320  177.4210  136.6900 C   0  0  0  0  0  0  0  0  0  0  0  0
  190.6930  176.2110  137.3080 N   0  0  0  0  0  0  0  0  0  0  0  0
  189.6050  176.8630  137.7430 C   0  0  0  0  0  0  0  0  0  0  0  0
  191.6530  175.4930  138.1350 C   0  0  0  0  0  1  0  0  0  0  0  0
  187.9770  177.7380  139.2850 C   0  0  0  0  0  0  0  0  0  0  0  0
  187.2880  178.3100  138.1850 C   0  0  0  0  0  3  0  0  0  0  0  0
  191.7220  175.8060  135.0470 C   0  0  0  0  0  0  0  0  0  0  0  0
  192.6920  176.5090  134.6620 O   0  0  0  0  0  0  0  0  0  0  0  0
  191.6150  174.4600  134.5940 N   0  0  0  0  0  1  0  0  0  0  0  0
  191.1730  176.8060  147.6630 C   0  0  0  0  0  2  0  0  0  0  0  0
  192.1410  175.6800  147.3560 C   0  0  0  0  0  2  0  0  0  0  0  0
  193.2620  175.7930  148.1770 O   0  0  0  0  0  1  0  0  0  0  0  0
  1  5  1  0  0  0  0
  2  3  1  0  0  0  0
  2 13  1  0  0  0  0
  3 16  2  0  0  0  0
  4  6  2  0  0  0  0
  5 11  2  0  0  0  0
  5 18  1  0  0  0  0
  6  8  1  0  0  0  0
  6 11  1  0  0  0  0
  7 12  1  0  0  0  0
  8  7  2  0  0  0  0
  9  4  1  0  0  0  0
  9  1  2  0  0  0  0
 10 12  2  0  0  0  0
 10  3  1  0  0  0  0
 11 10  1  0  0  0  0
 14 13  2  0  0  0  0
 14 32  1  0  0  0  0
 15 14  1  0  0  0  0
 17 18  1  0  0  0  0
 17 15  2  0  0  0  0
 18  2  2  0  0  0  0
 19 28  1  0  0  0  0
 20 27  1  0  0  0  0
 21 24  1  0  0  0  0
 22 21  2  0  0  0  0
 22 23  1  0  0  0  0
 23 19  2  0  0  0  0
 23 25  1  0  0  0  0
 24 25  1  0  0  0  0
 24 26  1  0  0  0  0
 25 20  2  0  0  0  0
 27  9  1  0  0  0  0
 28 27  2  0  0  0  0
 29 21  1  0  0  0  0
 30 29  2  0  0  0  0
 31 29  1  0  0  0  0
 33 32  1  0  0  0  0
 33 34  1  0  0  0  0
M  END
>  <MODEL>
6

>  <REMARK>
 VINA RESULT:     -10.3      2.255      5.528
  Name = 
  4 active torsions:
  status: ('A' for Active; 'I' for Inactive)
    1  A    between atoms: C_3  and  C_13
    2  A    between atoms: C_3  and  C_25
    3  A    between atoms: C_7  and  C_11
    4  A    between atoms: C_18  and  C_30
                            x       y       z     vdW  Elec       q    Type
                         _______ _______ _______ _____ _____    ______ ____

>  <TORSDO>
F 4

$$$$
=
 OpenBabel11052415563D

 34 39  0  0  0  0  0  0  0  0999 V2000
  186.0210  178.2670  142.4970 C   0  0  0  0  0  3  0  0  0  0  0  0
  184.7800  178.6060  138.9370 C   0  0  0  0  0  0  0  0  0  0  0  0
  183.3510  178.8570  139.2050 C   0  0  0  0  0  0  0  0  0  0  0  0
  184.2060  178.5460  144.0200 N   0  0  0  0  0  0  0  0  0  0  0  0
  185.1580  178.4570  141.4110 C   0  0  0  0  0  0  0  0  0  0  0  0
  183.3340  178.7370  142.9970 C   0  0  0  0  0  0  0  0  0  0  0  0
  181.0830  179.1700  142.2170 C   0  0  0  0  0  3  0  0  0  0  0  0
  181.9840  178.9730  143.2660 C   0  0  0  0  0  3  0  0  0  0  0  0
  185.5320  178.3120  143.8090 C   0  0  0  0  0  0  0  0  0  0  0  0
  182.8780  178.8970  140.6030 C   0  0  0  0  0  0  0  0  0  0  0  0
  183.7920  178.6970  141.6600 C   0  0  0  0  0  0  0  0  0  0  0  0
  181.5270  179.1320  140.8930 C   0  0  0  0  0  3  0  0  0  0  0  0
  185.2620  178.5630  137.6220 C   0  0  0  0  0  3  0  0  0  0  0  0
  186.6160  178.3220  137.3720 C   0  0  0  0  0  0  0  0  0  0  0  0
  187.4990  178.1340  138.4400 C   0  0  0  0  0  3  0  0  0  0  0  0
  182.5440  179.0350  138.2520 O   0  0  0  0  0  0  0  0  0  0  0  0
  187.0280  178.1770  139.7540 C   0  0  0  0  0  3  0  0  0  0  0  0
  185.6690  178.4120  140.0160 C   0  0  0  0  0  0  0  0  0  0  0  0
  186.8490  178.1810  147.3830 C   0  0  0  0  0  3  0  0  0  0  0  0
  187.7560  177.6560  144.7460 C   0  0  0  0  0  3  0  0  0  0  0  0
  190.2200  177.0490  147.1880 C   0  0  0  0  0  0  0  0  0  0  0  0
  189.1700  177.4670  148.0130 C   0  0  0  0  0  3  0  0  0  0  0  0
  188.1410  177.7310  147.1290 C   0  0  0  0  0  0  0  0  0  0  0  0
  189.8540  177.0590  145.8800 N   0  0  0  0  0  0  0  0  0  0  0  0
  188.5800  177.4790  145.8580 C   0  0  0  0  0  0  0  0  0  0  0  0
  190.6580  176.6940  144.7220 C   0  0  0  0  0  1  0  0  0  0  0  0
  186.4370  178.1110  144.9610 C   0  0  0  0  0  0  0  0  0  0  0  0
  185.9950  178.3700  146.2820 C   0  0  0  0  0  3  0  0  0  0  0  0
  191.5480  176.6530  147.6960 C   0  0  0  0  0  0  0  0  0  0  0  0
  192.1910  177.4070  148.4710 O   0  0  0  0  0  0  0  0  0  0  0  0
  192.1160  175.4060  147.3080 N   0  0  0  0  0  1  0  0  0  0  0  0
  187.1230  178.2950  135.9730 C   0  0  0  0  0  2  0  0  0  0  0  0
  188.1370  177.1810  135.8060 C   0  0  0  0  0  2  0  0  0  0  0  0
  189.3860  177.7280  135.5180 O   0  0  0  0  0  1  0  0  0  0  0  0
  1  9  1  0  0  0  0
  2  3  1  0  0  0  0
  2 18  1  0  0  0  0
  3 10  1  0  0  0  0
  5 11  1  0  0  0  0
  5  1  2  0  0  0  0
  6  8  1  0  0  0  0
  6  4  1  0  0  0  0
  7  8  2  0  0  0  0
  9  4  2  0  0  0  0
  9 27  1  0  0  0  0
 10 12  2  0  0  0  0
 10 11  1  0  0  0  0
 11  6  2  0  0  0  0
 12  7  1  0  0  0  0
 13  2  2  0  0  0  0
 14 13  1  0  0  0  0
 14 15  2  0  0  0  0
 15 17  1  0  0  0  0
 16  3  2  0  0  0  0
 17 18  2  0  0  0  0
 18  5  1  0  0  0  0
 20 27  2  0  0  0  0
 20 25  1  0  0  0  0
 21 29  1  0  0  0  0
 21 22  2  0  0  0  0
 23 19  1  0  0  0  0
 23 22  1  0  0  0  0
 24 21  1  0  0  0  0
 25 24  1  0  0  0  0
 25 23  2  0  0  0  0
 26 24  1  0  0  0  0
 27 28  1  0  0  0  0
 28 19  2  0  0  0  0
 29 30  2  0  0  0  0
 31 29  1  0  0  0  0
 32 14  1  0  0  0  0
 33 32  1  0  0  0  0
 34 33  1  0  0  0  0
M  END
>  <MODEL>
7

>  <REMARK>
 VINA RESULT:     -10.2      3.475      8.008
  Name = 
  4 active torsions:
  status: ('A' for Active; 'I' for Inactive)
    1  A    between atoms: C_3  and  C_13
    2  A    between atoms: C_3  and  C_25
    3  A    between atoms: C_7  and  C_11
    4  A    between atoms: C_18  and  C_30
                            x       y       z     vdW  Elec       q    Type
                         _______ _______ _______ _____ _____    ______ ____

>  <TORSDO>
F 4

$$$$
=
 OpenBabel11052415563D

 34 39  0  0  0  0  0  0  0  0999 V2000
  186.9050  178.1290  141.9410 C   0  0  0  0  0  3  0  0  0  0  0  0
  183.1940  178.7360  142.3670 C   0  0  0  0  0  0  0  0  0  0  0  0
  183.1170  178.7280  143.8400 C   0  0  0  0  0  0  0  0  0  0  0  0
  187.9460  177.9270  144.0790 N   0  0  0  0  0  0  0  0  0  0  0  0
  185.6600  178.3250  142.5500 C   0  0  0  0  0  0  0  0  0  0  0  0
  186.7580  178.1140  144.7100 C   0  0  0  0  0  0  0  0  0  0  0  0
  185.4830  178.2970  146.7610 C   0  0  0  0  0  3  0  0  0  0  0  0
  186.7020  178.1040  146.1060 C   0  0  0  0  0  3  0  0  0  0  0  0
  188.0520  177.9280  142.7210 C   0  0  0  0  0  0  0  0  0  0  0  0
  184.3510  178.5130  144.6220 C   0  0  0  0  0  0  0  0  0  0  0  0
  185.5800  178.3200  143.9570 C   0  0  0  0  0  0  0  0  0  0  0  0
  184.3140  178.5000  146.0240 C   0  0  0  0  0  3  0  0  0  0  0  0
  182.0410  178.9380  141.5940 C   0  0  0  0  0  3  0  0  0  0  0  0
  182.1180  178.9420  140.1990 C   0  0  0  0  0  0  0  0  0  0  0  0
  183.3510  178.7530  139.5670 C   0  0  0  0  0  3  0  0  0  0  0  0
  182.0120  178.9040  144.4240 O   0  0  0  0  0  0  0  0  0  0  0  0
  184.5040  178.5520  140.3290 C   0  0  0  0  0  3  0  0  0  0  0  0
  184.4380  178.5400  141.7310 C   0  0  0  0  0  0  0  0  0  0  0  0
  191.8250  177.8000  142.1950 C   0  0  0  0  0  3  0  0  0  0  0  0
  189.4430  177.2380  140.7600 C   0  0  0  0  0  3  0  0  0  0  0  0
  192.3550  176.6030  138.8840 C   0  0  0  0  0  0  0  0  0  0  0  0
  192.9360  177.0480  140.0760 C   0  0  0  0  0  3  0  0  0  0  0  0
  191.8530  177.3240  140.8880 C   0  0  0  0  0  0  0  0  0  0  0  0
  190.9990  176.6100  138.9630 N   0  0  0  0  0  0  0  0  0  0  0  0
  190.7050  177.0530  140.1950 C   0  0  0  0  0  0  0  0  0  0  0  0
  190.0400  176.2210  137.9390 C   0  0  0  0  0  1  0  0  0  0  0  0
  189.3710  177.7180  142.0840 C   0  0  0  0  0  0  0  0  0  0  0  0
  190.5670  177.9970  142.7920 C   0  0  0  0  0  3  0  0  0  0  0  0
  193.1350  176.1870  137.7020 C   0  0  0  0  0  0  0  0  0  0  0  0
  193.8610  177.0110  137.0870 O   0  0  0  0  0  0  0  0  0  0  0  0
  193.0700  174.8390  137.2450 N   0  0  0  0  0  1  0  0  0  0  0  0
  180.8920  179.1750  139.3860 C   0  0  0  0  0  2  0  0  0  0  0  0
  180.3390  180.5590  139.6590 C   0  0  0  0  0  2  0  0  0  0  0  0
  181.0540  181.5000  138.9190 O   0  0  0  0  0  1  0  0  0  0  0  0
  1  5  2  0  0  0  0
  1  9  1  0  0  0  0
  2  3  1  0  0  0  0
  3 16  2  0  0  0  0
  3 10  1  0  0  0  0
  4  6  1  0  0  0  0
  5 11  1  0  0  0  0
  6  8  1  0  0  0  0
  8  7  2  0  0  0  0
  9  4  2  0  0  0  0
 10 12  2  0  0  0  0
 11 10  1  0  0  0  0
 11  6  2  0  0  0  0
 12  7  1  0  0  0  0
 13  2  2  0  0  0  0
 14 13  1  0  0  0  0
 15 14  2  0  0  0  0
 15 17  1  0  0  0  0
 17 18  2  0  0  0  0
 18  2  1  0  0  0  0
 18  5  1  0  0  0  0
 19 28  1  0  0  0  0
 20 27  1  0  0  0  0
 21 24  1  0  0  0  0
 21 22  2  0  0  0  0
 22 23  1  0  0  0  0
 23 19  2  0  0  0  0
 24 25  1  0  0  0  0
 25 20  2  0  0  0  0
 25 23  1  0  0  0  0
 26 24  1  0  0  0  0
 27  9  1  0  0  0  0
 27 28  2  0  0  0  0
 29 21  1  0  0  0  0
 30 29  2  0  0  0  0
 31 29  1  0  0  0  0
 32 33  1  0  0  0  0
 32 14  1  0  0  0  0
 34 33  1  0  0  0  0
M  END
>  <MODEL>
8

>  <REMARK>
 VINA RESULT:      -9.8      1.758      2.648
  Name = 
  4 active torsions:
  status: ('A' for Active; 'I' for Inactive)
    1  A    between atoms: C_3  and  C_13
    2  A    between atoms: C_3  and  C_25
    3  A    between atoms: C_7  and  C_11
    4  A    between atoms: C_18  and  C_30
                            x       y       z     vdW  Elec       q    Type
                         _______ _______ _______ _____ _____    ______ ____

>  <TORSDO>
F 4

$$$$
=
 OpenBabel11052415563D

 34 39  0  0  0  0  0  0  0  0999 V2000
  187.3220  177.9460  141.5930 C   0  0  0  0  0  3  0  0  0  0  0  0
  190.3180  177.3180  139.3660 C   0  0  0  0  0  0  0  0  0  0  0  0
  191.3760  177.2830  140.3930 C   0  0  0  0  0  0  0  0  0  0  0  0
  188.0190  178.0880  143.8710 N   0  0  0  0  0  0  0  0  0  0  0  0
  188.6440  177.7290  141.1870 C   0  0  0  0  0  0  0  0  0  0  0  0
  189.3140  177.8790  143.5210 C   0  0  0  0  0  0  0  0  0  0  0  0
  191.6390  177.6340  144.1510 C   0  0  0  0  0  3  0  0  0  0  0  0
  190.3050  177.8480  144.5050 C   0  0  0  0  0  3  0  0  0  0  0  0
  187.0160  178.1260  142.9480 C   0  0  0  0  0  0  0  0  0  0  0  0
  191.0090  177.4770  141.8100 C   0  0  0  0  0  0  0  0  0  0  0  0
  189.6600  177.6930  142.1640 C   0  0  0  0  0  0  0  0  0  0  0  0
  191.9900  177.4500  142.8120 C   0  0  0  0  0  3  0  0  0  0  0  0
  190.6320  177.1360  138.0120 C   0  0  0  0  0  3  0  0  0  0  0  0
  189.6270  177.1730  137.0420 C   0  0  0  0  0  0  0  0  0  0  0  0
  188.2980  177.3830  137.4230 C   0  0  0  0  0  3  0  0  0  0  0  0
  192.5790  177.0870  140.0650 O   0  0  0  0  0  0  0  0  0  0  0  0
  187.9750  177.5650  138.7690 C   0  0  0  0  0  3  0  0  0  0  0  0
  188.9780  177.5350  139.7510 C   0  0  0  0  0  0  0  0  0  0  0  0
  183.9810  178.6890  145.1830 C   0  0  0  0  0  3  0  0  0  0  0  0
  184.5950  178.4680  142.4230 C   0  0  0  0  0  3  0  0  0  0  0  0
  181.1680  179.0140  143.0250 C   0  0  0  0  0  0  0  0  0  0  0  0
  181.6400  179.0030  144.3420 C   0  0  0  0  0  3  0  0  0  0  0  0
  182.9980  178.7920  144.2050 C   0  0  0  0  0  0  0  0  0  0  0  0
  182.1790  178.8190  142.1380 N   0  0  0  0  0  0  0  0  0  0  0  0
  183.2930  178.6850  142.8730 C   0  0  0  0  0  0  0  0  0  0  0  0
  182.0970  178.7640  140.6850 C   0  0  0  0  0  1  0  0  0  0  0  0
  185.6220  178.3570  143.3840 C   0  0  0  0  0  0  0  0  0  0  0  0
  185.3040  178.4690  144.7610 C   0  0  0  0  0  3  0  0  0  0  0  0
  179.7500  179.2100  142.6670 C   0  0  0  0  0  0  0  0  0  0  0  0
  178.9390  178.2490  142.7020 O   0  0  0  0  0  0  0  0  0  0  0  0
  179.2870  180.4990  142.2760 N   0  0  0  0  0  1  0  0  0  0  0  0
  189.9670  176.9610  135.6080 C   0  0  0  0  0  2  0  0  0  0  0  0
  189.0950  175.8690  135.0200 C   0  0  0  0  0  2  0  0  0  0  0  0
  189.4410  174.6440  135.5860 O   0  0  0  0  0  1  0  0  0  0  0  0
  1  9  1  0  0  0  0
  2 18  1  0  0  0  0
  2  3  1  0  0  0  0
  3 10  1  0  0  0  0
  5  1  2  0  0  0  0
  5 11  1  0  0  0  0
  6  4  1  0  0  0  0
  6  8  1  0  0  0  0
  7  8  2  0  0  0  0
  9 27  1  0  0  0  0
  9  4  2  0  0  0  0
 10 11  1  0  0  0  0
 10 12  2  0  0  0  0
 11  6  2  0  0  0  0
 12  7  1  0  0  0  0
 13  2  2  0  0  0  0
 14 15  2  0  0  0  0
 14 13  1  0  0  0  0
 15 17  1  0  0  0  0
 16  3  2  0  0  0  0
 17 18  2  0  0  0  0
 18  5  1  0  0  0  0
 20 25  2  0  0  0  0
 20 27  1  0  0  0  0
 21 22  2  0  0  0  0
 23 22  1  0  0  0  0
 23 19  2  0  0  0  0
 24 25  1  0  0  0  0
 24 21  1  0  0  0  0
 25 23  1  0  0  0  0
 26 24  1  0  0  0  0
 27 28  2  0  0  0  0
 28 19  1  0  0  0  0
 29 30  2  0  0  0  0
 29 21  1  0  0  0  0
 31 29  1  0  0  0  0
 32 14  1  0  0  0  0
 33 34  1  0  0  0  0
 33 32  1  0  0  0  0
M  END
>  <MODEL>
9

>  <REMARK>
 VINA RESULT:      -9.7      2.831      8.578
  Name = 
  4 active torsions:
  status: ('A' for Active; 'I' for Inactive)
    1  A    between atoms: C_3  and  C_13
    2  A    between atoms: C_3  and  C_25
    3  A    between atoms: C_7  and  C_11
    4  A    between atoms: C_18  and  C_30
                            x       y       z     vdW  Elec       q    Type
                         _______ _______ _______ _____ _____    ______ ____

>  <TORSDO>
F 4

$$$$
