=
 OpenBabel11052414223D

 34 38  0  0  1  0  0  0  0  0999 V2000
  187.1740  177.0060  136.9490 C   0  0  2  0  0  3  0  0  0  0  0  0
  189.7590  177.5330  137.1490 C   0  0  0  0  0  2  0  0  0  0  0  0
  188.1370  177.8380  139.2370 C   0  0  0  0  0  0  0  0  0  0  0  0
  188.8010  177.9380  141.5780 C   0  0  0  0  0  0  0  0  0  0  0  0
  190.3970  176.8860  139.9630 C   0  0  0  0  0  2  0  0  0  0  0  0
  188.3690  177.5340  137.7690 C   0  0  0  0  0  0  0  0  0  0  0  0
  191.5120  177.3850  140.8850 C   0  0  0  0  0  2  0  0  0  0  0  0
  189.8020  177.7140  142.6350 C   0  0  0  0  0  3  0  0  0  0  0  0
  186.8690  178.3490  139.5900 C   0  0  0  0  0  0  0  0  0  0  0  0
  185.8120  177.3200  137.5960 C   0  0  0  0  0  2  0  0  0  0  0  0
  188.9120  178.7800  137.0880 C   0  0  0  0  0  2  0  0  0  0  0  0
  187.5570  178.4660  141.9100 C   0  0  0  0  0  3  0  0  0  0  0  0
  186.5740  178.6700  140.9340 C   0  0  0  0  0  0  0  0  0  0  0  0
  191.0640  177.4040  142.3220 C   0  0  0  0  0  0  0  0  0  0  0  0
  189.0990  177.6020  140.2440 C   0  0  0  0  0  0  0  0  0  0  0  0
  185.8590  178.5580  138.4940 C   0  0  0  0  0  2  0  0  0  0  0  0
  184.1350  178.5010  143.2960 N   0  0  0  0  0  0  0  0  0  0  0  0
  182.8810  178.4960  142.5420 C   0  0  0  0  0  2  0  0  0  0  0  0
  185.2910  179.1910  141.3250 N   0  0  0  0  0  0  0  0  0  0  0  0
  183.1350  178.0810  141.0930 C   0  0  0  0  0  2  0  0  0  0  0  0
  185.0170  179.5160  142.7240 C   0  0  0  0  0  2  0  0  0  0  0  0
  184.1260  179.0510  140.4580 C   0  0  0  0  0  2  0  0  0  0  0  0
  183.8130  178.9380  144.6420 C   0  0  0  0  0  1  0  0  0  0  0  0
  187.2670  175.5110  136.6290 C   0  0  1  0  0  3  0  0  0  0  0  0
  186.1670  174.8300  137.1510 O   0  0  0  0  0  1  0  0  0  0  0  0
  187.3840  175.2400  135.1370 C   0  0  0  0  0  1  0  0  0  0  0  0
  192.0450  177.1090  143.4050 C   0  0  0  0  0  2  0  0  0  0  0  0
  191.7590  177.1240  145.8050 N   0  0  0  0  0  0  0  0  0  0  0  0
  191.3420  176.7080  144.6600 C   0  0  0  0  0  3  0  0  0  0  0  0
  191.3750  175.2940  147.3640 C   0  0  0  0  0  1  0  0  0  0  0  0
  191.1160  176.7580  147.0510 C   0  0  1  0  0  0  0  0  0  0  0  0
  191.6560  177.5270  148.0830 O   0  0  0  0  0  1  0  0  0  0  0  0
  189.1200  177.9280  148.0770 C   0  0  0  0  0  1  0  0  0  0  0  0
  189.6040  176.9880  146.9830 C   0  0  0  0  0  2  0  0  0  0  0  0
  1 24  1  1  0  0  0
  1 10  1  0  0  0  0
  1  6  1  0  0  0  0
  2  6  1  0  0  0  0
  3  9  2  0  0  0  0
  3 15  1  0  0  0  0
  4 12  1  0  0  0  0
  4  8  1  0  0  0  0
  5 15  1  0  0  0  0
  5  7  1  0  0  0  0
  6  3  1  0  0  0  0
  7 14  1  0  0  0  0
  9 13  1  0  0  0  0
 10 16  1  0  0  0  0
 11  2  1  0  0  0  0
 11  6  1  0  0  0  0
 13 19  1  0  0  0  0
 13 12  2  0  0  0  0
 14  8  2  0  0  0  0
 14 27  1  0  0  0  0
 15  4  2  0  0  0  0
 16  9  1  0  0  0  0
 17 23  1  0  0  0  0
 18 17  1  0  0  0  0
 19 21  1  0  0  0  0
 20 18  1  0  0  0  0
 21 17  1  0  0  0  0
 22 20  1  0  0  0  0
 22 19  1  0  0  0  0
 24 26  1  6  0  0  0
 24 25  1  0  0  0  0
 27 29  1  0  0  0  0
 28 31  1  0  0  0  0
 29 28  2  0  0  0  0
 31 30  1  1  0  0  0
 31 32  1  0  0  0  0
 34 31  1  0  0  0  0
 34 33  1  0  0  0  0
M  END
>  <MODEL>
1

>  <REMARK>
 VINA RESULT:      -8.8      0.000      0.000
  Name = 
  6 active torsions:
  status: ('A' for Active; 'I' for Inactive)
    1  A    between atoms: C_1  and  C_6
    2  A    between atoms: C_3  and  C_29
    3  A    between atoms: C_3  and  C_33
    4  A    between atoms: N_12  and  C_28
    5  A    between atoms: N_13  and  C_20
    6  A    between atoms: C_20  and  C_22
                            x       y       z     vdW  Elec       q    Type
                         _______ _______ _______ _____ _____    ______ ____

>  <TORSDO>
F 6

$$$$
=
 OpenBabel11052414223D

 34 38  0  0  1  0  0  0  0  0999 V2000
  191.6100  176.8040  144.1410 C   0  0  2  0  0  3  0  0  0  0  0  0
  190.1810  178.3390  145.7540 C   0  0  0  0  0  2  0  0  0  0  0  0
  189.3560  177.8170  143.2790 C   0  0  0  0  0  0  0  0  0  0  0  0
  187.0800  178.0370  142.4390 C   0  0  0  0  0  0  0  0  0  0  0  0
  187.3900  177.8410  144.9140 C   0  0  0  0  0  2  0  0  0  0  0  0
  190.3960  177.7270  144.3770 C   0  0  0  0  0  0  0  0  0  0  0  0
  186.1290  178.6970  145.0450 C   0  0  0  0  0  2  0  0  0  0  0  0
  185.6340  178.1820  142.6820 C   0  0  0  0  0  3  0  0  0  0  0  0
  189.8230  177.7350  141.9490 C   0  0  0  0  0  0  0  0  0  0  0  0
  191.8470  176.4870  142.6530 C   0  0  0  0  0  2  0  0  0  0  0  0
  190.9050  179.1250  144.6890 C   0  0  0  0  0  2  0  0  0  0  0  0
  187.5550  177.9830  141.1310 C   0  0  0  0  0  3  0  0  0  0  0  0
  188.9200  177.8220  140.8640 C   0  0  0  0  0  0  0  0  0  0  0  0
  185.1740  178.4410  143.9090 C   0  0  0  0  0  0  0  0  0  0  0  0
  187.9700  177.9380  143.5250 C   0  0  0  0  0  0  0  0  0  0  0  0
  191.3030  177.5750  141.7250 C   0  0  0  0  0  2  0  0  0  0  0  0
  187.9020  177.9470  137.6230 N   0  0  0  0  0  0  0  0  0  0  0  0
  188.6210  176.8580  136.9610 C   0  0  0  0  0  2  0  0  0  0  0  0
  189.3650  177.7420  139.4980 N   0  0  0  0  0  0  0  0  0  0  0  0
  189.1130  175.8420  137.9940 C   0  0  0  0  0  2  0  0  0  0  0  0
  188.8380  178.6610  138.4910 C   0  0  0  0  0  2  0  0  0  0  0  0
  190.0280  176.5430  138.9920 C   0  0  0  0  0  2  0  0  0  0  0  0
  187.5040  178.8790  136.5840 C   0  0  0  0  0  1  0  0  0  0  0  0
  191.5540  175.5040  144.9480 C   0  0  1  0  0  3  0  0  0  0  0  0
  192.2590  174.4920  144.2970 O   0  0  0  0  0  1  0  0  0  0  0  0
  192.0810  175.6730  146.3650 C   0  0  0  0  0  1  0  0  0  0  0  0
  183.7040  178.5120  144.1500 C   0  0  0  0  0  2  0  0  0  0  0  0
  181.7110  178.9620  142.8610 N   0  0  0  0  0  0  0  0  0  0  0  0
  182.9650  178.6750  142.8620 C   0  0  0  0  0  3  0  0  0  0  0  0
  179.8800  178.0470  141.5420 C   0  0  0  0  0  1  0  0  0  0  0  0
  180.9470  179.1240  141.6390 C   0  0  1  0  0  0  0  0  0  0  0  0
  180.3130  180.3670  141.6620 O   0  0  0  0  0  1  0  0  0  0  0  0
  181.5270  177.8240  139.5460 C   0  0  0  0  0  1  0  0  0  0  0  0
  181.8500  179.0370  140.4060 C   0  0  0  0  0  2  0  0  0  0  0  0
  1  6  1  0  0  0  0
  1 24  1  1  0  0  0
  3 15  1  0  0  0  0
  3  6  1  0  0  0  0
  4  8  1  0  0  0  0
  4 15  2  0  0  0  0
  5  7  1  0  0  0  0
  6 11  1  0  0  0  0
  6  2  1  0  0  0  0
  8 14  2  0  0  0  0
  9  3  2  0  0  0  0
 10  1  1  0  0  0  0
 11  2  1  0  0  0  0
 12  4  1  0  0  0  0
 13 12  2  0  0  0  0
 13  9  1  0  0  0  0
 14 27  1  0  0  0  0
 14  7  1  0  0  0  0
 15  5  1  0  0  0  0
 16  9  1  0  0  0  0
 16 10  1  0  0  0  0
 17 21  1  0  0  0  0
 18 17  1  0  0  0  0
 18 20  1  0  0  0  0
 19 13  1  0  0  0  0
 20 22  1  0  0  0  0
 21 19  1  0  0  0  0
 22 19  1  0  0  0  0
 23 17  1  0  0  0  0
 24 26  1  1  0  0  0
 25 24  1  0  0  0  0
 28 29  2  0  0  0  0
 29 27  1  0  0  0  0
 31 30  1  6  0  0  0
 31 32  1  0  0  0  0
 31 28  1  0  0  0  0
 33 34  1  0  0  0  0
 34 31  1  0  0  0  0
M  END
>  <MODEL>
2

>  <REMARK>
 VINA RESULT:      -8.7      2.685      8.060
  Name = 
  6 active torsions:
  status: ('A' for Active; 'I' for Inactive)
    1  A    between atoms: C_1  and  C_6
    2  A    between atoms: C_3  and  C_29
    3  A    between atoms: C_3  and  C_33
    4  A    between atoms: N_12  and  C_28
    5  A    between atoms: N_13  and  C_20
    6  A    between atoms: C_20  and  C_22
                            x       y       z     vdW  Elec       q    Type
                         _______ _______ _______ _____ _____    ______ ____

>  <TORSDO>
F 6

$$$$
=
 OpenBabel11052414223D

 34 38  0  0  1  0  0  0  0  0999 V2000
  189.4490  177.4050  144.6870 C   0  0  2  0  0  3  0  0  0  0  0  0
  190.5990  175.5410  143.2020 C   0  0  0  0  0  2  0  0  0  0  0  0
  188.8720  177.2640  142.1380 C   0  0  0  0  0  0  0  0  0  0  0  0
  188.6460  177.8090  139.7750 C   0  0  0  0  0  0  0  0  0  0  0  0
  190.8040  176.7940  140.5310 C   0  0  0  0  0  2  0  0  0  0  0  0
  189.5940  176.6770  143.3350 C   0  0  0  0  0  0  0  0  0  0  0  0
  190.8960  176.1800  139.1330 C   0  0  0  0  0  2  0  0  0  0  0  0
  189.1780  177.7940  138.4010 C   0  0  0  0  0  3  0  0  0  0  0  0
  187.6230  177.8760  142.3830 C   0  0  0  0  0  0  0  0  0  0  0  0
  188.2200  178.3300  144.7470 C   0  0  0  0  0  2  0  0  0  0  0  0
  189.1560  175.2320  143.5140 C   0  0  0  0  0  2  0  0  0  0  0  0
  187.4030  178.3850  140.0240 C   0  0  0  0  0  3  0  0  0  0  0  0
  186.8780  178.4380  141.3210 C   0  0  0  0  0  0  0  0  0  0  0  0
  190.2620  177.0740  138.1010 C   0  0  0  0  0  0  0  0  0  0  0  0
  189.4000  177.2590  140.8280 C   0  0  0  0  0  0  0  0  0  0  0  0
  187.1050  177.8900  143.7960 C   0  0  0  0  0  2  0  0  0  0  0  0
  184.1540  178.5110  143.3520 N   0  0  0  0  0  0  0  0  0  0  0  0
  183.0100  178.5920  142.4440 C   0  0  0  0  0  2  0  0  0  0  0  0
  185.6030  179.0680  141.5390 N   0  0  0  0  0  0  0  0  0  0  0  0
  183.4110  178.1280  141.0430 C   0  0  0  0  0  2  0  0  0  0  0  0
  185.1810  179.4420  142.8880 C   0  0  0  0  0  2  0  0  0  0  0  0
  184.5500  179.0030  140.5310 C   0  0  0  0  0  2  0  0  0  0  0  0
  183.7000  179.0000  144.6420 C   0  0  0  0  0  1  0  0  0  0  0  0
  190.7050  178.1790  145.1000 C   0  0  1  0  0  3  0  0  0  0  0  0
  191.6590  177.3150  145.6380 O   0  0  0  0  0  1  0  0  0  0  0  0
  191.3110  178.9650  143.9460 C   0  0  0  0  0  1  0  0  0  0  0  0
  190.8300  177.1280  136.7220 C   0  0  0  0  0  2  0  0  0  0  0  0
  193.1170  176.3520  136.6440 N   0  0  0  0  0  0  0  0  0  0  0  0
  191.8660  176.0680  136.5360 C   0  0  0  0  0  3  0  0  0  0  0  0
  193.9930  174.6590  135.1300 C   0  0  0  0  0  1  0  0  0  0  0  0
  194.1610  175.3620  136.4660 C   0  0  1  0  0  0  0  0  0  0  0  0
  195.4000  176.0050  136.4680 O   0  0  0  0  0  1  0  0  0  0  0  0
  195.3010  174.4680  138.5410 C   0  0  0  0  0  1  0  0  0  0  0  0
  194.1300  174.3160  137.5830 C   0  0  0  0  0  2  0  0  0  0  0  0
  1 10  1  0  0  0  0
  1 24  1  6  0  0  0
  2  6  1  0  0  0  0
  2 11  1  0  0  0  0
  3  9  1  0  0  0  0
  3  6  1  0  0  0  0
  4 12  2  0  0  0  0
  4 15  1  0  0  0  0
  5 15  1  0  0  0  0
  6 11  1  0  0  0  0
  6  1  1  0  0  0  0
  7  5  1  0  0  0  0
  8  4  1  0  0  0  0
  9 16  1  0  0  0  0
 12 13  1  0  0  0  0
 13 19  1  0  0  0  0
 13  9  2  0  0  0  0
 14  8  2  0  0  0  0
 14  7  1  0  0  0  0
 15  3  2  0  0  0  0
 16 10  1  0  0  0  0
 17 23  1  0  0  0  0
 18 17  1  0  0  0  0
 19 21  1  0  0  0  0
 20 18  1  0  0  0  0
 21 17  1  0  0  0  0
 22 20  1  0  0  0  0
 22 19  1  0  0  0  0
 24 26  1  6  0  0  0
 24 25  1  0  0  0  0
 27 14  1  0  0  0  0
 29 28  2  0  0  0  0
 29 27  1  0  0  0  0
 31 30  1  6  0  0  0
 31 32  1  0  0  0  0
 31 28  1  0  0  0  0
 31 34  1  0  0  0  0
 34 33  1  0  0  0  0
M  END
>  <MODEL>
3

>  <REMARK>
 VINA RESULT:      -7.3      3.167      6.738
  Name = 
  6 active torsions:
  status: ('A' for Active; 'I' for Inactive)
    1  A    between atoms: C_1  and  C_6
    2  A    between atoms: C_3  and  C_29
    3  A    between atoms: C_3  and  C_33
    4  A    between atoms: N_12  and  C_28
    5  A    between atoms: N_13  and  C_20
    6  A    between atoms: C_20  and  C_22
                            x       y       z     vdW  Elec       q    Type
                         _______ _______ _______ _____ _____    ______ ____

>  <TORSDO>
F 6

$$$$
=
 OpenBabel11052414223D

 34 38  0  0  1  0  0  0  0  0999 V2000
  188.0580  176.9760  137.6980 C   0  0  2  0  0  3  0  0  0  0  0  0
  189.4180  177.9020  139.7710 C   0  0  0  0  0  2  0  0  0  0  0  0
  186.7650  178.0900  139.6830 C   0  0  0  0  0  0  0  0  0  0  0  0
  185.2780  178.4400  141.5800 C   0  0  0  0  0  0  0  0  0  0  0  0
  187.5660  177.5420  142.0480 C   0  0  0  0  0  2  0  0  0  0  0  0
  188.0920  177.7310  139.0430 C   0  0  0  0  0  0  0  0  0  0  0  0
  187.4710  178.2630  143.3950 C   0  0  0  0  0  2  0  0  0  0  0  0
  185.0360  178.4400  143.0330 C   0  0  0  0  0  3  0  0  0  0  0  0
  185.7060  178.4230  138.8100 C   0  0  0  0  0  0  0  0  0  0  0  0
  186.7160  177.1200  136.9580 C   0  0  0  0  0  2  0  0  0  0  0  0
  188.9120  178.9990  138.8670 C   0  0  0  0  0  2  0  0  0  0  0  0
  184.2490  178.7940  140.7120 C   0  0  0  0  0  3  0  0  0  0  0  0
  184.4390  178.7820  139.3250 C   0  0  0  0  0  0  0  0  0  0  0  0
  186.0510  178.3060  143.8920 C   0  0  0  0  0  0  0  0  0  0  0  0
  186.5390  178.0690  141.0770 C   0  0  0  0  0  0  0  0  0  0  0  0
  185.9740  178.4060  137.3300 C   0  0  0  0  0  2  0  0  0  0  0  0
  181.3000  180.0870  139.2470 N   0  0  0  0  0  0  0  0  0  0  0  0
  180.5570  179.2230  138.3290 C   0  0  0  0  0  2  0  0  0  0  0  0
  183.3400  179.1270  138.4610 N   0  0  0  0  0  0  0  0  0  0  0  0
  181.2680  177.8780  138.1730 C   0  0  0  0  0  2  0  0  0  0  0  0
  182.6060  180.3760  138.6570 C   0  0  0  0  0  2  0  0  0  0  0  0
  182.6790  178.1130  137.6440 C   0  0  0  0  0  2  0  0  0  0  0  0
  180.5830  181.3470  139.3100 C   0  0  0  0  0  1  0  0  0  0  0  0
  188.4290  175.4950  137.8220 C   0  0  1  0  0  3  0  0  0  0  0  0
  187.5230  174.7030  137.1160 O   0  0  0  0  0  1  0  0  0  0  0  0
  189.8460  175.2070  137.3500 C   0  0  0  0  0  1  0  0  0  0  0  0
  185.7790  178.2340  145.3560 C   0  0  0  0  0  2  0  0  0  0  0  0
  187.6290  177.1850  146.5040 N   0  0  0  0  0  0  0  0  0  0  0  0
  187.0540  178.2750  146.1330 C   0  0  0  0  0  3  0  0  0  0  0  0
  188.8680  178.3070  148.2730 C   0  0  0  0  0  1  0  0  0  0  0  0
  188.8630  177.1710  147.2640 C   0  0  1  0  0  0  0  0  0  0  0  0
  188.9510  175.9660  147.9630 O   0  0  0  0  0  1  0  0  0  0  0  0
  191.3280  176.6940  146.9530 C   0  0  0  0  0  1  0  0  0  0  0  0
  190.0800  177.3180  146.3480 C   0  0  0  0  0  2  0  0  0  0  0  0
  1 24  1  1  0  0  0
  1  6  1  0  0  0  0
  3 15  1  0  0  0  0
  4  8  1  0  0  0  0
  5  7  1  0  0  0  0
  6  3  1  0  0  0  0
  6  2  1  0  0  0  0
  7 14  1  0  0  0  0
  8 14  2  0  0  0  0
  9 13  1  0  0  0  0
  9  3  2  0  0  0  0
 10 16  1  0  0  0  0
 10  1  1  0  0  0  0
 11  6  1  0  0  0  0
 11  2  1  0  0  0  0
 12  4  1  0  0  0  0
 13 12  2  0  0  0  0
 14 27  1  0  0  0  0
 15  4  2  0  0  0  0
 15  5  1  0  0  0  0
 16  9  1  0  0  0  0
 17 23  1  0  0  0  0
 18 17  1  0  0  0  0
 19 21  1  0  0  0  0
 19 13  1  0  0  0  0
 20 18  1  0  0  0  0
 21 17  1  0  0  0  0
 22 20  1  0  0  0  0
 22 19  1  0  0  0  0
 24 26  1  6  0  0  0
 25 24  1  0  0  0  0
 27 29  1  0  0  0  0
 28 31  1  0  0  0  0
 29 28  2  0  0  0  0
 31 32  1  0  0  0  0
 31 30  1  1  0  0  0
 34 33  1  0  0  0  0
 34 31  1  0  0  0  0
M  END
>  <MODEL>
4

>  <REMARK>
 VINA RESULT:      -7.3      2.215      3.603
  Name = 
  6 active torsions:
  status: ('A' for Active; 'I' for Inactive)
    1  A    between atoms: C_1  and  C_6
    2  A    between atoms: C_3  and  C_29
    3  A    between atoms: C_3  and  C_33
    4  A    between atoms: N_12  and  C_28
    5  A    between atoms: N_13  and  C_20
    6  A    between atoms: C_20  and  C_22
                            x       y       z     vdW  Elec       q    Type
                         _______ _______ _______ _____ _____    ______ ____

>  <TORSDO>
F 6

$$$$
=
 OpenBabel11052414223D

 34 38  0  0  1  0  0  0  0  0999 V2000
  189.8810  177.0990  144.8680 C   0  0  2  0  0  3  0  0  0  0  0  0
  191.0400  176.0800  142.7190 C   0  0  0  0  0  2  0  0  0  0  0  0
  188.6750  177.2880  142.5530 C   0  0  0  0  0  0  0  0  0  0  0  0
  187.6530  178.1900  140.5340 C   0  0  0  0  0  0  0  0  0  0  0  0
  190.1300  177.8410  140.5240 C   0  0  0  0  0  2  0  0  0  0  0  0
  189.8380  176.7530  143.3650 C   0  0  0  0  0  0  0  0  0  0  0  0
  189.9940  177.5910  139.0210 C   0  0  0  0  0  2  0  0  0  0  0  0
  187.7600  178.6350  139.1340 C   0  0  0  0  0  3  0  0  0  0  0  0
  187.4260  177.3750  143.2060 C   0  0  0  0  0  0  0  0  0  0  0  0
  188.5110  177.5170  145.4320 C   0  0  0  0  0  2  0  0  0  0  0  0
  189.8880  175.2410  143.2150 C   0  0  0  0  0  2  0  0  0  0  0  0
  186.4210  178.2450  141.1800 C   0  0  0  0  0  3  0  0  0  0  0  0
  186.2880  177.8520  142.5170 C   0  0  0  0  0  0  0  0  0  0  0  0
  188.8730  178.4040  138.4310 C   0  0  0  0  0  0  0  0  0  0  0  0
  188.7950  177.7290  141.2160 C   0  0  0  0  0  0  0  0  0  0  0  0
  187.3430  176.9250  144.6400 C   0  0  0  0  0  2  0  0  0  0  0  0
  183.1470  179.1140  142.2030 N   0  0  0  0  0  0  0  0  0  0  0  0
  182.8250  179.6530  143.5240 C   0  0  0  0  0  2  0  0  0  0  0  0
  185.0020  177.9520  143.1550 N   0  0  0  0  0  0  0  0  0  0  0  0
  184.1040  179.8900  144.3280 C   0  0  0  0  0  2  0  0  0  0  0  0
  183.7730  177.8050  142.3760 C   0  0  0  0  0  2  0  0  0  0  0  0
  184.8600  178.5730  144.4690 C   0  0  0  0  0  2  0  0  0  0  0  0
  181.8840  178.8870  141.5240 C   0  0  0  0  0  1  0  0  0  0  0  0
  190.9340  178.1540  145.2210 C   0  0  1  0  0  3  0  0  0  0  0  0
  192.0470  177.5570  145.8120 O   0  0  0  0  0  1  0  0  0  0  0  0
  191.3660  178.9730  144.0130 C   0  0  0  0  0  1  0  0  0  0  0  0
  188.9930  178.9260  137.0390 C   0  0  0  0  0  2  0  0  0  0  0  0
  187.5040  177.1180  136.4440 N   0  0  0  0  0  0  0  0  0  0  0  0
  187.9970  178.2680  136.1410 C   0  0  0  0  0  3  0  0  0  0  0  0
  185.9480  177.4030  134.5940 C   0  0  0  0  0  1  0  0  0  0  0  0
  186.5400  176.4350  135.6040 C   0  0  1  0  0  0  0  0  0  0  0  0
  187.1900  175.4170  134.9040 O   0  0  0  0  0  1  0  0  0  0  0  0
  184.9240  176.7900  137.5180 C   0  0  0  0  0  1  0  0  0  0  0  0
  185.4060  175.8340  136.4370 C   0  0  0  0  0  2  0  0  0  0  0  0
  1 24  1  6  0  0  0
  1 10  1  0  0  0  0
  2 11  1  0  0  0  0
  2  6  1  0  0  0  0
  3  9  1  0  0  0  0
  3  6  1  0  0  0  0
  4 12  2  0  0  0  0
  4 15  1  0  0  0  0
  5 15  1  0  0  0  0
  6  1  1  0  0  0  0
  7  5  1  0  0  0  0
  8  4  1  0  0  0  0
  9 16  1  0  0  0  0
 11  6  1  0  0  0  0
 12 13  1  0  0  0  0
 13 19  1  0  0  0  0
 13  9  2  0  0  0  0
 14  7  1  0  0  0  0
 14  8  2  0  0  0  0
 15  3  2  0  0  0  0
 16 10  1  0  0  0  0
 17 21  1  0  0  0  0
 17 18  1  0  0  0  0
 18 20  1  0  0  0  0
 19 22  1  0  0  0  0
 20 22  1  0  0  0  0
 21 19  1  0  0  0  0
 23 17  1  0  0  0  0
 24 26  1  6  0  0  0
 24 25  1  0  0  0  0
 27 14  1  0  0  0  0
 29 28  2  0  0  0  0
 29 27  1  0  0  0  0
 31 30  1  6  0  0  0
 31 34  1  0  0  0  0
 31 28  1  0  0  0  0
 32 31  1  0  0  0  0
 34 33  1  0  0  0  0
M  END
>  <MODEL>
5

>  <REMARK>
 VINA RESULT:      -7.3      2.076      7.303
  Name = 
  6 active torsions:
  status: ('A' for Active; 'I' for Inactive)
    1  A    between atoms: C_1  and  C_6
    2  A    between atoms: C_3  and  C_29
    3  A    between atoms: C_3  and  C_33
    4  A    between atoms: N_12  and  C_28
    5  A    between atoms: N_13  and  C_20
    6  A    between atoms: C_20  and  C_22
                            x       y       z     vdW  Elec       q    Type
                         _______ _______ _______ _____ _____    ______ ____

>  <TORSDO>
F 6

$$$$
=
 OpenBabel11052414223D

 34 38  0  0  1  0  0  0  0  0999 V2000
  189.0350  175.2250  136.6260 C   0  0  2  0  0  3  0  0  0  0  0  0
  191.2850  176.1950  137.6260 C   0  0  0  0  0  2  0  0  0  0  0  0
  188.9240  176.9210  138.6170 C   0  0  0  0  0  0  0  0  0  0  0  0
  188.5190  177.9070  140.8070 C   0  0  0  0  0  0  0  0  0  0  0  0
  190.6530  176.6430  140.4800 C   0  0  0  0  0  2  0  0  0  0  0  0
  189.7630  176.1820  137.5930 C   0  0  0  0  0  0  0  0  0  0  0  0
  191.2640  177.5940  141.5110 C   0  0  0  0  0  2  0  0  0  0  0  0
  188.9690  178.2150  142.1760 C   0  0  0  0  0  3  0  0  0  0  0  0
  187.6260  177.3100  138.2180 C   0  0  0  0  0  0  0  0  0  0  0  0
  187.5280  175.5160  136.5090 C   0  0  0  0  0  2  0  0  0  0  0  0
  190.5450  177.1960  136.7740 C   0  0  0  0  0  2  0  0  0  0  0  0
  187.2520  178.3100  140.3940 C   0  0  0  0  0  3  0  0  0  0  0  0
  186.7830  178.0130  139.1090 C   0  0  0  0  0  0  0  0  0  0  0  0
  190.2430  178.0240  142.5310 C   0  0  0  0  0  0  0  0  0  0  0  0
  189.3600  177.1940  139.9330 C   0  0  0  0  0  0  0  0  0  0  0  0
  187.1840  176.9740  136.8200 C   0  0  0  0  0  2  0  0  0  0  0  0
  183.5410  178.1290  140.1260 N   0  0  0  0  0  0  0  0  0  0  0  0
  182.7640  177.7330  138.9510 C   0  0  0  0  0  2  0  0  0  0  0  0
  185.4560  178.4230  138.7310 N   0  0  0  0  0  0  0  0  0  0  0  0
  183.6510  176.9820  137.9570 C   0  0  0  0  0  2  0  0  0  0  0  0
  184.5760  179.0710  139.7020 C   0  0  0  0  0  2  0  0  0  0  0  0
  184.8110  177.8800  137.5400 C   0  0  0  0  0  2  0  0  0  0  0  0
  182.6400  178.8610  140.9960 C   0  0  0  0  0  1  0  0  0  0  0  0
  189.2560  173.7450  136.9520 C   0  0  1  0  0  3  0  0  0  0  0  0
  188.0350  173.0870  137.0960 O   0  0  0  0  0  1  0  0  0  0  0  0
  190.1060  173.0380  135.9060 C   0  0  0  0  0  1  0  0  0  0  0  0
  190.6650  178.2720  143.9400 C   0  0  0  0  0  2  0  0  0  0  0  0
  189.1130  178.3210  145.7910 N   0  0  0  0  0  0  0  0  0  0  0  0
  189.7190  177.6220  144.8960 C   0  0  0  0  0  3  0  0  0  0  0  0
  188.8520  176.5750  147.4670 C   0  0  0  0  0  1  0  0  0  0  0  0
  188.1910  177.7380  146.7460 C   0  0  1  0  0  0  0  0  0  0  0  0
  187.8510  178.7030  147.6950 O   0  0  0  0  0  1  0  0  0  0  0  0
  186.2910  178.3010  145.1730 C   0  0  0  0  0  1  0  0  0  0  0  0
  186.9220  177.2340  146.0550 C   0  0  0  0  0  2  0  0  0  0  0  0
  1 24  1  1  0  0  0
  1  6  1  0  0  0  0
  3 15  1  0  0  0  0
  4  8  1  0  0  0  0
  5  7  1  0  0  0  0
  6  2  1  0  0  0  0
  6  3  1  0  0  0  0
  7 14  1  0  0  0  0
  8 14  2  0  0  0  0
  9  3  2  0  0  0  0
  9 13  1  0  0  0  0
 10  1  1  0  0  0  0
 10 16  1  0  0  0  0
 11  6  1  0  0  0  0
 11  2  1  0  0  0  0
 12  4  1  0  0  0  0
 13 12  2  0  0  0  0
 14 27  1  0  0  0  0
 15  5  1  0  0  0  0
 15  4  2  0  0  0  0
 16  9  1  0  0  0  0
 17 23  1  0  0  0  0
 18 17  1  0  0  0  0
 19 13  1  0  0  0  0
 19 21  1  0  0  0  0
 20 18  1  0  0  0  0
 21 17  1  0  0  0  0
 22 20  1  0  0  0  0
 22 19  1  0  0  0  0
 24 26  1  6  0  0  0
 24 25  1  0  0  0  0
 27 29  1  0  0  0  0
 28 31  1  0  0  0  0
 29 28  2  0  0  0  0
 31 30  1  1  0  0  0
 31 32  1  0  0  0  0
 33 34  1  0  0  0  0
 34 31  1  0  0  0  0
M  END
>  <MODEL>
6

>  <REMARK>
 VINA RESULT:      -7.2      1.863      2.590
  Name = 
  6 active torsions:
  status: ('A' for Active; 'I' for Inactive)
    1  A    between atoms: C_1  and  C_6
    2  A    between atoms: C_3  and  C_29
    3  A    between atoms: C_3  and  C_33
    4  A    between atoms: N_12  and  C_28
    5  A    between atoms: N_13  and  C_20
    6  A    between atoms: C_20  and  C_22
                            x       y       z     vdW  Elec       q    Type
                         _______ _______ _______ _____ _____    ______ ____

>  <TORSDO>
F 6

$$$$
=
 OpenBabel11052414223D

 34 38  0  0  1  0  0  0  0  0999 V2000
  186.7410  178.1170  137.9420 C   0  0  2  0  0  3  0  0  0  0  0  0
  188.4700  178.5710  135.9910 C   0  0  0  0  0  2  0  0  0  0  0  0
  189.2470  177.4380  138.2700 C   0  0  0  0  0  0  0  0  0  0  0  0
  191.2720  176.1290  138.6140 C   0  0  0  0  0  0  0  0  0  0  0  0
  190.4380  176.3820  136.2690 C   0  0  0  0  0  2  0  0  0  0  0  0
  188.1900  178.1070  137.4140 C   0  0  0  0  0  0  0  0  0  0  0  0
  191.9030  176.2820  135.8370 C   0  0  0  0  0  2  0  0  0  0  0  0
  192.4120  175.3680  138.0730 C   0  0  0  0  0  3  0  0  0  0  0  0
  189.0980  177.5470  139.6700 C   0  0  0  0  0  0  0  0  0  0  0  0
  186.6500  177.8870  139.4620 C   0  0  0  0  0  2  0  0  0  0  0  0
  188.6150  179.5410  137.1380 C   0  0  0  0  0  2  0  0  0  0  0  0
  191.1300  176.2660  139.9920 C   0  0  0  0  0  3  0  0  0  0  0  0
  190.0460  176.9620  140.5400 C   0  0  0  0  0  0  0  0  0  0  0  0
  192.6860  175.3930  136.7660 C   0  0  0  0  0  0  0  0  0  0  0  0
  190.3260  176.6960  137.7400 C   0  0  0  0  0  0  0  0  0  0  0  0
  187.9190  178.3190  140.1990 C   0  0  0  0  0  2  0  0  0  0  0  0
  191.4140  178.3180  143.3420 N   0  0  0  0  0  0  0  0  0  0  0  0
  191.3980  177.2380  144.3280 C   0  0  0  0  0  2  0  0  0  0  0  0
  189.9210  177.0570  141.9710 N   0  0  0  0  0  0  0  0  0  0  0  0
  191.2640  175.8830  143.6300 C   0  0  0  0  0  2  0  0  0  0  0  0
  190.1250  178.3340  142.6510 C   0  0  0  0  0  2  0  0  0  0  0  0
  189.9780  175.8640  142.8110 C   0  0  0  0  0  2  0  0  0  0  0  0
  191.5060  179.5620  144.0840 C   0  0  0  0  0  1  0  0  0  0  0  0
  185.8180  177.1370  137.2100 C   0  0  1  0  0  3  0  0  0  0  0  0
  186.3550  175.8500  137.2340 O   0  0  0  0  0  1  0  0  0  0  0  0
  184.4100  177.1220  137.7850 C   0  0  0  0  0  1  0  0  0  0  0  0
  193.7990  174.5590  136.2260 C   0  0  0  0  0  2  0  0  0  0  0  0
  196.0760  174.6680  137.0250 N   0  0  0  0  0  0  0  0  0  0  0  0
  194.8530  174.3490  137.2630 C   0  0  0  0  0  3  0  0  0  0  0  0
  197.9260  173.2220  137.6680 C   0  0  0  0  0  1  0  0  0  0  0  0
  197.1370  174.4780  137.9950 C   0  0  1  0  0  0  0  0  0  0  0  0
  198.0060  175.5680  137.9350 O   0  0  0  0  0  1  0  0  0  0  0  0
  197.2880  175.2730  140.3930 C   0  0  0  0  0  1  0  0  0  0  0  0
  196.5750  174.3530  139.4130 C   0  0  0  0  0  2  0  0  0  0  0  0
  1 24  1  6  0  0  0
  1 10  1  0  0  0  0
  2 11  1  0  0  0  0
  2  6  1  0  0  0  0
  3  9  1  0  0  0  0
  4 12  2  0  0  0  0
  5 15  1  0  0  0  0
  6  1  1  0  0  0  0
  6  3  1  0  0  0  0
  7  5  1  0  0  0  0
  7 14  1  0  0  0  0
  8  4  1  0  0  0  0
  9 16  1  0  0  0  0
  9 13  2  0  0  0  0
 10 16  1  0  0  0  0
 11  6  1  0  0  0  0
 12 13  1  0  0  0  0
 13 19  1  0  0  0  0
 14  8  2  0  0  0  0
 15  3  2  0  0  0  0
 15  4  1  0  0  0  0
 17 23  1  0  0  0  0
 17 18  1  0  0  0  0
 19 21  1  0  0  0  0
 19 22  1  0  0  0  0
 20 18  1  0  0  0  0
 21 17  1  0  0  0  0
 22 20  1  0  0  0  0
 24 25  1  0  0  0  0
 24 26  1  1  0  0  0
 27 14  1  0  0  0  0
 27 29  1  0  0  0  0
 28 29  2  0  0  0  0
 28 31  1  0  0  0  0
 31 30  1  6  0  0  0
 31 34  1  0  0  0  0
 32 31  1  0  0  0  0
 34 33  1  0  0  0  0
M  END
>  <MODEL>
7

>  <REMARK>
 VINA RESULT:      -7.1      4.141      6.624
  Name = 
  6 active torsions:
  status: ('A' for Active; 'I' for Inactive)
    1  A    between atoms: C_1  and  C_6
    2  A    between atoms: C_3  and  C_29
    3  A    between atoms: C_3  and  C_33
    4  A    between atoms: N_12  and  C_28
    5  A    between atoms: N_13  and  C_20
    6  A    between atoms: C_20  and  C_22
                            x       y       z     vdW  Elec       q    Type
                         _______ _______ _______ _____ _____    ______ ____

>  <TORSDO>
F 6

$$$$
=
 OpenBabel11052414223D

 34 38  0  0  1  0  0  0  0  0999 V2000
  190.6160  176.8960  142.8480 C   0  0  2  0  0  3  0  0  0  0  0  0
  189.6310  178.4960  144.7110 C   0  0  0  0  0  2  0  0  0  0  0  0
  188.3010  178.0500  142.4490 C   0  0  0  0  0  0  0  0  0  0  0  0
  185.9220  178.4140  142.0780 C   0  0  0  0  0  0  0  0  0  0  0  0
  186.7040  178.1730  144.4420 C   0  0  0  0  0  2  0  0  0  0  0  0
  189.5320  177.8860  143.3200 C   0  0  0  0  0  0  0  0  0  0  0  0
  185.5480  179.1020  144.8200 C   0  0  0  0  0  2  0  0  0  0  0  0
  184.5640  178.6420  142.6030 C   0  0  0  0  0  3  0  0  0  0  0  0
  188.4890  177.9540  141.0530 C   0  0  0  0  0  0  0  0  0  0  0  0
  190.5340  176.5810  141.3430 C   0  0  0  0  0  2  0  0  0  0  0  0
  190.1750  179.2490  143.5220 C   0  0  0  0  0  2  0  0  0  0  0  0
  186.1230  178.3450  140.7020 C   0  0  0  0  0  3  0  0  0  0  0  0
  187.3960  178.1060  140.1700 C   0  0  0  0  0  0  0  0  0  0  0  0
  184.3730  178.9150  143.8970 C   0  0  0  0  0  0  0  0  0  0  0  0
  187.0010  178.2500  142.9650 C   0  0  0  0  0  0  0  0  0  0  0  0
  189.8830  177.7090  140.5410 C   0  0  0  0  0  2  0  0  0  0  0  0
  188.7650  176.2600  137.6650 N   0  0  0  0  0  0  0  0  0  0  0  0
  189.3430  177.2420  136.7470 C   0  0  0  0  0  2  0  0  0  0  0  0
  187.5560  178.0140  138.7430 N   0  0  0  0  0  0  0  0  0  0  0  0
  189.5500  178.5780  137.4620 C   0  0  0  0  0  2  0  0  0  0  0  0
  187.4370  176.7240  138.0650 C   0  0  0  0  0  2  0  0  0  0  0  0
  188.2100  179.0790  137.9880 C   0  0  0  0  0  2  0  0  0  0  0  0
  188.5680  175.0400  136.9040 C   0  0  0  0  0  1  0  0  0  0  0  0
  190.6420  175.5930  143.6530 C   0  0  1  0  0  3  0  0  0  0  0  0
  190.1740  174.5300  142.8800 O   0  0  0  0  0  1  0  0  0  0  0  0
  192.0270  175.2680  144.1930 C   0  0  0  0  0  1  0  0  0  0  0  0
  182.9870  179.0700  144.4250 C   0  0  0  0  0  2  0  0  0  0  0  0
  181.1740  179.1440  142.8290 N   0  0  0  0  0  0  0  0  0  0  0  0
  181.9980  178.4270  143.5090 C   0  0  0  0  0  3  0  0  0  0  0  0
  180.7890  178.3870  140.5480 C   0  0  0  0  0  1  0  0  0  0  0  0
  180.1910  178.5680  141.9320 C   0  0  1  0  0  0  0  0  0  0  0  0
  179.8190  177.3120  142.4140 O   0  0  0  0  0  1  0  0  0  0  0  0
  179.2850  180.9280  142.0310 C   0  0  0  0  0  1  0  0  0  0  0  0
  178.9520  179.4590  141.8230 C   0  0  0  0  0  2  0  0  0  0  0  0
  1  6  1  0  0  0  0
  1 24  1  1  0  0  0
  3 15  1  0  0  0  0
  3  6  1  0  0  0  0
  4  8  1  0  0  0  0
  4 15  2  0  0  0  0
  5  7  1  0  0  0  0
  6 11  1  0  0  0  0
  6  2  1  0  0  0  0
  8 14  2  0  0  0  0
  9  3  2  0  0  0  0
 10  1  1  0  0  0  0
 11  2  1  0  0  0  0
 12  4  1  0  0  0  0
 13 12  2  0  0  0  0
 13  9  1  0  0  0  0
 14 27  1  0  0  0  0
 14  7  1  0  0  0  0
 15  5  1  0  0  0  0
 16  9  1  0  0  0  0
 16 10  1  0  0  0  0
 17 21  1  0  0  0  0
 18 20  1  0  0  0  0
 18 17  1  0  0  0  0
 19 13  1  0  0  0  0
 20 22  1  0  0  0  0
 21 19  1  0  0  0  0
 22 19  1  0  0  0  0
 23 17  1  0  0  0  0
 24 26  1  6  0  0  0
 25 24  1  0  0  0  0
 28 29  2  0  0  0  0
 29 27  1  0  0  0  0
 31 30  1  6  0  0  0
 31 32  1  0  0  0  0
 31 28  1  0  0  0  0
 34 31  1  0  0  0  0
 34 33  1  0  0  0  0
M  END
>  <MODEL>
8

>  <REMARK>
 VINA RESULT:      -7.1      2.788      7.859
  Name = 
  6 active torsions:
  status: ('A' for Active; 'I' for Inactive)
    1  A    between atoms: C_1  and  C_6
    2  A    between atoms: C_3  and  C_29
    3  A    between atoms: C_3  and  C_33
    4  A    between atoms: N_12  and  C_28
    5  A    between atoms: N_13  and  C_20
    6  A    between atoms: C_20  and  C_22
                            x       y       z     vdW  Elec       q    Type
                         _______ _______ _______ _____ _____    ______ ____

>  <TORSDO>
F 6

$$$$
=
 OpenBabel11052414223D

 34 38  0  0  1  0  0  0  0  0999 V2000
  186.9460  175.4000  135.2850 C   0  0  2  0  0  3  0  0  0  0  0  0
  189.5180  176.0180  135.2230 C   0  0  0  0  0  2  0  0  0  0  0  0
  187.9810  176.7700  137.2610 C   0  0  0  0  0  0  0  0  0  0  0  0
  188.7450  177.4350  139.4760 C   0  0  0  0  0  0  0  0  0  0  0  0
  190.3020  176.0690  138.0730 C   0  0  0  0  0  2  0  0  0  0  0  0
  188.1580  176.1330  135.8970 C   0  0  0  0  0  0  0  0  0  0  0  0
  191.4390  176.7970  138.7940 C   0  0  0  0  0  2  0  0  0  0  0  0
  189.7990  177.4900  140.5040 C   0  0  0  0  0  3  0  0  0  0  0  0
  186.7130  177.3200  137.5490 C   0  0  0  0  0  0  0  0  0  0  0  0
  185.6050  175.8260  135.9090 C   0  0  0  0  0  2  0  0  0  0  0  0
  188.6260  177.1960  134.9150 C   0  0  0  0  0  2  0  0  0  0  0  0
  187.4990  177.9980  139.7390 C   0  0  0  0  0  3  0  0  0  0  0  0
  186.4670  177.9430  138.7950 C   0  0  0  0  0  0  0  0  0  0  0  0
  191.0550  177.1440  140.2080 C   0  0  0  0  0  0  0  0  0  0  0  0
  188.9940  176.8010  138.2450 C   0  0  0  0  0  0  0  0  0  0  0  0
  185.6480  177.2410  136.4890 C   0  0  0  0  0  2  0  0  0  0  0  0
  184.0410  178.0960  141.1700 N   0  0  0  0  0  0  0  0  0  0  0  0
  182.7830  177.9880  140.4310 C   0  0  0  0  0  2  0  0  0  0  0  0
  185.1860  178.5120  139.1180 N   0  0  0  0  0  0  0  0  0  0  0  0
  183.0300  177.3790  139.0500 C   0  0  0  0  0  2  0  0  0  0  0  0
  184.9190  179.0240  140.4610 C   0  0  0  0  0  2  0  0  0  0  0  0
  184.0160  178.2540  138.2830 C   0  0  0  0  0  2  0  0  0  0  0  0
  183.7250  178.7120  142.4460 C   0  0  0  0  0  1  0  0  0  0  0  0
  187.0760  173.8740  135.3210 C   0  0  1  0  0  3  0  0  0  0  0  0
  187.5590  173.4530  136.5600 O   0  0  0  0  0  1  0  0  0  0  0  0
  185.7640  173.1690  135.0100 C   0  0  0  0  0  1  0  0  0  0  0  0
  192.0940  177.1360  141.2780 C   0  0  0  0  0  2  0  0  0  0  0  0
  191.3780  176.8360  143.5670 N   0  0  0  0  0  0  0  0  0  0  0  0
  191.5270  177.6330  142.5670 C   0  0  0  0  0  3  0  0  0  0  0  0
  191.6810  176.7480  145.9810 C   0  0  0  0  0  1  0  0  0  0  0  0
  190.8270  177.2670  144.8360 C   0  0  1  0  0  0  0  0  0  0  0  0
  190.8350  178.6620  144.8830 O   0  0  0  0  0  1  0  0  0  0  0  0
  188.3710  177.7150  144.4230 C   0  0  0  0  0  1  0  0  0  0  0  0
  189.3940  176.7610  145.0190 C   0  0  0  0  0  2  0  0  0  0  0  0
  1 24  1  1  0  0  0
  1  6  1  0  0  0  0
  1 10  1  0  0  0  0
  2  6  1  0  0  0  0
  3  9  2  0  0  0  0
  3 15  1  0  0  0  0
  4 12  1  0  0  0  0
  4  8  1  0  0  0  0
  5 15  1  0  0  0  0
  5  7  1  0  0  0  0
  6  3  1  0  0  0  0
  7 14  1  0  0  0  0
  9 13  1  0  0  0  0
 10 16  1  0  0  0  0
 11  2  1  0  0  0  0
 11  6  1  0  0  0  0
 13 19  1  0  0  0  0
 13 12  2  0  0  0  0
 14  8  2  0  0  0  0
 14 27  1  0  0  0  0
 15  4  2  0  0  0  0
 16  9  1  0  0  0  0
 17 23  1  0  0  0  0
 18 17  1  0  0  0  0
 19 21  1  0  0  0  0
 20 18  1  0  0  0  0
 21 17  1  0  0  0  0
 22 20  1  0  0  0  0
 22 19  1  0  0  0  0
 24 26  1  1  0  0  0
 24 25  1  0  0  0  0
 27 29  1  0  0  0  0
 28 31  1  0  0  0  0
 29 28  2  0  0  0  0
 31 32  1  0  0  0  0
 31 34  1  0  0  0  0
 31 30  1  1  0  0  0
 33 34  1  0  0  0  0
M  END
>  <MODEL>
9

>  <REMARK>
 VINA RESULT:      -7.0      1.624      2.352
  Name = 
  6 active torsions:
  status: ('A' for Active; 'I' for Inactive)
    1  A    between atoms: C_1  and  C_6
    2  A    between atoms: C_3  and  C_29
    3  A    between atoms: C_3  and  C_33
    4  A    between atoms: N_12  and  C_28
    5  A    between atoms: N_13  and  C_20
    6  A    between atoms: C_20  and  C_22
                            x       y       z     vdW  Elec       q    Type
                         _______ _______ _______ _____ _____    ______ ____

>  <TORSDO>
F 6

$$$$
