=
 OpenBabel11052414103D

 34 38  0  0  1  0  0  0  0  0999 V2000
  185.5010  178.3700  144.9790 C   0  0  0  0  0  0  0  0  0  0  0  0
  184.3760  178.8140  142.7470 C   0  0  0  0  0  2  0  0  0  0  0  0
  186.8760  178.3430  142.9590 C   0  0  0  0  0  0  0  0  0  0  0  0
  188.5350  178.3440  141.0010 C   0  0  2  0  0  3  0  0  0  0  0  0
  183.0940  178.7990  144.9970 C   0  0  0  0  0  3  0  0  0  0  0  0
  182.0310  179.2020  142.9370 O   0  0  0  0  0  0  0  0  0  0  0  0
  186.1950  178.8430  140.7060 O   0  0  0  0  0  0  0  0  0  0  0  0
  185.6060  178.5020  143.5740 C   0  0  0  0  0  0  0  0  0  0  0  0
  184.2110  178.5290  145.6660 C   0  0  0  0  0  3  0  0  0  0  0  0
  187.9990  178.0220  143.7510 C   0  0  0  0  0  0  0  0  0  0  0  0
  186.6290  178.0930  145.7490 C   0  0  0  0  0  3  0  0  0  0  0  0
  183.1070  178.9500  143.5380 C   0  0  0  0  0  0  0  0  0  0  0  0
  189.2020  177.3720  141.7710 O   0  0  0  0  0  0  0  0  0  0  0  0
  189.3530  177.8930  143.0730 C   0  0  2  0  0  3  0  0  0  0  0  0
  187.1160  178.5050  141.4980 C   0  0  0  0  0  0  0  0  0  0  0  0
  187.8700  177.9270  145.1420 C   0  0  0  0  0  3  0  0  0  0  0  0
  191.5630  176.5950  145.8520 C   0  0  0  0  0  0  0  0  0  0  0  0
  192.0720  175.4340  145.2670 C   0  0  0  0  0  3  0  0  0  0  0  0
  190.3130  177.0380  143.8400 C   0  0  0  0  0  0  0  0  0  0  0  0
  191.6830  175.1000  143.9670 C   0  0  0  0  0  3  0  0  0  0  0  0
  190.6770  177.4040  145.1400 C   0  0  0  0  0  3  0  0  0  0  0  0
  190.8190  175.9010  143.2870 N   0  0  0  0  0  0  0  0  0  0  0  0
  191.9370  176.9420  147.1430 O   0  0  0  0  0  1  0  0  0  0  0  0
  188.5880  177.9310  139.5360 C   0  0  0  0  0  2  0  0  0  0  0  0
  189.0670  179.0360  138.7260 N   0  0  0  0  0  2  0  0  0  0  0  0
  189.0900  178.5650  137.3540 C   0  0  0  0  0  2  0  0  0  0  0  0
  189.1610  177.0440  137.3420 C   0  0  0  0  0  2  0  0  0  0  0  0
  191.6650  176.5010  138.9110 O   0  0  0  0  0  0  0  0  0  0  0  0
  190.5000  176.5260  136.8170 C   0  0  1  0  0  3  0  0  0  0  0  0
  191.3070  175.8520  137.8940 C   0  0  0  0  0  0  0  0  0  0  0  0
  191.3900  173.7960  136.7010 C   0  0  0  0  0  3  0  0  0  0  0  0
  190.7120  174.4050  135.5940 N   0  0  0  0  0  0  0  0  0  0  0  0
  190.3070  175.6400  135.6160 C   0  0  0  0  0  3  0  0  0  0  0  0
  191.6710  174.4740  137.7700 N   0  0  0  0  0  0  0  0  0  0  0  0
  1  9  1  0  0  0  0
  1 11  1  0  0  0  0
  2 12  1  0  0  0  0
  2  8  1  0  0  0  0
  3  8  1  0  0  0  0
  3 10  2  0  0  0  0
  4 24  1  6  0  0  0
  4 15  1  0  0  0  0
  4 13  1  0  0  0  0
  5  9  2  0  0  0  0
  6 12  2  0  0  0  0
  7 15  2  0  0  0  0
  8  1  2  0  0  0  0
 10 16  1  0  0  0  0
 12  5  1  0  0  0  0
 13 14  1  0  0  0  0
 14 10  1  0  0  0  0
 14 19  1  1  0  0  0
 15  3  1  0  0  0  0
 16 11  2  0  0  0  0
 17 23  1  0  0  0  0
 18 17  1  0  0  0  0
 19 21  1  0  0  0  0
 20 18  2  0  0  0  0
 21 17  2  0  0  0  0
 22 19  2  0  0  0  0
 22 20  1  0  0  0  0
 25 24  1  0  0  0  0
 26 25  1  0  0  0  0
 27 26  1  0  0  0  0
 29 27  1  1  0  0  0
 29 30  1  0  0  0  0
 30 28  2  0  0  0  0
 31 34  2  0  0  0  0
 32 33  2  0  0  0  0
 32 31  1  0  0  0  0
 33 29  1  0  0  0  0
 34 30  1  0  0  0  0
M  END
>  <MODEL>
1

>  <REMARK>
 VINA RESULT:     -10.1      0.000      0.000
  Name = 
  6 active torsions:
  status: ('A' for Active; 'I' for Inactive)
    1  A    between atoms: C_3  and  C_13
    2  A    between atoms: C_3  and  C_17
    3  A    between atoms: C_5  and  C_18
    4  A    between atoms: C_12  and  C_28
    5  A    between atoms: C_17  and  N_29
    6  A    between atoms: C_18  and  N_29
                            x       y       z     vdW  Elec       q    Type
                         _______ _______ _______ _____ _____    ______ ____

>  <TORSDO>
F 6

$$$$
=
 OpenBabel11052414103D

 34 38  0  0  1  0  0  0  0  0999 V2000
  185.8670  178.2120  145.0710 C   0  0  0  0  0  0  0  0  0  0  0  0
  184.9070  178.6130  142.7560 C   0  0  0  0  0  2  0  0  0  0  0  0
  187.3760  178.1010  143.1530 C   0  0  0  0  0  0  0  0  0  0  0  0
  189.1660  178.0160  141.3150 C   0  0  2  0  0  3  0  0  0  0  0  0
  183.4740  178.6850  144.9120 C   0  0  0  0  0  3  0  0  0  0  0  0
  182.5630  179.0490  142.7730 O   0  0  0  0  0  0  0  0  0  0  0  0
  186.8620  178.5500  140.8450 O   0  0  0  0  0  0  0  0  0  0  0  0
  186.0710  178.3020  143.6740 C   0  0  0  0  0  0  0  0  0  0  0  0
  184.5370  178.4140  145.6630 C   0  0  0  0  0  3  0  0  0  0  0  0
  188.4360  177.7830  144.0290 C   0  0  0  0  0  0  0  0  0  0  0  0
  186.9340  177.9360  145.9250 C   0  0  0  0  0  3  0  0  0  0  0  0
  183.5900  178.7950  143.4540 C   0  0  0  0  0  0  0  0  0  0  0  0
  189.7590  177.0550  142.1550 O   0  0  0  0  0  0  0  0  0  0  0  0
  189.8300  177.6100  143.4500 C   0  0  2  0  0  3  0  0  0  0  0  0
  187.7190  178.2170  141.7080 C   0  0  0  0  0  0  0  0  0  0  0  0
  188.2100  177.7300  145.4100 C   0  0  0  0  0  3  0  0  0  0  0  0
  191.7940  176.3350  146.4190 C   0  0  0  0  0  0  0  0  0  0  0  0
  192.3420  175.1640  145.8920 C   0  0  0  0  0  3  0  0  0  0  0  0
  190.7180  176.7590  144.3050 C   0  0  0  0  0  0  0  0  0  0  0  0
  192.0600  174.8160  144.5690 C   0  0  0  0  0  3  0  0  0  0  0  0
  190.9750  177.1390  145.6250 C   0  0  0  0  0  3  0  0  0  0  0  0
  191.2610  175.6120  143.8100 N   0  0  0  0  0  0  0  0  0  0  0  0
  192.0620  176.6970  147.7320 O   0  0  0  0  0  1  0  0  0  0  0  0
  189.3110  177.5600  139.8690 C   0  0  0  0  0  2  0  0  0  0  0  0
  190.1210  176.3570  139.8070 N   0  0  0  0  0  2  0  0  0  0  0  0
  190.7140  176.3240  138.4830 C   0  0  0  0  0  2  0  0  0  0  0  0
  190.0560  175.2250  137.6600 C   0  0  0  0  0  2  0  0  0  0  0  0
  187.1310  174.6390  137.3060 O   0  0  0  0  0  0  0  0  0  0  0  0
  189.1140  175.7790  136.5910 C   0  0  1  0  0  3  0  0  0  0  0  0
  187.6750  175.7410  137.0320 C   0  0  0  0  0  0  0  0  0  0  0  0
  187.4210  178.0930  136.7890 C   0  0  0  0  0  3  0  0  0  0  0  0
  188.7520  178.1870  136.2650 N   0  0  0  0  0  0  0  0  0  0  0  0
  189.5360  177.1570  136.1560 C   0  0  0  0  0  3  0  0  0  0  0  0
  186.9190  176.9500  137.1410 N   0  0  0  0  0  0  0  0  0  0  0  0
  1  9  1  0  0  0  0
  1 11  1  0  0  0  0
  2 12  1  0  0  0  0
  2  8  1  0  0  0  0
  3  8  1  0  0  0  0
  3 10  2  0  0  0  0
  4 24  1  6  0  0  0
  4 15  1  0  0  0  0
  4 13  1  0  0  0  0
  5  9  2  0  0  0  0
  6 12  2  0  0  0  0
  7 15  2  0  0  0  0
  8  1  2  0  0  0  0
 10 16  1  0  0  0  0
 12  5  1  0  0  0  0
 13 14  1  0  0  0  0
 14 10  1  0  0  0  0
 14 19  1  1  0  0  0
 15  3  1  0  0  0  0
 16 11  2  0  0  0  0
 17 23  1  0  0  0  0
 18 17  1  0  0  0  0
 19 21  1  0  0  0  0
 20 18  2  0  0  0  0
 21 17  2  0  0  0  0
 22 19  2  0  0  0  0
 22 20  1  0  0  0  0
 25 24  1  0  0  0  0
 26 25  1  0  0  0  0
 27 26  1  0  0  0  0
 29 30  1  0  0  0  0
 29 27  1  1  0  0  0
 30 34  1  0  0  0  0
 30 28  2  0  0  0  0
 31 34  2  0  0  0  0
 32 31  1  0  0  0  0
 33 32  2  0  0  0  0
 33 29  1  0  0  0  0
M  END
>  <MODEL>
2

>  <REMARK>
 VINA RESULT:      -9.8      1.514      2.171
  Name = 
  6 active torsions:
  status: ('A' for Active; 'I' for Inactive)
    1  A    between atoms: C_3  and  C_13
    2  A    between atoms: C_3  and  C_17
    3  A    between atoms: C_5  and  C_18
    4  A    between atoms: C_12  and  C_28
    5  A    between atoms: C_17  and  N_29
    6  A    between atoms: C_18  and  N_29
                            x       y       z     vdW  Elec       q    Type
                         _______ _______ _______ _____ _____    ______ ____

>  <TORSDO>
F 6

$$$$
=
 OpenBabel11052414103D

 34 38  0  0  1  0  0  0  0  0999 V2000
  185.7830  178.3110  145.2340 C   0  0  0  0  0  0  0  0  0  0  0  0
  184.6840  178.6840  142.9760 C   0  0  0  0  0  2  0  0  0  0  0  0
  187.1700  178.1620  143.2280 C   0  0  0  0  0  0  0  0  0  0  0  0
  188.8430  178.0370  141.2850 C   0  0  2  0  0  3  0  0  0  0  0  0
  183.3870  178.7980  145.2150 C   0  0  0  0  0  3  0  0  0  0  0  0
  182.3480  179.1360  143.1300 O   0  0  0  0  0  0  0  0  0  0  0  0
  186.5180  178.5800  140.9500 O   0  0  0  0  0  0  0  0  0  0  0  0
  185.9000  178.3790  143.8260 C   0  0  0  0  0  0  0  0  0  0  0  0
  184.4920  178.5310  145.9040 C   0  0  0  0  0  3  0  0  0  0  0  0
  188.2800  177.8490  144.0430 C   0  0  0  0  0  0  0  0  0  0  0  0
  186.8980  178.0400  146.0240 C   0  0  0  0  0  3  0  0  0  0  0  0
  183.4140  178.8850  143.7510 C   0  0  0  0  0  0  0  0  0  0  0  0
  189.4810  177.0850  142.1020 O   0  0  0  0  0  0  0  0  0  0  0  0
  189.6340  177.6580  143.3810 C   0  0  2  0  0  3  0  0  0  0  0  0
  187.4240  178.2540  141.7640 C   0  0  0  0  0  0  0  0  0  0  0  0
  188.1390  177.8180  145.4350 C   0  0  0  0  0  3  0  0  0  0  0  0
  191.7470  176.3990  146.2530 C   0  0  0  0  0  0  0  0  0  0  0  0
  192.2780  175.2310  145.7010 C   0  0  0  0  0  3  0  0  0  0  0  0
  190.5680  176.8140  144.1930 C   0  0  0  0  0  0  0  0  0  0  0  0
  191.9360  174.8800  144.3920 C   0  0  0  0  0  3  0  0  0  0  0  0
  190.8860  177.1970  145.4990 C   0  0  0  0  0  3  0  0  0  0  0  0
  191.0950  175.6710  143.6720 N   0  0  0  0  0  0  0  0  0  0  0  0
  192.0750  176.7630  147.5520 O   0  0  0  0  0  1  0  0  0  0  0  0
  188.8960  177.5600  139.8410 C   0  0  0  0  0  2  0  0  0  0  0  0
  189.3290  178.6420  138.9750 N   0  0  0  0  0  2  0  0  0  0  0  0
  188.7660  178.3770  137.6650 C   0  0  0  0  0  2  0  0  0  0  0  0
  187.6490  177.3500  137.7930 C   0  0  0  0  0  2  0  0  0  0  0  0
  187.0510  176.4120  135.0030 O   0  0  0  0  0  0  0  0  0  0  0  0
  186.4360  177.6960  136.9300 C   0  0  1  0  0  3  0  0  0  0  0  0
  186.1770  176.6540  135.8750 C   0  0  0  0  0  0  0  0  0  0  0  0
  183.9860  176.2140  136.6880 C   0  0  0  0  0  3  0  0  0  0  0  0
  184.1280  177.2640  137.6540 N   0  0  0  0  0  0  0  0  0  0  0  0
  185.2200  177.9570  137.7780 C   0  0  0  0  0  3  0  0  0  0  0  0
  184.9410  175.9340  135.8570 N   0  0  0  0  0  0  0  0  0  0  0  0
  1  9  1  0  0  0  0
  1 11  1  0  0  0  0
  2 12  1  0  0  0  0
  2  8  1  0  0  0  0
  3  8  1  0  0  0  0
  3 10  2  0  0  0  0
  4 24  1  6  0  0  0
  4 15  1  0  0  0  0
  4 13  1  0  0  0  0
  5  9  2  0  0  0  0
  6 12  2  0  0  0  0
  7 15  2  0  0  0  0
  8  1  2  0  0  0  0
 10 16  1  0  0  0  0
 12  5  1  0  0  0  0
 13 14  1  0  0  0  0
 14 10  1  0  0  0  0
 14 19  1  1  0  0  0
 15  3  1  0  0  0  0
 16 11  2  0  0  0  0
 17 23  1  0  0  0  0
 18 17  1  0  0  0  0
 19 21  1  0  0  0  0
 20 18  2  0  0  0  0
 21 17  2  0  0  0  0
 22 19  2  0  0  0  0
 22 20  1  0  0  0  0
 25 24  1  0  0  0  0
 26 27  1  0  0  0  0
 26 25  1  0  0  0  0
 28 30  2  0  0  0  0
 29 33  1  0  0  0  0
 29 27  1  1  0  0  0
 30 29  1  0  0  0  0
 31 32  1  0  0  0  0
 32 33  2  0  0  0  0
 34 30  1  0  0  0  0
 34 31  2  0  0  0  0
M  END
>  <MODEL>
3

>  <REMARK>
 VINA RESULT:      -9.6      2.235      2.956
  Name = 
  6 active torsions:
  status: ('A' for Active; 'I' for Inactive)
    1  A    between atoms: C_3  and  C_13
    2  A    between atoms: C_3  and  C_17
    3  A    between atoms: C_5  and  C_18
    4  A    between atoms: C_12  and  C_28
    5  A    between atoms: C_17  and  N_29
    6  A    between atoms: C_18  and  N_29
                            x       y       z     vdW  Elec       q    Type
                         _______ _______ _______ _____ _____    ______ ____

>  <TORSDO>
F 6

$$$$
=
 OpenBabel11052414103D

 34 38  0  0  1  0  0  0  0  0999 V2000
  188.2350  177.5260  146.5920 C   0  0  0  0  0  0  0  0  0  0  0  0
  190.6970  177.1260  146.1230 C   0  0  0  0  0  2  0  0  0  0  0  0
  188.9380  177.2010  144.2750 C   0  0  0  0  0  0  0  0  0  0  0  0
  189.4160  176.8060  141.7840 C   0  0  2  0  0  3  0  0  0  0  0  0
  189.7550  177.4930  148.5070 C   0  0  0  0  0  3  0  0  0  0  0  0
  192.0430  177.1340  148.0910 O   0  0  0  0  0  0  0  0  0  0  0  0
  191.1410  176.6720  143.4630 O   0  0  0  0  0  0  0  0  0  0  0  0
  189.2660  177.2880  145.6540 C   0  0  0  0  0  0  0  0  0  0  0  0
  188.5200  177.6220  148.0310 C   0  0  0  0  0  3  0  0  0  0  0  0
  187.6010  177.3870  143.8630 C   0  0  0  0  0  0  0  0  0  0  0  0
  186.9140  177.6680  146.1700 C   0  0  0  0  0  3  0  0  0  0  0  0
  190.8870  177.2470  147.6070 C   0  0  0  0  0  0  0  0  0  0  0  0
  188.3490  177.7050  141.5980 O   0  0  0  0  0  0  0  0  0  0  0  0
  187.2710  177.2530  142.3860 C   0  0  2  0  0  3  0  0  0  0  0  0
  189.9300  176.9080  143.2030 C   0  0  0  0  0  0  0  0  0  0  0  0
  186.5970  177.5910  144.8170 C   0  0  0  0  0  3  0  0  0  0  0  0
  184.7990  179.3020  140.3900 C   0  0  0  0  0  0  0  0  0  0  0  0
  183.7110  179.3320  141.2640 C   0  0  0  0  0  3  0  0  0  0  0  0
  186.0270  177.9900  141.9940 C   0  0  0  0  0  0  0  0  0  0  0  0
  183.8100  178.6810  142.4970 C   0  0  0  0  0  3  0  0  0  0  0  0
  185.9650  178.6270  140.7520 C   0  0  0  0  0  3  0  0  0  0  0  0
  184.9550  178.0290  142.8330 N   0  0  0  0  0  0  0  0  0  0  0  0
  184.7180  179.9410  139.1610 O   0  0  0  0  0  1  0  0  0  0  0  0
  190.4980  177.1100  140.7570 C   0  0  0  0  0  2  0  0  0  0  0  0
  190.5810  176.0300  139.7890 N   0  0  0  0  0  2  0  0  0  0  0  0
  191.2950  176.5560  138.6410 C   0  0  0  0  0  2  0  0  0  0  0  0
  190.3100  176.8320  137.5140 C   0  0  0  0  0  2  0  0  0  0  0  0
  189.0550  179.3690  138.5220 O   0  0  0  0  0  0  0  0  0  0  0  0
  188.8820  177.0320  138.0230 C   0  0  1  0  0  3  0  0  0  0  0  0
  188.4350  178.4640  137.9040 C   0  0  0  0  0  0  0  0  0  0  0  0
  186.5950  177.8940  136.5090 C   0  0  0  0  0  3  0  0  0  0  0  0
  186.9050  176.5020  136.6620 N   0  0  0  0  0  0  0  0  0  0  0  0
  187.9270  176.0840  137.3480 C   0  0  0  0  0  3  0  0  0  0  0  0
  187.3080  178.8060  137.0930 N   0  0  0  0  0  0  0  0  0  0  0  0
  1  9  1  0  0  0  0
  2 12  1  0  0  0  0
  3  8  1  0  0  0  0
  4 24  1  6  0  0  0
  4 15  1  0  0  0  0
  8  2  1  0  0  0  0
  8  1  2  0  0  0  0
  9  5  2  0  0  0  0
 10  3  2  0  0  0  0
 10 16  1  0  0  0  0
 11  1  1  0  0  0  0
 12  6  2  0  0  0  0
 12  5  1  0  0  0  0
 13  4  1  0  0  0  0
 13 14  1  0  0  0  0
 14 19  1  1  0  0  0
 14 10  1  0  0  0  0
 15  7  2  0  0  0  0
 15  3  1  0  0  0  0
 16 11  2  0  0  0  0
 17 21  2  0  0  0  0
 17 18  1  0  0  0  0
 18 20  2  0  0  0  0
 19 22  2  0  0  0  0
 20 22  1  0  0  0  0
 21 19  1  0  0  0  0
 23 17  1  0  0  0  0
 25 24  1  0  0  0  0
 26 25  1  0  0  0  0
 27 26  1  0  0  0  0
 29 27  1  6  0  0  0
 30 29  1  0  0  0  0
 30 28  2  0  0  0  0
 31 32  1  0  0  0  0
 31 34  2  0  0  0  0
 32 33  2  0  0  0  0
 33 29  1  0  0  0  0
 34 30  1  0  0  0  0
M  END
>  <MODEL>
4

>  <REMARK>
 VINA RESULT:      -9.6      2.179      5.717
  Name = 
  6 active torsions:
  status: ('A' for Active; 'I' for Inactive)
    1  A    between atoms: C_3  and  C_13
    2  A    between atoms: C_3  and  C_17
    3  A    between atoms: C_5  and  C_18
    4  A    between atoms: C_12  and  C_28
    5  A    between atoms: C_17  and  N_29
    6  A    between atoms: C_18  and  N_29
                            x       y       z     vdW  Elec       q    Type
                         _______ _______ _______ _____ _____    ______ ____

>  <TORSDO>
F 6

$$$$
=
 OpenBabel11052414103D

 34 38  0  0  1  0  0  0  0  0999 V2000
  190.0740  177.4870  144.8450 C   0  0  0  0  0  0  0  0  0  0  0  0
  187.9050  177.4310  146.1630 C   0  0  0  0  0  2  0  0  0  0  0  0
  187.9890  177.9890  143.6730 C   0  0  0  0  0  0  0  0  0  0  0  0
  185.9530  178.6300  142.2480 C   0  0  2  0  0  3  0  0  0  0  0  0
  190.2140  176.9280  147.2210 C   0  0  0  0  0  3  0  0  0  0  0  0
  188.2130  176.8610  148.4570 O   0  0  0  0  0  0  0  0  0  0  0  0
  185.7780  178.1610  144.6060 O   0  0  0  0  0  0  0  0  0  0  0  0
  188.6680  177.6380  144.8710 C   0  0  0  0  0  0  0  0  0  0  0  0
  190.8250  177.1280  146.0570 C   0  0  0  0  0  3  0  0  0  0  0  0
  188.7230  178.1460  142.4770 C   0  0  0  0  0  0  0  0  0  0  0  0
  190.7850  177.6850  143.6630 C   0  0  0  0  0  3  0  0  0  0  0  0
  188.7580  177.0600  147.3410 C   0  0  0  0  0  0  0  0  0  0  0  0
  186.6790  178.0090  141.2140 O   0  0  0  0  0  0  0  0  0  0  0  0
  187.9780  178.5570  141.2180 C   0  0  2  0  0  3  0  0  0  0  0  0
  186.5210  178.2210  143.5890 C   0  0  0  0  0  0  0  0  0  0  0  0
  190.1170  178.0190  142.4890 C   0  0  0  0  0  3  0  0  0  0  0  0
  189.9990  176.5590  138.7240 C   0  0  0  0  0  0  0  0  0  0  0  0
  189.9780  177.4130  137.6200 C   0  0  0  0  0  3  0  0  0  0  0  0
  188.6880  178.1580  139.9610 C   0  0  0  0  0  0  0  0  0  0  0  0
  189.3040  178.6330  137.7160 C   0  0  0  0  0  3  0  0  0  0  0  0
  189.3500  176.9280  139.9030 C   0  0  0  0  0  3  0  0  0  0  0  0
  188.6780  178.9770  138.8730 N   0  0  0  0  0  0  0  0  0  0  0  0
  190.6630  175.3420  138.6480 O   0  0  0  0  0  1  0  0  0  0  0  0
  184.4840  178.2600  142.1080 C   0  0  0  0  0  2  0  0  0  0  0  0
  184.1040  178.2540  140.7060 N   0  0  0  0  0  2  0  0  0  0  0  0
  182.8350  178.9520  140.6170 C   0  0  0  0  0  2  0  0  0  0  0  0
  181.7130  177.9400  140.4310 C   0  0  0  0  0  2  0  0  0  0  0  0
  179.3740  176.5510  141.7050 O   0  0  0  0  0  0  0  0  0  0  0  0
  180.3380  178.5270  140.7520 C   0  0  1  0  0  3  0  0  0  0  0  0
  179.6450  177.7710  141.8540 C   0  0  0  0  0  0  0  0  0  0  0  0
  179.4800  179.7050  143.2290 C   0  0  0  0  0  3  0  0  0  0  0  0
  180.0430  180.5040  142.1810 N   0  0  0  0  0  0  0  0  0  0  0  0
  180.4310  180.0000  141.0480 C   0  0  0  0  0  3  0  0  0  0  0  0
  179.2910  178.4310  143.0720 N   0  0  0  0  0  0  0  0  0  0  0  0
  1  8  1  0  0  0  0
  1  9  1  0  0  0  0
  2 12  1  0  0  0  0
  3  8  2  0  0  0  0
  4 24  1  1  0  0  0
  4 15  1  0  0  0  0
  5 12  1  0  0  0  0
  8  2  1  0  0  0  0
  9  5  2  0  0  0  0
 10 16  2  0  0  0  0
 10  3  1  0  0  0  0
 11  1  2  0  0  0  0
 12  6  2  0  0  0  0
 13 14  1  0  0  0  0
 13  4  1  0  0  0  0
 14 19  1  6  0  0  0
 14 10  1  0  0  0  0
 15  3  1  0  0  0  0
 15  7  2  0  0  0  0
 16 11  1  0  0  0  0
 17 21  1  0  0  0  0
 18 20  1  0  0  0  0
 18 17  2  0  0  0  0
 20 22  2  0  0  0  0
 21 19  2  0  0  0  0
 22 19  1  0  0  0  0
 23 17  1  0  0  0  0
 25 24  1  0  0  0  0
 26 25  1  0  0  0  0
 27 26  1  0  0  0  0
 28 30  2  0  0  0  0
 29 27  1  1  0  0  0
 29 33  1  0  0  0  0
 29 30  1  0  0  0  0
 30 34  1  0  0  0  0
 32 31  1  0  0  0  0
 33 32  2  0  0  0  0
 34 31  2  0  0  0  0
M  END
>  <MODEL>
5

>  <REMARK>
 VINA RESULT:      -9.5      3.409      7.796
  Name = 
  6 active torsions:
  status: ('A' for Active; 'I' for Inactive)
    1  A    between atoms: C_3  and  C_13
    2  A    between atoms: C_3  and  C_17
    3  A    between atoms: C_5  and  C_18
    4  A    between atoms: C_12  and  C_28
    5  A    between atoms: C_17  and  N_29
    6  A    between atoms: C_18  and  N_29
                            x       y       z     vdW  Elec       q    Type
                         _______ _______ _______ _____ _____    ______ ____

>  <TORSDO>
F 6

$$$$
=
 OpenBabel11052414103D

 34 38  0  0  1  0  0  0  0  0999 V2000
  187.6620  177.7080  144.2730 C   0  0  0  0  0  0  0  0  0  0  0  0
  186.3550  177.9830  146.4310 C   0  0  0  0  0  2  0  0  0  0  0  0
  185.3310  178.4300  144.1360 C   0  0  0  0  0  0  0  0  0  0  0  0
  182.9400  179.2750  143.7390 C   0  0  2  0  0  3  0  0  0  0  0  0
  188.8300  177.2270  146.3660 C   0  0  0  0  0  3  0  0  0  0  0  0
  187.6320  177.4660  148.3770 O   0  0  0  0  0  0  0  0  0  0  0  0
  183.8310  178.9230  145.9510 O   0  0  0  0  0  0  0  0  0  0  0  0
  186.4490  178.0400  144.9210 C   0  0  0  0  0  0  0  0  0  0  0  0
  188.8490  177.3010  145.0380 C   0  0  0  0  0  3  0  0  0  0  0  0
  185.4390  178.4450  142.7280 C   0  0  0  0  0  0  0  0  0  0  0  0
  187.7600  177.7660  142.8840 C   0  0  0  0  0  3  0  0  0  0  0  0
  187.6160  177.5510  147.1220 C   0  0  0  0  0  0  0  0  0  0  0  0
  183.0410  178.5250  142.5510 O   0  0  0  0  0  0  0  0  0  0  0  0
  184.2410  178.9010  141.9130 C   0  0  2  0  0  3  0  0  0  0  0  0
  184.0210  178.8470  144.7070 C   0  0  0  0  0  0  0  0  0  0  0  0
  186.6610  178.1390  142.1170 C   0  0  0  0  0  3  0  0  0  0  0  0
  183.4280  176.7950  138.8790 C   0  0  0  0  0  0  0  0  0  0  0  0
  184.2400  177.3950  137.9150 C   0  0  0  0  0  3  0  0  0  0  0  0
  184.2460  178.3650  140.5140 C   0  0  0  0  0  0  0  0  0  0  0  0
  185.0440  178.4780  138.2790 C   0  0  0  0  0  3  0  0  0  0  0  0
  183.4270  177.2810  140.1880 C   0  0  0  0  0  3  0  0  0  0  0  0
  185.0300  178.9370  139.5590 N   0  0  0  0  0  0  0  0  0  0  0  0
  182.6220  175.7190  138.5360 O   0  0  0  0  0  1  0  0  0  0  0  0
  181.5440  179.0930  144.3180 C   0  0  0  0  0  2  0  0  0  0  0  0
  180.6010  178.7940  143.2550 N   0  0  0  0  0  2  0  0  0  0  0  0
  180.0340  180.0610  142.8350 C   0  0  0  0  0  2  0  0  0  0  0  0
  179.5320  179.9410  141.4030 C   0  0  0  0  0  2  0  0  0  0  0  0
  179.3440  177.0750  140.5210 O   0  0  0  0  0  0  0  0  0  0  0  0
  180.5030  179.1730  140.5050 C   0  0  1  0  0  3  0  0  0  0  0  0
  179.8410  178.0030  139.8290 C   0  0  0  0  0  0  0  0  0  0  0  0
  180.3450  178.8290  137.6570 C   0  0  0  0  0  3  0  0  0  0  0  0
  181.0780  179.9160  138.2350 N   0  0  0  0  0  0  0  0  0  0  0  0
  181.1740  180.0910  139.5190 C   0  0  0  0  0  3  0  0  0  0  0  0
  179.7730  177.9350  138.4020 N   0  0  0  0  0  0  0  0  0  0  0  0
  1  8  1  0  0  0  0
  1  9  1  0  0  0  0
  2 12  1  0  0  0  0
  3 15  1  0  0  0  0
  3  8  2  0  0  0  0
  4 24  1  1  0  0  0
  4 15  1  0  0  0  0
  5 12  1  0  0  0  0
  8  2  1  0  0  0  0
  9  5  2  0  0  0  0
 10  3  1  0  0  0  0
 11  1  2  0  0  0  0
 12  6  2  0  0  0  0
 13  4  1  0  0  0  0
 14 19  1  6  0  0  0
 14 13  1  0  0  0  0
 14 10  1  0  0  0  0
 15  7  2  0  0  0  0
 16 10  2  0  0  0  0
 16 11  1  0  0  0  0
 17 21  1  0  0  0  0
 18 20  1  0  0  0  0
 18 17  2  0  0  0  0
 20 22  2  0  0  0  0
 21 19  2  0  0  0  0
 22 19  1  0  0  0  0
 23 17  1  0  0  0  0
 25 24  1  0  0  0  0
 26 25  1  0  0  0  0
 27 26  1  0  0  0  0
 29 27  1  6  0  0  0
 30 29  1  0  0  0  0
 30 28  2  0  0  0  0
 31 32  1  0  0  0  0
 31 34  2  0  0  0  0
 32 33  2  0  0  0  0
 33 29  1  0  0  0  0
 34 30  1  0  0  0  0
M  END
>  <MODEL>
6

>  <REMARK>
 VINA RESULT:      -9.5      4.395      8.421
  Name = 
  6 active torsions:
  status: ('A' for Active; 'I' for Inactive)
    1  A    between atoms: C_3  and  C_13
    2  A    between atoms: C_3  and  C_17
    3  A    between atoms: C_5  and  C_18
    4  A    between atoms: C_12  and  C_28
    5  A    between atoms: C_17  and  N_29
    6  A    between atoms: C_18  and  N_29
                            x       y       z     vdW  Elec       q    Type
                         _______ _______ _______ _____ _____    ______ ____

>  <TORSDO>
F 6

$$$$
=
 OpenBabel11052414103D

 34 38  0  0  1  0  0  0  0  0999 V2000
  187.9660  177.2750  146.3130 C   0  0  0  0  0  0  0  0  0  0  0  0
  190.2250  177.4550  145.1680 C   0  0  0  0  0  2  0  0  0  0  0  0
  188.0180  177.6240  143.8950 C   0  0  0  0  0  0  0  0  0  0  0  0
  187.8150  177.9030  141.3520 C   0  0  2  0  0  3  0  0  0  0  0  0
  189.9590  177.0870  147.7170 C   0  0  0  0  0  3  0  0  0  0  0  0
  192.0610  177.2620  146.6760 O   0  0  0  0  0  0  0  0  0  0  0  0
  189.9470  177.7100  142.4590 O   0  0  0  0  0  0  0  0  0  0  0  0
  188.7110  177.4530  145.1230 C   0  0  0  0  0  0  0  0  0  0  0  0
  188.6330  177.0900  147.6100 C   0  0  0  0  0  3  0  0  0  0  0  0
  186.6070  177.6480  143.8880 C   0  0  0  0  0  0  0  0  0  0  0  0
  186.5730  177.2620  146.2800 C   0  0  0  0  0  3  0  0  0  0  0  0
  190.8110  177.2670  146.5370 C   0  0  0  0  0  0  0  0  0  0  0  0
  186.6410  178.6080  141.6810 O   0  0  0  0  0  0  0  0  0  0  0  0
  185.8910  177.7960  142.5560 C   0  0  2  0  0  3  0  0  0  0  0  0
  188.6930  177.7720  142.5760 C   0  0  0  0  0  0  0  0  0  0  0  0
  185.8970  177.4400  145.0770 C   0  0  0  0  0  3  0  0  0  0  0  0
  182.3410  178.8190  141.7490 C   0  0  0  0  0  0  0  0  0  0  0  0
  181.9450  179.3830  142.9630 C   0  0  0  0  0  3  0  0  0  0  0  0
  184.5100  178.3600  142.6930 C   0  0  0  0  0  0  0  0  0  0  0  0
  182.8520  179.4220  144.0240 C   0  0  0  0  0  3  0  0  0  0  0  0
  183.6300  178.3010  141.6090 C   0  0  0  0  0  3  0  0  0  0  0  0
  184.1040  178.9130  143.8700 N   0  0  0  0  0  0  0  0  0  0  0  0
  181.4530  178.7710  140.6830 O   0  0  0  0  0  1  0  0  0  0  0  0
  188.5190  178.6280  140.2130 C   0  0  0  0  0  2  0  0  0  0  0  0
  187.7220  178.5440  139.0020 N   0  0  0  0  0  2  0  0  0  0  0  0
  188.6540  178.5390  137.8920 C   0  0  0  0  0  2  0  0  0  0  0  0
  188.8720  177.1070  137.4200 C   0  0  0  0  0  2  0  0  0  0  0  0
  190.7270  176.0930  139.5540 O   0  0  0  0  0  0  0  0  0  0  0  0
  190.3540  176.7560  137.2820 C   0  0  1  0  0  3  0  0  0  0  0  0
  190.8040  175.7820  138.3370 C   0  0  0  0  0  0  0  0  0  0  0  0
  191.4910  174.1770  136.7210 C   0  0  0  0  0  3  0  0  0  0  0  0
  191.1770  175.0980  135.6670 N   0  0  0  0  0  0  0  0  0  0  0  0
  190.6710  176.2730  135.8920 C   0  0  0  0  0  3  0  0  0  0  0  0
  191.3200  174.5010  137.9650 N   0  0  0  0  0  0  0  0  0  0  0  0
  1  9  1  0  0  0  0
  2 12  1  0  0  0  0
  3  8  1  0  0  0  0
  4 24  1  6  0  0  0
  4 13  1  0  0  0  0
  4 15  1  0  0  0  0
  7 15  2  0  0  0  0
  8  2  1  0  0  0  0
  8  1  2  0  0  0  0
  9  5  2  0  0  0  0
 10  3  2  0  0  0  0
 10 16  1  0  0  0  0
 11  1  1  0  0  0  0
 12  6  2  0  0  0  0
 12  5  1  0  0  0  0
 13 14  1  0  0  0  0
 14 19  1  1  0  0  0
 14 10  1  0  0  0  0
 15  3  1  0  0  0  0
 16 11  2  0  0  0  0
 17 18  1  0  0  0  0
 18 20  2  0  0  0  0
 19 22  2  0  0  0  0
 21 17  2  0  0  0  0
 21 19  1  0  0  0  0
 22 20  1  0  0  0  0
 23 17  1  0  0  0  0
 25 24  1  0  0  0  0
 26 25  1  0  0  0  0
 27 26  1  0  0  0  0
 29 27  1  6  0  0  0
 29 30  1  0  0  0  0
 30 28  2  0  0  0  0
 31 34  2  0  0  0  0
 32 33  2  0  0  0  0
 32 31  1  0  0  0  0
 33 29  1  0  0  0  0
 34 30  1  0  0  0  0
M  END
>  <MODEL>
7

>  <REMARK>
 VINA RESULT:      -9.3      1.714      5.514
  Name = 
  6 active torsions:
  status: ('A' for Active; 'I' for Inactive)
    1  A    between atoms: C_3  and  C_13
    2  A    between atoms: C_3  and  C_17
    3  A    between atoms: C_5  and  C_18
    4  A    between atoms: C_12  and  C_28
    5  A    between atoms: C_17  and  N_29
    6  A    between atoms: C_18  and  N_29
                            x       y       z     vdW  Elec       q    Type
                         _______ _______ _______ _____ _____    ______ ____

>  <TORSDO>
F 6

$$$$
=
 OpenBabel11052414103D

 34 38  0  0  1  0  0  0  0  0999 V2000
  190.1250  177.5150  144.9700 C   0  0  0  0  0  0  0  0  0  0  0  0
  187.9620  177.2890  146.2800 C   0  0  0  0  0  2  0  0  0  0  0  0
  188.0120  177.8730  143.7960 C   0  0  0  0  0  0  0  0  0  0  0  0
  185.9390  178.3750  142.3690 C   0  0  2  0  0  3  0  0  0  0  0  0
  190.2990  176.9470  147.3420 C   0  0  0  0  0  3  0  0  0  0  0  0
  188.3050  176.7230  148.5710 O   0  0  0  0  0  0  0  0  0  0  0  0
  185.7920  177.8740  144.7230 O   0  0  0  0  0  0  0  0  0  0  0  0
  188.7110  177.5620  144.9920 C   0  0  0  0  0  0  0  0  0  0  0  0
  190.8970  177.2020  146.1810 C   0  0  0  0  0  3  0  0  0  0  0  0
  188.7350  178.0930  142.6030 C   0  0  0  0  0  0  0  0  0  0  0  0
  190.8220  177.7740  143.7920 C   0  0  0  0  0  3  0  0  0  0  0  0
  188.8370  176.9710  147.4580 C   0  0  0  0  0  0  0  0  0  0  0  0
  186.7100  177.8180  141.3320 O   0  0  0  0  0  0  0  0  0  0  0  0
  187.9660  178.4600  141.3450 C   0  0  2  0  0  3  0  0  0  0  0  0
  186.5310  177.9970  143.7080 C   0  0  0  0  0  0  0  0  0  0  0  0
  190.1350  178.0690  142.6190 C   0  0  0  0  0  3  0  0  0  0  0  0
  190.0810  176.6060  138.8180 C   0  0  0  0  0  0  0  0  0  0  0  0
  190.0540  177.4970  137.7440 C   0  0  0  0  0  3  0  0  0  0  0  0
  188.7060  178.1240  140.0870 C   0  0  0  0  0  0  0  0  0  0  0  0
  189.3440  178.6940  137.8700 C   0  0  0  0  0  3  0  0  0  0  0  0
  189.4040  176.9160  139.9980 C   0  0  0  0  0  3  0  0  0  0  0  0
  188.6900  178.9800  139.0280 N   0  0  0  0  0  0  0  0  0  0  0  0
  190.7800  175.4120  138.7110 O   0  0  0  0  0  1  0  0  0  0  0  0
  184.5000  177.9000  142.2210 C   0  0  0  0  0  2  0  0  0  0  0  0
  183.5930  179.0330  142.2840 N   0  0  0  0  0  2  0  0  0  0  0  0
  182.6730  178.8890  141.1720 C   0  0  0  0  0  2  0  0  0  0  0  0
  183.0930  177.7020  140.3170 C   0  0  0  0  0  2  0  0  0  0  0  0
  184.5550  180.1250  139.3090 O   0  0  0  0  0  0  0  0  0  0  0  0
  183.3620  178.0950  138.8640 C   0  0  1  0  0  3  0  0  0  0  0  0
  184.5550  179.0030  138.7360 C   0  0  0  0  0  0  0  0  0  0  0  0
  185.6940  177.4920  137.2960 C   0  0  0  0  0  3  0  0  0  0  0  0
  184.5510  176.6260  137.2930 N   0  0  0  0  0  0  0  0  0  0  0  0
  183.4800  176.8790  137.9850 C   0  0  0  0  0  3  0  0  0  0  0  0
  185.6910  178.6020  137.9670 N   0  0  0  0  0  0  0  0  0  0  0  0
  1  8  1  0  0  0  0
  1  9  1  0  0  0  0
  2 12  1  0  0  0  0
  3  8  2  0  0  0  0
  4 24  1  1  0  0  0
  4 15  1  0  0  0  0
  5 12  1  0  0  0  0
  8  2  1  0  0  0  0
  9  5  2  0  0  0  0
 10 16  2  0  0  0  0
 10  3  1  0  0  0  0
 11  1  2  0  0  0  0
 12  6  2  0  0  0  0
 13 14  1  0  0  0  0
 13  4  1  0  0  0  0
 14 19  1  6  0  0  0
 14 10  1  0  0  0  0
 15  3  1  0  0  0  0
 15  7  2  0  0  0  0
 16 11  1  0  0  0  0
 17 21  1  0  0  0  0
 18 20  1  0  0  0  0
 18 17  2  0  0  0  0
 20 22  2  0  0  0  0
 21 19  2  0  0  0  0
 22 19  1  0  0  0  0
 23 17  1  0  0  0  0
 24 25  1  0  0  0  0
 26 25  1  0  0  0  0
 27 26  1  0  0  0  0
 29 27  1  1  0  0  0
 30 29  1  0  0  0  0
 30 28  2  0  0  0  0
 31 34  2  0  0  0  0
 32 31  1  0  0  0  0
 32 33  2  0  0  0  0
 33 29  1  0  0  0  0
 34 30  1  0  0  0  0
M  END
>  <MODEL>
8

>  <REMARK>
 VINA RESULT:      -9.3      2.646      6.063
  Name = 
  6 active torsions:
  status: ('A' for Active; 'I' for Inactive)
    1  A    between atoms: C_3  and  C_13
    2  A    between atoms: C_3  and  C_17
    3  A    between atoms: C_5  and  C_18
    4  A    between atoms: C_12  and  C_28
    5  A    between atoms: C_17  and  N_29
    6  A    between atoms: C_18  and  N_29
                            x       y       z     vdW  Elec       q    Type
                         _______ _______ _______ _____ _____    ______ ____

>  <TORSDO>
F 6

$$$$
=
 OpenBabel11052414103D

 34 38  0  0  1  0  0  0  0  0999 V2000
  183.4600  178.6770  144.2050 C   0  0  0  0  0  0  0  0  0  0  0  0
  183.2150  178.6330  141.6780 C   0  0  0  0  0  2  0  0  0  0  0  0
  185.4840  178.5350  142.8430 C   0  0  0  0  0  0  0  0  0  0  0  0
  187.7470  178.4680  141.6330 C   0  0  2  0  0  3  0  0  0  0  0  0
  181.1950  178.7790  143.2920 C   0  0  0  0  0  3  0  0  0  0  0  0
  180.9460  178.7280  140.9520 O   0  0  0  0  0  0  0  0  0  0  0  0
  185.6550  178.6020  140.4440 O   0  0  0  0  0  0  0  0  0  0  0  0
  184.0690  178.6130  142.9290 C   0  0  0  0  0  0  0  0  0  0  0  0
  182.0000  178.7630  144.3500 C   0  0  0  0  0  3  0  0  0  0  0  0
  186.2530  178.4880  144.0250 C   0  0  0  0  0  0  0  0  0  0  0  0
  184.2390  178.6700  145.3600 C   0  0  0  0  0  3  0  0  0  0  0  0
  181.7370  178.7140  141.9310 C   0  0  0  0  0  0  0  0  0  0  0  0
  188.1480  177.7190  142.7560 O   0  0  0  0  0  0  0  0  0  0  0  0
  187.7670  178.4420  143.9050 C   0  0  2  0  0  3  0  0  0  0  0  0
  186.2370  178.5100  141.5580 C   0  0  0  0  0  0  0  0  0  0  0  0
  185.6250  178.5830  145.2730 C   0  0  0  0  0  3  0  0  0  0  0  0
  190.4070  176.9840  146.1860 C   0  0  0  0  0  0  0  0  0  0  0  0
  189.6640  176.7650  147.3470 C   0  0  0  0  0  3  0  0  0  0  0  0
  188.4320  177.8450  145.1080 C   0  0  0  0  0  0  0  0  0  0  0  0
  188.3060  177.0960  147.3590 C   0  0  0  0  0  3  0  0  0  0  0  0
  189.7930  177.5280  145.0580 C   0  0  0  0  0  3  0  0  0  0  0  0
  187.7240  177.6250  146.2500 N   0  0  0  0  0  0  0  0  0  0  0  0
  191.7570  176.6620  146.1560 O   0  0  0  0  0  1  0  0  0  0  0  0
  188.3680  177.8540  140.3860 C   0  0  0  0  0  2  0  0  0  0  0  0
  188.9840  178.8900  139.5760 N   0  0  0  0  0  2  0  0  0  0  0  0
  189.4440  178.2470  138.3600 C   0  0  0  0  0  2  0  0  0  0  0  0
  188.9480  179.0320  137.1530 C   0  0  0  0  0  2  0  0  0  0  0  0
  189.6410  176.9800  135.0710 O   0  0  0  0  0  0  0  0  0  0  0  0
  187.9880  178.2210  136.2830 C   0  0  1  0  0  3  0  0  0  0  0  0
  188.6120  176.9420  135.7950 C   0  0  0  0  0  0  0  0  0  0  0  0
  186.9370  175.6010  136.8210 C   0  0  0  0  0  3  0  0  0  0  0  0
  186.2360  176.7820  137.2310 N   0  0  0  0  0  0  0  0  0  0  0  0
  186.6830  177.9790  136.9930 C   0  0  0  0  0  3  0  0  0  0  0  0
  188.0420  175.6780  136.1470 N   0  0  0  0  0  0  0  0  0  0  0  0
  1  9  1  0  0  0  0
  1 11  1  0  0  0  0
  2 12  1  0  0  0  0
  2  8  1  0  0  0  0
  3  8  1  0  0  0  0
  3 10  2  0  0  0  0
  4 24  1  6  0  0  0
  4 13  1  0  0  0  0
  5  9  2  0  0  0  0
  6 12  2  0  0  0  0
  7 15  2  0  0  0  0
  8  1  2  0  0  0  0
 10 16  1  0  0  0  0
 12  5  1  0  0  0  0
 13 14  1  0  0  0  0
 14 10  1  0  0  0  0
 14 19  1  1  0  0  0
 15  4  1  0  0  0  0
 15  3  1  0  0  0  0
 16 11  2  0  0  0  0
 17 18  1  0  0  0  0
 18 20  2  0  0  0  0
 19 22  2  0  0  0  0
 21 19  1  0  0  0  0
 21 17  2  0  0  0  0
 22 20  1  0  0  0  0
 23 17  1  0  0  0  0
 25 24  1  0  0  0  0
 26 25  1  0  0  0  0
 27 26  1  0  0  0  0
 28 30  2  0  0  0  0
 29 33  1  0  0  0  0
 29 27  1  1  0  0  0
 30 34  1  0  0  0  0
 30 29  1  0  0  0  0
 31 32  1  0  0  0  0
 33 32  2  0  0  0  0
 34 31  2  0  0  0  0
M  END
>  <MODEL>
9

>  <REMARK>
 VINA RESULT:      -9.2      2.090      2.792
  Name = 
  6 active torsions:
  status: ('A' for Active; 'I' for Inactive)
    1  A    between atoms: C_3  and  C_13
    2  A    between atoms: C_3  and  C_17
    3  A    between atoms: C_5  and  C_18
    4  A    between atoms: C_12  and  C_28
    5  A    between atoms: C_17  and  N_29
    6  A    between atoms: C_18  and  N_29
                            x       y       z     vdW  Elec       q    Type
                         _______ _______ _______ _____ _____    ______ ____

>  <TORSDO>
F 6

$$$$
