=
 OpenBabel11052415143D

 37 44  0  0  1  0  0  0  0  0999 V2000
  180.0090  176.6500  138.9000 C   0  0  0  0  0  2  0  0  0  0  0  0
  183.4950  178.2340  140.8200 C   0  0  0  0  0  0  0  0  0  0  0  0
  179.4760  175.2380  138.7940 C   0  0  1  0  0  3  0  0  0  0  0  0
  184.3210  176.9390  137.3580 C   0  0  0  0  0  2  0  0  0  0  0  0
  182.0520  178.9620  142.6520 C   0  0  0  0  0  0  0  0  0  0  0  0
  183.4360  177.9680  139.5160 C   0  0  0  0  0  0  0  0  0  0  0  0
  181.2480  176.3600  136.2690 C   0  0  1  0  0  3  0  0  0  0  0  0
  182.2390  178.7400  141.3330 C   0  0  0  0  0  0  0  0  0  0  0  0
  184.6140  177.6170  138.6660 C   0  0  0  0  0  0  0  0  0  0  0  0
  183.1770  178.6920  143.5760 C   0  0  0  0  0  3  0  0  0  0  0  0
  179.7240  174.7520  137.3810 C   0  0  0  0  0  2  0  0  0  0  0  0
  181.3240  178.7830  140.1580 C   0  0  0  0  0  0  0  0  0  0  0  0
  181.1410  180.2330  139.7330 C   0  0  0  0  0  2  0  0  0  0  0  0
  185.7570  179.0010  141.2410 C   0  0  0  0  0  3  0  0  0  0  0  0
  184.3790  178.2850  143.1440 C   0  0  0  0  0  3  0  0  0  0  0  0
  179.9350  179.3970  140.0810 C   0  0  0  0  0  2  0  0  0  0  0  0
  181.1610  174.9640  136.8960 C   0  0  2  0  0  3  0  0  0  0  0  0
  183.4780  175.6940  137.5490 C   0  0  0  0  0  2  0  0  0  0  0  0
  184.7010  178.0590  141.6860 C   0  0  1  0  0  3  0  0  0  0  0  0
  182.0070  178.0350  138.9960 C   0  0  2  0  0  3  0  0  0  0  0  0
  185.8920  178.0440  138.9110 C   0  0  0  0  0  0  0  0  0  0  0  0
  181.9970  176.0640  137.5690 C   0  0  1  0  0  0  0  0  0  0  0  0
  182.1290  176.2980  135.0330 C   0  0  0  0  0  1  0  0  0  0  0  0
  181.4770  176.6570  138.8310 N   0  0  2  0  0  0  0  0  0  0  0  0
  186.2780  178.9600  140.0160 C   0  0  0  0  0  3  0  0  0  0  0  0
  187.5100  178.6470  137.1620 C   0  0  0  0  0  3  0  0  0  0  0  0
  187.0050  177.7150  137.9830 C   0  0  0  0  0  0  0  0  0  0  0  0
  187.4970  176.3210  137.8860 C   0  0  0  0  0  3  0  0  0  0  0  0
  188.7280  174.6270  136.8060 O   0  0  0  0  0  1  0  0  0  0  0  0
  188.5820  176.8880  135.7430 C   0  0  0  0  0  2  0  0  0  0  0  0
  188.2670  175.9340  136.8640 C   0  0  0  0  0  0  0  0  0  0  0  0
  188.6640  178.3290  136.2530 C   0  0  0  0  0  2  0  0  0  0  0  0
  180.1140  178.6950  144.1460 C   0  0  0  0  0  3  0  0  0  0  0  0
  180.7940  179.4140  143.2650 C   0  0  0  0  0  3  0  0  0  0  0  0
  178.9340  179.1880  144.6820 O   0  0  0  0  0  1  0  0  0  0  0  0
  179.1810  174.2620  140.7600 C   0  0  0  0  0  1  0  0  0  0  0  0
  180.1030  174.4000  139.7200 O   0  0  0  0  0  0  0  0  0  0  0  0
  2  8  1  0  0  0  0
  2 19  1  0  0  0  0
  3  1  1  0  0  0  0
  3 37  1  1  0  0  0
  4 18  1  0  0  0  0
  4  9  1  0  0  0  0
  5 34  1  0  0  0  0
  5 10  1  0  0  0  0
  6  2  2  0  0  0  0
  7 23  1  6  0  0  0
  7 17  1  0  0  0  0
  7 22  1  0  0  0  0
  8  5  2  0  0  0  0
  9 21  2  0  0  0  0
  9  6  1  0  0  0  0
 11  3  1  0  0  0  0
 12  8  1  0  0  0  0
 13 16  1  0  0  0  0
 13 12  1  0  0  0  0
 15 10  2  0  0  0  0
 16 12  1  0  0  0  0
 17 11  1  1  0  0  0
 17 22  1  0  0  0  0
 19 14  1  6  0  0  0
 19 15  1  0  0  0  0
 20  6  1  1  0  0  0
 20 12  1  0  0  0  0
 21 25  1  0  0  0  0
 22 18  1  6  0  0  0
 22 24  1  0  0  0  0
 24  1  1  6  0  0  0
 24 20  1  0  0  0  0
 25 14  2  0  0  0  0
 26 27  2  0  0  0  0
 27 21  1  0  0  0  0
 28 27  1  0  0  0  0
 29 31  1  0  0  0  0
 30 32  1  0  0  0  0
 30 31  1  0  0  0  0
 31 28  2  0  0  0  0
 32 26  1  0  0  0  0
 33 35  1  0  0  0  0
 34 33  2  0  0  0  0
 37 36  1  0  0  0  0
M  END
>  <MODEL>
1

>  <REMARK>
 VINA RESULT:      -6.7      0.000      0.000
  Name = 
  3 active torsions:
  status: ('A' for Active; 'I' for Inactive)
    1  A    between atoms: C_5  and  O_23
    2  A    between atoms: C_6  and  C_31
    3  A    between atoms: C_9  and  C_30
                            x       y       z     vdW  Elec       q    Type
                         _______ _______ _______ _____ _____    ______ ____

>  <TORSDO>
F 3

$$$$
=
 OpenBabel11052415143D

 37 44  0  0  1  0  0  0  0  0999 V2000
  181.7470  177.1880  137.3830 C   0  0  0  0  0  2  0  0  0  0  0  0
  184.2710  178.4240  140.6160 C   0  0  0  0  0  0  0  0  0  0  0  0
  181.2610  175.8200  136.9560 C   0  0  1  0  0  3  0  0  0  0  0  0
  186.3270  177.3440  137.6240 C   0  0  0  0  0  2  0  0  0  0  0  0
  182.2550  179.0960  141.8220 C   0  0  0  0  0  0  0  0  0  0  0  0
  184.7090  178.2600  139.3680 C   0  0  0  0  0  0  0  0  0  0  0  0
  183.8910  177.0240  135.4040 C   0  0  1  0  0  3  0  0  0  0  0  0
  182.9260  178.9610  140.6580 C   0  0  0  0  0  0  0  0  0  0  0  0
  186.1130  177.9050  139.0010 C   0  0  0  0  0  0  0  0  0  0  0  0
  182.9330  178.6950  143.0740 C   0  0  0  0  0  3  0  0  0  0  0  0
  182.0190  175.4270  135.7050 C   0  0  0  0  0  2  0  0  0  0  0  0
  182.5320  179.1440  139.2330 C   0  0  0  0  0  0  0  0  0  0  0  0
  182.5610  180.6290  138.9030 C   0  0  0  0  0  2  0  0  0  0  0  0
  186.2180  179.0280  141.9310 C   0  0  0  0  0  3  0  0  0  0  0  0
  184.1990  178.2520  143.0960 C   0  0  0  0  0  3  0  0  0  0  0  0
  181.2940  179.8400  138.6900 C   0  0  0  0  0  2  0  0  0  0  0  0
  183.5370  175.5920  135.8220 C   0  0  2  0  0  3  0  0  0  0  0  0
  185.4440  176.1390  137.3680 C   0  0  0  0  0  2  0  0  0  0  0  0
  185.0490  178.1180  141.8550 C   0  0  1  0  0  3  0  0  0  0  0  0
  183.5890  178.4460  138.3540 C   0  0  2  0  0  3  0  0  0  0  0  0
  187.2100  178.2400  139.7490 C   0  0  0  0  0  0  0  0  0  0  0  0
  184.0780  176.5900  136.8580 C   0  0  1  0  0  0  0  0  0  0  0  0
  185.1760  177.0030  134.5940 C   0  0  0  0  0  1  0  0  0  0  0  0
  183.1300  177.1170  137.8770 N   0  0  2  0  0  0  0  0  0  0  0  0
  187.1660  179.0490  140.9960 C   0  0  0  0  0  3  0  0  0  0  0  0
  188.8240  177.6180  138.0020 C   0  0  0  0  0  3  0  0  0  0  0  0
  188.5850  177.9180  139.2880 C   0  0  0  0  0  0  0  0  0  0  0  0
  189.6900  177.8240  140.2690 C   0  0  0  0  0  3  0  0  0  0  0  0
  191.8750  177.1860  140.8770 O   0  0  0  0  0  1  0  0  0  0  0  0
  191.0300  176.6010  138.5960 C   0  0  0  0  0  2  0  0  0  0  0  0
  190.8510  177.2460  139.9440 C   0  0  0  0  0  0  0  0  0  0  0  0
  190.2200  177.3340  137.5230 C   0  0  0  0  0  2  0  0  0  0  0  0
  180.2390  179.6740  143.1110 C   0  0  0  0  0  3  0  0  0  0  0  0
  180.8690  179.5720  141.9500 C   0  0  0  0  0  3  0  0  0  0  0  0
  178.9310  180.1330  143.1520 O   0  0  0  0  0  1  0  0  0  0  0  0
  180.3500  175.0040  138.8010 C   0  0  0  0  0  1  0  0  0  0  0  0
  181.4650  174.8810  137.9710 O   0  0  0  0  0  0  0  0  0  0  0  0
  2  8  1  0  0  0  0
  2 19  1  0  0  0  0
  3  1  1  0  0  0  0
  3 37  1  1  0  0  0
  4  9  1  0  0  0  0
  5 34  1  0  0  0  0
  5 10  1  0  0  0  0
  6  2  2  0  0  0  0
  7 23  1  6  0  0  0
  7 17  1  0  0  0  0
  7 22  1  0  0  0  0
  8  5  2  0  0  0  0
  9  6  1  0  0  0  0
  9 21  2  0  0  0  0
 10 15  2  0  0  0  0
 11  3  1  0  0  0  0
 12  8  1  0  0  0  0
 13 12  1  0  0  0  0
 16 13  1  0  0  0  0
 16 12  1  0  0  0  0
 17 11  1  1  0  0  0
 17 22  1  0  0  0  0
 18  4  1  0  0  0  0
 19 14  1  1  0  0  0
 19 15  1  0  0  0  0
 20 12  1  0  0  0  0
 20  6  1  1  0  0  0
 21 25  1  0  0  0  0
 22 18  1  1  0  0  0
 22 24  1  0  0  0  0
 24  1  1  6  0  0  0
 24 20  1  0  0  0  0
 25 14  2  0  0  0  0
 26 27  2  0  0  0  0
 27 21  1  0  0  0  0
 27 28  1  0  0  0  0
 30 31  1  0  0  0  0
 31 28  2  0  0  0  0
 31 29  1  0  0  0  0
 32 26  1  0  0  0  0
 32 30  1  0  0  0  0
 33 35  1  0  0  0  0
 34 33  2  0  0  0  0
 37 36  1  0  0  0  0
M  END
>  <MODEL>
2

>  <REMARK>
 VINA RESULT:      -5.8      1.923      2.305
  Name = 
  3 active torsions:
  status: ('A' for Active; 'I' for Inactive)
    1  A    between atoms: C_5  and  O_23
    2  A    between atoms: C_6  and  C_31
    3  A    between atoms: C_9  and  C_30
                            x       y       z     vdW  Elec       q    Type
                         _______ _______ _______ _____ _____    ______ ____

>  <TORSDO>
F 3

$$$$
=
 OpenBabel11052415143D

 37 44  0  0  1  0  0  0  0  0999 V2000
  180.1660  175.1370  137.3330 C   0  0  0  0  0  2  0  0  0  0  0  0
  183.7570  177.4510  137.6400 C   0  0  0  0  0  0  0  0  0  0  0  0
  179.5620  174.0940  138.2490 C   0  0  1  0  0  3  0  0  0  0  0  0
  184.4600  174.0440  136.1400 C   0  0  0  0  0  2  0  0  0  0  0  0
  182.3830  179.3300  138.3800 C   0  0  0  0  0  0  0  0  0  0  0  0
  183.6630  176.3410  136.9080 C   0  0  0  0  0  0  0  0  0  0  0  0
  181.3430  173.0070  135.7150 C   0  0  1  0  0  3  0  0  0  0  0  0
  182.5360  178.2290  137.6130 C   0  0  0  0  0  0  0  0  0  0  0  0
  184.8080  175.4360  136.5870 C   0  0  0  0  0  0  0  0  0  0  0  0
  183.5090  179.7440  139.2470 C   0  0  0  0  0  3  0  0  0  0  0  0
  179.7630  172.7370  137.6040 C   0  0  0  0  0  2  0  0  0  0  0  0
  181.6050  177.4680  136.7350 C   0  0  0  0  0  0  0  0  0  0  0  0
  181.4860  178.1940  135.4020 C   0  0  0  0  0  2  0  0  0  0  0  0
  186.0610  178.1840  137.4430 C   0  0  0  0  0  3  0  0  0  0  0  0
  184.6830  179.0960  139.2600 C   0  0  0  0  0  3  0  0  0  0  0  0
  180.2460  177.9090  136.2120 C   0  0  0  0  0  2  0  0  0  0  0  0
  181.2000  172.4760  137.1450 C   0  0  2  0  0  3  0  0  0  0  0  0
  183.5600  173.3450  137.1390 C   0  0  0  0  0  2  0  0  0  0  0  0
  184.9670  177.8870  138.4010 C   0  0  1  0  0  3  0  0  0  0  0  0
  182.2300  176.0860  136.4630 C   0  0  2  0  0  3  0  0  0  0  0  0
  186.1090  175.8500  136.4850 C   0  0  0  0  0  0  0  0  0  0  0  0
  182.1000  173.6870  136.8570 C   0  0  1  0  0  0  0  0  0  0  0  0
  182.2000  172.0460  134.9080 C   0  0  0  0  0  1  0  0  0  0  0  0
  181.6310  175.0250  137.3130 N   0  0  2  0  0  0  0  0  0  0  0  0
  186.5580  177.2610  136.6210 C   0  0  0  0  0  3  0  0  0  0  0  0
  187.0460  174.1110  135.0210 C   0  0  0  0  0  3  0  0  0  0  0  0
  187.1890  174.9090  136.0900 C   0  0  0  0  0  0  0  0  0  0  0  0
  188.3940  174.7700  136.9400 C   0  0  0  0  0  3  0  0  0  0  0  0
  190.3560  173.6380  137.5880 O   0  0  0  0  0  1  0  0  0  0  0  0
  188.9090  172.6390  135.8080 C   0  0  0  0  0  2  0  0  0  0  0  0
  189.2250  173.7350  136.7890 C   0  0  0  0  0  0  0  0  0  0  0  0
  188.1530  173.1890  134.5950 C   0  0  0  0  0  2  0  0  0  0  0  0
  181.0740  181.3810  138.0030 C   0  0  0  0  0  3  0  0  0  0  0  0
  181.1590  180.1410  138.4620 C   0  0  0  0  0  3  0  0  0  0  0  0
  179.8840  182.0840  138.1150 O   0  0  0  0  0  1  0  0  0  0  0  0
  179.1520  174.5530  140.3750 C   0  0  0  0  0  1  0  0  0  0  0  0
  180.1640  174.1330  139.5100 O   0  0  0  0  0  0  0  0  0  0  0  0
  1  3  1  0  0  0  0
  2 19  1  0  0  0  0
  3 37  1  1  0  0  0
  4  9  1  0  0  0  0
  4 18  1  0  0  0  0
  5 34  1  0  0  0  0
  5 10  1  0  0  0  0
  6  2  2  0  0  0  0
  7 23  1  6  0  0  0
  7 22  1  0  0  0  0
  7 17  1  0  0  0  0
  8  2  1  0  0  0  0
  8  5  2  0  0  0  0
  9  6  1  0  0  0  0
 10 15  2  0  0  0  0
 11  3  1  0  0  0  0
 12  8  1  0  0  0  0
 13 16  1  0  0  0  0
 13 12  1  0  0  0  0
 16 12  1  0  0  0  0
 17 11  1  1  0  0  0
 19 14  1  6  0  0  0
 19 15  1  0  0  0  0
 20 12  1  0  0  0  0
 20  6  1  1  0  0  0
 20 24  1  0  0  0  0
 21  9  2  0  0  0  0
 21 25  1  0  0  0  0
 22 18  1  1  0  0  0
 22 17  1  0  0  0  0
 22 24  1  0  0  0  0
 24  1  1  6  0  0  0
 25 14  2  0  0  0  0
 26 27  2  0  0  0  0
 27 21  1  0  0  0  0
 27 28  1  0  0  0  0
 30 31  1  0  0  0  0
 31 28  2  0  0  0  0
 31 29  1  0  0  0  0
 32 26  1  0  0  0  0
 32 30  1  0  0  0  0
 33 35  1  0  0  0  0
 33 34  2  0  0  0  0
 37 36  1  0  0  0  0
M  END
>  <MODEL>
3

>  <REMARK>
 VINA RESULT:      -5.5      2.575      3.703
  Name = 
  3 active torsions:
  status: ('A' for Active; 'I' for Inactive)
    1  A    between atoms: C_5  and  O_23
    2  A    between atoms: C_6  and  C_31
    3  A    between atoms: C_9  and  C_30
                            x       y       z     vdW  Elec       q    Type
                         _______ _______ _______ _____ _____    ______ ____

>  <TORSDO>
F 3

$$$$
=
 OpenBabel11052415143D

 37 44  0  0  1  0  0  0  0  0999 V2000
  187.1180  178.8260  140.1090 C   0  0  0  0  0  2  0  0  0  0  0  0
  187.3010  175.6860  137.2010 C   0  0  0  0  0  0  0  0  0  0  0  0
  186.8100  178.8050  141.5910 C   0  0  1  0  0  3  0  0  0  0  0  0
  183.7440  176.9040  137.6630 C   0  0  0  0  0  2  0  0  0  0  0  0
  189.7340  175.7550  137.4020 C   0  0  0  0  0  0  0  0  0  0  0  0
  186.2390  176.4750  137.3590 C   0  0  0  0  0  0  0  0  0  0  0  0
  184.3410  179.5530  139.5610 C   0  0  1  0  0  3  0  0  0  0  0  0
  188.5460  176.3970  137.4030 C   0  0  2  0  0  3  0  0  0  0  0  0
  184.8340  176.0840  137.0330 C   0  0  0  0  0  0  0  0  0  0  0  0
  189.7430  174.2940  137.1700 C   0  0  0  0  0  3  0  0  0  0  0  0
  185.4210  179.3780  141.7850 C   0  0  0  0  0  2  0  0  0  0  0  0
  188.1510  177.7990  137.7120 C   0  0  0  0  0  0  0  0  0  0  0  0
  188.4490  178.6710  136.5000 C   0  0  0  0  0  2  0  0  0  0  0  0
  186.6940  174.0920  135.4760 C   0  0  0  0  0  3  0  0  0  0  0  0
  188.6250  173.6000  136.9140 C   0  0  0  0  0  3  0  0  0  0  0  0
  189.0550  179.0170  137.8380 C   0  0  0  0  0  2  0  0  0  0  0  0
  184.3610  178.7570  140.8710 C   0  0  2  0  0  3  0  0  0  0  0  0
  183.8900  176.9640  139.1700 C   0  0  0  0  0  2  0  0  0  0  0  0
  187.2570  174.2360  136.8420 C   0  0  0  0  0  0  0  0  0  0  0  0
  186.6280  177.8240  137.9470 C   0  0  2  0  0  3  0  0  0  0  0  0
  184.4940  175.1770  136.0650 C   0  0  0  0  0  0  0  0  0  0  0  0
  184.8280  178.1020  139.5610 C   0  0  1  0  0  0  0  0  0  0  0  0
  182.9040  179.7090  139.0940 C   0  0  0  0  0  1  0  0  0  0  0  0
  186.2850  177.8500  139.3910 N   0  0  2  0  0  0  0  0  0  0  0  0
  185.4650  174.5000  135.1660 C   0  0  0  0  0  3  0  0  0  0  0  0
  182.3670  175.7130  134.9550 C   0  0  0  0  0  3  0  0  0  0  0  0
  183.0720  174.8890  135.7440 C   0  0  0  0  0  0  0  0  0  0  0  0
  182.3910  173.7390  136.3820 C   0  0  0  0  0  3  0  0  0  0  0  0
  180.4470  172.5340  136.9500 O   0  0  0  0  0  1  0  0  0  0  0  0
  180.2150  174.7230  135.7590 C   0  0  0  0  0  2  0  0  0  0  0  0
  181.0590  173.6310  136.3600 C   0  0  0  0  0  0  0  0  0  0  0  0
  180.9420  175.4020  134.5950 C   0  0  0  0  0  2  0  0  0  0  0  0
  192.1740  175.7080  137.7340 C   0  0  0  0  0  3  0  0  0  0  0  0
  191.0380  176.3870  137.6610 C   0  0  0  0  0  3  0  0  0  0  0  0
  193.3650  176.3730  137.9800 O   0  0  0  0  0  1  0  0  0  0  0  0
  188.2070  177.3460  142.4970 C   0  0  0  0  0  1  0  0  0  0  0  0
  186.8800  177.5030  142.0940 O   0  0  0  0  0  0  0  0  0  0  0  0
  1  3  1  0  0  0  0
  2  6  2  0  0  0  0
  3 11  1  0  0  0  0
  3 37  1  6  0  0  0
  4 18  1  0  0  0  0
  5  8  1  0  0  0  0
  5 34  1  0  0  0  0
  7 23  1  6  0  0  0
  7 22  1  0  0  0  0
  7 17  1  0  0  0  0
  8  2  1  1  0  0  0
  8 12  1  0  0  0  0
  9  6  1  0  0  0  0
  9  4  1  0  0  0  0
 10  5  2  0  0  0  0
 12 16  1  0  0  0  0
 12 20  1  0  0  0  0
 13 12  1  0  0  0  0
 13 16  1  0  0  0  0
 14 19  1  0  0  0  0
 15 10  1  0  0  0  0
 17 11  1  1  0  0  0
 19 15  2  0  0  0  0
 19  2  1  0  0  0  0
 20  6  1  1  0  0  0
 20 24  1  0  0  0  0
 21  9  2  0  0  0  0
 22 18  1  6  0  0  0
 22 17  1  0  0  0  0
 24 22  1  0  0  0  0
 24  1  1  1  0  0  0
 25 14  2  0  0  0  0
 25 21  1  0  0  0  0
 26 27  2  0  0  0  0
 27 21  1  0  0  0  0
 27 28  1  0  0  0  0
 30 31  1  0  0  0  0
 31 28  2  0  0  0  0
 31 29  1  0  0  0  0
 32 26  1  0  0  0  0
 32 30  1  0  0  0  0
 33 35  1  0  0  0  0
 34 33  2  0  0  0  0
 37 36  1  0  0  0  0
M  END
>  <MODEL>
4

>  <REMARK>
 VINA RESULT:      -5.4      2.873      7.844
  Name = 
  3 active torsions:
  status: ('A' for Active; 'I' for Inactive)
    1  A    between atoms: C_5  and  O_23
    2  A    between atoms: C_6  and  C_31
    3  A    between atoms: C_9  and  C_30
                            x       y       z     vdW  Elec       q    Type
                         _______ _______ _______ _____ _____    ______ ____

>  <TORSDO>
F 3

$$$$
=
 OpenBabel11052415143D

 37 44  0  0  1  0  0  0  0  0999 V2000
  191.3070  177.0840  145.9870 C   0  0  0  0  0  2  0  0  0  0  0  0
  189.1880  177.7540  142.3250 C   0  0  0  0  0  0  0  0  0  0  0  0
  191.4450  175.8530  146.8560 C   0  0  1  0  0  3  0  0  0  0  0  0
  186.9020  178.1830  145.3150 C   0  0  0  0  0  2  0  0  0  0  0  0
  191.3170  177.5300  141.1490 C   0  0  0  0  0  0  0  0  0  0  0  0
  188.7100  178.1010  143.5200 C   0  0  0  0  0  0  0  0  0  0  0  0
  189.1680  178.0510  147.7280 C   0  0  1  0  0  3  0  0  0  0  0  0
  190.6220  177.9310  142.2360 C   0  0  2  0  0  3  0  0  0  0  0  0
  187.2590  178.2100  143.8560 C   0  0  0  0  0  0  0  0  0  0  0  0
  190.5750  176.9130  140.0280 C   0  0  0  0  0  3  0  0  0  0  0  0
  190.6020  176.0630  148.0970 C   0  0  0  0  0  2  0  0  0  0  0  0
  191.0350  178.4670  143.5620 C   0  0  0  0  0  0  0  0  0  0  0  0
  191.3620  179.9460  143.4140 C   0  0  0  0  0  2  0  0  0  0  0  0
  187.4570  178.3270  140.7250 C   0  0  0  0  0  3  0  0  0  0  0  0
  189.2400  176.7840  140.0350 C   0  0  0  0  0  3  0  0  0  0  0  0
  192.3990  179.0030  143.9690 C   0  0  0  0  0  2  0  0  0  0  0  0
  189.1700  176.5200  147.8040 C   0  0  2  0  0  3  0  0  0  0  0  0
  187.4660  176.9570  146.0060 C   0  0  0  0  0  2  0  0  0  0  0  0
  188.3710  177.2500  141.1790 C   0  0  0  0  0  0  0  0  0  0  0  0
  189.8330  178.3450  144.5190 C   0  0  2  0  0  3  0  0  0  0  0  0
  186.2820  178.5250  142.9490 C   0  0  0  0  0  0  0  0  0  0  0  0
  188.8950  177.2270  146.4680 C   0  0  1  0  0  0  0  0  0  0  0  0
  187.9070  178.5820  148.3900 C   0  0  0  0  0  1  0  0  0  0  0  0
  189.9530  177.1720  145.4210 N   0  0  2  0  0  0  0  0  0  0  0  0
  186.5320  178.8590  141.5230 C   0  0  0  0  0  3  0  0  0  0  0  0
  184.5260  178.6470  144.6650 C   0  0  0  0  0  3  0  0  0  0  0  0
  184.8660  178.6870  143.3680 C   0  0  0  0  0  0  0  0  0  0  0  0
  183.8010  178.7890  142.3430 C   0  0  0  0  0  3  0  0  0  0  0  0
  181.5360  178.7460  141.6940 O   0  0  0  0  0  1  0  0  0  0  0  0
  182.1270  178.2530  144.0750 C   0  0  0  0  0  2  0  0  0  0  0  0
  182.5150  178.6280  142.6700 C   0  0  0  0  0  0  0  0  0  0  0  0
  183.1000  178.8530  145.0940 C   0  0  0  0  0  2  0  0  0  0  0  0
  193.4790  176.8020  140.2230 C   0  0  0  0  0  3  0  0  0  0  0  0
  192.7780  177.6150  141.0010 C   0  0  0  0  0  3  0  0  0  0  0  0
  194.8560  176.9440  140.1330 O   0  0  0  0  0  1  0  0  0  0  0  0
  192.0550  174.4490  145.2570 C   0  0  0  0  0  1  0  0  0  0  0  0
  191.0300  174.7100  146.1670 O   0  0  0  0  0  0  0  0  0  0  0  0
  1  3  1  0  0  0  0
  2  6  2  0  0  0  0
  3 37  1  6  0  0  0
  3 11  1  0  0  0  0
  4 18  1  0  0  0  0
  6  9  1  0  0  0  0
  7 17  1  0  0  0  0
  7 23  1  1  0  0  0
  8  5  1  1  0  0  0
  8  2  1  0  0  0  0
  8 12  1  0  0  0  0
  9  4  1  0  0  0  0
 10 15  1  0  0  0  0
 10  5  2  0  0  0  0
 12 16  1  0  0  0  0
 12 20  1  0  0  0  0
 13 12  1  0  0  0  0
 13 16  1  0  0  0  0
 14 19  1  0  0  0  0
 14 25  2  0  0  0  0
 15 19  2  0  0  0  0
 17 11  1  6  0  0  0
 19  2  1  0  0  0  0
 20  6  1  6  0  0  0
 20 24  1  0  0  0  0
 21 27  1  0  0  0  0
 21  9  2  0  0  0  0
 22 18  1  6  0  0  0
 22  7  1  0  0  0  0
 22 17  1  0  0  0  0
 24  1  1  1  0  0  0
 24 22  1  0  0  0  0
 25 21  1  0  0  0  0
 26 32  1  0  0  0  0
 27 26  2  0  0  0  0
 28 31  2  0  0  0  0
 28 27  1  0  0  0  0
 29 31  1  0  0  0  0
 30 32  1  0  0  0  0
 31 30  1  0  0  0  0
 33 34  2  0  0  0  0
 34  5  1  0  0  0  0
 35 33  1  0  0  0  0
 36 37  1  0  0  0  0
M  END
>  <MODEL>
5

>  <REMARK>
 VINA RESULT:      -4.7      5.473     10.442
  Name = 
  3 active torsions:
  status: ('A' for Active; 'I' for Inactive)
    1  A    between atoms: C_5  and  O_23
    2  A    between atoms: C_6  and  C_31
    3  A    between atoms: C_9  and  C_30
                            x       y       z     vdW  Elec       q    Type
                         _______ _______ _______ _____ _____    ______ ____

>  <TORSDO>
F 3

$$$$
=
 OpenBabel11052415143D

 37 44  0  0  1  0  0  0  0  0999 V2000
  188.7830  176.1030  136.3150 C   0  0  0  0  0  2  0  0  0  0  0  0
  186.5890  177.9420  139.5010 C   0  0  0  0  0  0  0  0  0  0  0  0
  189.1130  174.6540  136.0290 C   0  0  1  0  0  3  0  0  0  0  0  0
  190.1980  177.3580  140.4960 C   0  0  0  0  0  2  0  0  0  0  0  0
  184.6890  178.1210  137.9770 C   0  0  0  0  0  0  0  0  0  0  0  0
  187.9200  177.8750  139.4740 C   0  0  0  0  0  0  0  0  0  0  0  0
  191.4080  176.4390  137.5530 C   0  0  1  0  0  3  0  0  0  0  0  0
  186.0230  178.1400  138.1830 C   0  0  0  0  0  0  0  0  0  0  0  0
  188.7960  177.8650  140.6840 C   0  0  0  0  0  0  0  0  0  0  0  0
  183.8010  177.9080  139.1420 C   0  0  0  0  0  3  0  0  0  0  0  0
  190.5810  174.4420  136.3410 C   0  0  0  0  0  2  0  0  0  0  0  0
  187.1900  178.2090  137.2610 C   0  0  0  0  0  0  0  0  0  0  0  0
  187.3890  179.6540  136.8280 C   0  0  0  0  0  2  0  0  0  0  0  0
  186.0210  179.0090  141.6040 C   0  0  0  0  0  3  0  0  0  0  0  0
  184.2720  177.7830  140.3910 C   0  0  0  0  0  3  0  0  0  0  0  0
  187.1930  178.5810  135.7860 C   0  0  0  0  0  2  0  0  0  0  0  0
  191.0060  174.9690  137.7140 C   0  0  2  0  0  3  0  0  0  0  0  0
  190.2130  175.9740  139.8790 C   0  0  0  0  0  2  0  0  0  0  0  0
  185.7430  177.8440  140.7290 C   0  0  1  0  0  3  0  0  0  0  0  0
  188.4440  177.7760  138.0470 C   0  0  2  0  0  3  0  0  0  0  0  0
  188.4690  178.4610  141.8730 C   0  0  0  0  0  0  0  0  0  0  0  0
  190.1580  176.0770  138.3580 C   0  0  1  0  0  0  0  0  0  0  0  0
  192.6260  176.7200  138.4180 C   0  0  0  0  0  1  0  0  0  0  0  0
  188.8270  176.3710  137.7590 N   0  0  2  0  0  0  0  0  0  0  0  0
  187.2300  179.2480  142.1090 C   0  0  0  0  0  3  0  0  0  0  0  0
  190.6520  178.9870  142.8750 C   0  0  0  0  0  3  0  0  0  0  0  0
  189.4200  178.4750  143.0140 C   0  0  0  0  0  0  0  0  0  0  0  0
  189.0470  177.8240  144.2920 C   0  0  0  0  0  3  0  0  0  0  0  0
  189.5920  176.9560  146.4140 O   0  0  0  0  0  1  0  0  0  0  0  0
  191.4270  177.8200  144.9470 C   0  0  0  0  0  2  0  0  0  0  0  0
  189.9710  177.5500  145.2180 C   0  0  0  0  0  0  0  0  0  0  0  0
  191.6000  179.0410  144.0390 C   0  0  0  0  0  2  0  0  0  0  0  0
  183.6400  177.2130  135.9430 C   0  0  0  0  0  3  0  0  0  0  0  0
  184.0320  178.2510  136.6670 C   0  0  0  0  0  3  0  0  0  0  0  0
  183.0270  177.4140  134.7160 O   0  0  0  0  0  1  0  0  0  0  0  0
  188.3940  172.5640  136.1610 C   0  0  0  0  0  1  0  0  0  0  0  0
  188.3180  173.8020  136.8010 O   0  0  0  0  0  0  0  0  0  0  0  0
  2 19  1  0  0  0  0
  3  1  1  0  0  0  0
  3 11  1  0  0  0  0
  3 37  1  1  0  0  0
  4  9  1  0  0  0  0
  5  8  2  0  0  0  0
  5 10  1  0  0  0  0
  6  2  2  0  0  0  0
  6  9  1  0  0  0  0
  7 17  1  0  0  0  0
  7 22  1  0  0  0  0
  7 23  1  1  0  0  0
  8  2  1  0  0  0  0
  9 21  2  0  0  0  0
 10 15  2  0  0  0  0
 12 20  1  0  0  0  0
 12  8  1  0  0  0  0
 13 12  1  0  0  0  0
 14 25  2  0  0  0  0
 16 13  1  0  0  0  0
 16 12  1  0  0  0  0
 17 11  1  6  0  0  0
 17 22  1  0  0  0  0
 18  4  1  0  0  0  0
 19 15  1  6  0  0  0
 19 14  1  0  0  0  0
 20  6  1  1  0  0  0
 21 25  1  0  0  0  0
 21 27  1  0  0  0  0
 22 18  1  1  0  0  0
 24  1  1  6  0  0  0
 24 20  1  0  0  0  0
 24 22  1  0  0  0  0
 26 27  2  0  0  0  0
 26 32  1  0  0  0  0
 27 28  1  0  0  0  0
 28 31  2  0  0  0  0
 30 31  1  0  0  0  0
 31 29  1  0  0  0  0
 32 30  1  0  0  0  0
 33 34  2  0  0  0  0
 34  5  1  0  0  0  0
 35 33  1  0  0  0  0
 36 37  1  0  0  0  0
M  END
>  <MODEL>
6

>  <REMARK>
 VINA RESULT:      -4.5      3.758      7.550
  Name = 
  3 active torsions:
  status: ('A' for Active; 'I' for Inactive)
    1  A    between atoms: C_5  and  O_23
    2  A    between atoms: C_6  and  C_31
    3  A    between atoms: C_9  and  C_30
                            x       y       z     vdW  Elec       q    Type
                         _______ _______ _______ _____ _____    ______ ____

>  <TORSDO>
F 3

$$$$
