=
 OpenBabel11052416573D

 32 36  0  0  1  0  0  0  0  0999 V2000
  188.4440  177.6880  145.5070 C   0  0  0  0  0  0  0  0  0  0  0  0
  190.1270  176.6030  140.8270 C   0  0  2  0  0  3  0  0  0  0  0  0
  186.4660  178.0590  137.9140 C   0  0  0  0  0  3  0  0  0  0  0  0
  187.0910  177.4290  136.8380 C   0  0  0  0  0  3  0  0  0  0  0  0
  190.0180  177.0940  143.2710 C   0  0  0  0  0  0  0  0  0  0  0  0
  188.1760  177.7210  141.7810 N   0  0  0  0  0  2  0  0  0  0  0  0
  187.9070  177.8280  144.2220 C   0  0  0  0  0  3  0  0  0  0  0  0
  187.1120  178.1380  139.1490 C   0  0  0  0  0  3  0  0  0  0  0  0
  189.0960  177.7160  140.6430 C   0  0  2  0  0  3  0  0  0  0  0  0
  188.3860  177.5780  139.3230 C   0  0  0  0  0  0  0  0  0  0  0  0
  190.4140  176.3360  138.3590 C   0  0  2  0  0  3  0  0  0  0  0  0
  189.7670  177.2590  145.6710 C   0  0  0  0  0  3  0  0  0  0  0  0
  188.6950  177.5440  143.1040 C   0  0  0  0  0  0  0  0  0  0  0  0
  190.5550  176.9620  144.5540 C   0  0  0  0  0  3  0  0  0  0  0  0
  188.3710  176.8910  136.9900 C   0  0  0  0  0  3  0  0  0  0  0  0
  189.0460  176.9850  138.2170 C   0  0  0  0  0  0  0  0  0  0  0  0
  190.7950  176.7570  142.1170 N   0  0  0  0  0  2  0  0  0  0  0  0
  191.1190  176.6620  139.6830 C   0  0  0  0  0  2  0  0  0  0  0  0
  187.6020  177.9770  146.7010 C   0  0  0  0  0  2  0  0  0  0  0  0
  186.2030  177.4220  146.4990 C   0  0  0  0  0  2  0  0  0  0  0  0
  185.1680  178.5040  146.7480 C   0  0  2  0  0  3  0  0  0  0  0  0
  184.5370  178.9070  145.4320 C   0  0  0  0  0  1  0  0  0  0  0  0
  185.7750  179.6180  147.3280 O   0  0  0  0  0  1  0  0  0  0  0  0
  191.3270  176.7150  137.1990 C   0  0  0  0  0  2  0  0  0  0  0  0
  191.9940  175.5280  136.6690 N   0  0  0  0  0  0  0  0  0  0  0  0
  194.4210  175.2440  136.8530 C   0  0  1  0  0  3  0  0  0  0  0  0
  193.9840  174.3770  137.8610 O   0  0  0  0  0  1  0  0  0  0  0  0
  193.3080  175.9220  136.1600 C   0  0  2  0  0  3  0  0  0  0  0  0
  194.0630  176.6240  137.2110 N   0  0  0  0  0  2  0  0  0  0  0  0
  191.1870  174.9550  135.5820 C   0  0  0  0  0  2  0  0  0  0  0  0
  190.8490  173.4770  135.7880 C   0  0  0  0  0  2  0  0  0  0  0  0
  189.5700  173.3600  136.5890 C   0  0  0  0  0  1  0  0  0  0  0  0
  1 12  1  0  0  0  0
  1 19  1  0  0  0  0
  2 18  1  6  0  0  0
  2 17  1  0  0  0  0
  3  8  1  0  0  0  0
  4 15  1  0  0  0  0
  4  3  2  0  0  0  0
  5 14  1  0  0  0  0
  6 13  1  0  0  0  0
  7  1  2  0  0  0  0
  8 10  2  0  0  0  0
  9 10  1  6  0  0  0
  9  2  1  0  0  0  0
  9  6  1  0  0  0  0
 11 24  1  6  0  0  0
 11 18  1  0  0  0  0
 13  5  2  0  0  0  0
 13  7  1  0  0  0  0
 14 12  2  0  0  0  0
 15 16  2  0  0  0  0
 16 11  1  0  0  0  0
 16 10  1  0  0  0  0
 17  5  1  0  0  0  0
 20 19  1  0  0  0  0
 20 21  1  0  0  0  0
 21 22  1  6  0  0  0
 21 23  1  0  0  0  0
 25 24  1  0  0  0  0
 26 29  1  0  0  0  0
 26 27  1  1  0  0  0
 28 25  1  1  0  0  0
 28 26  1  0  0  0  0
 28 29  1  0  0  0  0
 30 31  1  0  0  0  0
 30 25  1  0  0  0  0
 31 32  1  0  0  0  0
M  END
>  <MODEL>
1

>  <REMARK>
 VINA RESULT:      -7.9      0.000      0.000
  Name = 
  8 active torsions:
  status: ('A' for Active; 'I' for Inactive)
    1  A    between atoms: C_1  and  C_10
    2  A    between atoms: C_2  and  C_24
    3  A    between atoms: C_6  and  C_7
    4  A    between atoms: C_7  and  N_32
    5  A    between atoms: C_10  and  C_24
    6  A    between atoms: C_16  and  C_27
    7  A    between atoms: C_22  and  N_32
    8  A    between atoms: C_27  and  N_32
                            x       y       z     vdW  Elec       q    Type
                         _______ _______ _______ _____ _____    ______ ____

>  <TORSDO>
F 8

$$$$
=
 OpenBabel11052416573D

 32 36  0  0  1  0  0  0  0  0999 V2000
  181.7360  178.7920  141.6350 C   0  0  0  0  0  0  0  0  0  0  0  0
  186.0660  177.9240  144.1700 C   0  0  2  0  0  3  0  0  0  0  0  0
  189.3790  177.2890  140.6160 C   0  0  0  0  0  3  0  0  0  0  0  0
  190.2970  176.8500  141.5700 C   0  0  0  0  0  3  0  0  0  0  0  0
  183.7500  178.6370  143.5720 C   0  0  0  0  0  0  0  0  0  0  0  0
  185.4230  178.2200  141.8310 N   0  0  0  0  0  2  0  0  0  0  0  0
  183.0540  178.5210  141.2490 C   0  0  0  0  0  3  0  0  0  0  0  0
  188.1420  177.7960  141.0170 C   0  0  0  0  0  3  0  0  0  0  0  0
  186.4920  178.4580  142.8030 C   0  0  2  0  0  3  0  0  0  0  0  0
  187.8060  177.8600  142.3770 C   0  0  0  0  0  0  0  0  0  0  0  0
  188.4330  177.4850  144.8370 C   0  0  2  0  0  3  0  0  0  0  0  0
  181.4300  178.9930  142.9880 C   0  0  0  0  0  3  0  0  0  0  0  0
  184.0630  178.4550  142.2130 C   0  0  0  0  0  0  0  0  0  0  0  0
  182.4360  178.9160  143.9560 C   0  0  0  0  0  3  0  0  0  0  0  0
  189.9860  176.9330  142.9290 C   0  0  0  0  0  3  0  0  0  0  0  0
  188.7580  177.4650  143.3520 C   0  0  0  0  0  0  0  0  0  0  0  0
  184.7860  178.5150  144.5530 N   0  0  0  0  0  2  0  0  0  0  0  0
  187.1470  178.2500  145.1800 C   0  0  0  0  0  2  0  0  0  0  0  0
  180.6570  178.8480  140.6110 C   0  0  0  0  0  2  0  0  0  0  0  0
  180.4890  180.2710  140.1080 C   0  0  0  0  0  2  0  0  0  0  0  0
  180.9820  180.3830  138.6770 C   0  0  2  0  0  3  0  0  0  0  0  0
  180.9480  179.0170  138.0270 C   0  0  0  0  0  1  0  0  0  0  0  0
  182.2890  180.8680  138.6610 O   0  0  0  0  0  1  0  0  0  0  0  0
  189.5890  178.0610  145.6470 C   0  0  0  0  0  2  0  0  0  0  0  0
  189.8520  177.2300  146.8190 N   0  0  0  0  0  0  0  0  0  0  0  0
  191.9800  176.0870  147.2300 C   0  0  1  0  0  3  0  0  0  0  0  0
  192.0430  177.1010  148.1920 O   0  0  0  0  0  1  0  0  0  0  0  0
  190.7440  176.1390  146.4250 C   0  0  2  0  0  3  0  0  0  0  0  0
  192.0000  176.6890  145.8890 N   0  0  0  0  0  2  0  0  0  0  0  0
  188.5860  176.6820  147.3280 C   0  0  0  0  0  2  0  0  0  0  0  0
  188.0310  177.4450  148.5320 C   0  0  0  0  0  2  0  0  0  0  0  0
  189.0280  178.4990  148.9640 C   0  0  0  0  0  1  0  0  0  0  0  0
  1 12  1  0  0  0  0
  2 17  1  0  0  0  0
  2 18  1  1  0  0  0
  3  8  2  0  0  0  0
  3  4  1  0  0  0  0
  4 15  2  0  0  0  0
  5 14  1  0  0  0  0
  5 17  1  0  0  0  0
  6 13  1  0  0  0  0
  7  1  2  0  0  0  0
  7 13  1  0  0  0  0
  8 10  1  0  0  0  0
  9  6  1  6  0  0  0
  9  2  1  0  0  0  0
 10  9  1  0  0  0  0
 10 16  2  0  0  0  0
 11 18  1  0  0  0  0
 11 24  1  1  0  0  0
 12 14  2  0  0  0  0
 13  5  2  0  0  0  0
 15 16  1  0  0  0  0
 16 11  1  0  0  0  0
 19  1  1  0  0  0  0
 20 19  1  0  0  0  0
 21 22  1  1  0  0  0
 21 20  1  0  0  0  0
 23 21  1  0  0  0  0
 24 25  1  0  0  0  0
 25 30  1  0  0  0  0
 26 27  1  1  0  0  0
 28 25  1  1  0  0  0
 28 26  1  0  0  0  0
 29 28  1  0  0  0  0
 29 26  1  0  0  0  0
 30 31  1  0  0  0  0
 31 32  1  0  0  0  0
M  END
>  <MODEL>
2

>  <REMARK>
 VINA RESULT:      -7.8      4.464      8.219
  Name = 
  8 active torsions:
  status: ('A' for Active; 'I' for Inactive)
    1  A    between atoms: C_1  and  C_10
    2  A    between atoms: C_2  and  C_24
    3  A    between atoms: C_6  and  C_7
    4  A    between atoms: C_7  and  N_32
    5  A    between atoms: C_10  and  C_24
    6  A    between atoms: C_16  and  C_27
    7  A    between atoms: C_22  and  N_32
    8  A    between atoms: C_27  and  N_32
                            x       y       z     vdW  Elec       q    Type
                         _______ _______ _______ _____ _____    ______ ____

>  <TORSDO>
F 8

$$$$
=
 OpenBabel11052416573D

 32 36  0  0  1  0  0  0  0  0999 V2000
  188.9970  177.2800  145.9010 C   0  0  0  0  0  0  0  0  0  0  0  0
  185.7720  178.0730  142.0430 C   0  0  2  0  0  3  0  0  0  0  0  0
  181.4700  178.8220  144.2670 C   0  0  0  0  0  3  0  0  0  0  0  0
  180.8330  178.7460  143.0280 C   0  0  0  0  0  3  0  0  0  0  0  0
  187.8420  177.8630  143.4200 C   0  0  0  0  0  0  0  0  0  0  0  0
  185.6530  178.1510  144.4820 N   0  0  0  0  0  2  0  0  0  0  0  0
  187.6250  177.5390  145.8170 C   0  0  0  0  0  3  0  0  0  0  0  0
  182.8640  178.8110  144.3380 C   0  0  0  0  0  3  0  0  0  0  0  0
  185.1380  178.7570  143.2530 C   0  0  2  0  0  3  0  0  0  0  0  0
  183.6350  178.7140  143.1700 C   0  0  0  0  0  0  0  0  0  0  0  0
  183.7800  178.5540  140.6140 C   0  0  2  0  0  3  0  0  0  0  0  0
  189.7910  177.3200  144.7470 C   0  0  0  0  0  3  0  0  0  0  0  0
  187.0480  177.8430  144.5800 C   0  0  0  0  0  0  0  0  0  0  0  0
  189.2150  177.6120  143.5060 C   0  0  0  0  0  3  0  0  0  0  0  0
  181.5900  178.6750  141.8560 C   0  0  0  0  0  3  0  0  0  0  0  0
  182.9920  178.6910  141.9070 C   0  0  0  0  0  0  0  0  0  0  0  0
  187.2270  178.1240  142.1530 N   0  0  0  0  0  2  0  0  0  0  0  0
  185.2910  178.7650  140.7840 C   0  0  0  0  0  2  0  0  0  0  0  0
  189.6110  176.9420  147.2150 C   0  0  0  0  0  2  0  0  0  0  0  0
  191.1240  177.0280  147.1210 C   0  0  0  0  0  2  0  0  0  0  0  0
  191.7460  175.6740  147.4050 C   0  0  2  0  0  3  0  0  0  0  0  0
  192.8590  175.8350  148.4180 C   0  0  0  0  0  1  0  0  0  0  0  0
  192.2680  175.1350  146.2290 O   0  0  0  0  0  1  0  0  0  0  0  0
  183.2590  179.5090  139.5470 C   0  0  0  0  0  2  0  0  0  0  0  0
  182.6780  178.7620  138.4350 N   0  0  0  0  0  0  0  0  0  0  0  0
  180.5370  179.3610  137.4030 C   0  0  1  0  0  3  0  0  0  0  0  0
  181.4290  179.7870  136.4120 O   0  0  0  0  0  1  0  0  0  0  0  0
  181.2210  178.7770  138.5740 C   0  0  2  0  0  3  0  0  0  0  0  0
  180.7380  180.1670  138.6150 N   0  0  0  0  0  2  0  0  0  0  0  0
  183.1680  177.3760  138.4640 C   0  0  0  0  0  2  0  0  0  0  0  0
  183.8270  176.9340  137.1560 C   0  0  0  0  0  2  0  0  0  0  0  0
  185.2300  177.4950  137.0840 C   0  0  0  0  0  1  0  0  0  0  0  0
  1 19  1  0  0  0  0
  2 18  1  6  0  0  0
  2 17  1  0  0  0  0
  2  9  1  0  0  0  0
  3  8  1  0  0  0  0
  4  3  2  0  0  0  0
  5 14  2  0  0  0  0
  5 13  1  0  0  0  0
  6 13  1  0  0  0  0
  7  1  1  0  0  0  0
  9 10  1  6  0  0  0
  9  6  1  0  0  0  0
 10  8  2  0  0  0  0
 11 24  1  6  0  0  0
 11 18  1  0  0  0  0
 11 16  1  0  0  0  0
 12  1  2  0  0  0  0
 13  7  2  0  0  0  0
 14 12  1  0  0  0  0
 15 16  2  0  0  0  0
 15  4  1  0  0  0  0
 16 10  1  0  0  0  0
 17  5  1  0  0  0  0
 20 19  1  0  0  0  0
 20 21  1  0  0  0  0
 21 22  1  1  0  0  0
 23 21  1  0  0  0  0
 25 30  1  0  0  0  0
 25 24  1  0  0  0  0
 26 27  1  6  0  0  0
 26 28  1  0  0  0  0
 26 29  1  0  0  0  0
 28 25  1  6  0  0  0
 28 29  1  0  0  0  0
 31 30  1  0  0  0  0
 32 31  1  0  0  0  0
M  END
>  <MODEL>
3

>  <REMARK>
 VINA RESULT:      -7.7      4.796      7.669
  Name = 
  8 active torsions:
  status: ('A' for Active; 'I' for Inactive)
    1  A    between atoms: C_1  and  C_10
    2  A    between atoms: C_2  and  C_24
    3  A    between atoms: C_6  and  C_7
    4  A    between atoms: C_7  and  N_32
    5  A    between atoms: C_10  and  C_24
    6  A    between atoms: C_16  and  C_27
    7  A    between atoms: C_22  and  N_32
    8  A    between atoms: C_27  and  N_32
                            x       y       z     vdW  Elec       q    Type
                         _______ _______ _______ _____ _____    ______ ____

>  <TORSDO>
F 8

$$$$
=
 OpenBabel11052416573D

 32 36  0  0  1  0  0  0  0  0999 V2000
  188.4690  177.7510  144.7850 C   0  0  0  0  0  0  0  0  0  0  0  0
  191.4440  176.7750  140.7710 C   0  0  2  0  0  3  0  0  0  0  0  0
  188.2700  176.3000  137.0680 C   0  0  0  0  0  3  0  0  0  0  0  0
  189.3040  175.8200  136.2630 C   0  0  0  0  0  3  0  0  0  0  0  0
  190.6170  177.5120  143.0060 C   0  0  0  0  0  0  0  0  0  0  0  0
  189.0620  177.1740  141.1420 N   0  0  0  0  0  2  0  0  0  0  0  0
  188.2250  177.4980  143.4300 C   0  0  0  0  0  3  0  0  0  0  0  0
  188.5490  176.7880  138.3450 C   0  0  0  0  0  3  0  0  0  0  0  0
  190.1600  177.3690  140.1940 C   0  0  2  0  0  3  0  0  0  0  0  0
  189.8630  176.7910  138.8350 C   0  0  0  0  0  0  0  0  0  0  0  0
  192.3590  176.3070  138.4940 C   0  0  2  0  0  3  0  0  0  0  0  0
  189.7850  177.8910  145.2460 C   0  0  0  0  0  3  0  0  0  0  0  0
  189.2960  177.3910  142.5380 C   0  0  0  0  0  0  0  0  0  0  0  0
  190.8590  177.7720  144.3580 C   0  0  0  0  0  3  0  0  0  0  0  0
  190.6200  175.8420  136.7280 C   0  0  0  0  0  3  0  0  0  0  0  0
  190.9220  176.3540  138.0000 C   0  0  0  0  0  0  0  0  0  0  0  0
  191.7030  177.3470  142.0890 N   0  0  0  0  0  2  0  0  0  0  0  0
  192.5850  177.0560  139.8140 C   0  0  0  0  0  2  0  0  0  0  0  0
  187.3310  177.8520  145.7400 C   0  0  0  0  0  2  0  0  0  0  0  0
  186.0620  178.2350  145.0000 C   0  0  0  0  0  2  0  0  0  0  0  0
  184.9300  178.4660  145.9840 C   0  0  2  0  0  3  0  0  0  0  0  0
  183.7230  179.0010  145.2430 C   0  0  0  0  0  1  0  0  0  0  0  0
  185.3220  179.3900  146.9510 O   0  0  0  0  0  1  0  0  0  0  0  0
  193.3220  176.8470  137.4420 C   0  0  0  0  0  2  0  0  0  0  0  0
  194.3440  175.8520  137.1290 N   0  0  0  0  0  0  0  0  0  0  0  0
  196.0210  175.9100  135.3430 C   0  0  1  0  0  3  0  0  0  0  0  0
  196.8470  175.9330  136.4730 O   0  0  0  0  0  1  0  0  0  0  0  0
  194.5850  175.8710  135.6860 C   0  0  2  0  0  3  0  0  0  0  0  0
  195.2210  177.1430  135.3020 N   0  0  0  0  0  2  0  0  0  0  0  0
  193.8760  174.5200  137.5400 C   0  0  0  0  0  2  0  0  0  0  0  0
  193.5660  173.5930  136.3640 C   0  0  0  0  0  2  0  0  0  0  0  0
  194.3060  172.2840  136.5450 C   0  0  0  0  0  1  0  0  0  0  0  0
  1 12  1  0  0  0  0
  1 19  1  0  0  0  0
  2 18  1  6  0  0  0
  2 17  1  0  0  0  0
  3  8  1  0  0  0  0
  4 15  1  0  0  0  0
  4  3  2  0  0  0  0
  5 14  1  0  0  0  0
  6 13  1  0  0  0  0
  7  1  2  0  0  0  0
  8 10  2  0  0  0  0
  9 10  1  6  0  0  0
  9  2  1  0  0  0  0
  9  6  1  0  0  0  0
 11 24  1  6  0  0  0
 11 18  1  0  0  0  0
 13  5  2  0  0  0  0
 13  7  1  0  0  0  0
 14 12  2  0  0  0  0
 15 16  2  0  0  0  0
 16 11  1  0  0  0  0
 16 10  1  0  0  0  0
 17  5  1  0  0  0  0
 20 19  1  0  0  0  0
 20 21  1  0  0  0  0
 21 22  1  6  0  0  0
 21 23  1  0  0  0  0
 25 24  1  0  0  0  0
 25 30  1  0  0  0  0
 26 28  1  0  0  0  0
 26 27  1  1  0  0  0
 28 25  1  1  0  0  0
 29 26  1  0  0  0  0
 29 28  1  0  0  0  0
 31 32  1  0  0  0  0
 31 30  1  0  0  0  0
M  END
>  <MODEL>
4

>  <REMARK>
 VINA RESULT:      -7.5      1.469      2.029
  Name = 
  8 active torsions:
  status: ('A' for Active; 'I' for Inactive)
    1  A    between atoms: C_1  and  C_10
    2  A    between atoms: C_2  and  C_24
    3  A    between atoms: C_6  and  C_7
    4  A    between atoms: C_7  and  N_32
    5  A    between atoms: C_10  and  C_24
    6  A    between atoms: C_16  and  C_27
    7  A    between atoms: C_22  and  N_32
    8  A    between atoms: C_27  and  N_32
                            x       y       z     vdW  Elec       q    Type
                         _______ _______ _______ _____ _____    ______ ____

>  <TORSDO>
F 8

$$$$
=
 OpenBabel11052416573D

 32 36  0  0  1  0  0  0  0  0999 V2000
  191.4200  176.3640  137.1480 C   0  0  0  0  0  0  0  0  0  0  0  0
  188.5450  177.2490  141.2550 C   0  0  2  0  0  3  0  0  0  0  0  0
  191.6800  176.7600  144.9890 C   0  0  0  0  0  3  0  0  0  0  0  0
  190.6050  176.7990  145.8780 C   0  0  0  0  0  3  0  0  0  0  0  0
  189.4060  177.1740  138.9150 C   0  0  0  0  0  0  0  0  0  0  0  0
  190.9150  176.8480  140.8180 N   0  0  0  0  0  2  0  0  0  0  0  0
  191.6660  176.3750  138.5260 C   0  0  0  0  0  3  0  0  0  0  0  0
  191.4710  176.9950  143.6290 C   0  0  0  0  0  3  0  0  0  0  0  0
  189.9770  177.5660  141.6820 C   0  0  2  0  0  3  0  0  0  0  0  0
  190.1830  177.2610  143.1420 C   0  0  0  0  0  0  0  0  0  0  0  0
  187.6780  177.6100  143.5710 C   0  0  2  0  0  3  0  0  0  0  0  0
  190.1700  176.7650  136.6570 C   0  0  0  0  0  3  0  0  0  0  0  0
  190.6660  176.7910  139.4090 C   0  0  0  0  0  0  0  0  0  0  0  0
  189.1640  177.1710  137.5380 C   0  0  0  0  0  3  0  0  0  0  0  0
  189.3220  177.0890  145.4100 C   0  0  0  0  0  3  0  0  0  0  0  0
  189.0980  177.3550  144.0500 C   0  0  0  0  0  0  0  0  0  0  0  0
  188.3750  177.5480  139.8360 N   0  0  0  0  0  2  0  0  0  0  0  0
  187.5900  178.0620  142.1060 C   0  0  0  0  0  2  0  0  0  0  0  0
  192.4790  175.9080  136.2070 C   0  0  0  0  0  2  0  0  0  0  0  0
  193.8410  176.3750  136.6870 C   0  0  0  0  0  2  0  0  0  0  0  0
  194.7680  175.1890  136.8720 C   0  0  2  0  0  3  0  0  0  0  0  0
  194.0280  173.9150  136.5230 C   0  0  0  0  0  1  0  0  0  0  0  0
  195.1970  175.1230  138.1970 O   0  0  0  0  0  1  0  0  0  0  0  0
  186.9730  178.6340  144.4530 C   0  0  0  0  0  2  0  0  0  0  0  0
  185.7600  178.0590  145.0290 N   0  0  0  0  0  0  0  0  0  0  0  0
  183.7610  179.0400  144.0060 C   0  0  1  0  0  3  0  0  0  0  0  0
  184.0210  177.9950  143.1120 O   0  0  0  0  0  1  0  0  0  0  0  0
  184.7410  179.1070  145.1080 C   0  0  2  0  0  3  0  0  0  0  0  0
  184.8630  180.0110  143.9520 N   0  0  0  0  0  2  0  0  0  0  0  0
  186.0510  177.5430  146.3750 C   0  0  0  0  0  2  0  0  0  0  0  0
  186.4230  178.6340  147.3800 C   0  0  0  0  0  2  0  0  0  0  0  0
  187.5660  178.1530  148.2470 C   0  0  0  0  0  1  0  0  0  0  0  0
  1  7  1  0  0  0  0
  2  9  1  0  0  0  0
  2 18  1  1  0  0  0
  3  4  1  0  0  0  0
  5 13  1  0  0  0  0
  5 17  1  0  0  0  0
  7 13  2  0  0  0  0
  8  3  2  0  0  0  0
  9  6  1  6  0  0  0
  9 10  1  0  0  0  0
 10  8  1  0  0  0  0
 10 16  2  0  0  0  0
 11 16  1  0  0  0  0
 11 24  1  1  0  0  0
 12  1  2  0  0  0  0
 12 14  1  0  0  0  0
 13  6  1  0  0  0  0
 14  5  2  0  0  0  0
 15  4  2  0  0  0  0
 16 15  1  0  0  0  0
 17  2  1  0  0  0  0
 18 11  1  0  0  0  0
 19 20  1  0  0  0  0
 19  1  1  0  0  0  0
 20 21  1  0  0  0  0
 21 22  1  1  0  0  0
 21 23  1  0  0  0  0
 24 25  1  0  0  0  0
 25 30  1  0  0  0  0
 26 27  1  6  0  0  0
 26 28  1  0  0  0  0
 28 25  1  6  0  0  0
 29 26  1  0  0  0  0
 29 28  1  0  0  0  0
 30 31  1  0  0  0  0
 31 32  1  0  0  0  0
M  END
>  <MODEL>
5

>  <REMARK>
 VINA RESULT:      -7.5      2.049      9.534
  Name = 
  8 active torsions:
  status: ('A' for Active; 'I' for Inactive)
    1  A    between atoms: C_1  and  C_10
    2  A    between atoms: C_2  and  C_24
    3  A    between atoms: C_6  and  C_7
    4  A    between atoms: C_7  and  N_32
    5  A    between atoms: C_10  and  C_24
    6  A    between atoms: C_16  and  C_27
    7  A    between atoms: C_22  and  N_32
    8  A    between atoms: C_27  and  N_32
                            x       y       z     vdW  Elec       q    Type
                         _______ _______ _______ _____ _____    ______ ____

>  <TORSDO>
F 8

$$$$
=
 OpenBabel11052416573D

 32 36  0  0  1  0  0  0  0  0999 V2000
  190.1720  177.5320  141.4250 C   0  0  0  0  0  0  0  0  0  0  0  0
  185.3510  178.4800  140.0900 C   0  0  2  0  0  3  0  0  0  0  0  0
  183.0290  178.9240  144.3820 C   0  0  0  0  0  3  0  0  0  0  0  0
  181.8080  178.9120  143.7060 C   0  0  0  0  0  3  0  0  0  0  0  0
  187.8350  178.2460  140.0600 C   0  0  0  0  0  0  0  0  0  0  0  0
  186.6140  178.3840  142.1790 N   0  0  0  0  0  2  0  0  0  0  0  0
  188.9880  177.7490  142.1390 C   0  0  0  0  0  3  0  0  0  0  0  0
  184.2250  178.9560  143.6630 C   0  0  0  0  0  3  0  0  0  0  0  0
  185.5070  179.0560  141.4960 C   0  0  2  0  0  3  0  0  0  0  0  0
  184.2130  178.9670  142.2610 C   0  0  0  0  0  0  0  0  0  0  0  0
  182.9060  178.9910  140.0530 C   0  0  2  0  0  3  0  0  0  0  0  0
  190.1870  177.6800  140.0310 C   0  0  0  0  0  3  0  0  0  0  0  0
  187.8230  178.1180  141.4610 C   0  0  0  0  0  0  0  0  0  0  0  0
  189.0200  178.0370  139.3480 C   0  0  0  0  0  3  0  0  0  0  0  0
  181.7820  178.9500  142.3100 C   0  0  0  0  0  3  0  0  0  0  0  0
  182.9750  179.0100  141.5720 C   0  0  0  0  0  0  0  0  0  0  0  0
  186.6210  178.5740  139.3750 N   0  0  0  0  0  2  0  0  0  0  0  0
  184.2570  179.2420  139.3690 C   0  0  0  0  0  2  0  0  0  0  0  0
  191.4100  177.1250  142.1430 C   0  0  0  0  0  2  0  0  0  0  0  0
  191.0540  176.3410  143.3940 C   0  0  0  0  0  2  0  0  0  0  0  0
  191.4810  177.1070  144.6330 C   0  0  2  0  0  3  0  0  0  0  0  0
  190.3320  177.1470  145.6180 C   0  0  0  0  0  1  0  0  0  0  0  0
  191.8360  178.4100  144.2870 O   0  0  0  0  0  1  0  0  0  0  0  0
  181.8880  180.0000  139.5350 C   0  0  0  0  0  2  0  0  0  0  0  0
  181.0870  179.4100  138.4650 N   0  0  0  0  0  0  0  0  0  0  0  0
  179.7270  180.8280  137.0000 C   0  0  1  0  0  3  0  0  0  0  0  0
  180.8180  180.5660  136.1640 O   0  0  0  0  0  1  0  0  0  0  0  0
  179.8550  180.1880  138.3240 C   0  0  2  0  0  3  0  0  0  0  0  0
  180.1800  181.6140  138.1570 N   0  0  0  0  0  2  0  0  0  0  0  0
  180.7640  178.0170  138.8030 C   0  0  0  0  0  2  0  0  0  0  0  0
  179.4390  177.8630  139.5530 C   0  0  0  0  0  2  0  0  0  0  0  0
  179.5470  176.7190  140.5380 C   0  0  0  0  0  1  0  0  0  0  0  0
  1  7  1  0  0  0  0
  1 19  1  0  0  0  0
  2 18  1  6  0  0  0
  2  9  1  0  0  0  0
  4  3  1  0  0  0  0
  5 13  1  0  0  0  0
  8  3  2  0  0  0  0
  9  6  1  1  0  0  0
  9 10  1  0  0  0  0
 10  8  1  0  0  0  0
 11 24  1  6  0  0  0
 11 16  1  0  0  0  0
 12  1  2  0  0  0  0
 13  7  2  0  0  0  0
 13  6  1  0  0  0  0
 14 12  1  0  0  0  0
 14  5  2  0  0  0  0
 15  4  2  0  0  0  0
 16 10  2  0  0  0  0
 16 15  1  0  0  0  0
 17  5  1  0  0  0  0
 17  2  1  0  0  0  0
 18 11  1  0  0  0  0
 19 20  1  0  0  0  0
 20 21  1  0  0  0  0
 21 22  1  1  0  0  0
 23 21  1  0  0  0  0
 25 30  1  0  0  0  0
 25 24  1  0  0  0  0
 26 27  1  6  0  0  0
 26 29  1  0  0  0  0
 26 28  1  0  0  0  0
 28 25  1  6  0  0  0
 29 28  1  0  0  0  0
 30 31  1  0  0  0  0
 31 32  1  0  0  0  0
M  END
>  <MODEL>
6

>  <REMARK>
 VINA RESULT:      -7.2      4.842      8.598
  Name = 
  8 active torsions:
  status: ('A' for Active; 'I' for Inactive)
    1  A    between atoms: C_1  and  C_10
    2  A    between atoms: C_2  and  C_24
    3  A    between atoms: C_6  and  C_7
    4  A    between atoms: C_7  and  N_32
    5  A    between atoms: C_10  and  C_24
    6  A    between atoms: C_16  and  C_27
    7  A    between atoms: C_22  and  N_32
    8  A    between atoms: C_27  and  N_32
                            x       y       z     vdW  Elec       q    Type
                         _______ _______ _______ _____ _____    ______ ____

>  <TORSDO>
F 8

$$$$
=
 OpenBabel11052416573D

 32 36  0  0  1  0  0  0  0  0999 V2000
  188.5110  177.5370  143.7190 C   0  0  0  0  0  0  0  0  0  0  0  0
  184.5090  178.6250  140.7670 C   0  0  2  0  0  3  0  0  0  0  0  0
  180.7190  178.5180  143.8700 C   0  0  0  0  0  3  0  0  0  0  0  0
  179.8460  178.5860  142.7840 C   0  0  0  0  0  3  0  0  0  0  0  0
  186.8290  178.4070  141.6590 C   0  0  0  0  0  0  0  0  0  0  0  0
  184.8920  178.2730  143.1540 N   0  0  0  0  0  2  0  0  0  0  0  0
  187.1350  177.6570  143.9480 C   0  0  0  0  0  3  0  0  0  0  0  0
  182.0940  178.6440  143.6710 C   0  0  0  0  0  3  0  0  0  0  0  0
  184.0920  179.0210  142.1830 C   0  0  2  0  0  3  0  0  0  0  0  0
  182.6120  178.8310  142.3810 C   0  0  0  0  0  0  0  0  0  0  0  0
  182.2350  179.1270  139.8600 C   0  0  2  0  0  3  0  0  0  0  0  0
  189.0430  177.8580  142.4640 C   0  0  0  0  0  3  0  0  0  0  0  0
  186.2950  178.1040  142.9240 C   0  0  0  0  0  0  0  0  0  0  0  0
  188.2040  178.2940  141.4330 C   0  0  0  0  0  3  0  0  0  0  0  0
  180.3460  178.7980  141.4970 C   0  0  0  0  0  3  0  0  0  0  0  0
  181.7250  178.9550  141.2820 C   0  0  0  0  0  0  0  0  0  0  0  0
  185.9480  178.8130  140.6050 N   0  0  0  0  0  2  0  0  0  0  0  0
  183.7300  179.4660  139.7750 C   0  0  0  0  0  2  0  0  0  0  0  0
  189.4060  177.0480  144.8040 C   0  0  0  0  0  2  0  0  0  0  0  0
  189.2680  177.9310  146.0320 C   0  0  0  0  0  2  0  0  0  0  0  0
  189.3250  177.0890  147.2930 C   0  0  2  0  0  3  0  0  0  0  0  0
  188.6090  177.8150  148.4120 C   0  0  0  0  0  1  0  0  0  0  0  0
  190.6520  176.8720  147.6600 O   0  0  0  0  0  1  0  0  0  0  0  0
  181.4380  180.1880  139.1120 C   0  0  0  0  0  2  0  0  0  0  0  0
  181.1040  179.7210  137.7690 N   0  0  0  0  0  0  0  0  0  0  0  0
  179.6040  181.0040  136.3150 C   0  0  1  0  0  3  0  0  0  0  0  0
  180.8440  181.3190  135.7490 O   0  0  0  0  0  1  0  0  0  0  0  0
  179.7200  180.0990  137.4760 C   0  0  2  0  0  3  0  0  0  0  0  0
  179.5430  181.5460  137.6800 N   0  0  0  0  0  2  0  0  0  0  0  0
  181.2470  178.2590  137.7070 C   0  0  0  0  0  2  0  0  0  0  0  0
  181.9010  177.7650  136.4160 C   0  0  0  0  0  2  0  0  0  0  0  0
  183.3160  177.3140  136.7080 C   0  0  0  0  0  1  0  0  0  0  0  0
  1  7  1  0  0  0  0
  1 19  1  0  0  0  0
  2 18  1  6  0  0  0
  2  9  1  0  0  0  0
  4  3  2  0  0  0  0
  5 13  1  0  0  0  0
  8  3  1  0  0  0  0
  9 10  1  1  0  0  0
  9  6  1  0  0  0  0
 10  8  2  0  0  0  0
 11 24  1  1  0  0  0
 11 16  1  0  0  0  0
 12  1  2  0  0  0  0
 13  6  1  0  0  0  0
 13  7  2  0  0  0  0
 14  5  2  0  0  0  0
 14 12  1  0  0  0  0
 15  4  1  0  0  0  0
 16 15  2  0  0  0  0
 16 10  1  0  0  0  0
 17  2  1  0  0  0  0
 17  5  1  0  0  0  0
 18 11  1  0  0  0  0
 19 20  1  0  0  0  0
 20 21  1  0  0  0  0
 21 23  1  0  0  0  0
 21 22  1  1  0  0  0
 25 24  1  0  0  0  0
 26 27  1  6  0  0  0
 26 28  1  0  0  0  0
 26 29  1  0  0  0  0
 28 29  1  0  0  0  0
 28 25  1  6  0  0  0
 30 25  1  0  0  0  0
 31 32  1  0  0  0  0
 31 30  1  0  0  0  0
M  END
>  <MODEL>
7

>  <REMARK>
 VINA RESULT:      -7.2      5.000      8.356
  Name = 
  8 active torsions:
  status: ('A' for Active; 'I' for Inactive)
    1  A    between atoms: C_1  and  C_10
    2  A    between atoms: C_2  and  C_24
    3  A    between atoms: C_6  and  C_7
    4  A    between atoms: C_7  and  N_32
    5  A    between atoms: C_10  and  C_24
    6  A    between atoms: C_16  and  C_27
    7  A    between atoms: C_22  and  N_32
    8  A    between atoms: C_27  and  N_32
                            x       y       z     vdW  Elec       q    Type
                         _______ _______ _______ _____ _____    ______ ____

>  <TORSDO>
F 8

$$$$
=
 OpenBabel11052416573D

 32 36  0  0  1  0  0  0  0  0999 V2000
  181.5520  178.9860  141.4250 C   0  0  0  0  0  0  0  0  0  0  0  0
  185.7550  177.8800  144.0760 C   0  0  2  0  0  3  0  0  0  0  0  0
  189.2270  177.5130  140.6380 C   0  0  0  0  0  3  0  0  0  0  0  0
  190.0980  176.9900  141.5940 C   0  0  0  0  0  3  0  0  0  0  0  0
  183.4730  178.6580  143.4330 C   0  0  0  0  0  0  0  0  0  0  0  0
  185.2230  178.3720  141.7420 N   0  0  0  0  0  2  0  0  0  0  0  0
  182.8850  178.7370  141.0780 C   0  0  0  0  0  3  0  0  0  0  0  0
  187.9750  177.9940  141.0220 C   0  0  0  0  0  3  0  0  0  0  0  0
  186.2460  178.5210  142.7780 C   0  0  2  0  0  3  0  0  0  0  0  0
  187.5770  177.9490  142.3660 C   0  0  0  0  0  0  0  0  0  0  0  0
  188.0870  177.3700  144.8130 C   0  0  2  0  0  3  0  0  0  0  0  0
  181.1840  179.0770  142.7740 C   0  0  0  0  0  3  0  0  0  0  0  0
  183.8480  178.5850  142.0790 C   0  0  0  0  0  0  0  0  0  0  0  0
  182.1430  178.9140  143.7780 C   0  0  0  0  0  3  0  0  0  0  0  0
  189.7250  176.9640  142.9390 C   0  0  0  0  0  3  0  0  0  0  0  0
  188.4810  177.4690  143.3480 C   0  0  0  0  0  0  0  0  0  0  0  0
  184.4620  178.4470  144.4470 N   0  0  0  0  0  2  0  0  0  0  0  0
  186.7900  178.1140  145.1580 C   0  0  0  0  0  2  0  0  0  0  0  0
  180.5220  179.1340  140.3600 C   0  0  0  0  0  2  0  0  0  0  0  0
  181.0330  178.5510  139.0550 C   0  0  0  0  0  2  0  0  0  0  0  0
  180.8060  179.5310  137.9180 C   0  0  2  0  0  3  0  0  0  0  0  0
  181.2520  180.9120  138.3500 C   0  0  0  0  0  1  0  0  0  0  0  0
  179.4530  179.5670  137.5850 O   0  0  0  0  0  1  0  0  0  0  0  0
  189.2060  177.8680  145.7200 C   0  0  0  0  0  2  0  0  0  0  0  0
  189.2360  177.0990  146.9610 N   0  0  0  0  0  0  0  0  0  0  0  0
  188.3020  177.8800  149.0880 C   0  0  1  0  0  3  0  0  0  0  0  0
  187.3760  176.8870  148.7490 O   0  0  0  0  0  1  0  0  0  0  0  0
  189.3720  178.0300  148.0820 C   0  0  2  0  0  3  0  0  0  0  0  0
  188.2340  178.9640  148.0970 N   0  0  0  0  0  2  0  0  0  0  0  0
  190.3780  176.1730  146.9380 C   0  0  0  0  0  2  0  0  0  0  0  0
  191.6050  176.7000  147.6840 C   0  0  0  0  0  2  0  0  0  0  0  0
  192.6730  175.6280  147.7180 C   0  0  0  0  0  1  0  0  0  0  0  0
  1 12  1  0  0  0  0
  2 17  1  0  0  0  0
  2 18  1  1  0  0  0
  3  8  2  0  0  0  0
  3  4  1  0  0  0  0
  4 15  2  0  0  0  0
  5 14  1  0  0  0  0
  5 17  1  0  0  0  0
  6 13  1  0  0  0  0
  7  1  2  0  0  0  0
  7 13  1  0  0  0  0
  8 10  1  0  0  0  0
  9  6  1  6  0  0  0
  9  2  1  0  0  0  0
 10  9  1  0  0  0  0
 10 16  2  0  0  0  0
 11 18  1  0  0  0  0
 11 24  1  1  0  0  0
 12 14  2  0  0  0  0
 13  5  2  0  0  0  0
 15 16  1  0  0  0  0
 16 11  1  0  0  0  0
 19  1  1  0  0  0  0
 20 19  1  0  0  0  0
 21 22  1  1  0  0  0
 21 20  1  0  0  0  0
 23 21  1  0  0  0  0
 24 25  1  0  0  0  0
 26 27  1  6  0  0  0
 28 25  1  6  0  0  0
 28 29  1  0  0  0  0
 28 26  1  0  0  0  0
 29 26  1  0  0  0  0
 30 25  1  0  0  0  0
 30 31  1  0  0  0  0
 31 32  1  0  0  0  0
M  END
>  <MODEL>
8

>  <REMARK>
 VINA RESULT:      -7.2      4.683      8.718
  Name = 
  8 active torsions:
  status: ('A' for Active; 'I' for Inactive)
    1  A    between atoms: C_1  and  C_10
    2  A    between atoms: C_2  and  C_24
    3  A    between atoms: C_6  and  C_7
    4  A    between atoms: C_7  and  N_32
    5  A    between atoms: C_10  and  C_24
    6  A    between atoms: C_16  and  C_27
    7  A    between atoms: C_22  and  N_32
    8  A    between atoms: C_27  and  N_32
                            x       y       z     vdW  Elec       q    Type
                         _______ _______ _______ _____ _____    ______ ____

>  <TORSDO>
F 8

$$$$
=
 OpenBabel11052416573D

 32 36  0  0  1  0  0  0  0  0999 V2000
  188.1650  177.9720  146.8810 C   0  0  0  0  0  0  0  0  0  0  0  0
  184.6360  178.8040  143.3080 C   0  0  2  0  0  3  0  0  0  0  0  0
  187.0810  178.2010  139.1050 C   0  0  0  0  0  3  0  0  0  0  0  0
  185.9860  178.7160  138.4110 C   0  0  0  0  0  3  0  0  0  0  0  0
  185.7690  178.2860  145.4700 C   0  0  0  0  0  0  0  0  0  0  0  0
  186.9710  178.0860  143.3440 N   0  0  0  0  0  2  0  0  0  0  0  0
  188.1780  177.9770  145.4820 C   0  0  0  0  0  3  0  0  0  0  0  0
  186.9890  177.9610  140.4770 C   0  0  0  0  0  3  0  0  0  0  0  0
  185.6970  177.9310  142.6400 C   0  0  2  0  0  3  0  0  0  0  0  0
  185.8030  178.2440  141.1710 C   0  0  0  0  0  0  0  0  0  0  0  0
  183.3730  179.0670  141.1680 C   0  0  2  0  0  3  0  0  0  0  0  0
  186.9540  178.1170  147.5720 C   0  0  0  0  0  3  0  0  0  0  0  0
  186.9810  178.1210  144.7750 C   0  0  0  0  0  0  0  0  0  0  0  0
  185.7560  178.2730  146.8670 C   0  0  0  0  0  3  0  0  0  0  0  0
  184.7910  178.9760  139.0850 C   0  0  0  0  0  3  0  0  0  0  0  0
  184.6720  178.7160  140.4590 C   0  0  0  0  0  0  0  0  0  0  0  0
  184.5590  178.4850  144.7310 N   0  0  0  0  0  2  0  0  0  0  0  0
  183.3060  178.5700  142.6190 C   0  0  0  0  0  2  0  0  0  0  0  0
  189.4400  177.8330  147.6370 C   0  0  0  0  0  2  0  0  0  0  0  0
  190.0910  176.4980  147.3210 C   0  0  0  0  0  2  0  0  0  0  0  0
  191.5200  176.7060  146.8550 C   0  0  2  0  0  3  0  0  0  0  0  0
  191.5560  176.7240  145.3420 C   0  0  0  0  0  1  0  0  0  0  0  0
  192.3280  175.6710  147.3230 O   0  0  0  0  0  1  0  0  0  0  0  0
  182.1660  178.5380  140.4020 C   0  0  0  0  0  2  0  0  0  0  0  0
  181.2050  179.6110  140.1650 N   0  0  0  0  0  0  0  0  0  0  0  0
  179.1420  179.8040  141.4740 C   0  0  1  0  0  3  0  0  0  0  0  0
  179.9080  180.8220  142.0510 O   0  0  0  0  0  1  0  0  0  0  0  0
  179.8570  179.0890  140.3990 C   0  0  2  0  0  3  0  0  0  0  0  0
  179.7750  178.5060  141.7480 N   0  0  0  0  0  2  0  0  0  0  0  0
  181.3250  180.0810  138.7770 C   0  0  0  0  0  2  0  0  0  0  0  0
  181.8190  181.5240  138.6630 C   0  0  0  0  0  2  0  0  0  0  0  0
  180.7410  182.3780  138.0320 C   0  0  0  0  0  1  0  0  0  0  0  0
  1 12  1  0  0  0  0
  1 19  1  0  0  0  0
  2 18  1  6  0  0  0
  2 17  1  0  0  0  0
  3  8  1  0  0  0  0
  4 15  1  0  0  0  0
  4  3  2  0  0  0  0
  5 14  1  0  0  0  0
  6 13  1  0  0  0  0
  7  1  2  0  0  0  0
  8 10  2  0  0  0  0
  9 10  1  6  0  0  0
  9  2  1  0  0  0  0
  9  6  1  0  0  0  0
 11 24  1  6  0  0  0
 11 18  1  0  0  0  0
 13  5  2  0  0  0  0
 13  7  1  0  0  0  0
 14 12  2  0  0  0  0
 15 16  2  0  0  0  0
 16 11  1  0  0  0  0
 16 10  1  0  0  0  0
 17  5  1  0  0  0  0
 20 19  1  0  0  0  0
 21 22  1  6  0  0  0
 21 20  1  0  0  0  0
 21 23  1  0  0  0  0
 25 24  1  0  0  0  0
 26 29  1  0  0  0  0
 26 27  1  1  0  0  0
 28 25  1  1  0  0  0
 28 26  1  0  0  0  0
 28 29  1  0  0  0  0
 30 25  1  0  0  0  0
 31 30  1  0  0  0  0
 32 31  1  0  0  0  0
M  END
>  <MODEL>
9

>  <REMARK>
 VINA RESULT:      -7.0      4.690      8.352
  Name = 
  8 active torsions:
  status: ('A' for Active; 'I' for Inactive)
    1  A    between atoms: C_1  and  C_10
    2  A    between atoms: C_2  and  C_24
    3  A    between atoms: C_6  and  C_7
    4  A    between atoms: C_7  and  N_32
    5  A    between atoms: C_10  and  C_24
    6  A    between atoms: C_16  and  C_27
    7  A    between atoms: C_22  and  N_32
    8  A    between atoms: C_27  and  N_32
                            x       y       z     vdW  Elec       q    Type
                         _______ _______ _______ _____ _____    ______ ____

>  <TORSDO>
F 8

$$$$
