=
 OpenBabel11052415183D

 37 41  0  0  1  0  0  0  0  0999 V2000
  187.0580  176.5100  137.9700 C   0  0  0  0  0  2  0  0  0  0  0  0
  183.0590  173.8120  136.7870 C   0  0  2  0  0  3  0  0  0  0  0  0
  188.3670  175.8750  137.5360 C   0  0  0  0  0  2  0  0  0  0  0  0
  183.9860  177.3220  135.4760 O   0  0  0  0  0  0  0  0  0  0  0  0
  185.1040  172.6910  137.7880 C   0  0  0  0  0  2  0  0  0  0  0  0
  183.9960  174.8990  136.2380 C   0  0  1  0  0  3  0  0  0  0  0  0
  188.6410  177.4940  135.4950 C   0  0  0  0  0  0  0  0  0  0  0  0
  191.1390  176.1710  137.9800 N   0  0  0  0  0  1  0  0  0  0  0  0
  183.7970  172.4760  137.0140 C   0  0  2  0  0  3  0  0  0  0  0  0
  183.2190  176.2020  135.8800 C   0  0  1  0  0  3  0  0  0  0  0  0
  184.0660  171.7060  135.7250 C   0  0  0  0  0  1  0  0  0  0  0  0
  189.2030  176.7820  136.6720 C   0  0  0  0  0  0  0  0  0  0  0  0
  185.9440  173.8530  137.2230 C   0  0  2  0  0  3  0  0  0  0  0  0
  180.6770  174.7370  136.3040 C   0  0  0  0  0  3  0  0  0  0  0  0
  190.5150  176.8720  136.9070 C   0  0  0  0  0  3  0  0  0  0  0  0
  181.4710  172.7640  135.3000 O   0  0  0  0  0  0  0  0  0  0  0  0
  187.1880  177.8340  135.3690 C   0  0  0  0  0  2  0  0  0  0  0  0
  185.0230  176.8670  134.6430 C   0  0  0  0  0  2  0  0  0  0  0  0
  181.7220  173.7200  136.0780 C   0  0  0  0  0  0  0  0  0  0  0  0
  185.1290  175.0820  137.1720 N   0  0  1  0  0  0  0  0  0  0  0  0
  182.2130  176.5480  136.8950 N   0  0  0  0  0  0  0  0  0  0  0  0
  186.2970  176.6070  135.4620 C   0  0  2  0  0  3  0  0  0  0  0  0
  189.4180  177.9120  134.5940 O   0  0  0  0  0  0  0  0  0  0  0  0
  185.9460  176.2990  136.9360 C   0  0  2  0  0  3  0  0  0  0  0  0
  180.8990  175.9860  136.7290 C   0  0  0  0  0  3  0  0  0  0  0  0
  182.8200  176.7030  139.2180 C   0  0  0  0  0  3  0  0  0  0  0  0
  182.5100  177.3380  138.0760 C   0  0  0  0  0  0  0  0  0  0  0  0
  182.4130  178.8190  138.0170 C   0  0  0  0  0  3  0  0  0  0  0  0
  183.1540  179.7060  138.6980 C   0  0  0  0  0  3  0  0  0  0  0  0
  184.2070  178.3180  140.4720 C   0  0  0  0  0  3  0  0  0  0  0  0
  184.2180  179.3790  139.6660 C   0  0  0  0  0  3  0  0  0  0  0  0
  183.0530  177.3760  140.5330 C   0  0  0  0  0  2  0  0  0  0  0  0
  186.5660  173.5000  135.8650 C   0  0  0  0  0  2  0  0  0  0  0  0
  187.6610  172.4920  136.0010 C   0  0  0  0  0  0  0  0  0  0  0  0
  188.6040  172.6880  136.8560 N   0  0  0  0  0  2  0  0  0  0  0  0
  187.8250  171.4480  134.9410 C   0  0  0  0  0  2  0  0  0  0  0  0
  187.1960  170.2630  135.3350 O   0  0  0  0  0  1  0  0  0  0  0  0
  2 19  1  6  0  0  0
  2  9  1  0  0  0  0
  3  1  1  0  0  0  0
  4 10  1  0  0  0  0
  6  2  1  0  0  0  0
  6 20  1  0  0  0  0
  7 12  1  0  0  0  0
  9  5  1  0  0  0  0
 10  6  1  0  0  0  0
 10 21  1  0  0  0  0
 11  9  1  0  0  0  0
 12 15  2  0  0  0  0
 12  3  1  0  0  0  0
 13  5  1  0  0  0  0
 14 25  2  0  0  0  0
 15  8  1  0  0  0  0
 16 19  2  0  0  0  0
 17 22  1  0  0  0  0
 17  7  1  0  0  0  0
 18 22  1  0  0  0  0
 18  4  1  0  0  0  0
 19 14  1  0  0  0  0
 20 13  1  0  0  0  0
 21 27  1  0  0  0  0
 22 24  1  0  0  0  0
 23  7  2  0  0  0  0
 24 20  1  0  0  0  0
 24  1  1  0  0  0  0
 25 21  1  0  0  0  0
 26 32  1  0  0  0  0
 27 26  2  0  0  0  0
 28 27  1  0  0  0  0
 28 29  2  0  0  0  0
 29 31  1  0  0  0  0
 30 32  1  0  0  0  0
 31 30  2  0  0  0  0
 33 34  1  0  0  0  0
 33 13  1  0  0  0  0
 34 35  2  0  0  0  0
 36 37  1  0  0  0  0
 36 34  1  0  0  0  0
M  END
>  <MODEL>
1

>  <REMARK>
 VINA RESULT:      -5.6      0.000      0.000
  Name = 
  4 active torsions:
  status: ('A' for Active; 'I' for Inactive)
    1  A    between atoms: C_3  and  CA_21
    2  A    between atoms: C_6  and  N_31
    3  A    between atoms: C_20  and  C_25
    4  A    between atoms: CA_21  and  C_25
                            x       y       z     vdW  Elec       q    Type
                         _______ _______ _______ _____ _____    ______ ____

>  <TORSDO>
F 4

$$$$
=
 OpenBabel11052415183D

 37 41  0  0  1  0  0  0  0  0999 V2000
  184.3540  179.3920  138.6160 C   0  0  0  0  0  2  0  0  0  0  0  0
  181.8000  179.0820  142.8640 C   0  0  2  0  0  3  0  0  0  0  0  0
  185.7920  178.9200  138.7370 C   0  0  0  0  0  2  0  0  0  0  0  0
  181.1350  177.1530  139.5870 O   0  0  0  0  0  0  0  0  0  0  0  0
  184.1610  180.0140  142.8590 C   0  0  0  0  0  2  0  0  0  0  0  0
  182.1790  178.2740  141.6130 C   0  0  1  0  0  3  0  0  0  0  0  0
  185.2940  176.6370  137.5540 C   0  0  0  0  0  0  0  0  0  0  0  0
  188.2040  179.0080  137.2720 N   0  0  0  0  0  1  0  0  0  0  0  0
  183.0340  179.4310  143.7220 C   0  0  2  0  0  3  0  0  0  0  0  0
  180.9190  177.8060  140.8250 C   0  0  1  0  0  3  0  0  0  0  0  0
  183.5530  178.2540  144.5420 C   0  0  0  0  0  1  0  0  0  0  0  0
  186.1430  177.8410  137.7470 C   0  0  0  0  0  0  0  0  0  0  0  0
  184.4200  179.1890  141.5840 C   0  0  2  0  0  3  0  0  0  0  0  0
  179.2330  178.7270  143.0840 C   0  0  0  0  0  3  0  0  0  0  0  0
  187.3070  177.9140  137.0940 C   0  0  0  0  0  3  0  0  0  0  0  0
  180.7390  177.9570  144.7190 O   0  0  0  0  0  0  0  0  0  0  0  0
  183.8280  176.6200  137.8580 C   0  0  0  0  0  2  0  0  0  0  0  0
  182.2370  176.2920  139.7320 C   0  0  0  0  0  2  0  0  0  0  0  0
  180.5980  178.5470  143.6160 C   0  0  0  0  0  0  0  0  0  0  0  0
  183.1660  179.0390  140.8200 N   0  0  1  0  0  0  0  0  0  0  0  0
  179.8970  178.8600  140.7320 N   0  0  0  0  0  0  0  0  0  0  0  0
  183.5320  176.9970  139.3000 C   0  0  2  0  0  3  0  0  0  0  0  0
  185.7940  175.6030  137.0330 O   0  0  0  0  0  0  0  0  0  0  0  0
  183.3950  178.5300  139.4440 C   0  0  2  0  0  3  0  0  0  0  0  0
  178.9310  178.9270  141.7970 C   0  0  0  0  0  3  0  0  0  0  0  0
  179.7990  181.1600  140.0340 C   0  0  0  0  0  3  0  0  0  0  0  0
  179.8810  179.8650  139.6860 C   0  0  0  0  0  0  0  0  0  0  0  0
  179.9000  179.4480  138.2600 C   0  0  0  0  0  3  0  0  0  0  0  0
  180.4610  180.1030  137.2330 C   0  0  0  0  0  3  0  0  0  0  0  0
  180.8510  182.3770  138.1590 C   0  0  0  0  0  3  0  0  0  0  0  0
  181.1680  181.3950  137.3160 C   0  0  0  0  0  3  0  0  0  0  0  0
  179.6740  182.2970  139.0700 C   0  0  0  0  0  2  0  0  0  0  0  0
  185.0830  177.8410  141.9010 C   0  0  0  0  0  2  0  0  0  0  0  0
  186.4760  178.0150  142.4140 C   0  0  0  0  0  0  0  0  0  0  0  0
  187.3560  178.6020  141.6790 N   0  0  0  0  0  2  0  0  0  0  0  0
  186.9120  177.2370  143.6160 C   0  0  0  0  0  2  0  0  0  0  0  0
  187.9000  176.3150  143.2570 O   0  0  0  0  0  1  0  0  0  0  0  0
  1  3  1  0  0  0  0
  1 24  1  0  0  0  0
  2 19  1  1  0  0  0
  2  9  1  0  0  0  0
  4 18  1  0  0  0  0
  4 10  1  0  0  0  0
  5  9  1  0  0  0  0
  6  2  1  0  0  0  0
  7 12  1  0  0  0  0
  7 17  1  0  0  0  0
  9 11  1  0  0  0  0
 10  6  1  0  0  0  0
 12  3  1  0  0  0  0
 13 33  1  0  0  0  0
 13  5  1  0  0  0  0
 14 19  1  0  0  0  0
 15  8  1  0  0  0  0
 15 12  2  0  0  0  0
 17 22  1  0  0  0  0
 19 16  2  0  0  0  0
 20 13  1  0  0  0  0
 20  6  1  0  0  0  0
 21 10  1  0  0  0  0
 21 25  1  0  0  0  0
 22 24  1  0  0  0  0
 22 18  1  0  0  0  0
 23  7  2  0  0  0  0
 24 20  1  0  0  0  0
 25 14  2  0  0  0  0
 27 26  2  0  0  0  0
 27 21  1  0  0  0  0
 28 27  1  0  0  0  0
 29 31  1  0  0  0  0
 29 28  2  0  0  0  0
 30 32  1  0  0  0  0
 31 30  2  0  0  0  0
 32 26  1  0  0  0  0
 33 34  1  0  0  0  0
 34 36  1  0  0  0  0
 35 34  2  0  0  0  0
 37 36  1  0  0  0  0
M  END
>  <MODEL>
2

>  <REMARK>
 VINA RESULT:      -5.2      3.857      6.635
  Name = 
  4 active torsions:
  status: ('A' for Active; 'I' for Inactive)
    1  A    between atoms: C_3  and  CA_21
    2  A    between atoms: C_6  and  N_31
    3  A    between atoms: C_20  and  C_25
    4  A    between atoms: CA_21  and  C_25
                            x       y       z     vdW  Elec       q    Type
                         _______ _______ _______ _____ _____    ______ ____

>  <TORSDO>
F 4

$$$$
=
 OpenBabel11052415183D

 37 41  0  0  1  0  0  0  0  0999 V2000
  191.3440  174.8190  137.9510 C   0  0  0  0  0  2  0  0  0  0  0  0
  186.4970  175.2970  136.9780 C   0  0  2  0  0  3  0  0  0  0  0  0
  192.0220  173.7350  137.1320 C   0  0  0  0  0  2  0  0  0  0  0  0
  189.2760  177.9070  136.3690 O   0  0  0  0  0  0  0  0  0  0  0  0
  187.5200  172.9920  137.2670 C   0  0  0  0  0  2  0  0  0  0  0  0
  187.8810  175.7890  136.5260 C   0  0  1  0  0  3  0  0  0  0  0  0
  193.1470  175.4610  135.5140 C   0  0  0  0  0  0  0  0  0  0  0  0
  194.4510  172.2970  137.0800 N   0  0  0  0  0  1  0  0  0  0  0  0
  186.3160  173.7830  136.7370 C   0  0  2  0  0  3  0  0  0  0  0  0
  188.0070  177.3390  136.6420 C   0  0  1  0  0  3  0  0  0  0  0  0
  186.0540  173.4300  135.2760 C   0  0  0  0  0  1  0  0  0  0  0  0
  193.2110  174.2400  136.3580 C   0  0  0  0  0  0  0  0  0  0  0  0
  188.8680  173.6010  136.8370 C   0  0  2  0  0  3  0  0  0  0  0  0
  185.0990  177.4780  137.2020 C   0  0  0  0  0  3  0  0  0  0  0  0
  194.3320  173.5130  136.3450 C   0  0  0  0  0  3  0  0  0  0  0  0
  184.5630  175.8150  135.6280 O   0  0  0  0  0  0  0  0  0  0  0  0
  192.1660  176.5660  135.7590 C   0  0  0  0  0  2  0  0  0  0  0  0
  189.8290  177.2340  135.2660 C   0  0  0  0  0  2  0  0  0  0  0  0
  185.3440  176.1800  136.5440 C   0  0  0  0  0  0  0  0  0  0  0  0
  188.9270  175.0210  137.2360 N   0  0  1  0  0  0  0  0  0  0  0  0
  187.4180  177.8540  137.8870 N   0  0  0  0  0  0  0  0  0  0  0  0
  190.7270  176.0790  135.7350 C   0  0  2  0  0  3  0  0  0  0  0  0
  194.0000  175.6300  134.6020 O   0  0  0  0  0  0  0  0  0  0  0  0
  190.2960  175.5840  137.1350 C   0  0  2  0  0  3  0  0  0  0  0  0
  186.0200  178.1950  137.8550 C   0  0  0  0  0  3  0  0  0  0  0  0
  187.4580  178.0460  140.2850 C   0  0  0  0  0  3  0  0  0  0  0  0
  188.1490  177.9430  139.1380 C   0  0  0  0  0  0  0  0  0  0  0  0
  189.6340  177.9730  139.1250 C   0  0  0  0  0  3  0  0  0  0  0  0
  190.4610  177.4750  140.0560 C   0  0  0  0  0  3  0  0  0  0  0  0
  188.9620  177.1080  142.0050 C   0  0  0  0  0  3  0  0  0  0  0  0
  190.0520  176.8010  141.3030 C   0  0  0  0  0  3  0  0  0  0  0  0
  188.0690  178.2430  141.6350 C   0  0  0  0  0  2  0  0  0  0  0  0
  189.1330  173.3980  135.3380 C   0  0  0  0  0  2  0  0  0  0  0  0
  189.5260  171.9890  135.0310 C   0  0  0  0  0  0  0  0  0  0  0  0
  190.7600  171.7110  134.7860 N   0  0  0  0  0  2  0  0  0  0  0  0
  188.4600  170.9920  134.6980 C   0  0  0  0  0  2  0  0  0  0  0  0
  188.8660  169.7110  135.0840 O   0  0  0  0  0  1  0  0  0  0  0  0
  2 19  1  6  0  0  0
  3  1  1  0  0  0  0
  4 10  1  0  0  0  0
  6 10  1  0  0  0  0
  6  2  1  0  0  0  0
  6 20  1  0  0  0  0
  7 17  1  0  0  0  0
  7 12  1  0  0  0  0
  9  2  1  0  0  0  0
  9  5  1  0  0  0  0
 10 21  1  0  0  0  0
 11  9  1  0  0  0  0
 12  3  1  0  0  0  0
 13 20  1  0  0  0  0
 13  5  1  0  0  0  0
 14 25  2  0  0  0  0
 15 12  2  0  0  0  0
 15  8  1  0  0  0  0
 16 19  2  0  0  0  0
 18 22  1  0  0  0  0
 18  4  1  0  0  0  0
 19 14  1  0  0  0  0
 21 27  1  0  0  0  0
 22 17  1  0  0  0  0
 22 24  1  0  0  0  0
 23  7  2  0  0  0  0
 24 20  1  0  0  0  0
 24  1  1  0  0  0  0
 25 21  1  0  0  0  0
 26 32  1  0  0  0  0
 27 26  2  0  0  0  0
 28 27  1  0  0  0  0
 28 29  2  0  0  0  0
 29 31  1  0  0  0  0
 31 30  2  0  0  0  0
 32 30  1  0  0  0  0
 33 13  1  0  0  0  0
 34 33  1  0  0  0  0
 35 34  2  0  0  0  0
 36 34  1  0  0  0  0
 36 37  1  0  0  0  0
M  END
>  <MODEL>
3

>  <REMARK>
 VINA RESULT:      -5.0      2.745      4.668
  Name = 
  4 active torsions:
  status: ('A' for Active; 'I' for Inactive)
    1  A    between atoms: C_3  and  CA_21
    2  A    between atoms: C_6  and  N_31
    3  A    between atoms: C_20  and  C_25
    4  A    between atoms: CA_21  and  C_25
                            x       y       z     vdW  Elec       q    Type
                         _______ _______ _______ _____ _____    ______ ____

>  <TORSDO>
F 4

$$$$
=
 OpenBabel11052415183D

 37 41  0  0  1  0  0  0  0  0999 V2000
  189.4450  175.3180  138.0780 C   0  0  0  0  0  2  0  0  0  0  0  0
  184.5880  176.3070  137.7670 C   0  0  2  0  0  3  0  0  0  0  0  0
  189.9310  174.3290  137.0330 C   0  0  0  0  0  2  0  0  0  0  0  0
  187.5160  178.7630  137.2260 O   0  0  0  0  0  0  0  0  0  0  0  0
  185.4180  173.9150  137.5900 C   0  0  0  0  0  2  0  0  0  0  0  0
  185.9560  176.7590  137.2320 C   0  0  1  0  0  3  0  0  0  0  0  0
  191.0330  176.1980  135.5660 C   0  0  0  0  0  0  0  0  0  0  0  0
  192.1970  172.7390  136.4820 N   0  0  0  0  0  1  0  0  0  0  0  0
  184.2440  174.8680  137.3280 C   0  0  2  0  0  3  0  0  0  0  0  0
  186.2360  178.2560  137.5600 C   0  0  1  0  0  3  0  0  0  0  0  0
  183.7970  174.7690  135.8730 C   0  0  0  0  0  1  0  0  0  0  0  0
  191.0730  174.8590  136.2060 C   0  0  0  0  0  0  0  0  0  0  0  0
  186.7640  174.4800  137.0970 C   0  0  2  0  0  3  0  0  0  0  0  0
  183.4290  178.5240  138.4760 C   0  0  0  0  0  3  0  0  0  0  0  0
  192.1140  174.0600  135.9540 C   0  0  0  0  0  3  0  0  0  0  0  0
  182.5780  177.1740  136.7480 O   0  0  0  0  0  0  0  0  0  0  0  0
  190.1890  177.3220  136.0860 C   0  0  0  0  0  2  0  0  0  0  0  0
  187.8850  178.2320  135.9770 C   0  0  0  0  0  2  0  0  0  0  0  0
  183.4830  177.3310  137.6080 C   0  0  0  0  0  0  0  0  0  0  0  0
  186.9960  175.8120  137.6920 N   0  0  1  0  0  0  0  0  0  0  0  0
  185.8330  178.6120  138.9290 N   0  0  0  0  0  0  0  0  0  0  0  0
  188.7170  176.9540  136.1600 C   0  0  2  0  0  3  0  0  0  0  0  0
  191.7970  176.4450  134.5940 O   0  0  0  0  0  0  0  0  0  0  0  0
  188.3930  176.2800  137.5130 C   0  0  2  0  0  3  0  0  0  0  0  0
  184.4770  179.0580  139.1130 C   0  0  0  0  0  3  0  0  0  0  0  0
  186.1350  178.2810  141.2920 C   0  0  0  0  0  3  0  0  0  0  0  0
  186.6960  178.4480  140.0830 C   0  0  0  0  0  0  0  0  0  0  0  0
  188.1710  178.5230  139.9190 C   0  0  0  0  0  3  0  0  0  0  0  0
  189.0970  177.8580  140.6240 C   0  0  0  0  0  3  0  0  0  0  0  0
  187.8240  177.0350  142.5950 C   0  0  0  0  0  3  0  0  0  0  0  0
  188.8310  176.9190  141.7310 C   0  0  0  0  0  3  0  0  0  0  0  0
  186.8910  178.1980  142.5800 C   0  0  0  0  0  2  0  0  0  0  0  0
  186.8490  174.4960  135.5640 C   0  0  0  0  0  2  0  0  0  0  0  0
  186.9350  173.1150  135.0000 C   0  0  0  0  0  0  0  0  0  0  0  0
  185.8640  172.5220  134.6010 N   0  0  0  0  0  2  0  0  0  0  0  0
  188.1920  172.3250  135.1980 C   0  0  0  0  0  2  0  0  0  0  0  0
  187.9170  171.1650  135.9290 O   0  0  0  0  0  1  0  0  0  0  0  0
  2 19  1  6  0  0  0
  3  1  1  0  0  0  0
  4 10  1  0  0  0  0
  6 10  1  0  0  0  0
  6 20  1  0  0  0  0
  6  2  1  0  0  0  0
  7 17  1  0  0  0  0
  7 12  1  0  0  0  0
  9  5  1  0  0  0  0
  9  2  1  0  0  0  0
 10 21  1  0  0  0  0
 11  9  1  0  0  0  0
 12  3  1  0  0  0  0
 13  5  1  0  0  0  0
 13 20  1  0  0  0  0
 14 25  2  0  0  0  0
 15 12  2  0  0  0  0
 15  8  1  0  0  0  0
 16 19  2  0  0  0  0
 17 22  1  0  0  0  0
 18 22  1  0  0  0  0
 18  4  1  0  0  0  0
 19 14  1  0  0  0  0
 21 25  1  0  0  0  0
 21 27  1  0  0  0  0
 22 24  1  0  0  0  0
 23  7  2  0  0  0  0
 24 20  1  0  0  0  0
 24  1  1  0  0  0  0
 26 32  1  0  0  0  0
 27 26  2  0  0  0  0
 28 27  1  0  0  0  0
 28 29  2  0  0  0  0
 29 31  1  0  0  0  0
 31 30  2  0  0  0  0
 32 30  1  0  0  0  0
 33 13  1  0  0  0  0
 34 36  1  0  0  0  0
 34 33  1  0  0  0  0
 35 34  2  0  0  0  0
 36 37  1  0  0  0  0
M  END
>  <MODEL>
4

>  <REMARK>
 VINA RESULT:      -4.5      2.300      3.661
  Name = 
  4 active torsions:
  status: ('A' for Active; 'I' for Inactive)
    1  A    between atoms: C_3  and  CA_21
    2  A    between atoms: C_6  and  N_31
    3  A    between atoms: C_20  and  C_25
    4  A    between atoms: CA_21  and  C_25
                            x       y       z     vdW  Elec       q    Type
                         _______ _______ _______ _____ _____    ______ ____

>  <TORSDO>
F 4

$$$$
=
 OpenBabel11052415183D

 37 41  0  0  1  0  0  0  0  0999 V2000
  185.5380  178.8650  138.0170 C   0  0  0  0  0  2  0  0  0  0  0  0
  182.8040  179.2300  142.1480 C   0  0  2  0  0  3  0  0  0  0  0  0
  186.9040  178.2430  138.2470 C   0  0  0  0  0  2  0  0  0  0  0  0
  182.0400  177.1080  139.0160 O   0  0  0  0  0  0  0  0  0  0  0  0
  185.2580  179.8790  142.1790 C   0  0  0  0  0  2  0  0  0  0  0  0
  183.1330  178.2760  140.9890 C   0  0  1  0  0  3  0  0  0  0  0  0
  186.1820  175.9360  137.2360 C   0  0  0  0  0  0  0  0  0  0  0  0
  189.3630  177.9200  136.8980 N   0  0  0  0  0  1  0  0  0  0  0  0
  184.0380  179.5080  143.0330 C   0  0  2  0  0  3  0  0  0  0  0  0
  181.8560  177.8890  140.1830 C   0  0  1  0  0  3  0  0  0  0  0  0
  184.3810  178.3570  143.9730 C   0  0  0  0  0  1  0  0  0  0  0  0
  187.1600  177.0460  137.3690 C   0  0  0  0  0  0  0  0  0  0  0  0
  185.4660  178.9200  140.9920 C   0  0  2  0  0  3  0  0  0  0  0  0
  180.2080  179.1940  142.2730 C   0  0  0  0  0  3  0  0  0  0  0  0
  188.3490  176.9270  136.7690 C   0  0  0  0  0  3  0  0  0  0  0  0
  181.5480  178.4040  144.0370 O   0  0  0  0  0  0  0  0  0  0  0  0
  184.7140  176.1160  137.4690 C   0  0  0  0  0  2  0  0  0  0  0  0
  183.0250  176.1420  139.2850 C   0  0  0  0  0  2  0  0  0  0  0  0
  181.5200  178.9060  142.8830 C   0  0  0  0  0  0  0  0  0  0  0  0
  184.2330  178.8480  140.1830 N   0  0  1  0  0  0  0  0  0  0  0  0
  180.9720  179.0410  139.9530 N   0  0  0  0  0  0  0  0  0  0  0  0
  184.4100  176.6510  138.8590 C   0  0  2  0  0  3  0  0  0  0  0  0
  186.5740  174.8090  136.8280 O   0  0  0  0  0  0  0  0  0  0  0  0
  184.4510  178.1960  138.8670 C   0  0  2  0  0  3  0  0  0  0  0  0
  179.9800  179.3130  140.9600 C   0  0  0  0  0  3  0  0  0  0  0  0
  180.4930  179.6470  137.6740 C   0  0  0  0  0  3  0  0  0  0  0  0
  181.1150  179.9450  138.8270 C   0  0  0  0  0  0  0  0  0  0  0  0
  181.9840  181.1440  138.9480 C   0  0  0  0  0  3  0  0  0  0  0  0
  181.8130  182.3310  138.3490 C   0  0  0  0  0  3  0  0  0  0  0  0
  180.1500  181.8290  136.5700 C   0  0  0  0  0  3  0  0  0  0  0  0
  180.7190  182.6800  137.4230 C   0  0  0  0  0  3  0  0  0  0  0  0
  180.6270  180.4260  136.4060 C   0  0  0  0  0  2  0  0  0  0  0  0
  185.9500  177.5380  141.4520 C   0  0  0  0  0  2  0  0  0  0  0  0
  187.3040  177.6060  142.0820 C   0  0  0  0  0  0  0  0  0  0  0  0
  188.2820  178.1390  141.4350 N   0  0  0  0  0  2  0  0  0  0  0  0
  187.5830  176.7830  143.3010 C   0  0  0  0  0  2  0  0  0  0  0  0
  188.8480  176.1960  143.2030 O   0  0  0  0  0  1  0  0  0  0  0  0
  1  3  1  0  0  0  0
  1 24  1  0  0  0  0
  2 19  1  1  0  0  0
  2  9  1  0  0  0  0
  4 18  1  0  0  0  0
  4 10  1  0  0  0  0
  5  9  1  0  0  0  0
  6  2  1  0  0  0  0
  7 12  1  0  0  0  0
  7 17  1  0  0  0  0
  9 11  1  0  0  0  0
 10  6  1  0  0  0  0
 12  3  1  0  0  0  0
 13 33  1  0  0  0  0
 13  5  1  0  0  0  0
 14 19  1  0  0  0  0
 15  8  1  0  0  0  0
 15 12  2  0  0  0  0
 17 22  1  0  0  0  0
 19 16  2  0  0  0  0
 20  6  1  0  0  0  0
 20 13  1  0  0  0  0
 21 10  1  0  0  0  0
 21 25  1  0  0  0  0
 22 24  1  0  0  0  0
 22 18  1  0  0  0  0
 23  7  2  0  0  0  0
 24 20  1  0  0  0  0
 25 14  2  0  0  0  0
 26 27  2  0  0  0  0
 27 28  1  0  0  0  0
 27 21  1  0  0  0  0
 29 28  2  0  0  0  0
 30 31  2  0  0  0  0
 31 29  1  0  0  0  0
 32 30  1  0  0  0  0
 32 26  1  0  0  0  0
 33 34  1  0  0  0  0
 34 36  1  0  0  0  0
 35 34  2  0  0  0  0
 37 36  1  0  0  0  0
M  END
>  <MODEL>
5

>  <REMARK>
 VINA RESULT:      -4.2      3.488      6.122
  Name = 
  4 active torsions:
  status: ('A' for Active; 'I' for Inactive)
    1  A    between atoms: C_3  and  CA_21
    2  A    between atoms: C_6  and  N_31
    3  A    between atoms: C_20  and  C_25
    4  A    between atoms: CA_21  and  C_25
                            x       y       z     vdW  Elec       q    Type
                         _______ _______ _______ _____ _____    ______ ____

>  <TORSDO>
F 4

$$$$
=
 OpenBabel11052415183D

 37 41  0  0  1  0  0  0  0  0999 V2000
  180.3310  175.5240  136.0710 C   0  0  0  0  0  2  0  0  0  0  0  0
  184.5630  177.7650  137.3880 C   0  0  2  0  0  3  0  0  0  0  0  0
  180.4950  174.0440  135.7760 C   0  0  0  0  0  2  0  0  0  0  0  0
  181.3990  177.2850  139.5460 O   0  0  0  0  0  0  0  0  0  0  0  0
  184.5280  176.1560  135.4250 C   0  0  0  0  0  2  0  0  0  0  0  0
  183.3660  176.9940  137.9660 C   0  0  1  0  0  3  0  0  0  0  0  0
  179.4430  173.3250  138.0650 C   0  0  0  0  0  0  0  0  0  0  0  0
  179.0530  171.9240  134.5940 N   0  0  0  0  0  1  0  0  0  0  0  0
  185.4120  176.8890  136.4430 C   0  0  2  0  0  3  0  0  0  0  0  0
  182.5940  177.8380  139.0240 C   0  0  1  0  0  3  0  0  0  0  0  0
  186.3060  175.8960  137.1790 C   0  0  0  0  0  1  0  0  0  0  0  0
  179.5740  173.1760  136.5930 C   0  0  0  0  0  0  0  0  0  0  0  0
  183.3070  175.4800  136.0780 C   0  0  2  0  0  3  0  0  0  0  0  0
  184.7770  179.8420  138.9370 C   0  0  0  0  0  3  0  0  0  0  0  0
  178.9310  172.1700  135.9930 C   0  0  0  0  0  3  0  0  0  0  0  0
  186.4700  178.2150  138.8000 O   0  0  0  0  0  0  0  0  0  0  0  0
  179.7330  174.6090  138.7800 C   0  0  0  0  0  2  0  0  0  0  0  0
  181.6060  175.9100  139.7540 C   0  0  0  0  0  2  0  0  0  0  0  0
  185.3330  178.5830  138.4050 C   0  0  0  0  0  0  0  0  0  0  0  0
  182.5400  176.4740  136.8550 N   0  0  1  0  0  0  0  0  0  0  0  0
  182.4280  179.2380  138.6070 N   0  0  0  0  0  0  0  0  0  0  0  0
  181.1470  175.1050  138.5290 C   0  0  2  0  0  3  0  0  0  0  0  0
  178.9900  172.3670  138.7480 O   0  0  0  0  0  0  0  0  0  0  0  0
  181.1990  175.9750  137.2510 C   0  0  2  0  0  3  0  0  0  0  0  0
  183.4770  180.1550  138.9700 C   0  0  0  0  0  3  0  0  0  0  0  0
  180.3190  180.3720  138.3730 C   0  0  0  0  0  3  0  0  0  0  0  0
  181.3250  179.7010  137.7870 C   0  0  0  0  0  0  0  0  0  0  0  0
  181.2980  179.3810  136.3360 C   0  0  0  0  0  3  0  0  0  0  0  0
  180.7830  180.1320  135.3520 C   0  0  0  0  0  3  0  0  0  0  0  0
  179.3760  181.7780  136.5740 C   0  0  0  0  0  3  0  0  0  0  0  0
  180.1170  181.4370  135.5200 C   0  0  0  0  0  3  0  0  0  0  0  0
  179.0740  180.8230  137.6780 C   0  0  0  0  0  2  0  0  0  0  0  0
  183.7100  174.2590  136.9160 C   0  0  0  0  0  2  0  0  0  0  0  0
  183.9910  173.0670  136.0590 C   0  0  0  0  0  0  0  0  0  0  0  0
  183.9200  173.1720  134.7780 N   0  0  0  0  0  2  0  0  0  0  0  0
  184.0350  171.7110  136.6920 C   0  0  0  0  0  2  0  0  0  0  0  0
  182.8450  171.4660  137.3830 O   0  0  0  0  0  1  0  0  0  0  0  0
  1 24  1  0  0  0  0
  2  6  1  0  0  0  0
  2 19  1  1  0  0  0
  3  1  1  0  0  0  0
  3 12  1  0  0  0  0
  4 18  1  0  0  0  0
  5 13  1  0  0  0  0
  5  9  1  0  0  0  0
  6 10  1  0  0  0  0
  7 23  2  0  0  0  0
  7 17  1  0  0  0  0
  8 15  1  0  0  0  0
  9 11  1  0  0  0  0
  9  2  1  0  0  0  0
 10  4  1  0  0  0  0
 12  7  1  0  0  0  0
 13 20  1  0  0  0  0
 13 33  1  0  0  0  0
 14 25  2  0  0  0  0
 15 12  2  0  0  0  0
 19 16  2  0  0  0  0
 19 14  1  0  0  0  0
 20 24  1  0  0  0  0
 20  6  1  0  0  0  0
 21 25  1  0  0  0  0
 21 10  1  0  0  0  0
 22 17  1  0  0  0  0
 22 18  1  0  0  0  0
 24 22  1  0  0  0  0
 27 26  2  0  0  0  0
 27 21  1  0  0  0  0
 28 27  1  0  0  0  0
 29 31  1  0  0  0  0
 29 28  2  0  0  0  0
 30 32  1  0  0  0  0
 31 30  2  0  0  0  0
 32 26  1  0  0  0  0
 34 36  1  0  0  0  0
 34 33  1  0  0  0  0
 35 34  2  0  0  0  0
 36 37  1  0  0  0  0
M  END
>  <MODEL>
6

>  <REMARK>
 VINA RESULT:      -3.4      2.862      6.596
  Name = 
  4 active torsions:
  status: ('A' for Active; 'I' for Inactive)
    1  A    between atoms: C_3  and  CA_21
    2  A    between atoms: C_6  and  N_31
    3  A    between atoms: C_20  and  C_25
    4  A    between atoms: CA_21  and  C_25
                            x       y       z     vdW  Elec       q    Type
                         _______ _______ _______ _____ _____    ______ ____

>  <TORSDO>
F 4

$$$$
=
 OpenBabel11052415183D

 37 41  0  0  1  0  0  0  0  0999 V2000
  185.2820  176.3600  137.8760 C   0  0  0  0  0  2  0  0  0  0  0  0
  182.0890  172.8150  136.4960 C   0  0  2  0  0  3  0  0  0  0  0  0
  186.7000  176.1210  137.3890 C   0  0  0  0  0  2  0  0  0  0  0  0
  182.0460  176.5340  135.4650 O   0  0  0  0  0  0  0  0  0  0  0  0
  184.3780  172.1910  137.3980 C   0  0  0  0  0  2  0  0  0  0  0  0
  182.7000  174.1460  136.0330 C   0  0  1  0  0  3  0  0  0  0  0  0
  186.4980  177.9060  135.4820 C   0  0  0  0  0  0  0  0  0  0  0  0
  189.3110  177.0930  137.8460 N   0  0  0  0  0  1  0  0  0  0  0  0
  183.1520  171.7020  136.6150 C   0  0  2  0  0  3  0  0  0  0  0  0
  181.6050  175.2260  135.7810 C   0  0  1  0  0  3  0  0  0  0  0  0
  183.5810  171.1290  135.2680 C   0  0  0  0  0  1  0  0  0  0  0  0
  187.2520  177.2780  136.5970 C   0  0  0  0  0  0  0  0  0  0  0  0
  184.8750  173.5690  136.9250 C   0  0  2  0  0  3  0  0  0  0  0  0
  179.5380  173.1230  136.0970 C   0  0  0  0  0  3  0  0  0  0  0  0
  188.5020  177.6870  136.8340 C   0  0  0  0  0  3  0  0  0  0  0  0
  180.7910  171.5060  134.9360 O   0  0  0  0  0  0  0  0  0  0  0  0
  185.0030  177.8660  135.3880 C   0  0  0  0  0  2  0  0  0  0  0  0
  183.1450  176.4270  134.5950 C   0  0  0  0  0  2  0  0  0  0  0  0
  180.8050  172.4330  135.7870 C   0  0  0  0  0  0  0  0  0  0  0  0
  183.7690  174.5460  136.9740 N   0  0  1  0  0  0  0  0  0  0  0  0
  180.5680  175.2210  136.8240 N   0  0  0  0  0  0  0  0  0  0  0  0
  184.4620  176.4460  135.3860 C   0  0  2  0  0  3  0  0  0  0  0  0
  187.1180  178.5780  134.6140 O   0  0  0  0  0  0  0  0  0  0  0  0
  184.2390  175.9470  136.8320 C   0  0  2  0  0  3  0  0  0  0  0  0
  179.4400  174.3510  136.6180 C   0  0  0  0  0  3  0  0  0  0  0  0
  181.0550  177.2580  138.0090 C   0  0  0  0  0  3  0  0  0  0  0  0
  180.6790  175.9690  138.0630 C   0  0  0  0  0  0  0  0  0  0  0  0
  180.4300  175.2900  139.3600 C   0  0  0  0  0  3  0  0  0  0  0  0
  179.9100  175.8330  140.4710 C   0  0  0  0  0  3  0  0  0  0  0  0
  180.0830  178.2750  140.0390 C   0  0  0  0  0  3  0  0  0  0  0  0
  179.4900  177.2380  140.6300 C   0  0  0  0  0  3  0  0  0  0  0  0
  181.3070  178.1240  139.2020 C   0  0  0  0  0  2  0  0  0  0  0  0
  185.5340  173.4940  135.5400 C   0  0  0  0  0  2  0  0  0  0  0  0
  186.8570  172.8000  135.5930 C   0  0  0  0  0  0  0  0  0  0  0  0
  187.0200  171.6910  134.9590 N   0  0  0  0  0  2  0  0  0  0  0  0
  187.8590  173.2210  136.6220 C   0  0  0  0  0  2  0  0  0  0  0  0
  188.1130  172.1650  137.5020 O   0  0  0  0  0  1  0  0  0  0  0  0
  2 19  1  6  0  0  0
  2  9  1  0  0  0  0
  3  1  1  0  0  0  0
  4 10  1  0  0  0  0
  6  2  1  0  0  0  0
  6 20  1  0  0  0  0
  7 12  1  0  0  0  0
  9  5  1  0  0  0  0
 10  6  1  0  0  0  0
 10 21  1  0  0  0  0
 11  9  1  0  0  0  0
 12 15  2  0  0  0  0
 12  3  1  0  0  0  0
 13 20  1  0  0  0  0
 13  5  1  0  0  0  0
 14 25  2  0  0  0  0
 15  8  1  0  0  0  0
 16 19  2  0  0  0  0
 17  7  1  0  0  0  0
 18 22  1  0  0  0  0
 18  4  1  0  0  0  0
 19 14  1  0  0  0  0
 21 27  1  0  0  0  0
 22 17  1  0  0  0  0
 22 24  1  0  0  0  0
 23  7  2  0  0  0  0
 24 20  1  0  0  0  0
 24  1  1  0  0  0  0
 25 21  1  0  0  0  0
 26 27  2  0  0  0  0
 26 32  1  0  0  0  0
 27 28  1  0  0  0  0
 28 29  2  0  0  0  0
 29 31  1  0  0  0  0
 30 31  2  0  0  0  0
 32 30  1  0  0  0  0
 33 34  1  0  0  0  0
 33 13  1  0  0  0  0
 34 36  1  0  0  0  0
 35 34  2  0  0  0  0
 36 37  1  0  0  0  0
M  END
>  <MODEL>
7

>  <REMARK>
 VINA RESULT:      -3.3      1.779      2.398
  Name = 
  4 active torsions:
  status: ('A' for Active; 'I' for Inactive)
    1  A    between atoms: C_3  and  CA_21
    2  A    between atoms: C_6  and  N_31
    3  A    between atoms: C_20  and  C_25
    4  A    between atoms: CA_21  and  C_25
                            x       y       z     vdW  Elec       q    Type
                         _______ _______ _______ _____ _____    ______ ____

>  <TORSDO>
F 4

$$$$
=
 OpenBabel11052415183D

 37 41  0  0  1  0  0  0  0  0999 V2000
  181.4200  177.6160  141.2520 C   0  0  0  0  0  2  0  0  0  0  0  0
  186.2290  177.8940  140.0450 C   0  0  2  0  0  3  0  0  0  0  0  0
  181.0650  178.3880  142.5110 C   0  0  0  0  0  2  0  0  0  0  0  0
  183.2270  179.2360  138.0240 O   0  0  0  0  0  0  0  0  0  0  0  0
  185.5390  177.4790  142.4520 C   0  0  0  0  0  2  0  0  0  0  0  0
  184.8840  178.6080  139.8440 C   0  0  1  0  0  3  0  0  0  0  0  0
  179.9810  180.3590  141.1700 C   0  0  0  0  0  0  0  0  0  0  0  0
  178.9310  178.6300  144.3430 N   0  0  0  0  0  1  0  0  0  0  0  0
  186.6790  177.9150  141.5210 C   0  0  2  0  0  3  0  0  0  0  0  0
  184.5030  178.7050  138.3360 C   0  0  1  0  0  3  0  0  0  0  0  0
  187.2370  179.2630  141.9640 C   0  0  0  0  0  1  0  0  0  0  0  0
  179.9620  179.3900  142.2950 C   0  0  0  0  0  0  0  0  0  0  0  0
  184.2070  178.1820  142.1290 C   0  0  2  0  0  3  0  0  0  0  0  0
  187.2170  177.7310  137.6450 C   0  0  0  0  0  3  0  0  0  0  0  0
  178.9850  179.4830  143.2020 C   0  0  0  0  0  3  0  0  0  0  0  0
  188.2620  178.9880  139.3360 O   0  0  0  0  0  0  0  0  0  0  0  0
  180.7240  180.1070  139.8930 C   0  0  0  0  0  2  0  0  0  0  0  0
  182.9800  180.3190  138.8860 C   0  0  0  0  0  2  0  0  0  0  0  0
  187.2890  178.2530  139.0230 C   0  0  0  0  0  0  0  0  0  0  0  0
  183.8630  177.9750  140.7080 N   0  0  1  0  0  0  0  0  0  0  0  0
  184.7850  177.4590  137.6080 N   0  0  0  0  0  0  0  0  0  0  0  0
  182.2040  179.8520  140.1270 C   0  0  2  0  0  3  0  0  0  0  0  0
  179.2790  181.4050  141.2390 O   0  0  0  0  0  0  0  0  0  0  0  0
  182.4600  178.3530  140.4010 C   0  0  2  0  0  3  0  0  0  0  0  0
  186.0980  177.3200  137.0370 C   0  0  0  0  0  3  0  0  0  0  0  0
  182.5610  176.6170  137.2380 C   0  0  0  0  0  3  0  0  0  0  0  0
  183.8470  176.3540  137.5250 C   0  0  0  0  0  0  0  0  0  0  0  0
  184.3090  174.9710  137.8090 C   0  0  0  0  0  3  0  0  0  0  0  0
  183.8550  173.8370  137.2550 C   0  0  0  0  0  3  0  0  0  0  0  0
  181.7200  174.5420  136.1940 C   0  0  0  0  0  3  0  0  0  0  0  0
  182.7800  173.7370  136.2500 C   0  0  0  0  0  3  0  0  0  0  0  0
  181.4670  175.5990  137.2150 C   0  0  0  0  0  2  0  0  0  0  0  0
  184.2350  179.6660  142.5190 C   0  0  0  0  0  2  0  0  0  0  0  0
  184.3030  179.8480  144.0020 C   0  0  0  0  0  0  0  0  0  0  0  0
  185.2790  180.5110  144.5170 N   0  0  0  0  0  2  0  0  0  0  0  0
  183.4330  179.0030  144.8790 C   0  0  0  0  0  2  0  0  0  0  0  0
  183.9760  178.9340  146.1660 O   0  0  0  0  0  1  0  0  0  0  0  0
  1  3  1  0  0  0  0
  2 19  1  6  0  0  0
  2  9  1  0  0  0  0
  4 10  1  0  0  0  0
  4 18  1  0  0  0  0
  6  2  1  0  0  0  0
  6 20  1  0  0  0  0
  7 23  2  0  0  0  0
  7 12  1  0  0  0  0
  9 11  1  0  0  0  0
  9  5  1  0  0  0  0
 10  6  1  0  0  0  0
 12  3  1  0  0  0  0
 12 15  2  0  0  0  0
 13  5  1  0  0  0  0
 13 33  1  0  0  0  0
 14 19  1  0  0  0  0
 15  8  1  0  0  0  0
 17 22  1  0  0  0  0
 17  7  1  0  0  0  0
 18 22  1  0  0  0  0
 19 16  2  0  0  0  0
 20 13  1  0  0  0  0
 21 10  1  0  0  0  0
 22 24  1  0  0  0  0
 24 20  1  0  0  0  0
 24  1  1  0  0  0  0
 25 21  1  0  0  0  0
 25 14  2  0  0  0  0
 26 27  2  0  0  0  0
 27 21  1  0  0  0  0
 27 28  1  0  0  0  0
 29 28  2  0  0  0  0
 30 31  2  0  0  0  0
 30 32  1  0  0  0  0
 31 29  1  0  0  0  0
 32 26  1  0  0  0  0
 33 34  1  0  0  0  0
 34 35  2  0  0  0  0
 34 36  1  0  0  0  0
 36 37  1  0  0  0  0
M  END
>  <MODEL>
8

>  <REMARK>
 VINA RESULT:      -3.2      3.972      8.365
  Name = 
  4 active torsions:
  status: ('A' for Active; 'I' for Inactive)
    1  A    between atoms: C_3  and  CA_21
    2  A    between atoms: C_6  and  N_31
    3  A    between atoms: C_20  and  C_25
    4  A    between atoms: CA_21  and  C_25
                            x       y       z     vdW  Elec       q    Type
                         _______ _______ _______ _____ _____    ______ ____

>  <TORSDO>
F 4

$$$$
=
 OpenBabel11052415183D

 37 41  0  0  1  0  0  0  0  0999 V2000
  185.6390  175.6010  137.7720 C   0  0  0  0  0  2  0  0  0  0  0  0
  181.0030  174.6950  136.2370 C   0  0  2  0  0  3  0  0  0  0  0  0
  186.6650  174.6370  137.2040 C   0  0  0  0  0  2  0  0  0  0  0  0
  183.1310  177.8360  135.5290 O   0  0  0  0  0  0  0  0  0  0  0  0
  182.4990  172.7830  136.9810 C   0  0  0  0  0  2  0  0  0  0  0  0
  182.2780  175.4670  135.8620 C   0  0  1  0  0  3  0  0  0  0  0  0
  187.5570  176.3830  135.4670 C   0  0  0  0  0  0  0  0  0  0  0  0
  189.3510  173.8770  137.6270 N   0  0  0  0  0  1  0  0  0  0  0  0
  181.2270  173.1680  136.2130 C   0  0  2  0  0  3  0  0  0  0  0  0
  182.0110  176.9990  135.7520 C   0  0  1  0  0  3  0  0  0  0  0  0
  181.2630  172.5830  134.8050 C   0  0  0  0  0  1  0  0  0  0  0  0
  187.7940  175.3320  136.4900 C   0  0  0  0  0  0  0  0  0  0  0  0
  183.7080  173.6610  136.6060 C   0  0  2  0  0  3  0  0  0  0  0  0
  179.1050  176.4530  135.9780 C   0  0  0  0  0  3  0  0  0  0  0  0
  189.0470  174.9220  136.7060 C   0  0  0  0  0  3  0  0  0  0  0  0
  179.2090  174.5280  134.6300 O   0  0  0  0  0  0  0  0  0  0  0  0
  186.3150  177.2200  135.4360 C   0  0  0  0  0  2  0  0  0  0  0  0
  183.9780  177.1990  134.6050 C   0  0  0  0  0  2  0  0  0  0  0  0
  179.7450  175.1920  135.5550 C   0  0  0  0  0  0  0  0  0  0  0  0
  183.3680  175.0860  136.7860 N   0  0  1  0  0  0  0  0  0  0  0  0
  181.1480  177.4940  136.8350 N   0  0  0  0  0  0  0  0  0  0  0  0
  185.0530  176.3800  135.3360 C   0  0  2  0  0  3  0  0  0  0  0  0
  188.4630  176.6530  134.6330 O   0  0  0  0  0  0  0  0  0  0  0  0
  184.5630  175.9660  136.7430 C   0  0  2  0  0  3  0  0  0  0  0  0
  179.7280  177.4570  136.6050 C   0  0  0  0  0  3  0  0  0  0  0  0
  181.0480  177.4720  139.2390 C   0  0  0  0  0  3  0  0  0  0  0  0
  181.6540  177.9200  138.1270 C   0  0  0  0  0  0  0  0  0  0  0  0
  182.7880  178.8770  138.1960 C   0  0  0  0  0  3  0  0  0  0  0  0
  183.7400  178.9350  139.1380 C   0  0  0  0  0  3  0  0  0  0  0  0
  182.8000  177.5520  140.9780 C   0  0  0  0  0  3  0  0  0  0  0  0
  183.8430  178.0560  140.3180 C   0  0  0  0  0  3  0  0  0  0  0  0
  181.3930  177.8990  140.6290 C   0  0  0  0  0  2  0  0  0  0  0  0
  184.2200  173.3510  135.1920 C   0  0  0  0  0  2  0  0  0  0  0  0
  184.9890  172.0700  135.1490 C   0  0  0  0  0  0  0  0  0  0  0  0
  186.2750  172.0960  135.2180 N   0  0  0  0  0  2  0  0  0  0  0  0
  184.2950  170.8190  134.7110 C   0  0  0  0  0  2  0  0  0  0  0  0
  184.0610  169.9900  135.8120 O   0  0  0  0  0  1  0  0  0  0  0  0
  2 19  1  6  0  0  0
  3  1  1  0  0  0  0
  4 10  1  0  0  0  0
  6  2  1  0  0  0  0
  6 20  1  0  0  0  0
  7 12  1  0  0  0  0
  9  2  1  0  0  0  0
  9  5  1  0  0  0  0
 10  6  1  0  0  0  0
 10 21  1  0  0  0  0
 11  9  1  0  0  0  0
 12 15  2  0  0  0  0
 12  3  1  0  0  0  0
 13 20  1  0  0  0  0
 13  5  1  0  0  0  0
 14 25  2  0  0  0  0
 15  8  1  0  0  0  0
 16 19  2  0  0  0  0
 17  7  1  0  0  0  0
 18 22  1  0  0  0  0
 18  4  1  0  0  0  0
 19 14  1  0  0  0  0
 21 27  1  0  0  0  0
 22 17  1  0  0  0  0
 22 24  1  0  0  0  0
 23  7  2  0  0  0  0
 24 20  1  0  0  0  0
 24  1  1  0  0  0  0
 25 21  1  0  0  0  0
 26 32  1  0  0  0  0
 27 28  1  0  0  0  0
 27 26  2  0  0  0  0
 28 29  2  0  0  0  0
 29 31  1  0  0  0  0
 31 30  2  0  0  0  0
 32 30  1  0  0  0  0
 33 13  1  0  0  0  0
 34 33  1  0  0  0  0
 34 35  2  0  0  0  0
 36 34  1  0  0  0  0
 36 37  1  0  0  0  0
M  END
>  <MODEL>
9

>  <REMARK>
 VINA RESULT:      -3.1      1.637      2.132
  Name = 
  4 active torsions:
  status: ('A' for Active; 'I' for Inactive)
    1  A    between atoms: C_3  and  CA_21
    2  A    between atoms: C_6  and  N_31
    3  A    between atoms: C_20  and  C_25
    4  A    between atoms: CA_21  and  C_25
                            x       y       z     vdW  Elec       q    Type
                         _______ _______ _______ _____ _____    ______ ____

>  <TORSDO>
F 4

$$$$
