=
 OpenBabel11052413153D

 31 35  0  0  1  0  0  0  0  0999 V2000
  180.8290  177.4420  139.3630 C   0  0  1  0  0  3  0  0  0  0  0  0
  181.2360  176.2590  138.4960 C   0  0  1  0  0  3  0  0  0  0  0  0
  180.3860  174.5830  136.8100 C   0  0  0  0  0  2  0  0  0  0  0  0
  180.1650  177.0100  140.6880 C   0  0  1  0  0  3  0  0  0  0  0  0
  180.6390  178.6460  142.5770 C   0  0  0  0  0  1  0  0  0  0  0  0
  180.1800  175.9590  137.4400 C   0  0  0  0  0  2  0  0  0  0  0  0
  182.1380  179.7370  139.9060 C   0  0  0  0  0  2  0  0  0  0  0  0
  183.1640  177.8160  138.6000 C   0  0  1  0  0  3  0  0  0  0  0  0
  181.7230  174.4640  136.0810 C   0  0  0  0  0  2  0  0  0  0  0  0
  179.8140  180.5870  140.5620 C   0  0  0  0  0  2  0  0  0  0  0  0
  182.1140  178.2380  139.6010 C   0  0  2  0  0  0  0  0  0  0  0  0
  180.9000  180.5380  139.4810 C   0  0  2  0  0  3  0  0  0  0  0  0
  182.8460  174.2250  137.0850 C   0  0  0  0  0  2  0  0  0  0  0  0
  178.9820  179.3110  140.6980 C   0  0  0  0  0  2  0  0  0  0  0  0
  179.6500  178.1900  141.5140 C   0  0  1  0  0  3  0  0  0  0  0  0
  183.3320  177.4730  140.0790 C   0  0  0  0  0  2  0  0  0  0  0  0
  182.5290  176.6780  137.8080 C   0  0  1  0  0  3  0  0  0  0  0  0
  183.5020  175.5180  137.5830 C   0  0  0  0  0  2  0  0  0  0  0  0
  178.9310  179.9230  138.0240 C   0  0  0  0  0  1  0  0  0  0  0  0
  180.4000  180.3180  138.0380 C   0  0  1  0  0  3  0  0  0  0  0  0
  180.9080  183.7920  135.5230 C   0  0  0  0  0  0  0  0  0  0  0  0
  180.6540  182.8120  137.7190 C   0  0  0  0  0  3  0  0  0  0  0  0
  180.5170  180.0640  135.0890 C   0  0  0  0  0  1  0  0  0  0  0  0
  181.0680  184.8830  134.7360 F   0  0  0  0  0  0  0  0  0  0  0  0
  180.8170  183.9370  136.9080 C   0  0  0  0  0  3  0  0  0  0  0  0
  180.6520  181.3920  135.7520 C   0  0  0  0  0  0  0  0  0  0  0  0
  180.5930  181.5270  137.1550 C   0  0  0  0  0  0  0  0  0  0  0  0
  180.8160  182.5230  134.9480 C   0  0  0  0  0  3  0  0  0  0  0  0
  178.9990  176.0550  140.4620 C   0  0  0  0  0  2  0  0  0  0  0  0
  178.9310  175.1300  141.5030 O   0  0  0  0  0  0  0  0  0  0  0  0
  179.3760  173.9360  140.9400 C   0  0  0  0  0  1  0  0  0  0  0  0
  1 11  1  0  0  0  0
  1  4  1  0  0  0  0
  2  1  1  0  0  0  0
  3  6  1  0  0  0  0
  4 15  1  0  0  0  0
  6  2  1  0  0  0  0
  8 11  1  0  0  0  0
  8 16  1  0  0  0  0
  9  3  1  0  0  0  0
  9 13  1  0  0  0  0
 10 14  1  0  0  0  0
 11  7  1  0  0  0  0
 11 16  1  0  0  0  0
 12  7  1  0  0  0  0
 12 10  1  0  0  0  0
 13 18  1  0  0  0  0
 14 15  1  0  0  0  0
 15  5  1  0  0  0  0
 17  2  1  0  0  0  0
 17  8  1  0  0  0  0
 18 17  1  0  0  0  0
 19 20  1  0  0  0  0
 20 12  1  0  0  0  0
 21 25  1  0  0  0  0
 23 26  1  0  0  0  0
 24 21  1  0  0  0  0
 25 22  2  0  0  0  0
 26 27  2  0  0  0  0
 27 22  1  0  0  0  0
 27 20  1  0  0  0  0
 28 21  2  0  0  0  0
 28 26  1  0  0  0  0
 29  4  1  0  0  0  0
 29 30  1  0  0  0  0
 31 30  1  0  0  0  0
M  END
>  <MODEL>
1

>  <REMARK>
 VINA RESULT:      -5.8      0.000      0.000
  Name = 
  4 active torsions:
  status: ('A' for Active; 'I' for Inactive)
    1  A    between atoms: O_2  and  C_25
    2  A    between atoms: C_9  and  C_22
    3  A    between atoms: C_9  and  C_23
    4  A    between atoms: C_12  and  C_25
                            x       y       z     vdW  Elec       q    Type
                         _______ _______ _______ _____ _____    ______ ____

>  <TORSDO>
F 4

$$$$
=
 OpenBabel11052413153D

 31 35  0  0  1  0  0  0  0  0999 V2000
  181.1190  179.4440  138.4520 C   0  0  1  0  0  3  0  0  0  0  0  0
  180.6860  180.6540  137.6350 C   0  0  1  0  0  3  0  0  0  0  0  0
  180.8360  183.1700  137.4870 C   0  0  0  0  0  2  0  0  0  0  0  0
  180.2120  179.1950  139.6750 C   0  0  1  0  0  3  0  0  0  0  0  0
  180.0340  176.7230  140.2490 C   0  0  0  0  0  1  0  0  0  0  0  0
  181.4860  181.8930  138.0170 C   0  0  0  0  0  2  0  0  0  0  0  0
  181.9650  177.0120  137.6500 C   0  0  0  0  0  2  0  0  0  0  0  0
  181.0760  178.7800  136.0580 C   0  0  1  0  0  3  0  0  0  0  0  0
  180.7580  183.2010  135.9630 C   0  0  0  0  0  2  0  0  0  0  0  0
  182.9370  176.8720  140.0140 C   0  0  0  0  0  2  0  0  0  0  0  0
  181.1030  178.2640  137.4780 C   0  0  2  0  0  0  0  0  0  0  0  0
  183.2110  177.1590  138.5330 C   0  0  2  0  0  3  0  0  0  0  0  0
  179.5870  182.3500  135.4820 C   0  0  0  0  0  2  0  0  0  0  0  0
  182.2300  177.9990  140.7680 C   0  0  0  0  0  2  0  0  0  0  0  0
  180.7050  178.0520  140.5650 C   0  0  1  0  0  3  0  0  0  0  0  0
  179.8560  178.0670  136.6400 C   0  0  0  0  0  2  0  0  0  0  0  0
  180.9780  180.2960  136.1840 C   0  0  1  0  0  3  0  0  0  0  0  0
  179.9710  180.8930  135.1970 C   0  0  0  0  0  2  0  0  0  0  0  0
  184.1900  179.3030  139.4430 C   0  0  0  0  0  1  0  0  0  0  0  0
  184.1220  178.3700  138.2430 C   0  0  1  0  0  3  0  0  0  0  0  0
  188.1470  177.2840  137.1120 C   0  0  0  0  0  0  0  0  0  0  0  0
  186.5930  178.1710  138.7380 C   0  0  0  0  0  3  0  0  0  0  0  0
  184.7130  177.2980  135.5450 C   0  0  0  0  0  1  0  0  0  0  0  0
  189.4090  176.9420  136.7600 F   0  0  0  0  0  0  0  0  0  0  0  0
  187.8950  177.8220  138.3740 C   0  0  0  0  0  3  0  0  0  0  0  0
  185.7910  177.4600  136.5610 C   0  0  0  0  0  0  0  0  0  0  0  0
  185.5240  177.9740  137.8470 C   0  0  0  0  0  0  0  0  0  0  0  0
  187.0980  177.1120  136.2060 C   0  0  0  0  0  3  0  0  0  0  0  0
  180.0690  180.4360  140.5480 C   0  0  0  0  0  2  0  0  0  0  0  0
  179.0390  180.2550  141.4710 O   0  0  0  0  0  0  0  0  0  0  0  0
  179.6330  180.4920  142.7090 C   0  0  0  0  0  1  0  0  0  0  0  0
  1  4  1  0  0  0  0
  2  6  1  0  0  0  0
  2  1  1  0  0  0  0
  3  6  1  0  0  0  0
  4 29  1  0  0  0  0
  4 15  1  0  0  0  0
  5 15  1  0  0  0  0
  7 12  1  0  0  0  0
  8 17  1  0  0  0  0
  8 16  1  0  0  0  0
  8 11  1  0  0  0  0
  9  3  1  0  0  0  0
 10 14  1  0  0  0  0
 11  7  1  0  0  0  0
 11  1  1  0  0  0  0
 12 10  1  0  0  0  0
 13  9  1  0  0  0  0
 15 14  1  0  0  0  0
 16 11  1  0  0  0  0
 17  2  1  0  0  0  0
 18 13  1  0  0  0  0
 18 17  1  0  0  0  0
 20 12  1  0  0  0  0
 20 19  1  0  0  0  0
 21 25  1  0  0  0  0
 23 26  1  0  0  0  0
 24 21  1  0  0  0  0
 25 22  2  0  0  0  0
 26 27  2  0  0  0  0
 27 20  1  0  0  0  0
 27 22  1  0  0  0  0
 28 26  1  0  0  0  0
 28 21  2  0  0  0  0
 29 30  1  0  0  0  0
 30 31  1  0  0  0  0
M  END
>  <MODEL>
2

>  <REMARK>
 VINA RESULT:      -5.7      3.122      6.174
  Name = 
  4 active torsions:
  status: ('A' for Active; 'I' for Inactive)
    1  A    between atoms: O_2  and  C_25
    2  A    between atoms: C_9  and  C_22
    3  A    between atoms: C_9  and  C_23
    4  A    between atoms: C_12  and  C_25
                            x       y       z     vdW  Elec       q    Type
                         _______ _______ _______ _____ _____    ______ ____

>  <TORSDO>
F 4

$$$$
=
 OpenBabel11052413153D

 31 35  0  0  1  0  0  0  0  0999 V2000
  181.3310  177.4500  139.3300 C   0  0  1  0  0  3  0  0  0  0  0  0
  182.2530  177.8020  140.4890 C   0  0  1  0  0  3  0  0  0  0  0  0
  184.6680  178.1610  141.1320 C   0  0  0  0  0  2  0  0  0  0  0  0
  181.2310  175.9300  139.0880 C   0  0  1  0  0  3  0  0  0  0  0  0
  178.9490  175.2490  138.1930 C   0  0  0  0  0  1  0  0  0  0  0  0
  183.6490  178.1620  139.9950 C   0  0  0  0  0  2  0  0  0  0  0  0
  178.9310  178.4700  138.6430 C   0  0  0  0  0  2  0  0  0  0  0  0
  180.1530  179.0870  140.7810 C   0  0  1  0  0  3  0  0  0  0  0  0
  184.3490  179.1950  142.2090 C   0  0  0  0  0  2  0  0  0  0  0  0
  179.4600  177.4540  136.3530 C   0  0  0  0  0  2  0  0  0  0  0  0
  179.9740  178.0640  139.6840 C   0  0  2  0  0  0  0  0  0  0  0  0
  179.4480  178.7190  137.2210 C   0  0  2  0  0  3  0  0  0  0  0  0
  183.2520  178.6690  143.1290 C   0  0  0  0  0  2  0  0  0  0  0  0
  180.6120  176.4890  136.6390 C   0  0  0  0  0  2  0  0  0  0  0  0
  180.3970  175.5720  137.8560 C   0  0  1  0  0  3  0  0  0  0  0  0
  179.4180  177.7790  141.0650 C   0  0  0  0  0  2  0  0  0  0  0  0
  181.6290  179.0190  141.1580 C   0  0  1  0  0  3  0  0  0  0  0  0
  181.8390  179.0550  142.6740 C   0  0  0  0  0  2  0  0  0  0  0  0
  181.5340  179.2340  135.8920 C   0  0  0  0  0  1  0  0  0  0  0  0
  180.6840  179.6340  137.0880 C   0  0  1  0  0  3  0  0  0  0  0  0
  179.6800  183.8180  136.7090 C   0  0  0  0  0  0  0  0  0  0  0  0
  179.3540  181.5140  136.0470 C   0  0  0  0  0  3  0  0  0  0  0  0
  182.0950  181.6930  138.6830 C   0  0  0  0  0  1  0  0  0  0  0  0
  179.3630  185.1290  136.5890 F   0  0  0  0  0  0  0  0  0  0  0  0
  179.0290  182.8670  135.9210 C   0  0  0  0  0  3  0  0  0  0  0  0
  181.0030  182.0660  137.7400 C   0  0  0  0  0  0  0  0  0  0  0  0
  180.3260  181.0960  136.9710 C   0  0  0  0  0  0  0  0  0  0  0  0
  180.6700  183.4170  137.6090 C   0  0  0  0  0  3  0  0  0  0  0  0
  182.6010  175.2810  138.9280 C   0  0  0  0  0  2  0  0  0  0  0  0
  182.5380  174.2630  137.9760 O   0  0  0  0  0  0  0  0  0  0  0  0
  183.7920  174.2790  137.3660 C   0  0  0  0  0  1  0  0  0  0  0  0
  1 11  1  0  0  0  0
  1  2  1  0  0  0  0
  2 17  1  0  0  0  0
  3  9  1  0  0  0  0
  4  1  1  0  0  0  0
  6  2  1  0  0  0  0
  6  3  1  0  0  0  0
  7 11  1  0  0  0  0
  8 16  1  0  0  0  0
  8 17  1  0  0  0  0
  9 13  1  0  0  0  0
 10 14  1  0  0  0  0
 10 12  1  0  0  0  0
 11  8  1  0  0  0  0
 11 16  1  0  0  0  0
 12  7  1  0  0  0  0
 14 15  1  0  0  0  0
 15  5  1  0  0  0  0
 15  4  1  0  0  0  0
 17 18  1  0  0  0  0
 18 13  1  0  0  0  0
 19 20  1  0  0  0  0
 20 12  1  0  0  0  0
 21 28  1  0  0  0  0
 22 27  2  0  0  0  0
 24 21  1  0  0  0  0
 25 22  1  0  0  0  0
 25 21  2  0  0  0  0
 26 23  1  0  0  0  0
 27 20  1  0  0  0  0
 27 26  1  0  0  0  0
 28 26  2  0  0  0  0
 29  4  1  0  0  0  0
 30 29  1  0  0  0  0
 31 30  1  0  0  0  0
M  END
>  <MODEL>
3

>  <REMARK>
 VINA RESULT:      -5.7      1.737      4.313
  Name = 
  4 active torsions:
  status: ('A' for Active; 'I' for Inactive)
    1  A    between atoms: O_2  and  C_25
    2  A    between atoms: C_9  and  C_22
    3  A    between atoms: C_9  and  C_23
    4  A    between atoms: C_12  and  C_25
                            x       y       z     vdW  Elec       q    Type
                         _______ _______ _______ _____ _____    ______ ____

>  <TORSDO>
F 4

$$$$
=
 OpenBabel11052413153D

 31 35  0  0  1  0  0  0  0  0999 V2000
  183.1230  177.1660  138.3620 C   0  0  1  0  0  3  0  0  0  0  0  0
  184.6320  177.3430  138.2830 C   0  0  1  0  0  3  0  0  0  0  0  0
  186.6110  177.2790  136.7170 C   0  0  0  0  0  2  0  0  0  0  0  0
  182.7020  175.6870  138.4940 C   0  0  1  0  0  3  0  0  0  0  0  0
  180.5650  175.4150  139.8470 C   0  0  0  0  0  1  0  0  0  0  0  0
  185.1000  177.4650  136.8390 C   0  0  0  0  0  2  0  0  0  0  0  0
  181.2690  178.5860  139.7100 C   0  0  0  0  0  2  0  0  0  0  0  0
  183.7680  178.9660  139.9480 C   0  0  1  0  0  3  0  0  0  0  0  0
  187.3980  178.3420  137.4790 C   0  0  0  0  0  2  0  0  0  0  0  0
  179.6380  177.5170  138.0510 C   0  0  0  0  0  2  0  0  0  0  0  0
  182.6730  177.9980  139.5650 C   0  0  2  0  0  0  0  0  0  0  0  0
  180.4640  178.7570  138.4150 C   0  0  2  0  0  3  0  0  0  0  0  0
  187.4290  178.0020  138.9660 C   0  0  0  0  0  2  0  0  0  0  0  0
  180.4400  176.3670  137.4400 C   0  0  0  0  0  2  0  0  0  0  0  0
  181.1860  175.4890  138.4600 C   0  0  1  0  0  3  0  0  0  0  0  0
  183.4180  177.7990  140.8690 C   0  0  0  0  0  2  0  0  0  0  0  0
  184.9330  178.6430  139.0180 C   0  0  1  0  0  3  0  0  0  0  0  0
  186.2730  178.6280  139.7570 C   0  0  0  0  0  2  0  0  0  0  0  0
  181.0970  178.6120  135.9740 C   0  0  0  0  0  1  0  0  0  0  0  0
  181.1870  179.4490  137.2420 C   0  0  1  0  0  3  0  0  0  0  0  0
  179.6960  183.4100  136.3790 C   0  0  0  0  0  0  0  0  0  0  0  0
  179.6740  181.0260  135.9720 C   0  0  0  0  0  3  0  0  0  0  0  0
  182.2860  181.8280  138.6230 C   0  0  0  0  0  1  0  0  0  0  0  0
  179.2260  184.6510  136.1080 F   0  0  0  0  0  0  0  0  0  0  0  0
  179.1920  182.3060  135.6900 C   0  0  0  0  0  3  0  0  0  0  0  0
  181.1880  181.9580  137.6240 C   0  0  0  0  0  0  0  0  0  0  0  0
  180.6590  180.8340  136.9560 C   0  0  0  0  0  0  0  0  0  0  0  0
  180.6980  183.2350  137.3370 C   0  0  0  0  0  3  0  0  0  0  0  0
  183.3110  174.8150  137.4020 C   0  0  0  0  0  2  0  0  0  0  0  0
  184.1640  173.8680  137.9680 O   0  0  0  0  0  0  0  0  0  0  0  0
  185.2200  173.7640  137.0650 C   0  0  0  0  0  1  0  0  0  0  0  0
  1  4  1  0  0  0  0
  1 11  1  0  0  0  0
  2  1  1  0  0  0  0
  2 17  1  0  0  0  0
  3  6  1  0  0  0  0
  3  9  1  0  0  0  0
  6  2  1  0  0  0  0
  8 16  1  0  0  0  0
  9 13  1  0  0  0  0
 10 12  1  0  0  0  0
 11  7  1  0  0  0  0
 11  8  1  0  0  0  0
 11 16  1  0  0  0  0
 12  7  1  0  0  0  0
 13 18  1  0  0  0  0
 14 10  1  0  0  0  0
 14 15  1  0  0  0  0
 15  4  1  0  0  0  0
 15  5  1  0  0  0  0
 17 18  1  0  0  0  0
 17  8  1  0  0  0  0
 19 20  1  0  0  0  0
 20 12  1  0  0  0  0
 21 28  1  0  0  0  0
 22 27  2  0  0  0  0
 24 21  1  0  0  0  0
 25 22  1  0  0  0  0
 25 21  2  0  0  0  0
 26 23  1  0  0  0  0
 27 20  1  0  0  0  0
 27 26  1  0  0  0  0
 28 26  2  0  0  0  0
 29 30  1  0  0  0  0
 29  4  1  0  0  0  0
 31 30  1  0  0  0  0
M  END
>  <MODEL>
4

>  <REMARK>
 VINA RESULT:      -5.5      2.278      3.998
  Name = 
  4 active torsions:
  status: ('A' for Active; 'I' for Inactive)
    1  A    between atoms: O_2  and  C_25
    2  A    between atoms: C_9  and  C_22
    3  A    between atoms: C_9  and  C_23
    4  A    between atoms: C_12  and  C_25
                            x       y       z     vdW  Elec       q    Type
                         _______ _______ _______ _____ _____    ______ ____

>  <TORSDO>
F 4

$$$$
=
 OpenBabel11052413153D

 31 35  0  0  1  0  0  0  0  0999 V2000
  182.1100  177.5490  138.5830 C   0  0  1  0  0  3  0  0  0  0  0  0
  183.4660  177.2360  137.9650 C   0  0  1  0  0  3  0  0  0  0  0  0
  184.5980  176.2160  135.9530 C   0  0  0  0  0  2  0  0  0  0  0  0
  181.4970  176.3410  139.3200 C   0  0  1  0  0  3  0  0  0  0  0  0
  180.0710  177.0490  141.3040 C   0  0  0  0  0  1  0  0  0  0  0  0
  183.3310  176.8760  136.4910 C   0  0  0  0  0  2  0  0  0  0  0  0
  181.2680  179.7360  139.9190 C   0  0  0  0  0  2  0  0  0  0  0  0
  183.6750  179.3800  139.1940 C   0  0  1  0  0  3  0  0  0  0  0  0
  185.8160  177.1330  136.0270 C   0  0  0  0  0  2  0  0  0  0  0  0
  178.9350  178.8650  139.3240 C   0  0  0  0  0  2  0  0  0  0  0  0
  182.3520  178.7310  139.5250 C   0  0  2  0  0  0  0  0  0  0  0  0
  180.0630  179.8430  138.9750 C   0  0  2  0  0  3  0  0  0  0  0  0
  186.3720  177.1500  137.4480 C   0  0  0  0  0  2  0  0  0  0  0  0
  179.1830  177.4170  138.8970 C   0  0  0  0  0  2  0  0  0  0  0  0
  180.0860  176.6110  139.8470 C   0  0  1  0  0  3  0  0  0  0  0  0
  183.5010  178.6180  140.5070 C   0  0  0  0  0  2  0  0  0  0  0  0
  184.2830  178.5140  138.0960 C   0  0  1  0  0  3  0  0  0  0  0  0
  185.7760  178.2610  138.3210 C   0  0  0  0  0  2  0  0  0  0  0  0
  179.3040  179.3330  136.6200 C   0  0  0  0  0  1  0  0  0  0  0  0
  180.3780  179.9940  137.4720 C   0  0  1  0  0  3  0  0  0  0  0  0
  180.7680  184.1190  136.2500 C   0  0  0  0  0  0  0  0  0  0  0  0
  180.3680  182.4710  137.9750 C   0  0  0  0  0  3  0  0  0  0  0  0
  180.8840  180.7060  134.6410 C   0  0  0  0  0  1  0  0  0  0  0  0
  180.8910  185.4120  135.8690 F   0  0  0  0  0  0  0  0  0  0  0  0
  180.4920  183.8060  137.5820 C   0  0  0  0  0  3  0  0  0  0  0  0
  180.7760  181.7580  135.6920 C   0  0  0  0  0  0  0  0  0  0  0  0
  180.5310  181.4330  137.0420 C   0  0  0  0  0  0  0  0  0  0  0  0
  180.9010  183.0970  135.3070 C   0  0  0  0  0  3  0  0  0  0  0  0
  181.4350  175.1000  138.4380 C   0  0  0  0  0  2  0  0  0  0  0  0
  180.5680  174.1600  138.9960 O   0  0  0  0  0  0  0  0  0  0  0  0
  180.1050  173.4220  137.9080 C   0  0  0  0  0  1  0  0  0  0  0  0
  1  4  1  0  0  0  0
  1 11  1  0  0  0  0
  2 17  1  0  0  0  0
  2  1  1  0  0  0  0
  3  9  1  0  0  0  0
  3  6  1  0  0  0  0
  4 15  1  0  0  0  0
  6  2  1  0  0  0  0
  8 11  1  0  0  0  0
  8 16  1  0  0  0  0
  9 13  1  0  0  0  0
 11  7  1  0  0  0  0
 11 16  1  0  0  0  0
 12 10  1  0  0  0  0
 12  7  1  0  0  0  0
 13 18  1  0  0  0  0
 14 10  1  0  0  0  0
 14 15  1  0  0  0  0
 15  5  1  0  0  0  0
 17 18  1  0  0  0  0
 17  8  1  0  0  0  0
 19 20  1  0  0  0  0
 20 12  1  0  0  0  0
 21 25  1  0  0  0  0
 23 26  1  0  0  0  0
 24 21  1  0  0  0  0
 25 22  2  0  0  0  0
 26 27  2  0  0  0  0
 27 20  1  0  0  0  0
 27 22  1  0  0  0  0
 28 26  1  0  0  0  0
 28 21  2  0  0  0  0
 29 30  1  0  0  0  0
 29  4  1  0  0  0  0
 31 30  1  0  0  0  0
M  END
>  <MODEL>
5

>  <REMARK>
 VINA RESULT:      -5.4      1.546      2.393
  Name = 
  4 active torsions:
  status: ('A' for Active; 'I' for Inactive)
    1  A    between atoms: O_2  and  C_25
    2  A    between atoms: C_9  and  C_22
    3  A    between atoms: C_9  and  C_23
    4  A    between atoms: C_12  and  C_25
                            x       y       z     vdW  Elec       q    Type
                         _______ _______ _______ _____ _____    ______ ____

>  <TORSDO>
F 4

$$$$
=
 OpenBabel11052413153D

 31 35  0  0  1  0  0  0  0  0999 V2000
  182.2240  177.4790  137.9880 C   0  0  1  0  0  3  0  0  0  0  0  0
  183.1950  176.6740  137.1360 C   0  0  1  0  0  3  0  0  0  0  0  0
  185.2490  176.8480  135.6770 C   0  0  0  0  0  2  0  0  0  0  0  0
  181.1140  178.1520  137.1540 C   0  0  1  0  0  3  0  0  0  0  0  0
  178.9310  178.3510  138.4440 C   0  0  0  0  0  1  0  0  0  0  0  0
  184.4440  177.4840  136.8090 C   0  0  0  0  0  2  0  0  0  0  0  0
  181.1070  176.8980  140.3740 C   0  0  0  0  0  2  0  0  0  0  0  0
  182.5250  175.2550  139.0560 C   0  0  1  0  0  3  0  0  0  0  0  0
  185.7600  175.4540  136.0300 C   0  0  0  0  0  2  0  0  0  0  0  0
  180.7070  179.4240  140.4940 C   0  0  0  0  0  2  0  0  0  0  0  0
  181.6520  176.4880  139.0060 C   0  0  2  0  0  0  0  0  0  0  0  0
  181.5900  178.2470  140.9230 C   0  0  2  0  0  3  0  0  0  0  0  0
  184.6390  174.4310  135.8710 C   0  0  0  0  0  2  0  0  0  0  0  0
  180.9200  179.8970  139.0550 C   0  0  0  0  0  2  0  0  0  0  0  0
  180.2010  179.0540  137.9870 C   0  0  1  0  0  3  0  0  0  0  0  0
  181.1150  175.1740  138.4740 C   0  0  0  0  0  2  0  0  0  0  0  0
  183.5860  175.4690  137.9810 C   0  0  1  0  0  3  0  0  0  0  0  0
  183.8360  174.2040  137.1570 C   0  0  0  0  0  2  0  0  0  0  0  0
  183.4380  179.7310  140.0500 C   0  0  0  0  0  1  0  0  0  0  0  0
  183.1120  178.5010  140.8830 C   0  0  1  0  0  3  0  0  0  0  0  0
  184.8380  179.0020  144.8110 C   0  0  0  0  0  0  0  0  0  0  0  0
  182.8960  178.8430  143.3780 C   0  0  0  0  0  3  0  0  0  0  0  0
  186.0490  178.5750  141.2620 C   0  0  0  0  0  1  0  0  0  0  0  0
  185.3770  179.1580  146.0430 F   0  0  0  0  0  0  0  0  0  0  0  0
  183.4520  179.0070  144.6490 C   0  0  0  0  0  3  0  0  0  0  0  0
  185.1210  178.6890  142.4230 C   0  0  0  0  0  0  0  0  0  0  0  0
  183.7210  178.6600  142.2560 C   0  0  0  0  0  0  0  0  0  0  0  0
  185.6690  178.8520  143.6990 C   0  0  0  0  0  3  0  0  0  0  0  0
  181.6810  178.9890  136.0130 C   0  0  0  0  0  2  0  0  0  0  0  0
  180.7130  179.1660  135.0250 O   0  0  0  0  0  0  0  0  0  0  0  0
  180.8210  180.5080  134.6650 C   0  0  0  0  0  1  0  0  0  0  0  0
  1 11  1  0  0  0  0
  2 17  1  0  0  0  0
  2  1  1  0  0  0  0
  3  9  1  0  0  0  0
  3  6  1  0  0  0  0
  4 15  1  0  0  0  0
  4  1  1  0  0  0  0
  6  2  1  0  0  0  0
  7 12  1  0  0  0  0
 10 12  1  0  0  0  0
 11  8  1  0  0  0  0
 11  7  1  0  0  0  0
 13  9  1  0  0  0  0
 13 18  1  0  0  0  0
 14 10  1  0  0  0  0
 15  5  1  0  0  0  0
 15 14  1  0  0  0  0
 16 11  1  0  0  0  0
 16  8  1  0  0  0  0
 17  8  1  0  0  0  0
 18 17  1  0  0  0  0
 19 20  1  0  0  0  0
 20 12  1  0  0  0  0
 20 27  1  0  0  0  0
 21 24  1  0  0  0  0
 22 25  2  0  0  0  0
 23 26  1  0  0  0  0
 25 21  1  0  0  0  0
 26 28  1  0  0  0  0
 27 26  2  0  0  0  0
 27 22  1  0  0  0  0
 28 21  2  0  0  0  0
 29  4  1  0  0  0  0
 30 29  1  0  0  0  0
 31 30  1  0  0  0  0
M  END
>  <MODEL>
6

>  <REMARK>
 VINA RESULT:      -5.4      3.517      6.113
  Name = 
  4 active torsions:
  status: ('A' for Active; 'I' for Inactive)
    1  A    between atoms: O_2  and  C_25
    2  A    between atoms: C_9  and  C_22
    3  A    between atoms: C_9  and  C_23
    4  A    between atoms: C_12  and  C_25
                            x       y       z     vdW  Elec       q    Type
                         _______ _______ _______ _____ _____    ______ ____

>  <TORSDO>
F 4

$$$$
=
 OpenBabel11052413153D

 31 35  0  0  1  0  0  0  0  0999 V2000
  185.4540  176.8420  136.9960 C   0  0  1  0  0  3  0  0  0  0  0  0
  186.6940  177.6240  137.4080 C   0  0  1  0  0  3  0  0  0  0  0  0
  188.1620  178.2250  139.3710 C   0  0  0  0  0  2  0  0  0  0  0  0
  184.1460  177.6170  137.2570 C   0  0  1  0  0  3  0  0  0  0  0  0
  182.3400  177.0510  135.5570 C   0  0  0  0  0  1  0  0  0  0  0  0
  187.1650  177.2200  138.7980 C   0  0  0  0  0  2  0  0  0  0  0  0
  184.9950  175.3290  134.8110 C   0  0  0  0  0  2  0  0  0  0  0  0
  187.0930  176.7240  135.1320 C   0  0  1  0  0  3  0  0  0  0  0  0
  189.4360  178.3310  138.5350 C   0  0  0  0  0  2  0  0  0  0  0  0
  183.1210  174.3240  136.2360 C   0  0  0  0  0  2  0  0  0  0  0  0
  185.6440  176.5240  135.5110 C   0  0  2  0  0  0  0  0  0  0  0  0
  184.5540  174.1690  135.7120 C   0  0  2  0  0  3  0  0  0  0  0  0
  189.1850  179.2070  137.3110 C   0  0  0  0  0  2  0  0  0  0  0  0
  182.9600  175.3210  137.3850 C   0  0  0  0  0  2  0  0  0  0  0  0
  182.8910  176.7960  136.9520 C   0  0  1  0  0  3  0  0  0  0  0  0
  186.0220  177.6700  134.5940 C   0  0  0  0  0  2  0  0  0  0  0  0
  187.7670  177.2620  136.3890 C   0  0  1  0  0  3  0  0  0  0  0  0
  188.7260  178.4150  136.0810 C   0  0  0  0  0  2  0  0  0  0  0  0
  184.9050  173.0560  137.9520 C   0  0  0  0  0  1  0  0  0  0  0  0
  185.5900  173.6600  136.7360 C   0  0  1  0  0  3  0  0  0  0  0  0
  188.3090  170.7260  135.1080 C   0  0  0  0  0  0  0  0  0  0  0  0
  186.0530  171.4850  135.5330 C   0  0  0  0  0  3  0  0  0  0  0  0
  188.5230  173.9870  136.9960 C   0  0  0  0  0  1  0  0  0  0  0  0
  189.1600  169.8050  134.5950 F   0  0  0  0  0  0  0  0  0  0  0  0
  186.9310  170.5340  135.0080 C   0  0  0  0  0  3  0  0  0  0  0  0
  187.9400  172.8160  136.2810 C   0  0  0  0  0  0  0  0  0  0  0  0
  186.5450  172.6460  136.1550 C   0  0  0  0  0  0  0  0  0  0  0  0
  188.8110  171.8600  135.7510 C   0  0  0  0  0  3  0  0  0  0  0  0
  184.0440  178.1070  138.6970 C   0  0  0  0  0  2  0  0  0  0  0  0
  184.2050  179.4910  138.7420 O   0  0  0  0  0  0  0  0  0  0  0  0
  182.9830  179.9700  139.2120 C   0  0  0  0  0  1  0  0  0  0  0  0
  1  4  1  0  0  0  0
  1  2  1  0  0  0  0
  2  6  1  0  0  0  0
  4 29  1  0  0  0  0
  5 15  1  0  0  0  0
  6  3  1  0  0  0  0
  7 11  1  0  0  0  0
  7 12  1  0  0  0  0
  8 11  1  0  0  0  0
  8 17  1  0  0  0  0
  9  3  1  0  0  0  0
 10 14  1  0  0  0  0
 11  1  1  0  0  0  0
 12 10  1  0  0  0  0
 12 20  1  0  0  0  0
 13  9  1  0  0  0  0
 15  4  1  0  0  0  0
 15 14  1  0  0  0  0
 16  8  1  0  0  0  0
 16 11  1  0  0  0  0
 17  2  1  0  0  0  0
 18 17  1  0  0  0  0
 18 13  1  0  0  0  0
 20 19  1  0  0  0  0
 21 28  1  0  0  0  0
 22 27  2  0  0  0  0
 24 21  1  0  0  0  0
 25 21  2  0  0  0  0
 25 22  1  0  0  0  0
 26 23  1  0  0  0  0
 27 26  1  0  0  0  0
 27 20  1  0  0  0  0
 28 26  2  0  0  0  0
 29 30  1  0  0  0  0
 30 31  1  0  0  0  0
M  END
>  <MODEL>
7

>  <REMARK>
 VINA RESULT:      -5.4      5.256      9.115
  Name = 
  4 active torsions:
  status: ('A' for Active; 'I' for Inactive)
    1  A    between atoms: O_2  and  C_25
    2  A    between atoms: C_9  and  C_22
    3  A    between atoms: C_9  and  C_23
    4  A    between atoms: C_12  and  C_25
                            x       y       z     vdW  Elec       q    Type
                         _______ _______ _______ _____ _____    ______ ____

>  <TORSDO>
F 4

$$$$
=
 OpenBabel11052413153D

 31 35  0  0  1  0  0  0  0  0999 V2000
  182.0320  175.5310  137.2150 C   0  0  1  0  0  3  0  0  0  0  0  0
  181.6470  176.7870  137.9840 C   0  0  1  0  0  3  0  0  0  0  0  0
  181.5100  177.7980  140.2930 C   0  0  0  0  0  2  0  0  0  0  0  0
  180.9120  174.4700  137.2040 C   0  0  1  0  0  3  0  0  0  0  0  0
  180.9190  173.0890  135.0680 C   0  0  0  0  0  1  0  0  0  0  0  0
  182.1790  176.7460  139.4110 C   0  0  0  0  0  2  0  0  0  0  0  0
  183.3340  175.2560  134.8690 C   0  0  0  0  0  2  0  0  0  0  0  0
  182.6120  177.4990  135.8140 C   0  0  1  0  0  3  0  0  0  0  0  0
  181.7730  179.2230  139.8120 C   0  0  0  0  0  2  0  0  0  0  0  0
  183.7590  172.8710  135.6970 C   0  0  0  0  0  2  0  0  0  0  0  0
  182.3840  176.0060  135.8020 C   0  0  2  0  0  0  0  0  0  0  0  0
  184.3210  174.2880  135.5350 C   0  0  2  0  0  3  0  0  0  0  0  0
  180.8560  179.5550  138.6390 C   0  0  0  0  0  2  0  0  0  0  0  0
  182.7650  172.7000  136.8470 C   0  0  0  0  0  2  0  0  0  0  0  0
  181.3310  173.1610  136.5310 C   0  0  1  0  0  3  0  0  0  0  0  0
  181.3920  176.9150  135.1050 C   0  0  0  0  0  2  0  0  0  0  0  0
  182.2990  177.9430  137.2390 C   0  0  1  0  0  3  0  0  0  0  0  0
  181.4740  179.2320  137.2730 C   0  0  0  0  0  2  0  0  0  0  0  0
  185.6670  173.7020  137.5910 C   0  0  0  0  0  1  0  0  0  0  0  0
  185.1150  174.8360  136.7390 C   0  0  1  0  0  3  0  0  0  0  0  0
  188.3940  177.4070  135.6030 C   0  0  0  0  0  0  0  0  0  0  0  0
  187.2040  175.3120  135.3980 C   0  0  0  0  0  3  0  0  0  0  0  0
  185.4710  177.4980  137.9890 C   0  0  0  0  0  1  0  0  0  0  0  0
  189.4220  178.2130  135.2450 F   0  0  0  0  0  0  0  0  0  0  0  0
  188.2660  176.1420  135.0300 C   0  0  0  0  0  3  0  0  0  0  0  0
  186.4060  177.0130  136.9340 C   0  0  0  0  0  0  0  0  0  0  0  0
  186.2500  175.7450  136.3350 C   0  0  0  0  0  0  0  0  0  0  0  0
  187.4710  177.8370  136.5590 C   0  0  0  0  0  3  0  0  0  0  0  0
  180.4220  174.1370  138.6080 C   0  0  0  0  0  2  0  0  0  0  0  0
  179.0680  174.4500  138.7280 O   0  0  0  0  0  0  0  0  0  0  0  0
  178.9310  174.9120  140.0360 C   0  0  0  0  0  1  0  0  0  0  0  0
  1  2  1  0  0  0  0
  2  6  1  0  0  0  0
  4  1  1  0  0  0  0
  4 29  1  0  0  0  0
  5 15  1  0  0  0  0
  6  3  1  0  0  0  0
  7 12  1  0  0  0  0
  7 11  1  0  0  0  0
  8 17  1  0  0  0  0
  9  3  1  0  0  0  0
 10 14  1  0  0  0  0
 11  8  1  0  0  0  0
 11  1  1  0  0  0  0
 12 10  1  0  0  0  0
 12 20  1  0  0  0  0
 13  9  1  0  0  0  0
 15 14  1  0  0  0  0
 15  4  1  0  0  0  0
 16 11  1  0  0  0  0
 16  8  1  0  0  0  0
 17 18  1  0  0  0  0
 17  2  1  0  0  0  0
 18 13  1  0  0  0  0
 20 19  1  0  0  0  0
 21 28  1  0  0  0  0
 22 27  2  0  0  0  0
 24 21  1  0  0  0  0
 25 22  1  0  0  0  0
 25 21  2  0  0  0  0
 26 23  1  0  0  0  0
 27 20  1  0  0  0  0
 27 26  1  0  0  0  0
 28 26  2  0  0  0  0
 29 30  1  0  0  0  0
 30 31  1  0  0  0  0
M  END
>  <MODEL>
8

>  <REMARK>
 VINA RESULT:      -5.3      3.194      6.854
  Name = 
  4 active torsions:
  status: ('A' for Active; 'I' for Inactive)
    1  A    between atoms: O_2  and  C_25
    2  A    between atoms: C_9  and  C_22
    3  A    between atoms: C_9  and  C_23
    4  A    between atoms: C_12  and  C_25
                            x       y       z     vdW  Elec       q    Type
                         _______ _______ _______ _____ _____    ______ ____

>  <TORSDO>
F 4

$$$$
=
 OpenBabel11052413153D

 31 35  0  0  1  0  0  0  0  0999 V2000
  180.7170  177.0400  137.8370 C   0  0  1  0  0  3  0  0  0  0  0  0
  180.4570  177.9520  139.0270 C   0  0  1  0  0  3  0  0  0  0  0  0
  180.3830  178.0350  141.5500 C   0  0  0  0  0  2  0  0  0  0  0  0
  179.4850  176.1920  137.4540 C   0  0  1  0  0  3  0  0  0  0  0  0
  179.3860  175.7170  134.9570 C   0  0  0  0  0  1  0  0  0  0  0  0
  180.9490  177.3210  140.3240 C   0  0  0  0  0  2  0  0  0  0  0  0
  182.0320  177.5180  135.5310 C   0  0  0  0  0  2  0  0  0  0  0  0
  181.5430  179.3110  137.2610 C   0  0  1  0  0  3  0  0  0  0  0  0
  180.8140  179.4970  141.6300 C   0  0  0  0  0  2  0  0  0  0  0  0
  182.1690  174.9650  135.3980 C   0  0  0  0  0  2  0  0  0  0  0  0
  181.1500  177.9650  136.6970 C   0  0  2  0  0  0  0  0  0  0  0  0
  182.8890  176.2670  135.7660 C   0  0  2  0  0  3  0  0  0  0  0  0
  179.9660  180.3440  140.6870 C   0  0  0  0  0  2  0  0  0  0  0  0
  181.1370  174.4890  136.4210 C   0  0  0  0  0  2  0  0  0  0  0  0
  179.7710  175.1920  136.3320 C   0  0  1  0  0  3  0  0  0  0  0  0
  180.2810  179.1740  136.4110 C   0  0  0  0  0  2  0  0  0  0  0  0
  181.2510  179.2220  138.7550 C   0  0  1  0  0  3  0  0  0  0  0  0
  180.5740  180.4880  139.2860 C   0  0  0  0  0  2  0  0  0  0  0  0
  184.0550  174.8030  137.4620 C   0  0  0  0  0  1  0  0  0  0  0  0
  183.7120  176.2330  137.0700 C   0  0  1  0  0  3  0  0  0  0  0  0
  187.3820  178.4990  136.8380 C   0  0  0  0  0  0  0  0  0  0  0  0
  185.8680  176.8590  135.9080 C   0  0  0  0  0  3  0  0  0  0  0  0
  184.4830  178.1150  139.2240 C   0  0  0  0  0  1  0  0  0  0  0  0
  188.5330  179.2090  136.7630 F   0  0  0  0  0  0  0  0  0  0  0  0
  187.0560  177.5890  135.8310 C   0  0  0  0  0  3  0  0  0  0  0  0
  185.3390  177.9350  138.0170 C   0  0  0  0  0  0  0  0  0  0  0  0
  184.9860  177.0390  136.9870 C   0  0  0  0  0  0  0  0  0  0  0  0
  186.5290  178.6640  137.9320 C   0  0  0  0  0  3  0  0  0  0  0  0
  178.9310  175.4150  138.6420 C   0  0  0  0  0  2  0  0  0  0  0  0
  179.8460  174.4430  139.0460 O   0  0  0  0  0  0  0  0  0  0  0  0
  179.3560  173.9880  140.2680 C   0  0  0  0  0  1  0  0  0  0  0  0
  1  2  1  0  0  0  0
  2  6  1  0  0  0  0
  3  9  1  0  0  0  0
  4  1  1  0  0  0  0
  4 29  1  0  0  0  0
  5 15  1  0  0  0  0
  6  3  1  0  0  0  0
  7 12  1  0  0  0  0
  7 11  1  0  0  0  0
  8 17  1  0  0  0  0
 10 12  1  0  0  0  0
 10 14  1  0  0  0  0
 11  8  1  0  0  0  0
 11  1  1  0  0  0  0
 12 20  1  0  0  0  0
 13  9  1  0  0  0  0
 15 14  1  0  0  0  0
 15  4  1  0  0  0  0
 16 11  1  0  0  0  0
 16  8  1  0  0  0  0
 17  2  1  0  0  0  0
 17 18  1  0  0  0  0
 18 13  1  0  0  0  0
 20 19  1  0  0  0  0
 21 28  1  0  0  0  0
 22 27  2  0  0  0  0
 24 21  1  0  0  0  0
 25 22  1  0  0  0  0
 25 21  2  0  0  0  0
 26 23  1  0  0  0  0
 27 20  1  0  0  0  0
 27 26  1  0  0  0  0
 28 26  2  0  0  0  0
 29 30  1  0  0  0  0
 30 31  1  0  0  0  0
M  END
>  <MODEL>
9

>  <REMARK>
 VINA RESULT:      -5.2      2.651      5.995
  Name = 
  4 active torsions:
  status: ('A' for Active; 'I' for Inactive)
    1  A    between atoms: O_2  and  C_25
    2  A    between atoms: C_9  and  C_22
    3  A    between atoms: C_9  and  C_23
    4  A    between atoms: C_12  and  C_25
                            x       y       z     vdW  Elec       q    Type
                         _______ _______ _______ _____ _____    ______ ____

>  <TORSDO>
F 4

$$$$
