=
 OpenBabel11052413043D

 31 35  0  0  1  0  0  0  0  0999 V2000
  184.0960  178.9040  144.8030 C   0  0  0  0  0  0  0  0  0  0  0  0
  187.6850  177.5950  144.3650 C   0  0  0  0  0  0  0  0  0  0  0  0
  188.2630  177.3770  145.6490 C   0  0  0  0  0  0  0  0  0  0  0  0
  187.8770  178.4750  147.8310 C   0  0  0  0  0  3  0  0  0  0  0  0
  186.2700  178.0190  144.1260 C   0  0  0  0  0  0  0  0  0  0  0  0
  183.6910  179.0900  143.4060 C   0  0  0  0  0  3  0  0  0  0  0  0
  187.4260  177.4080  146.8930 C   0  0  0  0  0  2  0  0  0  0  0  0
  187.8490  177.5420  141.8330 C   0  0  2  0  0  3  0  0  0  0  0  0
  183.3060  179.1990  145.7360 O   0  0  0  0  0  0  0  0  0  0  0  0
  190.3660  176.7730  144.5880 C   0  0  0  0  0  3  0  0  0  0  0  0
  189.0660  178.4470  148.4290 C   0  0  0  0  0  3  0  0  0  0  0  0
  186.8070  178.4920  141.8470 O   0  0  0  0  0  0  0  0  0  0  0  0
  188.4800  177.4010  143.2100 C   0  0  0  0  0  0  0  0  0  0  0  0
  185.4490  178.4220  145.1050 C   0  0  0  0  0  3  0  0  0  0  0  0
  190.1030  177.4280  148.1870 C   0  0  0  0  0  3  0  0  0  0  0  0
  185.7990  177.9800  142.6800 C   0  0  2  0  0  3  0  0  0  0  0  0
  184.4950  178.6940  142.4190 C   0  0  0  0  0  3  0  0  0  0  0  0
  189.8010  176.9620  143.3330 C   0  0  0  0  0  3  0  0  0  0  0  0
  189.6250  176.9980  145.7480 C   0  0  0  0  0  0  0  0  0  0  0  0
  190.3360  176.7970  147.0290 C   0  0  0  0  0  3  0  0  0  0  0  0
  187.5730  177.2860  138.9970 O   0  0  0  0  0  0  0  0  0  0  0  0
  188.6370  177.8010  139.4370 C   0  0  0  0  0  0  0  0  0  0  0  0
  188.8470  177.9380  140.8460 N   0  0  0  0  0  2  0  0  0  0  0  0
  189.0320  178.9370  137.2650 C   0  0  0  0  0  1  0  0  0  0  0  0
  189.6750  178.2710  138.4710 C   0  0  2  0  0  3  0  0  0  0  0  0
  191.7120  177.0420  138.5740 O   0  0  0  0  0  0  0  0  0  0  0  0
  190.5710  177.1490  138.0500 C   0  0  0  0  0  0  0  0  0  0  0  0
  190.1270  176.1980  137.0790 N   0  0  0  0  0  2  0  0  0  0  0  0
  190.9510  175.0740  136.6670 C   0  0  2  0  0  3  0  0  0  0  0  0
  190.0900  173.8990  136.3990 C   0  0  0  0  0  2  0  0  0  0  0  0
  190.8040  174.0320  137.6040 O   0  0  0  0  0  0  0  0  0  0  0  0
  1 14  1  0  0  0  0
  1  9  2  0  0  0  0
  2  3  1  0  0  0  0
  3 19  2  0  0  0  0
  3  7  1  0  0  0  0
  4 11  2  0  0  0  0
  5  2  1  0  0  0  0
  5 14  2  0  0  0  0
  6  1  1  0  0  0  0
  7  4  1  0  0  0  0
  8 23  1  6  0  0  0
  8 12  1  0  0  0  0
  8 13  1  0  0  0  0
 10 19  1  0  0  0  0
 12 16  1  0  0  0  0
 13 18  1  0  0  0  0
 13  2  2  0  0  0  0
 15 11  1  0  0  0  0
 16 17  1  1  0  0  0
 16  5  1  0  0  0  0
 17  6  2  0  0  0  0
 18 10  2  0  0  0  0
 19 20  1  0  0  0  0
 20 15  2  0  0  0  0
 21 22  2  0  0  0  0
 22 23  1  0  0  0  0
 25 24  1  6  0  0  0
 25 22  1  0  0  0  0
 27 25  1  0  0  0  0
 27 26  2  0  0  0  0
 28 27  1  0  0  0  0
 29 28  1  1  0  0  0
 29 31  1  0  0  0  0
 30 29  1  0  0  0  0
 30 31  1  0  0  0  0
M  END
>  <MODEL>
1

>  <REMARK>
 VINA RESULT:     -10.7      0.000      0.000
  Name = 
  4 active torsions:
  status: ('A' for Active; 'I' for Inactive)
    1  A    between atoms: C_1  and  N_24
    2  A    between atoms: C_9  and  C_22
    3  A    between atoms: C_15  and  N_23
    4  A    between atoms: C_19  and  C_22
                            x       y       z     vdW  Elec       q    Type
                         _______ _______ _______ _____ _____    ______ ____

>  <TORSDO>
F 4

$$$$
=
 OpenBabel11052413043D

 31 35  0  0  1  0  0  0  0  0999 V2000
  184.8380  178.7080  145.2140 C   0  0  0  0  0  0  0  0  0  0  0  0
  188.3300  177.4040  144.2720 C   0  0  0  0  0  0  0  0  0  0  0  0
  189.0560  177.1080  145.4630 C   0  0  0  0  0  0  0  0  0  0  0  0
  188.9480  178.0800  147.7340 C   0  0  0  0  0  3  0  0  0  0  0  0
  186.9030  177.8500  144.2300 C   0  0  0  0  0  0  0  0  0  0  0  0
  184.2710  178.9780  143.8890 C   0  0  0  0  0  3  0  0  0  0  0  0
  188.3740  177.0720  146.7980 C   0  0  0  0  0  2  0  0  0  0  0  0
  188.1890  177.4970  141.7400 C   0  0  2  0  0  3  0  0  0  0  0  0
  184.1690  178.9540  146.2500 O   0  0  0  0  0  0  0  0  0  0  0  0
  191.0080  176.5540  144.1240 C   0  0  0  0  0  3  0  0  0  0  0  0
  190.1990  178.0100  148.1830 C   0  0  0  0  0  3  0  0  0  0  0  0
  187.1690  178.4520  141.9340 O   0  0  0  0  0  0  0  0  0  0  0  0
  188.9780  177.2730  143.0210 C   0  0  0  0  0  0  0  0  0  0  0  0
  186.2110  178.2010  145.3220 C   0  0  0  0  0  3  0  0  0  0  0  0
  191.1870  177.0000  147.7590 C   0  0  0  0  0  3  0  0  0  0  0  0
  186.2620  177.8980  142.8510 C   0  0  2  0  0  3  0  0  0  0  0  0
  184.9450  178.6350  142.7900 C   0  0  0  0  0  3  0  0  0  0  0  0
  190.2990  176.8190  142.9590 C   0  0  0  0  0  3  0  0  0  0  0  0
  190.4140  176.7160  145.3760 C   0  0  0  0  0  0  0  0  0  0  0  0
  191.2710  176.4360  146.5480 C   0  0  0  0  0  3  0  0  0  0  0  0
  187.6880  177.1670  138.9430 O   0  0  0  0  0  0  0  0  0  0  0  0
  188.7460  177.7640  139.2810 C   0  0  0  0  0  0  0  0  0  0  0  0
  189.0660  177.9440  140.6640 N   0  0  0  0  0  2  0  0  0  0  0  0
  188.8980  179.1410  137.2210 C   0  0  0  0  0  1  0  0  0  0  0  0
  189.6600  178.2880  138.2220 C   0  0  2  0  0  3  0  0  0  0  0  0
  189.9970  176.7950  136.3990 O   0  0  0  0  0  0  0  0  0  0  0  0
  190.3860  177.1760  137.5350 C   0  0  0  0  0  0  0  0  0  0  0  0
  191.5220  176.5650  138.1540 N   0  0  0  0  0  2  0  0  0  0  0  0
  192.2760  175.5050  137.5060 C   0  0  2  0  0  3  0  0  0  0  0  0
  193.6990  175.5930  137.9060 C   0  0  0  0  0  2  0  0  0  0  0  0
  193.2490  176.0830  136.6660 O   0  0  0  0  0  0  0  0  0  0  0  0
  1 14  1  0  0  0  0
  1  9  2  0  0  0  0
  2  3  1  0  0  0  0
  3  7  1  0  0  0  0
  4 11  2  0  0  0  0
  5  2  1  0  0  0  0
  5 14  2  0  0  0  0
  6  1  1  0  0  0  0
  7  4  1  0  0  0  0
  8 23  1  6  0  0  0
  8 12  1  0  0  0  0
  8 13  1  0  0  0  0
 10 19  1  0  0  0  0
 12 16  1  0  0  0  0
 13  2  2  0  0  0  0
 15 11  1  0  0  0  0
 16 17  1  1  0  0  0
 16  5  1  0  0  0  0
 17  6  2  0  0  0  0
 18 13  1  0  0  0  0
 18 10  2  0  0  0  0
 19  3  2  0  0  0  0
 19 20  1  0  0  0  0
 20 15  2  0  0  0  0
 21 22  2  0  0  0  0
 22 23  1  0  0  0  0
 25 24  1  6  0  0  0
 25 22  1  0  0  0  0
 26 27  2  0  0  0  0
 27 28  1  0  0  0  0
 27 25  1  0  0  0  0
 29 30  1  0  0  0  0
 29 28  1  1  0  0  0
 31 29  1  0  0  0  0
 31 30  1  0  0  0  0
M  END
>  <MODEL>
2

>  <REMARK>
 VINA RESULT:     -10.6      1.183      1.366
  Name = 
  4 active torsions:
  status: ('A' for Active; 'I' for Inactive)
    1  A    between atoms: C_1  and  N_24
    2  A    between atoms: C_9  and  C_22
    3  A    between atoms: C_15  and  N_23
    4  A    between atoms: C_19  and  C_22
                            x       y       z     vdW  Elec       q    Type
                         _______ _______ _______ _____ _____    ______ ____

>  <TORSDO>
F 4

$$$$
=
 OpenBabel11052413043D

 31 35  0  0  1  0  0  0  0  0999 V2000
  188.9650  177.3810  147.4360 C   0  0  0  0  0  0  0  0  0  0  0  0
  187.5100  178.1310  143.9570 C   0  0  0  0  0  0  0  0  0  0  0  0
  186.1960  178.6660  144.1050 C   0  0  0  0  0  0  0  0  0  0  0  0
  184.4690  178.3180  145.8400 C   0  0  0  0  0  3  0  0  0  0  0  0
  188.4290  177.7990  145.0900 C   0  0  0  0  0  0  0  0  0  0  0  0
  190.2750  176.8250  147.0800 C   0  0  0  0  0  3  0  0  0  0  0  0
  185.6800  179.0940  145.4460 C   0  0  0  0  0  2  0  0  0  0  0  0
  189.4420  177.4040  142.4830 C   0  0  2  0  0  3  0  0  0  0  0  0
  188.6180  177.4600  148.6420 O   0  0  0  0  0  0  0  0  0  0  0  0
  185.9520  178.7090  141.6860 C   0  0  0  0  0  3  0  0  0  0  0  0
  183.3160  178.4060  145.1800 C   0  0  0  0  0  3  0  0  0  0  0  0
  189.8460  176.6110  143.5770 O   0  0  0  0  0  0  0  0  0  0  0  0
  188.0110  177.8880  142.6560 C   0  0  0  0  0  0  0  0  0  0  0  0
  188.0420  177.7930  146.3720 C   0  0  0  0  0  3  0  0  0  0  0  0
  183.1110  179.1960  143.9520 C   0  0  0  0  0  3  0  0  0  0  0  0
  189.8580  177.4490  144.7040 C   0  0  2  0  0  3  0  0  0  0  0  0
  190.6770  176.8230  145.8080 C   0  0  0  0  0  3  0  0  0  0  0  0
  187.2400  178.2100  141.5360 C   0  0  0  0  0  3  0  0  0  0  0  0
  185.4100  178.9180  142.9540 C   0  0  0  0  0  0  0  0  0  0  0  0
  184.0210  179.4230  142.9970 C   0  0  0  0  0  3  0  0  0  0  0  0
  191.3880  177.8710  140.4380 O   0  0  0  0  0  0  0  0  0  0  0  0
  190.5920  176.9060  140.2790 C   0  0  0  0  0  0  0  0  0  0  0  0
  189.5810  176.6320  141.2540 N   0  0  0  0  0  2  0  0  0  0  0  0
  191.9870  176.3790  138.2940 C   0  0  0  0  0  1  0  0  0  0  0  0
  190.7170  176.0480  139.0610 C   0  0  2  0  0  3  0  0  0  0  0  0
  189.2190  175.2300  137.4020 O   0  0  0  0  0  0  0  0  0  0  0  0
  189.5130  176.1740  138.1840 C   0  0  0  0  0  0  0  0  0  0  0  0
  188.6920  177.3440  138.2480 N   0  0  0  0  0  2  0  0  0  0  0  0
  187.4940  177.4910  137.4380 C   0  0  2  0  0  3  0  0  0  0  0  0
  187.5760  178.7460  136.6560 C   0  0  0  0  0  2  0  0  0  0  0  0
  186.8150  178.6600  137.8360 O   0  0  0  0  0  0  0  0  0  0  0  0
  1  9  2  0  0  0  0
  2  3  1  0  0  0  0
  2  5  1  0  0  0  0
  3  7  1  0  0  0  0
  5 14  2  0  0  0  0
  6  1  1  0  0  0  0
  7  4  1  0  0  0  0
  8 23  1  6  0  0  0
  8 13  1  0  0  0  0
  8 12  1  0  0  0  0
 10 19  1  0  0  0  0
 11  4  2  0  0  0  0
 12 16  1  0  0  0  0
 13  2  2  0  0  0  0
 14  1  1  0  0  0  0
 15 11  1  0  0  0  0
 16  5  1  0  0  0  0
 16 17  1  1  0  0  0
 17  6  2  0  0  0  0
 18 10  2  0  0  0  0
 18 13  1  0  0  0  0
 19 20  1  0  0  0  0
 19  3  2  0  0  0  0
 20 15  2  0  0  0  0
 22 21  2  0  0  0  0
 22 23  1  0  0  0  0
 25 24  1  6  0  0  0
 25 22  1  0  0  0  0
 26 27  2  0  0  0  0
 27 28  1  0  0  0  0
 27 25  1  0  0  0  0
 29 31  1  0  0  0  0
 29 28  1  1  0  0  0
 30 29  1  0  0  0  0
 30 31  1  0  0  0  0
M  END
>  <MODEL>
3

>  <REMARK>
 VINA RESULT:      -9.8      1.969      4.665
  Name = 
  4 active torsions:
  status: ('A' for Active; 'I' for Inactive)
    1  A    between atoms: C_1  and  N_24
    2  A    between atoms: C_9  and  C_22
    3  A    between atoms: C_15  and  N_23
    4  A    between atoms: C_19  and  C_22
                            x       y       z     vdW  Elec       q    Type
                         _______ _______ _______ _____ _____    ______ ____

>  <TORSDO>
F 4

$$$$
=
 OpenBabel11052413043D

 31 35  0  0  1  0  0  0  0  0999 V2000
  190.7720  177.4200  141.8220 C   0  0  0  0  0  0  0  0  0  0  0  0
  187.5860  178.1940  143.8320 C   0  0  0  0  0  0  0  0  0  0  0  0
  187.8850  178.1260  145.2250 C   0  0  0  0  0  0  0  0  0  0  0  0
  189.5440  176.7950  146.4850 C   0  0  0  0  0  3  0  0  0  0  0  0
  188.5920  178.0390  142.7360 C   0  0  0  0  0  0  0  0  0  0  0  0
  190.2660  177.5080  140.4490 C   0  0  0  0  0  3  0  0  0  0  0  0
  189.3000  178.0470  145.7130 C   0  0  0  0  0  2  0  0  0  0  0  0
  185.9370  178.5910  141.9460 C   0  0  2  0  0  3  0  0  0  0  0  0
  191.9740  177.1210  142.0370 O   0  0  0  0  0  0  0  0  0  0  0  0
  185.5430  178.5380  145.7350 C   0  0  0  0  0  3  0  0  0  0  0  0
  188.9510  176.5460  147.6510 C   0  0  0  0  0  3  0  0  0  0  0  0
  186.8160  177.8260  141.1510 O   0  0  0  0  0  0  0  0  0  0  0  0
  186.2510  178.4260  143.4240 C   0  0  0  0  0  0  0  0  0  0  0  0
  189.8510  177.6330  142.9450 C   0  0  0  0  0  3  0  0  0  0  0  0
  187.9350  177.4130  148.2770 C   0  0  0  0  0  3  0  0  0  0  0  0
  188.1010  178.3640  141.3330 C   0  0  2  0  0  3  0  0  0  0  0  0
  189.0160  177.9120  140.2200 C   0  0  0  0  0  3  0  0  0  0  0  0
  185.2510  178.6280  144.3800 C   0  0  0  0  0  3  0  0  0  0  0  0
  186.8400  178.2660  146.1710 C   0  0  0  0  0  0  0  0  0  0  0  0
  187.0300  178.1610  147.6340 C   0  0  0  0  0  3  0  0  0  0  0  0
  184.3220  179.5950  139.8090 O   0  0  0  0  0  0  0  0  0  0  0  0
  183.8170  178.7190  140.5620 C   0  0  0  0  0  0  0  0  0  0  0  0
  184.5640  178.1910  141.6620 N   0  0  0  0  0  2  0  0  0  0  0  0
  182.1160  178.2900  138.8040 C   0  0  0  0  0  1  0  0  0  0  0  0
  182.4300  178.2330  140.2900 C   0  0  2  0  0  3  0  0  0  0  0  0
  180.8190  179.9690  140.5370 O   0  0  0  0  0  0  0  0  0  0  0  0
  181.4220  179.0050  141.0810 C   0  0  0  0  0  0  0  0  0  0  0  0
  181.1310  178.6390  142.4330 N   0  0  0  0  0  2  0  0  0  0  0  0
  180.1350  179.3400  143.2250 C   0  0  2  0  0  3  0  0  0  0  0  0
  179.7120  178.4870  144.3590 C   0  0  0  0  0  2  0  0  0  0  0  0
  178.9310  178.6100  143.1950 O   0  0  0  0  0  0  0  0  0  0  0  0
  1  9  2  0  0  0  0
  1 14  1  0  0  0  0
  2  3  1  0  0  0  0
  3  7  1  0  0  0  0
  3 19  2  0  0  0  0
  4 11  2  0  0  0  0
  5 14  2  0  0  0  0
  5  2  1  0  0  0  0
  6  1  1  0  0  0  0
  7  4  1  0  0  0  0
  8 23  1  1  0  0  0
  8 13  1  0  0  0  0
 10 19  1  0  0  0  0
 11 15  1  0  0  0  0
 12 16  1  0  0  0  0
 12  8  1  0  0  0  0
 13  2  2  0  0  0  0
 13 18  1  0  0  0  0
 16 17  1  6  0  0  0
 16  5  1  0  0  0  0
 17  6  2  0  0  0  0
 18 10  2  0  0  0  0
 19 20  1  0  0  0  0
 20 15  2  0  0  0  0
 21 22  2  0  0  0  0
 22 23  1  0  0  0  0
 25 24  1  6  0  0  0
 25 22  1  0  0  0  0
 25 27  1  0  0  0  0
 26 27  2  0  0  0  0
 27 28  1  0  0  0  0
 29 28  1  6  0  0  0
 29 30  1  0  0  0  0
 31 29  1  0  0  0  0
 31 30  1  0  0  0  0
M  END
>  <MODEL>
4

>  <REMARK>
 VINA RESULT:      -9.7      2.899      6.844
  Name = 
  4 active torsions:
  status: ('A' for Active; 'I' for Inactive)
    1  A    between atoms: C_1  and  N_24
    2  A    between atoms: C_9  and  C_22
    3  A    between atoms: C_15  and  N_23
    4  A    between atoms: C_19  and  C_22
                            x       y       z     vdW  Elec       q    Type
                         _______ _______ _______ _____ _____    ______ ____

>  <TORSDO>
F 4

$$$$
=
 OpenBabel11052413043D

 31 35  0  0  1  0  0  0  0  0999 V2000
  190.6140  176.7820  146.2060 C   0  0  0  0  0  0  0  0  0  0  0  0
  187.9040  178.0250  143.7780 C   0  0  0  0  0  0  0  0  0  0  0  0
  186.7700  178.4580  144.5250 C   0  0  0  0  0  0  0  0  0  0  0  0
  185.8740  177.7380  146.7140 C   0  0  0  0  0  3  0  0  0  0  0  0
  189.1930  177.5570  144.3770 C   0  0  0  0  0  0  0  0  0  0  0  0
  191.6610  176.3620  145.2690 C   0  0  0  0  0  3  0  0  0  0  0  0
  186.8400  178.6300  146.0130 C   0  0  0  0  0  2  0  0  0  0  0  0
  189.0720  177.6550  141.5560 C   0  0  2  0  0  3  0  0  0  0  0  0
  190.7800  176.6410  147.4450 O   0  0  0  0  0  0  0  0  0  0  0  0
  185.5810  178.8920  142.4490 C   0  0  0  0  0  3  0  0  0  0  0  0
  184.5550  177.8740  146.5910 C   0  0  0  0  0  3  0  0  0  0  0  0
  189.8650  176.7130  142.2450 O   0  0  0  0  0  0  0  0  0  0  0  0
  187.8400  178.0290  142.3640 C   0  0  0  0  0  0  0  0  0  0  0  0
  189.3510  177.3180  145.6850 C   0  0  0  0  0  3  0  0  0  0  0  0
  183.8910  178.8460  145.7030 C   0  0  0  0  0  3  0  0  0  0  0  0
  190.3420  177.3500  143.4010 C   0  0  2  0  0  3  0  0  0  0  0  0
  191.5210  176.5930  143.9630 C   0  0  0  0  0  3  0  0  0  0  0  0
  186.6910  178.4920  141.7150 C   0  0  0  0  0  3  0  0  0  0  0  0
  185.5950  178.8580  143.8430 C   0  0  0  0  0  0  0  0  0  0  0  0
  184.3480  179.2760  144.5210 C   0  0  0  0  0  3  0  0  0  0  0  0
  189.0560  179.0950  139.0840 O   0  0  0  0  0  0  0  0  0  0  0  0
  188.7270  177.8780  139.0540 C   0  0  0  0  0  0  0  0  0  0  0  0
  188.6940  177.1070  140.2590 N   0  0  0  0  0  2  0  0  0  0  0  0
  189.0660  177.9630  136.5960 C   0  0  0  0  0  1  0  0  0  0  0  0
  188.3760  177.2470  137.7460 C   0  0  2  0  0  3  0  0  0  0  0  0
  186.3970  176.3300  136.7920 O   0  0  0  0  0  0  0  0  0  0  0  0
  186.8940  177.2110  137.5420 C   0  0  0  0  0  0  0  0  0  0  0  0
  186.0520  178.1560  138.2090 N   0  0  0  0  0  2  0  0  0  0  0  0
  184.6050  178.1350  138.0660 C   0  0  2  0  0  3  0  0  0  0  0  0
  184.0100  179.2110  138.8890 C   0  0  0  0  0  2  0  0  0  0  0  0
  184.0260  177.8730  139.3230 O   0  0  0  0  0  0  0  0  0  0  0  0
  1  9  2  0  0  0  0
  2  5  1  0  0  0  0
  2  3  1  0  0  0  0
  3  7  1  0  0  0  0
  5 14  2  0  0  0  0
  6  1  1  0  0  0  0
  7  4  1  0  0  0  0
  8 23  1  6  0  0  0
  8 12  1  0  0  0  0
  8 13  1  0  0  0  0
 10 19  1  0  0  0  0
 11  4  2  0  0  0  0
 12 16  1  0  0  0  0
 13  2  2  0  0  0  0
 14  1  1  0  0  0  0
 15 11  1  0  0  0  0
 16 17  1  1  0  0  0
 16  5  1  0  0  0  0
 17  6  2  0  0  0  0
 18 13  1  0  0  0  0
 18 10  2  0  0  0  0
 19 20  1  0  0  0  0
 19  3  2  0  0  0  0
 20 15  2  0  0  0  0
 22 21  2  0  0  0  0
 22 23  1  0  0  0  0
 25 24  1  6  0  0  0
 25 22  1  0  0  0  0
 26 27  2  0  0  0  0
 27 25  1  0  0  0  0
 27 28  1  0  0  0  0
 29 28  1  1  0  0  0
 29 30  1  0  0  0  0
 29 31  1  0  0  0  0
 30 31  1  0  0  0  0
M  END
>  <MODEL>
5

>  <REMARK>
 VINA RESULT:      -9.6      2.421      5.003
  Name = 
  4 active torsions:
  status: ('A' for Active; 'I' for Inactive)
    1  A    between atoms: C_1  and  N_24
    2  A    between atoms: C_9  and  C_22
    3  A    between atoms: C_15  and  N_23
    4  A    between atoms: C_19  and  C_22
                            x       y       z     vdW  Elec       q    Type
                         _______ _______ _______ _____ _____    ______ ____

>  <TORSDO>
F 4

$$$$
=
 OpenBabel11052413043D

 31 35  0  0  1  0  0  0  0  0999 V2000
  181.2320  178.7560  141.6720 C   0  0  0  0  0  0  0  0  0  0  0  0
  185.0690  178.5870  141.4780 C   0  0  0  0  0  0  0  0  0  0  0  0
  185.4660  178.5340  140.1100 C   0  0  0  0  0  0  0  0  0  0  0  0
  184.3390  177.6180  138.1090 C   0  0  0  0  0  3  0  0  0  0  0  0
  183.6590  178.7490  141.9520 C   0  0  0  0  0  0  0  0  0  0  0  0
  181.0240  178.7750  143.1230 C   0  0  0  0  0  3  0  0  0  0  0  0
  184.4870  178.7990  139.0070 C   0  0  0  0  0  2  0  0  0  0  0  0
  185.6560  178.6340  143.9460 C   0  0  2  0  0  3  0  0  0  0  0  0
  180.2470  178.7670  140.8900 O   0  0  0  0  0  0  0  0  0  0  0  0
  187.7850  178.3040  140.8040 C   0  0  0  0  0  3  0  0  0  0  0  0
  185.3340  177.1700  137.3460 C   0  0  0  0  0  3  0  0  0  0  0  0
  184.3450  178.1600  144.1640 O   0  0  0  0  0  0  0  0  0  0  0  0
  186.0570  178.4870  142.4870 C   0  0  0  0  0  0  0  0  0  0  0  0
  182.5970  178.6710  141.1390 C   0  0  0  0  0  3  0  0  0  0  0  0
  186.7040  177.7150  137.3490 C   0  0  0  0  0  3  0  0  0  0  0  0
  183.4830  179.0020  143.4420 C   0  0  2  0  0  3  0  0  0  0  0  0
  182.0690  178.8530  143.9480 C   0  0  0  0  0  3  0  0  0  0  0  0
  187.4060  178.3780  142.1390 C   0  0  0  0  0  3  0  0  0  0  0  0
  186.8330  178.3550  139.7860 C   0  0  0  0  0  0  0  0  0  0  0  0
  187.3460  178.2340  138.4040 C   0  0  0  0  0  3  0  0  0  0  0  0
  186.1740  179.2290  146.6960 O   0  0  0  0  0  0  0  0  0  0  0  0
  186.7770  178.2450  146.1870 C   0  0  0  0  0  0  0  0  0  0  0  0
  186.5780  177.9070  144.8110 N   0  0  0  0  0  2  0  0  0  0  0  0
  187.6360  177.8830  148.4880 C   0  0  0  0  0  1  0  0  0  0  0  0
  187.6980  177.4320  147.0380 C   0  0  2  0  0  3  0  0  0  0  0  0
  189.3750  178.2530  145.5610 O   0  0  0  0  0  0  0  0  0  0  0  0
  189.1000  177.4830  146.5200 C   0  0  0  0  0  0  0  0  0  0  0  0
  190.1210  176.6810  147.1210 N   0  0  0  0  0  2  0  0  0  0  0  0
  191.5020  176.7260  146.6710 C   0  0  2  0  0  3  0  0  0  0  0  0
  192.2160  175.5170  147.1390 C   0  0  0  0  0  2  0  0  0  0  0  0
  192.3490  176.7530  147.7960 O   0  0  0  0  0  0  0  0  0  0  0  0
  1  6  1  0  0  0  0
  2  5  1  0  0  0  0
  2 13  1  0  0  0  0
  3  2  2  0  0  0  0
  4  7  1  0  0  0  0
  5 16  1  0  0  0  0
  6 17  2  0  0  0  0
  7  3  1  0  0  0  0
  8 12  1  0  0  0  0
  8 23  1  1  0  0  0
  9  1  2  0  0  0  0
 10 18  1  0  0  0  0
 11 15  1  0  0  0  0
 11  4  2  0  0  0  0
 13  8  1  0  0  0  0
 14  1  1  0  0  0  0
 14  5  2  0  0  0  0
 15 20  2  0  0  0  0
 16 17  1  1  0  0  0
 16 12  1  0  0  0  0
 18 13  2  0  0  0  0
 19  3  1  0  0  0  0
 19 10  2  0  0  0  0
 20 19  1  0  0  0  0
 22 21  2  0  0  0  0
 22 25  1  0  0  0  0
 23 22  1  0  0  0  0
 25 24  1  1  0  0  0
 26 27  2  0  0  0  0
 27 25  1  0  0  0  0
 27 28  1  0  0  0  0
 29 28  1  1  0  0  0
 29 30  1  0  0  0  0
 29 31  1  0  0  0  0
 30 31  1  0  0  0  0
M  END
>  <MODEL>
6

>  <REMARK>
 VINA RESULT:      -9.5      3.622      7.445
  Name = 
  4 active torsions:
  status: ('A' for Active; 'I' for Inactive)
    1  A    between atoms: C_1  and  N_24
    2  A    between atoms: C_9  and  C_22
    3  A    between atoms: C_15  and  N_23
    4  A    between atoms: C_19  and  C_22
                            x       y       z     vdW  Elec       q    Type
                         _______ _______ _______ _____ _____    ______ ____

>  <TORSDO>
F 4

$$$$
=
 OpenBabel11052413043D

 31 35  0  0  1  0  0  0  0  0999 V2000
  190.2730  177.0300  146.0530 C   0  0  0  0  0  0  0  0  0  0  0  0
  187.7140  178.1580  143.4140 C   0  0  0  0  0  0  0  0  0  0  0  0
  186.5210  178.5810  144.0700 C   0  0  0  0  0  0  0  0  0  0  0  0
  185.4890  177.8860  146.2070 C   0  0  0  0  0  3  0  0  0  0  0  0
  188.9670  177.7330  144.1110 C   0  0  0  0  0  0  0  0  0  0  0  0
  191.3920  176.6150  145.2010 C   0  0  0  0  0  3  0  0  0  0  0  0
  186.4830  178.7860  145.5550 C   0  0  0  0  0  2  0  0  0  0  0  0
  189.0430  177.7690  141.2880 C   0  0  2  0  0  3  0  0  0  0  0  0
  190.3540  176.9190  147.3030 O   0  0  0  0  0  0  0  0  0  0  0  0
  185.4720  178.9430  141.9060 C   0  0  0  0  0  3  0  0  0  0  0  0
  184.1800  177.9890  145.9900 C   0  0  0  0  0  3  0  0  0  0  0  0
  189.8060  176.8600  142.0510 O   0  0  0  0  0  0  0  0  0  0  0  0
  187.7490  178.1310  141.9990 C   0  0  0  0  0  0  0  0  0  0  0  0
  189.0380  177.5250  145.4330 C   0  0  0  0  0  3  0  0  0  0  0  0
  183.5590  178.9260  145.0350 C   0  0  0  0  0  3  0  0  0  0  0  0
  190.1870  177.5330  143.2240 C   0  0  2  0  0  3  0  0  0  0  0  0
  191.3400  176.8150  143.8830 C   0  0  0  0  0  3  0  0  0  0  0  0
  186.6400  178.5530  141.2620 C   0  0  0  0  0  3  0  0  0  0  0  0
  185.3880  178.9390  143.2990 C   0  0  0  0  0  0  0  0  0  0  0  0
  184.0880  179.3410  143.8780 C   0  0  0  0  0  3  0  0  0  0  0  0
  189.1870  179.1520  138.7870 O   0  0  0  0  0  0  0  0  0  0  0  0
  188.8790  177.9290  138.7630 C   0  0  0  0  0  0  0  0  0  0  0  0
  188.7690  177.1850  139.9800 N   0  0  0  0  0  2  0  0  0  0  0  0
  187.7310  176.0510  137.6140 C   0  0  0  0  0  1  0  0  0  0  0  0
  188.6340  177.2630  137.4480 C   0  0  2  0  0  3  0  0  0  0  0  0
  189.9550  176.7690  135.5300 O   0  0  0  0  0  0  0  0  0  0  0  0
  189.9200  176.8860  136.7840 C   0  0  0  0  0  0  0  0  0  0  0  0
  191.1010  176.6800  137.5640 N   0  0  0  0  0  2  0  0  0  0  0  0
  192.3790  176.3470  136.9560 C   0  0  2  0  0  3  0  0  0  0  0  0
  193.1060  175.3920  137.8220 C   0  0  0  0  0  2  0  0  0  0  0  0
  193.4160  176.7640  137.8140 O   0  0  0  0  0  0  0  0  0  0  0  0
  1  9  2  0  0  0  0
  2  3  1  0  0  0  0
  2  5  1  0  0  0  0
  3  7  1  0  0  0  0
  5 14  2  0  0  0  0
  6  1  1  0  0  0  0
  7  4  1  0  0  0  0
  8 23  1  6  0  0  0
  8 13  1  0  0  0  0
  8 12  1  0  0  0  0
 10 19  1  0  0  0  0
 11  4  2  0  0  0  0
 12 16  1  0  0  0  0
 13  2  2  0  0  0  0
 14  1  1  0  0  0  0
 15 11  1  0  0  0  0
 16 17  1  1  0  0  0
 16  5  1  0  0  0  0
 17  6  2  0  0  0  0
 18 10  2  0  0  0  0
 18 13  1  0  0  0  0
 19 20  1  0  0  0  0
 19  3  2  0  0  0  0
 20 15  2  0  0  0  0
 22 21  2  0  0  0  0
 22 23  1  0  0  0  0
 25 24  1  1  0  0  0
 25 22  1  0  0  0  0
 26 27  2  0  0  0  0
 27 25  1  0  0  0  0
 27 28  1  0  0  0  0
 29 28  1  1  0  0  0
 29 31  1  0  0  0  0
 29 30  1  0  0  0  0
 31 30  1  0  0  0  0
M  END
>  <MODEL>
7

>  <REMARK>
 VINA RESULT:      -9.5      2.207      4.361
  Name = 
  4 active torsions:
  status: ('A' for Active; 'I' for Inactive)
    1  A    between atoms: C_1  and  N_24
    2  A    between atoms: C_9  and  C_22
    3  A    between atoms: C_15  and  N_23
    4  A    between atoms: C_19  and  C_22
                            x       y       z     vdW  Elec       q    Type
                         _______ _______ _______ _____ _____    ______ ____

>  <TORSDO>
F 4

$$$$
=
 OpenBabel11052413043D

 31 35  0  0  1  0  0  0  0  0999 V2000
  190.9290  177.3720  141.7700 C   0  0  0  0  0  0  0  0  0  0  0  0
  187.7080  178.1840  143.7060 C   0  0  0  0  0  0  0  0  0  0  0  0
  187.9720  178.1100  145.1050 C   0  0  0  0  0  0  0  0  0  0  0  0
  189.5830  176.7550  146.4010 C   0  0  0  0  0  3  0  0  0  0  0  0
  188.7370  178.0180  142.6330 C   0  0  0  0  0  0  0  0  0  0  0  0
  190.4580  177.4690  140.3850 C   0  0  0  0  0  3  0  0  0  0  0  0
  189.3740  178.0110  145.6260 C   0  0  0  0  0  2  0  0  0  0  0  0
  186.1080  178.6060  141.7820 C   0  0  2  0  0  3  0  0  0  0  0  0
  192.1220  177.0560  142.0120 O   0  0  0  0  0  0  0  0  0  0  0  0
  185.6240  178.5520  145.5610 C   0  0  0  0  0  3  0  0  0  0  0  0
  188.9590  176.5120  147.5520 C   0  0  0  0  0  3  0  0  0  0  0  0
  186.9970  177.8310  141.0070 O   0  0  0  0  0  0  0  0  0  0  0  0
  186.3860  178.4350  143.2670 C   0  0  0  0  0  0  0  0  0  0  0  0
  189.9850  177.5940  142.8710 C   0  0  0  0  0  3  0  0  0  0  0  0
  187.9410  177.3910  148.1560 C   0  0  0  0  0  3  0  0  0  0  0  0
  188.2830  178.3520  141.2200 C   0  0  2  0  0  3  0  0  0  0  0  0
  189.2180  177.8890  140.1280 C   0  0  0  0  0  3  0  0  0  0  0  0
  185.3660  178.6480  144.1990 C   0  0  0  0  0  3  0  0  0  0  0  0
  186.9070  178.2620  146.0270 C   0  0  0  0  0  0  0  0  0  0  0  0
  187.0610  178.1520  147.4930 C   0  0  0  0  0  3  0  0  0  0  0  0
  184.4940  179.7690  139.7260 O   0  0  0  0  0  0  0  0  0  0  0  0
  183.9900  178.8350  140.4070 C   0  0  0  0  0  0  0  0  0  0  0  0
  184.7370  178.2250  141.4650 N   0  0  0  0  0  2  0  0  0  0  0  0
  181.7260  178.4150  141.3350 C   0  0  0  0  0  1  0  0  0  0  0  0
  182.6050  178.3670  140.0960 C   0  0  2  0  0  3  0  0  0  0  0  0
  181.7880  176.1390  139.9070 O   0  0  0  0  0  0  0  0  0  0  0  0
  182.6180  176.9960  139.5000 C   0  0  0  0  0  0  0  0  0  0  0  0
  183.5510  176.6670  138.4660 N   0  0  0  0  0  2  0  0  0  0  0  0
  183.5740  175.3570  137.8360 C   0  0  2  0  0  3  0  0  0  0  0  0
  184.8370  175.1940  137.0800 C   0  0  0  0  0  2  0  0  0  0  0  0
  183.6290  175.5230  136.4380 O   0  0  0  0  0  0  0  0  0  0  0  0
  1  9  2  0  0  0  0
  1 14  1  0  0  0  0
  2  3  1  0  0  0  0
  3  7  1  0  0  0  0
  3 19  2  0  0  0  0
  4 11  2  0  0  0  0
  5 14  2  0  0  0  0
  5  2  1  0  0  0  0
  6  1  1  0  0  0  0
  7  4  1  0  0  0  0
  8 23  1  1  0  0  0
  8 13  1  0  0  0  0
 10 19  1  0  0  0  0
 11 15  1  0  0  0  0
 12 16  1  0  0  0  0
 12  8  1  0  0  0  0
 13  2  2  0  0  0  0
 13 18  1  0  0  0  0
 16 17  1  6  0  0  0
 16  5  1  0  0  0  0
 17  6  2  0  0  0  0
 18 10  2  0  0  0  0
 19 20  1  0  0  0  0
 20 15  2  0  0  0  0
 21 22  2  0  0  0  0
 22 23  1  0  0  0  0
 25 22  1  0  0  0  0
 25 24  1  1  0  0  0
 27 26  2  0  0  0  0
 27 25  1  0  0  0  0
 28 27  1  0  0  0  0
 29 28  1  1  0  0  0
 30 29  1  0  0  0  0
 31 30  1  0  0  0  0
 31 29  1  0  0  0  0
M  END
>  <MODEL>
8

>  <REMARK>
 VINA RESULT:      -9.3      2.886      5.456
  Name = 
  4 active torsions:
  status: ('A' for Active; 'I' for Inactive)
    1  A    between atoms: C_1  and  N_24
    2  A    between atoms: C_9  and  C_22
    3  A    between atoms: C_15  and  N_23
    4  A    between atoms: C_19  and  C_22
                            x       y       z     vdW  Elec       q    Type
                         _______ _______ _______ _____ _____    ______ ____

>  <TORSDO>
F 4

$$$$
=
 OpenBabel11052413043D

 31 35  0  0  1  0  0  0  0  0999 V2000
  191.0120  177.3350  141.8740 C   0  0  0  0  0  0  0  0  0  0  0  0
  187.7770  178.1540  143.7840 C   0  0  0  0  0  0  0  0  0  0  0  0
  188.0310  178.0870  145.1850 C   0  0  0  0  0  0  0  0  0  0  0  0
  189.6350  176.7410  146.5000 C   0  0  0  0  0  3  0  0  0  0  0  0
  188.8130  177.9830  142.7190 C   0  0  0  0  0  0  0  0  0  0  0  0
  190.5500  177.4240  140.4860 C   0  0  0  0  0  3  0  0  0  0  0  0
  189.4300  177.9930  145.7160 C   0  0  0  0  0  2  0  0  0  0  0  0
  186.1900  178.5640  141.8470 C   0  0  2  0  0  3  0  0  0  0  0  0
  192.2040  177.0220  142.1260 O   0  0  0  0  0  0  0  0  0  0  0  0
  185.6800  178.5290  145.6230 C   0  0  0  0  0  3  0  0  0  0  0  0
  189.0040  176.5030  147.6470 C   0  0  0  0  0  3  0  0  0  0  0  0
  187.0840  177.7860  141.0820 O   0  0  0  0  0  0  0  0  0  0  0  0
  186.4570  178.4010  143.3350 C   0  0  0  0  0  0  0  0  0  0  0  0
  190.0600  177.5620  142.9680 C   0  0  0  0  0  3  0  0  0  0  0  0
  187.9800  177.3840  148.2400 C   0  0  0  0  0  3  0  0  0  0  0  0
  188.3690  178.3090  141.3010 C   0  0  2  0  0  3  0  0  0  0  0  0
  189.3120  177.8420  140.2180 C   0  0  0  0  0  3  0  0  0  0  0  0
  185.4310  178.6180  144.2590 C   0  0  0  0  0  3  0  0  0  0  0  0
  186.9600  178.2430  146.0990 C   0  0  0  0  0  0  0  0  0  0  0  0
  187.1050  178.1410  147.5670 C   0  0  0  0  0  3  0  0  0  0  0  0
  184.5870  179.7160  139.7760 O   0  0  0  0  0  0  0  0  0  0  0  0
  184.0810  178.7840  140.4580 C   0  0  0  0  0  0  0  0  0  0  0  0
  184.8210  178.1800  141.5230 N   0  0  0  0  0  2  0  0  0  0  0  0
  182.6760  176.8090  139.9180 C   0  0  0  0  0  1  0  0  0  0  0  0
  182.6980  178.3130  140.1400 C   0  0  2  0  0  3  0  0  0  0  0  0
  182.2990  178.5550  137.8060 O   0  0  0  0  0  0  0  0  0  0  0  0
  182.1380  179.0380  138.9580 C   0  0  0  0  0  0  0  0  0  0  0  0
  181.4110  180.2570  139.1380 N   0  0  0  0  0  2  0  0  0  0  0  0
  180.8210  180.9750  138.0200 C   0  0  2  0  0  3  0  0  0  0  0  0
  181.2790  182.3830  138.0380 C   0  0  0  0  0  2  0  0  0  0  0  0
  180.0110  182.0130  138.5210 O   0  0  0  0  0  0  0  0  0  0  0  0
  1  9  2  0  0  0  0
  1 14  1  0  0  0  0
  2  3  1  0  0  0  0
  3  7  1  0  0  0  0
  3 19  2  0  0  0  0
  4 11  2  0  0  0  0
  5 14  2  0  0  0  0
  5  2  1  0  0  0  0
  6  1  1  0  0  0  0
  7  4  1  0  0  0  0
  8 23  1  1  0  0  0
  8 13  1  0  0  0  0
 10 19  1  0  0  0  0
 11 15  1  0  0  0  0
 12 16  1  0  0  0  0
 12  8  1  0  0  0  0
 13  2  2  0  0  0  0
 13 18  1  0  0  0  0
 16 17  1  6  0  0  0
 16  5  1  0  0  0  0
 17  6  2  0  0  0  0
 18 10  2  0  0  0  0
 19 20  1  0  0  0  0
 20 15  2  0  0  0  0
 21 22  2  0  0  0  0
 22 23  1  0  0  0  0
 25 24  1  6  0  0  0
 25 22  1  0  0  0  0
 26 27  2  0  0  0  0
 27 28  1  0  0  0  0
 27 25  1  0  0  0  0
 29 30  1  0  0  0  0
 29 31  1  0  0  0  0
 29 28  1  1  0  0  0
 30 31  1  0  0  0  0
M  END
>  <MODEL>
9

>  <REMARK>
 VINA RESULT:      -9.3      3.381      6.439
  Name = 
  4 active torsions:
  status: ('A' for Active; 'I' for Inactive)
    1  A    between atoms: C_1  and  N_24
    2  A    between atoms: C_9  and  C_22
    3  A    between atoms: C_15  and  N_23
    4  A    between atoms: C_19  and  C_22
                            x       y       z     vdW  Elec       q    Type
                         _______ _______ _______ _____ _____    ______ ____

>  <TORSDO>
F 4

$$$$
