=
 OpenBabel11052414403D

 32 37  0  0  1  0  0  0  0  0999 V2000
  188.9940  177.5550  141.4320 C   0  0  1  0  0  3  0  0  0  0  0  0
  187.2790  177.8490  143.3650 C   0  0  0  0  0  0  0  0  0  0  0  0
  190.5070  177.4340  141.1750 C   0  0  0  0  0  2  0  0  0  0  0  0
  188.5990  177.5670  142.9140 C   0  0  0  0  0  0  0  0  0  0  0  0
  186.9880  177.8390  144.7580 C   0  0  0  0  0  0  0  0  0  0  0  0
  182.6500  179.0090  142.4550 C   0  0  0  0  0  3  0  0  0  0  0  0
  186.2420  178.1370  142.4640 C   0  0  0  0  0  3  0  0  0  0  0  0
  183.3820  178.7090  144.7430 C   0  0  0  0  0  3  0  0  0  0  0  0
  184.6740  178.4210  144.2920 C   0  0  0  0  0  0  0  0  0  0  0  0
  189.5630  177.1670  143.8720 C   0  0  0  0  0  0  0  0  0  0  0  0
  185.6860  178.1260  145.2020 C   0  0  0  0  0  3  0  0  0  0  0  0
  189.2640  177.1680  145.2320 C   0  0  0  0  0  3  0  0  0  0  0  0
  190.8550  176.7170  143.4590 N   0  0  0  0  0  2  0  0  0  0  0  0
  184.9520  178.4200  142.9110 C   0  0  0  0  0  0  0  0  0  0  0  0
  187.9930  177.5120  145.6860 C   0  0  0  0  0  0  0  0  0  0  0  0
  191.1200  176.3780  142.0700 C   0  0  0  0  0  2  0  0  0  0  0  0
  182.3720  179.0030  143.8250 C   0  0  0  0  0  3  0  0  0  0  0  0
  183.9390  178.7170  141.9960 C   0  0  0  0  0  3  0  0  0  0  0  0
  188.0740  178.2760  139.0680 C   0  0  1  0  0  3  0  0  0  0  0  0
  187.0570  178.1190  140.0340 O   0  0  0  0  0  0  0  0  0  0  0  0
  188.2920  178.5970  140.5170 C   0  0  1  0  0  3  0  0  0  0  0  0
  189.6570  177.0100  137.4800 C   0  0  2  0  0  0  0  0  0  0  0  0
  187.5240  174.9890  135.8460 O   0  0  0  0  0  1  0  0  0  0  0  0
  189.4300  178.2020  136.5540 C   0  0  0  0  0  1  0  0  0  0  0  0
  187.5260  176.0630  137.9690 C   0  0  0  0  0  2  0  0  0  0  0  0
  189.5520  175.7900  136.6810 N   0  0  0  0  0  2  0  0  0  0  0  0
  188.6020  176.9120  138.5870 C   0  0  2  0  0  3  0  0  0  0  0  0
  188.2740  175.1640  137.0090 C   0  0  2  0  0  3  0  0  0  0  0  0
  191.0540  177.1280  138.0780 C   0  0  0  0  0  2  0  0  0  0  0  0
  191.6300  175.8680  138.2630 O   0  0  0  0  0  1  0  0  0  0  0  0
  187.7490  177.5270  147.1620 C   0  0  0  0  0  2  0  0  0  0  0  0
  189.0260  177.8780  147.9000 C   0  0  0  0  0  1  0  0  0  0  0  0
  1  3  1  1  0  0  0
  1  4  1  0  0  0  0
  2  5  1  0  0  0  0
  3 16  1  0  0  0  0
  4  2  2  0  0  0  0
  4 10  1  0  0  0  0
  5 11  1  0  0  0  0
  5 15  2  0  0  0  0
  6 17  1  0  0  0  0
  7 14  2  0  0  0  0
  7  2  1  0  0  0  0
  9  8  1  0  0  0  0
  9 11  2  0  0  0  0
 10 12  2  0  0  0  0
 12 15  1  0  0  0  0
 13 10  1  0  0  0  0
 14  9  1  0  0  0  0
 15 31  1  0  0  0  0
 16 13  1  0  0  0  0
 17  8  2  0  0  0  0
 18  6  2  0  0  0  0
 18 14  1  0  0  0  0
 19 20  1  1  0  0  0
 19 21  1  0  0  0  0
 21 20  1  1  0  0  0
 21  1  1  0  0  0  0
 22 24  1  6  0  0  0
 22 29  1  0  0  0  0
 22 27  1  0  0  0  0
 26 28  1  0  0  0  0
 26 22  1  0  0  0  0
 27 25  1  6  0  0  0
 27 19  1  0  0  0  0
 28 23  1  6  0  0  0
 28 25  1  0  0  0  0
 29 30  1  0  0  0  0
 31 32  1  0  0  0  0
M  END
>  <MODEL>
1

>  <REMARK>
 VINA RESULT:     -10.0      0.000      0.000
  Name = 
  4 active torsions:
  status: ('A' for Active; 'I' for Inactive)
    1  A    between atoms: C_1  and  C_27
    2  A    between atoms: C_3  and  C_22
    3  A    between atoms: C_13  and  C_29
    4  A    between atoms: C_16  and  C_20
                            x       y       z     vdW  Elec       q    Type
                         _______ _______ _______ _____ _____    ______ ____

>  <TORSDO>
F 4

$$$$
=
 OpenBabel11052414403D

 32 37  0  0  1  0  0  0  0  0999 V2000
  188.7580  177.6330  140.1310 C   0  0  1  0  0  3  0  0  0  0  0  0
  187.7340  177.9030  142.5070 C   0  0  0  0  0  0  0  0  0  0  0  0
  190.1140  177.5800  139.4070 C   0  0  0  0  0  2  0  0  0  0  0  0
  188.8550  177.6730  141.6620 C   0  0  0  0  0  0  0  0  0  0  0  0
  187.9030  177.9240  143.9200 C   0  0  0  0  0  0  0  0  0  0  0  0
  182.9960  178.7950  143.1080 C   0  0  0  0  0  3  0  0  0  0  0  0
  186.4490  178.1070  141.9810 C   0  0  0  0  0  3  0  0  0  0  0  0
  184.4350  178.6080  145.0460 C   0  0  0  0  0  3  0  0  0  0  0  0
  185.5300  178.3710  144.2100 C   0  0  0  0  0  0  0  0  0  0  0  0
  190.0960  177.3550  142.2670 C   0  0  0  0  0  0  0  0  0  0  0  0
  186.7950  178.1600  144.7530 C   0  0  0  0  0  3  0  0  0  0  0  0
  190.2460  177.3860  143.6510 C   0  0  0  0  0  3  0  0  0  0  0  0
  191.2130  176.9570  141.4700 N   0  0  0  0  0  2  0  0  0  0  0  0
  185.3540  178.3400  142.8120 C   0  0  0  0  0  0  0  0  0  0  0  0
  189.1690  177.6800  144.4830 C   0  0  0  0  0  0  0  0  0  0  0  0
  191.0420  176.5870  140.0740 C   0  0  0  0  0  2  0  0  0  0  0  0
  183.1700  178.8200  144.4950 C   0  0  0  0  0  3  0  0  0  0  0  0
  184.0860  178.5540  142.2650 C   0  0  0  0  0  3  0  0  0  0  0  0
  187.1980  178.2940  138.1110 C   0  0  1  0  0  3  0  0  0  0  0  0
  186.4820  178.0000  139.2910 O   0  0  0  0  0  0  0  0  0  0  0  0
  187.7410  178.6060  139.4740 C   0  0  1  0  0  3  0  0  0  0  0  0
  187.9860  177.1490  135.9420 C   0  0  2  0  0  0  0  0  0  0  0  0
  185.9170  174.5050  135.7670 O   0  0  0  0  0  1  0  0  0  0  0  0
  187.0130  178.1120  135.2650 C   0  0  0  0  0  1  0  0  0  0  0  0
  186.7470  175.8720  137.5270 C   0  0  0  0  0  2  0  0  0  0  0  0
  187.7970  175.8260  135.3510 N   0  0  0  0  0  2  0  0  0  0  0  0
  187.7280  177.0090  137.4460 C   0  0  2  0  0  3  0  0  0  0  0  0
  187.0880  175.0090  136.3330 C   0  0  2  0  0  3  0  0  0  0  0  0
  189.4040  177.6440  135.6830 C   0  0  0  0  0  2  0  0  0  0  0  0
  190.3240  176.5950  135.7650 O   0  0  0  0  0  1  0  0  0  0  0  0
  189.4060  177.7320  145.9590 C   0  0  0  0  0  2  0  0  0  0  0  0
  190.6510  176.9430  146.3160 C   0  0  0  0  0  1  0  0  0  0  0  0
  1  3  1  6  0  0  0
  1  4  1  0  0  0  0
  2  5  1  0  0  0  0
  3 16  1  0  0  0  0
  4 10  2  0  0  0  0
  4  2  1  0  0  0  0
  5 15  1  0  0  0  0
  5 11  2  0  0  0  0
  6 17  1  0  0  0  0
  7  2  2  0  0  0  0
  7 14  1  0  0  0  0
  9 11  1  0  0  0  0
  9  8  1  0  0  0  0
 10 12  1  0  0  0  0
 12 15  2  0  0  0  0
 13 10  1  0  0  0  0
 14  9  2  0  0  0  0
 15 31  1  0  0  0  0
 16 13  1  0  0  0  0
 17  8  2  0  0  0  0
 18 14  1  0  0  0  0
 18  6  2  0  0  0  0
 19 20  1  1  0  0  0
 19 21  1  0  0  0  0
 21 20  1  1  0  0  0
 21  1  1  0  0  0  0
 22 24  1  6  0  0  0
 22 27  1  0  0  0  0
 26 22  1  0  0  0  0
 26 28  1  0  0  0  0
 27 25  1  6  0  0  0
 27 19  1  0  0  0  0
 28 23  1  6  0  0  0
 28 25  1  0  0  0  0
 29 30  1  0  0  0  0
 29 22  1  0  0  0  0
 31 32  1  0  0  0  0
M  END
>  <MODEL>
2

>  <REMARK>
 VINA RESULT:      -9.2      1.335      1.667
  Name = 
  4 active torsions:
  status: ('A' for Active; 'I' for Inactive)
    1  A    between atoms: C_1  and  C_27
    2  A    between atoms: C_3  and  C_22
    3  A    between atoms: C_13  and  C_29
    4  A    between atoms: C_16  and  C_20
                            x       y       z     vdW  Elec       q    Type
                         _______ _______ _______ _____ _____    ______ ____

>  <TORSDO>
F 4

$$$$
=
 OpenBabel11052414403D

 32 37  0  0  1  0  0  0  0  0999 V2000
  184.0830  178.6370  142.5240 C   0  0  1  0  0  3  0  0  0  0  0  0
  186.5280  178.0860  143.2220 C   0  0  0  0  0  0  0  0  0  0  0  0
  182.6560  178.7010  143.0960 C   0  0  0  0  0  2  0  0  0  0  0  0
  185.1750  178.3590  143.5660 C   0  0  0  0  0  0  0  0  0  0  0  0
  187.4860  177.8410  144.2450 C   0  0  0  0  0  0  0  0  0  0  0  0
  190.0040  177.4560  139.8860 C   0  0  0  0  0  3  0  0  0  0  0  0
  186.9520  178.0560  141.8830 C   0  0  0  0  0  3  0  0  0  0  0  0
  190.5470  177.2450  142.2360 C   0  0  0  0  0  3  0  0  0  0  0  0
  189.2180  177.5260  142.5680 C   0  0  0  0  0  0  0  0  0  0  0  0
  184.8470  178.4930  144.9380 C   0  0  0  0  0  0  0  0  0  0  0  0
  188.8200  177.5620  143.9020 C   0  0  0  0  0  3  0  0  0  0  0  0
  185.7950  178.2430  145.9280 C   0  0  0  0  0  3  0  0  0  0  0  0
  183.5450  178.9250  145.3360 N   0  0  0  0  0  2  0  0  0  0  0  0
  188.2770  177.7800  141.5500 C   0  0  0  0  0  0  0  0  0  0  0  0
  187.1040  177.9060  145.5970 C   0  0  0  0  0  0  0  0  0  0  0  0
  182.6250  179.5130  144.3740 C   0  0  0  0  0  2  0  0  0  0  0  0
  190.9390  177.2100  140.8960 C   0  0  0  0  0  3  0  0  0  0  0  0
  188.6740  177.7420  140.2110 C   0  0  0  0  0  3  0  0  0  0  0  0
  183.0800  177.9730  140.1780 C   0  0  1  0  0  3  0  0  0  0  0  0
  184.2780  178.7120  140.0790 O   0  0  0  0  0  0  0  0  0  0  0  0
  184.1810  177.8490  141.1890 C   0  0  1  0  0  3  0  0  0  0  0  0
  180.5230  178.2790  140.2470 C   0  0  2  0  0  0  0  0  0  0  0  0
  180.1290  181.1620  138.5620 O   0  0  0  0  0  1  0  0  0  0  0  0
  180.5410  177.4060  138.9950 C   0  0  0  0  0  1  0  0  0  0  0  0
  181.8940  180.1800  139.8180 C   0  0  0  0  0  2  0  0  0  0  0  0
  179.6160  179.3990  140.0050 N   0  0  0  0  0  2  0  0  0  0  0  0
  181.8970  178.8780  140.5700 C   0  0  2  0  0  3  0  0  0  0  0  0
  180.4380  180.5880  139.7950 C   0  0  2  0  0  3  0  0  0  0  0  0
  180.0180  177.4350  141.4110 C   0  0  0  0  0  2  0  0  0  0  0  0
  179.0430  178.1180  142.1410 O   0  0  0  0  0  1  0  0  0  0  0  0
  188.0630  177.6160  146.7090 C   0  0  0  0  0  2  0  0  0  0  0  0
  187.5840  178.2620  147.9940 C   0  0  0  0  0  1  0  0  0  0  0  0
  1  3  1  1  0  0  0
  1  4  1  0  0  0  0
  2  4  2  0  0  0  0
  2  5  1  0  0  0  0
  3 16  1  0  0  0  0
  4 10  1  0  0  0  0
  5 15  2  0  0  0  0
  6 18  2  0  0  0  0
  6 17  1  0  0  0  0
  7  2  1  0  0  0  0
  8  9  1  0  0  0  0
  9 11  2  0  0  0  0
 10 13  1  0  0  0  0
 10 12  2  0  0  0  0
 11  5  1  0  0  0  0
 14  7  2  0  0  0  0
 14  9  1  0  0  0  0
 15 12  1  0  0  0  0
 15 31  1  0  0  0  0
 16 13  1  0  0  0  0
 17  8  2  0  0  0  0
 18 14  1  0  0  0  0
 19 20  1  6  0  0  0
 19 27  1  0  0  0  0
 19 21  1  0  0  0  0
 21 20  1  6  0  0  0
 21  1  1  0  0  0  0
 22 24  1  6  0  0  0
 22 27  1  0  0  0  0
 22 29  1  0  0  0  0
 26 22  1  0  0  0  0
 27 25  1  6  0  0  0
 28 23  1  6  0  0  0
 28 25  1  0  0  0  0
 28 26  1  0  0  0  0
 29 30  1  0  0  0  0
 31 32  1  0  0  0  0
M  END
>  <MODEL>
3

>  <REMARK>
 VINA RESULT:      -9.0      3.567      6.965
  Name = 
  4 active torsions:
  status: ('A' for Active; 'I' for Inactive)
    1  A    between atoms: C_1  and  C_27
    2  A    between atoms: C_3  and  C_22
    3  A    between atoms: C_13  and  C_29
    4  A    between atoms: C_16  and  C_20
                            x       y       z     vdW  Elec       q    Type
                         _______ _______ _______ _____ _____    ______ ____

>  <TORSDO>
F 4

$$$$
=
 OpenBabel11052414403D

 32 37  0  0  1  0  0  0  0  0999 V2000
  185.9850  178.2520  140.0980 C   0  0  1  0  0  3  0  0  0  0  0  0
  187.8400  177.8800  141.8830 C   0  0  0  0  0  0  0  0  0  0  0  0
  185.8000  178.6280  138.6170 C   0  0  0  0  0  2  0  0  0  0  0  0
  187.4440  178.0530  140.5270 C   0  0  0  0  0  0  0  0  0  0  0  0
  189.2140  177.6980  142.2030 C   0  0  0  0  0  0  0  0  0  0  0  0
  186.7480  177.5740  146.6080 C   0  0  0  0  0  3  0  0  0  0  0  0
  186.9000  177.8780  142.9260 C   0  0  0  0  0  3  0  0  0  0  0  0
  189.0550  177.3880  145.8970 C   0  0  0  0  0  3  0  0  0  0  0  0
  188.6580  177.5480  144.5650 C   0  0  0  0  0  0  0  0  0  0  0  0
  188.4310  177.9220  139.5190 C   0  0  0  0  0  0  0  0  0  0  0  0
  189.6040  177.5350  143.5440 C   0  0  0  0  0  3  0  0  0  0  0  0
  189.7730  177.7510  139.8500 C   0  0  0  0  0  3  0  0  0  0  0  0
  188.0650  177.9260  138.1380 N   0  0  0  0  0  2  0  0  0  0  0  0
  187.2930  177.7150  144.2540 C   0  0  0  0  0  0  0  0  0  0  0  0
  190.1770  177.6510  141.1790 C   0  0  0  0  0  0  0  0  0  0  0  0
  186.6780  177.7690  137.7320 C   0  0  0  0  0  2  0  0  0  0  0  0
  188.1000  177.4020  146.9160 C   0  0  0  0  0  3  0  0  0  0  0  0
  186.3420  177.7300  145.2780 C   0  0  0  0  0  3  0  0  0  0  0  0
  183.5920  179.0050  140.9110 C   0  0  1  0  0  3  0  0  0  0  0  0
  184.2850  178.2340  141.8680 O   0  0  0  0  0  0  0  0  0  0  0  0
  185.0830  179.0710  141.0620 C   0  0  1  0  0  3  0  0  0  0  0  0
  181.7670  178.6410  139.1300 C   0  0  2  0  0  0  0  0  0  0  0  0
  180.6620  175.5590  139.8950 O   0  0  0  0  0  1  0  0  0  0  0  0
  180.8630  179.3490  140.1360 C   0  0  0  0  0  1  0  0  0  0  0  0
  182.7020  176.7380  140.2180 C   0  0  0  0  0  2  0  0  0  0  0  0
  181.0480  177.4750  138.6190 N   0  0  0  0  0  2  0  0  0  0  0  0
  183.0640  178.1250  139.7620 C   0  0  2  0  0  3  0  0  0  0  0  0
  181.6460  176.2920  139.2320 C   0  0  2  0  0  3  0  0  0  0  0  0
  182.0700  179.6110  137.9950 C   0  0  0  0  0  2  0  0  0  0  0  0
  181.9570  180.9360  138.4230 O   0  0  0  0  0  1  0  0  0  0  0  0
  191.6380  177.5030  141.4660 C   0  0  0  0  0  2  0  0  0  0  0  0
  192.4280  177.5030  140.1720 C   0  0  0  0  0  1  0  0  0  0  0  0
  1  3  1  6  0  0  0
  1  4  1  0  0  0  0
  1 21  1  0  0  0  0
  2  5  2  0  0  0  0
  2  7  1  0  0  0  0
  4  2  1  0  0  0  0
  5 11  1  0  0  0  0
  6 17  1  0  0  0  0
  7 14  2  0  0  0  0
  8 17  2  0  0  0  0
  9  8  1  0  0  0  0
 10 12  1  0  0  0  0
 10  4  2  0  0  0  0
 11  9  2  0  0  0  0
 12 15  2  0  0  0  0
 13 10  1  0  0  0  0
 14  9  1  0  0  0  0
 14 18  1  0  0  0  0
 15 31  1  0  0  0  0
 15  5  1  0  0  0  0
 16 13  1  0  0  0  0
 16  3  1  0  0  0  0
 18  6  2  0  0  0  0
 19 21  1  0  0  0  0
 19 20  1  1  0  0  0
 21 20  1  1  0  0  0
 22 27  1  0  0  0  0
 22 24  1  1  0  0  0
 26 22  1  0  0  0  0
 26 28  1  0  0  0  0
 27 25  1  1  0  0  0
 27 19  1  0  0  0  0
 28 23  1  1  0  0  0
 28 25  1  0  0  0  0
 29 30  1  0  0  0  0
 29 22  1  0  0  0  0
 32 31  1  0  0  0  0
M  END
>  <MODEL>
4

>  <REMARK>
 VINA RESULT:      -8.8      3.024      6.060
  Name = 
  4 active torsions:
  status: ('A' for Active; 'I' for Inactive)
    1  A    between atoms: C_1  and  C_27
    2  A    between atoms: C_3  and  C_22
    3  A    between atoms: C_13  and  C_29
    4  A    between atoms: C_16  and  C_20
                            x       y       z     vdW  Elec       q    Type
                         _______ _______ _______ _____ _____    ______ ____

>  <TORSDO>
F 4

$$$$
=
 OpenBabel11052414403D

 32 37  0  0  1  0  0  0  0  0999 V2000
  186.5310  178.0960  140.7190 C   0  0  1  0  0  3  0  0  0  0  0  0
  184.6860  178.4140  142.5250 C   0  0  0  0  0  0  0  0  0  0  0  0
  188.0600  178.1220  140.5460 C   0  0  0  0  0  2  0  0  0  0  0  0
  186.0520  178.2360  142.1700 C   0  0  0  0  0  0  0  0  0  0  0  0
  184.3180  178.5340  143.8940 C   0  0  0  0  0  0  0  0  0  0  0  0
  180.0160  178.9110  141.2760 C   0  0  0  0  0  3  0  0  0  0  0  0
  183.6770  178.4710  141.5500 C   0  0  0  0  0  3  0  0  0  0  0  0
  180.6440  178.9700  143.6130 C   0  0  0  0  0  3  0  0  0  0  0  0
  181.9840  178.7830  143.2590 C   0  0  0  0  0  0  0  0  0  0  0  0
  186.9980  178.0660  143.2110 C   0  0  0  0  0  0  0  0  0  0  0  0
  182.9680  178.7180  144.2410 C   0  0  0  0  0  3  0  0  0  0  0  0
  186.6220  178.1930  144.5460 C   0  0  0  0  0  3  0  0  0  0  0  0
  188.3530  177.7240  142.9140 N   0  0  0  0  0  2  0  0  0  0  0  0
  182.3400  178.6530  141.9010 C   0  0  0  0  0  0  0  0  0  0  0  0
  185.2980  178.4380  144.8980 C   0  0  0  0  0  0  0  0  0  0  0  0
  188.7340  177.2570  141.5910 C   0  0  0  0  0  2  0  0  0  0  0  0
  179.6630  179.0340  142.6230 C   0  0  0  0  0  3  0  0  0  0  0  0
  181.3540  178.7200  140.9130 C   0  0  0  0  0  3  0  0  0  0  0  0
  185.9050  178.5740  138.2030 C   0  0  1  0  0  3  0  0  0  0  0  0
  184.8000  178.1650  138.9810 O   0  0  0  0  0  0  0  0  0  0  0  0
  185.7720  178.9330  139.6530 C   0  0  1  0  0  3  0  0  0  0  0  0
  187.7960  177.6480  136.7200 C   0  0  2  0  0  0  0  0  0  0  0  0
  186.3890  174.8630  135.4670 O   0  0  0  0  0  1  0  0  0  0  0  0
  187.2040  178.5720  135.6580 C   0  0  0  0  0  1  0  0  0  0  0  0
  186.0670  176.1690  137.4290 C   0  0  0  0  0  2  0  0  0  0  0  0
  188.0710  176.3570  136.0920 N   0  0  0  0  0  2  0  0  0  0  0  0
  186.8290  177.3850  137.8790 C   0  0  2  0  0  3  0  0  0  0  0  0
  187.0530  175.4200  136.5600 C   0  0  2  0  0  3  0  0  0  0  0  0
  189.0890  178.2720  137.2290 C   0  0  0  0  0  2  0  0  0  0  0  0
  188.9570  179.6550  137.3750 O   0  0  0  0  0  1  0  0  0  0  0  0
  184.9680  178.5980  146.3490 C   0  0  0  0  0  2  0  0  0  0  0  0
  186.2410  178.7160  147.1640 C   0  0  0  0  0  1  0  0  0  0  0  0
  1  3  1  1  0  0  0
  1  4  1  0  0  0  0
  2  5  1  0  0  0  0
  3 16  1  0  0  0  0
  4  2  2  0  0  0  0
  4 10  1  0  0  0  0
  5 11  1  0  0  0  0
  5 15  2  0  0  0  0
  6 17  1  0  0  0  0
  7 14  2  0  0  0  0
  7  2  1  0  0  0  0
  9  8  1  0  0  0  0
  9 11  2  0  0  0  0
 10 12  2  0  0  0  0
 12 15  1  0  0  0  0
 13 10  1  0  0  0  0
 14  9  1  0  0  0  0
 15 31  1  0  0  0  0
 16 13  1  0  0  0  0
 17  8  2  0  0  0  0
 18  6  2  0  0  0  0
 18 14  1  0  0  0  0
 19 20  1  1  0  0  0
 19 21  1  0  0  0  0
 21 20  1  1  0  0  0
 21  1  1  0  0  0  0
 22 24  1  6  0  0  0
 22 29  1  0  0  0  0
 22 27  1  0  0  0  0
 26 28  1  0  0  0  0
 26 22  1  0  0  0  0
 27 25  1  6  0  0  0
 27 19  1  0  0  0  0
 28 23  1  6  0  0  0
 28 25  1  0  0  0  0
 29 30  1  0  0  0  0
 31 32  1  0  0  0  0
M  END
>  <MODEL>
5

>  <REMARK>
 VINA RESULT:      -8.7      1.813      2.689
  Name = 
  4 active torsions:
  status: ('A' for Active; 'I' for Inactive)
    1  A    between atoms: C_1  and  C_27
    2  A    between atoms: C_3  and  C_22
    3  A    between atoms: C_13  and  C_29
    4  A    between atoms: C_16  and  C_20
                            x       y       z     vdW  Elec       q    Type
                         _______ _______ _______ _____ _____    ______ ____

>  <TORSDO>
F 4

$$$$
=
 OpenBabel11052414403D

 32 37  0  0  1  0  0  0  0  0999 V2000
  186.3800  178.1460  139.8820 C   0  0  1  0  0  3  0  0  0  0  0  0
  187.2240  178.0070  142.3380 C   0  0  0  0  0  0  0  0  0  0  0  0
  186.8990  178.2550  138.4370 C   0  0  0  0  0  2  0  0  0  0  0  0
  187.4740  177.9520  140.9390 C   0  0  0  0  0  0  0  0  0  0  0  0
  188.2910  177.8140  143.2590 C   0  0  0  0  0  0  0  0  0  0  0  0
  184.1770  178.6260  146.0730 C   0  0  0  0  0  3  0  0  0  0  0  0
  185.9350  178.2450  142.8430 C   0  0  0  0  0  3  0  0  0  0  0  0
  186.5210  178.1920  146.4980 C   0  0  0  0  0  3  0  0  0  0  0  0
  186.7590  178.1270  145.1210 C   0  0  0  0  0  0  0  0  0  0  0  0
  188.7730  177.5870  140.5050 C   0  0  0  0  0  0  0  0  0  0  0  0
  188.0420  177.8780  144.6410 C   0  0  0  0  0  3  0  0  0  0  0  0
  189.8090  177.4080  141.4200 C   0  0  0  0  0  3  0  0  0  0  0  0
  189.0400  177.3580  139.1210 N   0  0  0  0  0  2  0  0  0  0  0  0
  185.6950  178.3060  144.2150 C   0  0  0  0  0  0  0  0  0  0  0  0
  189.5850  177.5310  142.7880 C   0  0  0  0  0  0  0  0  0  0  0  0
  187.9550  177.2030  138.1650 C   0  0  0  0  0  2  0  0  0  0  0  0
  185.2320  178.4410  146.9720 C   0  0  0  0  0  3  0  0  0  0  0  0
  184.4070  178.5580  144.6940 C   0  0  0  0  0  3  0  0  0  0  0  0
  183.8410  178.8570  139.8640 C   0  0  1  0  0  3  0  0  0  0  0  0
  184.3530  178.6630  141.1650 O   0  0  0  0  0  0  0  0  0  0  0  0
  185.2640  179.1730  140.2180 C   0  0  1  0  0  3  0  0  0  0  0  0
  182.8120  177.6330  137.8450 C   0  0  2  0  0  0  0  0  0  0  0  0
  180.7910  175.4050  139.3470 O   0  0  0  0  0  1  0  0  0  0  0  0
  181.7890  178.7670  137.8770 C   0  0  0  0  0  1  0  0  0  0  0  0
  182.7680  176.5660  139.9760 C   0  0  0  0  0  2  0  0  0  0  0  0
  182.0870  176.3760  137.6650 N   0  0  0  0  0  2  0  0  0  0  0  0
  183.6000  177.5120  139.1530 C   0  0  2  0  0  3  0  0  0  0  0  0
  182.0990  175.6800  138.9490 C   0  0  2  0  0  3  0  0  0  0  0  0
  183.7520  177.8710  136.6700 C   0  0  0  0  0  2  0  0  0  0  0  0
  184.5290  176.7390  136.4110 O   0  0  0  0  0  1  0  0  0  0  0  0
  190.7490  177.3610  143.7140 C   0  0  0  0  0  2  0  0  0  0  0  0
  191.4660  178.6830  143.9020 C   0  0  0  0  0  1  0  0  0  0  0  0
  1  3  1  6  0  0  0
  1 21  1  0  0  0  0
  1  4  1  0  0  0  0
  2  7  2  0  0  0  0
  2  5  1  0  0  0  0
  4  2  1  0  0  0  0
  5 11  2  0  0  0  0
  6 17  1  0  0  0  0
  7 14  1  0  0  0  0
  8 17  2  0  0  0  0
  9  8  1  0  0  0  0
 10  4  2  0  0  0  0
 10 12  1  0  0  0  0
 11  9  1  0  0  0  0
 12 15  2  0  0  0  0
 13 10  1  0  0  0  0
 14 18  1  0  0  0  0
 14  9  2  0  0  0  0
 15  5  1  0  0  0  0
 15 31  1  0  0  0  0
 16  3  1  0  0  0  0
 16 13  1  0  0  0  0
 18  6  2  0  0  0  0
 19 21  1  0  0  0  0
 19 20  1  1  0  0  0
 21 20  1  1  0  0  0
 22 24  1  1  0  0  0
 22 27  1  0  0  0  0
 26 22  1  0  0  0  0
 26 28  1  0  0  0  0
 27 19  1  0  0  0  0
 27 25  1  1  0  0  0
 28 23  1  1  0  0  0
 28 25  1  0  0  0  0
 29 22  1  0  0  0  0
 30 29  1  0  0  0  0
 31 32  1  0  0  0  0
M  END
>  <MODEL>
6

>  <REMARK>
 VINA RESULT:      -8.5      2.933      4.692
  Name = 
  4 active torsions:
  status: ('A' for Active; 'I' for Inactive)
    1  A    between atoms: C_1  and  C_27
    2  A    between atoms: C_3  and  C_22
    3  A    between atoms: C_13  and  C_29
    4  A    between atoms: C_16  and  C_20
                            x       y       z     vdW  Elec       q    Type
                         _______ _______ _______ _____ _____    ______ ____

>  <TORSDO>
F 4

$$$$
=
 OpenBabel11052414403D

 32 37  0  0  1  0  0  0  0  0999 V2000
  187.9240  178.0140  140.4900 C   0  0  1  0  0  3  0  0  0  0  0  0
  187.7720  177.8410  143.0810 C   0  0  0  0  0  0  0  0  0  0  0  0
  187.0350  178.0890  139.2360 C   0  0  0  0  0  2  0  0  0  0  0  0
  187.1590  178.0740  141.8180 C   0  0  0  0  0  0  0  0  0  0  0  0
  186.9960  177.9170  144.2710 C   0  0  0  0  0  0  0  0  0  0  0  0
  191.6800  176.7540  145.7540 C   0  0  0  0  0  3  0  0  0  0  0  0
  189.1390  177.5410  143.1870 C   0  0  0  0  0  3  0  0  0  0  0  0
  189.5510  177.1320  146.8430 C   0  0  0  0  0  3  0  0  0  0  0  0
  188.9570  177.3710  145.6000 C   0  0  0  0  0  0  0  0  0  0  0  0
  185.8050  178.4910  141.7970 C   0  0  0  0  0  0  0  0  0  0  0  0
  187.6020  177.6790  145.5170 C   0  0  0  0  0  3  0  0  0  0  0  0
  185.0580  178.5530  142.9710 C   0  0  0  0  0  3  0  0  0  0  0  0
  185.1860  178.8930  140.5740 N   0  0  0  0  0  2  0  0  0  0  0  0
  189.7350  177.3070  144.4260 C   0  0  0  0  0  0  0  0  0  0  0  0
  185.6330  178.2580  144.2040 C   0  0  0  0  0  0  0  0  0  0  0  0
  185.9820  179.1670  139.3880 C   0  0  0  0  0  2  0  0  0  0  0  0
  190.9110  176.8240  146.9190 C   0  0  0  0  0  3  0  0  0  0  0  0
  191.0940  176.9950  144.5070 C   0  0  0  0  0  3  0  0  0  0  0  0
  189.4350  176.4110  139.0390 C   0  0  1  0  0  3  0  0  0  0  0  0
  190.1650  177.4400  139.6710 O   0  0  0  0  0  0  0  0  0  0  0  0
  189.0530  176.9520  140.3860 C   0  0  1  0  0  3  0  0  0  0  0  0
  188.2180  175.8720  136.8340 C   0  0  2  0  0  0  0  0  0  0  0  0
  189.8170  177.8750  134.6580 O   0  0  0  0  0  1  0  0  0  0  0  0
  189.2380  174.7400  136.7300 C   0  0  0  0  0  1  0  0  0  0  0  0
  189.4300  177.9170  137.0040 C   0  0  0  0  0  2  0  0  0  0  0  0
  188.1270  176.5190  135.5260 N   0  0  0  0  0  2  0  0  0  0  0  0
  188.6350  176.9510  137.8390 C   0  0  2  0  0  3  0  0  0  0  0  0
  188.8160  177.8020  135.6270 C   0  0  2  0  0  3  0  0  0  0  0  0
  186.8730  175.2690  137.2190 C   0  0  0  0  0  2  0  0  0  0  0  0
  185.8210  175.9540  136.6040 O   0  0  0  0  0  1  0  0  0  0  0  0
  184.7650  178.3110  145.4220 C   0  0  0  0  0  2  0  0  0  0  0  0
  183.4470  178.9850  145.0960 C   0  0  0  0  0  1  0  0  0  0  0  0
  1  3  1  6  0  0  0
  1  4  1  0  0  0  0
  2  7  2  0  0  0  0
  2  5  1  0  0  0  0
  3 16  1  0  0  0  0
  4  2  1  0  0  0  0
  5 11  2  0  0  0  0
  6 17  1  0  0  0  0
  7 14  1  0  0  0  0
  8 17  2  0  0  0  0
  9  8  1  0  0  0  0
 10  4  2  0  0  0  0
 10 12  1  0  0  0  0
 11  9  1  0  0  0  0
 12 15  2  0  0  0  0
 13 10  1  0  0  0  0
 14 18  1  0  0  0  0
 14  9  2  0  0  0  0
 15  5  1  0  0  0  0
 15 31  1  0  0  0  0
 16 13  1  0  0  0  0
 18  6  2  0  0  0  0
 19 20  1  6  0  0  0
 19 21  1  0  0  0  0
 21 20  1  6  0  0  0
 21  1  1  0  0  0  0
 22 24  1  6  0  0  0
 22 29  1  0  0  0  0
 22 27  1  0  0  0  0
 26 28  1  0  0  0  0
 26 22  1  0  0  0  0
 27 25  1  6  0  0  0
 27 19  1  0  0  0  0
 28 23  1  6  0  0  0
 28 25  1  0  0  0  0
 30 29  1  0  0  0  0
 32 31  1  0  0  0  0
M  END
>  <MODEL>
7

>  <REMARK>
 VINA RESULT:      -8.1      1.867      4.663
  Name = 
  4 active torsions:
  status: ('A' for Active; 'I' for Inactive)
    1  A    between atoms: C_1  and  C_27
    2  A    between atoms: C_3  and  C_22
    3  A    between atoms: C_13  and  C_29
    4  A    between atoms: C_16  and  C_20
                            x       y       z     vdW  Elec       q    Type
                         _______ _______ _______ _____ _____    ______ ____

>  <TORSDO>
F 4

$$$$
=
 OpenBabel11052414403D

 32 37  0  0  1  0  0  0  0  0999 V2000
  189.3190  177.2950  140.8570 C   0  0  1  0  0  3  0  0  0  0  0  0
  186.9370  178.0030  141.6250 C   0  0  0  0  0  0  0  0  0  0  0  0
  190.7410  177.0720  141.4020 C   0  0  0  0  0  2  0  0  0  0  0  0
  188.2650  177.5940  141.9300 C   0  0  0  0  0  0  0  0  0  0  0  0
  186.0130  178.2600  142.6760 C   0  0  0  0  0  0  0  0  0  0  0  0
  183.4970  179.1490  138.3890 C   0  0  0  0  0  3  0  0  0  0  0  0
  186.5050  178.1590  140.2980 C   0  0  0  0  0  3  0  0  0  0  0  0
  182.9960  179.2460  140.7560 C   0  0  0  0  0  3  0  0  0  0  0  0
  184.2990  178.8320  141.0500 C   0  0  0  0  0  0  0  0  0  0  0  0
  188.5920  177.3400  143.2850 C   0  0  0  0  0  0  0  0  0  0  0  0
  184.7050  178.6720  142.3720 C   0  0  0  0  0  3  0  0  0  0  0  0
  187.6790  177.6030  144.3030 C   0  0  0  0  0  3  0  0  0  0  0  0
  189.8560  176.7740  143.6340 N   0  0  0  0  0  2  0  0  0  0  0  0
  185.2050  178.5680  140.0030 C   0  0  0  0  0  0  0  0  0  0  0  0
  186.4000  178.0710  144.0150 C   0  0  0  0  0  0  0  0  0  0  0  0
  190.7130  176.1760  142.6220 C   0  0  0  0  0  2  0  0  0  0  0  0
  182.5970  179.4040  139.4280 C   0  0  0  0  0  3  0  0  0  0  0  0
  184.8020  178.7300  138.6750 C   0  0  0  0  0  3  0  0  0  0  0  0
  189.6560  177.5760  138.2570 C   0  0  1  0  0  3  0  0  0  0  0  0
  188.3110  177.7180  138.6600 O   0  0  0  0  0  0  0  0  0  0  0  0
  189.2770  178.1770  139.5780 C   0  0  1  0  0  3  0  0  0  0  0  0
  191.3500  175.8090  137.4550 C   0  0  2  0  0  0  0  0  0  0  0  0
  189.3440  173.5560  135.9700 O   0  0  0  0  0  1  0  0  0  0  0  0
  191.4640  176.7030  136.2230 C   0  0  0  0  0  1  0  0  0  0  0  0
  189.0610  175.1840  137.6800 C   0  0  0  0  0  2  0  0  0  0  0  0
  191.2520  174.4230  137.0000 N   0  0  0  0  0  2  0  0  0  0  0  0
  190.0920  176.0990  138.2820 C   0  0  2  0  0  3  0  0  0  0  0  0
  189.8650  174.0020  137.1840 C   0  0  2  0  0  3  0  0  0  0  0  0
  192.6040  175.9980  138.3000 C   0  0  0  0  0  2  0  0  0  0  0  0
  193.3950  177.0360  137.8010 O   0  0  0  0  0  1  0  0  0  0  0  0
  185.4790  178.3660  145.1580 C   0  0  0  0  0  2  0  0  0  0  0  0
  186.2540  178.3890  146.4610 C   0  0  0  0  0  1  0  0  0  0  0  0
  1  3  1  1  0  0  0
  1  4  1  0  0  0  0
  2  4  2  0  0  0  0
  2  5  1  0  0  0  0
  3 16  1  0  0  0  0
  4 10  1  0  0  0  0
  5 15  2  0  0  0  0
  6 18  2  0  0  0  0
  6 17  1  0  0  0  0
  7  2  1  0  0  0  0
  8  9  1  0  0  0  0
  9 11  2  0  0  0  0
 10 13  1  0  0  0  0
 10 12  2  0  0  0  0
 11  5  1  0  0  0  0
 14  7  2  0  0  0  0
 14  9  1  0  0  0  0
 15 12  1  0  0  0  0
 15 31  1  0  0  0  0
 16 13  1  0  0  0  0
 17  8  2  0  0  0  0
 18 14  1  0  0  0  0
 19 27  1  0  0  0  0
 19 20  1  6  0  0  0
 19 21  1  0  0  0  0
 21 20  1  6  0  0  0
 21  1  1  0  0  0  0
 22 24  1  6  0  0  0
 22 27  1  0  0  0  0
 22 29  1  0  0  0  0
 26 28  1  0  0  0  0
 26 22  1  0  0  0  0
 27 25  1  6  0  0  0
 28 23  1  6  0  0  0
 28 25  1  0  0  0  0
 30 29  1  0  0  0  0
 31 32  1  0  0  0  0
M  END
>  <MODEL>
8

>  <REMARK>
 VINA RESULT:      -7.7      1.700      2.434
  Name = 
  4 active torsions:
  status: ('A' for Active; 'I' for Inactive)
    1  A    between atoms: C_1  and  C_27
    2  A    between atoms: C_3  and  C_22
    3  A    between atoms: C_13  and  C_29
    4  A    between atoms: C_16  and  C_20
                            x       y       z     vdW  Elec       q    Type
                         _______ _______ _______ _____ _____    ______ ____

>  <TORSDO>
F 4

$$$$
=
 OpenBabel11052414403D

 32 37  0  0  1  0  0  0  0  0999 V2000
  186.1680  178.2100  143.0810 C   0  0  1  0  0  3  0  0  0  0  0  0
  183.8670  178.4320  141.8890 C   0  0  0  0  0  0  0  0  0  0  0  0
  186.8680  178.5360  144.4130 C   0  0  0  0  0  2  0  0  0  0  0  0
  184.6610  178.4950  143.0680 C   0  0  0  0  0  0  0  0  0  0  0  0
  182.4720  178.7070  141.9560 C   0  0  0  0  0  0  0  0  0  0  0  0
  183.4390  177.6830  137.1070 C   0  0  0  0  0  3  0  0  0  0  0  0
  184.4270  178.0990  140.6450 C   0  0  0  0  0  3  0  0  0  0  0  0
  181.4860  178.2830  138.4050 C   0  0  0  0  0  3  0  0  0  0  0  0
  182.2690  178.3310  139.5620 C   0  0  0  0  0  0  0  0  0  0  0  0
  184.0060  178.7180  144.3040 C   0  0  0  0  0  0  0  0  0  0  0  0
  181.6920  178.6530  140.7880 C   0  0  0  0  0  3  0  0  0  0  0  0
  182.6410  178.9920  144.3520 C   0  0  0  0  0  3  0  0  0  0  0  0
  184.7260  178.6300  145.5350 N   0  0  0  0  0  2  0  0  0  0  0  0
  183.6470  178.0460  139.4900 C   0  0  0  0  0  0  0  0  0  0  0  0
  181.8710  179.0020  143.1930 C   0  0  0  0  0  0  0  0  0  0  0  0
  186.0520  178.0330  145.5850 C   0  0  0  0  0  2  0  0  0  0  0  0
  182.0710  177.9600  137.1790 C   0  0  0  0  0  3  0  0  0  0  0  0
  184.2290  177.7250  138.2610 C   0  0  0  0  0  3  0  0  0  0  0  0
  188.4460  178.3980  141.7670 C   0  0  1  0  0  3  0  0  0  0  0  0
  187.5040  177.5670  141.1250 O   0  0  0  0  0  0  0  0  0  0  0  0
  186.9710  178.6650  141.8320 C   0  0  1  0  0  3  0  0  0  0  0  0
  190.5690  177.9440  143.1540 C   0  0  2  0  0  0  0  0  0  0  0  0
  190.6910  174.5840  143.1440 O   0  0  0  0  0  1  0  0  0  0  0  0
  191.2880  178.0970  141.8160 C   0  0  0  0  0  1  0  0  0  0  0  0
  188.9620  176.2000  142.9120 C   0  0  0  0  0  2  0  0  0  0  0  0
  191.1220  176.7730  143.8320 N   0  0  0  0  0  2  0  0  0  0  0  0
  189.0640  177.6990  142.9920 C   0  0  2  0  0  3  0  0  0  0  0  0
  190.1250  175.7080  143.7440 C   0  0  2  0  0  3  0  0  0  0  0  0
  190.8230  179.1990  143.9790 C   0  0  0  0  0  2  0  0  0  0  0  0
  192.1640  179.2860  144.3610 O   0  0  0  0  0  1  0  0  0  0  0  0
  180.4180  179.3380  143.3110 C   0  0  0  0  0  2  0  0  0  0  0  0
  179.7310  178.3680  144.2520 C   0  0  0  0  0  1  0  0  0  0  0  0
  1  3  1  1  0  0  0
  2  5  1  0  0  0  0
  2  4  2  0  0  0  0
  3 16  1  0  0  0  0
  4  1  1  0  0  0  0
  4 10  1  0  0  0  0
  5 15  2  0  0  0  0
  6 17  1  0  0  0  0
  6 18  2  0  0  0  0
  7  2  1  0  0  0  0
  8  9  1  0  0  0  0
  9 11  2  0  0  0  0
 10 12  2  0  0  0  0
 10 13  1  0  0  0  0
 11  5  1  0  0  0  0
 13 16  1  0  0  0  0
 14  9  1  0  0  0  0
 14  7  2  0  0  0  0
 15 31  1  0  0  0  0
 15 12  1  0  0  0  0
 17  8  2  0  0  0  0
 18 14  1  0  0  0  0
 19 20  1  6  0  0  0
 19 21  1  0  0  0  0
 19 27  1  0  0  0  0
 21 20  1  6  0  0  0
 21  1  1  0  0  0  0
 22 24  1  6  0  0  0
 22 26  1  0  0  0  0
 22 29  1  0  0  0  0
 25 28  1  0  0  0  0
 27 25  1  6  0  0  0
 27 22  1  0  0  0  0
 28 23  1  6  0  0  0
 28 26  1  0  0  0  0
 29 30  1  0  0  0  0
 31 32  1  0  0  0  0
M  END
>  <MODEL>
9

>  <REMARK>
 VINA RESULT:      -7.7      2.973      5.810
  Name = 
  4 active torsions:
  status: ('A' for Active; 'I' for Inactive)
    1  A    between atoms: C_1  and  C_27
    2  A    between atoms: C_3  and  C_22
    3  A    between atoms: C_13  and  C_29
    4  A    between atoms: C_16  and  C_20
                            x       y       z     vdW  Elec       q    Type
                         _______ _______ _______ _____ _____    ______ ____

>  <TORSDO>
F 4

$$$$
