=
 OpenBabel11052413243D

 28 30  0  0  1  0  0  0  0  0999 V2000
  187.4890  177.9600  140.3340 C   0  0  1  0  0  3  0  0  0  0  0  0
  184.4110  179.6790  139.3720 O   0  0  0  0  0  0  0  0  0  0  0  0
  186.3430  178.8610  140.3930 N   0  0  0  0  0  0  0  0  0  0  0  0
  185.3830  178.8800  139.3310 C   0  0  0  0  0  0  0  0  0  0  0  0
  186.2140  179.7270  141.4280 O   0  0  0  0  0  1  0  0  0  0  0  0
  185.5140  177.9950  138.2210 N   0  0  0  0  0  1  0  0  0  0  0  0
  188.1160  177.9620  138.9350 C   0  0  2  0  0  3  0  0  0  0  0  0
  188.9200  176.6790  138.6860 C   0  0  2  0  0  3  0  0  0  0  0  0
  189.6410  176.1220  136.4550 N   0  0  0  0  0  0  0  0  0  0  0  0
  190.4130  177.0090  138.5200 C   0  0  0  0  0  3  0  0  0  0  0  0
  187.4560  175.5670  137.1030 O   0  0  0  0  0  0  0  0  0  0  0  0
  188.5730  176.0820  137.3730 C   0  0  0  0  0  0  0  0  0  0  0  0
  189.5720  175.6940  135.0700 C   0  0  0  0  0  1  0  0  0  0  0  0
  190.7980  176.7450  137.0570 C   0  0  0  0  0  3  0  0  0  0  0  0
  188.9260  179.0920  138.7660 O   0  0  0  0  0  0  0  0  0  0  0  0
  188.5630  179.5900  137.6030 O   0  0  0  0  0  1  0  0  0  0  0  0
  188.5080  178.2820  141.4340 C   0  0  0  0  0  2  0  0  0  0  0  0
  187.2970  177.1590  144.4740 C   0  0  0  0  0  2  0  0  0  0  0  0
  189.7740  176.9320  144.5320 C   0  0  0  0  0  0  0  0  0  0  0  0
  188.7010  177.1330  142.4240 C   0  0  2  0  0  3  0  0  0  0  0  0
  187.8720  177.4120  146.9180 C   0  0  1  0  0  3  0  0  0  0  0  0
  188.6220  177.6050  143.8680 C   0  0  1  0  0  3  0  0  0  0  0  0
  190.5980  176.1200  143.6070 C   0  0  0  0  0  2  0  0  0  0  0  0
  189.3010  177.9190  146.7740 C   0  0  0  0  0  2  0  0  0  0  0  0
  190.0910  177.0670  145.8260 C   0  0  0  0  0  3  0  0  0  0  0  0
  187.3420  177.8800  148.1190 O   0  0  0  0  0  1  0  0  0  0  0  0
  187.0050  177.9080  145.7670 C   0  0  0  0  0  2  0  0  0  0  0  0
  190.0370  176.4170  142.2280 C   0  0  0  0  0  2  0  0  0  0  0  0
  1  3  1  0  0  0  0
  1 17  1  1  0  0  0
  3  5  1  0  0  0  0
  4  2  2  0  0  0  0
  4  3  1  0  0  0  0
  6  4  1  0  0  0  0
  7 15  1  1  0  0  0
  7  1  1  0  0  0  0
  8  7  1  6  0  0  0
  9 14  1  0  0  0  0
  9 12  1  0  0  0  0
 10  8  1  0  0  0  0
 11 12  2  0  0  0  0
 12  8  1  0  0  0  0
 13  9  1  0  0  0  0
 14 10  2  0  0  0  0
 16 15  1  0  0  0  0
 18 27  1  0  0  0  0
 19 25  2  0  0  0  0
 20 17  1  6  0  0  0
 20 22  1  0  0  0  0
 21 26  1  1  0  0  0
 22 18  1  1  0  0  0
 22 19  1  0  0  0  0
 23 19  1  0  0  0  0
 24 21  1  0  0  0  0
 25 24  1  0  0  0  0
 27 21  1  0  0  0  0
 28 20  1  0  0  0  0
 28 23  1  0  0  0  0
M  END
>  <MODEL>
1

>  <REMARK>
 VINA RESULT:      -8.1      0.000      0.000
  Name = 
  6 active torsions:
  status: ('A' for Active; 'I' for Inactive)
    1  A    between atoms: O_1  and  C_2
    2  A    between atoms: C_2  and  C_3
    3  A    between atoms: C_2  and  C_27
    4  A    between atoms: C_10  and  C_17
    5  A    between atoms: N_16  and  C_27
    6  A    between atoms: C_17  and  C_27
                            x       y       z     vdW  Elec       q    Type
                         _______ _______ _______ _____ _____    ______ ____

>  <TORSDO>
F 6

$$$$
=
 OpenBabel11052413243D

 28 30  0  0  1  0  0  0  0  0999 V2000
  186.8830  177.8950  144.3680 C   0  0  1  0  0  3  0  0  0  0  0  0
  184.8820  178.5710  147.3500 O   0  0  0  0  0  0  0  0  0  0  0  0
  186.1610  177.6750  145.6180 N   0  0  0  0  0  0  0  0  0  0  0  0
  185.4790  178.7580  146.2580 C   0  0  0  0  0  0  0  0  0  0  0  0
  186.1840  176.4550  146.2070 O   0  0  0  0  0  1  0  0  0  0  0  0
  185.4640  180.0550  145.6670 N   0  0  0  0  0  1  0  0  0  0  0  0
  188.2560  177.2150  144.4020 C   0  0  2  0  0  3  0  0  0  0  0  0
  189.2430  178.0010  145.2750 C   0  0  2  0  0  3  0  0  0  0  0  0
  191.2180  176.9200  146.1360 N   0  0  0  0  0  0  0  0  0  0  0  0
  190.4710  178.4180  144.4500 C   0  0  0  0  0  3  0  0  0  0  0  0
  189.1930  176.6470  147.2890 O   0  0  0  0  0  0  0  0  0  0  0  0
  189.8370  177.1310  146.3200 C   0  0  0  0  0  0  0  0  0  0  0  0
  192.0470  176.0470  146.9460 C   0  0  0  0  0  1  0  0  0  0  0  0
  191.6810  177.6210  144.9600 C   0  0  0  0  0  3  0  0  0  0  0  0
  188.7580  177.0650  143.1040 O   0  0  0  0  0  0  0  0  0  0  0  0
  189.0280  175.7810  142.9960 O   0  0  0  0  0  1  0  0  0  0  0  0
  186.0450  177.4650  143.1580 C   0  0  0  0  0  2  0  0  0  0  0  0
  183.0960  179.2430  143.4820 C   0  0  0  0  0  2  0  0  0  0  0  0
  183.4210  178.7800  141.0590 C   0  0  0  0  0  0  0  0  0  0  0  0
  185.2960  178.6280  142.5060 C   0  0  2  0  0  3  0  0  0  0  0  0
  180.7470  179.1420  142.5640 C   0  0  1  0  0  3  0  0  0  0  0  0
  183.7970  178.3770  142.4440 C   0  0  1  0  0  3  0  0  0  0  0  0
  184.5730  179.2120  140.2350 C   0  0  0  0  0  2  0  0  0  0  0  0
  181.0020  178.2450  141.3590 C   0  0  0  0  0  2  0  0  0  0  0  0
  182.1790  178.7230  140.5610 C   0  0  0  0  0  3  0  0  0  0  0  0
  179.4240  178.9900  142.9720 O   0  0  0  0  0  1  0  0  0  0  0  0
  181.6680  178.7680  143.7190 C   0  0  0  0  0  2  0  0  0  0  0  0
  185.7920  178.9160  141.0900 C   0  0  0  0  0  2  0  0  0  0  0  0
  1 17  1  6  0  0  0
  1  7  1  0  0  0  0
  1  3  1  0  0  0  0
  3  5  1  0  0  0  0
  3  4  1  0  0  0  0
  4  2  2  0  0  0  0
  6  4  1  0  0  0  0
  7 15  1  6  0  0  0
  8  7  1  6  0  0  0
  8 12  1  0  0  0  0
  9 12  1  0  0  0  0
  9 13  1  0  0  0  0
 10 14  2  0  0  0  0
 10  8  1  0  0  0  0
 12 11  2  0  0  0  0
 14  9  1  0  0  0  0
 16 15  1  0  0  0  0
 18 27  1  0  0  0  0
 19 22  1  0  0  0  0
 20 17  1  6  0  0  0
 21 26  1  1  0  0  0
 21 27  1  0  0  0  0
 22 20  1  0  0  0  0
 22 18  1  1  0  0  0
 23 19  1  0  0  0  0
 23 28  1  0  0  0  0
 24 21  1  0  0  0  0
 25 19  2  0  0  0  0
 25 24  1  0  0  0  0
 28 20  1  0  0  0  0
M  END
>  <MODEL>
2

>  <REMARK>
 VINA RESULT:      -7.8      4.553      7.390
  Name = 
  6 active torsions:
  status: ('A' for Active; 'I' for Inactive)
    1  A    between atoms: O_1  and  C_2
    2  A    between atoms: C_2  and  C_3
    3  A    between atoms: C_2  and  C_27
    4  A    between atoms: C_10  and  C_17
    5  A    between atoms: N_16  and  C_27
    6  A    between atoms: C_17  and  C_27
                            x       y       z     vdW  Elec       q    Type
                         _______ _______ _______ _____ _____    ______ ____

>  <TORSDO>
F 6

$$$$
=
 OpenBabel11052413243D

 28 30  0  0  1  0  0  0  0  0999 V2000
  187.3130  178.0060  139.8660 C   0  0  1  0  0  3  0  0  0  0  0  0
  184.0430  179.4510  140.6200 O   0  0  0  0  0  0  0  0  0  0  0  0
  186.0480  178.7120  139.6870 N   0  0  0  0  0  0  0  0  0  0  0  0
  185.1440  178.8670  140.7860 C   0  0  0  0  0  0  0  0  0  0  0  0
  185.6980  179.1720  138.4610 O   0  0  0  0  0  1  0  0  0  0  0  0
  185.4830  178.3670  142.0770 N   0  0  0  0  0  1  0  0  0  0  0  0
  188.1220  177.9920  138.5640 C   0  0  2  0  0  3  0  0  0  0  0  0
  188.7420  176.6120  138.3110 C   0  0  2  0  0  3  0  0  0  0  0  0
  188.9630  175.7830  136.0590 N   0  0  0  0  0  0  0  0  0  0  0  0
  190.1980  176.7590  137.8390 C   0  0  0  0  0  3  0  0  0  0  0  0
  186.9030  175.5310  137.1530 O   0  0  0  0  0  0  0  0  0  0  0  0
  188.0940  175.9420  137.1570 C   0  0  0  0  0  0  0  0  0  0  0  0
  188.5880  175.2440  134.7650 C   0  0  0  0  0  1  0  0  0  0  0  0
  190.2670  176.3260  136.3670 C   0  0  0  0  0  3  0  0  0  0  0  0
  189.1140  178.9790  138.5970 O   0  0  0  0  0  0  0  0  0  0  0  0
  188.8600  179.7410  137.5540 O   0  0  0  0  0  1  0  0  0  0  0  0
  188.1080  178.5790  141.0450 C   0  0  0  0  0  2  0  0  0  0  0  0
  187.7120  176.8350  144.0070 C   0  0  0  0  0  2  0  0  0  0  0  0
  190.0970  177.5290  143.8670 C   0  0  0  0  0  0  0  0  0  0  0  0
  188.8040  177.5010  141.8770 C   0  0  2  0  0  3  0  0  0  0  0  0
  188.4160  177.0720  146.4190 C   0  0  1  0  0  3  0  0  0  0  0  0
  188.7160  177.7860  143.3680 C   0  0  1  0  0  3  0  0  0  0  0  0
  191.0530  177.1580  142.7990 C   0  0  0  0  0  2  0  0  0  0  0  0
  189.5450  178.0790  146.2380 C   0  0  0  0  0  2  0  0  0  0  0  0
  190.4810  177.6590  145.1440 C   0  0  0  0  0  3  0  0  0  0  0  0
  187.8850  177.2090  147.7000 O   0  0  0  0  0  1  0  0  0  0  0  0
  187.3110  177.3120  145.3960 C   0  0  0  0  0  2  0  0  0  0  0  0
  190.2790  177.3440  141.5060 C   0  0  0  0  0  2  0  0  0  0  0  0
  1 17  1  1  0  0  0
  2  4  2  0  0  0  0
  3  1  1  0  0  0  0
  3  4  1  0  0  0  0
  4  6  1  0  0  0  0
  5  3  1  0  0  0  0
  7 15  1  1  0  0  0
  7  1  1  0  0  0  0
  8  7  1  6  0  0  0
  9 14  1  0  0  0  0
  9 12  1  0  0  0  0
 10  8  1  0  0  0  0
 11 12  2  0  0  0  0
 12  8  1  0  0  0  0
 13  9  1  0  0  0  0
 14 10  2  0  0  0  0
 16 15  1  0  0  0  0
 18 27  1  0  0  0  0
 19 25  2  0  0  0  0
 20 17  1  6  0  0  0
 20 22  1  0  0  0  0
 21 26  1  1  0  0  0
 22 19  1  0  0  0  0
 22 18  1  1  0  0  0
 23 19  1  0  0  0  0
 24 21  1  0  0  0  0
 25 24  1  0  0  0  0
 27 21  1  0  0  0  0
 28 20  1  0  0  0  0
 28 23  1  0  0  0  0
M  END
>  <MODEL>
3

>  <REMARK>
 VINA RESULT:      -7.6      0.986      1.242
  Name = 
  6 active torsions:
  status: ('A' for Active; 'I' for Inactive)
    1  A    between atoms: O_1  and  C_2
    2  A    between atoms: C_2  and  C_3
    3  A    between atoms: C_2  and  C_27
    4  A    between atoms: C_10  and  C_17
    5  A    between atoms: N_16  and  C_27
    6  A    between atoms: C_17  and  C_27
                            x       y       z     vdW  Elec       q    Type
                         _______ _______ _______ _____ _____    ______ ____

>  <TORSDO>
F 6

$$$$
=
 OpenBabel11052413243D

 28 30  0  0  1  0  0  0  0  0999 V2000
  189.0170  177.7820  139.4730 C   0  0  1  0  0  3  0  0  0  0  0  0
  186.9590  178.9540  136.6900 O   0  0  0  0  0  0  0  0  0  0  0  0
  188.5200  178.6280  138.3920 N   0  0  0  0  0  0  0  0  0  0  0  0
  187.3680  178.2350  137.6390 C   0  0  0  0  0  0  0  0  0  0  0  0
  189.1840  179.7610  138.0600 O   0  0  0  0  0  1  0  0  0  0  0  0
  186.6700  177.0340  137.9560 N   0  0  0  0  0  1  0  0  0  0  0  0
  190.5130  177.4960  139.3010 C   0  0  2  0  0  3  0  0  0  0  0  0
  190.8100  176.9130  137.9130 C   0  0  2  0  0  3  0  0  0  0  0  0
  192.2460  174.9900  137.6950 N   0  0  0  0  0  0  0  0  0  0  0  0
  189.9640  175.6510  137.6720 C   0  0  0  0  0  3  0  0  0  0  0  0
  193.2280  177.1120  137.8830 O   0  0  0  0  0  0  0  0  0  0  0  0
  192.1960  176.3900  137.8430 C   0  0  0  0  0  0  0  0  0  0  0  0
  193.4570  174.1900  137.6860 C   0  0  0  0  0  1  0  0  0  0  0  0
  190.9090  174.4410  137.6530 C   0  0  0  0  0  3  0  0  0  0  0  0
  190.9620  176.6300  140.3050 O   0  0  0  0  0  0  0  0  0  0  0  0
  191.8480  177.3330  140.9790 O   0  0  0  0  0  1  0  0  0  0  0  0
  188.6880  178.3810  140.8460 C   0  0  0  0  0  2  0  0  0  0  0  0
  185.5780  178.0480  142.3240 C   0  0  0  0  0  2  0  0  0  0  0  0
  187.2820  177.4470  144.0350 C   0  0  0  0  0  0  0  0  0  0  0  0
  187.9120  177.4200  141.7470 C   0  0  2  0  0  3  0  0  0  0  0  0
  184.4800  178.6570  144.5130 C   0  0  1  0  0  3  0  0  0  0  0  0
  187.0370  178.1590  142.7480 C   0  0  1  0  0  3  0  0  0  0  0  0
  188.2790  176.3580  143.9290 C   0  0  0  0  0  2  0  0  0  0  0  0
  185.7310  178.8960  145.3480 C   0  0  0  0  0  2  0  0  0  0  0  0
  186.7090  177.7680  145.2020 C   0  0  0  0  0  3  0  0  0  0  0  0
  183.4340  179.4180  145.0320 O   0  0  0  0  0  1  0  0  0  0  0  0
  184.7140  179.0620  143.0620 C   0  0  0  0  0  2  0  0  0  0  0  0
  188.8340  176.4780  142.5200 C   0  0  0  0  0  2  0  0  0  0  0  0
  1 17  1  1  0  0  0
  2  4  2  0  0  0  0
  3  1  1  0  0  0  0
  4  6  1  0  0  0  0
  4  3  1  0  0  0  0
  5  3  1  0  0  0  0
  7  1  1  0  0  0  0
  7 15  1  1  0  0  0
  8  7  1  1  0  0  0
  9 12  1  0  0  0  0
 10  8  1  0  0  0  0
 12 11  2  0  0  0  0
 12  8  1  0  0  0  0
 13  9  1  0  0  0  0
 14 10  2  0  0  0  0
 14  9  1  0  0  0  0
 15 16  1  0  0  0  0
 18 27  1  0  0  0  0
 19 25  2  0  0  0  0
 20 17  1  1  0  0  0
 20 28  1  0  0  0  0
 20 22  1  0  0  0  0
 21 26  1  1  0  0  0
 21 24  1  0  0  0  0
 22 18  1  6  0  0  0
 22 19  1  0  0  0  0
 23 19  1  0  0  0  0
 25 24  1  0  0  0  0
 27 21  1  0  0  0  0
 28 23  1  0  0  0  0
M  END
>  <MODEL>
4

>  <REMARK>
 VINA RESULT:      -7.6      2.444      3.347
  Name = 
  6 active torsions:
  status: ('A' for Active; 'I' for Inactive)
    1  A    between atoms: O_1  and  C_2
    2  A    between atoms: C_2  and  C_3
    3  A    between atoms: C_2  and  C_27
    4  A    between atoms: C_10  and  C_17
    5  A    between atoms: N_16  and  C_27
    6  A    between atoms: C_17  and  C_27
                            x       y       z     vdW  Elec       q    Type
                         _______ _______ _______ _____ _____    ______ ____

>  <TORSDO>
F 6

$$$$
=
 OpenBabel11052413243D

 28 30  0  0  1  0  0  0  0  0999 V2000
  189.4070  178.0240  141.7650 C   0  0  1  0  0  3  0  0  0  0  0  0
  191.4710  175.6290  143.5970 O   0  0  0  0  0  0  0  0  0  0  0  0
  189.8620  176.7660  142.3490 N   0  0  0  0  0  0  0  0  0  0  0  0
  191.0680  176.7210  143.1190 C   0  0  0  0  0  0  0  0  0  0  0  0
  189.1730  175.6220  142.1150 O   0  0  0  0  0  1  0  0  0  0  0  0
  191.8200  177.9080  143.3550 N   0  0  0  0  0  1  0  0  0  0  0  0
  188.7710  177.7900  140.3900 C   0  0  2  0  0  3  0  0  0  0  0  0
  189.8080  177.9310  139.2680 C   0  0  2  0  0  3  0  0  0  0  0  0
  189.5650  176.6600  137.2350 N   0  0  0  0  0  0  0  0  0  0  0  0
  189.2630  178.8330  138.1470 C   0  0  0  0  0  3  0  0  0  0  0  0
  190.5550  175.6280  139.0940 O   0  0  0  0  0  0  0  0  0  0  0  0
  190.0140  176.6380  138.5700 C   0  0  0  0  0  0  0  0  0  0  0  0
  189.5550  175.5210  136.3350 C   0  0  0  0  0  1  0  0  0  0  0  0
  189.0180  177.9580  136.9090 C   0  0  0  0  0  3  0  0  0  0  0  0
  187.7050  178.6750  140.1890 O   0  0  0  0  0  0  0  0  0  0  0  0
  186.8070  177.9730  139.5320 O   0  0  0  0  0  1  0  0  0  0  0  0
  188.4770  178.7780  142.7210 C   0  0  0  0  0  2  0  0  0  0  0  0
  185.1420  177.8780  142.5290 C   0  0  0  0  0  2  0  0  0  0  0  0
  185.6770  178.2340  144.9330 C   0  0  0  0  0  0  0  0  0  0  0  0
  187.4640  177.8660  143.4140 C   0  0  2  0  0  3  0  0  0  0  0  0
  182.9500  178.6200  143.5340 C   0  0  1  0  0  3  0  0  0  0  0  0
  186.0950  178.5190  143.5300 C   0  0  1  0  0  3  0  0  0  0  0  0
  186.6980  177.5030  145.7170 C   0  0  0  0  0  2  0  0  0  0  0  0
  183.4880  179.4130  144.7190 C   0  0  0  0  0  2  0  0  0  0  0  0
  184.5190  178.6300  145.4760 C   0  0  0  0  0  3  0  0  0  0  0  0
  181.7030  179.1290  143.1740 O   0  0  0  0  0  1  0  0  0  0  0  0
  183.8920  178.7260  142.3400 C   0  0  0  0  0  2  0  0  0  0  0  0
  187.9170  177.4530  144.8140 C   0  0  0  0  0  2  0  0  0  0  0  0
  1  3  1  0  0  0  0
  1 17  1  1  0  0  0
  3  4  1  0  0  0  0
  4  6  1  0  0  0  0
  4  2  2  0  0  0  0
  5  3  1  0  0  0  0
  7 15  1  6  0  0  0
  7  1  1  0  0  0  0
  8  7  1  1  0  0  0
  9 12  1  0  0  0  0
 10  8  1  0  0  0  0
 12 11  2  0  0  0  0
 12  8  1  0  0  0  0
 13  9  1  0  0  0  0
 14  9  1  0  0  0  0
 14 10  2  0  0  0  0
 16 15  1  0  0  0  0
 19 25  2  0  0  0  0
 19 23  1  0  0  0  0
 20 17  1  1  0  0  0
 20 22  1  0  0  0  0
 20 28  1  0  0  0  0
 21 26  1  6  0  0  0
 21 24  1  0  0  0  0
 22 18  1  6  0  0  0
 22 19  1  0  0  0  0
 24 25  1  0  0  0  0
 27 18  1  0  0  0  0
 27 21  1  0  0  0  0
 28 23  1  0  0  0  0
M  END
>  <MODEL>
5

>  <REMARK>
 VINA RESULT:      -7.5      3.055      4.497
  Name = 
  6 active torsions:
  status: ('A' for Active; 'I' for Inactive)
    1  A    between atoms: O_1  and  C_2
    2  A    between atoms: C_2  and  C_3
    3  A    between atoms: C_2  and  C_27
    4  A    between atoms: C_10  and  C_17
    5  A    between atoms: N_16  and  C_27
    6  A    between atoms: C_17  and  C_27
                            x       y       z     vdW  Elec       q    Type
                         _______ _______ _______ _____ _____    ______ ____

>  <TORSDO>
F 6

$$$$
=
 OpenBabel11052413243D

 28 30  0  0  1  0  0  0  0  0999 V2000
  189.8360  177.3220  142.1890 C   0  0  1  0  0  3  0  0  0  0  0  0
  192.0550  175.6520  144.5640 O   0  0  0  0  0  0  0  0  0  0  0  0
  190.4820  176.2580  142.9520 N   0  0  0  0  0  0  0  0  0  0  0  0
  191.4800  176.5730  143.9290 C   0  0  0  0  0  0  0  0  0  0  0  0
  190.1800  174.9620  142.6960 O   0  0  0  0  0  1  0  0  0  0  0  0
  191.8300  177.9290  144.1940 N   0  0  0  0  0  1  0  0  0  0  0  0
  190.4420  177.4340  140.7860 C   0  0  2  0  0  3  0  0  0  0  0  0
  189.5340  176.7810  139.7360 C   0  0  2  0  0  3  0  0  0  0  0  0
  189.3420  177.7490  137.5370 N   0  0  0  0  0  0  0  0  0  0  0  0
  190.3740  175.9730  138.7320 C   0  0  0  0  0  3  0  0  0  0  0  0
  188.0300  178.6280  139.2720 O   0  0  0  0  0  0  0  0  0  0  0  0
  188.8970  177.8050  138.8730 C   0  0  0  0  0  0  0  0  0  0  0  0
  188.9630  178.6760  136.4870 C   0  0  0  0  0  1  0  0  0  0  0  0
  190.3120  176.6890  137.3750 C   0  0  0  0  0  3  0  0  0  0  0  0
  191.7190  176.8610  140.7590 O   0  0  0  0  0  0  0  0  0  0  0  0
  192.5370  177.8780  140.5860 O   0  0  0  0  0  1  0  0  0  0  0  0
  188.3140  177.1390  142.1590 C   0  0  0  0  0  2  0  0  0  0  0  0
  188.4830  178.5370  145.3190 C   0  0  0  0  0  2  0  0  0  0  0  0
  186.1030  177.9510  144.8930 C   0  0  0  0  0  0  0  0  0  0  0  0
  187.5730  178.1460  143.0400 C   0  0  2  0  0  3  0  0  0  0  0  0
  187.5540  178.0660  147.6180 C   0  0  1  0  0  3  0  0  0  0  0  0
  187.5160  177.6980  144.4920 C   0  0  1  0  0  3  0  0  0  0  0  0
  185.2600  178.4710  143.7920 C   0  0  0  0  0  2  0  0  0  0  0  0
  186.4190  177.1280  147.2270 C   0  0  0  0  0  2  0  0  0  0  0  0
  185.6000  177.6980  146.1080 C   0  0  0  0  0  3  0  0  0  0  0  0
  187.9610  177.7720  148.9170 O   0  0  0  0  0  1  0  0  0  0  0  0
  188.7420  177.8980  146.6770 C   0  0  0  0  0  2  0  0  0  0  0  0
  186.1440  178.3970  142.5600 C   0  0  0  0  0  2  0  0  0  0  0  0
  1 17  1  6  0  0  0
  1  3  1  0  0  0  0
  3  4  1  0  0  0  0
  4  6  1  0  0  0  0
  4  2  2  0  0  0  0
  5  3  1  0  0  0  0
  7 15  1  1  0  0  0
  7  1  1  0  0  0  0
  8  7  1  1  0  0  0
  9 12  1  0  0  0  0
 10  8  1  0  0  0  0
 12 11  2  0  0  0  0
 12  8  1  0  0  0  0
 13  9  1  0  0  0  0
 14  9  1  0  0  0  0
 14 10  2  0  0  0  0
 16 15  1  0  0  0  0
 18 27  1  0  0  0  0
 19 25  2  0  0  0  0
 20 17  1  6  0  0  0
 20 22  1  0  0  0  0
 21 26  1  1  0  0  0
 22 19  1  0  0  0  0
 22 18  1  1  0  0  0
 23 19  1  0  0  0  0
 24 21  1  0  0  0  0
 25 24  1  0  0  0  0
 27 21  1  0  0  0  0
 28 20  1  0  0  0  0
 28 23  1  0  0  0  0
M  END
>  <MODEL>
6

>  <REMARK>
 VINA RESULT:      -7.3      2.880      4.333
  Name = 
  6 active torsions:
  status: ('A' for Active; 'I' for Inactive)
    1  A    between atoms: O_1  and  C_2
    2  A    between atoms: C_2  and  C_3
    3  A    between atoms: C_2  and  C_27
    4  A    between atoms: C_10  and  C_17
    5  A    between atoms: N_16  and  C_27
    6  A    between atoms: C_17  and  C_27
                            x       y       z     vdW  Elec       q    Type
                         _______ _______ _______ _____ _____    ______ ____

>  <TORSDO>
F 6

$$$$
=
 OpenBabel11052413243D

 28 30  0  0  1  0  0  0  0  0999 V2000
  182.8410  178.7980  140.4290 C   0  0  1  0  0  3  0  0  0  0  0  0
  185.0070  177.1830  137.9680 O   0  0  0  0  0  0  0  0  0  0  0  0
  183.4240  177.7630  139.5800 N   0  0  0  0  0  0  0  0  0  0  0  0
  184.5260  178.0710  138.7190 C   0  0  0  0  0  0  0  0  0  0  0  0
  182.8850  176.5200  139.5610 O   0  0  0  0  0  1  0  0  0  0  0  0
  185.0900  179.3790  138.7060 N   0  0  0  0  0  1  0  0  0  0  0  0
  181.4830  179.2520  139.8840 C   0  0  2  0  0  3  0  0  0  0  0  0
  181.6510  180.3180  138.7930 C   0  0  2  0  0  3  0  0  0  0  0  0
  179.9840  180.5540  137.0690 N   0  0  0  0  0  0  0  0  0  0  0  0
  180.7570  181.5330  139.0910 C   0  0  0  0  0  3  0  0  0  0  0  0
  181.6350  178.9060  136.8190 O   0  0  0  0  0  0  0  0  0  0  0  0
  181.1200  179.8380  137.4940 C   0  0  0  0  0  0  0  0  0  0  0  0
  179.1990  180.2550  135.8860 C   0  0  0  0  0  1  0  0  0  0  0  0
  179.6450  181.5760  138.0330 C   0  0  0  0  0  3  0  0  0  0  0  0
  180.6770  179.7340  140.9230 O   0  0  0  0  0  0  0  0  0  0  0  0
  179.5920  178.9900  140.8740 O   0  0  0  0  0  1  0  0  0  0  0  0
  182.7640  178.3410  141.8910 C   0  0  0  0  0  2  0  0  0  0  0  0
  186.1570  179.0010  141.9980 C   0  0  0  0  0  2  0  0  0  0  0  0
  185.4800  178.2270  144.2640 C   0  0  0  0  0  0  0  0  0  0  0  0
  183.8010  179.0200  142.7850 C   0  0  2  0  0  3  0  0  0  0  0  0
  188.2410  177.9110  142.9140 C   0  0  1  0  0  3  0  0  0  0  0  0
  185.1140  178.2540  142.8190 C   0  0  1  0  0  3  0  0  0  0  0  0
  184.4740  178.8690  145.1410 C   0  0  0  0  0  2  0  0  0  0  0  0
  187.5910  176.9470  143.8990 C   0  0  0  0  0  2  0  0  0  0  0  0
  186.5800  177.6440  144.7590 C   0  0  0  0  0  3  0  0  0  0  0  0
  189.4660  177.3870  142.5050 O   0  0  0  0  0  1  0  0  0  0  0  0
  187.3550  178.1120  141.6900 C   0  0  0  0  0  2  0  0  0  0  0  0
  183.3080  179.1870  144.2220 C   0  0  0  0  0  2  0  0  0  0  0  0
  1 17  1  1  0  0  0
  2  4  2  0  0  0  0
  3  1  1  0  0  0  0
  4  3  1  0  0  0  0
  5  3  1  0  0  0  0
  6  4  1  0  0  0  0
  7  1  1  0  0  0  0
  7 15  1  1  0  0  0
  8 10  1  0  0  0  0
  8  7  1  1  0  0  0
  9 12  1  0  0  0  0
  9 14  1  0  0  0  0
 11 12  2  0  0  0  0
 12  8  1  0  0  0  0
 13  9  1  0  0  0  0
 14 10  2  0  0  0  0
 16 15  1  0  0  0  0
 19 25  2  0  0  0  0
 19 23  1  0  0  0  0
 20 17  1  6  0  0  0
 20 22  1  0  0  0  0
 20 28  1  0  0  0  0
 21 26  1  6  0  0  0
 21 24  1  0  0  0  0
 22 18  1  6  0  0  0
 22 19  1  0  0  0  0
 24 25  1  0  0  0  0
 27 18  1  0  0  0  0
 27 21  1  0  0  0  0
 28 23  1  0  0  0  0
M  END
>  <MODEL>
7

>  <REMARK>
 VINA RESULT:      -7.3      3.802      6.742
  Name = 
  6 active torsions:
  status: ('A' for Active; 'I' for Inactive)
    1  A    between atoms: O_1  and  C_2
    2  A    between atoms: C_2  and  C_3
    3  A    between atoms: C_2  and  C_27
    4  A    between atoms: C_10  and  C_17
    5  A    between atoms: N_16  and  C_27
    6  A    between atoms: C_17  and  C_27
                            x       y       z     vdW  Elec       q    Type
                         _______ _______ _______ _____ _____    ______ ____

>  <TORSDO>
F 6

$$$$
=
 OpenBabel11052413243D

 28 30  0  0  1  0  0  0  0  0999 V2000
  189.1680  177.0570  139.9030 C   0  0  1  0  0  3  0  0  0  0  0  0
  186.1090  178.6280  138.6670 O   0  0  0  0  0  0  0  0  0  0  0  0
  188.0650  178.0050  139.7740 N   0  0  0  0  0  0  0  0  0  0  0  0
  187.0420  177.7940  138.7940 C   0  0  0  0  0  0  0  0  0  0  0  0
  188.0370  179.1200  140.5430 O   0  0  0  0  0  1  0  0  0  0  0  0
  187.0680  176.6400  137.9580 N   0  0  0  0  0  1  0  0  0  0  0  0
  189.8810  176.8610  138.5600 C   0  0  2  0  0  3  0  0  0  0  0  0
  191.1110  175.9580  138.7120 C   0  0  2  0  0  3  0  0  0  0  0  0
  192.2000  175.0630  136.7570 N   0  0  0  0  0  0  0  0  0  0  0  0
  192.3960  176.7500  138.4190 C   0  0  0  0  0  3  0  0  0  0  0  0
  190.3060  173.9600  137.5940 O   0  0  0  0  0  0  0  0  0  0  0  0
  191.1330  174.9090  137.6630 C   0  0  0  0  0  0  0  0  0  0  0  0
  192.4260  174.2440  135.5810 C   0  0  0  0  0  1  0  0  0  0  0  0
  192.9920  176.2210  137.1060 C   0  0  0  0  0  3  0  0  0  0  0  0
  190.2440  178.0990  138.0160 O   0  0  0  0  0  0  0  0  0  0  0  0
  189.7840  178.0680  136.7820 O   0  0  0  0  0  1  0  0  0  0  0  0
  190.1290  177.4710  141.0230 C   0  0  0  0  0  2  0  0  0  0  0  0
  187.7830  176.5900  143.4070 C   0  0  0  0  0  2  0  0  0  0  0  0
  189.9120  177.0690  144.6030 C   0  0  0  0  0  0  0  0  0  0  0  0
  189.9950  176.6050  142.2760 C   0  0  2  0  0  3  0  0  0  0  0  0
  187.0340  177.4020  145.6760 C   0  0  1  0  0  3  0  0  0  0  0  0
  189.1420  177.2750  143.3430 C   0  0  1  0  0  3  0  0  0  0  0  0
  191.2020  176.3710  144.4000 C   0  0  0  0  0  2  0  0  0  0  0  0
  188.2460  178.2520  146.0350 C   0  0  0  0  0  2  0  0  0  0  0  0
  189.5250  177.5030  145.8090 C   0  0  0  0  0  3  0  0  0  0  0  0
  185.9150  177.9020  146.3390 O   0  0  0  0  0  1  0  0  0  0  0  0
  186.7760  177.4370  144.1740 C   0  0  0  0  0  2  0  0  0  0  0  0
  191.3510  176.2630  142.8930 C   0  0  0  0  0  2  0  0  0  0  0  0
  1 17  1  1  0  0  0
  2  4  2  0  0  0  0
  3  1  1  0  0  0  0
  3  5  1  0  0  0  0
  4  3  1  0  0  0  0
  6  4  1  0  0  0  0
  7 15  1  1  0  0  0
  7  1  1  0  0  0  0
  8  7  1  6  0  0  0
  9 14  1  0  0  0  0
  9 12  1  0  0  0  0
 10  8  1  0  0  0  0
 11 12  2  0  0  0  0
 12  8  1  0  0  0  0
 13  9  1  0  0  0  0
 14 10  2  0  0  0  0
 16 15  1  0  0  0  0
 18 27  1  0  0  0  0
 19 25  2  0  0  0  0
 20 17  1  6  0  0  0
 20 28  1  0  0  0  0
 20 22  1  0  0  0  0
 21 24  1  0  0  0  0
 21 26  1  1  0  0  0
 22 18  1  1  0  0  0
 22 19  1  0  0  0  0
 23 19  1  0  0  0  0
 25 24  1  0  0  0  0
 27 21  1  0  0  0  0
 28 23  1  0  0  0  0
M  END
>  <MODEL>
8

>  <REMARK>
 VINA RESULT:      -7.3      1.761      2.008
  Name = 
  6 active torsions:
  status: ('A' for Active; 'I' for Inactive)
    1  A    between atoms: O_1  and  C_2
    2  A    between atoms: C_2  and  C_3
    3  A    between atoms: C_2  and  C_27
    4  A    between atoms: C_10  and  C_17
    5  A    between atoms: N_16  and  C_27
    6  A    between atoms: C_17  and  C_27
                            x       y       z     vdW  Elec       q    Type
                         _______ _______ _______ _____ _____    ______ ____

>  <TORSDO>
F 6

$$$$
=
 OpenBabel11052413243D

 28 30  0  0  1  0  0  0  0  0999 V2000
  187.7460  177.8580  144.3890 C   0  0  1  0  0  3  0  0  0  0  0  0
  187.2680  177.9810  148.0100 O   0  0  0  0  0  0  0  0  0  0  0  0
  187.9260  177.5740  145.8090 N   0  0  0  0  0  0  0  0  0  0  0  0
  187.0910  178.2070  146.7850 C   0  0  0  0  0  0  0  0  0  0  0  0
  188.9250  176.7530  146.2140 O   0  0  0  0  0  1  0  0  0  0  0  0
  186.0510  179.0940  146.3800 N   0  0  0  0  0  1  0  0  0  0  0  0
  188.8480  177.1950  143.5540 C   0  0  2  0  0  3  0  0  0  0  0  0
  189.5010  178.2020  142.5980 C   0  0  2  0  0  3  0  0  0  0  0  0
  191.3620  177.5270  141.2240 N   0  0  0  0  0  0  0  0  0  0  0  0
  189.0260  177.9550  141.1570 C   0  0  0  0  0  3  0  0  0  0  0  0
  191.7760  178.1680  143.4430 O   0  0  0  0  0  0  0  0  0  0  0  0
  190.9630  177.9700  142.5010 C   0  0  0  0  0  0  0  0  0  0  0  0
  192.7110  177.1370  140.8560 C   0  0  0  0  0  1  0  0  0  0  0  0
  190.2170  177.4200  140.3480 C   0  0  0  0  0  3  0  0  0  0  0  0
  188.3310  176.1050  142.8440 O   0  0  0  0  0  0  0  0  0  0  0  0
  189.2550  175.1730  142.9460 O   0  0  0  0  0  1  0  0  0  0  0  0
  186.3390  177.4720  143.9170 C   0  0  0  0  0  2  0  0  0  0  0  0
  183.4530  179.3710  144.0710 C   0  0  0  0  0  2  0  0  0  0  0  0
  183.7650  178.6860  141.7000 C   0  0  0  0  0  0  0  0  0  0  0  0
  185.6310  178.5970  143.1620 C   0  0  2  0  0  3  0  0  0  0  0  0
  181.1030  179.2700  143.1560 C   0  0  1  0  0  3  0  0  0  0  0  0
  184.1250  178.3930  143.1160 C   0  0  1  0  0  3  0  0  0  0  0  0
  184.9320  179.0040  140.8450 C   0  0  0  0  0  2  0  0  0  0  0  0
  181.3280  178.2620  142.0360 C   0  0  0  0  0  2  0  0  0  0  0  0
  182.5220  178.6270  141.2040 C   0  0  0  0  0  3  0  0  0  0  0  0
  179.7750  179.2000  143.5700 O   0  0  0  0  0  1  0  0  0  0  0  0
  182.0090  178.9690  144.3440 C   0  0  0  0  0  2  0  0  0  0  0  0
  186.1390  178.7420  141.7280 C   0  0  0  0  0  2  0  0  0  0  0  0
  1 17  1  6  0  0  0
  1  3  1  0  0  0  0
  3  5  1  0  0  0  0
  3  4  1  0  0  0  0
  4  2  2  0  0  0  0
  6  4  1  0  0  0  0
  7 15  1  6  0  0  0
  7  1  1  0  0  0  0
  8  7  1  1  0  0  0
  9 12  1  0  0  0  0
 10  8  1  0  0  0  0
 12  8  1  0  0  0  0
 12 11  2  0  0  0  0
 13  9  1  0  0  0  0
 14 10  2  0  0  0  0
 14  9  1  0  0  0  0
 15 16  1  0  0  0  0
 18 27  1  0  0  0  0
 19 22  1  0  0  0  0
 20 17  1  6  0  0  0
 21 26  1  1  0  0  0
 21 27  1  0  0  0  0
 22 20  1  0  0  0  0
 22 18  1  1  0  0  0
 23 19  1  0  0  0  0
 23 28  1  0  0  0  0
 24 21  1  0  0  0  0
 25 19  2  0  0  0  0
 25 24  1  0  0  0  0
 28 20  1  0  0  0  0
M  END
>  <MODEL>
9

>  <REMARK>
 VINA RESULT:      -7.2      3.774      6.358
  Name = 
  6 active torsions:
  status: ('A' for Active; 'I' for Inactive)
    1  A    between atoms: O_1  and  C_2
    2  A    between atoms: C_2  and  C_3
    3  A    between atoms: C_2  and  C_27
    4  A    between atoms: C_10  and  C_17
    5  A    between atoms: N_16  and  C_27
    6  A    between atoms: C_17  and  C_27
                            x       y       z     vdW  Elec       q    Type
                         _______ _______ _______ _____ _____    ______ ____

>  <TORSDO>
F 6

$$$$
