=
 OpenBabel11052413483D

 27 31  0  0  0  0  0  0  0  0999 V2000
  186.5350  178.4390  140.9860 C   0  0  0  0  0  0  0  0  0  0  0  0
  188.8130  177.6940  141.6560 C   0  0  0  0  0  0  0  0  0  0  0  0
  187.1090  178.1950  143.2930 O   0  0  0  0  0  0  0  0  0  0  0  0
  191.5440  176.6970  144.6220 C   0  0  0  0  0  3  0  0  0  0  0  0
  192.1150  176.4420  146.9530 O   0  0  0  0  0  1  0  0  0  0  0  0
  190.0760  177.2730  141.3630 N   0  0  0  0  0  0  0  0  0  0  0  0
  188.9710  177.5320  145.3560 C   0  0  0  0  0  3  0  0  0  0  0  0
  189.9060  177.1940  146.3380 C   0  0  0  0  0  3  0  0  0  0  0  0
  189.3200  177.4550  144.0010 C   0  0  0  0  0  0  0  0  0  0  0  0
  187.8710  178.0230  140.6140 N   0  0  0  0  0  0  0  0  0  0  0  0
  191.1910  176.7760  145.9730 C   0  0  0  0  0  0  0  0  0  0  0  0
  190.6140  177.0330  143.6360 C   0  0  0  0  0  0  0  0  0  0  0  0
  185.5390  178.8920  139.9470 C   0  0  0  0  0  2  0  0  0  0  0  0
  188.4110  177.7840  142.9930 C   0  0  0  0  0  0  0  0  0  0  0  0
  184.8170  178.9910  142.6860 C   0  0  0  0  0  2  0  0  0  0  0  0
  190.9480  176.9550  142.3220 N   0  0  0  0  0  0  0  0  0  0  0  0
  183.8020  178.6620  141.6180 C   0  0  0  0  0  0  0  0  0  0  0  0
  184.1680  178.6060  140.3720 N   0  0  0  0  0  0  0  0  0  0  0  0
  186.1890  178.5200  142.2880 C   0  0  0  0  0  0  0  0  0  0  0  0
  188.9840  177.7220  136.5280 C   0  0  0  0  0  3  0  0  0  0  0  0
  188.2530  177.9190  139.2300 C   0  0  0  0  0  0  0  0  0  0  0  0
  188.0450  176.7250  138.5250 C   0  0  0  0  0  3  0  0  0  0  0  0
  188.4090  176.6270  137.1790 C   0  0  0  0  0  3  0  0  0  0  0  0
  189.1940  178.9160  137.2230 C   0  0  0  0  0  3  0  0  0  0  0  0
  188.8290  179.0150  138.5690 C   0  0  0  0  0  3  0  0  0  0  0  0
  182.4660  178.4180  141.9440 O   0  0  0  0  0  0  0  0  0  0  0  0
  181.8460  178.9920  143.0850 C   0  0  0  0  0  1  0  0  0  0  0  0
  1 19  2  0  0  0  0
  2 14  1  0  0  0  0
  4 11  2  0  0  0  0
  6  2  2  0  0  0  0
  6 16  1  0  0  0  0
  7  8  2  0  0  0  0
  9  7  1  0  0  0  0
 10  1  1  0  0  0  0
 10  2  1  0  0  0  0
 11  8  1  0  0  0  0
 11  5  1  0  0  0  0
 12  9  1  0  0  0  0
 12  4  1  0  0  0  0
 13 18  1  0  0  0  0
 13  1  1  0  0  0  0
 14  3  1  0  0  0  0
 14  9  2  0  0  0  0
 16 12  2  0  0  0  0
 17 26  1  0  0  0  0
 17 15  1  0  0  0  0
 18 17  2  0  0  0  0
 19 15  1  0  0  0  0
 19  3  1  0  0  0  0
 20 23  2  0  0  0  0
 20 24  1  0  0  0  0
 21 10  1  0  0  0  0
 22 21  2  0  0  0  0
 23 22  1  0  0  0  0
 24 25  2  0  0  0  0
 25 21  1  0  0  0  0
 26 27  1  0  0  0  0
M  END
>  <MODEL>
1

>  <REMARK>
 VINA RESULT:      -8.7      0.000      0.000
  Name = 
  2 active torsions:
  status: ('A' for Active; 'I' for Inactive)
    1  A    between atoms: C_9  and  N_15
    2  A    between atoms: O_10  and  C_22
                            x       y       z     vdW  Elec       q    Type
                         _______ _______ _______ _____ _____    ______ ____

>  <TORSDO>
F 2

$$$$
=
 OpenBabel11052413483D

 27 31  0  0  0  0  0  0  0  0999 V2000
  187.3090  177.9440  141.9080 C   0  0  0  0  0  0  0  0  0  0  0  0
  187.6800  177.6720  144.3540 C   0  0  0  0  0  0  0  0  0  0  0  0
  189.4570  177.3260  142.7540 O   0  0  0  0  0  0  0  0  0  0  0  0
  190.2150  176.8320  147.5360 C   0  0  0  0  0  3  0  0  0  0  0  0
  192.3880  176.2180  148.3850 O   0  0  0  0  0  1  0  0  0  0  0  0
  187.2540  177.7140  145.6470 N   0  0  0  0  0  0  0  0  0  0  0  0
  191.2200  176.7270  144.9210 C   0  0  0  0  0  3  0  0  0  0  0  0
  192.0550  176.4460  146.0060 C   0  0  0  0  0  3  0  0  0  0  0  0
  189.8770  177.0610  145.1390 C   0  0  0  0  0  0  0  0  0  0  0  0
  186.7910  177.9800  143.2600 N   0  0  0  0  0  0  0  0  0  0  0  0
  191.5540  176.4980  147.3120 C   0  0  0  0  0  0  0  0  0  0  0  0
  189.3750  177.1140  146.4550 C   0  0  0  0  0  0  0  0  0  0  0  0
  186.4050  178.1580  140.7180 C   0  0  0  0  0  2  0  0  0  0  0  0
  189.0140  177.3490  144.0800 C   0  0  0  0  0  0  0  0  0  0  0  0
  189.1370  177.5390  140.2830 C   0  0  0  0  0  2  0  0  0  0  0  0
  188.0740  177.4420  146.6650 N   0  0  0  0  0  0  0  0  0  0  0  0
  188.3870  178.4720  139.3620 C   0  0  0  0  0  0  0  0  0  0  0  0
  187.1400  178.7510  139.5990 N   0  0  0  0  0  0  0  0  0  0  0  0
  188.6000  177.6200  141.6860 C   0  0  0  0  0  0  0  0  0  0  0  0
  182.7440  179.0120  144.0160 C   0  0  0  0  0  3  0  0  0  0  0  0
  185.4200  178.3350  143.5160 C   0  0  0  0  0  0  0  0  0  0  0  0
  184.4760  178.3060  142.4790 C   0  0  0  0  0  3  0  0  0  0  0  0
  183.1430  178.6440  142.7280 C   0  0  0  0  0  3  0  0  0  0  0  0
  183.6780  179.0420  145.0540 C   0  0  0  0  0  3  0  0  0  0  0  0
  185.0110  178.7040  144.8060 C   0  0  0  0  0  3  0  0  0  0  0  0
  189.0100  179.0430  138.2510 O   0  0  0  0  0  0  0  0  0  0  0  0
  189.0070  178.4210  136.9750 C   0  0  0  0  0  1  0  0  0  0  0  0
  1 10  1  0  0  0  0
  2  6  1  0  0  0  0
  3 14  1  0  0  0  0
  6 16  2  0  0  0  0
  7  9  2  0  0  0  0
  7  8  1  0  0  0  0
  8 11  2  0  0  0  0
  9 12  1  0  0  0  0
 10 21  1  0  0  0  0
 10  2  1  0  0  0  0
 11  4  1  0  0  0  0
 11  5  1  0  0  0  0
 12 16  1  0  0  0  0
 12  4  2  0  0  0  0
 13  1  1  0  0  0  0
 14  2  2  0  0  0  0
 14  9  1  0  0  0  0
 15 19  1  0  0  0  0
 17 18  2  0  0  0  0
 17 15  1  0  0  0  0
 18 13  1  0  0  0  0
 19  1  2  0  0  0  0
 19  3  1  0  0  0  0
 20 24  1  0  0  0  0
 21 25  1  0  0  0  0
 22 23  1  0  0  0  0
 22 21  2  0  0  0  0
 23 20  2  0  0  0  0
 25 24  2  0  0  0  0
 26 17  1  0  0  0  0
 27 26  1  0  0  0  0
M  END
>  <MODEL>
2

>  <REMARK>
 VINA RESULT:      -8.7      2.208      5.078
  Name = 
  2 active torsions:
  status: ('A' for Active; 'I' for Inactive)
    1  A    between atoms: C_9  and  N_15
    2  A    between atoms: O_10  and  C_22
                            x       y       z     vdW  Elec       q    Type
                         _______ _______ _______ _____ _____    ______ ____

>  <TORSDO>
F 2

$$$$
=
 OpenBabel11052413483D

 27 31  0  0  0  0  0  0  0  0999 V2000
  190.0110  176.8800  144.3440 C   0  0  0  0  0  0  0  0  0  0  0  0
  188.0920  177.7000  142.9880 C   0  0  0  0  0  0  0  0  0  0  0  0
  187.9250  177.4090  145.3810 O   0  0  0  0  0  0  0  0  0  0  0  0
  184.1720  179.0560  142.7550 C   0  0  0  0  0  3  0  0  0  0  0  0
  182.0710  179.5990  143.8090 O   0  0  0  0  0  1  0  0  0  0  0  0
  187.5280  178.0800  141.8070 N   0  0  0  0  0  0  0  0  0  0  0  0
  185.2210  178.3210  145.2490 C   0  0  0  0  0  3  0  0  0  0  0  0
  183.9030  178.7780  145.1480 C   0  0  0  0  0  3  0  0  0  0  0  0
  186.0190  178.2290  144.1020 C   0  0  0  0  0  0  0  0  0  0  0  0
  189.4590  177.2450  143.0550 N   0  0  0  0  0  0  0  0  0  0  0  0
  183.3790  179.1460  143.9030 C   0  0  0  0  0  0  0  0  0  0  0  0
  185.4890  178.6000  142.8500 C   0  0  0  0  0  0  0  0  0  0  0  0
  191.4000  176.3010  144.4640 C   0  0  0  0  0  2  0  0  0  0  0  0
  187.3390  177.7780  144.1660 C   0  0  0  0  0  0  0  0  0  0  0  0
  189.8000  176.5460  146.7910 C   0  0  0  0  0  2  0  0  0  0  0  0
  186.2670  178.5130  141.7400 N   0  0  0  0  0  0  0  0  0  0  0  0
  191.2970  176.7400  146.8430 C   0  0  0  0  0  0  0  0  0  0  0  0
  192.0010  176.6400  145.7550 N   0  0  0  0  0  0  0  0  0  0  0  0
  189.2490  176.9620  145.4550 C   0  0  0  0  0  0  0  0  0  0  0  0
  191.8180  177.0480  139.5320 C   0  0  0  0  0  3  0  0  0  0  0  0
  190.2610  177.1740  141.8620 C   0  0  0  0  0  0  0  0  0  0  0  0
  189.7400  176.6020  140.6920 C   0  0  0  0  0  3  0  0  0  0  0  0
  190.5170  176.5390  139.5310 C   0  0  0  0  0  3  0  0  0  0  0  0
  192.3430  177.6210  140.6930 C   0  0  0  0  0  3  0  0  0  0  0  0
  191.5680  177.6850  141.8540 C   0  0  0  0  0  3  0  0  0  0  0  0
  191.9450  177.0240  148.0470 O   0  0  0  0  0  0  0  0  0  0  0  0
  192.8440  176.1120  148.6590 C   0  0  0  0  0  1  0  0  0  0  0  0
  1 13  1  0  0  0  0
  1 19  2  0  0  0  0
  2 10  1  0  0  0  0
  2 14  1  0  0  0  0
  3 19  1  0  0  0  0
  4 12  1  0  0  0  0
  4 11  2  0  0  0  0
  5 11  1  0  0  0  0
  6  2  2  0  0  0  0
  8  7  2  0  0  0  0
  9 14  2  0  0  0  0
  9  7  1  0  0  0  0
 10  1  1  0  0  0  0
 11  8  1  0  0  0  0
 12  9  1  0  0  0  0
 13 18  1  0  0  0  0
 14  3  1  0  0  0  0
 15 17  1  0  0  0  0
 16  6  1  0  0  0  0
 16 12  2  0  0  0  0
 17 26  1  0  0  0  0
 18 17  2  0  0  0  0
 19 15  1  0  0  0  0
 20 24  1  0  0  0  0
 21 10  1  0  0  0  0
 22 21  2  0  0  0  0
 23 20  2  0  0  0  0
 23 22  1  0  0  0  0
 24 25  2  0  0  0  0
 25 21  1  0  0  0  0
 26 27  1  0  0  0  0
M  END
>  <MODEL>
3

>  <REMARK>
 VINA RESULT:      -8.6      2.053      6.440
  Name = 
  2 active torsions:
  status: ('A' for Active; 'I' for Inactive)
    1  A    between atoms: C_9  and  N_15
    2  A    between atoms: O_10  and  C_22
                            x       y       z     vdW  Elec       q    Type
                         _______ _______ _______ _____ _____    ______ ____

>  <TORSDO>
F 2

$$$$
=
 OpenBabel11052413483D

 27 31  0  0  0  0  0  0  0  0999 V2000
  189.1140  177.8350  140.6140 C   0  0  0  0  0  0  0  0  0  0  0  0
  187.4600  177.9220  142.4720 C   0  0  0  0  0  0  0  0  0  0  0  0
  186.8390  178.4330  140.1940 O   0  0  0  0  0  0  0  0  0  0  0  0
  183.5800  178.5680  143.8070 C   0  0  0  0  0  3  0  0  0  0  0  0
  181.2820  179.1630  143.3760 O   0  0  0  0  0  1  0  0  0  0  0  0
  187.1120  177.7690  143.7810 N   0  0  0  0  0  0  0  0  0  0  0  0
  184.1650  178.9010  141.0850 C   0  0  0  0  0  3  0  0  0  0  0  0
  182.8660  179.1150  141.5560 C   0  0  0  0  0  3  0  0  0  0  0  0
  185.1780  178.5200  141.9750 C   0  0  0  0  0  0  0  0  0  0  0  0
  188.8090  177.6800  142.0210 N   0  0  0  0  0  0  0  0  0  0  0  0
  182.5730  178.9490  142.9140 C   0  0  0  0  0  0  0  0  0  0  0  0
  184.8800  178.3530  143.3420 C   0  0  0  0  0  0  0  0  0  0  0  0
  190.5250  177.6950  140.0990 C   0  0  0  0  0  2  0  0  0  0  0  0
  186.4860  178.2970  141.5410 C   0  0  0  0  0  0  0  0  0  0  0  0
  188.4610  178.4080  138.2920 C   0  0  0  0  0  2  0  0  0  0  0  0
  185.8630  177.9790  144.2020 N   0  0  0  0  0  0  0  0  0  0  0  0
  189.6140  177.5330  137.8610 C   0  0  0  0  0  0  0  0  0  0  0  0
  190.5360  177.2080  138.7180 N   0  0  0  0  0  0  0  0  0  0  0  0
  188.1460  178.2050  139.7490 C   0  0  0  0  0  0  0  0  0  0  0  0
  191.7990  176.4840  144.7880 C   0  0  0  0  0  3  0  0  0  0  0  0
  189.8260  177.2760  142.9560 C   0  0  0  0  0  0  0  0  0  0  0  0
  190.3700  178.2030  143.8570 C   0  0  0  0  0  3  0  0  0  0  0  0
  191.3530  177.8090  144.7690 C   0  0  0  0  0  3  0  0  0  0  0  0
  191.2610  175.5540  143.8940 C   0  0  0  0  0  3  0  0  0  0  0  0
  190.2780  175.9470  142.9820 C   0  0  0  0  0  3  0  0  0  0  0  0
  189.7130  177.0660  136.5490 O   0  0  0  0  0  0  0  0  0  0  0  0
  188.8400  177.5020  135.5190 C   0  0  0  0  0  1  0  0  0  0  0  0
  1 10  1  0  0  0  0
  2  6  1  0  0  0  0
  3 14  1  0  0  0  0
  6 16  2  0  0  0  0
  7  8  2  0  0  0  0
  7  9  1  0  0  0  0
  8 11  1  0  0  0  0
  9 12  2  0  0  0  0
 10  2  1  0  0  0  0
 10 21  1  0  0  0  0
 11  5  1  0  0  0  0
 11  4  2  0  0  0  0
 12  4  1  0  0  0  0
 12 16  1  0  0  0  0
 13  1  1  0  0  0  0
 14  9  1  0  0  0  0
 14  2  2  0  0  0  0
 15 19  1  0  0  0  0
 17 15  1  0  0  0  0
 17 18  2  0  0  0  0
 18 13  1  0  0  0  0
 19  3  1  0  0  0  0
 19  1  2  0  0  0  0
 21 25  2  0  0  0  0
 21 22  1  0  0  0  0
 22 23  2  0  0  0  0
 23 20  1  0  0  0  0
 24 20  2  0  0  0  0
 25 24  1  0  0  0  0
 26 17  1  0  0  0  0
 27 26  1  0  0  0  0
M  END
>  <MODEL>
4

>  <REMARK>
 VINA RESULT:      -8.4      2.372      6.636
  Name = 
  2 active torsions:
  status: ('A' for Active; 'I' for Inactive)
    1  A    between atoms: C_9  and  N_15
    2  A    between atoms: O_10  and  C_22
                            x       y       z     vdW  Elec       q    Type
                         _______ _______ _______ _____ _____    ______ ____

>  <TORSDO>
F 2

$$$$
=
 OpenBabel11052413483D

 27 31  0  0  0  0  0  0  0  0999 V2000
  188.2790  177.8450  143.3680 C   0  0  0  0  0  0  0  0  0  0  0  0
  185.9870  178.2370  144.2560 C   0  0  0  0  0  0  0  0  0  0  0  0
  186.4360  178.1780  141.8830 O   0  0  0  0  0  0  0  0  0  0  0  0
  181.9400  178.9010  143.6000 C   0  0  0  0  0  3  0  0  0  0  0  0
  180.0810  179.2260  142.0960 O   0  0  0  0  0  1  0  0  0  0  0  0
  185.1000  178.3580  145.2830 N   0  0  0  0  0  0  0  0  0  0  0  0
  183.6610  178.6520  141.4010 C   0  0  0  0  0  3  0  0  0  0  0  0
  182.2950  178.8780  141.2020 C   0  0  0  0  0  3  0  0  0  0  0  0
  184.1710  178.5510  142.7010 C   0  0  0  0  0  0  0  0  0  0  0  0
  187.3880  177.9920  144.5000 N   0  0  0  0  0  0  0  0  0  0  0  0
  181.4360  179.0020  142.2990 C   0  0  0  0  0  0  0  0  0  0  0  0
  183.3030  178.6760  143.8040 C   0  0  0  0  0  0  0  0  0  0  0  0
  189.7680  177.6890  143.5590 C   0  0  0  0  0  2  0  0  0  0  0  0
  185.5290  178.3250  142.9370 C   0  0  0  0  0  0  0  0  0  0  0  0
  188.7220  177.8360  140.9280 C   0  0  0  0  0  2  0  0  0  0  0  0
  183.8010  178.5730  145.0640 N   0  0  0  0  0  0  0  0  0  0  0  0
  189.9140  176.9670  141.2520 C   0  0  0  0  0  0  0  0  0  0  0  0
  190.3590  176.9060  142.4720 N   0  0  0  0  0  0  0  0  0  0  0  0
  187.7980  177.9450  142.1100 C   0  0  0  0  0  0  0  0  0  0  0  0
  188.8550  177.6660  148.4700 C   0  0  0  0  0  3  0  0  0  0  0  0
  187.8820  177.8770  145.8470 C   0  0  0  0  0  0  0  0  0  0  0  0
  189.0370  177.1280  146.1170 C   0  0  0  0  0  3  0  0  0  0  0  0
  189.5210  177.0230  147.4240 C   0  0  0  0  0  3  0  0  0  0  0  0
  187.7040  178.4150  148.2100 C   0  0  0  0  0  3  0  0  0  0  0  0
  187.2200  178.5220  146.9030 C   0  0  0  0  0  3  0  0  0  0  0  0
  190.5550  176.2240  140.2590 O   0  0  0  0  0  0  0  0  0  0  0  0
  190.5790  176.6340  138.9000 C   0  0  0  0  0  1  0  0  0  0  0  0
  1 13  1  0  0  0  0
  1 10  1  0  0  0  0
  2 10  1  0  0  0  0
  2  6  1  0  0  0  0
  3 19  1  0  0  0  0
  3 14  1  0  0  0  0
  4 12  1  0  0  0  0
  5 11  1  0  0  0  0
  7  9  1  0  0  0  0
  8  7  2  0  0  0  0
  8 11  1  0  0  0  0
  9 14  1  0  0  0  0
  9 12  2  0  0  0  0
 10 21  1  0  0  0  0
 11  4  2  0  0  0  0
 12 16  1  0  0  0  0
 14  2  2  0  0  0  0
 15 17  1  0  0  0  0
 15 19  1  0  0  0  0
 16  6  2  0  0  0  0
 17 18  2  0  0  0  0
 18 13  1  0  0  0  0
 19  1  2  0  0  0  0
 21 22  2  0  0  0  0
 21 25  1  0  0  0  0
 22 23  1  0  0  0  0
 23 20  2  0  0  0  0
 24 20  1  0  0  0  0
 25 24  2  0  0  0  0
 26 17  1  0  0  0  0
 27 26  1  0  0  0  0
M  END
>  <MODEL>
5

>  <REMARK>
 VINA RESULT:      -8.4      2.428      7.744
  Name = 
  2 active torsions:
  status: ('A' for Active; 'I' for Inactive)
    1  A    between atoms: C_9  and  N_15
    2  A    between atoms: O_10  and  C_22
                            x       y       z     vdW  Elec       q    Type
                         _______ _______ _______ _____ _____    ______ ____

>  <TORSDO>
F 2

$$$$
=
 OpenBabel11052413483D

 27 31  0  0  0  0  0  0  0  0999 V2000
  189.2950  177.4750  142.6730 C   0  0  0  0  0  0  0  0  0  0  0  0
  187.3060  177.8740  144.1160 C   0  0  0  0  0  0  0  0  0  0  0  0
  187.1700  177.9860  141.7060 O   0  0  0  0  0  0  0  0  0  0  0  0
  183.2600  178.7260  144.5080 C   0  0  0  0  0  3  0  0  0  0  0  0
  181.1150  179.2320  143.5260 O   0  0  0  0  0  1  0  0  0  0  0  0
  186.6980  177.9450  145.3330 N   0  0  0  0  0  0  0  0  0  0  0  0
  184.3880  178.5920  141.9450 C   0  0  0  0  0  3  0  0  0  0  0  0
  183.0290  178.8790  142.1000 C   0  0  0  0  0  3  0  0  0  0  0  0
  185.1900  178.3710  143.0730 C   0  0  0  0  0  0  0  0  0  0  0  0
  188.7100  177.5620  143.9950 N   0  0  0  0  0  0  0  0  0  0  0  0
  182.4650  178.9460  143.3790 C   0  0  0  0  0  0  0  0  0  0  0  0
  184.6190  178.4390  144.3590 C   0  0  0  0  0  0  0  0  0  0  0  0
  190.7760  177.2530  142.4850 C   0  0  0  0  0  2  0  0  0  0  0  0
  186.5510  178.0810  142.9560 C   0  0  0  0  0  0  0  0  0  0  0  0
  189.1390  177.6410  140.2040 C   0  0  0  0  0  2  0  0  0  0  0  0
  185.3970  178.2200  145.4510 N   0  0  0  0  0  0  0  0  0  0  0  0
  190.3270  176.7100  140.1690 C   0  0  0  0  0  0  0  0  0  0  0  0
  191.0470  176.5380  141.2370 N   0  0  0  0  0  0  0  0  0  0  0  0
  188.5330  177.6890  141.5800 C   0  0  0  0  0  0  0  0  0  0  0  0
  191.0510  176.8520  147.4640 C   0  0  0  0  0  3  0  0  0  0  0  0
  189.5060  177.3260  145.1700 C   0  0  0  0  0  0  0  0  0  0  0  0
  188.9880  177.6040  146.4440 C   0  0  0  0  0  3  0  0  0  0  0  0
  189.7580  177.3690  147.5870 C   0  0  0  0  0  3  0  0  0  0  0  0
  191.5740  176.5710  146.1990 C   0  0  0  0  0  3  0  0  0  0  0  0
  190.8040  176.8060  145.0560 C   0  0  0  0  0  3  0  0  0  0  0  0
  190.6720  176.0260  139.0020 O   0  0  0  0  0  0  0  0  0  0  0  0
  191.8670  176.2990  138.2860 C   0  0  0  0  0  1  0  0  0  0  0  0
  1 10  1  0  0  0  0
  2  6  1  0  0  0  0
  3 14  1  0  0  0  0
  6 16  2  0  0  0  0
  7  8  2  0  0  0  0
  7  9  1  0  0  0  0
  8 11  1  0  0  0  0
  9 12  2  0  0  0  0
 10  2  1  0  0  0  0
 10 21  1  0  0  0  0
 11  5  1  0  0  0  0
 11  4  2  0  0  0  0
 12  4  1  0  0  0  0
 12 16  1  0  0  0  0
 13  1  1  0  0  0  0
 14  9  1  0  0  0  0
 14  2  2  0  0  0  0
 15 19  1  0  0  0  0
 17 15  1  0  0  0  0
 17 18  2  0  0  0  0
 18 13  1  0  0  0  0
 19  3  1  0  0  0  0
 19  1  2  0  0  0  0
 20 23  1  0  0  0  0
 21 22  1  0  0  0  0
 22 23  2  0  0  0  0
 24 20  2  0  0  0  0
 25 21  2  0  0  0  0
 25 24  1  0  0  0  0
 26 17  1  0  0  0  0
 27 26  1  0  0  0  0
M  END
>  <MODEL>
6

>  <REMARK>
 VINA RESULT:      -8.4      2.499      7.279
  Name = 
  2 active torsions:
  status: ('A' for Active; 'I' for Inactive)
    1  A    between atoms: C_9  and  N_15
    2  A    between atoms: O_10  and  C_22
                            x       y       z     vdW  Elec       q    Type
                         _______ _______ _______ _____ _____    ______ ____

>  <TORSDO>
F 2

$$$$
=
 OpenBabel11052413483D

 27 31  0  0  0  0  0  0  0  0999 V2000
  189.1270  177.4890  145.1510 C   0  0  0  0  0  0  0  0  0  0  0  0
  188.2570  177.7600  142.8350 C   0  0  0  0  0  0  0  0  0  0  0  0
  190.5490  177.1280  143.2650 O   0  0  0  0  0  0  0  0  0  0  0  0
  188.8560  177.6110  138.7270 C   0  0  0  0  0  3  0  0  0  0  0  0
  190.2930  177.2350  136.8260 O   0  0  0  0  0  1  0  0  0  0  0  0
  187.2550  178.0210  141.9490 N   0  0  0  0  0  0  0  0  0  0  0  0
  190.9950  177.0340  140.4450 C   0  0  0  0  0  3  0  0  0  0  0  0
  191.1760  176.9920  139.0590 C   0  0  0  0  0  3  0  0  0  0  0  0
  189.7430  177.3670  140.9770 C   0  0  0  0  0  0  0  0  0  0  0  0
  188.0300  177.8020  144.2590 N   0  0  0  0  0  0  0  0  0  0  0  0
  190.1080  177.2790  138.2010 C   0  0  0  0  0  0  0  0  0  0  0  0
  188.6700  177.6550  140.1110 C   0  0  0  0  0  0  0  0  0  0  0  0
  188.9790  177.6140  146.6480 C   0  0  0  0  0  2  0  0  0  0  0  0
  189.5260  177.4180  142.3560 C   0  0  0  0  0  0  0  0  0  0  0  0
  191.4950  176.8850  145.5660 C   0  0  0  0  0  2  0  0  0  0  0  0
  187.4550  177.9730  140.6300 N   0  0  0  0  0  0  0  0  0  0  0  0
  191.0140  176.3240  146.8830 C   0  0  0  0  0  0  0  0  0  0  0  0
  189.8470  176.6630  147.3440 N   0  0  0  0  0  0  0  0  0  0  0  0
  190.3390  177.1710  144.6480 C   0  0  0  0  0  0  0  0  0  0  0  0
  184.1870  178.7620  145.7870 C   0  0  0  0  0  3  0  0  0  0  0  0
  186.7290  178.1320  144.7780 C   0  0  0  0  0  0  0  0  0  0  0  0
  185.7110  178.5670  143.9160 C   0  0  0  0  0  3  0  0  0  0  0  0
  184.4450  178.8820  144.4190 C   0  0  0  0  0  3  0  0  0  0  0  0
  185.1950  178.3290  146.6530 C   0  0  0  0  0  3  0  0  0  0  0  0
  186.4610  178.0140  146.1510 C   0  0  0  0  0  3  0  0  0  0  0  0
  191.8060  175.4440  147.6240 O   0  0  0  0  0  0  0  0  0  0  0  0
  192.8790  175.8900  148.4390 C   0  0  0  0  0  1  0  0  0  0  0  0
  1 13  1  0  0  0  0
  2 10  1  0  0  0  0
  3 19  1  0  0  0  0
  4 12  1  0  0  0  0
  5 11  1  0  0  0  0
  6  2  2  0  0  0  0
  7  9  1  0  0  0  0
  8  7  2  0  0  0  0
  9 14  2  0  0  0  0
 10 21  1  0  0  0  0
 10  1  1  0  0  0  0
 11  4  2  0  0  0  0
 11  8  1  0  0  0  0
 12 16  2  0  0  0  0
 12  9  1  0  0  0  0
 13 18  1  0  0  0  0
 14  2  1  0  0  0  0
 14  3  1  0  0  0  0
 15 17  1  0  0  0  0
 16  6  1  0  0  0  0
 17 18  2  0  0  0  0
 17 26  1  0  0  0  0
 19  1  2  0  0  0  0
 19 15  1  0  0  0  0
 20 24  1  0  0  0  0
 21 25  1  0  0  0  0
 22 23  1  0  0  0  0
 22 21  2  0  0  0  0
 23 20  2  0  0  0  0
 25 24  2  0  0  0  0
 26 27  1  0  0  0  0
M  END
>  <MODEL>
7

>  <REMARK>
 VINA RESULT:      -8.3      2.667      7.257
  Name = 
  2 active torsions:
  status: ('A' for Active; 'I' for Inactive)
    1  A    between atoms: C_9  and  N_15
    2  A    between atoms: O_10  and  C_22
                            x       y       z     vdW  Elec       q    Type
                         _______ _______ _______ _____ _____    ______ ____

>  <TORSDO>
F 2

$$$$
=
 OpenBabel11052413483D

 27 31  0  0  0  0  0  0  0  0999 V2000
  188.9380  177.9160  140.3480 C   0  0  0  0  0  0  0  0  0  0  0  0
  187.3180  178.0300  142.2340 C   0  0  0  0  0  0  0  0  0  0  0  0
  186.6400  178.4370  139.9510 O   0  0  0  0  0  0  0  0  0  0  0  0
  183.4470  178.6210  143.6190 C   0  0  0  0  0  3  0  0  0  0  0  0
  181.1250  179.1370  143.2110 O   0  0  0  0  0  1  0  0  0  0  0  0
  186.9980  177.9160  143.5530 N   0  0  0  0  0  0  0  0  0  0  0  0
  183.9710  178.8660  140.8760 C   0  0  0  0  0  3  0  0  0  0  0  0
  182.6760  179.0630  141.3630 C   0  0  0  0  0  3  0  0  0  0  0  0
  185.0100  178.5460  141.7590 C   0  0  0  0  0  0  0  0  0  0  0  0
  188.6640  177.8070  141.7660 N   0  0  0  0  0  0  0  0  0  0  0  0
  182.4130  178.9410  142.7330 C   0  0  0  0  0  0  0  0  0  0  0  0
  184.7430  178.4230  143.1370 C   0  0  0  0  0  0  0  0  0  0  0  0
  190.3430  177.7940  139.8110 C   0  0  0  0  0  2  0  0  0  0  0  0
  186.3160  178.3420  141.3080 C   0  0  0  0  0  0  0  0  0  0  0  0
  188.2270  178.3820  138.0190 C   0  0  0  0  0  2  0  0  0  0  0  0
  185.7510  178.1090  143.9910 N   0  0  0  0  0  0  0  0  0  0  0  0
  189.3960  177.5240  137.5990 C   0  0  0  0  0  0  0  0  0  0  0  0
  190.3410  177.2560  138.4490 N   0  0  0  0  0  0  0  0  0  0  0  0
  187.9450  178.2270  139.4880 C   0  0  0  0  0  0  0  0  0  0  0  0
  191.7560  176.8000  144.4950 C   0  0  0  0  0  3  0  0  0  0  0  0
  189.7090  177.4650  142.6950 C   0  0  0  0  0  0  0  0  0  0  0  0
  190.0950  176.1280  142.8660 C   0  0  0  0  0  3  0  0  0  0  0  0
  191.1140  175.7960  143.7630 C   0  0  0  0  0  3  0  0  0  0  0  0
  191.3780  178.1350  144.3290 C   0  0  0  0  0  3  0  0  0  0  0  0
  190.3590  178.4670  143.4320 C   0  0  0  0  0  3  0  0  0  0  0  0
  189.4830  177.0100  136.3040 O   0  0  0  0  0  0  0  0  0  0  0  0
  189.9800  175.7080  136.0360 C   0  0  0  0  0  1  0  0  0  0  0  0
  1 10  1  0  0  0  0
  2  6  1  0  0  0  0
  3 14  1  0  0  0  0
  6 16  2  0  0  0  0
  7  8  2  0  0  0  0
  7  9  1  0  0  0  0
  8 11  1  0  0  0  0
  9 12  2  0  0  0  0
 10  2  1  0  0  0  0
 10 21  1  0  0  0  0
 11  5  1  0  0  0  0
 11  4  2  0  0  0  0
 12  4  1  0  0  0  0
 12 16  1  0  0  0  0
 13  1  1  0  0  0  0
 14  9  1  0  0  0  0
 14  2  2  0  0  0  0
 15 19  1  0  0  0  0
 17 15  1  0  0  0  0
 17 18  2  0  0  0  0
 18 13  1  0  0  0  0
 19  3  1  0  0  0  0
 19  1  2  0  0  0  0
 21 22  2  0  0  0  0
 21 25  1  0  0  0  0
 22 23  1  0  0  0  0
 23 20  2  0  0  0  0
 24 20  1  0  0  0  0
 25 24  2  0  0  0  0
 26 17  1  0  0  0  0
 27 26  1  0  0  0  0
M  END
>  <MODEL>
8

>  <REMARK>
 VINA RESULT:      -8.3      2.458      6.621
  Name = 
  2 active torsions:
  status: ('A' for Active; 'I' for Inactive)
    1  A    between atoms: C_9  and  N_15
    2  A    between atoms: O_10  and  C_22
                            x       y       z     vdW  Elec       q    Type
                         _______ _______ _______ _____ _____    ______ ____

>  <TORSDO>
F 2

$$$$
=
 OpenBabel11052413483D

 27 31  0  0  0  0  0  0  0  0999 V2000
  188.2710  177.9610  140.1210 C   0  0  0  0  0  0  0  0  0  0  0  0
  189.4110  177.3760  142.2550 C   0  0  0  0  0  0  0  0  0  0  0  0
  187.1270  178.1620  142.2090 O   0  0  0  0  0  0  0  0  0  0  0  0
  189.3230  176.9800  146.3890 C   0  0  0  0  0  3  0  0  0  0  0  0
  188.1590  177.1740  148.4940 O   0  0  0  0  0  1  0  0  0  0  0  0
  190.4840  176.9180  142.9600 N   0  0  0  0  0  0  0  0  0  0  0  0
  187.0420  177.9170  145.0540 C   0  0  0  0  0  3  0  0  0  0  0  0
  187.0340  177.7780  146.4460 C   0  0  0  0  0  3  0  0  0  0  0  0
  188.1920  177.5880  144.3250 C   0  0  0  0  0  0  0  0  0  0  0  0
  189.4520  177.4940  140.8180 N   0  0  0  0  0  0  0  0  0  0  0  0
  188.1720  177.3100  147.1120 C   0  0  0  0  0  0  0  0  0  0  0  0
  189.3360  177.1170  144.9990 C   0  0  0  0  0  0  0  0  0  0  0  0
  188.2860  178.2020  138.6310 C   0  0  0  0  0  2  0  0  0  0  0  0
  188.2350  177.7130  142.9350 C   0  0  0  0  0  0  0  0  0  0  0  0
  185.9420  178.8100  140.1050 C   0  0  0  0  0  2  0  0  0  0  0  0
  190.4480  176.7950  144.2890 N   0  0  0  0  0  0  0  0  0  0  0  0
  185.8670  178.2770  138.6940 C   0  0  0  0  0  0  0  0  0  0  0  0
  186.9590  177.9890  138.0510 N   0  0  0  0  0  0  0  0  0  0  0  0
  187.1600  178.2840  140.8150 C   0  0  0  0  0  0  0  0  0  0  0  0
  192.9600  176.4450  138.6700 C   0  0  0  0  0  3  0  0  0  0  0  0
  190.6420  177.1350  140.0930 C   0  0  0  0  0  0  0  0  0  0  0  0
  190.5670  176.2690  138.9920 C   0  0  0  0  0  3  0  0  0  0  0  0
  191.7220  175.9250  138.2840 C   0  0  0  0  0  3  0  0  0  0  0  0
  193.0440  177.3100  139.7650 C   0  0  0  0  0  3  0  0  0  0  0  0
  191.8890  177.6540  140.4740 C   0  0  0  0  0  3  0  0  0  0  0  0
  184.6370  178.0880  138.0600 O   0  0  0  0  0  0  0  0  0  0  0  0
  184.4500  177.1180  137.0410 C   0  0  0  0  0  1  0  0  0  0  0  0
  1 19  2  0  0  0  0
  1 10  1  0  0  0  0
  2 14  2  0  0  0  0
  2  6  1  0  0  0  0
  3 14  1  0  0  0  0
  4 11  1  0  0  0  0
  6 16  2  0  0  0  0
  7  8  1  0  0  0  0
  8 11  2  0  0  0  0
  9 12  1  0  0  0  0
  9  7  2  0  0  0  0
 10  2  1  0  0  0  0
 11  5  1  0  0  0  0
 12  4  2  0  0  0  0
 13  1  1  0  0  0  0
 14  9  1  0  0  0  0
 15 19  1  0  0  0  0
 16 12  1  0  0  0  0
 17 15  1  0  0  0  0
 18 13  1  0  0  0  0
 18 17  2  0  0  0  0
 19  3  1  0  0  0  0
 20 24  1  0  0  0  0
 21 25  1  0  0  0  0
 21 10  1  0  0  0  0
 22 21  2  0  0  0  0
 23 20  2  0  0  0  0
 23 22  1  0  0  0  0
 24 25  2  0  0  0  0
 26 17  1  0  0  0  0
 27 26  1  0  0  0  0
M  END
>  <MODEL>
9

>  <REMARK>
 VINA RESULT:      -8.1      2.467      3.174
  Name = 
  2 active torsions:
  status: ('A' for Active; 'I' for Inactive)
    1  A    between atoms: C_9  and  N_15
    2  A    between atoms: O_10  and  C_22
                            x       y       z     vdW  Elec       q    Type
                         _______ _______ _______ _____ _____    ______ ____

>  <TORSDO>
F 2

$$$$
