=
 OpenBabel11052412303D

 30 34  0  0  1  0  0  0  0  0999 V2000
  186.6700  179.0950  141.1310 N   0  0  0  0  0  2  0  0  0  0  0  0
  188.6870  177.6860  141.1000 C   0  0  0  0  0  0  0  0  0  0  0  0
  185.6940  177.6740  145.1140 C   0  0  0  0  0  2  0  0  0  0  0  0
  185.3060  179.3300  141.6010 C   0  0  2  0  0  3  0  0  0  0  0  0
  184.7410  178.5910  145.8730 C   0  0  0  0  0  2  0  0  0  0  0  0
  189.4960  176.7240  141.7090 C   0  0  0  0  0  3  0  0  0  0  0  0
  189.1380  178.3080  139.5210 Cl  0  0  0  0  0  0  0  0  0  0  0  0
  185.9810  178.1490  143.7060 C   0  0  0  0  0  0  0  0  0  0  0  0
  189.1550  176.2090  142.9610 C   0  0  0  0  0  3  0  0  0  0  0  0
  187.5220  178.1270  141.7450 C   0  0  0  0  0  0  0  0  0  0  0  0
  185.1270  178.9830  143.0600 C   0  0  0  0  0  0  0  0  0  0  0  0
  183.5250  178.8660  145.0080 C   0  0  0  0  0  2  0  0  0  0  0  0
  183.9650  179.6330  143.7690 C   0  0  0  0  0  2  0  0  0  0  0  0
  188.0030  176.6580  143.6110 C   0  0  0  0  0  3  0  0  0  0  0  0
  187.1770  177.6190  143.0090 C   0  0  0  0  0  0  0  0  0  0  0  0
  184.2730  178.5900  140.7360 C   0  0  2  0  0  3  0  0  0  0  0  0
  183.0360  180.1450  138.8390 S   0  0  0  0  0  0  0  0  0  0  0  0
  184.1610  179.0490  139.3070 C   0  0  0  0  0  0  0  0  0  0  0  0
  185.9160  177.4650  137.8060 C   0  0  0  0  0  0  0  0  0  0  0  0
  186.3470  178.7030  137.7420 O   0  0  0  0  0  0  0  0  0  0  0  0
  185.1210  178.5980  138.3570 N   0  0  0  0  0  0  0  0  0  0  0  0
  184.7990  176.8720  136.9210 C   0  0  0  0  0  2  0  0  0  0  0  0
  186.0740  177.1800  136.2980 C   0  0  0  0  0  2  0  0  0  0  0  0
  182.1530  179.4050  141.5480 O   0  0  0  0  0  1  0  0  0  0  0  0
  182.9400  178.2590  141.4190 C   0  0  1  0  0  3  0  0  0  0  0  0
  182.1540  177.0980  140.7940 C   0  0  0  0  0  2  0  0  0  0  0  0
  180.7540  177.4800  140.3240 C   0  0  0  0  0  2  0  0  0  0  0  0
  179.2750  175.7110  141.2800 O   0  0  0  0  0  0  0  0  0  0  0  0
  179.7190  177.0260  141.2970 C   0  0  0  0  0  0  0  0  0  0  0  0
  179.2440  177.8390  142.1320 O   0  0  0  0  0  1  0  0  0  0  0  0
  1  4  1  0  0  0  0
  1 10  1  0  0  0  0
  2  6  2  0  0  0  0
  2 10  1  0  0  0  0
  3  5  1  0  0  0  0
  4 16  1  6  0  0  0
  4 11  1  0  0  0  0
  6  9  1  0  0  0  0
  7  2  1  0  0  0  0
  8  3  1  0  0  0  0
  9 14  2  0  0  0  0
 10 15  2  0  0  0  0
 11  8  2  0  0  0  0
 11 13  1  0  0  0  0
 12  5  1  0  0  0  0
 13 12  1  0  0  0  0
 15 14  1  0  0  0  0
 15  8  1  0  0  0  0
 16 18  1  6  0  0  0
 16 25  1  0  0  0  0
 17 18  2  0  0  0  0
 19 21  1  0  0  0  0
 20 19  1  0  0  0  0
 20 21  1  0  0  0  0
 21 18  1  0  0  0  0
 22 19  1  0  0  0  0
 23 22  1  0  0  0  0
 23 19  1  0  0  0  0
 25 24  1  6  0  0  0
 26 25  1  0  0  0  0
 27 26  1  0  0  0  0
 27 29  1  0  0  0  0
 28 29  2  0  0  0  0
 29 30  1  0  0  0  0
M  END
>  <MODEL>
1

>  <REMARK>
 VINA RESULT:      -7.8      0.000      0.000
  Name = 
  7 active torsions:
  status: ('A' for Active; 'I' for Inactive)
    1  A    between atoms: C_4  and  C_13
    2  A    between atoms: C_7  and  C_15
    3  A    between atoms: C_7  and  C_16
    4  A    between atoms: C_8  and  N_12
    5  A    between atoms: C_8  and  C_13
    6  A    between atoms: C_13  and  C_30
    7  A    between atoms: C_16  and  C_30
                            x       y       z     vdW  Elec       q    Type
                         _______ _______ _______ _____ _____    ______ ____

>  <TORSDO>
F 7

$$$$
=
 OpenBabel11052412303D

 30 34  0  0  1  0  0  0  0  0999 V2000
  186.0290  179.1470  141.5660 N   0  0  0  0  0  2  0  0  0  0  0  0
  188.0170  177.8850  140.8520 C   0  0  0  0  0  0  0  0  0  0  0  0
  186.3990  177.5320  145.5780 C   0  0  0  0  0  2  0  0  0  0  0  0
  184.8630  179.2700  142.4380 C   0  0  2  0  0  3  0  0  0  0  0  0
  185.6730  178.3550  146.6360 C   0  0  0  0  0  2  0  0  0  0  0  0
  189.0270  176.9630  141.1360 C   0  0  0  0  0  3  0  0  0  0  0  0
  187.9280  178.5870  139.2460 Cl  0  0  0  0  0  0  0  0  0  0  0  0
  186.2140  178.0710  144.1760 C   0  0  0  0  0  0  0  0  0  0  0  0
  189.1150  176.3850  142.4050 C   0  0  0  0  0  3  0  0  0  0  0  0
  187.0810  178.2210  141.8420 C   0  0  0  0  0  0  0  0  0  0  0  0
  185.1580  178.8640  143.8630 C   0  0  0  0  0  0  0  0  0  0  0  0
  184.2370  178.5710  146.1950 C   0  0  0  0  0  2  0  0  0  0  0  0
  184.2330  179.4070  144.9230 C   0  0  0  0  0  2  0  0  0  0  0  0
  188.1930  176.7310  143.3950 C   0  0  0  0  0  3  0  0  0  0  0  0
  187.1690  177.6500  143.1220 C   0  0  0  0  0  0  0  0  0  0  0  0
  183.6590  178.4870  141.8900 C   0  0  2  0  0  3  0  0  0  0  0  0
  183.6400  176.9650  139.6030 S   0  0  0  0  0  0  0  0  0  0  0  0
  183.5590  178.4000  140.3900 C   0  0  0  0  0  0  0  0  0  0  0  0
  182.5710  180.2170  138.5000 C   0  0  0  0  0  0  0  0  0  0  0  0
  183.7100  180.6920  138.9500 O   0  0  0  0  0  0  0  0  0  0  0  0
  183.2860  179.5810  139.6440 N   0  0  0  0  0  0  0  0  0  0  0  0
  181.2080  180.3780  139.2060 C   0  0  0  0  0  2  0  0  0  0  0  0
  181.8080  181.5530  138.6010 C   0  0  0  0  0  2  0  0  0  0  0  0
  182.0800  180.0690  142.7970 O   0  0  0  0  0  1  0  0  0  0  0  0
  182.3270  178.7060  142.6190 C   0  0  1  0  0  3  0  0  0  0  0  0
  181.1180  177.9850  142.0060 C   0  0  0  0  0  2  0  0  0  0  0  0
  179.7770  178.6320  142.3370 C   0  0  0  0  0  2  0  0  0  0  0  0
  178.9450  179.5830  144.4890 O   0  0  0  0  0  1  0  0  0  0  0  0
  179.4620  178.5020  143.7880 C   0  0  0  0  0  0  0  0  0  0  0  0
  179.6690  177.4110  144.3790 O   0  0  0  0  0  0  0  0  0  0  0  0
  1 10  1  0  0  0  0
  1  4  1  0  0  0  0
  2  6  2  0  0  0  0
  2 10  1  0  0  0  0
  3  5  1  0  0  0  0
  4 16  1  6  0  0  0
  4 11  1  0  0  0  0
  6  9  1  0  0  0  0
  7  2  1  0  0  0  0
  8  3  1  0  0  0  0
  9 14  2  0  0  0  0
 10 15  2  0  0  0  0
 11  8  2  0  0  0  0
 11 13  1  0  0  0  0
 12  5  1  0  0  0  0
 13 12  1  0  0  0  0
 15 14  1  0  0  0  0
 15  8  1  0  0  0  0
 16 18  1  6  0  0  0
 16 25  1  0  0  0  0
 17 18  2  0  0  0  0
 19 23  1  0  0  0  0
 19 20  1  0  0  0  0
 19 22  1  0  0  0  0
 19 21  1  0  0  0  0
 20 21  1  0  0  0  0
 21 18  1  0  0  0  0
 23 22  1  0  0  0  0
 25 24  1  6  0  0  0
 26 27  1  0  0  0  0
 26 25  1  0  0  0  0
 27 29  1  0  0  0  0
 29 30  2  0  0  0  0
 29 28  1  0  0  0  0
M  END
>  <MODEL>
2

>  <REMARK>
 VINA RESULT:      -7.7      2.045      2.516
  Name = 
  7 active torsions:
  status: ('A' for Active; 'I' for Inactive)
    1  A    between atoms: C_4  and  C_13
    2  A    between atoms: C_7  and  C_15
    3  A    between atoms: C_7  and  C_16
    4  A    between atoms: C_8  and  N_12
    5  A    between atoms: C_8  and  C_13
    6  A    between atoms: C_13  and  C_30
    7  A    between atoms: C_16  and  C_30
                            x       y       z     vdW  Elec       q    Type
                         _______ _______ _______ _____ _____    ______ ____

>  <TORSDO>
F 7

$$$$
=
 OpenBabel11052412303D

 30 34  0  0  1  0  0  0  0  0999 V2000
  186.3400  177.1160  143.1860 N   0  0  0  0  0  2  0  0  0  0  0  0
  184.1960  178.1940  142.6490 C   0  0  0  0  0  0  0  0  0  0  0  0
  186.2460  178.8320  147.1720 C   0  0  0  0  0  2  0  0  0  0  0  0
  187.5950  177.1150  143.9370 C   0  0  2  0  0  3  0  0  0  0  0  0
  187.1390  178.1040  148.1710 C   0  0  0  0  0  2  0  0  0  0  0  0
  183.1470  179.0440  143.0110 C   0  0  0  0  0  3  0  0  0  0  0  0
  184.1790  177.4480  141.0600 Cl  0  0  0  0  0  0  0  0  0  0  0  0
  186.3320  178.2610  145.7730 C   0  0  0  0  0  0  0  0  0  0  0  0
  183.1410  179.6560  144.2660 C   0  0  0  0  0  3  0  0  0  0  0  0
  185.2500  177.9660  143.5450 C   0  0  0  0  0  0  0  0  0  0  0  0
  187.4120  177.5440  145.3740 C   0  0  0  0  0  0  0  0  0  0  0  0
  188.5360  177.9860  147.5910 C   0  0  0  0  0  2  0  0  0  0  0  0
  188.4800  177.1100  146.3470 C   0  0  0  0  0  2  0  0  0  0  0  0
  184.1830  179.4170  145.1660 C   0  0  0  0  0  3  0  0  0  0  0  0
  185.2450  178.5720  144.8120 C   0  0  0  0  0  0  0  0  0  0  0  0
  188.6700  177.9690  143.2480 C   0  0  2  0  0  3  0  0  0  0  0  0
  187.5160  179.0590  141.0060 S   0  0  0  0  0  0  0  0  0  0  0  0
  188.5790  178.0570  141.7470 C   0  0  0  0  0  0  0  0  0  0  0  0
  189.7690  176.5490  139.7080 C   0  0  0  0  0  0  0  0  0  0  0  0
  190.4520  176.3370  140.8090 O   0  0  0  0  0  0  0  0  0  0  0  0
  189.5080  177.3280  140.9530 N   0  0  0  0  0  0  0  0  0  0  0  0
  189.9580  177.7620  138.7720 C   0  0  0  0  0  2  0  0  0  0  0  0
  191.0050  176.7570  138.8090 C   0  0  0  0  0  2  0  0  0  0  0  0
  190.3940  178.9090  144.6480 O   0  0  0  0  0  1  0  0  0  0  0  0
  190.0930  177.8380  143.8060 C   0  0  1  0  0  3  0  0  0  0  0  0
  190.4150  176.4890  144.4650 C   0  0  0  0  0  2  0  0  0  0  0  0
  191.8890  176.3070  144.8150 C   0  0  0  0  0  2  0  0  0  0  0  0
  191.8140  177.0270  147.2040 O   0  0  0  0  0  1  0  0  0  0  0  0
  192.0650  176.0320  146.2690 C   0  0  0  0  0  0  0  0  0  0  0  0
  192.4450  174.8940  146.6500 O   0  0  0  0  0  0  0  0  0  0  0  0
  1 10  1  0  0  0  0
  1  4  1  0  0  0  0
  2  6  2  0  0  0  0
  2 10  1  0  0  0  0
  3  5  1  0  0  0  0
  4 16  1  6  0  0  0
  4 11  1  0  0  0  0
  6  9  1  0  0  0  0
  7  2  1  0  0  0  0
  8  3  1  0  0  0  0
  9 14  2  0  0  0  0
 10 15  2  0  0  0  0
 11  8  2  0  0  0  0
 11 13  1  0  0  0  0
 12  5  1  0  0  0  0
 13 12  1  0  0  0  0
 15 14  1  0  0  0  0
 15  8  1  0  0  0  0
 16 18  1  6  0  0  0
 16 25  1  0  0  0  0
 17 18  2  0  0  0  0
 19 20  1  0  0  0  0
 19 21  1  0  0  0  0
 20 21  1  0  0  0  0
 21 18  1  0  0  0  0
 22 23  1  0  0  0  0
 22 19  1  0  0  0  0
 23 19  1  0  0  0  0
 25 26  1  0  0  0  0
 25 24  1  1  0  0  0
 26 27  1  0  0  0  0
 27 29  1  0  0  0  0
 29 30  2  0  0  0  0
 29 28  1  0  0  0  0
M  END
>  <MODEL>
3

>  <REMARK>
 VINA RESULT:      -7.7      4.488      6.999
  Name = 
  7 active torsions:
  status: ('A' for Active; 'I' for Inactive)
    1  A    between atoms: C_4  and  C_13
    2  A    between atoms: C_7  and  C_15
    3  A    between atoms: C_7  and  C_16
    4  A    between atoms: C_8  and  N_12
    5  A    between atoms: C_8  and  C_13
    6  A    between atoms: C_13  and  C_30
    7  A    between atoms: C_16  and  C_30
                            x       y       z     vdW  Elec       q    Type
                         _______ _______ _______ _____ _____    ______ ____

>  <TORSDO>
F 7

$$$$
=
 OpenBabel11052412303D

 30 34  0  0  1  0  0  0  0  0999 V2000
  186.2090  179.0820  140.9920 N   0  0  0  0  0  2  0  0  0  0  0  0
  188.2860  177.7750  140.8170 C   0  0  0  0  0  0  0  0  0  0  0  0
  185.7150  177.8160  145.1140 C   0  0  0  0  0  2  0  0  0  0  0  0
  184.8880  179.2720  141.5880 C   0  0  2  0  0  3  0  0  0  0  0  0
  184.7940  178.7220  145.9250 C   0  0  0  0  0  2  0  0  0  0  0  0
  189.2030  176.8860  141.3830 C   0  0  0  0  0  3  0  0  0  0  0  0
  188.5420  178.3380  139.1740 Cl  0  0  0  0  0  0  0  0  0  0  0  0
  185.8330  178.2340  143.6640 C   0  0  0  0  0  0  0  0  0  0  0  0
  189.0170  176.4190  142.6850 C   0  0  0  0  0  3  0  0  0  0  0  0
  187.1690  178.1890  141.5580 C   0  0  0  0  0  0  0  0  0  0  0  0
  184.8750  178.9910  143.0720 C   0  0  0  0  0  0  0  0  0  0  0  0
  183.4850  178.8920  145.1770 C   0  0  0  0  0  2  0  0  0  0  0  0
  183.7560  179.6170  143.8670 C   0  0  0  0  0  2  0  0  0  0  0  0
  187.9140  176.8420  143.4290 C   0  0  0  0  0  3  0  0  0  0  0  0
  186.9810  177.7290  142.8720 C   0  0  0  0  0  0  0  0  0  0  0  0
  183.8150  178.4400  140.8680 C   0  0  2  0  0  3  0  0  0  0  0  0
  185.0980  178.9010  138.4840 S   0  0  0  0  0  0  0  0  0  0  0  0
  184.1550  177.9950  139.4710 C   0  0  0  0  0  0  0  0  0  0  0  0
  183.2530  175.8530  137.9080 C   0  0  0  0  0  0  0  0  0  0  0  0
  182.9300  175.5980  139.1540 O   0  0  0  0  0  0  0  0  0  0  0  0
  183.7310  176.7100  139.0300 N   0  0  0  0  0  0  0  0  0  0  0  0
  184.6380  175.5830  137.2820 C   0  0  0  0  0  2  0  0  0  0  0  0
  183.8020  174.4420  137.6110 C   0  0  0  0  0  2  0  0  0  0  0  0
  181.8680  179.4960  139.9130 O   0  0  0  0  0  1  0  0  0  0  0  0
  182.3640  178.8950  141.0710 C   0  0  1  0  0  3  0  0  0  0  0  0
  181.4090  177.8180  141.6060 C   0  0  0  0  0  2  0  0  0  0  0  0
  180.0150  178.3390  141.9430 C   0  0  0  0  0  2  0  0  0  0  0  0
  180.0600  180.6170  142.9600 O   0  0  0  0  0  0  0  0  0  0  0  0
  180.0510  179.2390  143.1300 C   0  0  0  0  0  0  0  0  0  0  0  0
  180.0760  178.7490  144.2880 O   0  0  0  0  0  1  0  0  0  0  0  0
  1 10  1  0  0  0  0
  1  4  1  0  0  0  0
  2  6  2  0  0  0  0
  2 10  1  0  0  0  0
  3  5  1  0  0  0  0
  4 16  1  6  0  0  0
  4 11  1  0  0  0  0
  6  9  1  0  0  0  0
  7  2  1  0  0  0  0
  8  3  1  0  0  0  0
  9 14  2  0  0  0  0
 10 15  2  0  0  0  0
 11  8  2  0  0  0  0
 11 13  1  0  0  0  0
 12  5  1  0  0  0  0
 13 12  1  0  0  0  0
 15 14  1  0  0  0  0
 15  8  1  0  0  0  0
 16 18  1  6  0  0  0
 16 25  1  0  0  0  0
 17 18  2  0  0  0  0
 19 21  1  0  0  0  0
 19 20  1  0  0  0  0
 21 20  1  0  0  0  0
 21 18  1  0  0  0  0
 22 23  1  0  0  0  0
 22 19  1  0  0  0  0
 23 19  1  0  0  0  0
 25 24  1  6  0  0  0
 25 26  1  0  0  0  0
 26 27  1  0  0  0  0
 27 29  1  0  0  0  0
 28 29  2  0  0  0  0
 29 30  1  0  0  0  0
M  END
>  <MODEL>
4

>  <REMARK>
 VINA RESULT:      -7.5      1.686      1.965
  Name = 
  7 active torsions:
  status: ('A' for Active; 'I' for Inactive)
    1  A    between atoms: C_4  and  C_13
    2  A    between atoms: C_7  and  C_15
    3  A    between atoms: C_7  and  C_16
    4  A    between atoms: C_8  and  N_12
    5  A    between atoms: C_8  and  C_13
    6  A    between atoms: C_13  and  C_30
    7  A    between atoms: C_16  and  C_30
                            x       y       z     vdW  Elec       q    Type
                         _______ _______ _______ _____ _____    ______ ____

>  <TORSDO>
F 7

$$$$
=
 OpenBabel11052412303D

 30 34  0  0  1  0  0  0  0  0999 V2000
  187.2620  176.9090  143.2340 N   0  0  0  0  0  2  0  0  0  0  0  0
  185.2940  178.1900  143.9650 C   0  0  0  0  0  0  0  0  0  0  0  0
  189.2400  177.7230  147.0110 C   0  0  0  0  0  2  0  0  0  0  0  0
  188.7050  176.6780  143.2890 C   0  0  2  0  0  3  0  0  0  0  0  0
  190.3690  176.7500  147.3310 C   0  0  0  0  0  2  0  0  0  0  0  0
  184.6620  178.9950  144.9170 C   0  0  0  0  0  3  0  0  0  0  0  0
  184.4490  177.8070  142.4740 Cl  0  0  0  0  0  0  0  0  0  0  0  0
  188.5970  177.4650  145.6660 C   0  0  0  0  0  0  0  0  0  0  0  0
  185.3160  179.3200  146.1070 C   0  0  0  0  0  3  0  0  0  0  0  0
  186.5930  177.7170  144.2020 C   0  0  0  0  0  0  0  0  0  0  0  0
  189.2590  176.7950  144.6890 C   0  0  0  0  0  0  0  0  0  0  0  0
  191.3170  176.6870  146.1480 C   0  0  0  0  0  2  0  0  0  0  0  0
  190.5740  176.1050  144.9530 C   0  0  0  0  0  2  0  0  0  0  0  0
  186.6040  178.8370  146.3510 C   0  0  0  0  0  3  0  0  0  0  0  0
  187.2520  178.0330  145.4010 C   0  0  0  0  0  0  0  0  0  0  0  0
  189.4650  177.6040  142.3250 C   0  0  2  0  0  3  0  0  0  0  0  0
  187.7690  179.6050  141.5100 S   0  0  0  0  0  0  0  0  0  0  0  0
  188.6410  178.2440  141.2400 C   0  0  0  0  0  0  0  0  0  0  0  0
  188.1940  177.7540  138.5190 C   0  0  0  0  0  0  0  0  0  0  0  0
  188.6640  176.6490  139.0490 O   0  0  0  0  0  0  0  0  0  0  0  0
  188.6990  177.7130  139.9210 N   0  0  0  0  0  0  0  0  0  0  0  0
  189.0570  178.9450  138.0500 C   0  0  0  0  0  2  0  0  0  0  0  0
  189.1080  177.7170  137.2770 C   0  0  0  0  0  2  0  0  0  0  0  0
  190.8680  175.7380  141.7190 O   0  0  0  0  0  1  0  0  0  0  0  0
  190.8550  177.1240  141.8880 C   0  0  1  0  0  3  0  0  0  0  0  0
  191.4470  177.8510  140.6730 C   0  0  0  0  0  2  0  0  0  0  0  0
  192.7970  177.3040  140.2210 C   0  0  0  0  0  2  0  0  0  0  0  0
  191.7290  175.8350  138.5100 O   0  0  0  0  0  1  0  0  0  0  0  0
  192.7180  176.7520  138.8390 C   0  0  0  0  0  0  0  0  0  0  0  0
  193.5520  177.1160  137.9700 O   0  0  0  0  0  0  0  0  0  0  0  0
  1  4  1  0  0  0  0
  1 10  1  0  0  0  0
  2 10  2  0  0  0  0
  2  6  1  0  0  0  0
  3  5  1  0  0  0  0
  4 16  1  6  0  0  0
  4 11  1  0  0  0  0
  6  9  2  0  0  0  0
  7  2  1  0  0  0  0
  8  3  1  0  0  0  0
  9 14  1  0  0  0  0
 10 15  1  0  0  0  0
 11 13  1  0  0  0  0
 11  8  2  0  0  0  0
 12  5  1  0  0  0  0
 13 12  1  0  0  0  0
 15  8  1  0  0  0  0
 15 14  2  0  0  0  0
 16 18  1  6  0  0  0
 18 17  2  0  0  0  0
 19 20  1  0  0  0  0
 19 21  1  0  0  0  0
 20 21  1  0  0  0  0
 21 18  1  0  0  0  0
 22 19  1  0  0  0  0
 23 22  1  0  0  0  0
 23 19  1  0  0  0  0
 25 24  1  6  0  0  0
 25 16  1  0  0  0  0
 26 25  1  0  0  0  0
 27 26  1  0  0  0  0
 28 29  1  0  0  0  0
 29 27  1  0  0  0  0
 30 29  2  0  0  0  0
M  END
>  <MODEL>
5

>  <REMARK>
 VINA RESULT:      -7.2      4.219      7.056
  Name = 
  7 active torsions:
  status: ('A' for Active; 'I' for Inactive)
    1  A    between atoms: C_4  and  C_13
    2  A    between atoms: C_7  and  C_15
    3  A    between atoms: C_7  and  C_16
    4  A    between atoms: C_8  and  N_12
    5  A    between atoms: C_8  and  C_13
    6  A    between atoms: C_13  and  C_30
    7  A    between atoms: C_16  and  C_30
                            x       y       z     vdW  Elec       q    Type
                         _______ _______ _______ _____ _____    ______ ____

>  <TORSDO>
F 7

$$$$
=
 OpenBabel11052412303D

 30 34  0  0  1  0  0  0  0  0999 V2000
  187.1980  176.8730  144.5000 N   0  0  0  0  0  2  0  0  0  0  0  0
  186.4610  178.1030  146.4980 C   0  0  0  0  0  0  0  0  0  0  0  0
  191.2210  176.6000  146.1070 C   0  0  0  0  0  2  0  0  0  0  0  0
  188.2630  176.5160  143.5620 C   0  0  2  0  0  3  0  0  0  0  0  0
  192.0550  175.4880  145.4790 C   0  0  0  0  0  2  0  0  0  0  0  0
  186.7600  178.7090  147.7210 C   0  0  0  0  0  3  0  0  0  0  0  0
  184.8120  178.1560  145.8990 Cl  0  0  0  0  0  0  0  0  0  0  0  0
  189.8410  176.7230  145.4980 C   0  0  0  0  0  0  0  0  0  0  0  0
  188.0660  178.6860  148.2160 C   0  0  0  0  0  3  0  0  0  0  0  0
  187.4800  177.4810  145.7610 C   0  0  0  0  0  0  0  0  0  0  0  0
  189.5800  176.2510  144.2530 C   0  0  0  0  0  0  0  0  0  0  0  0
  192.0100  175.6290  143.9690 C   0  0  0  0  0  2  0  0  0  0  0  0
  190.5790  175.4120  143.4970 C   0  0  0  0  0  2  0  0  0  0  0  0
  189.0780  178.0540  147.4900 C   0  0  0  0  0  3  0  0  0  0  0  0
  188.7930  177.4480  146.2570 C   0  0  0  0  0  0  0  0  0  0  0  0
  188.4300  177.5780  142.4630 C   0  0  2  0  0  3  0  0  0  0  0  0
  190.4590  179.1560  143.4300 S   0  0  0  0  0  0  0  0  0  0  0  0
  189.8130  178.1520  142.3080 C   0  0  0  0  0  0  0  0  0  0  0  0
  190.8570  176.7410  140.1250 C   0  0  0  0  0  0  0  0  0  0  0  0
  191.8420  177.4170  140.6680 O   0  0  0  0  0  0  0  0  0  0  0  0
  190.6180  177.7340  141.2110 N   0  0  0  0  0  0  0  0  0  0  0  0
  189.8360  177.3220  139.1220 C   0  0  0  0  0  2  0  0  0  0  0  0
  191.2030  177.1260  138.6720 C   0  0  0  0  0  2  0  0  0  0  0  0
  187.4950  179.4300  141.2330 O   0  0  0  0  0  1  0  0  0  0  0  0
  187.2860  178.5910  142.3290 C   0  0  1  0  0  3  0  0  0  0  0  0
  185.8750  177.9880  142.3210 C   0  0  0  0  0  2  0  0  0  0  0  0
  184.7690  179.0030  142.0500 C   0  0  0  0  0  2  0  0  0  0  0  0
  183.4550  177.8050  140.2990 O   0  0  0  0  0  1  0  0  0  0  0  0
  184.2570  178.8810  140.6560 C   0  0  0  0  0  0  0  0  0  0  0  0
  184.5560  179.7530  139.8000 O   0  0  0  0  0  0  0  0  0  0  0  0
  1 10  1  0  0  0  0
  2  6  1  0  0  0  0
  4 16  1  6  0  0  0
  4 11  1  0  0  0  0
  4  1  1  0  0  0  0
  5  3  1  0  0  0  0
  6  9  2  0  0  0  0
  7  2  1  0  0  0  0
  8  3  1  0  0  0  0
  8 15  1  0  0  0  0
 10 15  1  0  0  0  0
 10  2  2  0  0  0  0
 11  8  2  0  0  0  0
 12  5  1  0  0  0  0
 13 12  1  0  0  0  0
 13 11  1  0  0  0  0
 14  9  1  0  0  0  0
 15 14  2  0  0  0  0
 16 18  1  1  0  0  0
 18 17  2  0  0  0  0
 19 20  1  0  0  0  0
 19 21  1  0  0  0  0
 20 21  1  0  0  0  0
 21 18  1  0  0  0  0
 22 19  1  0  0  0  0
 23 22  1  0  0  0  0
 23 19  1  0  0  0  0
 25 24  1  6  0  0  0
 25 16  1  0  0  0  0
 26 25  1  0  0  0  0
 27 26  1  0  0  0  0
 28 29  1  0  0  0  0
 29 27  1  0  0  0  0
 30 29  2  0  0  0  0
M  END
>  <MODEL>
6

>  <REMARK>
 VINA RESULT:      -7.2      3.591      5.874
  Name = 
  7 active torsions:
  status: ('A' for Active; 'I' for Inactive)
    1  A    between atoms: C_4  and  C_13
    2  A    between atoms: C_7  and  C_15
    3  A    between atoms: C_7  and  C_16
    4  A    between atoms: C_8  and  N_12
    5  A    between atoms: C_8  and  C_13
    6  A    between atoms: C_13  and  C_30
    7  A    between atoms: C_16  and  C_30
                            x       y       z     vdW  Elec       q    Type
                         _______ _______ _______ _____ _____    ______ ____

>  <TORSDO>
F 7

$$$$
=
 OpenBabel11052412303D

 30 34  0  0  1  0  0  0  0  0999 V2000
  186.4590  177.3310  144.4820 N   0  0  0  0  0  2  0  0  0  0  0  0
  186.3690  177.9530  146.8600 C   0  0  0  0  0  0  0  0  0  0  0  0
  190.7820  176.9970  144.6950 C   0  0  0  0  0  2  0  0  0  0  0  0
  187.1850  177.3110  143.2130 C   0  0  2  0  0  3  0  0  0  0  0  0
  191.3850  176.1520  143.5780 C   0  0  0  0  0  2  0  0  0  0  0  0
  187.0280  178.2550  148.0550 C   0  0  0  0  0  3  0  0  0  0  0  0
  184.6160  178.0180  146.8120 Cl  0  0  0  0  0  0  0  0  0  0  0  0
  189.2820  177.1550  144.5770 C   0  0  0  0  0  0  0  0  0  0  0  0
  188.4220  178.2170  148.1170 C   0  0  0  0  0  3  0  0  0  0  0  0
  187.1130  177.6230  145.7180 C   0  0  0  0  0  0  0  0  0  0  0  0
  188.6510  176.9910  143.3870 C   0  0  0  0  0  0  0  0  0  0  0  0
  190.8780  176.6640  142.2430 C   0  0  0  0  0  2  0  0  0  0  0  0
  189.3710  176.4540  142.1750 C   0  0  0  0  0  2  0  0  0  0  0  0
  189.1640  177.8730  146.9840 C   0  0  0  0  0  3  0  0  0  0  0  0
  188.5160  177.5750  145.7760 C   0  0  0  0  0  0  0  0  0  0  0  0
  187.0050  178.6250  142.4360 C   0  0  2  0  0  3  0  0  0  0  0  0
  184.8310  179.7300  143.7000 S   0  0  0  0  0  0  0  0  0  0  0  0
  185.6000  179.1630  142.3690 C   0  0  0  0  0  0  0  0  0  0  0  0
  184.3190  178.5870  139.9450 C   0  0  0  0  0  0  0  0  0  0  0  0
  184.9230  179.7440  139.8100 O   0  0  0  0  0  0  0  0  0  0  0  0
  184.9600  179.2740  141.1020 N   0  0  0  0  0  0  0  0  0  0  0  0
  182.9350  178.3850  140.5990 C   0  0  0  0  0  2  0  0  0  0  0  0
  182.9910  179.0410  139.3050 C   0  0  0  0  0  2  0  0  0  0  0  0
  189.1080  179.2020  141.4050 O   0  0  0  0  0  1  0  0  0  0  0  0
  187.8130  178.7540  141.1380 C   0  0  1  0  0  3  0  0  0  0  0  0
  187.8160  177.5080  140.2420 C   0  0  0  0  0  2  0  0  0  0  0  0
  187.7310  177.8160  138.7510 C   0  0  0  0  0  2  0  0  0  0  0  0
  190.1960  177.6300  138.4090 O   0  0  0  0  0  1  0  0  0  0  0  0
  189.0240  178.3540  138.2390 C   0  0  0  0  0  0  0  0  0  0  0  0
  189.0520  179.4680  137.6560 O   0  0  0  0  0  0  0  0  0  0  0  0
  1 10  1  0  0  0  0
  2  6  1  0  0  0  0
  4 16  1  1  0  0  0
  4 11  1  0  0  0  0
  4  1  1  0  0  0  0
  5  3  1  0  0  0  0
  6  9  2  0  0  0  0
  7  2  1  0  0  0  0
  8  3  1  0  0  0  0
  8 15  1  0  0  0  0
 10 15  1  0  0  0  0
 10  2  2  0  0  0  0
 11  8  2  0  0  0  0
 12  5  1  0  0  0  0
 13 12  1  0  0  0  0
 13 11  1  0  0  0  0
 14  9  1  0  0  0  0
 15 14  2  0  0  0  0
 16 18  1  6  0  0  0
 18 17  2  0  0  0  0
 19 22  1  0  0  0  0
 19 21  1  0  0  0  0
 20 19  1  0  0  0  0
 20 21  1  0  0  0  0
 21 18  1  0  0  0  0
 23 19  1  0  0  0  0
 23 22  1  0  0  0  0
 25 24  1  1  0  0  0
 25 16  1  0  0  0  0
 26 25  1  0  0  0  0
 27 26  1  0  0  0  0
 29 28  1  0  0  0  0
 29 27  1  0  0  0  0
 30 29  2  0  0  0  0
M  END
>  <MODEL>
7

>  <REMARK>
 VINA RESULT:      -7.1      3.165      6.039
  Name = 
  7 active torsions:
  status: ('A' for Active; 'I' for Inactive)
    1  A    between atoms: C_4  and  C_13
    2  A    between atoms: C_7  and  C_15
    3  A    between atoms: C_7  and  C_16
    4  A    between atoms: C_8  and  N_12
    5  A    between atoms: C_8  and  C_13
    6  A    between atoms: C_13  and  C_30
    7  A    between atoms: C_16  and  C_30
                            x       y       z     vdW  Elec       q    Type
                         _______ _______ _______ _____ _____    ______ ____

>  <TORSDO>
F 7

$$$$
=
 OpenBabel11052412303D

 30 34  0  0  1  0  0  0  0  0999 V2000
  189.0090  178.4580  140.5050 N   0  0  0  0  0  2  0  0  0  0  0  0
  190.7530  177.0840  141.5630 C   0  0  0  0  0  0  0  0  0  0  0  0
  186.2720  177.5470  143.7490 C   0  0  0  0  0  2  0  0  0  0  0  0
  187.5920  178.7330  140.2720 C   0  0  2  0  0  3  0  0  0  0  0  0
  185.1240  178.5420  143.8760 C   0  0  0  0  0  2  0  0  0  0  0  0
  191.1550  176.2180  142.5840 C   0  0  0  0  0  3  0  0  0  0  0  0
  191.8980  177.5030  140.3000 Cl  0  0  0  0  0  0  0  0  0  0  0  0
  187.1860  177.8410  142.5790 C   0  0  0  0  0  0  0  0  0  0  0  0
  190.2600  175.8640  143.5970 C   0  0  0  0  0  3  0  0  0  0  0  0
  189.4440  177.5880  141.5510 C   0  0  0  0  0  0  0  0  0  0  0  0
  186.7570  178.5740  141.5210 C   0  0  0  0  0  0  0  0  0  0  0  0
  184.4440  178.6860  142.5270 C   0  0  0  0  0  2  0  0  0  0  0  0
  185.4310  179.2940  141.5410 C   0  0  0  0  0  2  0  0  0  0  0  0
  188.9610  176.3780  143.5930 C   0  0  0  0  0  3  0  0  0  0  0  0
  188.5430  177.2420  142.5710 C   0  0  0  0  0  0  0  0  0  0  0  0
  187.0270  177.8740  139.1290 C   0  0  2  0  0  3  0  0  0  0  0  0
  188.6780  178.9080  137.1920 S   0  0  0  0  0  0  0  0  0  0  0  0
  187.9440  177.6570  137.9550 C   0  0  0  0  0  0  0  0  0  0  0  0
  189.0830  175.4260  136.7010 C   0  0  0  0  0  0  0  0  0  0  0  0
  187.8850  175.0810  137.1150 O   0  0  0  0  0  0  0  0  0  0  0  0
  188.2620  176.3270  137.5600 N   0  0  0  0  0  0  0  0  0  0  0  0
  190.3500  175.4410  137.5820 C   0  0  0  0  0  2  0  0  0  0  0  0
  189.7850  174.1540  137.2190 C   0  0  0  0  0  2  0  0  0  0  0  0
  185.3630  179.4330  138.3440 O   0  0  0  0  0  1  0  0  0  0  0  0
  185.5560  178.1180  138.7690 C   0  0  1  0  0  3  0  0  0  0  0  0
  184.9460  177.1080  137.7880 C   0  0  0  0  0  2  0  0  0  0  0  0
  183.4240  177.0240  137.8510 C   0  0  0  0  0  2  0  0  0  0  0  0
  181.9600  175.6280  139.3130 O   0  0  0  0  0  1  0  0  0  0  0  0
  182.9810  175.7000  138.3750 C   0  0  0  0  0  0  0  0  0  0  0  0
  183.5370  174.6470  137.9680 O   0  0  0  0  0  0  0  0  0  0  0  0
  1 10  1  0  0  0  0
  2  6  1  0  0  0  0
  3  5  1  0  0  0  0
  4 16  1  6  0  0  0
  4  1  1  0  0  0  0
  4 11  1  0  0  0  0
  6  9  2  0  0  0  0
  7  2  1  0  0  0  0
  8  3  1  0  0  0  0
 10  2  2  0  0  0  0
 10 15  1  0  0  0  0
 11 13  1  0  0  0  0
 11  8  2  0  0  0  0
 12  5  1  0  0  0  0
 13 12  1  0  0  0  0
 14  9  1  0  0  0  0
 15  8  1  0  0  0  0
 15 14  2  0  0  0  0
 16 18  1  6  0  0  0
 17 18  2  0  0  0  0
 19 20  1  0  0  0  0
 19 23  1  0  0  0  0
 19 21  1  0  0  0  0
 19 22  1  0  0  0  0
 20 21  1  0  0  0  0
 21 18  1  0  0  0  0
 23 22  1  0  0  0  0
 25 24  1  6  0  0  0
 25 16  1  0  0  0  0
 26 27  1  0  0  0  0
 26 25  1  0  0  0  0
 27 29  1  0  0  0  0
 29 28  1  0  0  0  0
 30 29  2  0  0  0  0
M  END
>  <MODEL>
8

>  <REMARK>
 VINA RESULT:      -7.0      2.650      3.560
  Name = 
  7 active torsions:
  status: ('A' for Active; 'I' for Inactive)
    1  A    between atoms: C_4  and  C_13
    2  A    between atoms: C_7  and  C_15
    3  A    between atoms: C_7  and  C_16
    4  A    between atoms: C_8  and  N_12
    5  A    between atoms: C_8  and  C_13
    6  A    between atoms: C_13  and  C_30
    7  A    between atoms: C_16  and  C_30
                            x       y       z     vdW  Elec       q    Type
                         _______ _______ _______ _____ _____    ______ ____

>  <TORSDO>
F 7

$$$$
=
 OpenBabel11052412303D

 30 34  0  0  1  0  0  0  0  0999 V2000
  189.0960  178.4100  140.4940 N   0  0  0  0  0  2  0  0  0  0  0  0
  190.7870  177.1310  141.7410 C   0  0  0  0  0  0  0  0  0  0  0  0
  186.1570  177.6090  143.5850 C   0  0  0  0  0  2  0  0  0  0  0  0
  187.6940  178.6420  140.1500 C   0  0  2  0  0  3  0  0  0  0  0  0
  184.9840  178.5830  143.5800 C   0  0  0  0  0  2  0  0  0  0  0  0
  191.1320  176.3280  142.8310 C   0  0  0  0  0  3  0  0  0  0  0  0
  192.0090  177.5090  140.5390 Cl  0  0  0  0  0  0  0  0  0  0  0  0
  187.1450  177.8620  142.4670 C   0  0  0  0  0  0  0  0  0  0  0  0
  190.1750  176.0070  143.7970 C   0  0  0  0  0  3  0  0  0  0  0  0
  189.4730  177.6050  141.6110 C   0  0  0  0  0  0  0  0  0  0  0  0
  186.7770  178.5300  141.3450 C   0  0  0  0  0  0  0  0  0  0  0  0
  184.3980  178.6440  142.1820 C   0  0  0  0  0  2  0  0  0  0  0  0
  185.4410  179.2210  141.2350 C   0  0  0  0  0  2  0  0  0  0  0  0
  188.8710  176.4910  143.6770 C   0  0  0  0  0  3  0  0  0  0  0  0
  188.5090  177.2920  142.5840 C   0  0  0  0  0  0  0  0  0  0  0  0
  187.2270  177.7140  139.0170 C   0  0  2  0  0  3  0  0  0  0  0  0
  189.0580  178.6890  137.2170 S   0  0  0  0  0  0  0  0  0  0  0  0
  188.2240  177.4650  137.9170 C   0  0  0  0  0  0  0  0  0  0  0  0
  189.3200  175.1990  136.6890 C   0  0  0  0  0  0  0  0  0  0  0  0
  188.1300  174.8710  137.1350 O   0  0  0  0  0  0  0  0  0  0  0  0
  188.5250  176.1240  137.5450 N   0  0  0  0  0  0  0  0  0  0  0  0
  190.6070  175.2240  137.5410 C   0  0  0  0  0  2  0  0  0  0  0  0
  190.0250  173.9330  137.2180 C   0  0  0  0  0  2  0  0  0  0  0  0
  185.6260  179.1160  137.8810 O   0  0  0  0  0  1  0  0  0  0  0  0
  185.7770  177.9010  138.5510 C   0  0  1  0  0  3  0  0  0  0  0  0
  185.1930  176.7320  137.7470 C   0  0  0  0  0  2  0  0  0  0  0  0
  184.6970  177.1220  136.3580 C   0  0  0  0  0  2  0  0  0  0  0  0
  185.7280  175.4700  134.7960 O   0  0  0  0  0  0  0  0  0  0  0  0
  185.6940  176.7590  135.3110 C   0  0  0  0  0  0  0  0  0  0  0  0
  186.5100  177.6230  134.8960 O   0  0  0  0  0  1  0  0  0  0  0  0
  1 10  1  0  0  0  0
  2  6  1  0  0  0  0
  4 16  1  6  0  0  0
  4  1  1  0  0  0  0
  4 11  1  0  0  0  0
  5  3  1  0  0  0  0
  6  9  2  0  0  0  0
  7  2  1  0  0  0  0
  8 15  1  0  0  0  0
  8  3  1  0  0  0  0
 10  2  2  0  0  0  0
 10 15  1  0  0  0  0
 11  8  2  0  0  0  0
 12  5  1  0  0  0  0
 13 11  1  0  0  0  0
 13 12  1  0  0  0  0
 14  9  1  0  0  0  0
 15 14  2  0  0  0  0
 16 18  1  6  0  0  0
 17 18  2  0  0  0  0
 19 20  1  0  0  0  0
 19 23  1  0  0  0  0
 19 22  1  0  0  0  0
 19 21  1  0  0  0  0
 20 21  1  0  0  0  0
 21 18  1  0  0  0  0
 23 22  1  0  0  0  0
 25 24  1  6  0  0  0
 25 16  1  0  0  0  0
 26 25  1  0  0  0  0
 27 26  1  0  0  0  0
 28 29  2  0  0  0  0
 29 27  1  0  0  0  0
 30 29  1  0  0  0  0
M  END
>  <MODEL>
9

>  <REMARK>
 VINA RESULT:      -6.9      3.216      4.556
  Name = 
  7 active torsions:
  status: ('A' for Active; 'I' for Inactive)
    1  A    between atoms: C_4  and  C_13
    2  A    between atoms: C_7  and  C_15
    3  A    between atoms: C_7  and  C_16
    4  A    between atoms: C_8  and  N_12
    5  A    between atoms: C_8  and  C_13
    6  A    between atoms: C_13  and  C_30
    7  A    between atoms: C_16  and  C_30
                            x       y       z     vdW  Elec       q    Type
                         _______ _______ _______ _____ _____    ______ ____

>  <TORSDO>
F 7

$$$$
