=
 OpenBabel11052414393D

 32 37  0  0  1  0  0  0  0  0999 V2000
  186.5910  178.4180  144.8960 C   0  0  0  0  0  0  0  0  0  0  0  0
  188.6990  177.3430  144.2880 C   0  0  0  0  0  0  0  0  0  0  0  0
  185.5770  178.8930  145.9160 C   0  0  0  0  0  2  0  0  0  0  0  0
  187.8280  177.8260  145.3040 C   0  0  0  0  0  0  0  0  0  0  0  0
  189.9950  176.9640  144.3390 C   0  0  1  0  0  3  0  0  0  0  0  0
  190.5170  177.3050  140.2150 C   0  0  0  0  0  3  0  0  0  0  0  0
  188.2740  177.3050  142.9700 C   0  0  0  0  0  0  0  0  0  0  0  0
  191.6430  177.1290  142.4020 C   0  0  0  0  0  3  0  0  0  0  0  0
  190.4130  176.4700  142.9830 C   0  0  2  0  0  3  0  0  0  0  0  0
  190.9800  176.6740  146.6310 C   0  0  0  0  0  0  0  0  0  0  0  0
  188.0380  177.4710  146.7690 C   0  0  1  0  0  3  0  0  0  0  0  0
  191.0250  177.4070  145.3380 C   0  0  0  0  0  2  0  0  0  0  0  0
  189.1890  178.1890  147.4390 C   0  0  0  0  0  2  0  0  0  0  0  0
  186.7840  177.5960  147.6280 C   0  0  0  0  0  2  0  0  0  0  0  0
  187.0780  177.8820  142.5650 C   0  0  0  0  0  3  0  0  0  0  0  0
  191.6440  175.6160  146.7840 O   0  0  0  0  0  0  0  0  0  0  0  0
  186.2380  178.4580  143.5180 C   0  0  0  0  0  0  0  0  0  0  0  0
  189.2150  176.8270  142.1770 C   0  0  2  0  0  3  0  0  0  0  0  0
  190.2180  177.2030  147.7100 N   0  0  0  0  0  2  0  0  0  0  0  0
  186.1080  178.9200  147.3390 C   0  0  0  0  0  2  0  0  0  0  0  0
  191.6990  177.4580  141.1010 C   0  0  0  0  0  3  0  0  0  0  0  0
  189.3110  177.0270  140.7250 C   0  0  0  0  0  3  0  0  0  0  0  0
  183.4680  178.7430  140.9110 C   0  0  0  0  0  0  0  0  0  0  0  0
  183.3510  178.5220  139.5790 F   0  0  0  0  0  0  0  0  0  0  0  0
  184.9520  179.0550  143.0100 C   0  0  2  0  0  3  0  0  0  0  0  0
  182.3730  178.7330  141.6750 C   0  0  0  0  0  3  0  0  0  0  0  0
  183.7420  178.4850  143.7590 C   0  0  0  0  0  2  0  0  0  0  0  0
  184.8010  178.9460  141.5090 C   0  0  0  0  0  0  0  0  0  0  0  0
  185.8060  179.0760  140.7600 O   0  0  0  0  0  0  0  0  0  0  0  0
  182.4430  179.0140  143.1510 C   0  0  2  0  0  3  0  0  0  0  0  0
  180.1660  178.2550  142.9850 O   0  0  0  0  0  1  0  0  0  0  0  0
  181.2270  178.4510  143.8730 C   0  0  0  0  0  2  0  0  0  0  0  0
  1  4  1  0  0  0  0
  1  3  1  0  0  0  0
  2  5  1  0  0  0  0
  2  4  2  0  0  0  0
  3 20  1  0  0  0  0
  4 11  1  0  0  0  0
  5 12  1  6  0  0  0
  6 22  2  0  0  0  0
  6 21  1  0  0  0  0
  7  2  1  0  0  0  0
  9  8  1  6  0  0  0
  9  5  1  0  0  0  0
 10 16  2  0  0  0  0
 10 19  1  0  0  0  0
 11 13  1  1  0  0  0
 11 14  1  0  0  0  0
 12 10  1  0  0  0  0
 13 19  1  0  0  0  0
 15  7  2  0  0  0  0
 15 17  1  0  0  0  0
 17  1  2  0  0  0  0
 18 22  1  6  0  0  0
 18  7  1  0  0  0  0
 18  9  1  0  0  0  0
 20 14  1  0  0  0  0
 21  8  2  0  0  0  0
 23 28  1  0  0  0  0
 23 26  2  0  0  0  0
 24 23  1  0  0  0  0
 25 17  1  1  0  0  0
 25 27  1  0  0  0  0
 26 30  1  0  0  0  0
 28 25  1  0  0  0  0
 29 28  2  0  0  0  0
 30 27  1  0  0  0  0
 30 32  1  1  0  0  0
 31 32  1  0  0  0  0
M  END
>  <MODEL>
1

>  <REMARK>
 VINA RESULT:     -12.1      0.000      0.000
  Name = 
  2 active torsions:
  status: ('A' for Active; 'I' for Inactive)
    1  A    between atoms: C_15  and  C_26
    2  A    between atoms: C_16  and  C_27
                            x       y       z     vdW  Elec       q    Type
                         _______ _______ _______ _____ _____    ______ ____

>  <TORSDO>
F 2

$$$$
=
 OpenBabel11052414393D

 32 37  0  0  1  0  0  0  0  0999 V2000
  187.4310  178.2520  142.2930 C   0  0  0  0  0  0  0  0  0  0  0  0
  187.4200  177.7350  144.6810 C   0  0  0  0  0  0  0  0  0  0  0  0
  186.7370  178.6540  141.0080 C   0  0  0  0  0  2  0  0  0  0  0  0
  186.7150  178.1840  143.5300 C   0  0  0  0  0  0  0  0  0  0  0  0
  187.0990  177.7860  145.9930 C   0  0  1  0  0  3  0  0  0  0  0  0
  191.0340  177.1760  147.2350 C   0  0  0  0  0  3  0  0  0  0  0  0
  188.7030  177.2280  144.5540 C   0  0  0  0  0  0  0  0  0  0  0  0
  188.7810  177.9220  147.9030 C   0  0  0  0  0  3  0  0  0  0  0  0
  188.1770  177.1020  146.7860 C   0  0  2  0  0  3  0  0  0  0  0  0
  184.7290  178.4130  146.5340 C   0  0  0  0  0  0  0  0  0  0  0  0
  185.1980  178.3040  143.5220 C   0  0  1  0  0  3  0  0  0  0  0  0
  186.1690  178.7610  146.6550 C   0  0  0  0  0  2  0  0  0  0  0  0
  184.6480  179.4820  144.2960 C   0  0  0  0  0  2  0  0  0  0  0  0
  184.5760  178.2700  142.1290 C   0  0  0  0  0  2  0  0  0  0  0  0
  189.4070  177.2960  143.3590 C   0  0  0  0  0  3  0  0  0  0  0  0
  184.1780  177.6800  147.3960 O   0  0  0  0  0  0  0  0  0  0  0  0
  188.7860  177.8240  142.2270 C   0  0  0  0  0  0  0  0  0  0  0  0
  189.1910  176.8630  145.7250 C   0  0  2  0  0  3  0  0  0  0  0  0
  183.9650  178.9540  145.4620 N   0  0  0  0  0  2  0  0  0  0  0  0
  185.3380  179.2090  141.2170 C   0  0  0  0  0  2  0  0  0  0  0  0
  190.1030  177.9010  148.1380 C   0  0  0  0  0  3  0  0  0  0  0  0
  190.6120  176.6950  146.0590 C   0  0  0  0  0  3  0  0  0  0  0  0
  191.9950  177.1290  140.2870 C   0  0  0  0  0  0  0  0  0  0  0  0
  193.3120  176.9980  140.5850 F   0  0  0  0  0  0  0  0  0  0  0  0
  189.6040  177.8560  140.9630 C   0  0  2  0  0  3  0  0  0  0  0  0
  191.5220  176.5820  139.1650 C   0  0  0  0  0  3  0  0  0  0  0  0
  189.1630  176.7580  139.9880 C   0  0  0  0  0  2  0  0  0  0  0  0
  191.0940  177.8280  141.2220 C   0  0  0  0  0  0  0  0  0  0  0  0
  191.5780  178.4430  142.2100 O   0  0  0  0  0  0  0  0  0  0  0  0
  190.0790  176.7330  138.7660 C   0  0  2  0  0  3  0  0  0  0  0  0
  190.4920  174.5210  137.9130 O   0  0  0  0  0  1  0  0  0  0  0  0
  189.6650  175.6400  137.7890 C   0  0  0  0  0  2  0  0  0  0  0  0
  1  4  1  0  0  0  0
  2  5  1  0  0  0  0
  3 20  1  0  0  0  0
  3  1  1  0  0  0  0
  4  2  2  0  0  0  0
  5 12  1  1  0  0  0
  5  9  1  0  0  0  0
  6 21  1  0  0  0  0
  7  2  1  0  0  0  0
  7 18  1  0  0  0  0
  8 21  2  0  0  0  0
  9  8  1  1  0  0  0
 10 12  1  0  0  0  0
 10 16  2  0  0  0  0
 11 14  1  6  0  0  0
 11  4  1  0  0  0  0
 11 13  1  0  0  0  0
 13 19  1  0  0  0  0
 15  7  2  0  0  0  0
 17  1  2  0  0  0  0
 17 15  1  0  0  0  0
 18 22  1  1  0  0  0
 18  9  1  0  0  0  0
 19 10  1  0  0  0  0
 20 14  1  0  0  0  0
 22  6  2  0  0  0  0
 23 24  1  0  0  0  0
 23 28  1  0  0  0  0
 25 28  1  0  0  0  0
 25 17  1  1  0  0  0
 26 23  2  0  0  0  0
 27 25  1  0  0  0  0
 28 29  2  0  0  0  0
 30 32  1  6  0  0  0
 30 26  1  0  0  0  0
 30 27  1  0  0  0  0
 32 31  1  0  0  0  0
M  END
>  <MODEL>
2

>  <REMARK>
 VINA RESULT:     -11.6      3.074      6.479
  Name = 
  2 active torsions:
  status: ('A' for Active; 'I' for Inactive)
    1  A    between atoms: C_15  and  C_26
    2  A    between atoms: C_16  and  C_27
                            x       y       z     vdW  Elec       q    Type
                         _______ _______ _______ _____ _____    ______ ____

>  <TORSDO>
F 2

$$$$
=
 OpenBabel11052414393D

 32 37  0  0  1  0  0  0  0  0999 V2000
  185.6570  178.4450  143.8990 C   0  0  0  0  0  0  0  0  0  0  0  0
  187.8720  177.4490  144.1650 C   0  0  0  0  0  0  0  0  0  0  0  0
  184.3330  178.9280  144.4520 C   0  0  0  0  0  2  0  0  0  0  0  0
  186.6820  177.9460  144.7640 C   0  0  0  0  0  0  0  0  0  0  0  0
  189.0740  177.1430  144.7030 C   0  0  1  0  0  3  0  0  0  0  0  0
  191.0300  177.2560  141.0200 C   0  0  0  0  0  3  0  0  0  0  0  0
  187.9490  177.3060  142.7890 C   0  0  0  0  0  0  0  0  0  0  0  0
  191.3010  177.2760  143.4710 C   0  0  0  0  0  3  0  0  0  0  0  0
  189.9640  176.5890  143.6260 C   0  0  2  0  0  3  0  0  0  0  0  0
  189.1790  177.0490  147.2100 C   0  0  0  0  0  0  0  0  0  0  0  0
  186.3630  177.6940  146.2310 C   0  0  1  0  0  3  0  0  0  0  0  0
  189.6640  177.7010  145.9660 C   0  0  0  0  0  2  0  0  0  0  0  0
  187.1760  178.5130  147.2100 C   0  0  0  0  0  2  0  0  0  0  0  0
  184.8810  177.8050  146.5750 C   0  0  0  0  0  2  0  0  0  0  0  0
  186.9630  177.7930  141.9420 C   0  0  0  0  0  3  0  0  0  0  0  0
  189.7720  176.0390  147.6700 O   0  0  0  0  0  0  0  0  0  0  0  0
  185.8210  178.3810  142.4870 C   0  0  0  0  0  0  0  0  0  0  0  0
  189.1250  176.8310  142.4220 C   0  0  2  0  0  3  0  0  0  0  0  0
  188.0660  177.6020  147.9030 N   0  0  0  0  0  2  0  0  0  0  0  0
  184.3170  179.0710  145.9640 C   0  0  0  0  0  2  0  0  0  0  0  0
  191.8110  177.5260  142.2550 C   0  0  0  0  0  3  0  0  0  0  0  0
  189.7290  176.9460  141.0880 C   0  0  0  0  0  3  0  0  0  0  0  0
  184.2260  178.4300  139.0220 C   0  0  0  0  0  0  0  0  0  0  0  0
  184.6330  178.1830  137.7530 F   0  0  0  0  0  0  0  0  0  0  0  0
  184.7870  178.8770  141.5100 C   0  0  2  0  0  3  0  0  0  0  0  0
  182.9270  178.3490  139.3200 C   0  0  0  0  0  3  0  0  0  0  0  0
  183.4210  178.2300  141.7720 C   0  0  0  0  0  2  0  0  0  0  0  0
  185.2200  178.7370  140.0680 C   0  0  0  0  0  0  0  0  0  0  0  0
  186.4230  178.9300  139.7460 O   0  0  0  0  0  0  0  0  0  0  0  0
  182.4180  178.6550  140.7020 C   0  0  2  0  0  3  0  0  0  0  0  0
  180.4210  178.5850  142.0420 O   0  0  0  0  0  1  0  0  0  0  0  0
  181.0570  178.0140  140.9360 C   0  0  0  0  0  2  0  0  0  0  0  0
  1  3  1  0  0  0  0
  1  4  1  0  0  0  0
  2  5  1  0  0  0  0
  2  4  2  0  0  0  0
  3 20  1  0  0  0  0
  4 11  1  0  0  0  0
  5 12  1  6  0  0  0
  6 22  2  0  0  0  0
  6 21  1  0  0  0  0
  7  2  1  0  0  0  0
  9  8  1  6  0  0  0
  9  5  1  0  0  0  0
 10 16  2  0  0  0  0
 10 19  1  0  0  0  0
 11 14  1  6  0  0  0
 11 13  1  0  0  0  0
 12 10  1  0  0  0  0
 13 19  1  0  0  0  0
 15 17  1  0  0  0  0
 15  7  2  0  0  0  0
 17  1  2  0  0  0  0
 18 22  1  6  0  0  0
 18  7  1  0  0  0  0
 18  9  1  0  0  0  0
 20 14  1  0  0  0  0
 21  8  2  0  0  0  0
 23 26  2  0  0  0  0
 23 28  1  0  0  0  0
 24 23  1  0  0  0  0
 25 27  1  0  0  0  0
 25 17  1  1  0  0  0
 26 30  1  0  0  0  0
 28 25  1  0  0  0  0
 29 28  2  0  0  0  0
 30 32  1  1  0  0  0
 30 27  1  0  0  0  0
 32 31  1  0  0  0  0
M  END
>  <MODEL>
3

>  <REMARK>
 VINA RESULT:     -11.5      1.284      1.671
  Name = 
  2 active torsions:
  status: ('A' for Active; 'I' for Inactive)
    1  A    between atoms: C_15  and  C_26
    2  A    between atoms: C_16  and  C_27
                            x       y       z     vdW  Elec       q    Type
                         _______ _______ _______ _____ _____    ______ ____

>  <TORSDO>
F 2

$$$$
=
 OpenBabel11052414393D

 32 37  0  0  1  0  0  0  0  0999 V2000
  186.6300  177.8550  143.6870 C   0  0  0  0  0  0  0  0  0  0  0  0
  186.8600  178.3550  141.3060 C   0  0  0  0  0  0  0  0  0  0  0  0
  185.8650  177.8900  144.9940 C   0  0  0  0  0  2  0  0  0  0  0  0
  186.0550  178.3610  142.4790 C   0  0  0  0  0  0  0  0  0  0  0  0
  186.5350  178.5380  140.0080 C   0  0  1  0  0  3  0  0  0  0  0  0
  190.0630  176.7970  138.6210 C   0  0  0  0  0  3  0  0  0  0  0  0
  188.2020  178.0220  141.3890 C   0  0  0  0  0  0  0  0  0  0  0  0
  187.7780  177.5130  138.0330 C   0  0  0  0  0  3  0  0  0  0  0  0
  187.7890  178.4970  139.1800 C   0  0  2  0  0  3  0  0  0  0  0  0
  184.2270  179.4140  139.5510 C   0  0  0  0  0  0  0  0  0  0  0  0
  184.7490  179.1410  142.5450 C   0  0  1  0  0  3  0  0  0  0  0  0
  185.1960  178.3020  139.3720 C   0  0  0  0  0  2  0  0  0  0  0  0
  183.5990  178.5230  141.7800 C   0  0  0  0  0  2  0  0  0  0  0  0
  184.2980  179.4860  143.9600 C   0  0  0  0  0  2  0  0  0  0  0  0
  188.7670  177.5230  142.5550 C   0  0  0  0  0  3  0  0  0  0  0  0
  184.1810  180.3560  138.7190 O   0  0  0  0  0  0  0  0  0  0  0  0
  187.9850  177.4190  143.7050 C   0  0  0  0  0  0  0  0  0  0  0  0
  188.7820  178.0730  140.2030 C   0  0  2  0  0  3  0  0  0  0  0  0
  183.3190  179.3820  140.6460 N   0  0  0  0  0  2  0  0  0  0  0  0
  184.3990  178.2530  144.8340 C   0  0  0  0  0  2  0  0  0  0  0  0
  188.8620  176.7720  137.7480 C   0  0  0  0  0  3  0  0  0  0  0  0
  190.0280  177.3980  139.8170 C   0  0  0  0  0  3  0  0  0  0  0  0
  191.1080  176.7190  145.7800 C   0  0  0  0  0  0  0  0  0  0  0  0
  192.4260  176.5210  145.5310 F   0  0  0  0  0  0  0  0  0  0  0  0
  188.6650  176.8810  144.9360 C   0  0  2  0  0  3  0  0  0  0  0  0
  190.7260  177.1280  146.9920 C   0  0  0  0  0  3  0  0  0  0  0  0
  188.4800  177.8250  146.1300 C   0  0  0  0  0  2  0  0  0  0  0  0
  190.1180  176.5280  144.7040 C   0  0  0  0  0  0  0  0  0  0  0  0
  190.4800  176.0250  143.6070 O   0  0  0  0  0  0  0  0  0  0  0  0
  189.2740  177.3220  147.3340 C   0  0  2  0  0  3  0  0  0  0  0  0
  187.9300  177.9790  149.2180 O   0  0  0  0  0  1  0  0  0  0  0  0
  189.1140  178.2530  148.5280 C   0  0  0  0  0  2  0  0  0  0  0  0
  1 17  1  0  0  0  0
  1  3  1  0  0  0  0
  2  7  2  0  0  0  0
  2  4  1  0  0  0  0
  4 11  1  0  0  0  0
  4  1  2  0  0  0  0
  5 12  1  6  0  0  0
  5  2  1  0  0  0  0
  6 22  2  0  0  0  0
  7 15  1  0  0  0  0
  9  8  1  6  0  0  0
  9  5  1  0  0  0  0
  9 18  1  0  0  0  0
 10 19  1  0  0  0  0
 11 13  1  1  0  0  0
 11 14  1  0  0  0  0
 12 10  1  0  0  0  0
 14 20  1  0  0  0  0
 15 17  2  0  0  0  0
 16 10  2  0  0  0  0
 18 22  1  6  0  0  0
 18  7  1  0  0  0  0
 19 13  1  0  0  0  0
 20  3  1  0  0  0  0
 21  8  2  0  0  0  0
 21  6  1  0  0  0  0
 23 26  2  0  0  0  0
 24 23  1  0  0  0  0
 25 17  1  6  0  0  0
 25 27  1  0  0  0  0
 26 30  1  0  0  0  0
 27 30  1  0  0  0  0
 28 25  1  0  0  0  0
 28 23  1  0  0  0  0
 29 28  2  0  0  0  0
 30 32  1  1  0  0  0
 32 31  1  0  0  0  0
M  END
>  <MODEL>
4

>  <REMARK>
 VINA RESULT:     -11.2      3.265      6.617
  Name = 
  2 active torsions:
  status: ('A' for Active; 'I' for Inactive)
    1  A    between atoms: C_15  and  C_26
    2  A    between atoms: C_16  and  C_27
                            x       y       z     vdW  Elec       q    Type
                         _______ _______ _______ _____ _____    ______ ____

>  <TORSDO>
F 2

$$$$
=
 OpenBabel11052414393D

 32 37  0  0  1  0  0  0  0  0999 V2000
  186.9540  178.2970  141.5430 C   0  0  0  0  0  0  0  0  0  0  0  0
  187.2690  177.7490  143.9030 C   0  0  0  0  0  0  0  0  0  0  0  0
  186.0980  178.7460  140.3770 C   0  0  0  0  0  2  0  0  0  0  0  0
  186.4250  178.2440  142.8710 C   0  0  0  0  0  0  0  0  0  0  0  0
  187.1460  177.7960  145.2480 C   0  0  1  0  0  3  0  0  0  0  0  0
  191.1880  176.9960  145.8950 C   0  0  0  0  0  3  0  0  0  0  0  0
  188.4950  177.1870  143.5860 C   0  0  0  0  0  0  0  0  0  0  0  0
  189.0930  177.8320  146.8920 C   0  0  0  0  0  3  0  0  0  0  0  0
  188.2950  177.0540  145.8700 C   0  0  2  0  0  3  0  0  0  0  0  0
  184.9120  178.5200  146.1350 C   0  0  0  0  0  0  0  0  0  0  0  0
  184.9290  178.4310  143.0860 C   0  0  1  0  0  3  0  0  0  0  0  0
  186.3680  178.8020  146.0460 C   0  0  0  0  0  2  0  0  0  0  0  0
  184.5530  179.6210  143.9410 C   0  0  0  0  0  2  0  0  0  0  0  0
  184.1100  178.4430  141.8000 C   0  0  0  0  0  2  0  0  0  0  0  0
  189.0190  177.2400  142.3010 C   0  0  0  0  0  3  0  0  0  0  0  0
  184.4600  177.8000  147.0640 O   0  0  0  0  0  0  0  0  0  0  0  0
  188.2640  177.8090  141.2760 C   0  0  0  0  0  0  0  0  0  0  0  0
  189.1320  176.7850  144.6700 C   0  0  2  0  0  3  0  0  0  0  0  0
  184.0250  179.1080  145.1910 N   0  0  0  0  0  2  0  0  0  0  0  0
  184.7720  179.3590  140.7920 C   0  0  0  0  0  2  0  0  0  0  0  0
  190.4330  177.7490  146.9300 C   0  0  0  0  0  3  0  0  0  0  0  0
  190.5770  176.5500  144.7910 C   0  0  0  0  0  3  0  0  0  0  0  0
  190.9240  176.6760  138.7880 C   0  0  0  0  0  0  0  0  0  0  0  0
  192.1990  176.2190  138.8580 F   0  0  0  0  0  0  0  0  0  0  0  0
  188.8890  177.8230  139.9060 C   0  0  2  0  0  3  0  0  0  0  0  0
  190.1870  176.3980  137.7100 C   0  0  0  0  0  3  0  0  0  0  0  0
  188.0710  176.9860  138.9150 C   0  0  0  0  0  2  0  0  0  0  0  0
  190.3500  177.4310  139.9180 C   0  0  0  0  0  0  0  0  0  0  0  0
  191.0950  177.7890  140.8690 O   0  0  0  0  0  0  0  0  0  0  0  0
  188.7830  176.9160  137.5650 C   0  0  2  0  0  3  0  0  0  0  0  0
  187.2620  175.0840  137.2210 O   0  0  0  0  0  1  0  0  0  0  0  0
  187.9930  176.0790  136.5680 C   0  0  0  0  0  2  0  0  0  0  0  0
  1  4  1  0  0  0  0
  2  5  1  0  0  0  0
  3 20  1  0  0  0  0
  3  1  1  0  0  0  0
  4 11  1  0  0  0  0
  4  2  2  0  0  0  0
  5  9  1  0  0  0  0
  5 12  1  1  0  0  0
  6 21  1  0  0  0  0
  7  2  1  0  0  0  0
  7 18  1  0  0  0  0
  8 21  2  0  0  0  0
  9  8  1  1  0  0  0
 10 16  2  0  0  0  0
 11 14  1  6  0  0  0
 11 13  1  0  0  0  0
 12 10  1  0  0  0  0
 13 19  1  0  0  0  0
 15  7  2  0  0  0  0
 17  1  2  0  0  0  0
 17 15  1  0  0  0  0
 18 22  1  1  0  0  0
 18  9  1  0  0  0  0
 19 10  1  0  0  0  0
 20 14  1  0  0  0  0
 22  6  2  0  0  0  0
 23 24  1  0  0  0  0
 23 28  1  0  0  0  0
 25 28  1  0  0  0  0
 25 17  1  1  0  0  0
 26 23  2  0  0  0  0
 27 25  1  0  0  0  0
 28 29  2  0  0  0  0
 30 32  1  6  0  0  0
 30 26  1  0  0  0  0
 30 27  1  0  0  0  0
 32 31  1  0  0  0  0
M  END
>  <MODEL>
5

>  <REMARK>
 VINA RESULT:     -11.1      3.027      6.040
  Name = 
  2 active torsions:
  status: ('A' for Active; 'I' for Inactive)
    1  A    between atoms: C_15  and  C_26
    2  A    between atoms: C_16  and  C_27
                            x       y       z     vdW  Elec       q    Type
                         _______ _______ _______ _____ _____    ______ ____

>  <TORSDO>
F 2

$$$$
=
 OpenBabel11052414393D

 32 37  0  0  1  0  0  0  0  0999 V2000
  189.2920  177.0490  142.9890 C   0  0  0  0  0  0  0  0  0  0  0  0
  187.6400  178.0380  144.4930 C   0  0  0  0  0  0  0  0  0  0  0  0
  190.6450  176.4290  142.7100 C   0  0  0  0  0  2  0  0  0  0  0  0
  188.8980  177.3990  144.3190 C   0  0  0  0  0  0  0  0  0  0  0  0
  186.9090  178.2680  145.6060 C   0  0  1  0  0  3  0  0  0  0  0  0
  183.3940  178.9350  143.4610 C   0  0  0  0  0  3  0  0  0  0  0  0
  186.9130  178.4500  143.3880 C   0  0  0  0  0  0  0  0  0  0  0  0
  184.3670  178.4440  145.6730 C   0  0  0  0  0  3  0  0  0  0  0  0
  185.6800  179.0480  145.2310 C   0  0  2  0  0  3  0  0  0  0  0  0
  188.0660  177.8730  147.7990 C   0  0  0  0  0  0  0  0  0  0  0  0
  189.9280  177.3490  145.4390 C   0  0  1  0  0  3  0  0  0  0  0  0
  186.9540  177.4910  146.8900 C   0  0  0  0  0  2  0  0  0  0  0  0
  189.6090  176.3790  146.5560 C   0  0  0  0  0  2  0  0  0  0  0  0
  191.3600  177.1300  144.9620 C   0  0  0  0  0  2  0  0  0  0  0  0
  187.2840  178.1090  142.0940 C   0  0  0  0  0  3  0  0  0  0  0  0
  187.9080  178.7900  148.6460 O   0  0  0  0  0  0  0  0  0  0  0  0
  188.4620  177.3930  141.8850 C   0  0  0  0  0  0  0  0  0  0  0  0
  185.7780  179.0210  143.7470 C   0  0  2  0  0  3  0  0  0  0  0  0
  189.2980  177.1620  147.7360 N   0  0  0  0  0  2  0  0  0  0  0  0
  191.3860  175.9920  143.9620 C   0  0  0  0  0  2  0  0  0  0  0  0
  183.2960  178.4520  144.8620 C   0  0  0  0  0  3  0  0  0  0  0  0
  184.5850  179.1880  142.9050 C   0  0  0  0  0  3  0  0  0  0  0  0
  189.0520  178.4150  138.2580 C   0  0  0  0  0  0  0  0  0  0  0  0
  188.6390  179.4170  137.4430 F   0  0  0  0  0  0  0  0  0  0  0  0
  188.8090  177.0680  140.4560 C   0  0  2  0  0  3  0  0  0  0  0  0
  190.1810  177.7620  137.9710 C   0  0  0  0  0  3  0  0  0  0  0  0
  190.3140  176.8280  140.2910 C   0  0  0  0  0  2  0  0  0  0  0  0
  188.2810  178.0880  139.4720 C   0  0  0  0  0  0  0  0  0  0  0  0
  187.1570  178.6280  139.6600 O   0  0  0  0  0  0  0  0  0  0  0  0
  190.6610  176.6160  138.8180 C   0  0  2  0  0  3  0  0  0  0  0  0
  192.8930  177.1280  139.5570 O   0  0  0  0  0  1  0  0  0  0  0  0
  192.1540  176.3870  138.6310 C   0  0  0  0  0  2  0  0  0  0  0  0
  1  4  1  0  0  0  0
  2  5  1  0  0  0  0
  3  1  1  0  0  0  0
  3 20  1  0  0  0  0
  4  2  2  0  0  0  0
  4 11  1  0  0  0  0
  5 12  1  6  0  0  0
  6 21  1  0  0  0  0
  7 18  1  0  0  0  0
  7  2  1  0  0  0  0
  9  5  1  0  0  0  0
  9  8  1  6  0  0  0
 10 16  2  0  0  0  0
 11 14  1  6  0  0  0
 11 13  1  0  0  0  0
 12 10  1  0  0  0  0
 13 19  1  0  0  0  0
 15  7  2  0  0  0  0
 17 15  1  0  0  0  0
 17  1  2  0  0  0  0
 18 22  1  6  0  0  0
 18  9  1  0  0  0  0
 19 10  1  0  0  0  0
 20 14  1  0  0  0  0
 21  8  2  0  0  0  0
 22  6  2  0  0  0  0
 23 28  1  0  0  0  0
 24 23  1  0  0  0  0
 25 17  1  1  0  0  0
 26 23  2  0  0  0  0
 26 30  1  0  0  0  0
 27 25  1  0  0  0  0
 28 29  2  0  0  0  0
 28 25  1  0  0  0  0
 30 32  1  1  0  0  0
 30 27  1  0  0  0  0
 32 31  1  0  0  0  0
M  END
>  <MODEL>
6

>  <REMARK>
 VINA RESULT:     -10.7      2.258      6.117
  Name = 
  2 active torsions:
  status: ('A' for Active; 'I' for Inactive)
    1  A    between atoms: C_15  and  C_26
    2  A    between atoms: C_16  and  C_27
                            x       y       z     vdW  Elec       q    Type
                         _______ _______ _______ _____ _____    ______ ____

>  <TORSDO>
F 2

$$$$
=
 OpenBabel11052414393D

 32 37  0  0  1  0  0  0  0  0999 V2000
  186.5260  178.2040  138.5470 C   0  0  0  0  0  0  0  0  0  0  0  0
  187.6050  178.1790  140.7390 C   0  0  0  0  0  0  0  0  0  0  0  0
  186.5670  178.1250  137.0350 C   0  0  0  0  0  2  0  0  0  0  0  0
  187.7100  178.0240  139.3290 C   0  0  0  0  0  0  0  0  0  0  0  0
  188.4590  177.8510  141.7330 C   0  0  1  0  0  3  0  0  0  0  0  0
  185.5000  178.0170  144.6690 C   0  0  0  0  0  3  0  0  0  0  0  0
  186.4280  178.6510  141.2980 C   0  0  0  0  0  0  0  0  0  0  0  0
  187.7680  177.2300  144.1070 C   0  0  0  0  0  3  0  0  0  0  0  0
  187.8780  178.3000  143.0450 C   0  0  2  0  0  3  0  0  0  0  0  0
  190.7850  177.2120  141.0350 C   0  0  0  0  0  0  0  0  0  0  0  0
  189.0630  177.9680  138.6330 C   0  0  1  0  0  3  0  0  0  0  0  0
  189.5210  176.7910  141.6950 C   0  0  0  0  0  2  0  0  0  0  0  0
  189.8190  176.6700  138.8150 C   0  0  0  0  0  2  0  0  0  0  0  0
  189.0190  178.3340  137.1530 C   0  0  0  0  0  2  0  0  0  0  0  0
  185.2720  178.8220  140.5480 C   0  0  0  0  0  3  0  0  0  0  0  0
  191.6990  177.7570  141.7060 O   0  0  0  0  0  0  0  0  0  0  0  0
  185.3060  178.5840  139.1740 C   0  0  0  0  0  0  0  0  0  0  0  0
  186.5210  178.7290  142.6130 C   0  0  2  0  0  3  0  0  0  0  0  0
  190.9720  176.9530  139.6490 N   0  0  0  0  0  2  0  0  0  0  0  0
  187.8790  177.5920  136.4870 C   0  0  0  0  0  2  0  0  0  0  0  0
  186.6830  177.1470  144.8940 C   0  0  0  0  0  3  0  0  0  0  0  0
  185.3990  178.7630  143.5620 C   0  0  0  0  0  3  0  0  0  0  0  0
  181.6760  177.7010  138.4060 C   0  0  0  0  0  0  0  0  0  0  0  0
  180.8970  176.5950  138.4920 F   0  0  0  0  0  0  0  0  0  0  0  0
  184.0200  178.8000  138.4210 C   0  0  2  0  0  3  0  0  0  0  0  0
  181.1010  178.9060  138.3900 C   0  0  0  0  0  3  0  0  0  0  0  0
  183.2690  180.0290  138.9480 C   0  0  0  0  0  2  0  0  0  0  0  0
  183.1450  177.5680  138.3770 C   0  0  0  0  0  0  0  0  0  0  0  0
  183.6640  176.4250  138.2680 O   0  0  0  0  0  0  0  0  0  0  0  0
  181.9150  180.1630  138.2530 C   0  0  2  0  0  3  0  0  0  0  0  0
  181.4500  182.5120  138.0240 O   0  0  0  0  0  1  0  0  0  0  0  0
  181.1470  181.3710  138.7700 C   0  0  0  0  0  2  0  0  0  0  0  0
  1 17  2  0  0  0  0
  1  4  1  0  0  0  0
  2  7  1  0  0  0  0
  2  5  1  0  0  0  0
  3  1  1  0  0  0  0
  4  2  2  0  0  0  0
  5 12  1  1  0  0  0
  5  9  1  0  0  0  0
  6 21  1  0  0  0  0
  7 18  1  0  0  0  0
  8 21  2  0  0  0  0
  9  8  1  1  0  0  0
 10 12  1  0  0  0  0
 10 16  2  0  0  0  0
 11 14  1  6  0  0  0
 11 13  1  0  0  0  0
 11  4  1  0  0  0  0
 13 19  1  0  0  0  0
 15  7  2  0  0  0  0
 17 15  1  0  0  0  0
 18  9  1  0  0  0  0
 18 22  1  1  0  0  0
 19 10  1  0  0  0  0
 20  3  1  0  0  0  0
 20 14  1  0  0  0  0
 22  6  2  0  0  0  0
 23 24  1  0  0  0  0
 25 27  1  0  0  0  0
 25 17  1  1  0  0  0
 26 23  2  0  0  0  0
 28 23  1  0  0  0  0
 28 25  1  0  0  0  0
 29 28  2  0  0  0  0
 30 26  1  0  0  0  0
 30 32  1  1  0  0  0
 30 27  1  0  0  0  0
 31 32  1  0  0  0  0
M  END
>  <MODEL>
7

>  <REMARK>
 VINA RESULT:     -10.5      3.249      5.894
  Name = 
  2 active torsions:
  status: ('A' for Active; 'I' for Inactive)
    1  A    between atoms: C_15  and  C_26
    2  A    between atoms: C_16  and  C_27
                            x       y       z     vdW  Elec       q    Type
                         _______ _______ _______ _____ _____    ______ ____

>  <TORSDO>
F 2

$$$$
=
 OpenBabel11052414393D

 32 37  0  0  1  0  0  0  0  0999 V2000
  185.8040  178.1660  143.9010 C   0  0  0  0  0  0  0  0  0  0  0  0
  184.7080  178.6930  141.7810 C   0  0  0  0  0  0  0  0  0  0  0  0
  185.8190  178.0760  145.4120 C   0  0  0  0  0  2  0  0  0  0  0  0
  184.6260  178.5680  143.1960 C   0  0  0  0  0  0  0  0  0  0  0  0
  183.7420  178.8180  140.8450 C   0  0  1  0  0  3  0  0  0  0  0  0
  186.2700  177.6850  137.7270 C   0  0  0  0  0  3  0  0  0  0  0  0
  185.9350  178.5880  141.1470 C   0  0  0  0  0  0  0  0  0  0  0  0
  183.9310  178.0100  138.4350 C   0  0  0  0  0  3  0  0  0  0  0  0
  184.3870  178.9840  139.4970 C   0  0  2  0  0  3  0  0  0  0  0  0
  181.4270  179.2980  141.6920 C   0  0  0  0  0  0  0  0  0  0  0  0
  183.4410  179.1200  143.9770 C   0  0  1  0  0  3  0  0  0  0  0  0
  182.3160  178.3620  140.9560 C   0  0  0  0  0  2  0  0  0  0  0  0
  182.1640  178.3180  143.8490 C   0  0  0  0  0  2  0  0  0  0  0  0
  183.7340  179.3880  145.4490 C   0  0  0  0  0  2  0  0  0  0  0  0
  187.0820  178.1920  141.8210 C   0  0  0  0  0  3  0  0  0  0  0  0
  180.8270  180.2180  141.0780 O   0  0  0  0  0  0  0  0  0  0  0  0
  187.0230  177.9610  143.1960 C   0  0  0  0  0  0  0  0  0  0  0  0
  185.8120  178.7330  139.8400 C   0  0  2  0  0  3  0  0  0  0  0  0
  181.2230  179.1180  143.0880 N   0  0  0  0  0  2  0  0  0  0  0  0
  184.4440  178.1900  146.0450 C   0  0  0  0  0  2  0  0  0  0  0  0
  184.8090  177.4600  137.5810 C   0  0  0  0  0  3  0  0  0  0  0  0
  186.7670  178.2740  138.8220 C   0  0  0  0  0  3  0  0  0  0  0  0
  190.2160  175.8790  143.3340 C   0  0  0  0  0  0  0  0  0  0  0  0
  190.6300  174.6870  142.8390 F   0  0  0  0  0  0  0  0  0  0  0  0
  188.3070  177.5450  143.8650 C   0  0  2  0  0  3  0  0  0  0  0  0
  191.1240  176.7960  143.6750 C   0  0  0  0  0  3  0  0  0  0  0  0
  189.3960  178.6090  143.6840 C   0  0  0  0  0  2  0  0  0  0  0  0
  188.7740  176.1690  143.4460 C   0  0  0  0  0  0  0  0  0  0  0  0
  187.9370  175.2510  143.2380 O   0  0  0  0  0  0  0  0  0  0  0  0
  190.7200  178.1190  144.2670 C   0  0  2  0  0  3  0  0  0  0  0  0
  191.3320  180.4450  144.3210 O   0  0  0  0  0  1  0  0  0  0  0  0
  191.8190  179.1560  144.0880 C   0  0  0  0  0  2  0  0  0  0  0  0
  1  3  1  0  0  0  0
  2  4  2  0  0  0  0
  3 20  1  0  0  0  0
  4  1  1  0  0  0  0
  4 11  1  0  0  0  0
  5 12  1  6  0  0  0
  5  2  1  0  0  0  0
  6 22  2  0  0  0  0
  7  2  1  0  0  0  0
  7 15  2  0  0  0  0
  9  8  1  6  0  0  0
  9 18  1  0  0  0  0
  9  5  1  0  0  0  0
 10 19  1  0  0  0  0
 11 13  1  1  0  0  0
 11 14  1  0  0  0  0
 12 10  1  0  0  0  0
 14 20  1  0  0  0  0
 15 17  1  0  0  0  0
 16 10  2  0  0  0  0
 17  1  2  0  0  0  0
 18 22  1  6  0  0  0
 18  7  1  0  0  0  0
 19 13  1  0  0  0  0
 21  6  1  0  0  0  0
 21  8  2  0  0  0  0
 23 28  1  0  0  0  0
 23 26  2  0  0  0  0
 24 23  1  0  0  0  0
 25 17  1  6  0  0  0
 26 30  1  0  0  0  0
 27 25  1  0  0  0  0
 27 30  1  0  0  0  0
 28 25  1  0  0  0  0
 29 28  2  0  0  0  0
 30 32  1  6  0  0  0
 32 31  1  0  0  0  0
M  END
>  <MODEL>
8

>  <REMARK>
 VINA RESULT:     -10.3      3.218      7.078
  Name = 
  2 active torsions:
  status: ('A' for Active; 'I' for Inactive)
    1  A    between atoms: C_15  and  C_26
    2  A    between atoms: C_16  and  C_27
                            x       y       z     vdW  Elec       q    Type
                         _______ _______ _______ _____ _____    ______ ____

>  <TORSDO>
F 2

$$$$
=
 OpenBabel11052414393D

 32 37  0  0  1  0  0  0  0  0999 V2000
  185.7740  178.1310  143.8130 C   0  0  0  0  0  0  0  0  0  0  0  0
  184.5840  178.6890  141.7530 C   0  0  0  0  0  0  0  0  0  0  0  0
  185.8630  178.0310  145.3220 C   0  0  0  0  0  2  0  0  0  0  0  0
  184.5700  178.5570  143.1690 C   0  0  0  0  0  0  0  0  0  0  0  0
  183.5750  178.8360  140.8670 C   0  0  1  0  0  3  0  0  0  0  0  0
  185.9270  177.6790  137.6210 C   0  0  0  0  0  3  0  0  0  0  0  0
  185.7770  178.5670  141.0580 C   0  0  0  0  0  0  0  0  0  0  0  0
  183.6310  178.0390  138.4460 C   0  0  0  0  0  3  0  0  0  0  0  0
  184.1550  178.9990  139.4900 C   0  0  2  0  0  3  0  0  0  0  0  0
  181.3140  179.3490  141.8290 C   0  0  0  0  0  0  0  0  0  0  0  0
  183.4350  179.1240  144.0110 C   0  0  1  0  0  3  0  0  0  0  0  0
  182.1490  178.4030  141.0450 C   0  0  0  0  0  2  0  0  0  0  0  0
  182.1400  178.3450  143.9420 C   0  0  0  0  0  2  0  0  0  0  0  0
  183.8050  179.3780  145.4680 C   0  0  0  0  0  2  0  0  0  0  0  0
  186.9490  178.1480  141.6730 C   0  0  0  0  0  3  0  0  0  0  0  0
  180.7000  180.2830  141.2510 O   0  0  0  0  0  0  0  0  0  0  0  0
  186.9530  177.9090  143.0470 C   0  0  0  0  0  0  0  0  0  0  0  0
  185.5910  178.7220  139.7600 C   0  0  2  0  0  3  0  0  0  0  0  0
  181.1760  179.1640  143.2340 N   0  0  0  0  0  2  0  0  0  0  0  0
  184.5230  178.1650  146.0230 C   0  0  0  0  0  2  0  0  0  0  0  0
  184.4560  177.4790  137.5470 C   0  0  0  0  0  3  0  0  0  0  0  0
  186.4870  178.2530  138.6930 C   0  0  0  0  0  3  0  0  0  0  0  0
  190.5860  178.5460  144.0210 C   0  0  0  0  0  0  0  0  0  0  0  0
  191.5880  179.3540  143.5930 F   0  0  0  0  0  0  0  0  0  0  0  0
  188.2610  177.4680  143.6500 C   0  0  2  0  0  3  0  0  0  0  0  0
  190.6240  178.0600  145.2640 C   0  0  0  0  0  3  0  0  0  0  0  0
  188.1920  177.4630  145.1820 C   0  0  0  0  0  2  0  0  0  0  0  0
  189.4460  178.2520  143.1320 C   0  0  0  0  0  0  0  0  0  0  0  0
  189.4880  178.6160  141.9260 O   0  0  0  0  0  0  0  0  0  0  0  0
  189.5600  177.1270  145.7740 C   0  0  2  0  0  3  0  0  0  0  0  0
  188.2050  177.0010  147.7580 O   0  0  0  0  0  1  0  0  0  0  0  0
  189.5170  177.1280  147.2960 C   0  0  0  0  0  2  0  0  0  0  0  0
  1  3  1  0  0  0  0
  2  4  2  0  0  0  0
  3 20  1  0  0  0  0
  4  1  1  0  0  0  0
  4 11  1  0  0  0  0
  5 12  1  6  0  0  0
  5  2  1  0  0  0  0
  6 22  2  0  0  0  0
  7 15  2  0  0  0  0
  7  2  1  0  0  0  0
  9  8  1  6  0  0  0
  9 18  1  0  0  0  0
  9  5  1  0  0  0  0
 10 19  1  0  0  0  0
 11 13  1  1  0  0  0
 11 14  1  0  0  0  0
 12 10  1  0  0  0  0
 14 20  1  0  0  0  0
 15 17  1  0  0  0  0
 16 10  2  0  0  0  0
 17  1  2  0  0  0  0
 18 22  1  6  0  0  0
 18  7  1  0  0  0  0
 19 13  1  0  0  0  0
 21  6  1  0  0  0  0
 21  8  2  0  0  0  0
 23 26  2  0  0  0  0
 24 23  1  0  0  0  0
 25 17  1  6  0  0  0
 25 27  1  0  0  0  0
 26 30  1  0  0  0  0
 27 30  1  0  0  0  0
 28 25  1  0  0  0  0
 28 23  1  0  0  0  0
 29 28  2  0  0  0  0
 30 32  1  1  0  0  0
 32 31  1  0  0  0  0
M  END
>  <MODEL>
9

>  <REMARK>
 VINA RESULT:     -10.0      3.096      6.918
  Name = 
  2 active torsions:
  status: ('A' for Active; 'I' for Inactive)
    1  A    between atoms: C_15  and  C_26
    2  A    between atoms: C_16  and  C_27
                            x       y       z     vdW  Elec       q    Type
                         _______ _______ _______ _____ _____    ______ ____

>  <TORSDO>
F 2

$$$$
