=
 OpenBabel11052413123D

 31 34  0  0  1  0  0  0  0  0999 V2000
  186.0490  178.2190  146.4430 C   0  0  0  0  0  0  0  0  0  0  0  0
  186.9550  178.1020  142.8220 C   0  0  0  0  0  0  0  0  0  0  0  0
  188.4000  177.6210  142.8590 C   0  0  1  0  0  3  0  0  0  0  0  0
  189.5770  175.4340  143.4130 C   0  0  0  0  0  3  0  0  0  0  0  0
  186.2230  178.2770  144.0170 C   0  0  0  0  0  0  0  0  0  0  0  0
  184.7170  178.6340  146.3630 C   0  0  0  0  0  3  0  0  0  0  0  0
  188.4820  176.2180  143.4150 C   0  0  0  0  0  3  0  0  0  0  0  0
  184.9900  178.8390  141.5790 C   0  0  0  0  0  0  0  0  0  0  0  0
  186.6130  177.9840  147.6510 F   0  0  0  0  0  0  0  0  0  0  0  0
  188.5580  178.7140  140.5490 C   0  0  0  0  0  2  0  0  0  0  0  0
  190.9020  175.7590  142.7690 C   0  0  0  0  0  2  0  0  0  0  0  0
  184.3040  178.9610  142.7460 N   0  0  0  0  0  0  0  0  0  0  0  0
  186.3350  178.4250  141.5920 C   0  0  0  0  0  0  0  0  0  0  0  0
  186.7980  178.0420  145.2770 C   0  0  0  0  0  3  0  0  0  0  0  0
  191.2720  177.2320  142.8880 C   0  0  0  0  0  2  0  0  0  0  0  0
  184.8790  178.7070  143.9480 C   0  0  0  0  0  0  0  0  0  0  0  0
  184.1330  178.8780  145.1190 C   0  0  0  0  0  3  0  0  0  0  0  0
  187.1090  178.3310  140.3090 C   0  0  0  0  0  2  0  0  0  0  0  0
  189.1660  177.7210  141.5250 C   0  0  1  0  0  3  0  0  0  0  0  0
  190.6390  178.0570  141.7630 C   0  0  0  0  0  2  0  0  0  0  0  0
  184.2760  179.1220  140.2960 C   0  0  0  0  0  2  0  0  0  0  0  0
  182.8690  177.2400  140.3810 O   0  0  0  0  0  0  0  0  0  0  0  0
  182.9400  178.4560  140.2870 C   0  0  0  0  0  0  0  0  0  0  0  0
  181.6510  179.9150  138.7410 C   0  0  0  0  0  1  0  0  0  0  0  0
  181.7010  179.2840  140.1210 C   0  0  1  0  0  3  0  0  0  0  0  0
  179.9720  177.6390  139.4020 O   0  0  0  0  0  1  0  0  0  0  0  0
  180.4640  178.4800  140.3940 C   0  0  0  0  0  0  0  0  0  0  0  0
  179.8170  178.5250  141.5640 C   0  0  0  0  0  3  0  0  0  0  0  0
  180.1760  179.3390  142.7400 C   0  0  0  0  0  0  0  0  0  0  0  0
  180.7250  178.6590  143.9410 C   0  0  0  0  0  1  0  0  0  0  0  0
  180.0290  180.5900  142.7540 O   0  0  0  0  0  0  0  0  0  0  0  0
  1  9  1  0  0  0  0
  2  3  1  0  0  0  0
  2  5  1  0  0  0  0
  3  7  1  6  0  0  0
  4  7  2  0  0  0  0
  5 14  1  0  0  0  0
  6  1  1  0  0  0  0
  8 13  1  0  0  0  0
  8 12  2  0  0  0  0
 11 15  1  0  0  0  0
 11  4  1  0  0  0  0
 12 16  1  0  0  0  0
 13  2  2  0  0  0  0
 14  1  2  0  0  0  0
 16  5  2  0  0  0  0
 16 17  1  0  0  0  0
 17  6  2  0  0  0  0
 18 10  1  0  0  0  0
 18 13  1  0  0  0  0
 19 10  1  6  0  0  0
 19 20  1  0  0  0  0
 19  3  1  0  0  0  0
 20 15  1  0  0  0  0
 21  8  1  0  0  0  0
 23 21  1  0  0  0  0
 23 22  2  0  0  0  0
 25 24  1  6  0  0  0
 25 23  1  0  0  0  0
 25 27  1  0  0  0  0
 26 27  1  0  0  0  0
 27 28  2  0  0  0  0
 28 29  1  0  0  0  0
 29 31  2  0  0  0  0
 29 30  1  0  0  0  0
M  END
>  <MODEL>
1

>  <REMARK>
 VINA RESULT:      -8.4      0.000      0.000
  Name = 
  5 active torsions:
  status: ('A' for Active; 'I' for Inactive)
    1  A    between atoms: C_1  and  C_24
    2  A    between atoms: C_9  and  C_22
    3  A    between atoms: C_9  and  C_23
    4  A    between atoms: C_15  and  C_23
    5  A    between atoms: C_19  and  C_22
                            x       y       z     vdW  Elec       q    Type
                         _______ _______ _______ _____ _____    ______ ____

>  <TORSDO>
F 5

$$$$
=
 OpenBabel11052413123D

 31 34  0  0  1  0  0  0  0  0999 V2000
  190.5310  177.2780  138.8810 C   0  0  0  0  0  0  0  0  0  0  0  0
  188.3480  177.9840  141.8270 C   0  0  0  0  0  0  0  0  0  0  0  0
  189.2850  177.7280  143.0010 C   0  0  1  0  0  3  0  0  0  0  0  0
  191.3170  178.8930  143.9950 C   0  0  0  0  0  3  0  0  0  0  0  0
  188.7990  177.8300  140.4980 C   0  0  0  0  0  0  0  0  0  0  0  0
  189.6480  177.5500  137.8330 C   0  0  0  0  0  3  0  0  0  0  0  0
  190.4220  178.7230  143.0030 C   0  0  0  0  0  3  0  0  0  0  0  0
  186.1560  178.5960  140.9500 C   0  0  0  0  0  0  0  0  0  0  0  0
  191.7980  176.8830  138.6120 F   0  0  0  0  0  0  0  0  0  0  0  0
  187.1210  177.3790  144.3260 C   0  0  0  0  0  2  0  0  0  0  0  0
  191.3010  178.2000  145.3350 C   0  0  0  0  0  2  0  0  0  0  0  0
  186.6340  178.4750  139.6850 N   0  0  0  0  0  0  0  0  0  0  0  0
  186.9960  178.3350  142.0490 C   0  0  0  0  0  0  0  0  0  0  0  0
  190.1090  177.4170  140.2060 C   0  0  0  0  0  3  0  0  0  0  0  0
  190.8350  176.7520  145.2470 C   0  0  0  0  0  2  0  0  0  0  0  0
  187.9110  178.0930  139.4310 C   0  0  0  0  0  0  0  0  0  0  0  0
  188.3400  177.9560  138.1070 C   0  0  0  0  0  3  0  0  0  0  0  0
  186.4590  178.4260  143.4480 C   0  0  0  0  0  2  0  0  0  0  0  0
  188.6110  177.6720  144.3870 C   0  0  1  0  0  3  0  0  0  0  0  0
  189.3080  176.6550  145.2920 C   0  0  0  0  0  2  0  0  0  0  0  0
  184.7400  179.0380  141.1410 C   0  0  0  0  0  2  0  0  0  0  0  0
  184.5610  180.2130  139.1120 O   0  0  0  0  0  0  0  0  0  0  0  0
  184.1040  179.3300  139.8220 C   0  0  0  0  0  0  0  0  0  0  0  0
  183.0670  177.0770  139.6600 C   0  0  0  0  0  1  0  0  0  0  0  0
  182.8870  178.5620  139.4020 C   0  0  1  0  0  3  0  0  0  0  0  0
  181.2290  178.4920  141.2620 O   0  0  0  0  0  1  0  0  0  0  0  0
  181.6510  179.0820  140.0750 C   0  0  0  0  0  0  0  0  0  0  0  0
  180.9420  180.1080  139.5910 C   0  0  0  0  0  3  0  0  0  0  0  0
  181.2230  180.8720  138.3620 C   0  0  0  0  0  0  0  0  0  0  0  0
  180.7780  180.3190  137.0570 C   0  0  0  0  0  1  0  0  0  0  0  0
  181.8280  181.9770  138.3890 O   0  0  0  0  0  0  0  0  0  0  0  0
  1 14  1  0  0  0  0
  2 13  2  0  0  0  0
  2  3  1  0  0  0  0
  3  7  1  1  0  0  0
  3 19  1  0  0  0  0
  4 11  1  0  0  0  0
  5  2  1  0  0  0  0
  6 17  1  0  0  0  0
  6  1  2  0  0  0  0
  7  4  2  0  0  0  0
  8 21  1  0  0  0  0
  8 13  1  0  0  0  0
  9  1  1  0  0  0  0
 12  8  2  0  0  0  0
 13 18  1  0  0  0  0
 14  5  2  0  0  0  0
 15 20  1  0  0  0  0
 15 11  1  0  0  0  0
 16 12  1  0  0  0  0
 16  5  1  0  0  0  0
 17 16  2  0  0  0  0
 18 10  1  0  0  0  0
 19 10  1  6  0  0  0
 19 20  1  0  0  0  0
 22 23  2  0  0  0  0
 23 21  1  0  0  0  0
 25 24  1  1  0  0  0
 25 23  1  0  0  0  0
 25 27  1  0  0  0  0
 27 26  1  0  0  0  0
 28 27  2  0  0  0  0
 29 31  2  0  0  0  0
 29 28  1  0  0  0  0
 30 29  1  0  0  0  0
M  END
>  <MODEL>
2

>  <REMARK>
 VINA RESULT:      -8.3      2.765      4.755
  Name = 
  5 active torsions:
  status: ('A' for Active; 'I' for Inactive)
    1  A    between atoms: C_1  and  C_24
    2  A    between atoms: C_9  and  C_22
    3  A    between atoms: C_9  and  C_23
    4  A    between atoms: C_15  and  C_23
    5  A    between atoms: C_19  and  C_22
                            x       y       z     vdW  Elec       q    Type
                         _______ _______ _______ _____ _____    ______ ____

>  <TORSDO>
F 5

$$$$
=
 OpenBabel11052413123D

 31 34  0  0  1  0  0  0  0  0999 V2000
  189.9140  177.5300  138.7200 C   0  0  0  0  0  0  0  0  0  0  0  0
  188.0750  178.0480  141.9290 C   0  0  0  0  0  0  0  0  0  0  0  0
  189.1430  177.7510  142.9740 C   0  0  1  0  0  3  0  0  0  0  0  0
  191.2610  178.9030  143.7880 C   0  0  0  0  0  3  0  0  0  0  0  0
  188.3730  177.9690  140.5510 C   0  0  0  0  0  0  0  0  0  0  0  0
  188.9130  177.8380  137.7960 C   0  0  0  0  0  3  0  0  0  0  0  0
  190.2610  178.7660  142.8970 C   0  0  0  0  0  3  0  0  0  0  0  0
  185.7890  178.6620  141.3400 C   0  0  0  0  0  0  0  0  0  0  0  0
  191.1470  177.1720  138.2890 F   0  0  0  0  0  0  0  0  0  0  0  0
  187.1510  177.2970  144.5160 C   0  0  0  0  0  2  0  0  0  0  0  0
  191.4080  178.1440  145.0840 C   0  0  0  0  0  2  0  0  0  0  0  0
  186.1210  178.6130  140.0240 N   0  0  0  0  0  0  0  0  0  0  0  0
  186.7530  178.3620  142.3210 C   0  0  0  0  0  0  0  0  0  0  0  0
  189.6460  177.5950  140.0900 C   0  0  0  0  0  3  0  0  0  0  0  0
  190.9540  176.6940  144.9750 C   0  0  0  0  0  2  0  0  0  0  0  0
  187.3640  178.2680  139.6070 C   0  0  0  0  0  0  0  0  0  0  0  0
  187.6410  178.2050  138.2380 C   0  0  0  0  0  3  0  0  0  0  0  0
  186.3790  178.3730  143.7750 C   0  0  0  0  0  2  0  0  0  0  0  0
  188.6340  177.6130  144.4220 C   0  0  1  0  0  3  0  0  0  0  0  0
  189.4430  176.5670  145.1890 C   0  0  0  0  0  2  0  0  0  0  0  0
  184.3990  179.0680  141.7140 C   0  0  0  0  0  2  0  0  0  0  0  0
  183.4810  177.1700  140.6700 O   0  0  0  0  0  0  0  0  0  0  0  0
  183.4040  178.3780  140.8400 C   0  0  0  0  0  0  0  0  0  0  0  0
  182.7320  179.4650  138.7070 C   0  0  0  0  0  1  0  0  0  0  0  0
  182.3440  179.1820  140.1490 C   0  0  1  0  0  3  0  0  0  0  0  0
  180.6010  177.6880  139.1770 O   0  0  0  0  0  1  0  0  0  0  0  0
  181.0060  178.5070  140.2260 C   0  0  0  0  0  0  0  0  0  0  0  0
  180.1860  178.6460  141.2740 C   0  0  0  0  0  3  0  0  0  0  0  0
  180.4290  179.4550  142.4820 C   0  0  0  0  0  0  0  0  0  0  0  0
  181.0700  178.8130  143.6580 C   0  0  0  0  0  1  0  0  0  0  0  0
  180.1080  180.6720  142.5450 O   0  0  0  0  0  0  0  0  0  0  0  0
  1 14  1  0  0  0  0
  2 13  2  0  0  0  0
  2  3  1  0  0  0  0
  3  7  1  1  0  0  0
  3 19  1  0  0  0  0
  4 11  1  0  0  0  0
  5  2  1  0  0  0  0
  6 17  1  0  0  0  0
  6  1  2  0  0  0  0
  7  4  2  0  0  0  0
  8 21  1  0  0  0  0
  8 13  1  0  0  0  0
  9  1  1  0  0  0  0
 12  8  2  0  0  0  0
 13 18  1  0  0  0  0
 14  5  2  0  0  0  0
 15 11  1  0  0  0  0
 15 20  1  0  0  0  0
 16 12  1  0  0  0  0
 16  5  1  0  0  0  0
 17 16  2  0  0  0  0
 18 10  1  0  0  0  0
 19 10  1  6  0  0  0
 19 20  1  0  0  0  0
 22 23  2  0  0  0  0
 23 21  1  0  0  0  0
 25 24  1  6  0  0  0
 25 27  1  0  0  0  0
 25 23  1  0  0  0  0
 26 27  1  0  0  0  0
 27 28  2  0  0  0  0
 28 29  1  0  0  0  0
 29 31  2  0  0  0  0
 29 30  1  0  0  0  0
M  END
>  <MODEL>
3

>  <REMARK>
 VINA RESULT:      -8.3      2.373      4.140
  Name = 
  5 active torsions:
  status: ('A' for Active; 'I' for Inactive)
    1  A    between atoms: C_1  and  C_24
    2  A    between atoms: C_9  and  C_22
    3  A    between atoms: C_9  and  C_23
    4  A    between atoms: C_15  and  C_23
    5  A    between atoms: C_19  and  C_22
                            x       y       z     vdW  Elec       q    Type
                         _______ _______ _______ _____ _____    ______ ____

>  <TORSDO>
F 5

$$$$
=
 OpenBabel11052413123D

 31 34  0  0  1  0  0  0  0  0999 V2000
  184.9000  178.8700  140.3200 C   0  0  0  0  0  0  0  0  0  0  0  0
  188.2440  177.6240  139.2170 C   0  0  0  0  0  0  0  0  0  0  0  0
  188.0000  177.2770  137.7530 C   0  0  1  0  0  3  0  0  0  0  0  0
  187.5810  178.5940  135.6170 C   0  0  0  0  0  3  0  0  0  0  0  0
  187.2040  178.1480  140.0160 C   0  0  0  0  0  0  0  0  0  0  0  0
  185.1730  179.2020  141.6490 C   0  0  0  0  0  3  0  0  0  0  0  0
  187.6700  178.5200  136.9580 C   0  0  0  0  0  3  0  0  0  0  0  0
  189.7150  177.7400  141.1590 C   0  0  0  0  0  0  0  0  0  0  0  0
  183.6580  179.0610  139.8160 F   0  0  0  0  0  0  0  0  0  0  0  0
  190.0300  175.7420  138.0410 C   0  0  0  0  0  2  0  0  0  0  0  0
  187.8910  177.4850  134.6420 C   0  0  0  0  0  2  0  0  0  0  0  0
  188.7020  178.2760  141.8880 N   0  0  0  0  0  0  0  0  0  0  0  0
  189.5030  177.3840  139.8130 C   0  0  0  0  0  0  0  0  0  0  0  0
  185.9090  178.3460  139.5080 C   0  0  0  0  0  3  0  0  0  0  0  0
  187.4690  176.1130  135.1530 C   0  0  0  0  0  2  0  0  0  0  0  0
  187.4670  178.4760  141.3650 C   0  0  0  0  0  0  0  0  0  0  0  0
  186.4530  179.0050  142.1710 C   0  0  0  0  0  3  0  0  0  0  0  0
  190.6080  176.7510  139.0170 C   0  0  0  0  0  2  0  0  0  0  0  0
  189.1240  176.4760  137.0660 C   0  0  1  0  0  3  0  0  0  0  0  0
  188.5500  175.4940  136.0440 C   0  0  0  0  0  2  0  0  0  0  0  0
  191.0520  177.5690  141.8070 C   0  0  0  0  0  2  0  0  0  0  0  0
  190.5560  175.7350  143.1950 O   0  0  0  0  0  0  0  0  0  0  0  0
  190.9020  176.9060  143.1370 C   0  0  0  0  0  0  0  0  0  0  0  0
  191.3140  179.1720  144.0720 C   0  0  0  0  0  1  0  0  0  0  0  0
  191.1410  177.6970  144.3880 C   0  0  1  0  0  3  0  0  0  0  0  0
  188.7400  177.8340  145.0490 O   0  0  0  0  0  1  0  0  0  0  0  0
  190.0430  177.4840  145.3890 C   0  0  0  0  0  0  0  0  0  0  0  0
  190.2600  176.9520  146.5970 C   0  0  0  0  0  3  0  0  0  0  0  0
  191.5540  176.5080  147.1460 C   0  0  0  0  0  0  0  0  0  0  0  0
  192.1940  175.2930  146.5790 C   0  0  0  0  0  1  0  0  0  0  0  0
  192.1300  177.1280  148.0790 O   0  0  0  0  0  0  0  0  0  0  0  0
  1  6  1  0  0  0  0
  2 13  2  0  0  0  0
  2  5  1  0  0  0  0
  3  7  1  6  0  0  0
  3  2  1  0  0  0  0
  4  7  2  0  0  0  0
  5 16  2  0  0  0  0
  6 17  2  0  0  0  0
  8 21  1  0  0  0  0
  8 12  2  0  0  0  0
  9  1  1  0  0  0  0
 10 18  1  0  0  0  0
 11 15  1  0  0  0  0
 11  4  1  0  0  0  0
 13  8  1  0  0  0  0
 14  5  1  0  0  0  0
 14  1  2  0  0  0  0
 15 20  1  0  0  0  0
 16 12  1  0  0  0  0
 16 17  1  0  0  0  0
 18 13  1  0  0  0  0
 19 20  1  6  0  0  0
 19  3  1  0  0  0  0
 19 10  1  0  0  0  0
 21 23  1  0  0  0  0
 23 22  2  0  0  0  0
 23 25  1  0  0  0  0
 25 24  1  6  0  0  0
 25 27  1  0  0  0  0
 26 27  1  0  0  0  0
 27 28  2  0  0  0  0
 28 29  1  0  0  0  0
 29 31  2  0  0  0  0
 30 29  1  0  0  0  0
M  END
>  <MODEL>
4

>  <REMARK>
 VINA RESULT:      -8.2      4.463      7.970
  Name = 
  5 active torsions:
  status: ('A' for Active; 'I' for Inactive)
    1  A    between atoms: C_1  and  C_24
    2  A    between atoms: C_9  and  C_22
    3  A    between atoms: C_9  and  C_23
    4  A    between atoms: C_15  and  C_23
    5  A    between atoms: C_19  and  C_22
                            x       y       z     vdW  Elec       q    Type
                         _______ _______ _______ _____ _____    ______ ____

>  <TORSDO>
F 5

$$$$
=
 OpenBabel11052413123D

 31 34  0  0  1  0  0  0  0  0999 V2000
  184.9380  178.5970  145.5040 C   0  0  0  0  0  0  0  0  0  0  0  0
  186.6110  178.2290  142.1850 C   0  0  0  0  0  0  0  0  0  0  0  0
  188.0080  177.7560  142.5700 C   0  0  1  0  0  3  0  0  0  0  0  0
  189.0050  175.6150  143.5180 C   0  0  0  0  0  3  0  0  0  0  0  0
  185.6390  178.4860  143.1770 C   0  0  0  0  0  0  0  0  0  0  0  0
  183.6620  179.0030  145.1070 C   0  0  0  0  0  3  0  0  0  0  0  0
  187.9470  176.3950  143.2260 C   0  0  0  0  0  3  0  0  0  0  0  0
  184.9750  178.8740  140.4960 C   0  0  0  0  0  0  0  0  0  0  0  0
  185.2220  178.4480  146.8200 F   0  0  0  0  0  0  0  0  0  0  0  0
  188.6800  178.6850  140.2810 C   0  0  0  0  0  2  0  0  0  0  0  0
  190.4440  175.8970  143.1580 C   0  0  0  0  0  2  0  0  0  0  0  0
  184.0530  179.0760  141.4730 N   0  0  0  0  0  0  0  0  0  0  0  0
  186.2800  178.4650  140.8310 C   0  0  0  0  0  0  0  0  0  0  0  0
  185.9210  178.3400  144.5450 C   0  0  0  0  0  3  0  0  0  0  0  0
  190.7980  177.3750  143.2540 C   0  0  0  0  0  2  0  0  0  0  0  0
  184.3480  178.9080  142.7860 C   0  0  0  0  0  0  0  0  0  0  0  0
  183.3670  179.1580  143.7510 C   0  0  0  0  0  3  0  0  0  0  0  0
  187.3140  178.2830  139.7570 C   0  0  0  0  0  2  0  0  0  0  0  0
  189.0480  177.7640  141.4330 C   0  0  1  0  0  3  0  0  0  0  0  0
  190.4370  178.1180  141.9640 C   0  0  0  0  0  2  0  0  0  0  0  0
  184.5630  179.0660  139.0710 C   0  0  0  0  0  2  0  0  0  0  0  0
  182.2600  178.7700  138.6960 O   0  0  0  0  0  0  0  0  0  0  0  0
  183.3580  178.2390  138.7630 C   0  0  0  0  0  0  0  0  0  0  0  0
  182.5320  176.0030  139.4690 C   0  0  0  0  0  1  0  0  0  0  0  0
  183.5040  176.7580  138.5800 C   0  0  1  0  0  3  0  0  0  0  0  0
  182.0590  176.1410  136.6450 O   0  0  0  0  0  1  0  0  0  0  0  0
  183.3390  176.3650  137.1410 C   0  0  0  0  0  0  0  0  0  0  0  0
  184.3740  176.2360  136.3040 C   0  0  0  0  0  3  0  0  0  0  0  0
  185.7990  176.4360  136.6260 C   0  0  0  0  0  0  0  0  0  0  0  0
  186.4490  177.7140  136.2380 C   0  0  0  0  0  1  0  0  0  0  0  0
  186.4780  175.5560  137.2190 O   0  0  0  0  0  0  0  0  0  0  0  0
  1  9  1  0  0  0  0
  2  3  1  0  0  0  0
  2  5  1  0  0  0  0
  3  7  1  6  0  0  0
  5 14  1  0  0  0  0
  6  1  1  0  0  0  0
  7  4  2  0  0  0  0
  8 13  1  0  0  0  0
  8 12  2  0  0  0  0
 11 15  1  0  0  0  0
 11  4  1  0  0  0  0
 12 16  1  0  0  0  0
 13  2  2  0  0  0  0
 14  1  2  0  0  0  0
 16  5  2  0  0  0  0
 16 17  1  0  0  0  0
 17  6  2  0  0  0  0
 18 10  1  0  0  0  0
 18 13  1  0  0  0  0
 19 10  1  6  0  0  0
 19 20  1  0  0  0  0
 19  3  1  0  0  0  0
 20 15  1  0  0  0  0
 21  8  1  0  0  0  0
 22 23  2  0  0  0  0
 23 21  1  0  0  0  0
 25 23  1  0  0  0  0
 25 24  1  1  0  0  0
 26 27  1  0  0  0  0
 27 25  1  0  0  0  0
 28 29  1  0  0  0  0
 28 27  2  0  0  0  0
 29 31  2  0  0  0  0
 30 29  1  0  0  0  0
M  END
>  <MODEL>
5

>  <REMARK>
 VINA RESULT:      -8.2      2.210      3.674
  Name = 
  5 active torsions:
  status: ('A' for Active; 'I' for Inactive)
    1  A    between atoms: C_1  and  C_24
    2  A    between atoms: C_9  and  C_22
    3  A    between atoms: C_9  and  C_23
    4  A    between atoms: C_15  and  C_23
    5  A    between atoms: C_19  and  C_22
                            x       y       z     vdW  Elec       q    Type
                         _______ _______ _______ _____ _____    ______ ____

>  <TORSDO>
F 5

$$$$
=
 OpenBabel11052413123D

 31 34  0  0  1  0  0  0  0  0999 V2000
  185.0640  178.6070  145.6110 C   0  0  0  0  0  0  0  0  0  0  0  0
  186.6420  178.2180  142.2480 C   0  0  0  0  0  0  0  0  0  0  0  0
  188.0520  177.7550  142.5970 C   0  0  1  0  0  3  0  0  0  0  0  0
  189.0880  175.6280  143.5330 C   0  0  0  0  0  3  0  0  0  0  0  0
  185.6980  178.4790  143.2650 C   0  0  0  0  0  0  0  0  0  0  0  0
  183.7750  179.0030  145.2470 C   0  0  0  0  0  3  0  0  0  0  0  0
  188.0170  176.3990  143.2660 C   0  0  0  0  0  3  0  0  0  0  0  0
  184.9540  178.8390  140.6010 C   0  0  0  0  0  0  0  0  0  0  0  0
  185.3870  178.4710  146.9190 F   0  0  0  0  0  0  0  0  0  0  0  0
  188.6530  178.6670  140.2810 C   0  0  0  0  0  2  0  0  0  0  0  0
  190.5130  175.9130  143.1300 C   0  0  0  0  0  2  0  0  0  0  0  0
  184.0600  179.0450  141.6030 N   0  0  0  0  0  0  0  0  0  0  0  0
  186.2700  178.4400  140.9020 C   0  0  0  0  0  0  0  0  0  0  0  0
  186.0210  178.3470  144.6260 C   0  0  0  0  0  3  0  0  0  0  0  0
  190.8630  177.3950  143.2020 C   0  0  0  0  0  2  0  0  0  0  0  0
  184.3940  178.8900  142.9080 C   0  0  0  0  0  0  0  0  0  0  0  0
  183.4400  179.1450  143.8990 C   0  0  0  0  0  3  0  0  0  0  0  0
  187.2730  178.2530  139.8010 C   0  0  0  0  0  2  0  0  0  0  0  0
  189.0580  177.7580  141.4290 C   0  0  1  0  0  3  0  0  0  0  0  0
  190.4600  178.1240  141.9170 C   0  0  0  0  0  2  0  0  0  0  0  0
  184.5000  179.0160  139.1880 C   0  0  0  0  0  2  0  0  0  0  0  0
  183.4840  176.8960  139.1110 O   0  0  0  0  0  0  0  0  0  0  0  0
  183.3660  178.0910  138.8870 C   0  0  0  0  0  0  0  0  0  0  0  0
  181.3740  177.5570  137.4990 C   0  0  0  0  0  1  0  0  0  0  0  0
  182.1100  178.6350  138.2750 C   0  0  1  0  0  3  0  0  0  0  0  0
  180.6060  178.4400  140.2530 O   0  0  0  0  0  1  0  0  0  0  0  0
  181.2210  179.2580  139.3120 C   0  0  0  0  0  0  0  0  0  0  0  0
  181.0060  180.5760  139.3800 C   0  0  0  0  0  3  0  0  0  0  0  0
  181.5660  181.6090  138.4900 C   0  0  0  0  0  0  0  0  0  0  0  0
  180.7920  182.0180  137.2900 C   0  0  0  0  0  1  0  0  0  0  0  0
  182.6800  182.1520  138.7170 O   0  0  0  0  0  0  0  0  0  0  0  0
  1  9  1  0  0  0  0
  2  3  1  0  0  0  0
  2  5  1  0  0  0  0
  3  7  1  6  0  0  0
  5 14  1  0  0  0  0
  6  1  1  0  0  0  0
  7  4  2  0  0  0  0
  8 13  1  0  0  0  0
  8 12  2  0  0  0  0
 11 15  1  0  0  0  0
 11  4  1  0  0  0  0
 12 16  1  0  0  0  0
 13  2  2  0  0  0  0
 14  1  2  0  0  0  0
 16  5  2  0  0  0  0
 16 17  1  0  0  0  0
 17  6  2  0  0  0  0
 18 10  1  0  0  0  0
 18 13  1  0  0  0  0
 19 10  1  6  0  0  0
 19 20  1  0  0  0  0
 19  3  1  0  0  0  0
 20 15  1  0  0  0  0
 21  8  1  0  0  0  0
 23 22  2  0  0  0  0
 23 21  1  0  0  0  0
 25 24  1  1  0  0  0
 25 23  1  0  0  0  0
 25 27  1  0  0  0  0
 27 28  2  0  0  0  0
 27 26  1  0  0  0  0
 29 31  2  0  0  0  0
 29 28  1  0  0  0  0
 30 29  1  0  0  0  0
M  END
>  <MODEL>
6

>  <REMARK>
 VINA RESULT:      -8.2      1.474      2.233
  Name = 
  5 active torsions:
  status: ('A' for Active; 'I' for Inactive)
    1  A    between atoms: C_1  and  C_24
    2  A    between atoms: C_9  and  C_22
    3  A    between atoms: C_9  and  C_23
    4  A    between atoms: C_15  and  C_23
    5  A    between atoms: C_19  and  C_22
                            x       y       z     vdW  Elec       q    Type
                         _______ _______ _______ _____ _____    ______ ____

>  <TORSDO>
F 5

$$$$
=
 OpenBabel11052413123D

 31 34  0  0  1  0  0  0  0  0999 V2000
  190.6730  177.1780  139.0250 C   0  0  0  0  0  0  0  0  0  0  0  0
  188.4340  177.9830  141.9040 C   0  0  0  0  0  0  0  0  0  0  0  0
  189.3370  177.7280  143.1060 C   0  0  1  0  0  3  0  0  0  0  0  0
  191.3690  178.8680  144.1290 C   0  0  0  0  0  3  0  0  0  0  0  0
  188.9150  177.7960  140.5900 C   0  0  0  0  0  0  0  0  0  0  0  0
  189.8220  177.4500  137.9520 C   0  0  0  0  0  3  0  0  0  0  0  0
  190.4950  178.6990  143.1180 C   0  0  0  0  0  3  0  0  0  0  0  0
  186.2780  178.6250  140.9630 C   0  0  0  0  0  0  0  0  0  0  0  0
  191.9380  176.7510  138.7960 F   0  0  0  0  0  0  0  0  0  0  0  0
  187.1350  177.4490  144.3820 C   0  0  0  0  0  2  0  0  0  0  0  0
  191.3050  178.1990  145.4800 C   0  0  0  0  0  2  0  0  0  0  0  0
  186.7850  178.4710  139.7120 N   0  0  0  0  0  0  0  0  0  0  0  0
  187.0850  178.3660  142.0870 C   0  0  0  0  0  0  0  0  0  0  0  0
  190.2220  177.3500  140.3370 C   0  0  0  0  0  3  0  0  0  0  0  0
  190.8110  176.7600  145.4060 C   0  0  0  0  0  2  0  0  0  0  0  0
  188.0580  178.0580  139.4970 C   0  0  0  0  0  0  0  0  0  0  0  0
  188.5170  177.8890  138.1860 C   0  0  0  0  0  3  0  0  0  0  0  0
  186.5160  178.4930  143.4700 C   0  0  0  0  0  2  0  0  0  0  0  0
  188.6290  177.7110  144.4750 C   0  0  1  0  0  3  0  0  0  0  0  0
  189.2810  176.6960  145.4150 C   0  0  0  0  0  2  0  0  0  0  0  0
  184.8680  179.1010  141.1110 C   0  0  0  0  0  2  0  0  0  0  0  0
  184.2350  180.1260  139.0910 O   0  0  0  0  0  0  0  0  0  0  0  0
  184.1840  179.1210  139.7830 C   0  0  0  0  0  0  0  0  0  0  0  0
  182.3590  177.5350  140.3610 C   0  0  0  0  0  1  0  0  0  0  0  0
  183.4090  177.9190  139.3330 C   0  0  1  0  0  3  0  0  0  0  0  0
  181.7050  179.0030  137.8720 O   0  0  0  0  0  1  0  0  0  0  0  0
  182.7900  178.1400  137.9840 C   0  0  0  0  0  0  0  0  0  0  0  0
  183.2490  177.5520  136.8740 C   0  0  0  0  0  3  0  0  0  0  0  0
  184.3860  176.6180  136.7760 C   0  0  0  0  0  0  0  0  0  0  0  0
  185.6600  177.1000  136.1840 C   0  0  0  0  0  1  0  0  0  0  0  0
  184.3050  175.4270  137.1780 O   0  0  0  0  0  0  0  0  0  0  0  0
  1 14  1  0  0  0  0
  2 13  2  0  0  0  0
  2  3  1  0  0  0  0
  3  7  1  1  0  0  0
  3 19  1  0  0  0  0
  4 11  1  0  0  0  0
  5  2  1  0  0  0  0
  6 17  1  0  0  0  0
  6  1  2  0  0  0  0
  7  4  2  0  0  0  0
  8 21  1  0  0  0  0
  8 13  1  0  0  0  0
  9  1  1  0  0  0  0
 12  8  2  0  0  0  0
 13 18  1  0  0  0  0
 14  5  2  0  0  0  0
 15 20  1  0  0  0  0
 15 11  1  0  0  0  0
 16 12  1  0  0  0  0
 16  5  1  0  0  0  0
 17 16  2  0  0  0  0
 18 10  1  0  0  0  0
 19 10  1  6  0  0  0
 19 20  1  0  0  0  0
 22 23  2  0  0  0  0
 23 21  1  0  0  0  0
 25 23  1  0  0  0  0
 25 24  1  1  0  0  0
 26 27  1  0  0  0  0
 27 25  1  0  0  0  0
 28 27  2  0  0  0  0
 29 28  1  0  0  0  0
 29 31  2  0  0  0  0
 30 29  1  0  0  0  0
M  END
>  <MODEL>
7

>  <REMARK>
 VINA RESULT:      -8.1      3.008      5.291
  Name = 
  5 active torsions:
  status: ('A' for Active; 'I' for Inactive)
    1  A    between atoms: C_1  and  C_24
    2  A    between atoms: C_9  and  C_22
    3  A    between atoms: C_9  and  C_23
    4  A    between atoms: C_15  and  C_23
    5  A    between atoms: C_19  and  C_22
                            x       y       z     vdW  Elec       q    Type
                         _______ _______ _______ _____ _____    ______ ____

>  <TORSDO>
F 5

$$$$
=
 OpenBabel11052413123D

 31 34  0  0  1  0  0  0  0  0999 V2000
  186.7110  178.4820  138.4650 C   0  0  0  0  0  0  0  0  0  0  0  0
  184.8220  178.3310  141.6830 C   0  0  0  0  0  0  0  0  0  0  0  0
  183.3730  178.4160  141.2200 C   0  0  1  0  0  3  0  0  0  0  0  0
  181.7640  176.8760  139.9890 C   0  0  0  0  0  3  0  0  0  0  0  0
  185.8800  178.3500  140.7480 C   0  0  0  0  0  0  0  0  0  0  0  0
  188.0240  178.3740  138.9300 C   0  0  0  0  0  3  0  0  0  0  0  0
  183.0050  177.2030  140.3950 C   0  0  0  0  0  3  0  0  0  0  0  0
  186.4790  178.1710  143.4660 C   0  0  0  0  0  0  0  0  0  0  0  0
  186.4710  178.5940  137.1370 F   0  0  0  0  0  0  0  0  0  0  0  0
  182.9240  179.2480  143.5990 C   0  0  0  0  0  2  0  0  0  0  0  0
  180.4890  177.5930  140.3600 C   0  0  0  0  0  2  0  0  0  0  0  0
  187.4690  178.1550  142.5370 N   0  0  0  0  0  0  0  0  0  0  0  0
  185.1350  178.2790  143.0610 C   0  0  0  0  0  0  0  0  0  0  0  0
  185.6450  178.4700  139.3680 C   0  0  0  0  0  3  0  0  0  0  0  0
  180.6640  179.1030  140.4520 C   0  0  0  0  0  2  0  0  0  0  0  0
  187.2120  178.2520  141.2090 C   0  0  0  0  0  0  0  0  0  0  0  0
  188.2740  178.2590  140.2990 C   0  0  0  0  0  3  0  0  0  0  0  0
  184.0400  178.3410  144.0870 C   0  0  0  0  0  2  0  0  0  0  0  0
  182.3330  178.6500  142.3330 C   0  0  1  0  0  3  0  0  0  0  0  0
  181.1810  179.5210  141.8310 C   0  0  0  0  0  2  0  0  0  0  0  0
  186.8480  178.0420  144.9100 C   0  0  0  0  0  2  0  0  0  0  0  0
  188.4480  176.3960  144.3990 O   0  0  0  0  0  0  0  0  0  0  0  0
  188.1880  177.3980  145.0470 C   0  0  0  0  0  0  0  0  0  0  0  0
  188.6030  178.0460  147.4110 C   0  0  0  0  0  1  0  0  0  0  0  0
  189.1860  177.9670  146.0110 C   0  0  1  0  0  3  0  0  0  0  0  0
  190.6880  176.2400  146.9990 O   0  0  0  0  0  1  0  0  0  0  0  0
  190.4660  177.1830  146.0020 C   0  0  0  0  0  0  0  0  0  0  0  0
  191.4020  177.3400  145.0590 C   0  0  0  0  0  3  0  0  0  0  0  0
  191.3570  178.2720  143.9180 C   0  0  0  0  0  0  0  0  0  0  0  0
  191.1600  177.7240  142.5520 C   0  0  0  0  0  1  0  0  0  0  0  0
  191.4820  179.5170  144.0700 O   0  0  0  0  0  0  0  0  0  0  0  0
  1  6  2  0  0  0  0
  1 14  1  0  0  0  0
  2 13  2  0  0  0  0
  3  7  1  1  0  0  0
  3  2  1  0  0  0  0
  3 19  1  0  0  0  0
  4 11  1  0  0  0  0
  4  7  2  0  0  0  0
  5 16  1  0  0  0  0
  5  2  1  0  0  0  0
  6 17  1  0  0  0  0
  8 21  1  0  0  0  0
  9  1  1  0  0  0  0
 10 18  1  0  0  0  0
 11 15  1  0  0  0  0
 12  8  2  0  0  0  0
 13  8  1  0  0  0  0
 13 18  1  0  0  0  0
 14  5  2  0  0  0  0
 15 20  1  0  0  0  0
 16 12  1  0  0  0  0
 17 16  2  0  0  0  0
 19 20  1  6  0  0  0
 19 10  1  0  0  0  0
 21 23  1  0  0  0  0
 22 23  2  0  0  0  0
 23 25  1  0  0  0  0
 25 24  1  1  0  0  0
 27 25  1  0  0  0  0
 27 26  1  0  0  0  0
 28 27  2  0  0  0  0
 29 31  2  0  0  0  0
 29 28  1  0  0  0  0
 30 29  1  0  0  0  0
M  END
>  <MODEL>
8

>  <REMARK>
 VINA RESULT:      -8.1      3.745      8.296
  Name = 
  5 active torsions:
  status: ('A' for Active; 'I' for Inactive)
    1  A    between atoms: C_1  and  C_24
    2  A    between atoms: C_9  and  C_22
    3  A    between atoms: C_9  and  C_23
    4  A    between atoms: C_15  and  C_23
    5  A    between atoms: C_19  and  C_22
                            x       y       z     vdW  Elec       q    Type
                         _______ _______ _______ _____ _____    ______ ____

>  <TORSDO>
F 5

$$$$
=
 OpenBabel11052413123D

 31 34  0  0  1  0  0  0  0  0999 V2000
  182.1090  178.7080  143.5940 C   0  0  0  0  0  0  0  0  0  0  0  0
  184.2930  178.6320  140.5650 C   0  0  0  0  0  0  0  0  0  0  0  0
  183.2810  178.5180  139.4310 C   0  0  1  0  0  3  0  0  0  0  0  0
  181.5530  180.0580  138.3740 C   0  0  0  0  0  3  0  0  0  0  0  0
  183.8640  178.6980  141.9090 C   0  0  0  0  0  0  0  0  0  0  0  0
  183.0680  178.8410  144.6010 C   0  0  0  0  0  3  0  0  0  0  0  0
  182.4150  179.7560  139.3630 C   0  0  0  0  0  3  0  0  0  0  0  0
  186.5970  178.7640  141.3540 C   0  0  0  0  0  0  0  0  0  0  0  0
  180.7950  178.6530  143.9140 F   0  0  0  0  0  0  0  0  0  0  0  0
  185.2500  177.5550  138.1080 C   0  0  0  0  0  2  0  0  0  0  0  0
  181.3550  179.2780  137.0970 C   0  0  0  0  0  2  0  0  0  0  0  0
  186.1480  178.8620  142.6320 N   0  0  0  0  0  0  0  0  0  0  0  0
  185.6800  178.6280  140.2940 C   0  0  0  0  0  0  0  0  0  0  0  0
  182.5050  178.6370  142.2560 C   0  0  0  0  0  3  0  0  0  0  0  0
  181.4630  177.7720  137.3010 C   0  0  0  0  0  2  0  0  0  0  0  0
  184.8270  178.8210  142.9360 C   0  0  0  0  0  0  0  0  0  0  0  0
  184.4240  178.8970  144.2730 C   0  0  0  0  0  3  0  0  0  0  0  0
  186.1740  178.4760  138.8840 C   0  0  0  0  0  2  0  0  0  0  0  0
  183.8720  178.1920  138.0460 C   0  0  1  0  0  3  0  0  0  0  0  0
  182.9210  177.3060  137.2400 C   0  0  0  0  0  2  0  0  0  0  0  0
  188.0700  178.8350  141.1040 C   0  0  0  0  0  2  0  0  0  0  0  0
  189.2310  176.8240  140.7330 O   0  0  0  0  0  0  0  0  0  0  0  0
  188.7350  177.5770  141.5570 C   0  0  0  0  0  0  0  0  0  0  0  0
  188.8480  175.7310  143.2190 C   0  0  0  0  0  1  0  0  0  0  0  0
  188.7500  177.2330  143.0160 C   0  0  1  0  0  3  0  0  0  0  0  0
  190.9710  178.3660  143.0180 O   0  0  0  0  0  1  0  0  0  0  0  0
  189.8550  177.9500  143.7360 C   0  0  0  0  0  0  0  0  0  0  0  0
  189.8060  178.2220  145.0450 C   0  0  0  0  0  3  0  0  0  0  0  0
  188.7170  177.8780  145.9770 C   0  0  0  0  0  0  0  0  0  0  0  0
  189.0360  177.0780  147.1880 C   0  0  0  0  0  1  0  0  0  0  0  0
  187.5270  178.2420  145.7760 O   0  0  0  0  0  0  0  0  0  0  0  0
  1  9  1  0  0  0  0
  1  6  1  0  0  0  0
  2  5  1  0  0  0  0
  3  7  1  6  0  0  0
  3  2  1  0  0  0  0
  4  7  2  0  0  0  0
  5 14  1  0  0  0  0
  5 16  2  0  0  0  0
  8 12  2  0  0  0  0
 10 18  1  0  0  0  0
 11 15  1  0  0  0  0
 11  4  1  0  0  0  0
 12 16  1  0  0  0  0
 13  2  2  0  0  0  0
 13  8  1  0  0  0  0
 14  1  2  0  0  0  0
 16 17  1  0  0  0  0
 17  6  2  0  0  0  0
 18 13  1  0  0  0  0
 19 20  1  1  0  0  0
 19 10  1  0  0  0  0
 19  3  1  0  0  0  0
 20 15  1  0  0  0  0
 21  8  1  0  0  0  0
 21 23  1  0  0  0  0
 22 23  2  0  0  0  0
 23 25  1  0  0  0  0
 25 24  1  6  0  0  0
 25 27  1  0  0  0  0
 26 27  1  0  0  0  0
 27 28  2  0  0  0  0
 28 29  1  0  0  0  0
 29 30  1  0  0  0  0
 31 29  2  0  0  0  0
M  END
>  <MODEL>
9

>  <REMARK>
 VINA RESULT:      -8.0      3.191      7.157
  Name = 
  5 active torsions:
  status: ('A' for Active; 'I' for Inactive)
    1  A    between atoms: C_1  and  C_24
    2  A    between atoms: C_9  and  C_22
    3  A    between atoms: C_9  and  C_23
    4  A    between atoms: C_15  and  C_23
    5  A    between atoms: C_19  and  C_22
                            x       y       z     vdW  Elec       q    Type
                         _______ _______ _______ _____ _____    ______ ____

>  <TORSDO>
F 5

$$$$
