=
 OpenBabel11052416033D

 34 39  0  0  1  0  0  0  0  0999 V2000
  183.8070  176.3210  137.0600 C   0  0  2  0  0  0  0  0  0  0  0  0
  179.3920  177.9900  137.7990 O   0  0  0  0  0  1  0  0  0  0  0  0
  181.7020  177.2110  136.1030 C   0  0  0  0  0  2  0  0  0  0  0  0
  183.7390  173.8050  136.6800 C   0  0  0  0  0  2  0  0  0  0  0  0
  183.5050  174.0680  135.3260 O   0  0  0  0  0  0  0  0  0  0  0  0
  182.9440  176.3800  135.7580 C   0  0  2  0  0  3  0  0  0  0  0  0
  184.5170  174.9660  137.2830 C   0  0  0  0  0  2  0  0  0  0  0  0
  182.4560  174.9950  135.3110 C   0  0  0  0  0  2  0  0  0  0  0  0
  180.5370  177.4600  138.3850 C   0  0  0  0  0  0  0  0  0  0  0  0
  180.6320  177.2640  139.7840 C   0  0  0  0  0  0  0  0  0  0  0  0
  181.8170  176.7170  140.3200 C   0  0  0  0  0  3  0  0  0  0  0  0
  181.6230  177.1050  137.5790 C   0  0  0  0  0  0  0  0  0  0  0  0
  182.8920  176.3740  139.4920 C   0  0  0  0  0  3  0  0  0  0  0  0
  182.7740  176.5810  138.1150 C   0  0  0  0  0  0  0  0  0  0  0  0
  185.4440  177.7790  138.4200 C   0  0  1  0  0  3  0  0  0  0  0  0
  187.2840  176.7690  136.1750 C   0  0  2  0  0  3  0  0  0  0  0  0
  188.8690  177.9430  140.7200 C   0  0  0  0  0  1  0  0  0  0  0  0
  185.9040  177.3260  135.8790 C   0  0  2  0  0  0  0  0  0  0  0  0
  184.8610  177.4660  137.0230 C   0  0  1  0  0  3  0  0  0  0  0  0
  189.7910  177.3620  138.3780 C   0  0  2  0  0  3  0  0  0  0  0  0
  187.7270  178.6480  138.6750 O   0  0  0  0  0  0  0  0  0  0  0  0
  191.1070  176.9640  139.0380 C   0  0  0  0  0  1  0  0  0  0  0  0
  186.9340  177.4750  138.6570 C   0  0  2  0  0  3  0  0  0  0  0  0
  185.4330  177.0240  134.5980 O   0  0  0  0  0  1  0  0  0  0  0  0
  187.5420  178.5470  134.5970 O   0  0  0  0  0  1  0  0  0  0  0  0
  188.9860  178.3480  139.2480 C   0  0  1  0  0  3  0  0  0  0  0  0
  188.9400  176.1850  137.9630 C   0  0  0  0  0  0  0  0  0  0  0  0
  187.4890  176.4330  137.6670 C   0  0  2  0  0  3  0  0  0  0  0  0
  189.5000  175.0580  137.5120 C   0  0  0  0  0  2  0  0  0  0  0  0
  187.1020  178.2670  135.8930 C   0  0  2  0  0  3  0  0  0  0  0  0
  185.0230  179.1600  138.8970 C   0  0  0  0  0  1  0  0  0  0  0  0
  179.5280  177.6140  140.7070 C   0  0  0  0  0  0  0  0  0  0  0  0
  179.1310  178.9340  140.8820 O   0  0  0  0  0  0  0  0  0  0  0  0
  178.9330  176.7100  141.3520 O   0  0  0  0  0  1  0  0  0  0  0  0
  1  7  1  1  0  0  0
  1 14  1  0  0  0  0
  2  9  1  0  0  0  0
  3 12  1  0  0  0  0
  4  7  1  0  0  0  0
  5  4  1  0  0  0  0
  6  8  1  1  0  0  0
  6  3  1  0  0  0  0
  6  1  1  0  0  0  0
  8  5  1  0  0  0  0
  9 10  1  0  0  0  0
 10 11  2  0  0  0  0
 10 32  1  0  0  0  0
 12 14  1  0  0  0  0
 12  9  2  0  0  0  0
 13 11  1  0  0  0  0
 14 13  2  0  0  0  0
 15 23  1  0  0  0  0
 15 31  1  6  0  0  0
 16 28  1  0  0  0  0
 18 30  1  0  0  0  0
 18 16  1  0  0  0  0
 18 19  1  0  0  0  0
 19  1  1  0  0  0  0
 19 15  1  0  0  0  0
 20 22  1  0  0  0  0
 20 26  1  0  0  0  0
 21 26  1  0  0  0  0
 23 21  1  0  0  0  0
 24 18  1  0  0  0  0
 25 30  1  0  0  0  0
 26 17  1  0  0  0  0
 27 20  1  0  0  0  0
 28 27  1  0  0  0  0
 28 23  1  0  0  0  0
 29 27  2  0  0  0  0
 30 16  1  0  0  0  0
 32 33  2  0  0  0  0
 32 34  1  0  0  0  0
M  END
>  <MODEL>
1

>  <REMARK>
 VINA RESULT:      -5.4      0.000      0.000
  Name = 
  2 active torsions:
  status: ('A' for Active; 'I' for Inactive)
    1  A    between atoms: C_1  and  C_9
    2  A    between atoms: C_3  and  C_25
                            x       y       z     vdW  Elec       q    Type
                         _______ _______ _______ _____ _____    ______ ____

>  <TORSDO>
F 2

$$$$
=
 OpenBabel11052416033D

 34 39  0  0  1  0  0  0  0  0999 V2000
  180.2880  178.8850  140.0830 C   0  0  2  0  0  0  0  0  0  0  0  0
  184.6140  180.3260  138.6550 O   0  0  0  0  0  1  0  0  0  0  0  0
  181.6440  180.3340  138.6000 C   0  0  0  0  0  2  0  0  0  0  0  0
  179.4340  180.3960  141.9450 C   0  0  0  0  0  2  0  0  0  0  0  0
  178.9320  181.2460  140.9550 O   0  0  0  0  0  0  0  0  0  0  0  0
  180.2510  180.1910  139.2250 C   0  0  2  0  0  3  0  0  0  0  0  0
  179.4850  178.9750  141.4000 C   0  0  0  0  0  2  0  0  0  0  0  0
  180.0000  181.4460  140.0720 C   0  0  0  0  0  2  0  0  0  0  0  0
  183.9000  179.5190  139.5350 C   0  0  0  0  0  0  0  0  0  0  0  0
  184.5540  178.6930  140.4810 C   0  0  0  0  0  0  0  0  0  0  0  0
  183.7770  177.9020  141.3520 C   0  0  0  0  0  3  0  0  0  0  0  0
  182.5020  179.5240  139.4950 C   0  0  0  0  0  0  0  0  0  0  0  0
  182.3790  177.9200  141.2890 C   0  0  0  0  0  3  0  0  0  0  0  0
  181.7570  178.7420  140.3440 C   0  0  0  0  0  0  0  0  0  0  0  0
  180.1560  177.8220  137.7360 C   0  0  1  0  0  3  0  0  0  0  0  0
  181.1610  175.4430  139.4030 C   0  0  2  0  0  3  0  0  0  0  0  0
  182.1790  176.0660  134.5940 C   0  0  0  0  0  1  0  0  0  0  0  0
  180.0000  176.3030  139.8670 C   0  0  2  0  0  0  0  0  0  0  0  0
  179.7610  177.6980  139.2250 C   0  0  1  0  0  3  0  0  0  0  0  0
  182.3910  174.2940  136.4610 C   0  0  2  0  0  3  0  0  0  0  0  0
  180.4840  175.8270  136.3420 O   0  0  0  0  0  0  0  0  0  0  0  0
  183.4960  173.6270  135.6470 C   0  0  0  0  0  1  0  0  0  0  0  0
  181.1330  176.7780  137.1670 C   0  0  2  0  0  3  0  0  0  0  0  0
  179.6790  176.1390  141.2180 O   0  0  0  0  0  1  0  0  0  0  0  0
  179.2990  173.9950  139.7930 O   0  0  0  0  0  1  0  0  0  0  0  0
  181.4550  175.1400  135.5750 C   0  0  1  0  0  3  0  0  0  0  0  0
  182.9020  175.0980  137.6330 C   0  0  0  0  0  0  0  0  0  0  0  0
  181.9730  176.0950  138.2630 C   0  0  2  0  0  3  0  0  0  0  0  0
  183.9740  174.6980  138.3250 C   0  0  0  0  0  2  0  0  0  0  0  0
  179.7250  175.0720  139.0120 C   0  0  2  0  0  3  0  0  0  0  0  0
  178.9360  178.0540  136.8590 C   0  0  0  0  0  1  0  0  0  0  0  0
  186.0290  178.6310  140.5880 C   0  0  0  0  0  0  0  0  0  0  0  0
  186.8140  178.2940  139.4910 O   0  0  0  0  0  0  0  0  0  0  0  0
  186.5950  178.8810  141.6850 O   0  0  0  0  0  1  0  0  0  0  0  0
  1 14  1  0  0  0  0
  1  7  1  1  0  0  0
  2  9  1  0  0  0  0
  3 12  1  0  0  0  0
  5  4  1  0  0  0  0
  6  3  1  1  0  0  0
  6  8  1  0  0  0  0
  6  1  1  0  0  0  0
  7  4  1  0  0  0  0
  8  5  1  0  0  0  0
  9 10  1  0  0  0  0
 10 32  1  0  0  0  0
 10 11  2  0  0  0  0
 12  9  2  0  0  0  0
 12 14  1  0  0  0  0
 13 11  1  0  0  0  0
 14 13  2  0  0  0  0
 15 31  1  6  0  0  0
 15 19  1  0  0  0  0
 16 18  1  0  0  0  0
 17 26  1  0  0  0  0
 18 24  1  0  0  0  0
 19 18  1  0  0  0  0
 19  1  1  0  0  0  0
 20 27  1  0  0  0  0
 21 23  1  0  0  0  0
 22 20  1  0  0  0  0
 23 15  1  0  0  0  0
 23 28  1  0  0  0  0
 26 21  1  0  0  0  0
 26 20  1  0  0  0  0
 27 28  1  0  0  0  0
 27 29  2  0  0  0  0
 28 16  1  0  0  0  0
 30 16  1  0  0  0  0
 30 25  1  0  0  0  0
 30 18  1  0  0  0  0
 32 34  1  0  0  0  0
 33 32  2  0  0  0  0
M  END
>  <MODEL>
2

>  <REMARK>
 VINA RESULT:      -5.2      3.087      6.983
  Name = 
  2 active torsions:
  status: ('A' for Active; 'I' for Inactive)
    1  A    between atoms: C_1  and  C_9
    2  A    between atoms: C_3  and  C_25
                            x       y       z     vdW  Elec       q    Type
                         _______ _______ _______ _____ _____    ______ ____

>  <TORSDO>
F 2

$$$$
=
 OpenBabel11052416033D

 34 39  0  0  1  0  0  0  0  0999 V2000
  183.6190  175.5800  136.8100 C   0  0  2  0  0  0  0  0  0  0  0  0
  188.2710  174.5660  137.2080 O   0  0  0  0  0  1  0  0  0  0  0  0
  185.3750  173.9830  137.5200 C   0  0  0  0  0  2  0  0  0  0  0  0
  182.7150  174.6910  134.6040 C   0  0  0  0  0  2  0  0  0  0  0  0
  182.4950  173.4690  135.2460 O   0  0  0  0  0  0  0  0  0  0  0  0
  183.8980  174.0740  137.1190 C   0  0  2  0  0  3  0  0  0  0  0  0
  182.6460  175.8110  135.6330 C   0  0  0  0  0  2  0  0  0  0  0  0
  183.7010  173.1740  135.8910 C   0  0  0  0  0  2  0  0  0  0  0  0
  187.3250  175.4820  136.7590 C   0  0  0  0  0  0  0  0  0  0  0  0
  187.7040  176.6950  136.1350 C   0  0  0  0  0  0  0  0  0  0  0  0
  186.7000  177.5820  135.6950 C   0  0  0  0  0  3  0  0  0  0  0  0
  185.9640  175.2020  136.9180 C   0  0  0  0  0  0  0  0  0  0  0  0
  185.3440  177.2820  135.8710 C   0  0  0  0  0  3  0  0  0  0  0  0
  184.9960  176.0790  136.4920 C   0  0  0  0  0  0  0  0  0  0  0  0
  183.4160  177.7720  138.1570 C   0  0  1  0  0  3  0  0  0  0  0  0
  180.4770  176.8830  138.0370 C   0  0  2  0  0  3  0  0  0  0  0  0
  181.9160  181.6140  138.3440 C   0  0  0  0  0  1  0  0  0  0  0  0
  181.5840  175.9130  138.4070 C   0  0  2  0  0  0  0  0  0  0  0  0
  183.0640  176.2680  138.0930 C   0  0  1  0  0  3  0  0  0  0  0  0
  179.7820  180.1680  138.5010 C   0  0  2  0  0  3  0  0  0  0  0  0
  181.9510  179.3680  139.3130 O   0  0  0  0  0  0  0  0  0  0  0  0
  178.9620  181.4150  138.1850 C   0  0  0  0  0  1  0  0  0  0  0  0
  182.2590  178.7810  138.0610 C   0  0  2  0  0  3  0  0  0  0  0  0
  181.2050  174.5700  138.3440 O   0  0  0  0  0  1  0  0  0  0  0  0
  179.9230  175.9260  140.1570 O   0  0  0  0  0  1  0  0  0  0  0  0
  181.1570  180.5210  139.1010 C   0  0  1  0  0  3  0  0  0  0  0  0
  179.9260  179.2240  137.3300 C   0  0  0  0  0  0  0  0  0  0  0  0
  181.0060  178.1820  137.3940 C   0  0  2  0  0  3  0  0  0  0  0  0
  178.9310  179.0590  136.4550 C   0  0  0  0  0  2  0  0  0  0  0  0
  180.8830  176.7040  139.5050 C   0  0  2  0  0  3  0  0  0  0  0  0
  184.3840  178.0630  139.2940 C   0  0  0  0  0  1  0  0  0  0  0  0
  189.1230  177.0660  135.9290 C   0  0  0  0  0  0  0  0  0  0  0  0
  189.7270  176.9260  134.6850 O   0  0  0  0  0  0  0  0  0  0  0  0
  189.8060  177.5140  136.8880 O   0  0  0  0  0  1  0  0  0  0  0  0
  1  7  1  6  0  0  0
  1  6  1  0  0  0  0
  1 19  1  0  0  0  0
  4  5  1  0  0  0  0
  4  7  1  0  0  0  0
  5  8  1  0  0  0  0
  6  8  1  6  0  0  0
  6  3  1  0  0  0  0
  9 12  1  0  0  0  0
  9  2  1  0  0  0  0
 10  9  2  0  0  0  0
 11 13  2  0  0  0  0
 11 10  1  0  0  0  0
 12  3  1  0  0  0  0
 13 14  1  0  0  0  0
 14  1  1  0  0  0  0
 14 12  2  0  0  0  0
 15 31  1  1  0  0  0
 16 18  1  0  0  0  0
 16 30  1  0  0  0  0
 17 26  1  0  0  0  0
 18 30  1  0  0  0  0
 19 15  1  0  0  0  0
 19 18  1  0  0  0  0
 20 26  1  0  0  0  0
 22 20  1  0  0  0  0
 23 15  1  0  0  0  0
 23 21  1  0  0  0  0
 24 18  1  0  0  0  0
 26 21  1  0  0  0  0
 27 28  1  0  0  0  0
 27 20  1  0  0  0  0
 28 16  1  0  0  0  0
 28 23  1  0  0  0  0
 29 27  2  0  0  0  0
 30 25  1  0  0  0  0
 32 10  1  0  0  0  0
 32 34  1  0  0  0  0
 33 32  2  0  0  0  0
M  END
>  <MODEL>
3

>  <REMARK>
 VINA RESULT:      -4.8      2.154      7.228
  Name = 
  2 active torsions:
  status: ('A' for Active; 'I' for Inactive)
    1  A    between atoms: C_1  and  C_9
    2  A    between atoms: C_3  and  C_25
                            x       y       z     vdW  Elec       q    Type
                         _______ _______ _______ _____ _____    ______ ____

>  <TORSDO>
F 2

$$$$
=
 OpenBabel11052416033D

 34 39  0  0  1  0  0  0  0  0999 V2000
  181.6840  177.1740  139.5690 C   0  0  2  0  0  0  0  0  0  0  0  0
  181.2170  180.2480  143.1970 O   0  0  0  0  0  1  0  0  0  0  0  0
  180.3100  178.8860  140.7180 C   0  0  0  0  0  2  0  0  0  0  0  0
  180.6650  174.9270  140.1910 C   0  0  0  0  0  2  0  0  0  0  0  0
  179.4340  175.4190  139.7440 O   0  0  0  0  0  0  0  0  0  0  0  0
  180.2240  177.7040  139.7450 C   0  0  2  0  0  3  0  0  0  0  0  0
  181.7850  175.6370  139.4430 C   0  0  0  0  0  2  0  0  0  0  0  0
  179.2900  176.6610  140.3730 C   0  0  0  0  0  2  0  0  0  0  0  0
  182.0120  179.2670  142.6120 C   0  0  0  0  0  0  0  0  0  0  0  0
  183.2510  178.8820  143.1780 C   0  0  0  0  0  0  0  0  0  0  0  0
  184.0100  177.8770  142.5430 C   0  0  0  0  0  3  0  0  0  0  0  0
  181.5800  178.6380  141.4400 C   0  0  0  0  0  0  0  0  0  0  0  0
  183.5580  177.2650  141.3680 C   0  0  0  0  0  3  0  0  0  0  0  0
  182.3330  177.6660  140.8280 C   0  0  0  0  0  0  0  0  0  0  0  0
  183.7720  178.3180  138.5750 C   0  0  1  0  0  3  0  0  0  0  0  0
  183.2050  176.1780  136.4440 C   0  0  2  0  0  3  0  0  0  0  0  0
  187.7230  177.9590  137.4290 C   0  0  0  0  0  1  0  0  0  0  0  0
  182.1000  177.0580  136.9980 C   0  0  2  0  0  0  0  0  0  0  0  0
  182.3230  177.8470  138.3180 C   0  0  1  0  0  3  0  0  0  0  0  0
  186.4970  176.4840  135.6980 C   0  0  2  0  0  3  0  0  0  0  0  0
  185.4150  178.4130  136.7530 O   0  0  0  0  0  0  0  0  0  0  0  0
  187.8440  175.8690  135.3290 C   0  0  0  0  0  1  0  0  0  0  0  0
  184.9010  177.6130  137.8020 C   0  0  2  0  0  3  0  0  0  0  0  0
  180.8120  176.5900  136.7230 O   0  0  0  0  0  1  0  0  0  0  0  0
  182.1470  177.2620  134.5940 O   0  0  0  0  0  1  0  0  0  0  0  0
  186.6580  177.8810  136.3310 C   0  0  1  0  0  3  0  0  0  0  0  0
  185.6390  175.5910  136.5630 C   0  0  0  0  0  0  0  0  0  0  0  0
  184.4890  176.2170  137.2990 C   0  0  2  0  0  3  0  0  0  0  0  0
  185.6470  174.2650  136.4010 C   0  0  0  0  0  2  0  0  0  0  0  0
  182.8700  177.5120  135.7630 C   0  0  2  0  0  3  0  0  0  0  0  0
  183.8710  179.8360  138.5450 C   0  0  0  0  0  1  0  0  0  0  0  0
  183.7790  179.4990  144.4150 C   0  0  0  0  0  0  0  0  0  0  0  0
  183.4310  179.0060  145.6670 O   0  0  0  0  0  1  0  0  0  0  0  0
  184.5550  180.4890  144.3470 O   0  0  0  0  0  0  0  0  0  0  0  0
  1  7  1  6  0  0  0
  1  6  1  0  0  0  0
  1 14  1  0  0  0  0
  3 12  1  0  0  0  0
  5  4  1  0  0  0  0
  5  8  1  0  0  0  0
  6  8  1  1  0  0  0
  6  3  1  0  0  0  0
  7  4  1  0  0  0  0
  9 10  1  0  0  0  0
  9  2  1  0  0  0  0
 10 32  1  0  0  0  0
 11 10  2  0  0  0  0
 12  9  2  0  0  0  0
 13 11  1  0  0  0  0
 14 13  2  0  0  0  0
 14 12  1  0  0  0  0
 15 31  1  6  0  0  0
 16 18  1  0  0  0  0
 16 28  1  0  0  0  0
 18 19  1  0  0  0  0
 19 15  1  0  0  0  0
 19  1  1  0  0  0  0
 20 26  1  0  0  0  0
 20 27  1  0  0  0  0
 21 23  1  0  0  0  0
 22 20  1  0  0  0  0
 23 15  1  0  0  0  0
 24 18  1  0  0  0  0
 25 30  1  0  0  0  0
 26 21  1  0  0  0  0
 26 17  1  0  0  0  0
 27 28  1  0  0  0  0
 28 23  1  0  0  0  0
 29 27  2  0  0  0  0
 30 16  1  0  0  0  0
 30 18  1  0  0  0  0
 32 33  1  0  0  0  0
 34 32  2  0  0  0  0
M  END
>  <MODEL>
4

>  <REMARK>
 VINA RESULT:      -4.8      2.609      4.456
  Name = 
  2 active torsions:
  status: ('A' for Active; 'I' for Inactive)
    1  A    between atoms: C_1  and  C_9
    2  A    between atoms: C_3  and  C_25
                            x       y       z     vdW  Elec       q    Type
                         _______ _______ _______ _____ _____    ______ ____

>  <TORSDO>
F 2

$$$$
=
 OpenBabel11052416033D

 34 39  0  0  1  0  0  0  0  0999 V2000
  188.0400  176.5050  136.7590 C   0  0  2  0  0  0  0  0  0  0  0  0
  192.2830  176.0030  134.6210 O   0  0  0  0  0  1  0  0  0  0  0  0
  189.8030  177.4810  135.3180 C   0  0  0  0  0  2  0  0  0  0  0  0
  188.3360  177.5780  139.0480 C   0  0  0  0  0  2  0  0  0  0  0  0
  188.2750  178.8240  138.4150 O   0  0  0  0  0  0  0  0  0  0  0  0
  188.6270  177.8540  136.2290 C   0  0  2  0  0  3  0  0  0  0  0  0
  187.5530  176.5640  138.2250 C   0  0  0  0  0  2  0  0  0  0  0  0
  189.1840  178.7370  137.3540 C   0  0  0  0  0  2  0  0  0  0  0  0
  191.3420  175.4230  135.4650 C   0  0  0  0  0  0  0  0  0  0  0  0
  191.5380  174.1360  136.0230 C   0  0  0  0  0  0  0  0  0  0  0  0
  190.5510  173.6030  136.8770 C   0  0  0  0  0  3  0  0  0  0  0  0
  190.1740  176.1230  135.7800 C   0  0  0  0  0  0  0  0  0  0  0  0
  189.3870  174.3220  137.1730 C   0  0  0  0  0  3  0  0  0  0  0  0
  189.2160  175.5880  136.6070 C   0  0  0  0  0  0  0  0  0  0  0  0
  186.5100  174.5680  136.0080 C   0  0  1  0  0  3  0  0  0  0  0  0
  184.4340  176.7370  136.6630 C   0  0  2  0  0  3  0  0  0  0  0  0
  183.5530  171.8740  137.0280 C   0  0  0  0  0  1  0  0  0  0  0  0
  185.6640  177.0440  135.8300 C   0  0  2  0  0  0  0  0  0  0  0  0
  186.8690  176.0620  135.8340 C   0  0  1  0  0  3  0  0  0  0  0  0
  182.3050  174.1360  137.1010 C   0  0  2  0  0  3  0  0  0  0  0  0
  184.2230  173.7620  135.6230 O   0  0  0  0  0  0  0  0  0  0  0  0
  181.1830  173.4460  137.8710 C   0  0  0  0  0  1  0  0  0  0  0  0
  185.1330  174.2290  136.6030 C   0  0  2  0  0  3  0  0  0  0  0  0
  185.9320  178.4090  135.6960 O   0  0  0  0  0  1  0  0  0  0  0  0
  183.6910  177.6770  134.5940 O   0  0  0  0  0  1  0  0  0  0  0  0
  183.1300  173.1350  136.2680 C   0  0  1  0  0  3  0  0  0  0  0  0
  183.2020  174.9880  137.9690 C   0  0  0  0  0  0  0  0  0  0  0  0
  184.5380  175.3940  137.4170 C   0  0  2  0  0  3  0  0  0  0  0  0
  182.7070  175.6660  139.0090 C   0  0  0  0  0  2  0  0  0  0  0  0
  184.3840  176.5920  135.1360 C   0  0  2  0  0  3  0  0  0  0  0  0
  186.8440  173.7720  134.7560 C   0  0  0  0  0  1  0  0  0  0  0  0
  192.7470  173.3300  135.7400 C   0  0  0  0  0  0  0  0  0  0  0  0
  193.9480  173.5840  136.3930 O   0  0  0  0  0  1  0  0  0  0  0  0
  192.7020  172.3990  134.8930 O   0  0  0  0  0  0  0  0  0  0  0  0
  1  7  1  1  0  0  0
  2  9  1  0  0  0  0
  3 12  1  0  0  0  0
  5  4  1  0  0  0  0
  6  3  1  6  0  0  0
  6  1  1  0  0  0  0
  6  8  1  0  0  0  0
  7  4  1  0  0  0  0
  8  5  1  0  0  0  0
  9 12  2  0  0  0  0
  9 10  1  0  0  0  0
 10 11  2  0  0  0  0
 11 13  1  0  0  0  0
 12 14  1  0  0  0  0
 14  1  1  0  0  0  0
 14 13  2  0  0  0  0
 15 31  1  6  0  0  0
 15 23  1  0  0  0  0
 16 28  1  0  0  0  0
 18 19  1  0  0  0  0
 18 16  1  0  0  0  0
 19 15  1  0  0  0  0
 19  1  1  0  0  0  0
 20 22  1  0  0  0  0
 20 27  1  0  0  0  0
 21 26  1  0  0  0  0
 21 23  1  0  0  0  0
 23 28  1  0  0  0  0
 24 18  1  0  0  0  0
 25 30  1  0  0  0  0
 26 17  1  0  0  0  0
 26 20  1  0  0  0  0
 27 29  2  0  0  0  0
 28 27  1  0  0  0  0
 30 18  1  0  0  0  0
 30 16  1  0  0  0  0
 32 10  1  0  0  0  0
 32 33  1  0  0  0  0
 34 32  2  0  0  0  0
M  END
>  <MODEL>
5

>  <REMARK>
 VINA RESULT:      -4.8      2.812      8.313
  Name = 
  2 active torsions:
  status: ('A' for Active; 'I' for Inactive)
    1  A    between atoms: C_1  and  C_9
    2  A    between atoms: C_3  and  C_25
                            x       y       z     vdW  Elec       q    Type
                         _______ _______ _______ _____ _____    ______ ____

>  <TORSDO>
F 2

$$$$
=
 OpenBabel11052416033D

 34 39  0  0  1  0  0  0  0  0999 V2000
  181.2280  177.9330  136.6750 C   0  0  2  0  0  0  0  0  0  0  0  0
  185.6390  177.1940  134.9960 O   0  0  0  0  0  1  0  0  0  0  0  0
  182.6930  177.4600  134.7330 C   0  0  0  0  0  2  0  0  0  0  0  0
  180.6340  180.4030  136.5180 C   0  0  0  0  0  2  0  0  0  0  0  0
  180.2020  180.1630  135.2090 O   0  0  0  0  0  0  0  0  0  0  0  0
  181.3170  178.0200  135.1160 C   0  0  2  0  0  3  0  0  0  0  0  0
  180.4910  179.1230  137.3300 C   0  0  0  0  0  2  0  0  0  0  0  0
  181.2520  179.4640  134.6020 C   0  0  0  0  0  2  0  0  0  0  0  0
  184.8660  177.4970  136.1120 C   0  0  0  0  0  0  0  0  0  0  0  0
  185.4500  177.7000  137.3860 C   0  0  0  0  0  0  0  0  0  0  0  0
  184.6160  178.0110  138.4790 C   0  0  0  0  0  3  0  0  0  0  0  0
  183.4790  177.6110  135.9800 C   0  0  0  0  0  0  0  0  0  0  0  0
  183.2290  178.1150  138.3230 C   0  0  0  0  0  3  0  0  0  0  0  0
  182.6770  177.9060  137.0560 C   0  0  0  0  0  0  0  0  0  0  0  0
  180.4750  175.5890  135.9010 C   0  0  1  0  0  3  0  0  0  0  0  0
  182.0150  174.8940  138.4680 C   0  0  2  0  0  3  0  0  0  0  0  0
  181.5860  171.8340  134.5940 C   0  0  0  0  0  1  0  0  0  0  0  0
  181.0000  176.0210  138.4330 C   0  0  2  0  0  0  0  0  0  0  0  0
  180.5280  176.5990  137.0700 C   0  0  1  0  0  3  0  0  0  0  0  0
  182.3990  171.8410  137.0460 C   0  0  2  0  0  3  0  0  0  0  0  0
  180.4740  173.1690  136.3160 O   0  0  0  0  0  0  0  0  0  0  0  0
  183.2520  170.6170  136.7240 C   0  0  0  0  0  1  0  0  0  0  0  0
  181.2910  174.2930  136.0400 C   0  0  2  0  0  3  0  0  0  0  0  0
  181.0860  176.8940  139.5210 O   0  0  0  0  0  1  0  0  0  0  0  0
  180.4070  174.4720  140.1850 O   0  0  0  0  0  1  0  0  0  0  0  0
  181.2130  171.9870  136.0710 C   0  0  1  0  0  3  0  0  0  0  0  0
  183.1900  173.1250  137.1350 C   0  0  0  0  0  0  0  0  0  0  0  0
  182.4380  174.4230  137.0600 C   0  0  2  0  0  3  0  0  0  0  0  0
  184.4310  173.1340  137.6320 C   0  0  0  0  0  2  0  0  0  0  0  0
  180.5440  174.6140  138.8020 C   0  0  2  0  0  3  0  0  0  0  0  0
  179.0450  175.3610  135.4350 C   0  0  0  0  0  1  0  0  0  0  0  0
  186.9100  177.5970  137.6100 C   0  0  0  0  0  0  0  0  0  0  0  0
  187.5410  176.3600  137.6690 O   0  0  0  0  0  0  0  0  0  0  0  0
  187.6030  178.6390  137.7550 O   0  0  0  0  0  1  0  0  0  0  0  0
  1 14  1  0  0  0  0
  1 19  1  0  0  0  0
  1  7  1  1  0  0  0
  2  9  1  0  0  0  0
  3  6  1  0  0  0  0
  3 12  1  0  0  0  0
  4  7  1  0  0  0  0
  5  4  1  0  0  0  0
  6  8  1  1  0  0  0
  6  1  1  0  0  0  0
  8  5  1  0  0  0  0
  9 10  1  0  0  0  0
 10 32  1  0  0  0  0
 10 11  2  0  0  0  0
 12  9  2  0  0  0  0
 12 14  1  0  0  0  0
 13 11  1  0  0  0  0
 14 13  2  0  0  0  0
 15 31  1  1  0  0  0
 15 23  1  0  0  0  0
 15 19  1  0  0  0  0
 16 30  1  0  0  0  0
 17 26  1  0  0  0  0
 18 16  1  0  0  0  0
 18 30  1  0  0  0  0
 18 24  1  0  0  0  0
 19 18  1  0  0  0  0
 20 27  1  0  0  0  0
 22 20  1  0  0  0  0
 23 21  1  0  0  0  0
 23 28  1  0  0  0  0
 26 21  1  0  0  0  0
 26 20  1  0  0  0  0
 27 29  2  0  0  0  0
 28 27  1  0  0  0  0
 28 16  1  0  0  0  0
 30 25  1  0  0  0  0
 32 33  2  0  0  0  0
 32 34  1  0  0  0  0
M  END
>  <MODEL>
6

>  <REMARK>
 VINA RESULT:      -4.5      2.215      6.884
  Name = 
  2 active torsions:
  status: ('A' for Active; 'I' for Inactive)
    1  A    between atoms: C_1  and  C_9
    2  A    between atoms: C_3  and  C_25
                            x       y       z     vdW  Elec       q    Type
                         _______ _______ _______ _____ _____    ______ ____

>  <TORSDO>
F 2

$$$$
=
 OpenBabel11052416033D

 34 39  0  0  1  0  0  0  0  0999 V2000
  186.7040  177.5080  137.4170 C   0  0  2  0  0  0  0  0  0  0  0  0
  190.6710  175.2080  138.7580 O   0  0  0  0  0  1  0  0  0  0  0  0
  188.1790  175.5320  137.1740 C   0  0  0  0  0  2  0  0  0  0  0  0
  187.1910  178.9950  135.4100 C   0  0  0  0  0  2  0  0  0  0  0  0
  186.9430  177.8870  134.5940 O   0  0  0  0  0  0  0  0  0  0  0  0
  187.1000  176.3460  136.4490 C   0  0  2  0  0  3  0  0  0  0  0  0
  186.4020  178.8450  136.7030 C   0  0  0  0  0  2  0  0  0  0  0  0
  187.7150  176.8540  135.1380 C   0  0  0  0  0  2  0  0  0  0  0  0
  189.8970  176.3550  138.9060 C   0  0  0  0  0  0  0  0  0  0  0  0
  190.2730  177.3940  139.7910 C   0  0  0  0  0  0  0  0  0  0  0  0
  189.4520  178.5360  139.8940 C   0  0  0  0  0  3  0  0  0  0  0  0
  188.7210  176.4940  138.1630 C   0  0  0  0  0  0  0  0  0  0  0  0
  188.2770  178.6500  139.1420 C   0  0  0  0  0  3  0  0  0  0  0  0
  187.9260  177.6080  138.2790 C   0  0  0  0  0  0  0  0  0  0  0  0
  184.7390  178.2700  138.9060 C   0  0  1  0  0  3  0  0  0  0  0  0
  183.2760  176.4990  136.8630 C   0  0  2  0  0  3  0  0  0  0  0  0
  181.1820  180.3480  139.1770 C   0  0  0  0  0  1  0  0  0  0  0  0
  184.5530  176.0390  137.5410 C   0  0  2  0  0  0  0  0  0  0  0  0
  185.4680  177.0700  138.2570 C   0  0  1  0  0  3  0  0  0  0  0  0
  180.5510  178.3450  137.6730 C   0  0  2  0  0  3  0  0  0  0  0  0
  182.3260  178.1930  139.3540 O   0  0  0  0  0  0  0  0  0  0  0  0
  179.2820  179.0940  137.2770 C   0  0  0  0  0  1  0  0  0  0  0  0
  183.3140  178.5870  138.4190 C   0  0  2  0  0  3  0  0  0  0  0  0
  185.1610  174.9440  136.9190 O   0  0  0  0  0  1  0  0  0  0  0  0
  182.8200  174.4030  137.9180 O   0  0  0  0  0  1  0  0  0  0  0  0
  181.1020  178.8260  139.0300 C   0  0  1  0  0  3  0  0  0  0  0  0
  181.6260  178.3690  136.6110 C   0  0  0  0  0  0  0  0  0  0  0  0
  183.0270  178.0150  137.0180 C   0  0  2  0  0  3  0  0  0  0  0  0
  181.3090  178.3320  135.3130 C   0  0  0  0  0  2  0  0  0  0  0  0
  183.2080  175.7190  138.1820 C   0  0  2  0  0  3  0  0  0  0  0  0
  184.8720  178.2420  140.4200 C   0  0  0  0  0  1  0  0  0  0  0  0
  191.5020  177.3240  140.6130 C   0  0  0  0  0  0  0  0  0  0  0  0
  192.7600  177.4440  140.0350 O   0  0  0  0  0  0  0  0  0  0  0  0
  191.4210  177.1490  141.8580 O   0  0  0  0  0  1  0  0  0  0  0  0
  1  7  1  6  0  0  0
  1 19  1  0  0  0  0
  1 14  1  0  0  0  0
  2  9  1  0  0  0  0
  3 12  1  0  0  0  0
  4  7  1  0  0  0  0
  5  8  1  0  0  0  0
  5  4  1  0  0  0  0
  6  8  1  6  0  0  0
  6  3  1  0  0  0  0
  6  1  1  0  0  0  0
  9 10  1  0  0  0  0
 10 11  2  0  0  0  0
 10 32  1  0  0  0  0
 12 14  1  0  0  0  0
 12  9  2  0  0  0  0
 13 11  1  0  0  0  0
 14 13  2  0  0  0  0
 15 31  1  1  0  0  0
 16 28  1  0  0  0  0
 16 18  1  0  0  0  0
 16 30  1  0  0  0  0
 18 30  1  0  0  0  0
 18 19  1  0  0  0  0
 19 15  1  0  0  0  0
 20 26  1  0  0  0  0
 22 20  1  0  0  0  0
 23 15  1  0  0  0  0
 23 21  1  0  0  0  0
 24 18  1  0  0  0  0
 25 30  1  0  0  0  0
 26 17  1  0  0  0  0
 26 21  1  0  0  0  0
 27 28  1  0  0  0  0
 27 20  1  0  0  0  0
 28 23  1  0  0  0  0
 29 27  2  0  0  0  0
 32 34  1  0  0  0  0
 33 32  2  0  0  0  0
M  END
>  <MODEL>
7

>  <REMARK>
 VINA RESULT:      -4.2      2.109      7.401
  Name = 
  2 active torsions:
  status: ('A' for Active; 'I' for Inactive)
    1  A    between atoms: C_1  and  C_9
    2  A    between atoms: C_3  and  C_25
                            x       y       z     vdW  Elec       q    Type
                         _______ _______ _______ _____ _____    ______ ____

>  <TORSDO>
F 2

$$$$
=
 OpenBabel11052416033D

 34 39  0  0  1  0  0  0  0  0999 V2000
  191.2220  175.6590  137.0730 C   0  0  2  0  0  0  0  0  0  0  0  0
  187.9490  179.0710  137.7620 O   0  0  0  0  0  1  0  0  0  0  0  0
  189.7710  177.4160  136.1000 C   0  0  0  0  0  2  0  0  0  0  0  0
  190.0800  173.4440  136.5560 C   0  0  0  0  0  2  0  0  0  0  0  0
  190.0560  173.8290  135.2120 O   0  0  0  0  0  0  0  0  0  0  0  0
  190.5400  176.1360  135.7500 C   0  0  2  0  0  3  0  0  0  0  0  0
  191.2550  174.1240  137.2450 C   0  0  0  0  0  2  0  0  0  0  0  0
  189.5190  175.1220  135.2140 C   0  0  0  0  0  2  0  0  0  0  0  0
  188.7160  178.0720  138.3540 C   0  0  0  0  0  0  0  0  0  0  0  0
  188.6430  177.8060  139.7430 C   0  0  0  0  0  0  0  0  0  0  0  0
  189.4400  176.7760  140.2850 C   0  0  0  0  0  3  0  0  0  0  0  0
  189.5770  177.3050  137.5640 C   0  0  0  0  0  0  0  0  0  0  0  0
  190.2980  176.0250  139.4740 C   0  0  0  0  0  3  0  0  0  0  0  0
  190.3540  176.3100  138.1070 C   0  0  0  0  0  0  0  0  0  0  0  0
  193.5570  175.4810  138.1550 C   0  0  1  0  0  3  0  0  0  0  0  0
  194.2890  175.4410  135.1710 C   0  0  2  0  0  3  0  0  0  0  0  0
  196.9780  173.2340  138.6990 C   0  0  0  0  0  1  0  0  0  0  0  0
  193.3120  176.4570  135.7340 C   0  0  2  0  0  0  0  0  0  0  0  0
  192.6710  176.2260  137.1310 C   0  0  1  0  0  3  0  0  0  0  0  0
  197.1040  173.8560  136.1950 C   0  0  2  0  0  3  0  0  0  0  0  0
  195.9840  175.2940  137.8310 O   0  0  0  0  0  0  0  0  0  0  0  0
  198.1620  172.7700  136.0200 C   0  0  0  0  0  1  0  0  0  0  0  0
  194.7380  174.6570  137.6130 C   0  0  2  0  0  3  0  0  0  0  0  0
  192.5480  177.1080  134.7610 O   0  0  0  0  0  1  0  0  0  0  0  0
  195.0940  177.6170  134.5940 O   0  0  0  0  0  1  0  0  0  0  0  0
  197.0240  174.3510  137.6530 C   0  0  1  0  0  3  0  0  0  0  0  0
  195.7400  173.4620  135.6800 C   0  0  0  0  0  0  0  0  0  0  0  0
  194.5550  174.2650  136.1340 C   0  0  2  0  0  3  0  0  0  0  0  0
  195.6120  172.6940  134.5940 C   0  0  0  0  0  2  0  0  0  0  0  0
  194.7980  176.7940  135.6830 C   0  0  2  0  0  3  0  0  0  0  0  0
  193.9310  176.3850  139.3200 C   0  0  0  0  0  1  0  0  0  0  0  0
  187.7570  178.5730  140.6480 C   0  0  0  0  0  0  0  0  0  0  0  0
  186.4620  178.9060  140.2710 O   0  0  0  0  0  0  0  0  0  0  0  0
  188.1730  178.9390  141.7790 O   0  0  0  0  0  1  0  0  0  0  0  0
  1 19  1  0  0  0  0
  1  7  1  1  0  0  0
  1 14  1  0  0  0  0
  2  9  1  0  0  0  0
  3 12  1  0  0  0  0
  4  7  1  0  0  0  0
  5  8  1  0  0  0  0
  5  4  1  0  0  0  0
  6  8  1  1  0  0  0
  6  3  1  0  0  0  0
  6  1  1  0  0  0  0
  9 10  1  0  0  0  0
 10 11  2  0  0  0  0
 10 32  1  0  0  0  0
 12 14  1  0  0  0  0
 12  9  2  0  0  0  0
 13 11  1  0  0  0  0
 14 13  2  0  0  0  0
 15 31  1  1  0  0  0
 16 30  1  0  0  0  0
 16 18  1  0  0  0  0
 16 28  1  0  0  0  0
 18 19  1  0  0  0  0
 19 15  1  0  0  0  0
 20 26  1  0  0  0  0
 22 20  1  0  0  0  0
 23 21  1  0  0  0  0
 23 15  1  0  0  0  0
 24 18  1  0  0  0  0
 25 30  1  0  0  0  0
 26 21  1  0  0  0  0
 26 17  1  0  0  0  0
 27 28  1  0  0  0  0
 27 20  1  0  0  0  0
 28 23  1  0  0  0  0
 29 27  2  0  0  0  0
 30 18  1  0  0  0  0
 32 34  1  0  0  0  0
 33 32  2  0  0  0  0
M  END
>  <MODEL>
8

>  <REMARK>
 VINA RESULT:      -4.2      5.171      7.950
  Name = 
  2 active torsions:
  status: ('A' for Active; 'I' for Inactive)
    1  A    between atoms: C_1  and  C_9
    2  A    between atoms: C_3  and  C_25
                            x       y       z     vdW  Elec       q    Type
                         _______ _______ _______ _____ _____    ______ ____

>  <TORSDO>
F 2

$$$$
=
 OpenBabel11052416033D

 34 39  0  0  1  0  0  0  0  0999 V2000
  185.6280  175.2980  136.5200 C   0  0  2  0  0  0  0  0  0  0  0  0
  181.1060  175.9420  135.1190 O   0  0  0  0  0  1  0  0  0  0  0  0
  184.0220  175.6210  134.6600 C   0  0  0  0  0  2  0  0  0  0  0  0
  186.1950  172.8170  136.5310 C   0  0  0  0  0  2  0  0  0  0  0  0
  186.5280  172.9400  135.1780 O   0  0  0  0  0  0  0  0  0  0  0  0
  185.4200  175.0800  134.9860 C   0  0  2  0  0  3  0  0  0  0  0  0
  186.4060  174.1600  137.2170 C   0  0  0  0  0  2  0  0  0  0  0  0
  185.4390  173.5970  134.5940 C   0  0  0  0  0  2  0  0  0  0  0  0
  181.9600  175.7270  136.1960 C   0  0  0  0  0  0  0  0  0  0  0  0
  181.4730  175.6400  137.5230 C   0  0  0  0  0  0  0  0  0  0  0  0
  182.3860  175.4130  138.5730 C   0  0  0  0  0  3  0  0  0  0  0  0
  183.3320  175.5860  135.9710 C   0  0  0  0  0  0  0  0  0  0  0  0
  183.7560  175.2810  138.3230 C   0  0  0  0  0  3  0  0  0  0  0  0
  184.2120  175.3740  137.0050 C   0  0  0  0  0  0  0  0  0  0  0  0
  186.4400  177.0420  138.2400 C   0  0  1  0  0  3  0  0  0  0  0  0
  189.0190  176.5470  136.6430 C   0  0  2  0  0  3  0  0  0  0  0  0
  188.9430  177.8960  141.4100 C   0  0  0  0  0  1  0  0  0  0  0  0
  187.6910  176.7880  135.9500 C   0  0  2  0  0  0  0  0  0  0  0  0
  186.3630  176.6520  136.7460 C   0  0  1  0  0  3  0  0  0  0  0  0
  190.5970  177.6160  139.4460 C   0  0  2  0  0  3  0  0  0  0  0  0
  188.3000  178.3940  139.1020 O   0  0  0  0  0  0  0  0  0  0  0  0
  191.7270  177.5030  140.4660 C   0  0  0  0  0  1  0  0  0  0  0  0
  187.8300  177.0730  138.8990 C   0  0  2  0  0  3  0  0  0  0  0  0
  187.6840  176.4300  134.5980 O   0  0  0  0  0  1  0  0  0  0  0  0
  189.3070  178.3890  135.1460 O   0  0  0  0  0  1  0  0  0  0  0  0
  189.3780  178.3660  140.0190 C   0  0  1  0  0  3  0  0  0  0  0  0
  190.1870  176.2910  138.8460 C   0  0  0  0  0  0  0  0  0  0  0  0
  188.8620  176.2160  138.1420 C   0  0  2  0  0  3  0  0  0  0  0  0
  191.0900  175.3350  138.6100 C   0  0  0  0  0  2  0  0  0  0  0  0
  188.5930  177.9740  136.2720 C   0  0  2  0  0  3  0  0  0  0  0  0
  185.6010  178.2760  138.5320 C   0  0  0  0  0  1  0  0  0  0  0  0
  180.0350  175.7780  137.8460 C   0  0  0  0  0  0  0  0  0  0  0  0
  179.1810  174.6820  137.8050 O   0  0  0  0  0  0  0  0  0  0  0  0
  179.5630  176.9030  138.1620 O   0  0  0  0  0  1  0  0  0  0  0  0
  1 19  1  0  0  0  0
  1 14  1  0  0  0  0
  1  7  1  1  0  0  0
  2  9  1  0  0  0  0
  3  6  1  0  0  0  0
  3 12  1  0  0  0  0
  4  7  1  0  0  0  0
  5  4  1  0  0  0  0
  6  8  1  1  0  0  0
  6  1  1  0  0  0  0
  8  5  1  0  0  0  0
  9 10  1  0  0  0  0
 10 32  1  0  0  0  0
 10 11  2  0  0  0  0
 12  9  2  0  0  0  0
 12 14  1  0  0  0  0
 13 11  1  0  0  0  0
 14 13  2  0  0  0  0
 15 31  1  6  0  0  0
 15 23  1  0  0  0  0
 16 28  1  0  0  0  0
 18 30  1  0  0  0  0
 18 16  1  0  0  0  0
 18 19  1  0  0  0  0
 19 15  1  0  0  0  0
 20 26  1  0  0  0  0
 20 22  1  0  0  0  0
 21 26  1  0  0  0  0
 23 21  1  0  0  0  0
 24 18  1  0  0  0  0
 25 30  1  0  0  0  0
 26 17  1  0  0  0  0
 27 20  1  0  0  0  0
 28 27  1  0  0  0  0
 28 23  1  0  0  0  0
 29 27  2  0  0  0  0
 30 16  1  0  0  0  0
 32 34  1  0  0  0  0
 33 32  2  0  0  0  0
M  END
>  <MODEL>
9

>  <REMARK>
 VINA RESULT:      -4.0      1.720      2.421
  Name = 
  2 active torsions:
  status: ('A' for Active; 'I' for Inactive)
    1  A    between atoms: C_1  and  C_9
    2  A    between atoms: C_3  and  C_25
                            x       y       z     vdW  Elec       q    Type
                         _______ _______ _______ _____ _____    ______ ____

>  <TORSDO>
F 2

$$$$
