=
 OpenBabel11052412203D

 30 32  0  0  1  0  0  0  0  0999 V2000
  181.9330  177.8800  139.6430 C   0  0  2  0  0  3  0  0  0  0  0  0
  180.0700  178.4330  142.0220 C   0  0  2  0  0  3  0  0  0  0  0  0
  179.6850  179.1310  139.6300 C   0  0  0  0  0  2  0  0  0  0  0  0
  183.5560  178.6940  142.6280 C   0  0  0  0  0  2  0  0  0  0  0  0
  181.1980  179.2550  139.7180 C   0  0  1  0  0  0  0  0  0  0  0  0
  182.2540  179.3720  143.0360 C   0  0  0  0  0  2  0  0  0  0  0  0
  179.8110  179.0520  143.3870 C   0  0  0  0  0  2  0  0  0  0  0  0
  183.5890  178.4030  141.1350 C   0  0  0  0  0  2  0  0  0  0  0  0
  182.6100  177.4560  140.8100 O   0  0  0  0  0  0  0  0  0  0  0  0
  181.1250  178.3480  143.1390 C   0  0  1  0  0  3  0  0  0  0  0  0
  180.0410  180.8430  141.2680 O   0  0  0  0  0  1  0  0  0  0  0  0
  180.3220  179.5090  140.9500 C   0  0  2  0  0  0  0  0  0  0  0  0
  183.8270  178.1110  138.0300 C   0  0  0  0  0  1  0  0  0  0  0  0
  182.5300  177.3570  138.3120 C   0  0  2  0  0  0  0  0  0  0  0  0
  181.5030  177.5570  137.1610 C   0  0  2  0  0  3  0  0  0  0  0  0
  180.5420  176.3750  137.0350 C   0  0  0  0  0  2  0  0  0  0  0  0
  179.1160  176.8650  136.8680 C   0  0  0  0  0  1  0  0  0  0  0  0
  182.1200  177.8520  135.8210 C   0  0  0  0  0  3  0  0  0  0  0  0
  182.2500  176.9000  134.9010 C   0  0  0  0  0  2  0  0  0  0  0  0
  182.8600  175.8650  138.4920 C   0  0  0  0  0  2  0  0  0  0  0  0
  184.0140  175.4970  137.7920 O   0  0  0  0  0  0  0  0  0  0  0  0
  183.9680  174.1050  137.7350 C   0  0  1  0  0  3  0  0  0  0  0  0
  182.9990  173.6750  136.6530 C   0  0  0  0  0  1  0  0  0  0  0  0
  185.6200  173.4580  137.3540 S   0  0  0  0  0  1  0  0  0  0  0  0
  183.1640  180.4950  139.0330 O   0  0  0  0  0  1  0  0  0  0  0  0
  181.7710  180.5410  139.0870 C   0  0  1  0  0  3  0  0  0  0  0  0
  181.2080  180.8660  137.7090 C   0  0  0  0  0  2  0  0  0  0  0  0
  180.9240  182.3530  137.5440 C   0  0  0  0  0  2  0  0  0  0  0  0
  181.1160  183.9960  135.8150 O   0  0  0  0  0  1  0  0  0  0  0  0
  180.6620  182.7060  136.0880 C   0  0  0  0  0  2  0  0  0  0  0  0
  1 14  1  6  0  0  0
  1  5  1  0  0  0  0
  1  9  1  0  0  0  0
  2 10  1  0  0  0  0
  2  7  1  1  0  0  0
  3  5  1  0  0  0  0
  3 12  1  0  0  0  0
  4  6  1  0  0  0  0
  5 26  1  6  0  0  0
  5 12  1  0  0  0  0
  8  4  1  0  0  0  0
  9  8  1  0  0  0  0
 10  6  1  6  0  0  0
 10  7  1  0  0  0  0
 12 11  1  1  0  0  0
 12  2  1  0  0  0  0
 14 13  1  6  0  0  0
 14 20  1  0  0  0  0
 15 18  1  6  0  0  0
 15 14  1  0  0  0  0
 16 15  1  0  0  0  0
 17 16  1  0  0  0  0
 19 18  2  0  0  0  0
 21 20  1  0  0  0  0
 22 23  1  6  0  0  0
 22 21  1  0  0  0  0
 24 22  1  0  0  0  0
 26 25  1  6  0  0  0
 27 26  1  0  0  0  0
 28 27  1  0  0  0  0
 29 30  1  0  0  0  0
 30 28  1  0  0  0  0
M  END
>  <MODEL>
1

>  <REMARK>
 VINA RESULT:      -4.0      0.000      0.000
  Name = 
  11 active torsions:
  status: ('A' for Active; 'I' for Inactive)
    1  A    between atoms: C_2  and  C_14
    2  A    between atoms: C_3  and  O_19
    3  A    between atoms: C_4  and  C_22
    4  A    between atoms: C_6  and  C_12
    5  A    between atoms: C_6  and  C_17
    6  A    between atoms: C_12  and  C_13
    7  A    between atoms: C_14  and  C_20
    8  A    between atoms: C_14  and  C_22
    9  A    between atoms: C_17  and  C_21
   10  A    between atoms: O_19  and  C_29
   11  A    between atoms: C_22  and  C_29
                            x       y       z     vdW  Elec       q    Type
                         _______ _______ _______ _____ _____    ______ ____

>  <TORSDO>
F 11

$$$$
=
 OpenBabel11052412203D

 30 32  0  0  1  0  0  0  0  0999 V2000
  182.0020  177.8130  139.8510 C   0  0  2  0  0  3  0  0  0  0  0  0
  179.9980  178.5280  142.0660 C   0  0  2  0  0  3  0  0  0  0  0  0
  179.7880  179.1010  139.6200 C   0  0  0  0  0  2  0  0  0  0  0  0
  183.4400  178.7580  142.8920 C   0  0  0  0  0  2  0  0  0  0  0  0
  181.2940  179.2030  139.8030 C   0  0  1  0  0  0  0  0  0  0  0  0
  182.1300  179.4810  143.1740 C   0  0  0  0  0  2  0  0  0  0  0  0
  179.6620  179.2250  143.3760 C   0  0  0  0  0  2  0  0  0  0  0  0
  183.5670  178.3860  141.4210 C   0  0  0  0  0  2  0  0  0  0  0  0
  182.5910  177.4400  141.0810 O   0  0  0  0  0  0  0  0  0  0  0  0
  180.9740  178.4840  143.2540 C   0  0  1  0  0  3  0  0  0  0  0  0
  180.0710  180.8940  141.1850 O   0  0  0  0  0  1  0  0  0  0  0  0
  180.3440  179.5390  140.9580 C   0  0  2  0  0  0  0  0  0  0  0  0
  181.9540  177.7350  137.3550 C   0  0  0  0  0  1  0  0  0  0  0  0
  182.6750  177.2080  138.5930 C   0  0  2  0  0  0  0  0  0  0  0  0
  182.6120  175.6550  138.6600 C   0  0  2  0  0  3  0  0  0  0  0  0
  183.0560  175.0040  137.3500 C   0  0  0  0  0  2  0  0  0  0  0  0
  184.1080  173.9440  137.6140 C   0  0  0  0  0  1  0  0  0  0  0  0
  181.2730  175.1040  139.0700 C   0  0  0  0  0  3  0  0  0  0  0  0
  180.4440  174.5780  138.1720 C   0  0  0  0  0  2  0  0  0  0  0  0
  184.1350  177.6920  138.5530 C   0  0  0  0  0  2  0  0  0  0  0  0
  184.6380  177.7260  137.2480 O   0  0  0  0  0  0  0  0  0  0  0  0
  186.0110  177.9150  137.4010 C   0  0  1  0  0  3  0  0  0  0  0  0
  186.3160  178.2610  138.8440 C   0  0  0  0  0  1  0  0  0  0  0  0
  186.8870  176.3900  136.9510 S   0  0  0  0  0  1  0  0  0  0  0  0
  183.3260  180.3330  139.1190 O   0  0  0  0  0  1  0  0  0  0  0  0
  181.9350  180.4420  139.1450 C   0  0  1  0  0  3  0  0  0  0  0  0
  181.4120  180.7500  137.7480 C   0  0  0  0  0  2  0  0  0  0  0  0
  180.9570  182.1970  137.6130 C   0  0  0  0  0  2  0  0  0  0  0  0
  180.9660  183.8340  135.8690 O   0  0  0  0  0  1  0  0  0  0  0  0
  180.5890  182.5280  136.1750 C   0  0  0  0  0  2  0  0  0  0  0  0
  1 14  1  6  0  0  0
  1  9  1  0  0  0  0
  2 10  1  0  0  0  0
  2  7  1  1  0  0  0
  3  5  1  0  0  0  0
  3 12  1  0  0  0  0
  4  6  1  0  0  0  0
  5 26  1  6  0  0  0
  5  1  1  0  0  0  0
  5 12  1  0  0  0  0
  8  4  1  0  0  0  0
  9  8  1  0  0  0  0
 10  6  1  6  0  0  0
 10  7  1  0  0  0  0
 12 11  1  1  0  0  0
 12  2  1  0  0  0  0
 14 13  1  6  0  0  0
 14 15  1  0  0  0  0
 15 16  1  6  0  0  0
 15 18  1  0  0  0  0
 16 17  1  0  0  0  0
 19 18  2  0  0  0  0
 20 14  1  0  0  0  0
 21 22  1  0  0  0  0
 21 20  1  0  0  0  0
 22 23  1  1  0  0  0
 24 22  1  0  0  0  0
 26 25  1  6  0  0  0
 27 26  1  0  0  0  0
 28 27  1  0  0  0  0
 29 30  1  0  0  0  0
 30 28  1  0  0  0  0
M  END
>  <MODEL>
2

>  <REMARK>
 VINA RESULT:      -3.7      1.183      2.375
  Name = 
  11 active torsions:
  status: ('A' for Active; 'I' for Inactive)
    1  A    between atoms: C_2  and  C_14
    2  A    between atoms: C_3  and  O_19
    3  A    between atoms: C_4  and  C_22
    4  A    between atoms: C_6  and  C_12
    5  A    between atoms: C_6  and  C_17
    6  A    between atoms: C_12  and  C_13
    7  A    between atoms: C_14  and  C_20
    8  A    between atoms: C_14  and  C_22
    9  A    between atoms: C_17  and  C_21
   10  A    between atoms: O_19  and  C_29
   11  A    between atoms: C_22  and  C_29
                            x       y       z     vdW  Elec       q    Type
                         _______ _______ _______ _____ _____    ______ ____

>  <TORSDO>
F 11

$$$$
=
 OpenBabel11052412203D

 30 32  0  0  1  0  0  0  0  0999 V2000
  181.7410  178.6280  138.1340 C   0  0  2  0  0  3  0  0  0  0  0  0
  180.8250  180.8280  136.1960 C   0  0  2  0  0  3  0  0  0  0  0  0
  181.1520  181.0710  138.6850 C   0  0  0  0  0  2  0  0  0  0  0  0
  179.5450  177.5680  135.6330 C   0  0  0  0  0  2  0  0  0  0  0  0
  180.6490  179.6370  138.6070 C   0  0  1  0  0  0  0  0  0  0  0  0
  179.0940  179.0210  135.5500 C   0  0  0  0  0  2  0  0  0  0  0  0
  179.8350  181.3670  135.1750 C   0  0  0  0  0  2  0  0  0  0  0  0
  180.3390  177.3020  136.9040 C   0  0  0  0  0  2  0  0  0  0  0  0
  181.5420  178.0170  136.8750 O   0  0  0  0  0  0  0  0  0  0  0  0
  180.2490  179.9150  135.1000 C   0  0  1  0  0  3  0  0  0  0  0  0
  178.9310  181.2720  137.8070 O   0  0  0  0  0  1  0  0  0  0  0  0
  180.1820  180.6840  137.5880 C   0  0  2  0  0  0  0  0  0  0  0  0
  181.6170  176.7650  139.7940 C   0  0  0  0  0  1  0  0  0  0  0  0
  182.5530  177.7850  139.1510 C   0  0  2  0  0  0  0  0  0  0  0  0
  183.1850  178.7200  140.2220 C   0  0  2  0  0  3  0  0  0  0  0  0
  184.5020  179.3330  139.7460 C   0  0  0  0  0  2  0  0  0  0  0  0
  185.6460  178.8950  140.6410 C   0  0  0  0  0  1  0  0  0  0  0  0
  183.3850  178.0770  141.5680 C   0  0  0  0  0  3  0  0  0  0  0  0
  183.0250  178.7020  142.6860 C   0  0  0  0  0  2  0  0  0  0  0  0
  183.6460  177.0280  138.3770 C   0  0  0  0  0  2  0  0  0  0  0  0
  183.4070  175.6500  138.3480 O   0  0  0  0  0  0  0  0  0  0  0  0
  184.1120  175.1890  137.2370 C   0  0  1  0  0  3  0  0  0  0  0  0
  185.3020  176.0910  136.9840 C   0  0  0  0  0  1  0  0  0  0  0  0
  184.6960  173.4980  137.5490 S   0  0  0  0  0  1  0  0  0  0  0  0
  179.1880  177.9440  139.5400 O   0  0  0  0  0  1  0  0  0  0  0  0
  179.5810  179.2770  139.6600 C   0  0  1  0  0  3  0  0  0  0  0  0
  179.9970  179.5680  141.0970 C   0  0  0  0  0  2  0  0  0  0  0  0
  179.3020  178.6470  142.0910 C   0  0  0  0  0  2  0  0  0  0  0  0
  179.9110  178.5810  144.4040 O   0  0  0  0  0  1  0  0  0  0  0  0
  179.1830  179.3010  143.4580 C   0  0  0  0  0  2  0  0  0  0  0  0
  1  5  1  0  0  0  0
  1 14  1  1  0  0  0
  2  7  1  6  0  0  0
  2 12  1  0  0  0  0
  4  8  1  0  0  0  0
  5  3  1  0  0  0  0
  5 26  1  1  0  0  0
  6  4  1  0  0  0  0
  9  8  1  0  0  0  0
  9  1  1  0  0  0  0
 10  7  1  6  0  0  0
 10  6  1  0  0  0  0
 10  2  1  0  0  0  0
 12 11  1  1  0  0  0
 12  5  1  0  0  0  0
 12  3  1  0  0  0  0
 14 13  1  1  0  0  0
 14 15  1  0  0  0  0
 15 16  1  6  0  0  0
 15 18  1  0  0  0  0
 16 17  1  0  0  0  0
 18 19  2  0  0  0  0
 20 14  1  0  0  0  0
 21 20  1  0  0  0  0
 22 23  1  1  0  0  0
 22 24  1  0  0  0  0
 22 21  1  0  0  0  0
 26 25  1  1  0  0  0
 26 27  1  0  0  0  0
 27 28  1  0  0  0  0
 28 30  1  0  0  0  0
 30 29  1  0  0  0  0
M  END
>  <MODEL>
3

>  <REMARK>
 VINA RESULT:      -3.7      1.889      5.427
  Name = 
  11 active torsions:
  status: ('A' for Active; 'I' for Inactive)
    1  A    between atoms: C_2  and  C_14
    2  A    between atoms: C_3  and  O_19
    3  A    between atoms: C_4  and  C_22
    4  A    between atoms: C_6  and  C_12
    5  A    between atoms: C_6  and  C_17
    6  A    between atoms: C_12  and  C_13
    7  A    between atoms: C_14  and  C_20
    8  A    between atoms: C_14  and  C_22
    9  A    between atoms: C_17  and  C_21
   10  A    between atoms: O_19  and  C_29
   11  A    between atoms: C_22  and  C_29
                            x       y       z     vdW  Elec       q    Type
                         _______ _______ _______ _____ _____    ______ ____

>  <TORSDO>
F 11

$$$$
=
 OpenBabel11052412203D

 30 32  0  0  1  0  0  0  0  0999 V2000
  182.7860  177.0900  137.5770 C   0  0  2  0  0  3  0  0  0  0  0  0
  180.2090  178.5290  138.4280 C   0  0  2  0  0  3  0  0  0  0  0  0
  182.4400  179.6090  137.9670 C   0  0  0  0  0  2  0  0  0  0  0  0
  180.8710  175.3980  139.9580 C   0  0  0  0  0  2  0  0  0  0  0  0
  182.8880  178.2880  138.5720 C   0  0  1  0  0  0  0  0  0  0  0  0
  180.2840  176.7590  140.3100 C   0  0  0  0  0  2  0  0  0  0  0  0
  179.0820  178.7510  139.4250 C   0  0  0  0  0  2  0  0  0  0  0  0
  182.1380  175.5350  139.1250 C   0  0  0  0  0  2  0  0  0  0  0  0
  181.8320  176.0920  137.8770 O   0  0  0  0  0  0  0  0  0  0  0  0
  179.5220  177.3380  139.1180 C   0  0  1  0  0  3  0  0  0  0  0  0
  181.5920  179.6690  140.2070 O   0  0  0  0  0  1  0  0  0  0  0  0
  181.5720  178.9400  139.0120 C   0  0  2  0  0  0  0  0  0  0  0  0
  184.0110  177.2690  135.4070 C   0  0  0  0  0  1  0  0  0  0  0  0
  184.0200  176.5980  136.7780 C   0  0  2  0  0  0  0  0  0  0  0  0
  183.9760  175.0490  136.6460 C   0  0  2  0  0  3  0  0  0  0  0  0
  185.2260  174.3870  137.2250 C   0  0  0  0  0  2  0  0  0  0  0  0
  184.8990  172.9990  137.7450 C   0  0  0  0  0  1  0  0  0  0  0  0
  183.7440  174.5510  135.2450 C   0  0  0  0  0  3  0  0  0  0  0  0
  182.6240  173.9100  134.9220 C   0  0  0  0  0  2  0  0  0  0  0  0
  185.2840  177.0440  137.5340 C   0  0  0  0  0  2  0  0  0  0  0  0
  186.0980  177.8690  136.7490 O   0  0  0  0  0  0  0  0  0  0  0  0
  187.3760  177.3240  136.8660 C   0  0  1  0  0  3  0  0  0  0  0  0
  187.7160  176.5580  135.6050 C   0  0  0  0  0  1  0  0  0  0  0  0
  188.5840  178.6580  137.1030 S   0  0  0  0  0  1  0  0  0  0  0  0
  184.5450  179.7060  139.6290 O   0  0  0  0  0  1  0  0  0  0  0  0
  184.0220  178.4130  139.6110 C   0  0  1  0  0  3  0  0  0  0  0  0
  183.6270  177.9920  141.0210 C   0  0  0  0  0  2  0  0  0  0  0  0
  184.7450  178.2380  142.0260 C   0  0  0  0  0  2  0  0  0  0  0  0
  183.3430  178.5500  143.9380 O   0  0  0  0  0  1  0  0  0  0  0  0
  184.2940  179.1750  143.1340 C   0  0  0  0  0  2  0  0  0  0  0  0
  1 14  1  1  0  0  0
  1  9  1  0  0  0  0
  1  5  1  0  0  0  0
  2 12  1  0  0  0  0
  2 10  1  0  0  0  0
  2  7  1  1  0  0  0
  3  5  1  0  0  0  0
  3 12  1  0  0  0  0
  4  6  1  0  0  0  0
  5 12  1  0  0  0  0
  5 26  1  1  0  0  0
  8  4  1  0  0  0  0
  9  8  1  0  0  0  0
 10  7  1  1  0  0  0
 10  6  1  0  0  0  0
 12 11  1  1  0  0  0
 14 13  1  6  0  0  0
 14 20  1  0  0  0  0
 15 18  1  6  0  0  0
 15 14  1  0  0  0  0
 15 16  1  0  0  0  0
 16 17  1  0  0  0  0
 19 18  2  0  0  0  0
 21 22  1  0  0  0  0
 21 20  1  0  0  0  0
 22 23  1  6  0  0  0
 22 24  1  0  0  0  0
 26 25  1  1  0  0  0
 26 27  1  0  0  0  0
 27 28  1  0  0  0  0
 28 30  1  0  0  0  0
 30 29  1  0  0  0  0
M  END
>  <MODEL>
4

>  <REMARK>
 VINA RESULT:      -3.5      2.570      4.648
  Name = 
  11 active torsions:
  status: ('A' for Active; 'I' for Inactive)
    1  A    between atoms: C_2  and  C_14
    2  A    between atoms: C_3  and  O_19
    3  A    between atoms: C_4  and  C_22
    4  A    between atoms: C_6  and  C_12
    5  A    between atoms: C_6  and  C_17
    6  A    between atoms: C_12  and  C_13
    7  A    between atoms: C_14  and  C_20
    8  A    between atoms: C_14  and  C_22
    9  A    between atoms: C_17  and  C_21
   10  A    between atoms: O_19  and  C_29
   11  A    between atoms: C_22  and  C_29
                            x       y       z     vdW  Elec       q    Type
                         _______ _______ _______ _____ _____    ______ ____

>  <TORSDO>
F 11

$$$$
=
 OpenBabel11052412203D

 30 32  0  0  1  0  0  0  0  0999 V2000
  188.0910  175.8180  137.4840 C   0  0  2  0  0  3  0  0  0  0  0  0
  188.1200  172.8010  136.9080 C   0  0  2  0  0  3  0  0  0  0  0  0
  190.1160  174.2320  137.4800 C   0  0  0  0  0  2  0  0  0  0  0  0
  185.9590  174.7870  134.9160 C   0  0  0  0  0  2  0  0  0  0  0  0
  189.2840  175.2200  136.6760 C   0  0  1  0  0  0  0  0  0  0  0  0
  186.8680  173.5720  134.7830 C   0  0  0  0  0  2  0  0  0  0  0  0
  187.8590  171.6260  135.9780 C   0  0  0  0  0  2  0  0  0  0  0  0
  186.6170  175.8890  135.7340 C   0  0  0  0  0  2  0  0  0  0  0  0
  186.7910  175.4640  137.0570 O   0  0  0  0  0  0  0  0  0  0  0  0
  186.8370  172.7370  136.0630 C   0  0  1  0  0  3  0  0  0  0  0  0
  190.0040  173.2630  135.2910 O   0  0  0  0  0  1  0  0  0  0  0  0
  189.2300  173.7190  136.3640 C   0  0  2  0  0  0  0  0  0  0  0  0
  188.6630  178.2260  137.1430 C   0  0  0  0  0  1  0  0  0  0  0  0
  188.1990  177.2020  138.1750 C   0  0  2  0  0  0  0  0  0  0  0  0
  189.1950  177.1170  139.3670 C   0  0  2  0  0  3  0  0  0  0  0  0
  188.6740  177.8460  140.6050 C   0  0  0  0  0  2  0  0  0  0  0  0
  188.7930  176.9620  141.8320 C   0  0  0  0  0  1  0  0  0  0  0  0
  190.5870  177.5910  139.0500 C   0  0  0  0  0  3  0  0  0  0  0  0
  191.6350  177.1560  139.7430 C   0  0  0  0  0  2  0  0  0  0  0  0
  186.7960  177.6000  138.6650 C   0  0  0  0  0  2  0  0  0  0  0  0
  186.3200  178.7420  138.0120 O   0  0  0  0  0  0  0  0  0  0  0  0
  184.9900  178.8560  138.4190 C   0  0  1  0  0  3  0  0  0  0  0  0
  184.2040  177.6630  137.9150 C   0  0  0  0  0  1  0  0  0  0  0  0
  184.9130  178.9050  140.2320 S   0  0  0  0  0  1  0  0  0  0  0  0
  189.3730  177.1660  135.2350 O   0  0  0  0  0  1  0  0  0  0  0  0
  190.0870  176.0400  135.6450 C   0  0  1  0  0  3  0  0  0  0  0  0
  191.4770  176.4480  136.1160 C   0  0  0  0  0  2  0  0  0  0  0  0
  192.5740  175.8490  135.2450 C   0  0  0  0  0  2  0  0  0  0  0  0
  193.8660  176.7440  137.0490 O   0  0  0  0  0  1  0  0  0  0  0  0
  193.9200  175.8850  135.9520 C   0  0  0  0  0  2  0  0  0  0  0  0
  1 14  1  6  0  0  0
  2  7  1  6  0  0  0
  4  8  1  0  0  0  0
  5 26  1  6  0  0  0
  5  3  1  0  0  0  0
  5  1  1  0  0  0  0
  6  4  1  0  0  0  0
  7 10  1  0  0  0  0
  8  9  1  0  0  0  0
  9  1  1  0  0  0  0
 10  6  1  6  0  0  0
 10  2  1  0  0  0  0
 12 11  1  6  0  0  0
 12  5  1  0  0  0  0
 12  2  1  0  0  0  0
 12  3  1  0  0  0  0
 14 13  1  6  0  0  0
 14 20  1  0  0  0  0
 14 15  1  0  0  0  0
 15 18  1  6  0  0  0
 15 16  1  0  0  0  0
 16 17  1  0  0  0  0
 18 19  2  0  0  0  0
 21 22  1  0  0  0  0
 21 20  1  0  0  0  0
 22 23  1  1  0  0  0
 22 24  1  0  0  0  0
 26 25  1  1  0  0  0
 26 27  1  0  0  0  0
 28 30  1  0  0  0  0
 28 27  1  0  0  0  0
 30 29  1  0  0  0  0
M  END
>  <MODEL>
5

>  <REMARK>
 VINA RESULT:      -3.5      5.827      9.732
  Name = 
  11 active torsions:
  status: ('A' for Active; 'I' for Inactive)
    1  A    between atoms: C_2  and  C_14
    2  A    between atoms: C_3  and  O_19
    3  A    between atoms: C_4  and  C_22
    4  A    between atoms: C_6  and  C_12
    5  A    between atoms: C_6  and  C_17
    6  A    between atoms: C_12  and  C_13
    7  A    between atoms: C_14  and  C_20
    8  A    between atoms: C_14  and  C_22
    9  A    between atoms: C_17  and  C_21
   10  A    between atoms: O_19  and  C_29
   11  A    between atoms: C_22  and  C_29
                            x       y       z     vdW  Elec       q    Type
                         _______ _______ _______ _____ _____    ______ ____

>  <TORSDO>
F 11

$$$$
=
 OpenBabel11052412203D

 30 32  0  0  1  0  0  0  0  0999 V2000
  182.7640  177.8940  138.9470 C   0  0  2  0  0  3  0  0  0  0  0  0
  180.3820  175.9750  138.6660 C   0  0  2  0  0  3  0  0  0  0  0  0
  181.3860  177.3880  136.8340 C   0  0  0  0  0  2  0  0  0  0  0  0
  180.5570  177.8780  141.6550 C   0  0  0  0  0  2  0  0  0  0  0  0
  181.5700  178.3080  138.0310 C   0  0  1  0  0  0  0  0  0  0  0  0
  179.5160  177.3490  140.6770 C   0  0  0  0  0  2  0  0  0  0  0  0
  178.9770  175.5400  139.0530 C   0  0  0  0  0  2  0  0  0  0  0  0
  181.7630  178.4550  140.9280 C   0  0  0  0  0  2  0  0  0  0  0  0
  182.4420  177.4370  140.2460 O   0  0  0  0  0  0  0  0  0  0  0  0
  179.9340  175.9810  140.1380 C   0  0  1  0  0  3  0  0  0  0  0  0
  179.1520  177.8770  137.5500 O   0  0  0  0  0  1  0  0  0  0  0  0
  180.3790  177.3450  137.9640 C   0  0  2  0  0  0  0  0  0  0  0  0
  183.9460  180.0650  138.5840 C   0  0  0  0  0  1  0  0  0  0  0  0
  184.1520  178.5710  138.8160 C   0  0  2  0  0  0  0  0  0  0  0  0
  184.9420  177.9250  137.6410 C   0  0  2  0  0  3  0  0  0  0  0  0
  184.6250  176.4380  137.4840 C   0  0  0  0  0  2  0  0  0  0  0  0
  185.7330  175.7370  136.7210 C   0  0  0  0  0  1  0  0  0  0  0  0
  186.4320  178.1190  137.7130 C   0  0  0  0  0  3  0  0  0  0  0  0
  187.0840  178.7840  136.7630 C   0  0  0  0  0  2  0  0  0  0  0  0
  184.9030  178.3800  140.1450 C   0  0  0  0  0  2  0  0  0  0  0  0
  185.0920  179.5920  140.8160 O   0  0  0  0  0  0  0  0  0  0  0  0
  185.8740  179.2680  141.9250 C   0  0  1  0  0  3  0  0  0  0  0  0
  185.1730  178.2040  142.7430 C   0  0  0  0  0  1  0  0  0  0  0  0
  187.4820  178.6360  141.3680 S   0  0  0  0  0  1  0  0  0  0  0  0
  181.1390  180.0480  136.4000 O   0  0  0  0  0  1  0  0  0  0  0  0
  181.1940  179.7810  137.7680 C   0  0  1  0  0  3  0  0  0  0  0  0
  179.8980  180.2240  138.4360 C   0  0  0  0  0  2  0  0  0  0  0  0
  180.1480  181.2060  139.5730 C   0  0  0  0  0  2  0  0  0  0  0  0
  179.6740  181.2990  141.9160 O   0  0  0  0  0  1  0  0  0  0  0  0
  179.1030  181.0610  140.6670 C   0  0  0  0  0  2  0  0  0  0  0  0
  1 14  1  1  0  0  0
  1  9  1  0  0  0  0
  2  7  1  6  0  0  0
  2 10  1  0  0  0  0
  3 12  1  0  0  0  0
  3  5  1  0  0  0  0
  5 26  1  6  0  0  0
  5  1  1  0  0  0  0
  6  4  1  0  0  0  0
  8  4  1  0  0  0  0
  9  8  1  0  0  0  0
 10  7  1  6  0  0  0
 10  6  1  0  0  0  0
 12 11  1  6  0  0  0
 12  5  1  0  0  0  0
 12  2  1  0  0  0  0
 14 13  1  6  0  0  0
 14 20  1  0  0  0  0
 15 16  1  1  0  0  0
 15 18  1  0  0  0  0
 15 14  1  0  0  0  0
 17 16  1  0  0  0  0
 19 18  2  0  0  0  0
 20 21  1  0  0  0  0
 21 22  1  0  0  0  0
 22 23  1  6  0  0  0
 24 22  1  0  0  0  0
 26 25  1  6  0  0  0
 26 27  1  0  0  0  0
 27 28  1  0  0  0  0
 28 30  1  0  0  0  0
 30 29  1  0  0  0  0
M  END
>  <MODEL>
6

>  <REMARK>
 VINA RESULT:      -3.5      2.422      4.397
  Name = 
  11 active torsions:
  status: ('A' for Active; 'I' for Inactive)
    1  A    between atoms: C_2  and  C_14
    2  A    between atoms: C_3  and  O_19
    3  A    between atoms: C_4  and  C_22
    4  A    between atoms: C_6  and  C_12
    5  A    between atoms: C_6  and  C_17
    6  A    between atoms: C_12  and  C_13
    7  A    between atoms: C_14  and  C_20
    8  A    between atoms: C_14  and  C_22
    9  A    between atoms: C_17  and  C_21
   10  A    between atoms: O_19  and  C_29
   11  A    between atoms: C_22  and  C_29
                            x       y       z     vdW  Elec       q    Type
                         _______ _______ _______ _____ _____    ______ ____

>  <TORSDO>
F 11

$$$$
=
 OpenBabel11052412203D

 30 32  0  0  1  0  0  0  0  0999 V2000
  182.1530  176.5220  138.6780 C   0  0  2  0  0  3  0  0  0  0  0  0
  182.8010  177.8500  141.3700 C   0  0  2  0  0  3  0  0  0  0  0  0
  180.5150  177.6200  140.3300 C   0  0  0  0  0  2  0  0  0  0  0  0
  185.0930  178.4080  138.7210 C   0  0  0  0  0  2  0  0  0  0  0  0
  181.3710  177.8090  139.0870 C   0  0  1  0  0  0  0  0  0  0  0  0
  184.4810  179.1530  139.9010 C   0  0  0  0  0  2  0  0  0  0  0  0
  183.5190  178.9150  142.1840 C   0  0  0  0  0  2  0  0  0  0  0  0
  184.0470  177.5950  137.9710 C   0  0  0  0  0  2  0  0  0  0  0  0
  183.5610  176.5680  138.7900 O   0  0  0  0  0  0  0  0  0  0  0  0
  184.2700  178.2050  141.0810 C   0  0  1  0  0  3  0  0  0  0  0  0
  181.4340  179.8190  140.5760 O   0  0  0  0  0  1  0  0  0  0  0  0
  181.7660  178.4690  140.4130 C   0  0  2  0  0  0  0  0  0  0  0  0
  181.7310  176.2630  136.2290 C   0  0  0  0  0  1  0  0  0  0  0  0
  181.6140  175.5660  137.5820 C   0  0  2  0  0  0  0  0  0  0  0  0
  180.1380  175.1900  137.8930 C   0  0  2  0  0  3  0  0  0  0  0  0
  180.0300  173.8800  138.6750 C   0  0  0  0  0  2  0  0  0  0  0  0
  179.4000  174.1230  140.0330 C   0  0  0  0  0  1  0  0  0  0  0  0
  179.2430  175.1310  136.6850 C   0  0  0  0  0  3  0  0  0  0  0  0
  178.9310  173.9690  136.1180 C   0  0  0  0  0  2  0  0  0  0  0  0
  182.5040  174.3110  137.5650 C   0  0  0  0  0  2  0  0  0  0  0  0
  183.1020  174.1120  136.3170 O   0  0  0  0  0  0  0  0  0  0  0  0
  183.8370  172.9350  136.4580 C   0  0  1  0  0  3  0  0  0  0  0  0
  184.8300  173.0930  137.5900 C   0  0  0  0  0  1  0  0  0  0  0  0
  182.7130  171.5590  136.8300 S   0  0  0  0  0  1  0  0  0  0  0  0
  179.4320  179.0230  138.2900 O   0  0  0  0  0  1  0  0  0  0  0  0
  180.7870  178.7930  138.0530 C   0  0  1  0  0  3  0  0  0  0  0  0
  181.5310  180.1190  137.9610 C   0  0  0  0  0  2  0  0  0  0  0  0
  180.7990  181.1270  137.0840 C   0  0  0  0  0  2  0  0  0  0  0  0
  181.1430  183.4860  136.8920 O   0  0  0  0  0  1  0  0  0  0  0  0
  180.7120  182.4850  137.7610 C   0  0  0  0  0  2  0  0  0  0  0  0
  1 14  1  6  0  0  0
  1  9  1  0  0  0  0
  1  5  1  0  0  0  0
  2  7  1  1  0  0  0
  3 12  1  0  0  0  0
  4  6  1  0  0  0  0
  5 26  1  6  0  0  0
  5  3  1  0  0  0  0
  5 12  1  0  0  0  0
  8  4  1  0  0  0  0
  8  9  1  0  0  0  0
 10  6  1  6  0  0  0
 10  2  1  0  0  0  0
 10  7  1  0  0  0  0
 12 11  1  1  0  0  0
 12  2  1  0  0  0  0
 14 13  1  6  0  0  0
 14 15  1  0  0  0  0
 15 18  1  6  0  0  0
 15 16  1  0  0  0  0
 16 17  1  0  0  0  0
 19 18  2  0  0  0  0
 20 14  1  0  0  0  0
 21 22  1  0  0  0  0
 21 20  1  0  0  0  0
 22 24  1  0  0  0  0
 22 23  1  1  0  0  0
 26 25  1  1  0  0  0
 27 26  1  0  0  0  0
 28 30  1  0  0  0  0
 28 27  1  0  0  0  0
 29 30  1  0  0  0  0
M  END
>  <MODEL>
7

>  <REMARK>
 VINA RESULT:      -3.4      1.837      2.870
  Name = 
  11 active torsions:
  status: ('A' for Active; 'I' for Inactive)
    1  A    between atoms: C_2  and  C_14
    2  A    between atoms: C_3  and  O_19
    3  A    between atoms: C_4  and  C_22
    4  A    between atoms: C_6  and  C_12
    5  A    between atoms: C_6  and  C_17
    6  A    between atoms: C_12  and  C_13
    7  A    between atoms: C_14  and  C_20
    8  A    between atoms: C_14  and  C_22
    9  A    between atoms: C_17  and  C_21
   10  A    between atoms: O_19  and  C_29
   11  A    between atoms: C_22  and  C_29
                            x       y       z     vdW  Elec       q    Type
                         _______ _______ _______ _____ _____    ______ ____

>  <TORSDO>
F 11

$$$$
=
 OpenBabel11052412203D

 30 32  0  0  1  0  0  0  0  0999 V2000
  183.0540  175.2720  137.6990 C   0  0  2  0  0  3  0  0  0  0  0  0
  183.9720  172.3790  137.2270 C   0  0  2  0  0  3  0  0  0  0  0  0
  185.4070  174.4460  137.0690 C   0  0  0  0  0  2  0  0  0  0  0  0
  180.7580  173.2550  136.0080 C   0  0  0  0  0  2  0  0  0  0  0  0
  184.0810  174.9860  136.5590 C   0  0  1  0  0  0  0  0  0  0  0  0
  181.9520  172.3950  135.6150 C   0  0  0  0  0  2  0  0  0  0  0  0
  183.8750  171.0650  136.4670 C   0  0  0  0  0  2  0  0  0  0  0  0
  181.1980  174.6140  136.5330 C   0  0  0  0  0  2  0  0  0  0  0  0
  181.8990  174.4580  137.7350 O   0  0  0  0  0  0  0  0  0  0  0  0
  182.6030  171.7830  136.8550 C   0  0  1  0  0  3  0  0  0  0  0  0
  184.9920  173.1960  135.0660 O   0  0  0  0  0  1  0  0  0  0  0  0
  184.4680  173.5220  136.3230 C   0  0  2  0  0  0  0  0  0  0  0  0
  184.2150  177.4190  138.2350 C   0  0  0  0  0  1  0  0  0  0  0  0
  182.8700  176.6980  138.2790 C   0  0  2  0  0  0  0  0  0  0  0  0
  182.3290  176.6070  139.7340 C   0  0  2  0  0  3  0  0  0  0  0  0
  180.8190  176.8340  139.8020 C   0  0  0  0  0  2  0  0  0  0  0  0
  180.1130  175.5770  140.2730 C   0  0  0  0  0  1  0  0  0  0  0  0
  183.0210  177.5170  140.7120 C   0  0  0  0  0  3  0  0  0  0  0  0
  182.3720  178.5260  141.2880 C   0  0  0  0  0  2  0  0  0  0  0  0
  181.8790  177.4540  137.3760 C   0  0  0  0  0  2  0  0  0  0  0  0
  182.2910  178.7690  137.1350 O   0  0  0  0  0  0  0  0  0  0  0  0
  181.1840  179.5540  137.4570 C   0  0  1  0  0  3  0  0  0  0  0  0
  181.6150  180.6880  138.3630 C   0  0  0  0  0  1  0  0  0  0  0  0
  180.4650  180.2390  135.9380 S   0  0  0  0  0  1  0  0  0  0  0  0
  182.9340  176.2870  134.8650 O   0  0  0  0  0  1  0  0  0  0  0  0
  184.1930  175.8700  135.2990 C   0  0  1  0  0  3  0  0  0  0  0  0
  185.1130  177.0740  135.4590 C   0  0  0  0  0  2  0  0  0  0  0  0
  186.3610  176.9590  134.5940 C   0  0  0  0  0  2  0  0  0  0  0  0
  187.3010  177.6800  136.6720 O   0  0  0  0  0  1  0  0  0  0  0  0
  187.6220  177.1650  135.4170 C   0  0  0  0  0  2  0  0  0  0  0  0
  1  9  1  0  0  0  0
  1 14  1  6  0  0  0
  2  7  1  6  0  0  0
  4  8  1  0  0  0  0
  5 26  1  6  0  0  0
  5  3  1  0  0  0  0
  5  1  1  0  0  0  0
  6  4  1  0  0  0  0
  7 10  1  0  0  0  0
  8  9  1  0  0  0  0
 10  6  1  6  0  0  0
 10  2  1  0  0  0  0
 12 11  1  6  0  0  0
 12  5  1  0  0  0  0
 12  3  1  0  0  0  0
 12  2  1  0  0  0  0
 14 13  1  1  0  0  0
 14 15  1  0  0  0  0
 15 16  1  6  0  0  0
 15 18  1  0  0  0  0
 16 17  1  0  0  0  0
 18 19  2  0  0  0  0
 20 14  1  0  0  0  0
 21 20  1  0  0  0  0
 21 22  1  0  0  0  0
 22 23  1  1  0  0  0
 24 22  1  0  0  0  0
 26 25  1  1  0  0  0
 26 27  1  0  0  0  0
 28 30  1  0  0  0  0
 28 27  1  0  0  0  0
 30 29  1  0  0  0  0
M  END
>  <MODEL>
8

>  <REMARK>
 VINA RESULT:      -3.3      2.879      6.979
  Name = 
  11 active torsions:
  status: ('A' for Active; 'I' for Inactive)
    1  A    between atoms: C_2  and  C_14
    2  A    between atoms: C_3  and  O_19
    3  A    between atoms: C_4  and  C_22
    4  A    between atoms: C_6  and  C_12
    5  A    between atoms: C_6  and  C_17
    6  A    between atoms: C_12  and  C_13
    7  A    between atoms: C_14  and  C_20
    8  A    between atoms: C_14  and  C_22
    9  A    between atoms: C_17  and  C_21
   10  A    between atoms: O_19  and  C_29
   11  A    between atoms: C_22  and  C_29
                            x       y       z     vdW  Elec       q    Type
                         _______ _______ _______ _____ _____    ______ ____

>  <TORSDO>
F 11

$$$$
=
 OpenBabel11052412203D

 30 32  0  0  1  0  0  0  0  0999 V2000
  181.4860  179.0010  137.8210 C   0  0  2  0  0  3  0  0  0  0  0  0
  181.1450  181.7780  136.5530 C   0  0  2  0  0  3  0  0  0  0  0  0
  181.6610  181.2940  138.9730 C   0  0  0  0  0  2  0  0  0  0  0  0
  178.9450  179.2300  135.4350 C   0  0  0  0  0  2  0  0  0  0  0  0
  180.7610  180.1150  138.6380 C   0  0  1  0  0  0  0  0  0  0  0  0
  178.9310  180.7230  135.7350 C   0  0  0  0  0  2  0  0  0  0  0  0
  180.3000  182.8010  135.8080 C   0  0  0  0  0  2  0  0  0  0  0  0
  179.6940  178.4510  136.5060 C   0  0  0  0  0  2  0  0  0  0  0  0
  181.0500  178.8010  136.4910 O   0  0  0  0  0  0  0  0  0  0  0  0
  180.2700  181.3570  135.3590 C   0  0  1  0  0  3  0  0  0  0  0  0
  179.5510  182.2980  138.4420 O   0  0  0  0  0  1  0  0  0  0  0  0
  180.5630  181.4690  137.9450 C   0  0  2  0  0  0  0  0  0  0  0  0
  183.3130  177.2990  137.7470 C   0  0  0  0  0  1  0  0  0  0  0  0
  182.0710  177.7450  138.5150 C   0  0  2  0  0  0  0  0  0  0  0  0
  181.0000  176.6170  138.5520 C   0  0  2  0  0  3  0  0  0  0  0  0
  180.9030  175.9600  139.9280 C   0  0  0  0  0  2  0  0  0  0  0  0
  179.5180  175.3780  140.1430 C   0  0  0  0  0  1  0  0  0  0  0  0
  181.1750  175.5590  137.4970 C   0  0  0  0  0  3  0  0  0  0  0  0
  180.1560  175.1790  136.7300 C   0  0  0  0  0  2  0  0  0  0  0  0
  182.4920  178.1410  139.9410 C   0  0  0  0  0  2  0  0  0  0  0  0
  183.8810  178.0980  140.1060 O   0  0  0  0  0  0  0  0  0  0  0  0
  184.1420  178.9820  141.1530 C   0  0  1  0  0  3  0  0  0  0  0  0
  183.3850  178.5400  142.3880 C   0  0  0  0  0  1  0  0  0  0  0  0
  185.9220  178.9900  141.5090 S   0  0  0  0  0  1  0  0  0  0  0  0
  178.9330  178.6900  139.3460 O   0  0  0  0  0  1  0  0  0  0  0  0
  179.6920  179.8030  139.7070 C   0  0  1  0  0  3  0  0  0  0  0  0
  180.2500  179.6190  141.1130 C   0  0  0  0  0  2  0  0  0  0  0  0
  179.3460  178.7500  141.9770 C   0  0  0  0  0  2  0  0  0  0  0  0
  179.7070  177.8790  144.1750 O   0  0  0  0  0  1  0  0  0  0  0  0
  179.5320  179.0590  143.4540 C   0  0  0  0  0  2  0  0  0  0  0  0
  1 14  1  1  0  0  0
  1  5  1  0  0  0  0
  2  7  1  1  0  0  0
  2 12  1  0  0  0  0
  4  6  1  0  0  0  0
  4  8  1  0  0  0  0
  5  3  1  0  0  0  0
  5 26  1  1  0  0  0
  9  8  1  0  0  0  0
  9  1  1  0  0  0  0
 10  6  1  1  0  0  0
 10  7  1  0  0  0  0
 10  2  1  0  0  0  0
 12 11  1  1  0  0  0
 12  5  1  0  0  0  0
 12  3  1  0  0  0  0
 14 13  1  6  0  0  0
 14 15  1  0  0  0  0
 14 20  1  0  0  0  0
 15 18  1  6  0  0  0
 15 16  1  0  0  0  0
 16 17  1  0  0  0  0
 19 18  2  0  0  0  0
 20 21  1  0  0  0  0
 21 22  1  0  0  0  0
 22 24  1  0  0  0  0
 22 23  1  1  0  0  0
 26 25  1  6  0  0  0
 26 27  1  0  0  0  0
 27 28  1  0  0  0  0
 28 30  1  0  0  0  0
 30 29  1  0  0  0  0
M  END
>  <MODEL>
9

>  <REMARK>
 VINA RESULT:      -3.2      2.269      5.422
  Name = 
  11 active torsions:
  status: ('A' for Active; 'I' for Inactive)
    1  A    between atoms: C_2  and  C_14
    2  A    between atoms: C_3  and  O_19
    3  A    between atoms: C_4  and  C_22
    4  A    between atoms: C_6  and  C_12
    5  A    between atoms: C_6  and  C_17
    6  A    between atoms: C_12  and  C_13
    7  A    between atoms: C_14  and  C_20
    8  A    between atoms: C_14  and  C_22
    9  A    between atoms: C_17  and  C_21
   10  A    between atoms: O_19  and  C_29
   11  A    between atoms: C_22  and  C_29
                            x       y       z     vdW  Elec       q    Type
                         _______ _______ _______ _____ _____    ______ ____

>  <TORSDO>
F 11

$$$$
