=
 OpenBabel11052415393D

 34 39  0  0  1  0  0  0  0  0999 V2000
  190.0020  176.2010  138.3670 C   0  0  1  0  0  3  0  0  0  0  0  0
  191.8840  175.0570  135.1130 C   0  0  0  0  0  2  0  0  0  0  0  0
  190.3830  177.0620  135.5760 C   0  0  0  0  0  2  0  0  0  0  0  0
  188.9850  176.7580  140.4780 C   0  0  2  0  0  3  0  0  0  0  0  0
  190.1900  176.2120  139.8130 N   0  0  0  0  0  2  0  0  0  0  0  0
  189.0000  178.5440  138.6300 C   0  0  1  0  0  3  0  0  0  0  0  0
  188.2100  179.2440  137.6860 O   0  0  0  0  0  0  0  0  0  0  0  0
  188.1390  177.7520  139.6210 C   0  0  0  0  0  2  0  0  0  0  0  0
  189.3000  177.5400  136.5340 C   0  0  1  0  0  3  0  0  0  0  0  0
  189.9130  177.6230  137.8660 C   0  0  2  0  0  3  0  0  0  0  0  0
  188.7400  178.9250  136.4100 C   0  0  0  0  0  2  0  0  0  0  0  0
  192.5500  173.9980  135.7610 O   0  0  0  0  0  0  0  0  0  0  0  0
  193.7360  174.4800  136.3760 C   0  0  2  0  0  3  0  0  0  0  0  0
  193.6490  175.8880  136.9970 C   0  0  0  0  0  2  0  0  0  0  0  0
  190.8130  175.6430  136.0320 C   0  0  2  0  0  3  0  0  0  0  0  0
  192.5130  176.0410  138.0100 C   0  0  0  0  0  2  0  0  0  0  0  0
  191.1290  175.5170  137.5690 C   0  0  1  0  0  3  0  0  0  0  0  0
  191.2150  177.5030  143.4180 O   0  0  0  0  0  0  0  0  0  0  0  0
  188.4490  177.9510  144.0860 C   0  0  0  0  0  2  0  0  0  0  0  0
  191.2410  176.3530  147.0270 C   0  0  2  0  0  3  0  0  0  0  0  0
  191.8140  176.9950  145.7660 C   0  0  0  0  0  2  0  0  0  0  0  0
  190.7650  177.2870  144.7240 C   0  0  0  0  0  0  0  0  0  0  0  0
  189.3570  177.3210  141.8520 C   0  0  1  0  0  3  0  0  0  0  0  0
  188.9490  177.0640  146.4270 C   0  0  0  0  0  2  0  0  0  0  0  0
  189.4590  177.4200  145.0540 C   0  0  0  0  0  0  0  0  0  0  0  0
  190.0320  177.1460  147.4940 C   0  0  0  0  0  2  0  0  0  0  0  0
  188.2760  177.0370  142.8880 C   0  0  0  0  0  2  0  0  0  0  0  0
  190.7050  176.7780  142.3040 C   0  0  0  0  0  2  0  0  0  0  0  0
  192.2780  176.3060  148.0970 C   0  0  0  0  0  0  0  0  0  0  0  0
  192.9610  175.2620  148.2590 O   0  0  0  0  0  0  0  0  0  0  0  0
  192.4960  177.4060  148.9190 O   0  0  0  0  0  1  0  0  0  0  0  0
  194.9060  174.3640  135.4540 C   0  0  0  0  0  0  0  0  0  0  0  0
  195.1330  173.2890  134.8400 O   0  0  0  0  0  0  0  0  0  0  0  0
  195.7700  175.4790  135.2700 N   0  0  0  0  0  1  0  0  0  0  0  0
  1  5  1  1  0  0  0
  2 12  1  0  0  0  0
  2 15  1  0  0  0  0
  3 15  1  0  0  0  0
  4  8  1  6  0  0  0
  4 23  1  0  0  0  0
  5  4  1  0  0  0  0
  6  8  1  1  0  0  0
  7  6  1  0  0  0  0
  9  3  1  6  0  0  0
  9 10  1  0  0  0  0
 10  1  1  0  0  0  0
 10  6  1  0  0  0  0
 11  9  1  0  0  0  0
 11  7  1  0  0  0  0
 12 13  1  0  0  0  0
 13 14  1  0  0  0  0
 14 16  1  0  0  0  0
 15 17  1  0  0  0  0
 17 16  1  0  0  0  0
 17  1  1  0  0  0  0
 18 22  1  0  0  0  0
 19 25  1  0  0  0  0
 20 26  1  0  0  0  0
 20 29  1  0  0  0  0
 21 20  1  0  0  0  0
 22 25  2  0  0  0  0
 22 21  1  0  0  0  0
 23 28  1  0  0  0  0
 23 27  1  0  0  0  0
 24 26  1  0  0  0  0
 25 24  1  0  0  0  0
 27 19  1  0  0  0  0
 28 18  1  0  0  0  0
 29 30  2  0  0  0  0
 29 31  1  0  0  0  0
 32 13  1  0  0  0  0
 33 32  2  0  0  0  0
 34 32  1  0  0  0  0
M  END
>  <MODEL>
1

>  <REMARK>
 VINA RESULT:      -9.0      0.000      0.000
  Name = 
  3 active torsions:
  status: ('A' for Active; 'I' for Inactive)
    1  A    between atoms: C_3  and  C_25
    2  A    between atoms: C_7  and  C_11
    3  A    between atoms: C_8  and  C_18
                            x       y       z     vdW  Elec       q    Type
                         _______ _______ _______ _____ _____    ______ ____

>  <TORSDO>
F 3

$$$$
=
 OpenBabel11052415393D

 34 39  0  0  1  0  0  0  0  0999 V2000
  181.8960  179.6410  138.6870 C   0  0  1  0  0  3  0  0  0  0  0  0
  179.4620  181.7620  136.4470 C   0  0  0  0  0  2  0  0  0  0  0  0
  179.0450  180.3670  138.5380 C   0  0  0  0  0  2  0  0  0  0  0  0
  183.5620  178.4550  139.9590 C   0  0  2  0  0  3  0  0  0  0  0  0
  183.2680  179.6800  139.1810 N   0  0  0  0  0  2  0  0  0  0  0  0
  181.2410  178.7860  141.0110 C   0  0  1  0  0  3  0  0  0  0  0  0
  180.0290  178.1490  141.3760 O   0  0  0  0  0  0  0  0  0  0  0  0
  182.3270  177.7750  140.6310 C   0  0  0  0  0  2  0  0  0  0  0  0
  179.6520  179.2290  139.3470 C   0  0  1  0  0  3  0  0  0  0  0  0
  180.9430  179.7050  139.8570 C   0  0  2  0  0  3  0  0  0  0  0  0
  179.0070  178.7840  140.6260 C   0  0  0  0  0  2  0  0  0  0  0  0
  180.5010  182.2800  135.6500 O   0  0  0  0  0  0  0  0  0  0  0  0
  181.0580  183.4280  136.2730 C   0  0  2  0  0  3  0  0  0  0  0  0
  181.1600  183.3780  137.8110 C   0  0  0  0  0  2  0  0  0  0  0  0
  179.9960  180.6460  137.3440 C   0  0  2  0  0  3  0  0  0  0  0  0
  181.9190  182.1580  138.3350 C   0  0  0  0  0  2  0  0  0  0  0  0
  181.5140  180.7930  137.7370 C   0  0  1  0  0  3  0  0  0  0  0  0
  187.1260  178.9670  141.0580 O   0  0  0  0  0  0  0  0  0  0  0  0
  185.4080  178.5040  143.3230 C   0  0  0  0  0  2  0  0  0  0  0  0
  189.4900  176.9760  143.2480 C   0  0  2  0  0  3  0  0  0  0  0  0
  189.1030  178.0440  142.2290 C   0  0  0  0  0  2  0  0  0  0  0  0
  187.6200  178.3150  142.1920 C   0  0  0  0  0  0  0  0  0  0  0  0
  184.7040  178.7230  140.9420 C   0  0  1  0  0  3  0  0  0  0  0  0
  187.3180  177.2050  144.4100 C   0  0  0  0  0  2  0  0  0  0  0  0
  186.8220  178.0190  143.2440 C   0  0  0  0  0  0  0  0  0  0  0  0
  188.8290  177.2850  144.5820 C   0  0  0  0  0  2  0  0  0  0  0  0
  184.5430  177.9150  142.2250 C   0  0  0  0  0  2  0  0  0  0  0  0
  186.0490  178.4460  140.2850 C   0  0  0  0  0  2  0  0  0  0  0  0
  190.9720  176.9230  143.4010 C   0  0  0  0  0  0  0  0  0  0  0  0
  191.6560  177.9590  143.2030 O   0  0  0  0  0  0  0  0  0  0  0  0
  191.6040  175.7380  143.7600 O   0  0  0  0  0  1  0  0  0  0  0  0
  180.3760  184.6750  135.8150 C   0  0  0  0  0  0  0  0  0  0  0  0
  180.3550  184.9820  134.5940 O   0  0  0  0  0  0  0  0  0  0  0  0
  179.7450  185.5240  136.7670 N   0  0  0  0  0  1  0  0  0  0  0  0
  1  5  1  1  0  0  0
  1 10  1  0  0  0  0
  2 15  1  0  0  0  0
  4  8  1  1  0  0  0
  4 23  1  0  0  0  0
  5  4  1  0  0  0  0
  6  8  1  6  0  0  0
  6  7  1  0  0  0  0
  9  3  1  1  0  0  0
  9 10  1  0  0  0  0
  9 11  1  0  0  0  0
 10  6  1  0  0  0  0
 11  7  1  0  0  0  0
 12 13  1  0  0  0  0
 12  2  1  0  0  0  0
 13 14  1  0  0  0  0
 14 16  1  0  0  0  0
 15 17  1  0  0  0  0
 15  3  1  0  0  0  0
 17 16  1  0  0  0  0
 17  1  1  0  0  0  0
 18 22  1  0  0  0  0
 20 29  1  0  0  0  0
 20 26  1  0  0  0  0
 21 20  1  0  0  0  0
 22 21  1  0  0  0  0
 22 25  2  0  0  0  0
 23 27  1  0  0  0  0
 24 26  1  0  0  0  0
 25 19  1  0  0  0  0
 25 24  1  0  0  0  0
 27 19  1  0  0  0  0
 28 23  1  0  0  0  0
 28 18  1  0  0  0  0
 29 31  1  0  0  0  0
 30 29  2  0  0  0  0
 32 13  1  0  0  0  0
 32 34  1  0  0  0  0
 33 32  2  0  0  0  0
M  END
>  <MODEL>
2

>  <REMARK>
 VINA RESULT:      -8.5      6.874      9.994
  Name = 
  3 active torsions:
  status: ('A' for Active; 'I' for Inactive)
    1  A    between atoms: C_3  and  C_25
    2  A    between atoms: C_7  and  C_11
    3  A    between atoms: C_8  and  C_18
                            x       y       z     vdW  Elec       q    Type
                         _______ _______ _______ _____ _____    ______ ____

>  <TORSDO>
F 3

$$$$
=
 OpenBabel11052415393D

 34 39  0  0  1  0  0  0  0  0999 V2000
  182.1020  179.2410  138.8440 C   0  0  1  0  0  3  0  0  0  0  0  0
  179.7680  180.8840  136.1440 C   0  0  0  0  0  2  0  0  0  0  0  0
  179.2780  179.2190  138.0080 C   0  0  0  0  0  2  0  0  0  0  0  0
  183.6870  178.4000  140.4500 C   0  0  2  0  0  3  0  0  0  0  0  0
  183.2560  179.5810  139.6700 N   0  0  0  0  0  2  0  0  0  0  0  0
  181.1860  178.0090  140.8950 C   0  0  1  0  0  3  0  0  0  0  0  0
  180.1470  177.0470  140.9180 O   0  0  0  0  0  0  0  0  0  0  0  0
  182.5670  177.3570  140.7630 C   0  0  0  0  0  2  0  0  0  0  0  0
  179.9690  178.1970  138.9010 C   0  0  1  0  0  3  0  0  0  0  0  0
  180.9230  178.9350  139.7370 C   0  0  2  0  0  3  0  0  0  0  0  0
  179.1930  177.4710  139.9580 C   0  0  0  0  0  2  0  0  0  0  0  0
  180.7790  181.7330  135.6540 O   0  0  0  0  0  0  0  0  0  0  0  0
  180.8380  182.9150  136.4400 C   0  0  2  0  0  3  0  0  0  0  0  0
  180.5880  182.7320  137.9510 C   0  0  0  0  0  2  0  0  0  0  0  0
  180.3650  179.8570  137.1040 C   0  0  2  0  0  3  0  0  0  0  0  0
  181.5110  181.7020  138.6030 C   0  0  0  0  0  2  0  0  0  0  0  0
  181.6490  180.3480  137.8720 C   0  0  1  0  0  3  0  0  0  0  0  0
  186.5890  178.6020  142.8380 O   0  0  0  0  0  0  0  0  0  0  0  0
  184.1870  179.6260  144.0520 C   0  0  0  0  0  2  0  0  0  0  0  0
  187.1240  177.4200  146.3980 C   0  0  2  0  0  3  0  0  0  0  0  0
  187.5440  177.9410  145.0260 C   0  0  0  0  0  2  0  0  0  0  0  0
  186.3870  178.4690  144.2160 C   0  0  0  0  0  0  0  0  0  0  0  0
  184.4500  178.8480  141.6990 C   0  0  1  0  0  3  0  0  0  0  0  0
  184.9640  178.6170  146.2650 C   0  0  0  0  0  2  0  0  0  0  0  0
  185.2390  178.8750  144.8060 C   0  0  0  0  0  0  0  0  0  0  0  0
  186.2380  178.4480  147.0810 C   0  0  0  0  0  2  0  0  0  0  0  0
  183.5750  178.7890  142.9450 C   0  0  0  0  0  2  0  0  0  0  0  0
  185.7150  178.0210  141.8770 C   0  0  0  0  0  2  0  0  0  0  0  0
  188.3280  177.1340  147.2300 C   0  0  0  0  0  0  0  0  0  0  0  0
  188.3100  177.3900  148.4610 O   0  0  0  0  0  1  0  0  0  0  0  0
  189.4710  176.5880  146.6560 O   0  0  0  0  0  0  0  0  0  0  0  0
  179.9640  183.9840  135.8710 C   0  0  0  0  0  0  0  0  0  0  0  0
  179.9110  184.1730  134.6270 O   0  0  0  0  0  0  0  0  0  0  0  0
  179.1870  184.7970  136.7430 N   0  0  0  0  0  1  0  0  0  0  0  0
  1  5  1  1  0  0  0
  1 10  1  0  0  0  0
  2 15  1  0  0  0  0
  4  8  1  1  0  0  0
  4 23  1  0  0  0  0
  5  4  1  0  0  0  0
  6  8  1  6  0  0  0
  6  7  1  0  0  0  0
  9  3  1  1  0  0  0
  9 10  1  0  0  0  0
  9 11  1  0  0  0  0
 10  6  1  0  0  0  0
 11  7  1  0  0  0  0
 12  2  1  0  0  0  0
 12 13  1  0  0  0  0
 13 14  1  0  0  0  0
 14 16  1  0  0  0  0
 15 17  1  0  0  0  0
 15  3  1  0  0  0  0
 17 16  1  0  0  0  0
 17  1  1  0  0  0  0
 18 22  1  0  0  0  0
 19 25  1  0  0  0  0
 20 26  1  0  0  0  0
 20 29  1  0  0  0  0
 21 20  1  0  0  0  0
 22 25  2  0  0  0  0
 22 21  1  0  0  0  0
 23 28  1  0  0  0  0
 23 27  1  0  0  0  0
 24 26  1  0  0  0  0
 25 24  1  0  0  0  0
 27 19  1  0  0  0  0
 28 18  1  0  0  0  0
 29 30  1  0  0  0  0
 31 29  2  0  0  0  0
 32 13  1  0  0  0  0
 32 34  1  0  0  0  0
 33 32  2  0  0  0  0
M  END
>  <MODEL>
3

>  <REMARK>
 VINA RESULT:      -8.5      6.967      9.874
  Name = 
  3 active torsions:
  status: ('A' for Active; 'I' for Inactive)
    1  A    between atoms: C_3  and  C_25
    2  A    between atoms: C_7  and  C_11
    3  A    between atoms: C_8  and  C_18
                            x       y       z     vdW  Elec       q    Type
                         _______ _______ _______ _____ _____    ______ ____

>  <TORSDO>
F 3

$$$$
=
 OpenBabel11052415393D

 34 39  0  0  1  0  0  0  0  0999 V2000
  189.0700  177.2200  137.8430 C   0  0  1  0  0  3  0  0  0  0  0  0
  186.8590  177.1810  134.5950 C   0  0  0  0  0  2  0  0  0  0  0  0
  189.0680  176.0370  135.1460 C   0  0  0  0  0  2  0  0  0  0  0  0
  190.2410  177.3280  139.9450 C   0  0  2  0  0  3  0  0  0  0  0  0
  188.9140  177.2590  139.2930 N   0  0  0  0  0  2  0  0  0  0  0  0
  190.9670  175.5450  138.2420 C   0  0  1  0  0  3  0  0  0  0  0  0
  191.9720  175.1590  137.3220 O   0  0  0  0  0  0  0  0  0  0  0  0
  191.4210  176.7080  139.1320 C   0  0  0  0  0  2  0  0  0  0  0  0
  190.2580  176.1420  136.0910 C   0  0  1  0  0  3  0  0  0  0  0  0
  189.7460  175.9280  137.4490 C   0  0  2  0  0  3  0  0  0  0  0  0
  191.3470  175.1140  136.0500 C   0  0  0  0  0  2  0  0  0  0  0  0
  185.8150  177.9160  135.1870 O   0  0  0  0  0  0  0  0  0  0  0  0
  184.9450  177.0390  135.8880 C   0  0  2  0  0  3  0  0  0  0  0  0
  185.6210  175.8570  136.6110 C   0  0  0  0  0  2  0  0  0  0  0  0
  188.0840  177.1800  135.5090 C   0  0  2  0  0  3  0  0  0  0  0  0
  186.7220  176.2830  137.5830 C   0  0  0  0  0  2  0  0  0  0  0  0
  187.7550  177.2970  137.0440 C   0  0  1  0  0  3  0  0  0  0  0  0
  188.6290  176.5990  143.2670 O   0  0  0  0  0  0  0  0  0  0  0  0
  191.4790  176.2130  143.4020 C   0  0  0  0  0  2  0  0  0  0  0  0
  189.2670  177.8160  146.7980 C   0  0  2  0  0  3  0  0  0  0  0  0
  188.4780  177.1410  145.6790 C   0  0  0  0  0  2  0  0  0  0  0  0
  189.3150  176.8480  144.4600 C   0  0  0  0  0  0  0  0  0  0  0  0
  190.1500  176.7850  141.3720 C   0  0  1  0  0  3  0  0  0  0  0  0
  191.4170  177.1350  145.7810 C   0  0  0  0  0  2  0  0  0  0  0  0
  190.6620  176.7440  144.5370 C   0  0  0  0  0  0  0  0  0  0  0  0
  190.5600  177.0530  147.0370 C   0  0  0  0  0  2  0  0  0  0  0  0
  191.4020  177.1070  142.1790 C   0  0  0  0  0  2  0  0  0  0  0  0
  188.9010  177.3120  142.0650 C   0  0  0  0  0  2  0  0  0  0  0  0
  188.4520  177.8650  148.0450 C   0  0  0  0  0  0  0  0  0  0  0  0
  187.2550  177.4790  148.0240 O   0  0  0  0  0  0  0  0  0  0  0  0
  189.0030  178.3350  149.2320 O   0  0  0  0  0  1  0  0  0  0  0  0
  183.8300  176.5730  135.0110 C   0  0  0  0  0  0  0  0  0  0  0  0
  183.7680  175.3710  134.6380 O   0  0  0  0  0  0  0  0  0  0  0  0
  182.8290  177.4940  134.5940 N   0  0  0  0  0  1  0  0  0  0  0  0
  1  5  1  1  0  0  0
  2 12  1  0  0  0  0
  2 15  1  0  0  0  0
  3 15  1  0  0  0  0
  4  8  1  6  0  0  0
  4 23  1  0  0  0  0
  5  4  1  0  0  0  0
  6  8  1  6  0  0  0
  7  6  1  0  0  0  0
  9  3  1  6  0  0  0
  9 10  1  0  0  0  0
 10  1  1  0  0  0  0
 10  6  1  0  0  0  0
 11  9  1  0  0  0  0
 11  7  1  0  0  0  0
 12 13  1  0  0  0  0
 13 14  1  0  0  0  0
 14 16  1  0  0  0  0
 15 17  1  0  0  0  0
 17 16  1  0  0  0  0
 17  1  1  0  0  0  0
 18 22  1  0  0  0  0
 19 25  1  0  0  0  0
 20 26  1  0  0  0  0
 20 29  1  0  0  0  0
 21 20  1  0  0  0  0
 22 25  2  0  0  0  0
 22 21  1  0  0  0  0
 23 28  1  0  0  0  0
 23 27  1  0  0  0  0
 24 26  1  0  0  0  0
 25 24  1  0  0  0  0
 27 19  1  0  0  0  0
 28 18  1  0  0  0  0
 29 31  1  0  0  0  0
 30 29  2  0  0  0  0
 32 13  1  0  0  0  0
 33 32  2  0  0  0  0
 34 32  1  0  0  0  0
M  END
>  <MODEL>
4

>  <REMARK>
 VINA RESULT:      -8.5      3.014      5.307
  Name = 
  3 active torsions:
  status: ('A' for Active; 'I' for Inactive)
    1  A    between atoms: C_3  and  C_25
    2  A    between atoms: C_7  and  C_11
    3  A    between atoms: C_8  and  C_18
                            x       y       z     vdW  Elec       q    Type
                         _______ _______ _______ _____ _____    ______ ____

>  <TORSDO>
F 3

$$$$
=
 OpenBabel11052415393D

 34 39  0  0  1  0  0  0  0  0999 V2000
  181.6700  176.8790  139.1230 C   0  0  1  0  0  3  0  0  0  0  0  0
  181.3210  174.3490  136.1370 C   0  0  0  0  0  2  0  0  0  0  0  0
  181.2600  176.8950  136.2060 C   0  0  0  0  0  2  0  0  0  0  0  0
  181.9710  178.2550  141.0770 C   0  0  2  0  0  3  0  0  0  0  0  0
  182.4000  177.0220  140.3770 N   0  0  0  0  0  2  0  0  0  0  0  0
  182.0810  179.3830  138.7700 C   0  0  1  0  0  3  0  0  0  0  0  0
  181.4100  180.2380  137.8620 O   0  0  0  0  0  0  0  0  0  0  0  0
  181.4280  179.3930  140.1560 C   0  0  0  0  0  2  0  0  0  0  0  0
  181.0130  178.0520  137.1650 C   0  0  1  0  0  3  0  0  0  0  0  0
  182.0650  177.9950  138.1860 C   0  0  2  0  0  3  0  0  0  0  0  0
  181.1700  179.4670  136.6960 C   0  0  0  0  0  2  0  0  0  0  0  0
  181.6080  173.2260  136.9360 O   0  0  0  0  0  0  0  0  0  0  0  0
  183.0140  173.0480  137.0280 C   0  0  2  0  0  3  0  0  0  0  0  0
  183.8530  174.3400  137.1080 C   0  0  0  0  0  2  0  0  0  0  0  0
  181.1170  175.5810  137.0180 C   0  0  2  0  0  3  0  0  0  0  0  0
  183.4330  175.2730  138.2440 C   0  0  0  0  0  2  0  0  0  0  0  0
  181.9200  175.5570  138.3710 C   0  0  1  0  0  3  0  0  0  0  0  0
  185.4570  178.4840  142.4780 O   0  0  0  0  0  0  0  0  0  0  0  0
  183.5350  179.5810  144.3210 C   0  0  0  0  0  2  0  0  0  0  0  0
  187.0280  177.4010  145.7510 C   0  0  2  0  0  3  0  0  0  0  0  0
  187.0200  177.8750  144.3000 C   0  0  0  0  0  2  0  0  0  0  0  0
  185.6770  178.3950  143.8560 C   0  0  0  0  0  0  0  0  0  0  0  0
  183.0750  178.7290  142.0240 C   0  0  1  0  0  3  0  0  0  0  0  0
  184.9340  178.6270  146.2310 C   0  0  0  0  0  2  0  0  0  0  0  0
  184.7600  178.8370  144.7490 C   0  0  0  0  0  0  0  0  0  0  0  0
  186.3930  178.4630  146.6340 C   0  0  0  0  0  2  0  0  0  0  0  0
  182.6140  178.7210  143.4760 C   0  0  0  0  0  2  0  0  0  0  0  0
  184.3310  177.8880  141.8430 C   0  0  0  0  0  2  0  0  0  0  0  0
  188.4240  177.1220  146.1940 C   0  0  0  0  0  0  0  0  0  0  0  0
  189.3600  177.1450  145.3540 O   0  0  0  0  0  0  0  0  0  0  0  0
  188.6990  176.8360  147.5260 O   0  0  0  0  0  1  0  0  0  0  0  0
  183.5150  172.1410  135.9520 C   0  0  0  0  0  0  0  0  0  0  0  0
  184.1860  172.5990  134.9900 O   0  0  0  0  0  0  0  0  0  0  0  0
  183.2300  170.7490  136.0140 N   0  0  0  0  0  1  0  0  0  0  0  0
  1  5  1  1  0  0  0
  2 12  1  0  0  0  0
  2 15  1  0  0  0  0
  3 15  1  0  0  0  0
  4  8  1  6  0  0  0
  4 23  1  0  0  0  0
  5  4  1  0  0  0  0
  6  8  1  1  0  0  0
  7  6  1  0  0  0  0
  9  3  1  6  0  0  0
  9 10  1  0  0  0  0
 10  6  1  0  0  0  0
 10  1  1  0  0  0  0
 11  9  1  0  0  0  0
 11  7  1  0  0  0  0
 12 13  1  0  0  0  0
 13 14  1  0  0  0  0
 14 16  1  0  0  0  0
 15 17  1  0  0  0  0
 16 17  1  0  0  0  0
 17  1  1  0  0  0  0
 18 22  1  0  0  0  0
 19 25  1  0  0  0  0
 20 29  1  0  0  0  0
 20 26  1  0  0  0  0
 21 20  1  0  0  0  0
 22 21  1  0  0  0  0
 22 25  2  0  0  0  0
 23 27  1  0  0  0  0
 24 26  1  0  0  0  0
 25 24  1  0  0  0  0
 27 19  1  0  0  0  0
 28 23  1  0  0  0  0
 28 18  1  0  0  0  0
 29 31  1  0  0  0  0
 30 29  2  0  0  0  0
 32 34  1  0  0  0  0
 32 13  1  0  0  0  0
 33 32  2  0  0  0  0
M  END
>  <MODEL>
5

>  <REMARK>
 VINA RESULT:      -8.4      6.578      7.904
  Name = 
  3 active torsions:
  status: ('A' for Active; 'I' for Inactive)
    1  A    between atoms: C_3  and  C_25
    2  A    between atoms: C_7  and  C_11
    3  A    between atoms: C_8  and  C_18
                            x       y       z     vdW  Elec       q    Type
                         _______ _______ _______ _____ _____    ______ ____

>  <TORSDO>
F 3

$$$$
=
 OpenBabel11052415393D

 34 39  0  0  1  0  0  0  0  0999 V2000
  188.7990  175.5780  136.7220 C   0  0  1  0  0  3  0  0  0  0  0  0
  186.8570  172.9070  134.5940 C   0  0  0  0  0  2  0  0  0  0  0  0
  189.2400  172.9390  135.4910 C   0  0  0  0  0  2  0  0  0  0  0  0
  189.7840  177.3090  138.0770 C   0  0  2  0  0  3  0  0  0  0  0  0
  188.5540  176.5360  137.7950 N   0  0  0  0  0  2  0  0  0  0  0  0
  191.0180  175.0620  137.8940 C   0  0  1  0  0  3  0  0  0  0  0  0
  192.1390  174.3930  137.3420 O   0  0  0  0  0  0  0  0  0  0  0  0
  191.1250  176.5830  137.7380 C   0  0  0  0  0  2  0  0  0  0  0  0
  190.3120  173.9020  135.9840 C   0  0  1  0  0  3  0  0  0  0  0  0
  189.7890  174.5410  137.1970 C   0  0  2  0  0  3  0  0  0  0  0  0
  191.6190  173.3790  136.4990 C   0  0  0  0  0  2  0  0  0  0  0  0
  185.6320  173.5980  134.6760 O   0  0  0  0  0  0  0  0  0  0  0  0
  184.9620  173.2470  135.8780 C   0  0  2  0  0  3  0  0  0  0  0  0
  185.8600  173.0320  137.1120 C   0  0  0  0  0  2  0  0  0  0  0  0
  187.9900  173.7820  135.1280 C   0  0  2  0  0  3  0  0  0  0  0  0
  186.7670  174.2230  137.4250 C   0  0  0  0  0  2  0  0  0  0  0  0
  187.5530  174.8140  136.2340 C   0  0  1  0  0  3  0  0  0  0  0  0
  191.0830  178.0240  141.5370 O   0  0  0  0  0  0  0  0  0  0  0  0
  188.2340  178.4270  141.4050 C   0  0  0  0  0  2  0  0  0  0  0  0
  190.1100  176.8070  144.9900 C   0  0  2  0  0  3  0  0  0  0  0  0
  191.0040  177.4780  143.9510 C   0  0  0  0  0  2  0  0  0  0  0  0
  190.2870  177.7780  142.6600 C   0  0  0  0  0  0  0  0  0  0  0  0
  189.7450  177.8500  139.5080 C   0  0  1  0  0  3  0  0  0  0  0  0
  188.0690  177.5020  143.7780 C   0  0  0  0  0  2  0  0  0  0  0  0
  188.9390  177.8890  142.6100 C   0  0  0  0  0  0  0  0  0  0  0  0
  188.8050  177.5770  145.1090 C   0  0  0  0  0  2  0  0  0  0  0  0
  188.4200  177.5340  140.1930 C   0  0  0  0  0  2  0  0  0  0  0  0
  190.9200  177.3140  140.3130 C   0  0  0  0  0  2  0  0  0  0  0  0
  190.8040  176.7510  146.3080 C   0  0  0  0  0  0  0  0  0  0  0  0
  192.0560  176.6370  146.3490 O   0  0  0  0  0  0  0  0  0  0  0  0
  190.0800  176.8230  147.4920 O   0  0  0  0  0  1  0  0  0  0  0  0
  184.0450  172.0880  135.6650 C   0  0  0  0  0  0  0  0  0  0  0  0
  184.0950  171.0840  136.4240 O   0  0  0  0  0  0  0  0  0  0  0  0
  183.1090  172.1160  134.5940 N   0  0  0  0  0  1  0  0  0  0  0  0
  1 10  1  0  0  0  0
  1  5  1  1  0  0  0
  2 12  1  0  0  0  0
  2 15  1  0  0  0  0
  4  8  1  1  0  0  0
  4 23  1  0  0  0  0
  5  4  1  0  0  0  0
  6  8  1  6  0  0  0
  7  6  1  0  0  0  0
  9  3  1  1  0  0  0
  9 11  1  0  0  0  0
  9 10  1  0  0  0  0
 10  6  1  0  0  0  0
 11  7  1  0  0  0  0
 12 13  1  0  0  0  0
 13 14  1  0  0  0  0
 14 16  1  0  0  0  0
 15  3  1  0  0  0  0
 15 17  1  0  0  0  0
 17  1  1  0  0  0  0
 17 16  1  0  0  0  0
 18 22  1  0  0  0  0
 19 25  1  0  0  0  0
 20 26  1  0  0  0  0
 20 29  1  0  0  0  0
 21 20  1  0  0  0  0
 22 21  1  0  0  0  0
 23 27  1  0  0  0  0
 23 28  1  0  0  0  0
 24 26  1  0  0  0  0
 25 22  2  0  0  0  0
 25 24  1  0  0  0  0
 27 19  1  0  0  0  0
 28 18  1  0  0  0  0
 29 30  2  0  0  0  0
 29 31  1  0  0  0  0
 32 13  1  0  0  0  0
 32 33  2  0  0  0  0
 34 32  1  0  0  0  0
M  END
>  <MODEL>
6

>  <REMARK>
 VINA RESULT:      -8.2      3.755      5.343
  Name = 
  3 active torsions:
  status: ('A' for Active; 'I' for Inactive)
    1  A    between atoms: C_3  and  C_25
    2  A    between atoms: C_7  and  C_11
    3  A    between atoms: C_8  and  C_18
                            x       y       z     vdW  Elec       q    Type
                         _______ _______ _______ _____ _____    ______ ____

>  <TORSDO>
F 3

$$$$
=
 OpenBabel11052415393D

 34 39  0  0  1  0  0  0  0  0999 V2000
  180.2340  177.3490  139.9380 C   0  0  1  0  0  3  0  0  0  0  0  0
  178.9330  174.8650  137.1860 C   0  0  0  0  0  2  0  0  0  0  0  0
  179.2430  177.3930  137.1650 C   0  0  0  0  0  2  0  0  0  0  0  0
  181.1180  178.6870  141.7350 C   0  0  2  0  0  3  0  0  0  0  0  0
  181.2190  177.3990  141.0140 N   0  0  0  0  0  2  0  0  0  0  0  0
  180.9100  179.7630  139.4110 C   0  0  1  0  0  3  0  0  0  0  0  0
  180.1930  180.6960  138.6230 O   0  0  0  0  0  0  0  0  0  0  0  0
  180.5620  179.8830  140.8980 C   0  0  0  0  0  2  0  0  0  0  0  0
  179.3600  178.5840  138.1070 C   0  0  1  0  0  3  0  0  0  0  0  0
  180.5810  178.3860  138.8970 C   0  0  2  0  0  3  0  0  0  0  0  0
  179.6140  179.9570  137.5600 C   0  0  0  0  0  2  0  0  0  0  0  0
  179.2180  173.7200  137.9550 O   0  0  0  0  0  0  0  0  0  0  0  0
  180.5750  173.3420  137.7700 C   0  0  2  0  0  3  0  0  0  0  0  0
  181.5830  174.5000  137.6280 C   0  0  0  0  0  2  0  0  0  0  0  0
  179.0870  176.1220  138.0410 C   0  0  2  0  0  3  0  0  0  0  0  0
  181.5390  175.4960  138.7880 C   0  0  0  0  0  2  0  0  0  0  0  0
  180.1390  175.9960  139.2050 C   0  0  1  0  0  3  0  0  0  0  0  0
  184.8580  178.8010  142.1350 O   0  0  0  0  0  0  0  0  0  0  0  0
  183.5400  179.3710  144.6320 C   0  0  0  0  0  2  0  0  0  0  0  0
  187.2770  177.1290  144.5250 C   0  0  2  0  0  3  0  0  0  0  0  0
  186.8650  177.9010  143.2740 C   0  0  0  0  0  2  0  0  0  0  0  0
  185.4550  178.4310  143.3450 C   0  0  0  0  0  0  0  0  0  0  0  0
  182.4470  179.0070  142.4210 C   0  0  1  0  0  3  0  0  0  0  0  0
  185.4120  178.1070  145.8230 C   0  0  0  0  0  2  0  0  0  0  0  0
  184.8310  178.6200  144.5300 C   0  0  0  0  0  0  0  0  0  0  0  0
  186.9240  177.9400  145.7600 C   0  0  0  0  0  2  0  0  0  0  0  0
  182.4120  178.6620  143.9060 C   0  0  0  0  0  2  0  0  0  0  0  0
  183.5950  178.2940  141.7200 C   0  0  0  0  0  2  0  0  0  0  0  0
  188.7390  176.8380  144.4920 C   0  0  0  0  0  0  0  0  0  0  0  0
  189.2930  176.5490  143.4010 O   0  0  0  0  0  0  0  0  0  0  0  0
  189.4940  176.8810  145.6590 O   0  0  0  0  0  1  0  0  0  0  0  0
  180.7130  172.3610  136.6530 C   0  0  0  0  0  0  0  0  0  0  0  0
  179.7620  171.5920  136.3530 O   0  0  0  0  0  0  0  0  0  0  0  0
  181.9320  172.2940  135.9210 N   0  0  0  0  0  1  0  0  0  0  0  0
  1  5  1  1  0  0  0
  2 12  1  0  0  0  0
  2 15  1  0  0  0  0
  3 15  1  0  0  0  0
  4  8  1  6  0  0  0
  4 23  1  0  0  0  0
  5  4  1  0  0  0  0
  6  8  1  1  0  0  0
  7  6  1  0  0  0  0
  9  3  1  6  0  0  0
  9 10  1  0  0  0  0
 10  6  1  0  0  0  0
 10  1  1  0  0  0  0
 11  9  1  0  0  0  0
 11  7  1  0  0  0  0
 13 12  1  0  0  0  0
 14 13  1  0  0  0  0
 14 16  1  0  0  0  0
 15 17  1  0  0  0  0
 16 17  1  0  0  0  0
 17  1  1  0  0  0  0
 18 22  1  0  0  0  0
 20 26  1  0  0  0  0
 21 22  1  0  0  0  0
 21 20  1  0  0  0  0
 22 25  2  0  0  0  0
 23 27  1  0  0  0  0
 25 19  1  0  0  0  0
 25 24  1  0  0  0  0
 26 24  1  0  0  0  0
 27 19  1  0  0  0  0
 28 18  1  0  0  0  0
 28 23  1  0  0  0  0
 29 20  1  0  0  0  0
 29 31  1  0  0  0  0
 30 29  2  0  0  0  0
 32 13  1  0  0  0  0
 33 32  2  0  0  0  0
 34 32  1  0  0  0  0
M  END
>  <MODEL>
7

>  <REMARK>
 VINA RESULT:      -8.1      7.248      9.394
  Name = 
  3 active torsions:
  status: ('A' for Active; 'I' for Inactive)
    1  A    between atoms: C_3  and  C_25
    2  A    between atoms: C_7  and  C_11
    3  A    between atoms: C_8  and  C_18
                            x       y       z     vdW  Elec       q    Type
                         _______ _______ _______ _____ _____    ______ ____

>  <TORSDO>
F 3

$$$$
=
 OpenBabel11052415393D

 34 39  0  0  1  0  0  0  0  0999 V2000
  187.7010  176.8080  136.8010 C   0  0  1  0  0  3  0  0  0  0  0  0
  184.6210  175.7690  134.5940 C   0  0  0  0  0  2  0  0  0  0  0  0
  186.6020  174.4250  135.4640 C   0  0  0  0  0  2  0  0  0  0  0  0
  189.4700  177.6350  138.2110 C   0  0  2  0  0  3  0  0  0  0  0  0
  188.0210  177.6960  137.9140 N   0  0  0  0  0  2  0  0  0  0  0  0
  189.2350  175.0920  137.9260 C   0  0  1  0  0  3  0  0  0  0  0  0
  189.7950  173.9320  137.3360 O   0  0  0  0  0  0  0  0  0  0  0  0
  190.1770  176.2960  137.8290 C   0  0  0  0  0  2  0  0  0  0  0  0
  188.0240  174.6020  135.9810 C   0  0  1  0  0  3  0  0  0  0  0  0
  187.9340  175.3770  137.2240 C   0  0  2  0  0  3  0  0  0  0  0  0
  188.8060  173.4170  136.4600 C   0  0  0  0  0  2  0  0  0  0  0  0
  183.9940  177.0240  134.7170 O   0  0  0  0  0  0  0  0  0  0  0  0
  183.2270  177.0630  135.9120 C   0  0  2  0  0  3  0  0  0  0  0  0
  183.8350  176.3330  137.1270 C   0  0  0  0  0  2  0  0  0  0  0  0
  186.0430  175.8370  135.1490 C   0  0  2  0  0  3  0  0  0  0  0  0
  185.2500  176.7990  137.4750 C   0  0  0  0  0  2  0  0  0  0  0  0
  186.2470  176.8930  136.2980 C   0  0  1  0  0  3  0  0  0  0  0  0
  191.3720  177.8910  141.4490 O   0  0  0  0  0  0  0  0  0  0  0  0
  188.6130  178.6280  141.8170 C   0  0  0  0  0  2  0  0  0  0  0  0
  190.8030  176.4950  144.9250 C   0  0  2  0  0  3  0  0  0  0  0  0
  191.6020  177.1480  143.8000 C   0  0  0  0  0  2  0  0  0  0  0  0
  190.7360  177.6410  142.6690 C   0  0  0  0  0  0  0  0  0  0  0  0
  189.7230  178.0500  139.6620 C   0  0  1  0  0  3  0  0  0  0  0  0
  188.7030  177.5240  144.1170 C   0  0  0  0  0  2  0  0  0  0  0  0
  189.4220  177.9100  142.8510 C   0  0  0  0  0  0  0  0  0  0  0  0
  189.6410  177.3970  145.3090 C   0  0  0  0  0  2  0  0  0  0  0  0
  188.4930  177.8290  140.5330 C   0  0  0  0  0  2  0  0  0  0  0  0
  190.9320  177.3140  140.2240 C   0  0  0  0  0  2  0  0  0  0  0  0
  191.6810  176.2450  146.1030 C   0  0  0  0  0  0  0  0  0  0  0  0
  192.4250  175.2320  146.1220 O   0  0  0  0  0  0  0  0  0  0  0  0
  191.6830  177.1230  147.1810 O   0  0  0  0  0  1  0  0  0  0  0  0
  181.8210  176.6260  135.6650 C   0  0  0  0  0  0  0  0  0  0  0  0
  181.1160  177.1970  134.7910 O   0  0  0  0  0  0  0  0  0  0  0  0
  181.2720  175.5540  136.4240 N   0  0  0  0  0  1  0  0  0  0  0  0
  1 10  1  0  0  0  0
  1  5  1  1  0  0  0
  2 12  1  0  0  0  0
  2 15  1  0  0  0  0
  4  8  1  1  0  0  0
  4 23  1  0  0  0  0
  5  4  1  0  0  0  0
  6  8  1  6  0  0  0
  7  6  1  0  0  0  0
  9  3  1  1  0  0  0
  9 11  1  0  0  0  0
  9 10  1  0  0  0  0
 10  6  1  0  0  0  0
 11  7  1  0  0  0  0
 12 13  1  0  0  0  0
 13 14  1  0  0  0  0
 14 16  1  0  0  0  0
 15  3  1  0  0  0  0
 15 17  1  0  0  0  0
 17  1  1  0  0  0  0
 17 16  1  0  0  0  0
 18 22  1  0  0  0  0
 19 25  1  0  0  0  0
 20 26  1  0  0  0  0
 20 29  1  0  0  0  0
 21 20  1  0  0  0  0
 22 25  2  0  0  0  0
 22 21  1  0  0  0  0
 23 28  1  0  0  0  0
 23 27  1  0  0  0  0
 24 26  1  0  0  0  0
 25 24  1  0  0  0  0
 27 19  1  0  0  0  0
 28 18  1  0  0  0  0
 29 30  2  0  0  0  0
 29 31  1  0  0  0  0
 32 13  1  0  0  0  0
 32 34  1  0  0  0  0
 33 32  2  0  0  0  0
M  END
>  <MODEL>
8

>  <REMARK>
 VINA RESULT:      -7.8      3.696      6.116
  Name = 
  3 active torsions:
  status: ('A' for Active; 'I' for Inactive)
    1  A    between atoms: C_3  and  C_25
    2  A    between atoms: C_7  and  C_11
    3  A    between atoms: C_8  and  C_18
                            x       y       z     vdW  Elec       q    Type
                         _______ _______ _______ _____ _____    ______ ____

>  <TORSDO>
F 3

$$$$
=
 OpenBabel11052415393D

 34 39  0  0  1  0  0  0  0  0999 V2000
  184.9220  178.9650  140.9160 C   0  0  1  0  0  3  0  0  0  0  0  0
  183.9910  179.5490  144.6880 C   0  0  0  0  0  2  0  0  0  0  0  0
  182.6340  178.6270  142.7390 C   0  0  0  0  0  2  0  0  0  0  0  0
  185.7150  178.6260  138.6670 C   0  0  2  0  0  3  0  0  0  0  0  0
  186.0640  178.5580  140.1040 N   0  0  0  0  0  2  0  0  0  0  0  0
  183.4870  177.5380  139.3450 C   0  0  1  0  0  3  0  0  0  0  0  0
  182.0790  177.5850  139.1970 O   0  0  0  0  0  0  0  0  0  0  0  0
  184.1990  178.4460  138.3360 C   0  0  0  0  0  2  0  0  0  0  0  0
  182.5910  178.6250  141.2170 C   0  0  1  0  0  3  0  0  0  0  0  0
  183.8110  177.9540  140.7550 C   0  0  2  0  0  3  0  0  0  0  0  0
  181.5530  177.8210  140.4930 C   0  0  0  0  0  2  0  0  0  0  0  0
  185.3000  179.9220  145.0480 O   0  0  0  0  0  0  0  0  0  0  0  0
  186.0700  178.7630  145.3330 C   0  0  2  0  0  3  0  0  0  0  0  0
  185.7880  177.5330  144.4480 C   0  0  0  0  0  2  0  0  0  0  0  0
  183.8700  179.4610  143.1670 C   0  0  2  0  0  3  0  0  0  0  0  0
  185.9200  177.8130  142.9500 C   0  0  0  0  0  2  0  0  0  0  0  0
  185.2050  179.0790  142.4270 C   0  0  1  0  0  3  0  0  0  0  0  0
  188.5760  176.2530  138.0790 O   0  0  0  0  0  0  0  0  0  0  0  0
  187.4740  177.1730  135.5820 C   0  0  0  0  0  2  0  0  0  0  0  0
  191.7510  176.4570  136.0220 C   0  0  2  0  0  3  0  0  0  0  0  0
  190.8130  175.8860  137.0820 C   0  0  0  0  0  2  0  0  0  0  0  0
  189.4010  176.3980  136.9590 C   0  0  0  0  0  0  0  0  0  0  0  0
  186.6160  177.6860  137.8650 C   0  0  1  0  0  3  0  0  0  0  0  0
  189.8400  177.1730  134.6230 C   0  0  0  0  0  2  0  0  0  0  0  0
  188.9290  176.8950  135.7910 C   0  0  0  0  0  0  0  0  0  0  0  0
  191.1060  176.3270  134.6520 C   0  0  0  0  0  2  0  0  0  0  0  0
  186.9670  178.2680  136.5010 C   0  0  0  0  0  2  0  0  0  0  0  0
  187.8720  177.3470  138.6560 C   0  0  0  0  0  2  0  0  0  0  0  0
  193.0590  175.7410  136.0520 C   0  0  0  0  0  0  0  0  0  0  0  0
  193.1680  174.6190  135.4950 O   0  0  0  0  0  0  0  0  0  0  0  0
  194.1570  176.3030  136.6920 O   0  0  0  0  0  1  0  0  0  0  0  0
  186.0010  178.4140  146.7840 C   0  0  0  0  0  0  0  0  0  0  0  0
  184.8890  178.2620  147.3550 O   0  0  0  0  0  0  0  0  0  0  0  0
  187.2040  178.2540  147.5280 N   0  0  0  0  0  1  0  0  0  0  0  0
  1  5  1  6  0  0  0
  1 17  1  0  0  0  0
  2 12  1  0  0  0  0
  3 15  1  0  0  0  0
  4  8  1  1  0  0  0
  4  5  1  0  0  0  0
  6  8  1  6  0  0  0
  6 10  1  0  0  0  0
  7  6  1  0  0  0  0
  7 11  1  0  0  0  0
  9 11  1  1  0  0  0
  9  3  1  0  0  0  0
 10  1  1  0  0  0  0
 10  9  1  0  0  0  0
 12 13  1  0  0  0  0
 13 32  1  0  0  0  0
 14 13  1  0  0  0  0
 15  2  1  0  0  0  0
 16 14  1  0  0  0  0
 17 16  1  0  0  0  0
 17 15  1  0  0  0  0
 18 28  1  0  0  0  0
 19 25  1  0  0  0  0
 19 27  1  0  0  0  0
 20 29  1  0  0  0  0
 20 21  1  0  0  0  0
 22 21  1  0  0  0  0
 22 18  1  0  0  0  0
 23 28  1  0  0  0  0
 23  4  1  0  0  0  0
 24 26  1  0  0  0  0
 24 25  1  0  0  0  0
 25 22  2  0  0  0  0
 26 20  1  0  0  0  0
 27 23  1  0  0  0  0
 29 31  1  0  0  0  0
 30 29  2  0  0  0  0
 32 33  2  0  0  0  0
 32 34  1  0  0  0  0
M  END
>  <MODEL>
9

>  <REMARK>
 VINA RESULT:      -7.5      4.214     10.016
  Name = 
  3 active torsions:
  status: ('A' for Active; 'I' for Inactive)
    1  A    between atoms: C_3  and  C_25
    2  A    between atoms: C_7  and  C_11
    3  A    between atoms: C_8  and  C_18
                            x       y       z     vdW  Elec       q    Type
                         _______ _______ _______ _____ _____    ______ ____

>  <TORSDO>
F 3

$$$$
