=
 OpenBabel11052412473D

 25 27  0  0  1  0  0  0  0  0999 V2000
  187.4290  177.8250  145.3080 C   0  0  0  0  0  0  0  0  0  0  0  0
  186.3420  178.3290  144.4290 C   0  0  0  0  0  0  0  0  0  0  0  0
  185.9770  178.3050  147.2580 C   0  0  0  0  0  2  0  0  0  0  0  0
  185.2030  179.1020  146.3620 O   0  0  0  0  0  0  0  0  0  0  0  0
  184.1740  179.5130  144.1200 C   0  0  2  0  0  3  0  0  0  0  0  0
  182.9170  178.6880  144.3160 C   0  0  0  0  0  1  0  0  0  0  0  0
  186.4730  178.2300  143.0020 N   0  0  0  0  0  0  0  0  0  0  0  0
  187.2820  177.8730  146.6500 C   0  0  0  0  0  0  0  0  0  0  0  0
  188.5000  177.2460  147.7560 Cl  0  0  0  0  0  0  0  0  0  0  0  0
  184.5240  179.5300  142.7020 N   0  0  0  0  0  2  0  0  0  0  0  0
  185.6290  178.7830  142.1890 C   0  0  0  0  0  0  0  0  0  0  0  0
  185.2830  178.9560  144.9740 C   0  0  0  0  0  0  0  0  0  0  0  0
  188.6690  177.3040  144.6910 C   0  0  0  0  0  0  0  0  0  0  0  0
  191.0090  176.3410  143.4830 C   0  0  0  0  0  3  0  0  0  0  0  0
  189.9180  177.8400  145.0390 C   0  0  0  0  0  3  0  0  0  0  0  0
  191.0850  177.3570  144.4380 C   0  0  0  0  0  3  0  0  0  0  0  0
  189.7680  175.8070  143.1250 C   0  0  0  0  0  3  0  0  0  0  0  0
  188.6010  176.2890  143.7270 C   0  0  0  0  0  3  0  0  0  0  0  0
  185.8780  178.6550  140.4250 S   0  0  0  0  0  0  0  0  0  0  0  0
  187.6830  178.4890  140.6190 C   0  0  0  0  0  2  0  0  0  0  0  0
  188.3050  177.6270  139.5250 C   0  0  2  0  0  3  0  0  0  0  0  0
  189.6190  177.2810  139.8480 O   0  0  0  0  0  1  0  0  0  0  0  0
  188.2370  178.2910  138.1860 C   0  0  0  0  0  0  0  0  0  0  0  0
  188.9630  179.4530  137.9600 O   0  0  0  0  0  1  0  0  0  0  0  0
  187.5580  177.7880  137.2530 O   0  0  0  0  0  0  0  0  0  0  0  0
  1  8  2  0  0  0  0
  2 12  2  0  0  0  0
  2  1  1  0  0  0  0
  4  3  1  0  0  0  0
  5  6  1  6  0  0  0
  5 12  1  0  0  0  0
  7  2  1  0  0  0  0
  8  3  1  0  0  0  0
  8  9  1  0  0  0  0
 10  5  1  0  0  0  0
 11 10  1  0  0  0  0
 11  7  2  0  0  0  0
 12  4  1  0  0  0  0
 13 15  1  0  0  0  0
 13  1  1  0  0  0  0
 14 16  1  0  0  0  0
 16 15  2  0  0  0  0
 17 14  2  0  0  0  0
 17 18  1  0  0  0  0
 18 13  2  0  0  0  0
 19 20  1  0  0  0  0
 19 11  1  0  0  0  0
 21 22  1  1  0  0  0
 21 20  1  0  0  0  0
 23 21  1  0  0  0  0
 24 23  1  0  0  0  0
 25 23  2  0  0  0  0
M  END
>  <MODEL>
1

>  <REMARK>
 VINA RESULT:      -8.5      0.000      0.000
  Name = 
  5 active torsions:
  status: ('A' for Active; 'I' for Inactive)
    1  A    between atoms: C_1  and  C_5
    2  A    between atoms: C_2  and  C_21
    3  A    between atoms: S_6  and  C_15
    4  A    between atoms: S_6  and  C_23
    5  A    between atoms: C_15  and  C_21
                            x       y       z     vdW  Elec       q    Type
                         _______ _______ _______ _____ _____    ______ ____

>  <TORSDO>
F 5

$$$$
=
 OpenBabel11052412473D

 25 27  0  0  1  0  0  0  0  0999 V2000
  187.4250  177.8280  145.3080 C   0  0  0  0  0  0  0  0  0  0  0  0
  186.3340  178.3380  144.4360 C   0  0  0  0  0  0  0  0  0  0  0  0
  185.9850  178.3080  147.2670 C   0  0  0  0  0  2  0  0  0  0  0  0
  185.2090  179.1100  146.3770 O   0  0  0  0  0  0  0  0  0  0  0  0
  184.1680  179.5300  144.1420 C   0  0  2  0  0  3  0  0  0  0  0  0
  182.9090  178.7090  144.3440 C   0  0  0  0  0  1  0  0  0  0  0  0
  186.4570  178.2420  143.0080 N   0  0  0  0  0  0  0  0  0  0  0  0
  187.2850  177.8740  146.6500 C   0  0  0  0  0  0  0  0  0  0  0  0
  188.5070  177.2400  147.7470 Cl  0  0  0  0  0  0  0  0  0  0  0  0
  184.5100  179.5490  142.7220 N   0  0  0  0  0  2  0  0  0  0  0  0
  185.6100  178.8000  142.2010 C   0  0  0  0  0  0  0  0  0  0  0  0
  185.2800  178.9670  144.9890 C   0  0  0  0  0  0  0  0  0  0  0  0
  188.6590  177.3040  144.6820 C   0  0  0  0  0  0  0  0  0  0  0  0
  191.0070  176.2870  143.5350 C   0  0  0  0  0  3  0  0  0  0  0  0
  188.5920  176.2980  143.7070 C   0  0  0  0  0  3  0  0  0  0  0  0
  189.7630  175.7930  143.1340 C   0  0  0  0  0  3  0  0  0  0  0  0
  191.0820  177.2850  144.5110 C   0  0  0  0  0  3  0  0  0  0  0  0
  189.9110  177.7900  145.0840 C   0  0  0  0  0  3  0  0  0  0  0  0
  185.8480  178.6750  140.4360 S   0  0  0  0  0  0  0  0  0  0  0  0
  187.6530  178.4950  140.6190 C   0  0  0  0  0  2  0  0  0  0  0  0
  188.2630  177.6360  139.5160 C   0  0  2  0  0  3  0  0  0  0  0  0
  189.5390  177.1950  139.8750 O   0  0  0  0  0  1  0  0  0  0  0  0
  188.2910  178.3530  138.2030 C   0  0  0  0  0  0  0  0  0  0  0  0
  187.5510  177.8590  137.1370 O   0  0  0  0  0  0  0  0  0  0  0  0
  188.9500  179.4170  138.0660 O   0  0  0  0  0  1  0  0  0  0  0  0
  1  8  2  0  0  0  0
  2 12  2  0  0  0  0
  2  1  1  0  0  0  0
  4  3  1  0  0  0  0
  5  6  1  6  0  0  0
  5 12  1  0  0  0  0
  7  2  1  0  0  0  0
  8  3  1  0  0  0  0
  8  9  1  0  0  0  0
 10  5  1  0  0  0  0
 11 10  1  0  0  0  0
 11  7  2  0  0  0  0
 12  4  1  0  0  0  0
 13 18  1  0  0  0  0
 13  1  1  0  0  0  0
 14 17  1  0  0  0  0
 15 13  2  0  0  0  0
 16 14  2  0  0  0  0
 16 15  1  0  0  0  0
 17 18  2  0  0  0  0
 19 20  1  0  0  0  0
 19 11  1  0  0  0  0
 21 22  1  1  0  0  0
 21 20  1  0  0  0  0
 23 21  1  0  0  0  0
 24 23  2  0  0  0  0
 25 23  1  0  0  0  0
M  END
>  <MODEL>
2

>  <REMARK>
 VINA RESULT:      -8.4      0.058      1.165
  Name = 
  5 active torsions:
  status: ('A' for Active; 'I' for Inactive)
    1  A    between atoms: C_1  and  C_5
    2  A    between atoms: C_2  and  C_21
    3  A    between atoms: S_6  and  C_15
    4  A    between atoms: S_6  and  C_23
    5  A    between atoms: C_15  and  C_21
                            x       y       z     vdW  Elec       q    Type
                         _______ _______ _______ _____ _____    ______ ____

>  <TORSDO>
F 5

$$$$
=
 OpenBabel11052412473D

 25 27  0  0  1  0  0  0  0  0999 V2000
  187.5790  177.7940  143.8920 C   0  0  0  0  0  0  0  0  0  0  0  0
  187.0070  178.1080  142.5570 C   0  0  0  0  0  0  0  0  0  0  0  0
  185.3450  178.2270  144.8730 C   0  0  0  0  0  2  0  0  0  0  0  0
  185.0340  178.8670  143.6360 O   0  0  0  0  0  0  0  0  0  0  0  0
  185.1660  179.0070  141.1420 C   0  0  2  0  0  3  0  0  0  0  0  0
  184.0290  178.0550  140.8220 C   0  0  0  0  0  1  0  0  0  0  0  0
  187.8060  177.9310  141.3770 N   0  0  0  0  0  0  0  0  0  0  0  0
  186.8090  177.9130  144.9950 C   0  0  0  0  0  0  0  0  0  0  0  0
  187.3980  177.5070  146.6040 Cl  0  0  0  0  0  0  0  0  0  0  0  0
  186.1450  178.9710  140.0580 N   0  0  0  0  0  2  0  0  0  0  0  0
  187.4120  178.3270  140.2070 C   0  0  0  0  0  0  0  0  0  0  0  0
  185.7730  178.6410  142.4710 C   0  0  0  0  0  0  0  0  0  0  0  0
  188.9980  177.3820  143.9870 C   0  0  0  0  0  0  0  0  0  0  0  0
  191.6790  176.5930  144.2110 C   0  0  0  0  0  3  0  0  0  0  0  0
  189.4140  176.1390  143.4880 C   0  0  0  0  0  3  0  0  0  0  0  0
  190.7510  175.7470  143.5980 C   0  0  0  0  0  3  0  0  0  0  0  0
  191.2700  177.8290  144.7180 C   0  0  0  0  0  3  0  0  0  0  0  0
  189.9330  178.2220  144.6070 C   0  0  0  0  0  3  0  0  0  0  0  0
  188.4760  178.1130  138.7900 S   0  0  0  0  0  0  0  0  0  0  0  0
  189.6600  177.1050  139.7410 C   0  0  0  0  0  2  0  0  0  0  0  0
  190.9140  176.7740  138.9380 C   0  0  2  0  0  3  0  0  0  0  0  0
  190.9230  175.4290  138.5580 O   0  0  0  0  0  1  0  0  0  0  0  0
  192.1620  177.1320  139.6800 C   0  0  0  0  0  0  0  0  0  0  0  0
  193.3930  177.0130  139.0480 O   0  0  0  0  0  0  0  0  0  0  0  0
  192.1060  177.5730  140.8580 O   0  0  0  0  0  1  0  0  0  0  0  0
  1 13  1  0  0  0  0
  1  8  2  0  0  0  0
  2  1  1  0  0  0  0
  3  8  1  0  0  0  0
  4  3  1  0  0  0  0
  5  6  1  6  0  0  0
  5 12  1  0  0  0  0
  7  2  1  0  0  0  0
  8  9  1  0  0  0  0
 10 11  1  0  0  0  0
 10  5  1  0  0  0  0
 11  7  2  0  0  0  0
 12  2  2  0  0  0  0
 12  4  1  0  0  0  0
 13 18  1  0  0  0  0
 14 17  1  0  0  0  0
 15 16  1  0  0  0  0
 15 13  2  0  0  0  0
 16 14  2  0  0  0  0
 18 17  2  0  0  0  0
 19 20  1  0  0  0  0
 19 11  1  0  0  0  0
 21 22  1  1  0  0  0
 21 23  1  0  0  0  0
 21 20  1  0  0  0  0
 23 25  1  0  0  0  0
 24 23  2  0  0  0  0
M  END
>  <MODEL>
3

>  <REMARK>
 VINA RESULT:      -8.2      2.102      2.924
  Name = 
  5 active torsions:
  status: ('A' for Active; 'I' for Inactive)
    1  A    between atoms: C_1  and  C_5
    2  A    between atoms: C_2  and  C_21
    3  A    between atoms: S_6  and  C_15
    4  A    between atoms: S_6  and  C_23
    5  A    between atoms: C_15  and  C_21
                            x       y       z     vdW  Elec       q    Type
                         _______ _______ _______ _____ _____    ______ ____

>  <TORSDO>
F 5

$$$$
=
 OpenBabel11052412473D

 25 27  0  0  1  0  0  0  0  0999 V2000
  187.2100  177.9190  145.1750 C   0  0  0  0  0  0  0  0  0  0  0  0
  186.1070  178.3840  144.2940 C   0  0  0  0  0  0  0  0  0  0  0  0
  185.7390  178.3490  147.1230 C   0  0  0  0  0  2  0  0  0  0  0  0
  184.9390  179.1180  146.2250 O   0  0  0  0  0  0  0  0  0  0  0  0
  183.8990  179.4920  143.9810 C   0  0  2  0  0  3  0  0  0  0  0  0
  182.6710  178.6240  144.1760 C   0  0  0  0  0  1  0  0  0  0  0  0
  186.2440  178.2880  142.8670 N   0  0  0  0  0  0  0  0  0  0  0  0
  187.0590  177.9630  146.5170 C   0  0  0  0  0  0  0  0  0  0  0  0
  188.2960  177.3800  147.6250 Cl  0  0  0  0  0  0  0  0  0  0  0  0
  184.2510  179.5200  142.5630 N   0  0  0  0  0  2  0  0  0  0  0  0
  185.3820  178.8120  142.0530 C   0  0  0  0  0  0  0  0  0  0  0  0
  185.0260  178.9740  144.8370 C   0  0  0  0  0  0  0  0  0  0  0  0
  188.4680  177.4410  144.5600 C   0  0  0  0  0  0  0  0  0  0  0  0
  190.8640  176.5160  143.4350 C   0  0  0  0  0  3  0  0  0  0  0  0
  188.4660  176.3280  143.7060 C   0  0  0  0  0  3  0  0  0  0  0  0
  189.6600  175.8690  143.1430 C   0  0  0  0  0  3  0  0  0  0  0  0
  190.8750  177.6200  144.2920 C   0  0  0  0  0  3  0  0  0  0  0  0
  189.6800  178.0800  144.8540 C   0  0  0  0  0  3  0  0  0  0  0  0
  185.6370  178.6910  140.2900 S   0  0  0  0  0  0  0  0  0  0  0  0
  183.8610  178.4240  139.9780 C   0  0  0  0  0  2  0  0  0  0  0  0
  183.3010  179.4040  138.9510 C   0  0  2  0  0  3  0  0  0  0  0  0
  184.0180  180.6030  138.9620 O   0  0  0  0  0  1  0  0  0  0  0  0
  181.8390  179.6490  139.1550 C   0  0  0  0  0  0  0  0  0  0  0  0
  181.0260  179.8900  138.0550 O   0  0  0  0  0  0  0  0  0  0  0  0
  181.3340  179.6040  140.3070 O   0  0  0  0  0  1  0  0  0  0  0  0
  1  8  2  0  0  0  0
  2 12  2  0  0  0  0
  2  1  1  0  0  0  0
  4  3  1  0  0  0  0
  5  6  1  6  0  0  0
  5 12  1  0  0  0  0
  7  2  1  0  0  0  0
  8  3  1  0  0  0  0
  8  9  1  0  0  0  0
 10  5  1  0  0  0  0
 11 10  1  0  0  0  0
 11  7  2  0  0  0  0
 12  4  1  0  0  0  0
 13 18  1  0  0  0  0
 13  1  1  0  0  0  0
 14 17  1  0  0  0  0
 15 13  2  0  0  0  0
 16 14  2  0  0  0  0
 16 15  1  0  0  0  0
 17 18  2  0  0  0  0
 19 11  1  0  0  0  0
 20 19  1  0  0  0  0
 21 22  1  1  0  0  0
 21 23  1  0  0  0  0
 21 20  1  0  0  0  0
 23 25  1  0  0  0  0
 24 23  2  0  0  0  0
M  END
>  <MODEL>
4

>  <REMARK>
 VINA RESULT:      -8.1      2.629      3.285
  Name = 
  5 active torsions:
  status: ('A' for Active; 'I' for Inactive)
    1  A    between atoms: C_1  and  C_5
    2  A    between atoms: C_2  and  C_21
    3  A    between atoms: S_6  and  C_15
    4  A    between atoms: S_6  and  C_23
    5  A    between atoms: C_15  and  C_21
                            x       y       z     vdW  Elec       q    Type
                         _______ _______ _______ _____ _____    ______ ____

>  <TORSDO>
F 5

$$$$
=
 OpenBabel11052412473D

 25 27  0  0  1  0  0  0  0  0999 V2000
  186.8430  177.9040  145.0420 C   0  0  0  0  0  0  0  0  0  0  0  0
  188.1030  177.5970  144.3150 C   0  0  0  0  0  0  0  0  0  0  0  0
  188.0710  177.5580  147.1670 C   0  0  0  0  0  2  0  0  0  0  0  0
  189.0690  176.9170  146.3730 O   0  0  0  0  0  0  0  0  0  0  0  0
  190.4440  176.7490  144.2910 C   0  0  2  0  0  3  0  0  0  0  0  0
  191.5270  177.7370  144.6800 C   0  0  0  0  0  1  0  0  0  0  0  0
  188.1550  177.7350  142.8860 N   0  0  0  0  0  0  0  0  0  0  0  0
  186.8120  177.8220  146.3900 C   0  0  0  0  0  0  0  0  0  0  0  0
  185.3750  178.2230  147.3250 Cl  0  0  0  0  0  0  0  0  0  0  0  0
  190.2970  176.7410  142.8380 N   0  0  0  0  0  2  0  0  0  0  0  0
  189.1750  177.3420  142.1890 C   0  0  0  0  0  0  0  0  0  0  0  0
  189.1580  177.1060  144.9910 C   0  0  0  0  0  0  0  0  0  0  0  0
  185.6360  178.2670  144.2670 C   0  0  0  0  0  0  0  0  0  0  0  0
  183.3650  178.9980  142.7940 C   0  0  0  0  0  3  0  0  0  0  0  0
  185.5140  177.8910  142.9210 C   0  0  0  0  0  3  0  0  0  0  0  0
  184.3810  178.2530  142.1870 C   0  0  0  0  0  3  0  0  0  0  0  0
  183.4830  179.3830  144.1320 C   0  0  0  0  0  3  0  0  0  0  0  0
  184.6170  179.0190  144.8660 C   0  0  0  0  0  3  0  0  0  0  0  0
  189.1530  177.5060  140.4110 S   0  0  0  0  0  0  0  0  0  0  0  0
  190.9330  177.1330  140.2830 C   0  0  0  0  0  2  0  0  0  0  0  0
  191.3280  176.6730  138.8840 C   0  0  2  0  0  3  0  0  0  0  0  0
  190.8590  175.3820  138.6310 O   0  0  0  0  0  1  0  0  0  0  0  0
  192.8060  176.7600  138.6650 C   0  0  0  0  0  0  0  0  0  0  0  0
  193.3340  176.4390  137.4220 O   0  0  0  0  0  0  0  0  0  0  0  0
  193.5700  177.1550  139.5840 O   0  0  0  0  0  1  0  0  0  0  0  0
  1  8  2  0  0  0  0
  2 12  2  0  0  0  0
  2  1  1  0  0  0  0
  4  3  1  0  0  0  0
  5  6  1  6  0  0  0
  5 12  1  0  0  0  0
  7  2  1  0  0  0  0
  8  3  1  0  0  0  0
  8  9  1  0  0  0  0
 10  5  1  0  0  0  0
 11 10  1  0  0  0  0
 11  7  2  0  0  0  0
 12  4  1  0  0  0  0
 13 18  1  0  0  0  0
 13  1  1  0  0  0  0
 14 17  1  0  0  0  0
 15 13  2  0  0  0  0
 16 14  2  0  0  0  0
 16 15  1  0  0  0  0
 17 18  2  0  0  0  0
 19 11  1  0  0  0  0
 20 19  1  0  0  0  0
 21 22  1  1  0  0  0
 21 20  1  0  0  0  0
 23 21  1  0  0  0  0
 23 25  1  0  0  0  0
 24 23  2  0  0  0  0
M  END
>  <MODEL>
5

>  <REMARK>
 VINA RESULT:      -7.8      2.530      4.915
  Name = 
  5 active torsions:
  status: ('A' for Active; 'I' for Inactive)
    1  A    between atoms: C_1  and  C_5
    2  A    between atoms: C_2  and  C_21
    3  A    between atoms: S_6  and  C_15
    4  A    between atoms: S_6  and  C_23
    5  A    between atoms: C_15  and  C_21
                            x       y       z     vdW  Elec       q    Type
                         _______ _______ _______ _____ _____    ______ ____

>  <TORSDO>
F 5

$$$$
=
 OpenBabel11052412473D

 25 27  0  0  1  0  0  0  0  0999 V2000
  185.8320  178.4400  142.5670 C   0  0  0  0  0  0  0  0  0  0  0  0
  187.0170  178.2170  141.6980 C   0  0  0  0  0  0  0  0  0  0  0  0
  184.4840  178.7900  140.5170 C   0  0  0  0  0  2  0  0  0  0  0  0
  185.7320  178.9460  139.8410 O   0  0  0  0  0  0  0  0  0  0  0  0
  188.1210  178.3080  139.4680 C   0  0  2  0  0  3  0  0  0  0  0  0
  187.8780  177.1320  138.5430 C   0  0  0  0  0  1  0  0  0  0  0  0
  188.2650  177.8080  142.2820 N   0  0  0  0  0  0  0  0  0  0  0  0
  184.6480  178.7750  142.0110 C   0  0  0  0  0  0  0  0  0  0  0  0
  183.1870  179.0010  142.9680 Cl  0  0  0  0  0  0  0  0  0  0  0  0
  189.3610  178.0910  140.2090 N   0  0  0  0  0  2  0  0  0  0  0  0
  189.3620  177.7440  141.5950 C   0  0  0  0  0  0  0  0  0  0  0  0
  186.9360  178.4860  140.3820 C   0  0  0  0  0  0  0  0  0  0  0  0
  185.9840  178.3170  144.0340 C   0  0  0  0  0  0  0  0  0  0  0  0
  186.3160  178.0960  146.8090 C   0  0  0  0  0  3  0  0  0  0  0  0
  185.5190  179.3310  144.8860 C   0  0  0  0  0  3  0  0  0  0  0  0
  185.6830  179.2190  146.2700 C   0  0  0  0  0  3  0  0  0  0  0  0
  186.7880  177.0860  145.9670 C   0  0  0  0  0  3  0  0  0  0  0  0
  186.6240  177.1980  144.5830 C   0  0  0  0  0  3  0  0  0  0  0  0
  190.8850  177.2680  142.3950 S   0  0  0  0  0  0  0  0  0  0  0  0
  190.0440  176.9790  143.9860 C   0  0  0  0  0  2  0  0  0  0  0  0
  190.5790  177.8790  145.0950 C   0  0  2  0  0  3  0  0  0  0  0  0
  191.7000  178.5910  144.6640 O   0  0  0  0  0  1  0  0  0  0  0  0
  190.8780  177.1090  146.3420 C   0  0  0  0  0  0  0  0  0  0  0  0
  189.8400  176.7520  147.1930 O   0  0  0  0  0  1  0  0  0  0  0  0
  192.0550  176.7500  146.6100 O   0  0  0  0  0  0  0  0  0  0  0  0
  1 13  1  0  0  0  0
  2  7  1  0  0  0  0
  2  1  1  0  0  0  0
  3  8  1  0  0  0  0
  4 12  1  0  0  0  0
  4  3  1  0  0  0  0
  5  6  1  6  0  0  0
  5 10  1  0  0  0  0
  5 12  1  0  0  0  0
  8  1  2  0  0  0  0
  8  9  1  0  0  0  0
 10 11  1  0  0  0  0
 11  7  2  0  0  0  0
 11 19  1  0  0  0  0
 12  2  2  0  0  0  0
 13 18  2  0  0  0  0
 13 15  1  0  0  0  0
 15 16  2  0  0  0  0
 16 14  1  0  0  0  0
 17 14  2  0  0  0  0
 18 17  1  0  0  0  0
 19 20  1  0  0  0  0
 20 21  1  0  0  0  0
 21 22  1  6  0  0  0
 21 23  1  0  0  0  0
 23 25  2  0  0  0  0
 23 24  1  0  0  0  0
M  END
>  <MODEL>
6

>  <REMARK>
 VINA RESULT:      -7.7      3.161      5.952
  Name = 
  5 active torsions:
  status: ('A' for Active; 'I' for Inactive)
    1  A    between atoms: C_1  and  C_5
    2  A    between atoms: C_2  and  C_21
    3  A    between atoms: S_6  and  C_15
    4  A    between atoms: S_6  and  C_23
    5  A    between atoms: C_15  and  C_21
                            x       y       z     vdW  Elec       q    Type
                         _______ _______ _______ _____ _____    ______ ____

>  <TORSDO>
F 5

$$$$
=
 OpenBabel11052412473D

 25 27  0  0  1  0  0  0  0  0999 V2000
  189.5070  177.3520  142.3740 C   0  0  0  0  0  0  0  0  0  0  0  0
  188.7070  177.7590  141.1900 C   0  0  0  0  0  0  0  0  0  0  0  0
  191.4190  176.9430  140.8510 C   0  0  0  0  0  2  0  0  0  0  0  0
  190.4590  176.9730  139.7960 O   0  0  0  0  0  0  0  0  0  0  0  0
  188.4040  177.9120  138.7240 C   0  0  2  0  0  3  0  0  0  0  0  0
  189.0540  179.0940  138.0320 C   0  0  0  0  0  1  0  0  0  0  0  0
  187.3820  178.2850  141.3700 N   0  0  0  0  0  0  0  0  0  0  0  0
  190.7710  176.9050  142.2060 C   0  0  0  0  0  0  0  0  0  0  0  0
  191.8000  176.4570  143.5630 Cl  0  0  0  0  0  0  0  0  0  0  0  0
  187.0150  178.2400  139.0370 N   0  0  0  0  0  2  0  0  0  0  0  0
  186.5880  178.5160  140.3720 C   0  0  0  0  0  0  0  0  0  0  0  0
  189.1940  177.5470  139.9530 C   0  0  0  0  0  0  0  0  0  0  0  0
  188.8890  177.4200  143.7180 C   0  0  0  0  0  0  0  0  0  0  0  0
  187.7300  177.5030  146.2690 C   0  0  0  0  0  3  0  0  0  0  0  0
  189.5600  178.0440  144.7800 C   0  0  0  0  0  3  0  0  0  0  0  0
  188.9800  178.0880  146.0510 C   0  0  0  0  0  3  0  0  0  0  0  0
  187.0590  176.8720  145.2170 C   0  0  0  0  0  3  0  0  0  0  0  0
  187.6390  176.8290  143.9450 C   0  0  0  0  0  3  0  0  0  0  0  0
  184.9390  179.1310  140.6720 S   0  0  0  0  0  0  0  0  0  0  0  0
  185.2750  179.3770  142.4470 C   0  0  0  0  0  2  0  0  0  0  0  0
  184.2080  178.7410  143.3310 C   0  0  2  0  0  3  0  0  0  0  0  0
  182.9280  179.0070  142.8400 O   0  0  0  0  0  1  0  0  0  0  0  0
  184.3370  179.1730  144.7580 C   0  0  0  0  0  0  0  0  0  0  0  0
  183.3770  178.7820  145.6810 O   0  0  0  0  0  1  0  0  0  0  0  0
  185.3240  179.8570  145.1360 O   0  0  0  0  0  0  0  0  0  0  0  0
  1 13  1  0  0  0  0
  2  7  1  0  0  0  0
  2  1  1  0  0  0  0
  3  8  1  0  0  0  0
  4 12  1  0  0  0  0
  4  3  1  0  0  0  0
  5  6  1  1  0  0  0
  5 10  1  0  0  0  0
  5 12  1  0  0  0  0
  8  1  2  0  0  0  0
  8  9  1  0  0  0  0
 10 11  1  0  0  0  0
 11 19  1  0  0  0  0
 11  7  2  0  0  0  0
 12  2  2  0  0  0  0
 13 18  2  0  0  0  0
 13 15  1  0  0  0  0
 15 16  2  0  0  0  0
 16 14  1  0  0  0  0
 17 14  2  0  0  0  0
 18 17  1  0  0  0  0
 19 20  1  0  0  0  0
 20 21  1  0  0  0  0
 21 22  1  6  0  0  0
 21 23  1  0  0  0  0
 23 25  2  0  0  0  0
 23 24  1  0  0  0  0
M  END
>  <MODEL>
7

>  <REMARK>
 VINA RESULT:      -7.7      2.024      5.667
  Name = 
  5 active torsions:
  status: ('A' for Active; 'I' for Inactive)
    1  A    between atoms: C_1  and  C_5
    2  A    between atoms: C_2  and  C_21
    3  A    between atoms: S_6  and  C_15
    4  A    between atoms: S_6  and  C_23
    5  A    between atoms: C_15  and  C_21
                            x       y       z     vdW  Elec       q    Type
                         _______ _______ _______ _____ _____    ______ ____

>  <TORSDO>
F 5

$$$$
=
 OpenBabel11052412473D

 25 27  0  0  1  0  0  0  0  0999 V2000
  188.9020  177.4400  145.0730 C   0  0  0  0  0  0  0  0  0  0  0  0
  189.2550  177.3980  143.6300 C   0  0  0  0  0  0  0  0  0  0  0  0
  191.2200  176.7270  145.5860 C   0  0  0  0  0  2  0  0  0  0  0  0
  191.3060  176.3550  144.2110 O   0  0  0  0  0  0  0  0  0  0  0  0
  190.8090  176.7570  141.7930 C   0  0  2  0  0  3  0  0  0  0  0  0
  191.9490  177.7140  141.5050 C   0  0  0  0  0  1  0  0  0  0  0  0
  188.3080  177.8520  142.6490 N   0  0  0  0  0  0  0  0  0  0  0  0
  189.8130  177.0600  145.9950 C   0  0  0  0  0  0  0  0  0  0  0  0
  189.4890  177.1330  147.7250 Cl  0  0  0  0  0  0  0  0  0  0  0  0
  189.6890  177.0590  140.9040 N   0  0  0  0  0  2  0  0  0  0  0  0
  188.5030  177.7010  141.3770 C   0  0  0  0  0  0  0  0  0  0  0  0
  190.4240  176.8520  143.2470 C   0  0  0  0  0  0  0  0  0  0  0  0
  187.5430  177.8720  145.4680 C   0  0  0  0  0  0  0  0  0  0  0  0
  184.9600  178.6480  146.2330 C   0  0  0  0  0  3  0  0  0  0  0  0
  187.3460  178.6230  146.6370 C   0  0  0  0  0  3  0  0  0  0  0  0
  186.0580  179.0120  147.0160 C   0  0  0  0  0  3  0  0  0  0  0  0
  185.1470  177.8930  145.0720 C   0  0  0  0  0  3  0  0  0  0  0  0
  186.4360  177.5050  144.6920 C   0  0  0  0  0  3  0  0  0  0  0  0
  187.2640  178.2520  140.2160 S   0  0  0  0  0  0  0  0  0  0  0  0
  186.2420  178.9770  141.5400 C   0  0  0  0  0  2  0  0  0  0  0  0
  184.7580  178.9820  141.1880 C   0  0  2  0  0  3  0  0  0  0  0  0
  184.1070  177.8820  141.7520 O   0  0  0  0  0  1  0  0  0  0  0  0
  184.5350  179.0380  139.7100 C   0  0  0  0  0  0  0  0  0  0  0  0
  184.2650  177.8680  139.0130 O   0  0  0  0  0  0  0  0  0  0  0  0
  184.5560  180.1390  139.0980 O   0  0  0  0  0  1  0  0  0  0  0  0
  1 13  1  0  0  0  0
  1  8  2  0  0  0  0
  2  1  1  0  0  0  0
  3  8  1  0  0  0  0
  4  3  1  0  0  0  0
  5  6  1  1  0  0  0
  5 12  1  0  0  0  0
  7  2  1  0  0  0  0
  8  9  1  0  0  0  0
 10 11  1  0  0  0  0
 10  5  1  0  0  0  0
 11  7  2  0  0  0  0
 12  2  2  0  0  0  0
 12  4  1  0  0  0  0
 13 15  1  0  0  0  0
 14 16  1  0  0  0  0
 15 16  2  0  0  0  0
 17 14  2  0  0  0  0
 18 17  1  0  0  0  0
 18 13  2  0  0  0  0
 19 11  1  0  0  0  0
 19 20  1  0  0  0  0
 21 20  1  0  0  0  0
 21 22  1  6  0  0  0
 23 21  1  0  0  0  0
 24 23  2  0  0  0  0
 25 23  1  0  0  0  0
M  END
>  <MODEL>
8

>  <REMARK>
 VINA RESULT:      -7.6      2.394      4.833
  Name = 
  5 active torsions:
  status: ('A' for Active; 'I' for Inactive)
    1  A    between atoms: C_1  and  C_5
    2  A    between atoms: C_2  and  C_21
    3  A    between atoms: S_6  and  C_15
    4  A    between atoms: S_6  and  C_23
    5  A    between atoms: C_15  and  C_21
                            x       y       z     vdW  Elec       q    Type
                         _______ _______ _______ _____ _____    ______ ____

>  <TORSDO>
F 5

$$$$
=
 OpenBabel11052412473D

 25 27  0  0  1  0  0  0  0  0999 V2000
  184.6110  178.4570  142.8590 C   0  0  0  0  0  0  0  0  0  0  0  0
  185.3320  178.4110  141.5590 C   0  0  0  0  0  0  0  0  0  0  0  0
  182.4880  178.6290  141.5920 C   0  0  0  0  0  2  0  0  0  0  0  0
  183.2990  178.9640  140.4670 O   0  0  0  0  0  0  0  0  0  0  0  0
  185.3620  178.6720  139.0830 C   0  0  2  0  0  3  0  0  0  0  0  0
  184.8970  177.4800  138.2700 C   0  0  0  0  0  1  0  0  0  0  0  0
  186.7490  178.1780  141.5360 N   0  0  0  0  0  0  0  0  0  0  0  0
  183.2710  178.6260  142.8750 C   0  0  0  0  0  0  0  0  0  0  0  0
  182.3410  178.6370  144.3690 Cl  0  0  0  0  0  0  0  0  0  0  0  0
  186.8160  178.6280  139.2180 N   0  0  0  0  0  2  0  0  0  0  0  0
  187.4490  178.2740  140.4490 C   0  0  0  0  0  0  0  0  0  0  0  0
  184.6660  178.6750  140.4200 C   0  0  0  0  0  0  0  0  0  0  0  0
  185.3860  178.3470  144.1140 C   0  0  0  0  0  0  0  0  0  0  0  0
  186.8190  178.1150  146.5130 C   0  0  0  0  0  3  0  0  0  0  0  0
  186.4130  177.3990  144.2370 C   0  0  0  0  0  3  0  0  0  0  0  0
  187.1290  177.2860  145.4320 C   0  0  0  0  0  3  0  0  0  0  0  0
  185.7920  179.0570  146.4010 C   0  0  0  0  0  3  0  0  0  0  0  0
  185.0770  179.1710  145.2050 C   0  0  0  0  0  3  0  0  0  0  0  0
  189.2150  178.0130  140.5020 S   0  0  0  0  0  0  0  0  0  0  0  0
  189.0910  176.9880  142.0040 C   0  0  0  0  0  2  0  0  0  0  0  0
  190.4590  176.6200  142.5680 C   0  0  2  0  0  3  0  0  0  0  0  0
  190.5350  175.2530  142.8430 O   0  0  0  0  0  1  0  0  0  0  0  0
  190.8010  177.4320  143.7770 C   0  0  0  0  0  0  0  0  0  0  0  0
  190.1130  178.6120  144.0260 O   0  0  0  0  0  0  0  0  0  0  0  0
  191.6800  177.0380  144.5880 O   0  0  0  0  0  1  0  0  0  0  0  0
  1  8  2  0  0  0  0
  1 13  1  0  0  0  0
  2  1  1  0  0  0  0
  3  8  1  0  0  0  0
  4  3  1  0  0  0  0
  5  6  1  6  0  0  0
  5 10  1  0  0  0  0
  5 12  1  0  0  0  0
  7  2  1  0  0  0  0
  8  9  1  0  0  0  0
 10 11  1  0  0  0  0
 11 19  1  0  0  0  0
 11  7  2  0  0  0  0
 12  4  1  0  0  0  0
 12  2  2  0  0  0  0
 13 15  2  0  0  0  0
 13 18  1  0  0  0  0
 15 16  1  0  0  0  0
 16 14  2  0  0  0  0
 17 14  1  0  0  0  0
 18 17  2  0  0  0  0
 19 20  1  0  0  0  0
 20 21  1  0  0  0  0
 21 22  1  1  0  0  0
 21 23  1  0  0  0  0
 23 24  2  0  0  0  0
 23 25  1  0  0  0  0
M  END
>  <MODEL>
9

>  <REMARK>
 VINA RESULT:      -7.6      2.929      5.034
  Name = 
  5 active torsions:
  status: ('A' for Active; 'I' for Inactive)
    1  A    between atoms: C_1  and  C_5
    2  A    between atoms: C_2  and  C_21
    3  A    between atoms: S_6  and  C_15
    4  A    between atoms: S_6  and  C_23
    5  A    between atoms: C_15  and  C_21
                            x       y       z     vdW  Elec       q    Type
                         _______ _______ _______ _____ _____    ______ ____

>  <TORSDO>
F 5

$$$$
