=
 OpenBabel11052413563D

 34 38  0  0  1  0  0  0  0  0999 V2000
  187.2230  177.8570  137.8280 C   0  0  0  0  0  0  0  0  0  0  0  0
  188.5080  177.8770  139.9600 C   0  0  0  0  0  0  0  0  0  0  0  0
  189.3790  176.6670  137.8910 C   0  0  0  0  0  0  0  0  0  0  0  0
  191.5780  174.6390  137.1440 C   0  0  0  0  0  3  0  0  0  0  0  0
  187.7190  178.6630  140.5480 O   0  0  0  0  0  0  0  0  0  0  0  0
  190.7610  176.9850  139.8340 N   0  0  0  0  0  2  0  0  0  0  0  0
  188.3070  177.4740  138.5440 C   0  0  2  0  0  3  0  0  0  0  0  0
  191.7120  175.7730  137.8520 C   0  0  0  0  0  0  0  0  0  0  0  0
  189.1460  176.0950  136.5200 C   0  0  0  0  0  0  0  0  0  0  0  0
  187.1090  177.4990  136.3940 C   0  0  0  0  0  3  0  0  0  0  0  0
  189.6530  177.3030  140.7260 C   0  0  0  0  0  2  0  0  0  0  0  0
  190.3110  173.9610  136.8020 C   0  0  0  0  0  3  0  0  0  0  0  0
  189.1510  174.5850  136.5610 C   0  0  0  0  0  0  0  0  0  0  0  0
  190.5640  176.4710  138.5090 C   0  0  0  0  0  0  0  0  0  0  0  0
  187.9900  176.7110  135.7820 C   0  0  0  0  0  3  0  0  0  0  0  0
  185.8160  172.9310  137.3010 C   0  0  0  0  0  0  0  0  0  0  0  0
  185.6250  172.1650  136.1480 C   0  0  0  0  0  3  0  0  0  0  0  0
  187.9210  173.7650  136.4100 C   0  0  0  0  0  0  0  0  0  0  0  0
  186.5800  172.1890  135.1280 C   0  0  0  0  0  3  0  0  0  0  0  0
  186.9600  173.7220  137.4320 C   0  0  0  0  0  3  0  0  0  0  0  0
  187.7240  172.9830  135.2600 C   0  0  0  0  0  3  0  0  0  0  0  0
  184.8950  172.9040  138.2920 F   0  0  0  0  0  0  0  0  0  0  0  0
  184.8370  178.2490  138.3590 C   0  0  0  0  0  1  0  0  0  0  0  0
  186.2090  178.6100  138.4320 O   0  0  0  0  0  0  0  0  0  0  0  0
  193.0450  176.2490  138.0600 N   0  0  0  0  0  2  0  0  0  0  0  0
  194.8250  175.5270  136.7370 C   0  0  0  0  0  3  0  0  0  0  0  0
  194.1660  175.4400  137.8440 N   0  0  0  0  0  0  0  0  0  0  0  0
  197.0900  176.7830  135.8900 O   0  0  0  0  0  1  0  0  0  0  0  0
  196.0230  174.6630  136.5030 C   0  0  1  0  0  3  0  0  0  0  0  0
  197.2320  175.3930  135.8500 C   0  0  2  0  0  3  0  0  0  0  0  0
  198.5200  173.6310  136.5260 C   0  0  0  0  0  2  0  0  0  0  0  0
  197.3660  173.0550  137.3700 C   0  0  0  0  0  2  0  0  0  0  0  0
  196.4190  174.0480  137.7040 O   0  0  0  0  0  0  0  0  0  0  0  0
  198.4440  175.0370  136.4820 O   0  0  0  0  0  0  0  0  0  0  0  0
  1 24  1  0  0  0  0
  2  5  2  0  0  0  0
  2 11  1  0  0  0  0
  3 14  2  0  0  0  0
  3  7  1  0  0  0  0
  4  8  2  0  0  0  0
  6 11  1  0  0  0  0
  7  1  1  6  0  0  0
  7  2  1  0  0  0  0
  8 25  1  0  0  0  0
  8 14  1  0  0  0  0
  9 13  1  0  0  0  0
  9  3  1  0  0  0  0
 10  1  2  0  0  0  0
 12  4  1  0  0  0  0
 13 12  2  0  0  0  0
 14  6  1  0  0  0  0
 15 10  1  0  0  0  0
 15  9  2  0  0  0  0
 16 20  1  0  0  0  0
 16 22  1  0  0  0  0
 17 16  2  0  0  0  0
 18 13  1  0  0  0  0
 18 20  2  0  0  0  0
 19 21  2  0  0  0  0
 19 17  1  0  0  0  0
 21 18  1  0  0  0  0
 23 24  1  0  0  0  0
 26 27  2  0  0  0  0
 27 25  1  0  0  0  0
 29 26  1  1  0  0  0
 29 33  1  0  0  0  0
 30 28  1  1  0  0  0
 30 34  1  0  0  0  0
 30 29  1  0  0  0  0
 31 32  1  0  0  0  0
 32 33  1  0  0  0  0
 34 31  1  0  0  0  0
M  END
>  <MODEL>
1

>  <REMARK>
 VINA RESULT:      -7.3      0.000      0.000
  Name = 
  5 active torsions:
  status: ('A' for Active; 'I' for Inactive)
    1  A    between atoms: C_1  and  O_19
    2  A    between atoms: C_3  and  C_13
    3  A    between atoms: C_12  and  C_28
    4  A    between atoms: N_17  and  N_29
    5  A    between atoms: C_18  and  N_29
                            x       y       z     vdW  Elec       q    Type
                         _______ _______ _______ _____ _____    ______ ____

>  <TORSDO>
F 5

$$$$
=
 OpenBabel11052413563D

 34 38  0  0  1  0  0  0  0  0999 V2000
  191.0380  174.2340  136.0190 C   0  0  0  0  0  0  0  0  0  0  0  0
  193.1100  175.5810  136.3170 C   0  0  0  0  0  0  0  0  0  0  0  0
  191.1090  175.8540  137.8720 C   0  0  0  0  0  0  0  0  0  0  0  0
  190.1050  177.8040  140.0400 C   0  0  0  0  0  3  0  0  0  0  0  0
  193.7520  174.9840  135.4120 O   0  0  0  0  0  0  0  0  0  0  0  0
  193.2260  176.8890  138.3570 N   0  0  0  0  0  2  0  0  0  0  0  0
  191.7240  175.1920  136.6860 C   0  0  2  0  0  3  0  0  0  0  0  0
  191.3150  177.2270  139.9510 C   0  0  0  0  0  0  0  0  0  0  0  0
  189.6560  175.6200  138.1830 C   0  0  0  0  0  0  0  0  0  0  0  0
  189.6890  173.8240  136.4770 C   0  0  0  0  0  3  0  0  0  0  0  0
  193.7510  176.7390  137.0060 C   0  0  0  0  0  2  0  0  0  0  0  0
  189.0770  177.8610  138.9810 C   0  0  0  0  0  3  0  0  0  0  0  0
  188.8690  176.9050  138.0670 C   0  0  0  0  0  0  0  0  0  0  0  0
  191.8520  176.6380  138.6850 C   0  0  0  0  0  0  0  0  0  0  0  0
  189.0570  174.4370  137.4750 C   0  0  0  0  0  3  0  0  0  0  0  0
  185.6500  177.4170  136.1210 C   0  0  0  0  0  0  0  0  0  0  0  0
  186.1390  177.6360  134.8300 C   0  0  0  0  0  3  0  0  0  0  0  0
  187.9250  177.1790  136.9530 C   0  0  0  0  0  0  0  0  0  0  0  0
  187.5160  177.6210  134.5950 C   0  0  0  0  0  3  0  0  0  0  0  0
  186.5390  177.1850  137.1740 C   0  0  0  0  0  3  0  0  0  0  0  0
  188.4040  177.3900  135.6490 C   0  0  0  0  0  3  0  0  0  0  0  0
  184.3160  177.4260  136.3510 F   0  0  0  0  0  0  0  0  0  0  0  0
  191.3900  172.2400  134.5950 C   0  0  0  0  0  1  0  0  0  0  0  0
  191.6040  173.6100  134.9010 O   0  0  0  0  0  0  0  0  0  0  0  0
  192.1480  177.2950  141.1110 N   0  0  0  0  0  2  0  0  0  0  0  0
  191.6230  176.8210  143.3330 C   0  0  0  0  0  3  0  0  0  0  0  0
  191.6520  177.6730  142.3630 N   0  0  0  0  0  0  0  0  0  0  0  0
  188.9150  176.7910  143.6290 O   0  0  0  0  0  1  0  0  0  0  0  0
  191.0910  177.2210  144.6720 C   0  0  1  0  0  3  0  0  0  0  0  0
  189.5420  177.3640  144.7390 C   0  0  2  0  0  3  0  0  0  0  0  0
  189.7440  177.2840  147.0130 C   0  0  0  0  0  2  0  0  0  0  0  0
  191.2330  176.9000  146.9120 C   0  0  0  0  0  2  0  0  0  0  0  0
  191.5390  176.3250  145.6590 O   0  0  0  0  0  0  0  0  0  0  0  0
  189.0270  176.7730  145.9130 O   0  0  0  0  0  0  0  0  0  0  0  0
  1 10  2  0  0  0  0
  2  7  1  0  0  0  0
  2 11  1  0  0  0  0
  3  9  1  0  0  0  0
  3 14  2  0  0  0  0
  5  2  2  0  0  0  0
  6 14  1  0  0  0  0
  7  1  1  1  0  0  0
  7  3  1  0  0  0  0
  8  4  2  0  0  0  0
  8 25  1  0  0  0  0
 10 15  1  0  0  0  0
 11  6  1  0  0  0  0
 12  4  1  0  0  0  0
 13  9  1  0  0  0  0
 13 12  2  0  0  0  0
 14  8  1  0  0  0  0
 15  9  2  0  0  0  0
 16 22  1  0  0  0  0
 16 20  1  0  0  0  0
 17 16  2  0  0  0  0
 18 20  2  0  0  0  0
 18 13  1  0  0  0  0
 19 17  1  0  0  0  0
 19 21  2  0  0  0  0
 21 18  1  0  0  0  0
 23 24  1  0  0  0  0
 24  1  1  0  0  0  0
 25 27  1  0  0  0  0
 27 26  2  0  0  0  0
 29 26  1  6  0  0  0
 29 30  1  0  0  0  0
 29 33  1  0  0  0  0
 30 28  1  6  0  0  0
 30 34  1  0  0  0  0
 32 31  1  0  0  0  0
 33 32  1  0  0  0  0
 34 31  1  0  0  0  0
M  END
>  <MODEL>
2

>  <REMARK>
 VINA RESULT:      -7.0      3.153      7.061
  Name = 
  5 active torsions:
  status: ('A' for Active; 'I' for Inactive)
    1  A    between atoms: C_1  and  O_19
    2  A    between atoms: C_3  and  C_13
    3  A    between atoms: C_12  and  C_28
    4  A    between atoms: N_17  and  N_29
    5  A    between atoms: C_18  and  N_29
                            x       y       z     vdW  Elec       q    Type
                         _______ _______ _______ _____ _____    ______ ____

>  <TORSDO>
F 5

$$$$
=
 OpenBabel11052413563D

 34 38  0  0  1  0  0  0  0  0999 V2000
  185.5500  178.4210  144.4350 C   0  0  0  0  0  0  0  0  0  0  0  0
  187.4430  176.8260  144.1710 C   0  0  0  0  0  0  0  0  0  0  0  0
  186.6290  178.2630  142.2280 C   0  0  0  0  0  0  0  0  0  0  0  0
  186.9850  178.4460  139.1700 C   0  0  0  0  0  3  0  0  0  0  0  0
  187.4800  176.5080  145.3890 O   0  0  0  0  0  0  0  0  0  0  0  0
  188.6620  176.9860  142.0790 N   0  0  0  0  0  2  0  0  0  0  0  0
  186.4890  177.8420  143.6520 C   0  0  0  0  0  0  0  0  0  0  0  0
  187.9460  178.3620  140.1050 C   0  0  0  0  0  0  0  0  0  0  0  0
  185.5880  179.1560  141.6120 C   0  0  1  0  0  3  0  0  0  0  0  0
  184.6770  179.4880  143.8920 C   0  0  0  0  0  3  0  0  0  0  0  0
  188.3570  176.1290  143.2190 C   0  0  0  0  0  2  0  0  0  0  0  0
  185.5430  178.1880  139.3640 C   0  0  0  0  0  3  0  0  0  0  0  0
  184.8660  178.4470  140.4900 C   0  0  0  0  0  0  0  0  0  0  0  0
  187.6960  177.8720  141.4960 C   0  0  0  0  0  0  0  0  0  0  0  0
  184.6980  179.8450  142.6090 C   0  0  0  0  0  3  0  0  0  0  0  0
  181.7240  176.3700  140.0180 C   0  0  0  0  0  0  0  0  0  0  0  0
  180.7960  177.0970  140.7680 C   0  0  0  0  0  3  0  0  0  0  0  0
  183.4650  177.9670  140.6030 C   0  0  0  0  0  0  0  0  0  0  0  0
  181.1940  178.2620  141.4300 C   0  0  0  0  0  3  0  0  0  0  0  0
  183.0490  176.8060  139.9330 C   0  0  0  0  0  3  0  0  0  0  0  0
  182.5200  178.6960  141.3450 C   0  0  0  0  0  3  0  0  0  0  0  0
  181.3400  175.2440  139.3710 F   0  0  0  0  0  0  0  0  0  0  0  0
  185.6680  178.9030  146.8610 C   0  0  0  0  0  1  0  0  0  0  0  0
  185.4060  178.0300  145.7720 O   0  0  0  0  0  0  0  0  0  0  0  0
  189.2800  178.6590  139.6860 N   0  0  0  0  0  2  0  0  0  0  0  0
  190.8340  177.0160  139.1150 C   0  0  0  0  0  3  0  0  0  0  0  0
  189.9520  177.8810  138.7370 N   0  0  0  0  0  0  0  0  0  0  0  0
  193.5570  177.0980  139.1840 O   0  0  0  0  0  1  0  0  0  0  0  0
  191.5560  176.1840  138.1030 C   0  0  1  0  0  3  0  0  0  0  0  0
  193.0970  176.4030  138.0630 C   0  0  2  0  0  3  0  0  0  0  0  0
  193.2330  174.4410  136.9010 C   0  0  0  0  0  2  0  0  0  0  0  0
  191.7480  174.1280  137.1670 C   0  0  0  0  0  2  0  0  0  0  0  0
  191.2640  174.8230  138.2970 O   0  0  0  0  0  0  0  0  0  0  0  0
  193.7830  175.1720  137.9730 O   0  0  0  0  0  0  0  0  0  0  0  0
  1 24  1  0  0  0  0
  2  5  2  0  0  0  0
  3  7  1  0  0  0  0
  4 12  1  0  0  0  0
  4  8  2  0  0  0  0
  6 11  1  0  0  0  0
  7  2  1  0  0  0  0
  7  1  2  0  0  0  0
  8 14  1  0  0  0  0
  9  3  1  0  0  0  0
  9 15  1  1  0  0  0
 10  1  1  0  0  0  0
 11  2  1  0  0  0  0
 12 13  2  0  0  0  0
 13 18  1  0  0  0  0
 13  9  1  0  0  0  0
 14  6  1  0  0  0  0
 14  3  2  0  0  0  0
 15 10  2  0  0  0  0
 16 17  1  0  0  0  0
 17 19  2  0  0  0  0
 18 21  2  0  0  0  0
 20 16  2  0  0  0  0
 20 18  1  0  0  0  0
 21 19  1  0  0  0  0
 22 16  1  0  0  0  0
 24 23  1  0  0  0  0
 25  8  1  0  0  0  0
 27 26  2  0  0  0  0
 27 25  1  0  0  0  0
 29 33  1  0  0  0  0
 29 26  1  1  0  0  0
 30 29  1  0  0  0  0
 30 28  1  1  0  0  0
 31 32  1  0  0  0  0
 31 34  1  0  0  0  0
 32 33  1  0  0  0  0
 34 30  1  0  0  0  0
M  END
>  <MODEL>
3

>  <REMARK>
 VINA RESULT:      -6.9      3.756      6.255
  Name = 
  5 active torsions:
  status: ('A' for Active; 'I' for Inactive)
    1  A    between atoms: C_1  and  O_19
    2  A    between atoms: C_3  and  C_13
    3  A    between atoms: C_12  and  C_28
    4  A    between atoms: N_17  and  N_29
    5  A    between atoms: C_18  and  N_29
                            x       y       z     vdW  Elec       q    Type
                         _______ _______ _______ _____ _____    ______ ____

>  <TORSDO>
F 5

$$$$
=
 OpenBabel11052413563D

 34 38  0  0  1  0  0  0  0  0999 V2000
  186.4260  178.6380  138.4440 C   0  0  0  0  0  0  0  0  0  0  0  0
  186.5460  178.2390  140.8980 C   0  0  0  0  0  0  0  0  0  0  0  0
  188.5430  177.7950  139.3760 C   0  0  0  0  0  0  0  0  0  0  0  0
  191.2860  176.3900  139.4980 C   0  0  0  0  0  3  0  0  0  0  0  0
  185.4020  178.7090  141.1340 O   0  0  0  0  0  0  0  0  0  0  0  0
  188.7560  177.7460  141.7710 N   0  0  0  0  0  2  0  0  0  0  0  0
  187.1230  178.2270  139.5280 C   0  0  2  0  0  3  0  0  0  0  0  0
  190.7830  177.2860  140.3630 C   0  0  0  0  0  0  0  0  0  0  0  0
  189.1170  177.6040  137.9990 C   0  0  0  0  0  0  0  0  0  0  0  0
  187.0720  178.6840  137.1110 C   0  0  0  0  0  3  0  0  0  0  0  0
  187.3240  177.6410  142.0230 C   0  0  0  0  0  2  0  0  0  0  0  0
  190.5390  175.6630  138.4510 C   0  0  0  0  0  3  0  0  0  0  0  0
  189.4980  176.1590  137.7710 C   0  0  0  0  0  0  0  0  0  0  0  0
  189.3240  177.6020  140.4620 C   0  0  0  0  0  0  0  0  0  0  0  0
  188.3070  178.2320  136.9000 C   0  0  0  0  0  3  0  0  0  0  0  0
  186.7250  173.9620  136.3960 C   0  0  0  0  0  0  0  0  0  0  0  0
  187.3100  173.4800  135.2220 C   0  0  0  0  0  3  0  0  0  0  0  0
  188.7320  175.2500  136.8800 C   0  0  0  0  0  0  0  0  0  0  0  0
  188.6060  173.8730  134.8770 C   0  0  0  0  0  3  0  0  0  0  0  0
  187.4340  174.8380  137.2220 C   0  0  0  0  0  3  0  0  0  0  0  0
  189.3140  174.7500  135.7030 C   0  0  0  0  0  3  0  0  0  0  0  0
  185.4710  173.5780  136.7350 F   0  0  0  0  0  0  0  0  0  0  0  0
  184.0030  178.2620  138.0950 C   0  0  0  0  0  1  0  0  0  0  0  0
  185.0910  179.0400  138.5740 O   0  0  0  0  0  0  0  0  0  0  0  0
  191.6990  177.8670  141.2940 N   0  0  0  0  0  2  0  0  0  0  0  0
  191.2730  178.1000  143.5750 C   0  0  0  0  0  3  0  0  0  0  0  0
  191.8040  177.4180  142.6140 N   0  0  0  0  0  0  0  0  0  0  0  0
  189.0210  178.2640  145.1000 O   0  0  0  0  0  1  0  0  0  0  0  0
  191.3840  177.6230  144.9880 C   0  0  1  0  0  3  0  0  0  0  0  0
  190.1310  177.9040  145.8680 C   0  0  2  0  0  3  0  0  0  0  0  0
  190.9580  176.3650  147.3410 C   0  0  0  0  0  2  0  0  0  0  0  0
  192.0500  175.9320  146.3440 C   0  0  0  0  0  2  0  0  0  0  0  0
  191.6980  176.2530  145.0140 O   0  0  0  0  0  0  0  0  0  0  0  0
  189.7990  176.7790  146.6540 O   0  0  0  0  0  0  0  0  0  0  0  0
  1 24  1  0  0  0  0
  2  5  2  0  0  0  0
  2 11  1  0  0  0  0
  3  7  1  0  0  0  0
  3 14  2  0  0  0  0
  4  8  2  0  0  0  0
  6 11  1  0  0  0  0
  7  1  1  1  0  0  0
  7  2  1  0  0  0  0
  8 14  1  0  0  0  0
  8 25  1  0  0  0  0
  9  3  1  0  0  0  0
 10  1  2  0  0  0  0
 12  4  1  0  0  0  0
 13  9  1  0  0  0  0
 13 12  2  0  0  0  0
 14  6  1  0  0  0  0
 15 10  1  0  0  0  0
 15  9  2  0  0  0  0
 16 22  1  0  0  0  0
 16 20  1  0  0  0  0
 17 16  2  0  0  0  0
 18 20  2  0  0  0  0
 18 13  1  0  0  0  0
 19 17  1  0  0  0  0
 19 21  2  0  0  0  0
 21 18  1  0  0  0  0
 23 24  1  0  0  0  0
 25 27  1  0  0  0  0
 27 26  2  0  0  0  0
 29 26  1  6  0  0  0
 29 33  1  0  0  0  0
 29 30  1  0  0  0  0
 30 28  1  6  0  0  0
 30 34  1  0  0  0  0
 32 31  1  0  0  0  0
 33 32  1  0  0  0  0
 34 31  1  0  0  0  0
M  END
>  <MODEL>
4

>  <REMARK>
 VINA RESULT:      -6.8      4.287      5.930
  Name = 
  5 active torsions:
  status: ('A' for Active; 'I' for Inactive)
    1  A    between atoms: C_1  and  O_19
    2  A    between atoms: C_3  and  C_13
    3  A    between atoms: C_12  and  C_28
    4  A    between atoms: N_17  and  N_29
    5  A    between atoms: C_18  and  N_29
                            x       y       z     vdW  Elec       q    Type
                         _______ _______ _______ _____ _____    ______ ____

>  <TORSDO>
F 5

$$$$
=
 OpenBabel11052413563D

 34 38  0  0  1  0  0  0  0  0999 V2000
  184.2810  176.9070  136.5050 C   0  0  0  0  0  0  0  0  0  0  0  0
  186.4540  178.0230  136.0240 C   0  0  0  0  0  0  0  0  0  0  0  0
  185.5730  177.7920  138.4050 C   0  0  0  0  0  0  0  0  0  0  0  0
  186.1730  178.9020  141.2190 C   0  0  0  0  0  3  0  0  0  0  0  0
  186.4350  177.7580  134.7930 O   0  0  0  0  0  0  0  0  0  0  0  0
  187.8130  178.5490  137.9640 N   0  0  0  0  0  2  0  0  0  0  0  0
  185.3810  177.5620  136.9440 C   0  0  0  0  0  0  0  0  0  0  0  0
  187.0410  178.3640  140.3460 C   0  0  0  0  0  0  0  0  0  0  0  0
  184.4460  177.4980  139.3570 C   0  0  1  0  0  3  0  0  0  0  0  0
  183.2790  176.3960  137.4700 C   0  0  0  0  0  3  0  0  0  0  0  0
  187.5660  178.8600  136.5610 C   0  0  0  0  0  2  0  0  0  0  0  0
  184.7930  179.3420  140.9290 C   0  0  0  0  0  3  0  0  0  0  0  0
  183.9770  178.7620  140.0400 C   0  0  0  0  0  0  0  0  0  0  0  0
  186.7580  178.2320  138.8830 C   0  0  0  0  0  0  0  0  0  0  0  0
  183.3540  176.6440  138.7760 C   0  0  0  0  0  3  0  0  0  0  0  0
  181.3880  181.0040  138.4040 C   0  0  0  0  0  0  0  0  0  0  0  0
  180.2530  180.7200  139.1690 C   0  0  0  0  0  3  0  0  0  0  0  0
  182.6850  179.4230  139.7230 C   0  0  0  0  0  0  0  0  0  0  0  0
  180.3300  179.7950  140.2140 C   0  0  0  0  0  3  0  0  0  0  0  0
  182.5970  180.3630  138.6850 C   0  0  0  0  0  3  0  0  0  0  0  0
  181.5400  179.1540  140.4920 C   0  0  0  0  0  3  0  0  0  0  0  0
  181.3170  181.9040  137.3950 F   0  0  0  0  0  0  0  0  0  0  0  0
  183.7820  175.4140  134.5940 C   0  0  0  0  0  1  0  0  0  0  0  0
  184.0880  176.6910  135.1350 O   0  0  0  0  0  0  0  0  0  0  0  0
  188.3300  178.0110  140.8540 N   0  0  0  0  0  2  0  0  0  0  0  0
  189.1700  176.8220  142.6760 C   0  0  0  0  0  3  0  0  0  0  0  0
  188.5790  177.8780  142.2240 N   0  0  0  0  0  0  0  0  0  0  0  0
  191.7820  176.8510  143.4500 O   0  0  0  0  0  1  0  0  0  0  0  0
  189.4370  176.6770  144.1400 C   0  0  1  0  0  3  0  0  0  0  0  0
  190.9390  176.5170  144.5140 C   0  0  2  0  0  3  0  0  0  0  0  0
  190.3480  177.0370  146.6580 C   0  0  0  0  0  2  0  0  0  0  0  0
  188.9230  177.4260  146.2180 C   0  0  0  0  0  2  0  0  0  0  0  0
  188.8740  177.7550  144.8450 O   0  0  0  0  0  0  0  0  0  0  0  0
  191.2730  177.3120  145.6320 O   0  0  0  0  0  0  0  0  0  0  0  0
  1  7  2  0  0  0  0
  1 10  1  0  0  0  0
  2 11  1  0  0  0  0
  2  7  1  0  0  0  0
  3 14  2  0  0  0  0
  3  9  1  0  0  0  0
  5  2  2  0  0  0  0
  6 14  1  0  0  0  0
  7  3  1  0  0  0  0
  8 25  1  0  0  0  0
  8  4  2  0  0  0  0
  9 15  1  6  0  0  0
  9 13  1  0  0  0  0
 10 15  2  0  0  0  0
 11  6  1  0  0  0  0
 12  4  1  0  0  0  0
 13 12  2  0  0  0  0
 14  8  1  0  0  0  0
 16 20  2  0  0  0  0
 16 17  1  0  0  0  0
 17 19  2  0  0  0  0
 18 13  1  0  0  0  0
 18 21  2  0  0  0  0
 19 21  1  0  0  0  0
 20 18  1  0  0  0  0
 22 16  1  0  0  0  0
 23 24  1  0  0  0  0
 24  1  1  0  0  0  0
 25 27  1  0  0  0  0
 27 26  2  0  0  0  0
 29 26  1  6  0  0  0
 29 30  1  0  0  0  0
 29 33  1  0  0  0  0
 30 28  1  6  0  0  0
 30 34  1  0  0  0  0
 32 31  1  0  0  0  0
 33 32  1  0  0  0  0
 34 31  1  0  0  0  0
M  END
>  <MODEL>
5

>  <REMARK>
 VINA RESULT:      -6.8      6.032      8.106
  Name = 
  5 active torsions:
  status: ('A' for Active; 'I' for Inactive)
    1  A    between atoms: C_1  and  O_19
    2  A    between atoms: C_3  and  C_13
    3  A    between atoms: C_12  and  C_28
    4  A    between atoms: N_17  and  N_29
    5  A    between atoms: C_18  and  N_29
                            x       y       z     vdW  Elec       q    Type
                         _______ _______ _______ _____ _____    ______ ____

>  <TORSDO>
F 5

$$$$
=
 OpenBabel11052413563D

 34 38  0  0  1  0  0  0  0  0999 V2000
  191.7390  175.7510  138.3780 C   0  0  0  0  0  0  0  0  0  0  0  0
  189.7400  174.6450  137.3920 C   0  0  0  0  0  0  0  0  0  0  0  0
  189.5440  176.8140  138.7170 C   0  0  0  0  0  0  0  0  0  0  0  0
  187.3500  178.5550  140.0070 C   0  0  0  0  0  3  0  0  0  0  0  0
  190.3990  173.7530  136.7960 O   0  0  0  0  0  0  0  0  0  0  0  0
  187.6840  175.9310  137.4760 N   0  0  0  0  0  2  0  0  0  0  0  0
  190.4010  175.7170  138.1810 C   0  0  0  0  0  0  0  0  0  0  0  0
  187.3840  178.0700  138.7540 C   0  0  0  0  0  0  0  0  0  0  0  0
  190.1370  177.8250  139.6600 C   0  0  1  0  0  3  0  0  0  0  0  0
  192.3610  176.8860  139.1020 C   0  0  0  0  0  3  0  0  0  0  0  0
  188.2490  174.5940  137.3350 C   0  0  0  0  0  2  0  0  0  0  0  0
  188.2090  178.1390  141.1350 C   0  0  0  0  0  3  0  0  0  0  0  0
  189.4820  177.7420  141.0190 C   0  0  0  0  0  0  0  0  0  0  0  0
  188.2510  176.9240  138.3420 C   0  0  0  0  0  0  0  0  0  0  0  0
  191.6400  177.8470  139.6750 C   0  0  0  0  0  3  0  0  0  0  0  0
  191.4570  177.4920  144.2510 C   0  0  0  0  0  0  0  0  0  0  0  0
  191.5050  176.1090  144.4400 C   0  0  0  0  0  3  0  0  0  0  0  0
  190.1630  177.1790  142.2140 C   0  0  0  0  0  0  0  0  0  0  0  0
  190.8910  175.2570  143.5180 C   0  0  0  0  0  3  0  0  0  0  0  0
  190.7940  178.0230  143.1410 C   0  0  0  0  0  3  0  0  0  0  0  0
  190.2270  175.7890  142.4080 C   0  0  0  0  0  3  0  0  0  0  0  0
  192.0550  178.3190  145.1400 F   0  0  0  0  0  0  0  0  0  0  0  0
  193.9070  174.9280  137.5100 C   0  0  0  0  0  1  0  0  0  0  0  0
  192.5520  174.7240  137.8840 O   0  0  0  0  0  0  0  0  0  0  0  0
  186.4530  178.6270  137.8230 N   0  0  0  0  0  2  0  0  0  0  0  0
  184.2350  178.1450  138.3590 C   0  0  0  0  0  3  0  0  0  0  0  0
  185.1670  179.0250  138.2040 N   0  0  0  0  0  0  0  0  0  0  0  0
  183.4570  177.5050  140.8900 O   0  0  0  0  0  1  0  0  0  0  0  0
  182.8590  178.5670  138.7640 C   0  0  1  0  0  3  0  0  0  0  0  0
  182.3940  178.0240  140.1470 C   0  0  2  0  0  3  0  0  0  0  0  0
  180.7560  179.6160  140.0980 C   0  0  0  0  0  2  0  0  0  0  0  0
  181.3830  180.2860  138.8590 C   0  0  0  0  0  2  0  0  0  0  0  0
  182.7530  179.9690  138.7330 O   0  0  0  0  0  0  0  0  0  0  0  0
  181.7560  179.0330  140.9010 O   0  0  0  0  0  0  0  0  0  0  0  0
  1 10  1  0  0  0  0
  2  7  1  0  0  0  0
  3  9  1  0  0  0  0
  4 12  1  0  0  0  0
  5  2  2  0  0  0  0
  6 14  1  0  0  0  0
  7  1  2  0  0  0  0
  7  3  1  0  0  0  0
  8  4  2  0  0  0  0
  9 15  1  1  0  0  0
  9 13  1  0  0  0  0
 10 15  2  0  0  0  0
 11  2  1  0  0  0  0
 11  6  1  0  0  0  0
 13 12  2  0  0  0  0
 13 18  1  0  0  0  0
 14  3  2  0  0  0  0
 14  8  1  0  0  0  0
 16 17  1  0  0  0  0
 16 22  1  0  0  0  0
 18 21  2  0  0  0  0
 18 20  1  0  0  0  0
 19 17  2  0  0  0  0
 20 16  2  0  0  0  0
 21 19  1  0  0  0  0
 23 24  1  0  0  0  0
 24  1  1  0  0  0  0
 25 27  1  0  0  0  0
 25  8  1  0  0  0  0
 27 26  2  0  0  0  0
 29 26  1  1  0  0  0
 29 30  1  0  0  0  0
 30 28  1  1  0  0  0
 30 34  1  0  0  0  0
 31 34  1  0  0  0  0
 32 31  1  0  0  0  0
 33 29  1  0  0  0  0
 33 32  1  0  0  0  0
M  END
>  <MODEL>
6

>  <REMARK>
 VINA RESULT:      -6.8      3.693      9.790
  Name = 
  5 active torsions:
  status: ('A' for Active; 'I' for Inactive)
    1  A    between atoms: C_1  and  O_19
    2  A    between atoms: C_3  and  C_13
    3  A    between atoms: C_12  and  C_28
    4  A    between atoms: N_17  and  N_29
    5  A    between atoms: C_18  and  N_29
                            x       y       z     vdW  Elec       q    Type
                         _______ _______ _______ _____ _____    ______ ____

>  <TORSDO>
F 5

$$$$
=
 OpenBabel11052413563D

 34 38  0  0  1  0  0  0  0  0999 V2000
  182.9870  177.5070  136.1300 C   0  0  0  0  0  0  0  0  0  0  0  0
  183.2540  178.4170  138.4310 C   0  0  0  0  0  0  0  0  0  0  0  0
  185.2260  177.4280  137.1530 C   0  0  0  0  0  0  0  0  0  0  0  0
  188.1180  176.5070  137.6990 C   0  0  0  0  0  3  0  0  0  0  0  0
  182.0730  178.8470  138.5100 O   0  0  0  0  0  0  0  0  0  0  0  0
  185.5400  178.6170  139.2200 N   0  0  0  0  0  2  0  0  0  0  0  0
  183.7720  177.7600  137.2030 C   0  0  2  0  0  3  0  0  0  0  0  0
  187.5480  177.6740  138.0440 C   0  0  0  0  0  0  0  0  0  0  0  0
  185.7610  176.6130  136.0080 C   0  0  0  0  0  0  0  0  0  0  0  0
  183.5680  176.9240  134.8980 C   0  0  0  0  0  3  0  0  0  0  0  0
  184.1420  178.5370  139.6250 C   0  0  0  0  0  2  0  0  0  0  0  0
  187.4200  175.2920  137.2310 C   0  0  0  0  0  3  0  0  0  0  0  0
  186.3000  175.2890  136.4970 C   0  0  0  0  0  0  0  0  0  0  0  0
  186.0680  177.8760  138.1100 C   0  0  0  0  0  0  0  0  0  0  0  0
  184.8380  176.5300  134.8250 C   0  0  0  0  0  3  0  0  0  0  0  0
  183.8660  172.3930  136.8150 C   0  0  0  0  0  0  0  0  0  0  0  0
  184.3500  171.5170  135.8400 C   0  0  0  0  0  3  0  0  0  0  0  0
  185.6110  173.9940  136.2560 C   0  0  0  0  0  0  0  0  0  0  0  0
  185.4650  171.8700  135.0760 C   0  0  0  0  0  3  0  0  0  0  0  0
  184.4970  173.6220  137.0240 C   0  0  0  0  0  3  0  0  0  0  0  0
  186.0950  173.1010  135.2860 C   0  0  0  0  0  3  0  0  0  0  0  0
  182.7890  172.0510  137.5600 F   0  0  0  0  0  0  0  0  0  0  0  0
  180.9930  178.6520  135.2130 C   0  0  0  0  0  1  0  0  0  0  0  0
  181.6200  177.8090  136.1690 O   0  0  0  0  0  0  0  0  0  0  0  0
  188.4270  178.7190  138.4680 N   0  0  0  0  0  2  0  0  0  0  0  0
  188.8060  178.1020  140.6850 C   0  0  0  0  0  3  0  0  0  0  0  0
  189.2680  178.5790  139.5770 N   0  0  0  0  0  0  0  0  0  0  0  0
  187.6710  177.1110  142.9550 O   0  0  0  0  0  1  0  0  0  0  0  0
  189.7030  177.9530  141.8730 C   0  0  1  0  0  3  0  0  0  0  0  0
  188.9740  177.5580  143.1910 C   0  0  2  0  0  3  0  0  0  0  0  0
  191.0220  176.9760  144.0190 C   0  0  0  0  0  2  0  0  0  0  0  0
  191.6790  177.1410  142.6340 C   0  0  0  0  0  2  0  0  0  0  0  0
  190.7310  177.0360  141.5930 O   0  0  0  0  0  0  0  0  0  0  0  0
  189.6850  176.5530  143.8840 O   0  0  0  0  0  0  0  0  0  0  0  0
  1 24  1  0  0  0  0
  2  5  2  0  0  0  0
  2 11  1  0  0  0  0
  3  7  1  0  0  0  0
  3 14  2  0  0  0  0
  4  8  2  0  0  0  0
  6 11  1  0  0  0  0
  7  1  1  6  0  0  0
  7  2  1  0  0  0  0
  8 14  1  0  0  0  0
  8 25  1  0  0  0  0
  9 13  1  0  0  0  0
  9  3  1  0  0  0  0
 10  1  2  0  0  0  0
 12  4  1  0  0  0  0
 13 12  2  0  0  0  0
 14  6  1  0  0  0  0
 15 10  1  0  0  0  0
 15  9  2  0  0  0  0
 16 20  1  0  0  0  0
 16 22  1  0  0  0  0
 17 16  2  0  0  0  0
 18 13  1  0  0  0  0
 18 20  2  0  0  0  0
 19 21  2  0  0  0  0
 19 17  1  0  0  0  0
 21 18  1  0  0  0  0
 23 24  1  0  0  0  0
 25 27  1  0  0  0  0
 27 26  2  0  0  0  0
 29 26  1  6  0  0  0
 29 30  1  0  0  0  0
 30 28  1  6  0  0  0
 30 34  1  0  0  0  0
 32 31  1  0  0  0  0
 33 29  1  0  0  0  0
 33 32  1  0  0  0  0
 34 31  1  0  0  0  0
M  END
>  <MODEL>
7

>  <REMARK>
 VINA RESULT:      -6.7      4.713      6.052
  Name = 
  5 active torsions:
  status: ('A' for Active; 'I' for Inactive)
    1  A    between atoms: C_1  and  O_19
    2  A    between atoms: C_3  and  C_13
    3  A    between atoms: C_12  and  C_28
    4  A    between atoms: N_17  and  N_29
    5  A    between atoms: C_18  and  N_29
                            x       y       z     vdW  Elec       q    Type
                         _______ _______ _______ _____ _____    ______ ____

>  <TORSDO>
F 5

$$$$
=
 OpenBabel11052413563D

 34 38  0  0  1  0  0  0  0  0999 V2000
  186.7740  177.3760  145.7510 C   0  0  0  0  0  0  0  0  0  0  0  0
  185.2010  179.2990  145.6050 C   0  0  0  0  0  0  0  0  0  0  0  0
  186.0770  178.1320  143.5140 C   0  0  0  0  0  0  0  0  0  0  0  0
  186.1640  178.5910  140.4660 C   0  0  0  0  0  3  0  0  0  0  0  0
  185.0280  179.3850  146.8490 O   0  0  0  0  0  0  0  0  0  0  0  0
  184.3010  179.7510  143.3970 N   0  0  0  0  0  2  0  0  0  0  0  0
  186.0610  178.2480  145.0010 C   0  0  0  0  0  0  0  0  0  0  0  0
  185.0960  178.6650  141.2780 C   0  0  0  0  0  0  0  0  0  0  0  0
  187.0550  177.2010  142.8530 C   0  0  1  0  0  3  0  0  0  0  0  0
  187.5520  176.2930  145.1030 C   0  0  0  0  0  3  0  0  0  0  0  0
  184.5550  180.3110  144.7190 C   0  0  0  0  0  2  0  0  0  0  0  0
  187.5820  178.5510  140.8790 C   0  0  0  0  0  3  0  0  0  0  0  0
  188.0350  177.9710  141.9980 C   0  0  0  0  0  0  0  0  0  0  0  0
  185.2020  178.8340  142.7600 C   0  0  0  0  0  0  0  0  0  0  0  0
  187.6720  176.1930  143.7810 C   0  0  0  0  0  3  0  0  0  0  0  0
  191.8220  177.7190  142.0070 C   0  0  0  0  0  0  0  0  0  0  0  0
  192.1480  178.4890  143.1260 C   0  0  0  0  0  3  0  0  0  0  0  0
  189.4590  178.1670  142.3740 C   0  0  0  0  0  0  0  0  0  0  0  0
  191.1360  179.0940  143.8750 C   0  0  0  0  0  3  0  0  0  0  0  0
  190.4850  177.5550  141.6370 C   0  0  0  0  0  3  0  0  0  0  0  0
  189.7980  178.9300  143.5030 C   0  0  0  0  0  3  0  0  0  0  0  0
  192.8020  177.1280  141.2830 F   0  0  0  0  0  0  0  0  0  0  0  0
  187.9510  177.7060  147.9040 C   0  0  0  0  0  1  0  0  0  0  0  0
  186.7710  177.4790  147.1470 O   0  0  0  0  0  0  0  0  0  0  0  0
  183.8110  178.6910  140.6500 N   0  0  0  0  0  2  0  0  0  0  0  0
  182.2700  179.7180  139.2330 C   0  0  0  0  0  3  0  0  0  0  0  0
  183.4850  179.6250  139.6610 N   0  0  0  0  0  0  0  0  0  0  0  0
  180.7090  178.8240  137.1860 O   0  0  0  0  0  1  0  0  0  0  0  0
  181.9180  180.7140  138.1740 C   0  0  1  0  0  3  0  0  0  0  0  0
  181.1810  180.1160  136.9400 C   0  0  2  0  0  3  0  0  0  0  0  0
  180.5740  182.2530  136.4070 C   0  0  0  0  0  2  0  0  0  0  0  0
  181.0960  182.7850  137.7550 C   0  0  0  0  0  2  0  0  0  0  0  0
  181.1630  181.7630  138.7280 O   0  0  0  0  0  0  0  0  0  0  0  0
  180.0990  180.9340  136.5480 O   0  0  0  0  0  0  0  0  0  0  0  0
  1 24  1  0  0  0  0
  2  5  2  0  0  0  0
  3  7  1  0  0  0  0
  4 12  1  0  0  0  0
  4  8  2  0  0  0  0
  6 11  1  0  0  0  0
  7  2  1  0  0  0  0
  7  1  2  0  0  0  0
  8 14  1  0  0  0  0
  9  3  1  0  0  0  0
  9 15  1  1  0  0  0
 10  1  1  0  0  0  0
 11  2  1  0  0  0  0
 12 13  2  0  0  0  0
 13 18  1  0  0  0  0
 13  9  1  0  0  0  0
 14  6  1  0  0  0  0
 14  3  2  0  0  0  0
 15 10  2  0  0  0  0
 16 17  1  0  0  0  0
 17 19  2  0  0  0  0
 18 21  2  0  0  0  0
 20 16  2  0  0  0  0
 20 18  1  0  0  0  0
 21 19  1  0  0  0  0
 22 16  1  0  0  0  0
 24 23  1  0  0  0  0
 25  8  1  0  0  0  0
 26 27  2  0  0  0  0
 27 25  1  0  0  0  0
 29 33  1  0  0  0  0
 29 26  1  1  0  0  0
 30 28  1  1  0  0  0
 30 29  1  0  0  0  0
 31 34  1  0  0  0  0
 31 32  1  0  0  0  0
 32 33  1  0  0  0  0
 34 30  1  0  0  0  0
M  END
>  <MODEL>
8

>  <REMARK>
 VINA RESULT:      -6.6      7.711     11.208
  Name = 
  5 active torsions:
  status: ('A' for Active; 'I' for Inactive)
    1  A    between atoms: C_1  and  O_19
    2  A    between atoms: C_3  and  C_13
    3  A    between atoms: C_12  and  C_28
    4  A    between atoms: N_17  and  N_29
    5  A    between atoms: C_18  and  N_29
                            x       y       z     vdW  Elec       q    Type
                         _______ _______ _______ _____ _____    ______ ____

>  <TORSDO>
F 5

$$$$
=
 OpenBabel11052413563D

 34 38  0  0  1  0  0  0  0  0999 V2000
  186.6970  177.3570  145.5930 C   0  0  0  0  0  0  0  0  0  0  0  0
  185.1540  179.3010  145.4000 C   0  0  0  0  0  0  0  0  0  0  0  0
  186.1020  178.1420  143.3360 C   0  0  0  0  0  0  0  0  0  0  0  0
  186.3220  178.6280  140.2990 C   0  0  0  0  0  3  0  0  0  0  0  0
  184.9300  179.3780  146.6370 O   0  0  0  0  0  0  0  0  0  0  0  0
  184.3530  179.7840  143.1620 N   0  0  0  0  0  2  0  0  0  0  0  0
  186.0260  178.2440  144.8230 C   0  0  0  0  0  0  0  0  0  0  0  0
  185.2220  178.7080  141.0660 C   0  0  0  0  0  0  0  0  0  0  0  0
  187.0960  177.2050  142.7070 C   0  0  1  0  0  3  0  0  0  0  0  0
  187.4880  176.2700  144.9680 C   0  0  0  0  0  3  0  0  0  0  0  0
  184.5580  180.3290  144.4980 C   0  0  0  0  0  2  0  0  0  0  0  0
  187.7210  178.5660  140.7710 C   0  0  0  0  0  3  0  0  0  0  0  0
  188.1200  177.9700  141.9010 C   0  0  0  0  0  0  0  0  0  0  0  0
  185.2680  178.8620  142.5530 C   0  0  0  0  0  0  0  0  0  0  0  0
  187.6610  176.1810  143.6510 C   0  0  0  0  0  3  0  0  0  0  0  0
  191.9030  177.6980  142.0460 C   0  0  0  0  0  0  0  0  0  0  0  0
  192.1890  178.4260  143.2040 C   0  0  0  0  0  3  0  0  0  0  0  0
  189.5290  178.1460  142.3380 C   0  0  0  0  0  0  0  0  0  0  0  0
  191.1510  179.0090  143.9350 C   0  0  0  0  0  3  0  0  0  0  0  0
  190.5800  177.5550  141.6190 C   0  0  0  0  0  3  0  0  0  0  0  0
  189.8280  178.8660  143.5070 C   0  0  0  0  0  3  0  0  0  0  0  0
  192.9070  177.1280  141.3390 F   0  0  0  0  0  0  0  0  0  0  0  0
  187.7740  177.7280  147.7910 C   0  0  0  0  0  1  0  0  0  0  0  0
  186.6360  177.4470  146.9890 O   0  0  0  0  0  0  0  0  0  0  0  0
  183.9650  178.7560  140.3870 N   0  0  0  0  0  2  0  0  0  0  0  0
  182.4770  176.9710  140.1910 C   0  0  0  0  0  3  0  0  0  0  0  0
  183.4520  177.6550  139.6920 N   0  0  0  0  0  0  0  0  0  0  0  0
  179.8430  176.3970  140.5920 O   0  0  0  0  0  1  0  0  0  0  0  0
  181.9270  175.7930  139.4520 C   0  0  1  0  0  3  0  0  0  0  0  0
  180.4750  175.3960  139.8500 C   0  0  2  0  0  3  0  0  0  0  0  0
  180.3970  174.1780  137.9200 C   0  0  0  0  0  2  0  0  0  0  0  0
  181.7300  174.7780  137.4340 C   0  0  0  0  0  2  0  0  0  0  0  0
  182.0070  176.0100  138.0650 O   0  0  0  0  0  0  0  0  0  0  0  0
  179.6950  175.1100  138.7090 O   0  0  0  0  0  0  0  0  0  0  0  0
  1 24  1  0  0  0  0
  2  5  2  0  0  0  0
  3  7  1  0  0  0  0
  4 12  1  0  0  0  0
  4  8  2  0  0  0  0
  6 11  1  0  0  0  0
  7  2  1  0  0  0  0
  7  1  2  0  0  0  0
  8 14  1  0  0  0  0
  9  3  1  0  0  0  0
  9 15  1  1  0  0  0
 10  1  1  0  0  0  0
 11  2  1  0  0  0  0
 12 13  2  0  0  0  0
 13 18  1  0  0  0  0
 13  9  1  0  0  0  0
 14  6  1  0  0  0  0
 14  3  2  0  0  0  0
 15 10  2  0  0  0  0
 16 17  1  0  0  0  0
 17 19  2  0  0  0  0
 18 21  2  0  0  0  0
 20 16  2  0  0  0  0
 20 18  1  0  0  0  0
 21 19  1  0  0  0  0
 22 16  1  0  0  0  0
 24 23  1  0  0  0  0
 25  8  1  0  0  0  0
 27 26  2  0  0  0  0
 27 25  1  0  0  0  0
 29 30  1  0  0  0  0
 29 26  1  1  0  0  0
 30 28  1  6  0  0  0
 31 34  1  0  0  0  0
 32 31  1  0  0  0  0
 32 33  1  0  0  0  0
 33 29  1  0  0  0  0
 34 30  1  0  0  0  0
M  END
>  <MODEL>
9

>  <REMARK>
 VINA RESULT:      -6.6      7.422     10.798
  Name = 
  5 active torsions:
  status: ('A' for Active; 'I' for Inactive)
    1  A    between atoms: C_1  and  O_19
    2  A    between atoms: C_3  and  C_13
    3  A    between atoms: C_12  and  C_28
    4  A    between atoms: N_17  and  N_29
    5  A    between atoms: C_18  and  N_29
                            x       y       z     vdW  Elec       q    Type
                         _______ _______ _______ _____ _____    ______ ____

>  <TORSDO>
F 5

$$$$
