=
 OpenBabel11052415343D

 37 40  0  0  1  0  0  0  0  0999 V2000
  184.7440  177.6580  136.2600 C   0  0  2  0  0  3  0  0  0  0  0  0
  186.8760  175.2020  134.5950 C   0  0  0  0  0  1  0  0  0  0  0  0
  184.2160  177.9390  138.8500 C   0  0  2  0  0  3  0  0  0  0  0  0
  186.0960  177.2690  135.7250 C   0  0  2  0  0  3  0  0  0  0  0  0
  185.0340  178.3590  137.6060 C   0  0  1  0  0  3  0  0  0  0  0  0
  186.2380  175.7350  135.8670 C   0  0  1  0  0  0  0  0  0  0  0  0
  183.8430  176.4600  138.8000 C   0  0  0  0  0  2  0  0  0  0  0  0
  186.4930  178.5390  137.7950 N   0  0  2  0  0  0  0  0  0  0  0  0
  182.4970  174.9050  137.5820 O   0  0  0  0  0  1  0  0  0  0  0  0
  183.0440  176.1860  137.5380 C   0  0  2  0  0  3  0  0  0  0  0  0
  183.9020  176.3800  136.2810 C   0  0  2  0  0  3  0  0  0  0  0  0
  187.0680  178.1770  136.4850 C   0  0  1  0  0  3  0  0  0  0  0  0
  184.8180  175.2060  135.9670 C   0  0  0  0  0  2  0  0  0  0  0  0
  182.4660  178.6800  140.4940 C   0  0  0  0  0  1  0  0  0  0  0  0
  182.9930  178.8390  139.0720 C   0  0  0  0  0  3  0  0  0  0  0  0
  183.3410  180.3030  138.8610 C   0  0  0  0  0  1  0  0  0  0  0  0
  186.8490  178.3350  140.1180 O   0  0  0  0  0  0  0  0  0  0  0  0
  188.1390  178.3970  139.5640 C   0  0  2  0  0  3  0  0  0  0  0  0
  187.0270  177.6930  138.8690 C   0  0  2  0  0  3  0  0  0  0  0  0
  189.1050  177.4370  140.2900 C   0  0  1  0  0  3  0  0  0  0  0  0
  190.4270  177.3660  139.5260 C   0  0  0  0  0  1  0  0  0  0  0  0
  189.3010  177.6310  141.8070 C   0  0  2  0  0  3  0  0  0  0  0  0
  190.7730  177.6600  142.1990 C   0  0  0  0  0  1  0  0  0  0  0  0
  188.5840  176.5260  142.5700 C   0  0  0  0  0  2  0  0  0  0  0  0
  187.4410  177.0660  143.4270 C   0  0  0  0  0  2  0  0  0  0  0  0
  187.9060  177.3730  144.8400 C   0  0  0  0  0  1  0  0  0  0  0  0
  187.0400  175.2800  137.1030 C   0  0  0  0  0  2  0  0  0  0  0  0
  188.1280  174.2540  136.7980 C   0  0  1  0  0  3  0  0  0  0  0  0
  189.3100  174.5550  137.5910 N   0  0  0  0  0  2  0  0  0  0  0  0
  191.6040  174.3560  137.9220 O   0  0  0  0  0  0  0  0  0  0  0  0
  190.8620  173.9140  135.7710 N   0  0  0  0  0  1  0  0  0  0  0  0
  190.6340  174.2790  137.1270 C   0  0  0  0  0  0  0  0  0  0  0  0
  187.5580  172.5910  137.2060 S   0  0  0  0  0  3  0  0  0  0  0  0
  186.2720  172.8400  137.9790 O   0  0  0  0  0  0  0  0  0  0  0  0
  188.5560  177.8220  136.4490 C   0  0  0  0  0  2  0  0  0  0  0  0
  189.0660  177.8520  135.0470 C   0  0  0  0  0  3  0  0  0  0  0  0
  189.8660  177.0120  134.6570 O   0  0  0  0  0  0  0  0  0  0  0  0
  1 11  1  0  0  0  0
  1  5  1  0  0  0  0
  2  6  1  0  0  0  0
  3 15  1  0  0  0  0
  4  6  1  0  0  0  0
  4  1  1  0  0  0  0
  4 12  1  0  0  0  0
  5  8  1  0  0  0  0
  5  3  1  0  0  0  0
  6 13  1  0  0  0  0
  6 27  1  0  0  0  0
  7  3  1  0  0  0  0
  8 19  1  0  0  0  0
 10  9  1  0  0  0  0
 10  7  1  0  0  0  0
 11 10  1  0  0  0  0
 12  8  1  0  0  0  0
 13 11  1  0  0  0  0
 15 14  1  0  0  0  0
 16 15  1  0  0  0  0
 18 17  1  0  0  0  0
 18 20  1  0  0  0  0
 19 18  1  0  0  0  0
 19 17  1  0  0  0  0
 20 22  1  0  0  0  0
 21 20  1  0  0  0  0
 22 23  1  0  0  0  0
 22 24  1  0  0  0  0
 24 25  1  0  0  0  0
 25 26  1  0  0  0  0
 28 27  1  0  0  0  0
 28 33  1  0  0  0  0
 28 29  1  0  0  0  0
 31 32  1  0  0  0  0
 32 29  1  0  0  0  0
 32 30  2  0  0  0  0
 33 34  2  0  0  0  0
 35 12  1  0  0  0  0
 36 35  1  0  0  0  0
 37 36  2  0  0  0  0
M  END
>  <MODEL>
1

>  <REMARK>
 VINA RESULT:      -5.1      0.000      0.000
  Name = 
  12 active torsions:
  status: ('A' for Active; 'I' for Inactive)
    1  A    between atoms: C_1  and  C_5
    2  A    between atoms: C_1  and  C_23
    3  A    between atoms: S_2  and  C_6
    4  A    between atoms: C_5  and  C_26
    5  A    between atoms: C_6  and  N_8
    6  A    between atoms: C_6  and  C_31
    7  A    between atoms: C_9  and  C_30
    8  A    between atoms: C_11  and  C_26
    9  A    between atoms: C_14  and  C_31
   10  A    between atoms: N_20  and  C_25
   11  A    between atoms: C_27  and  C_33
   12  A    between atoms: C_29  and  C_33
                            x       y       z     vdW  Elec       q    Type
                         _______ _______ _______ _____ _____    ______ ____

>  <TORSDO>
F 12

$$$$
=
 OpenBabel11052415343D

 37 40  0  0  1  0  0  0  0  0999 V2000
  190.7020  174.6100  134.5940 C   0  0  2  0  0  3  0  0  0  0  0  0
  194.0650  173.1850  134.6690 C   0  0  0  0  0  1  0  0  0  0  0  0
  188.9370  174.8500  136.5670 C   0  0  2  0  0  3  0  0  0  0  0  0
  192.1830  174.7990  134.7770 C   0  0  2  0  0  3  0  0  0  0  0  0
  190.0500  175.4770  135.6940 C   0  0  1  0  0  3  0  0  0  0  0  0
  192.7560  173.4940  135.3780 C   0  0  1  0  0  0  0  0  0  0  0  0
  189.1670  173.3560  136.7770 C   0  0  0  0  0  2  0  0  0  0  0  0
  191.0750  176.2830  136.3970 N   0  0  2  0  0  0  0  0  0  0  0  0
  189.1980  171.2780  135.5980 O   0  0  0  0  0  1  0  0  0  0  0  0
  189.2210  172.6610  135.4280 C   0  0  2  0  0  3  0  0  0  0  0  0
  190.4500  173.1010  134.6220 C   0  0  2  0  0  3  0  0  0  0  0  0
  192.2920  176.0970  135.5830 C   0  0  1  0  0  3  0  0  0  0  0  0
  191.7440  172.4150  135.0380 C   0  0  0  0  0  2  0  0  0  0  0  0
  186.4700  174.5360  136.9270 C   0  0  0  0  0  1  0  0  0  0  0  0
  187.5330  175.1490  136.0230 C   0  0  0  0  0  3  0  0  0  0  0  0
  187.2800  176.6470  135.9480 C   0  0  0  0  0  1  0  0  0  0  0  0
  190.0760  175.9720  138.5110 O   0  0  0  0  0  0  0  0  0  0  0  0
  191.0380  176.9750  138.7170 C   0  0  2  0  0  3  0  0  0  0  0  0
  191.2820  175.8420  137.7820 C   0  0  2  0  0  3  0  0  0  0  0  0
  191.7440  176.8010  140.0780 C   0  0  1  0  0  3  0  0  0  0  0  0
  193.2100  177.2150  139.9520 C   0  0  0  0  0  1  0  0  0  0  0  0
  191.0580  177.4010  141.3220 C   0  0  2  0  0  3  0  0  0  0  0  0
  191.8230  177.0980  142.6040 C   0  0  0  0  0  1  0  0  0  0  0  0
  189.6320  176.8790  141.4340 C   0  0  0  0  0  2  0  0  0  0  0  0
  188.7060  177.8770  142.1220 C   0  0  0  0  0  2  0  0  0  0  0  0
  188.1670  177.3220  143.4300 C   0  0  0  0  0  1  0  0  0  0  0  0
  192.9670  173.5340  136.9040 C   0  0  0  0  0  2  0  0  0  0  0  0
  194.4110  173.2970  137.3410 C   0  0  1  0  0  3  0  0  0  0  0  0
  194.6700  174.0330  138.5690 N   0  0  0  0  0  2  0  0  0  0  0  0
  196.1760  175.0920  139.9910 O   0  0  0  0  0  0  0  0  0  0  0  0
  196.9070  174.7780  137.8130 N   0  0  0  0  0  1  0  0  0  0  0  0
  195.9290  174.6540  138.8390 C   0  0  0  0  0  0  0  0  0  0  0  0
  194.6990  171.5410  137.6410 S   0  0  0  0  0  3  0  0  0  0  0  0
  196.1430  171.3420  137.2060 O   0  0  0  0  0  0  0  0  0  0  0  0
  193.6330  176.4170  136.2480 C   0  0  0  0  0  2  0  0  0  0  0  0
  194.6470  176.7980  135.2210 C   0  0  0  0  0  3  0  0  0  0  0  0
  195.4680  177.6750  135.4520 O   0  0  0  0  0  0  0  0  0  0  0  0
  1 11  1  0  0  0  0
  1  4  1  0  0  0  0
  1  5  1  0  0  0  0
  2  6  1  0  0  0  0
  3  7  1  0  0  0  0
  4  6  1  0  0  0  0
  4 12  1  0  0  0  0
  5  8  1  0  0  0  0
  5  3  1  0  0  0  0
  6 27  1  0  0  0  0
  8 19  1  0  0  0  0
 10  9  1  0  0  0  0
 10  7  1  0  0  0  0
 11 13  1  0  0  0  0
 11 10  1  0  0  0  0
 12 35  1  0  0  0  0
 12  8  1  0  0  0  0
 13  6  1  0  0  0  0
 15  3  1  0  0  0  0
 15 14  1  0  0  0  0
 16 15  1  0  0  0  0
 17 18  1  0  0  0  0
 18 20  1  0  0  0  0
 19 17  1  0  0  0  0
 19 18  1  0  0  0  0
 20 22  1  0  0  0  0
 21 20  1  0  0  0  0
 22 24  1  0  0  0  0
 22 23  1  0  0  0  0
 24 25  1  0  0  0  0
 25 26  1  0  0  0  0
 27 28  1  0  0  0  0
 28 33  1  0  0  0  0
 28 29  1  0  0  0  0
 29 32  1  0  0  0  0
 31 32  1  0  0  0  0
 32 30  2  0  0  0  0
 34 33  2  0  0  0  0
 36 37  2  0  0  0  0
 36 35  1  0  0  0  0
M  END
>  <MODEL>
2

>  <REMARK>
 VINA RESULT:      -4.0      3.495      5.841
  Name = 
  12 active torsions:
  status: ('A' for Active; 'I' for Inactive)
    1  A    between atoms: C_1  and  C_5
    2  A    between atoms: C_1  and  C_23
    3  A    between atoms: S_2  and  C_6
    4  A    between atoms: C_5  and  C_26
    5  A    between atoms: C_6  and  N_8
    6  A    between atoms: C_6  and  C_31
    7  A    between atoms: C_9  and  C_30
    8  A    between atoms: C_11  and  C_26
    9  A    between atoms: C_14  and  C_31
   10  A    between atoms: N_20  and  C_25
   11  A    between atoms: C_27  and  C_33
   12  A    between atoms: C_29  and  C_33
                            x       y       z     vdW  Elec       q    Type
                         _______ _______ _______ _____ _____    ______ ____

>  <TORSDO>
F 12

$$$$
=
 OpenBabel11052415343D

 37 40  0  0  1  0  0  0  0  0999 V2000
  185.0350  174.6170  134.9080 C   0  0  2  0  0  3  0  0  0  0  0  0
  186.6510  177.8890  135.0930 C   0  0  0  0  0  1  0  0  0  0  0  0
  183.9300  173.1800  136.8530 C   0  0  2  0  0  3  0  0  0  0  0  0
  184.9350  176.1160  134.8240 C   0  0  2  0  0  3  0  0  0  0  0  0
  183.7710  174.1760  135.6800 C   0  0  1  0  0  3  0  0  0  0  0  0
  185.9830  176.7160  135.7910 C   0  0  1  0  0  0  0  0  0  0  0  0
  185.2620  173.3740  137.5730 C   0  0  0  0  0  2  0  0  0  0  0  0
  182.8670  175.3290  135.9010 N   0  0  2  0  0  0  0  0  0  0  0  0
  187.6180  173.1370  137.2550 O   0  0  0  0  0  1  0  0  0  0  0  0
  186.3990  173.1950  136.5830 C   0  0  2  0  0  3  0  0  0  0  0  0
  186.4000  174.3070  135.5260 C   0  0  2  0  0  3  0  0  0  0  0  0
  183.4500  176.4010  135.0710 C   0  0  1  0  0  3  0  0  0  0  0  0
  187.0090  175.6180  136.0040 C   0  0  0  0  0  2  0  0  0  0  0  0
  182.5150  171.1220  137.1350 C   0  0  0  0  0  1  0  0  0  0  0  0
  183.7150  171.7250  136.4140 C   0  0  0  0  0  3  0  0  0  0  0  0
  183.4580  171.6340  134.9180 C   0  0  0  0  0  1  0  0  0  0  0  0
  181.9250  174.8490  138.0090 O   0  0  0  0  0  0  0  0  0  0  0  0
  181.4000  176.1050  137.6630 C   0  0  2  0  0  3  0  0  0  0  0  0
  182.7950  175.7220  137.3140 C   0  0  2  0  0  3  0  0  0  0  0  0
  181.3160  177.0340  138.8930 C   0  0  1  0  0  3  0  0  0  0  0  0
  180.9660  178.4520  138.4410 C   0  0  0  0  0  1  0  0  0  0  0  0
  180.4670  176.5610  140.0900 C   0  0  2  0  0  3  0  0  0  0  0  0
  179.1000  176.0450  139.6590 C   0  0  0  0  0  1  0  0  0  0  0  0
  180.3010  177.6950  141.0920 C   0  0  0  0  0  2  0  0  0  0  0  0
  181.6430  178.2220  141.5920 C   0  0  0  0  0  2  0  0  0  0  0  0
  181.4770  179.0540  142.8530 C   0  0  0  0  0  1  0  0  0  0  0  0
  185.4150  177.1550  137.1550 C   0  0  0  0  0  2  0  0  0  0  0  0
  186.2280  178.2450  137.8490 C   0  0  1  0  0  3  0  0  0  0  0  0
  185.8480  178.3100  139.2520 N   0  0  0  0  0  2  0  0  0  0  0  0
  184.8340  179.4600  141.0020 O   0  0  0  0  0  0  0  0  0  0  0  0
  184.2330  180.1470  138.8710 N   0  0  0  0  0  1  0  0  0  0  0  0
  184.9650  179.3120  139.7600 C   0  0  0  0  0  0  0  0  0  0  0  0
  187.9920  177.8830  137.7370 S   0  0  0  0  0  3  0  0  0  0  0  0
  188.6330  179.0010  138.5460 O   0  0  0  0  0  0  0  0  0  0  0  0
  183.0410  177.8390  135.3980 C   0  0  0  0  0  2  0  0  0  0  0  0
  181.8430  178.2350  134.6020 C   0  0  0  0  0  3  0  0  0  0  0  0
  181.1210  179.1500  134.9760 O   0  0  0  0  0  0  0  0  0  0  0  0
  1 11  1  0  0  0  0
  1  5  1  0  0  0  0
  2  6  1  0  0  0  0
  3  7  1  0  0  0  0
  4  1  1  0  0  0  0
  4 12  1  0  0  0  0
  4  6  1  0  0  0  0
  5  8  1  0  0  0  0
  5  3  1  0  0  0  0
  6 13  1  0  0  0  0
  6 27  1  0  0  0  0
  8 19  1  0  0  0  0
 10  9  1  0  0  0  0
 10  7  1  0  0  0  0
 11 13  1  0  0  0  0
 11 10  1  0  0  0  0
 12 35  1  0  0  0  0
 12  8  1  0  0  0  0
 15  3  1  0  0  0  0
 15 14  1  0  0  0  0
 16 15  1  0  0  0  0
 18 17  1  0  0  0  0
 18 20  1  0  0  0  0
 19 18  1  0  0  0  0
 19 17  1  0  0  0  0
 20 22  1  0  0  0  0
 21 20  1  0  0  0  0
 22 24  1  0  0  0  0
 23 22  1  0  0  0  0
 24 25  1  0  0  0  0
 25 26  1  0  0  0  0
 27 28  1  0  0  0  0
 28 29  1  0  0  0  0
 29 32  1  0  0  0  0
 31 32  1  0  0  0  0
 32 30  2  0  0  0  0
 33 28  1  0  0  0  0
 33 34  2  0  0  0  0
 36 37  2  0  0  0  0
 36 35  1  0  0  0  0
M  END
>  <MODEL>
3

>  <REMARK>
 VINA RESULT:      -3.5      3.401      6.589
  Name = 
  12 active torsions:
  status: ('A' for Active; 'I' for Inactive)
    1  A    between atoms: C_1  and  C_5
    2  A    between atoms: C_1  and  C_23
    3  A    between atoms: S_2  and  C_6
    4  A    between atoms: C_5  and  C_26
    5  A    between atoms: C_6  and  N_8
    6  A    between atoms: C_6  and  C_31
    7  A    between atoms: C_9  and  C_30
    8  A    between atoms: C_11  and  C_26
    9  A    between atoms: C_14  and  C_31
   10  A    between atoms: N_20  and  C_25
   11  A    between atoms: C_27  and  C_33
   12  A    between atoms: C_29  and  C_33
                            x       y       z     vdW  Elec       q    Type
                         _______ _______ _______ _____ _____    ______ ____

>  <TORSDO>
F 12

$$$$
=
 OpenBabel11052415343D

 37 40  0  0  1  0  0  0  0  0999 V2000
  184.1200  174.7830  134.9970 C   0  0  2  0  0  3  0  0  0  0  0  0
  186.0230  177.8880  134.6960 C   0  0  0  0  0  1  0  0  0  0  0  0
  183.1000  173.6450  137.1720 C   0  0  2  0  0  3  0  0  0  0  0  0
  184.1420  176.2700  134.7710 C   0  0  2  0  0  3  0  0  0  0  0  0
  182.9080  174.5390  135.9240 C   0  0  1  0  0  3  0  0  0  0  0  0
  185.3310  176.8540  135.5700 C   0  0  1  0  0  0  0  0  0  0  0  0
  184.5110  173.7760  137.7410 C   0  0  0  0  0  2  0  0  0  0  0  0
  182.1350  175.7880  136.1100 N   0  0  2  0  0  0  0  0  0  0  0  0
  186.7930  173.2860  137.2310 O   0  0  0  0  0  1  0  0  0  0  0  0
  185.5210  173.3970  136.6730 C   0  0  2  0  0  3  0  0  0  0  0  0
  185.5090  174.4020  135.5130 C   0  0  2  0  0  3  0  0  0  0  0  0
  182.7210  176.7180  135.1250 C   0  0  1  0  0  3  0  0  0  0  0  0
  186.2750  175.6870  135.7960 C   0  0  0  0  0  2  0  0  0  0  0  0
  181.5210  171.7810  137.7610 C   0  0  0  0  0  1  0  0  0  0  0  0
  182.7170  172.1830  136.9050 C   0  0  0  0  0  3  0  0  0  0  0  0
  182.3440  171.9690  135.4470 C   0  0  0  0  0  1  0  0  0  0  0  0
  181.4130  175.5670  138.3450 O   0  0  0  0  0  0  0  0  0  0  0  0
  180.9170  176.8150  137.9330 C   0  0  2  0  0  3  0  0  0  0  0  0
  182.2420  176.3150  137.4770 C   0  0  2  0  0  3  0  0  0  0  0  0
  181.0190  177.8580  139.0660 C   0  0  1  0  0  3  0  0  0  0  0  0
  180.6380  179.2370  138.5290 C   0  0  0  0  0  1  0  0  0  0  0  0
  180.3320  177.5280  140.4070 C   0  0  2  0  0  3  0  0  0  0  0  0
  178.9310  176.9610  140.2130 C   0  0  0  0  0  1  0  0  0  0  0  0
  180.2700  178.7730  141.2810 C   0  0  0  0  0  2  0  0  0  0  0  0
  181.1030  178.6260  142.5520 C   0  0  0  0  0  2  0  0  0  0  0  0
  180.2260  178.6220  143.7920 C   0  0  0  0  0  1  0  0  0  0  0  0
  184.9460  177.4690  136.9290 C   0  0  0  0  0  2  0  0  0  0  0  0
  186.1230  177.6650  137.8820 C   0  0  1  0  0  3  0  0  0  0  0  0
  187.0230  178.6690  137.3350 N   0  0  0  0  0  2  0  0  0  0  0  0
  189.1220  179.6700  137.2990 O   0  0  0  0  0  0  0  0  0  0  0  0
  189.0380  177.5580  138.2500 N   0  0  0  0  0  1  0  0  0  0  0  0
  188.4250  178.6740  137.6140 C   0  0  0  0  0  0  0  0  0  0  0  0
  185.5410  178.2210  139.4970 S   0  0  0  0  0  3  0  0  0  0  0  0
  184.6810  179.4310  139.1640 O   0  0  0  0  0  0  0  0  0  0  0  0
  182.4730  178.2130  135.3420 C   0  0  0  0  0  2  0  0  0  0  0  0
  181.2600  178.6540  134.5940 C   0  0  0  0  0  3  0  0  0  0  0  0
  180.6240  179.6340  134.9600 O   0  0  0  0  0  0  0  0  0  0  0  0
  1 11  1  0  0  0  0
  1  5  1  0  0  0  0
  2  6  1  0  0  0  0
  3  7  1  0  0  0  0
  4  1  1  0  0  0  0
  4 12  1  0  0  0  0
  4  6  1  0  0  0  0
  5  8  1  0  0  0  0
  5  3  1  0  0  0  0
  6 13  1  0  0  0  0
  6 27  1  0  0  0  0
  8 19  1  0  0  0  0
 10  9  1  0  0  0  0
 10  7  1  0  0  0  0
 11 13  1  0  0  0  0
 11 10  1  0  0  0  0
 12 35  1  0  0  0  0
 12  8  1  0  0  0  0
 15  3  1  0  0  0  0
 15 14  1  0  0  0  0
 16 15  1  0  0  0  0
 18 17  1  0  0  0  0
 18 20  1  0  0  0  0
 19 18  1  0  0  0  0
 19 17  1  0  0  0  0
 20 22  1  0  0  0  0
 21 20  1  0  0  0  0
 22 24  1  0  0  0  0
 23 22  1  0  0  0  0
 24 25  1  0  0  0  0
 25 26  1  0  0  0  0
 27 28  1  0  0  0  0
 28 33  1  0  0  0  0
 29 32  1  0  0  0  0
 29 28  1  0  0  0  0
 30 32  2  0  0  0  0
 32 31  1  0  0  0  0
 34 33  2  0  0  0  0
 36 37  2  0  0  0  0
 36 35  1  0  0  0  0
M  END
>  <MODEL>
4

>  <REMARK>
 VINA RESULT:      -3.4      3.241      6.314
  Name = 
  12 active torsions:
  status: ('A' for Active; 'I' for Inactive)
    1  A    between atoms: C_1  and  C_5
    2  A    between atoms: C_1  and  C_23
    3  A    between atoms: S_2  and  C_6
    4  A    between atoms: C_5  and  C_26
    5  A    between atoms: C_6  and  N_8
    6  A    between atoms: C_6  and  C_31
    7  A    between atoms: C_9  and  C_30
    8  A    between atoms: C_11  and  C_26
    9  A    between atoms: C_14  and  C_31
   10  A    between atoms: N_20  and  C_25
   11  A    between atoms: C_27  and  C_33
   12  A    between atoms: C_29  and  C_33
                            x       y       z     vdW  Elec       q    Type
                         _______ _______ _______ _____ _____    ______ ____

>  <TORSDO>
F 12

$$$$
=
 OpenBabel11052415343D

 37 40  0  0  1  0  0  0  0  0999 V2000
  186.7420  175.1980  134.5940 C   0  0  2  0  0  3  0  0  0  0  0  0
  187.1190  178.6270  135.7980 C   0  0  0  0  0  1  0  0  0  0  0  0
  186.0510  173.0130  135.9410 C   0  0  2  0  0  3  0  0  0  0  0  0
  186.1410  176.5540  134.8460 C   0  0  2  0  0  3  0  0  0  0  0  0
  185.6500  174.1920  135.0230 C   0  0  1  0  0  3  0  0  0  0  0  0
  186.8420  177.1600  136.0840 C   0  0  1  0  0  0  0  0  0  0  0  0
  187.1760  173.4060  136.8950 C   0  0  0  0  0  2  0  0  0  0  0  0
  184.3920  174.9000  135.3550 N   0  0  2  0  0  0  0  0  0  0  0  0
  189.4870  174.0100  136.9220 O   0  0  0  0  0  1  0  0  0  0  0  0
  188.3780  173.8680  136.0910 C   0  0  2  0  0  3  0  0  0  0  0  0
  188.0780  175.1710  135.3380 C   0  0  2  0  0  3  0  0  0  0  0  0
  184.6340  176.2840  134.9050 C   0  0  1  0  0  3  0  0  0  0  0  0
  188.1630  176.4210  136.2010 C   0  0  0  0  0  2  0  0  0  0  0  0
  187.4440  170.9230  135.8710 C   0  0  0  0  0  1  0  0  0  0  0  0
  186.3820  171.7430  135.1470 C   0  0  0  0  0  3  0  0  0  0  0  0
  185.1520  170.8670  134.9710 C   0  0  0  0  0  1  0  0  0  0  0  0
  183.5530  173.5770  137.1190 O   0  0  0  0  0  0  0  0  0  0  0  0
  182.6230  174.6210  136.9850 C   0  0  2  0  0  3  0  0  0  0  0  0
  184.0810  174.8470  136.7900 C   0  0  2  0  0  3  0  0  0  0  0  0
  182.1140  175.0960  138.3620 C   0  0  1  0  0  3  0  0  0  0  0  0
  182.4010  176.5880  138.5270 C   0  0  0  0  0  1  0  0  0  0  0  0
  180.6750  174.7150  138.7630 C   0  0  2  0  0  3  0  0  0  0  0  0
  179.6800  174.9500  137.6330 C   0  0  0  0  0  1  0  0  0  0  0  0
  180.2520  175.5020  139.9970 C   0  0  0  0  0  2  0  0  0  0  0  0
  179.1370  174.8040  140.7700 C   0  0  0  0  0  2  0  0  0  0  0  0
  179.6530  173.5740  141.4980 C   0  0  0  0  0  1  0  0  0  0  0  0
  186.0540  177.0090  137.4010 C   0  0  0  0  0  2  0  0  0  0  0  0
  186.3680  178.0800  138.4420 C   0  0  1  0  0  3  0  0  0  0  0  0
  185.3600  178.0420  139.4910 N   0  0  0  0  0  2  0  0  0  0  0  0
  183.8280  179.1590  140.8400 O   0  0  0  0  0  0  0  0  0  0  0  0
  184.4930  180.2920  138.9300 N   0  0  0  0  0  1  0  0  0  0  0  0
  184.5300  179.1650  139.7970 C   0  0  0  0  0  0  0  0  0  0  0  0
  187.9890  177.7890  139.1790 S   0  0  0  0  0  3  0  0  0  0  0  0
  188.7620  179.0540  138.8390 O   0  0  0  0  0  0  0  0  0  0  0  0
  183.7330  177.3760  135.4870 C   0  0  0  0  0  2  0  0  0  0  0  0
  182.5620  177.6160  134.5940 C   0  0  0  0  0  3  0  0  0  0  0  0
  181.5180  176.9970  134.7550 O   0  0  0  0  0  0  0  0  0  0  0  0
  1  4  1  0  0  0  0
  1  5  1  0  0  0  0
  1 11  1  0  0  0  0
  2  6  1  0  0  0  0
  3  7  1  0  0  0  0
  4 12  1  0  0  0  0
  4  6  1  0  0  0  0
  5  8  1  0  0  0  0
  5  3  1  0  0  0  0
  6 13  1  0  0  0  0
  6 27  1  0  0  0  0
  8 19  1  0  0  0  0
 10  7  1  0  0  0  0
 10  9  1  0  0  0  0
 11 10  1  0  0  0  0
 11 13  1  0  0  0  0
 12  8  1  0  0  0  0
 12 35  1  0  0  0  0
 15 14  1  0  0  0  0
 15  3  1  0  0  0  0
 16 15  1  0  0  0  0
 18 17  1  0  0  0  0
 18 20  1  0  0  0  0
 19 18  1  0  0  0  0
 19 17  1  0  0  0  0
 20 21  1  0  0  0  0
 20 22  1  0  0  0  0
 22 24  1  0  0  0  0
 23 22  1  0  0  0  0
 24 25  1  0  0  0  0
 25 26  1  0  0  0  0
 27 28  1  0  0  0  0
 28 33  1  0  0  0  0
 28 29  1  0  0  0  0
 29 32  1  0  0  0  0
 31 32  1  0  0  0  0
 32 30  2  0  0  0  0
 34 33  2  0  0  0  0
 36 37  2  0  0  0  0
 36 35  1  0  0  0  0
M  END
>  <MODEL>
5

>  <REMARK>
 VINA RESULT:      -3.3      3.154      7.003
  Name = 
  12 active torsions:
  status: ('A' for Active; 'I' for Inactive)
    1  A    between atoms: C_1  and  C_5
    2  A    between atoms: C_1  and  C_23
    3  A    between atoms: S_2  and  C_6
    4  A    between atoms: C_5  and  C_26
    5  A    between atoms: C_6  and  N_8
    6  A    between atoms: C_6  and  C_31
    7  A    between atoms: C_9  and  C_30
    8  A    between atoms: C_11  and  C_26
    9  A    between atoms: C_14  and  C_31
   10  A    between atoms: N_20  and  C_25
   11  A    between atoms: C_27  and  C_33
   12  A    between atoms: C_29  and  C_33
                            x       y       z     vdW  Elec       q    Type
                         _______ _______ _______ _____ _____    ______ ____

>  <TORSDO>
F 12

$$$$
=
 OpenBabel11052415343D

 37 40  0  0  1  0  0  0  0  0999 V2000
  184.4580  177.8300  136.6190 C   0  0  2  0  0  3  0  0  0  0  0  0
  186.6670  175.5510  134.8080 C   0  0  0  0  0  1  0  0  0  0  0  0
  183.8800  177.8990  139.2130 C   0  0  2  0  0  3  0  0  0  0  0  0
  185.8260  177.5090  136.0810 C   0  0  2  0  0  3  0  0  0  0  0  0
  184.7110  178.4290  138.0200 C   0  0  1  0  0  3  0  0  0  0  0  0
  185.9960  175.9710  136.1060 C   0  0  1  0  0  0  0  0  0  0  0  0
  183.5370  176.4210  139.0400 C   0  0  0  0  0  2  0  0  0  0  0  0
  186.1620  178.6210  138.2500 N   0  0  2  0  0  0  0  0  0  0  0  0
  182.2440  174.9420  137.6810 O   0  0  0  0  0  1  0  0  0  0  0  0
  182.7650  176.2320  137.7460 C   0  0  2  0  0  3  0  0  0  0  0  0
  183.6410  176.5400  136.5240 C   0  0  2  0  0  3  0  0  0  0  0  0
  186.7670  178.3720  136.9270 C   0  0  1  0  0  3  0  0  0  0  0  0
  184.5860  175.4110  136.1370 C   0  0  0  0  0  2  0  0  0  0  0  0
  182.2610  178.7020  140.9580 C   0  0  0  0  0  1  0  0  0  0  0  0
  182.6350  178.7550  139.4810 C   0  0  0  0  0  3  0  0  0  0  0  0
  182.8780  180.2090  139.1100 C   0  0  0  0  0  1  0  0  0  0  0  0
  186.3080  178.1390  140.5550 O   0  0  0  0  0  0  0  0  0  0  0  0
  187.6270  178.4310  140.1690 C   0  0  2  0  0  3  0  0  0  0  0  0
  186.6950  177.7030  139.2650 C   0  0  2  0  0  3  0  0  0  0  0  0
  188.6350  177.5020  140.8770 C   0  0  1  0  0  3  0  0  0  0  0  0
  189.9790  177.5560  140.1510 C   0  0  0  0  0  1  0  0  0  0  0  0
  188.7760  177.6330  142.4070 C   0  0  2  0  0  3  0  0  0  0  0  0
  190.2330  177.7240  142.8450 C   0  0  0  0  0  1  0  0  0  0  0  0
  188.1010  176.4540  143.0950 C   0  0  0  0  0  2  0  0  0  0  0  0
  187.4110  176.8640  144.3930 C   0  0  0  0  0  2  0  0  0  0  0  0
  186.3520  177.9250  144.1470 C   0  0  0  0  0  1  0  0  0  0  0  0
  186.7850  175.4370  137.3170 C   0  0  0  0  0  2  0  0  0  0  0  0
  187.4640  174.0900  137.0750 C   0  0  1  0  0  3  0  0  0  0  0  0
  186.6900  173.3280  136.1070 N   0  0  0  0  0  2  0  0  0  0  0  0
  185.1440  171.6500  135.6530 O   0  0  0  0  0  0  0  0  0  0  0  0
  185.1480  172.4450  137.8310 N   0  0  0  0  0  1  0  0  0  0  0  0
  185.6380  172.4410  136.4960 C   0  0  0  0  0  0  0  0  0  0  0  0
  189.1310  174.3320  136.4290 S   0  0  0  0  0  3  0  0  0  0  0  0
  189.9590  174.5880  137.6790 O   0  0  0  0  0  0  0  0  0  0  0  0
  188.2630  178.0490  136.8920 C   0  0  0  0  0  2  0  0  0  0  0  0
  189.0620  179.2970  136.7190 C   0  0  0  0  0  3  0  0  0  0  0  0
  189.0680  180.1580  137.5880 O   0  0  0  0  0  0  0  0  0  0  0  0
  1  5  1  0  0  0  0
  2  6  1  0  0  0  0
  3 15  1  0  0  0  0
  4  6  1  0  0  0  0
  4  1  1  0  0  0  0
  4 12  1  0  0  0  0
  5  8  1  0  0  0  0
  5  3  1  0  0  0  0
  6 13  1  0  0  0  0
  6 27  1  0  0  0  0
  7  3  1  0  0  0  0
  8 19  1  0  0  0  0
  9 10  1  0  0  0  0
 10  7  1  0  0  0  0
 11  1  1  0  0  0  0
 11 10  1  0  0  0  0
 12  8  1  0  0  0  0
 13 11  1  0  0  0  0
 15 14  1  0  0  0  0
 16 15  1  0  0  0  0
 18 17  1  0  0  0  0
 18 20  1  0  0  0  0
 19 18  1  0  0  0  0
 19 17  1  0  0  0  0
 20 22  1  0  0  0  0
 21 20  1  0  0  0  0
 22 23  1  0  0  0  0
 22 24  1  0  0  0  0
 24 25  1  0  0  0  0
 26 25  1  0  0  0  0
 28 27  1  0  0  0  0
 29 32  1  0  0  0  0
 29 28  1  0  0  0  0
 30 32  2  0  0  0  0
 32 31  1  0  0  0  0
 33 28  1  0  0  0  0
 33 34  2  0  0  0  0
 35 12  1  0  0  0  0
 36 35  1  0  0  0  0
 36 37  2  0  0  0  0
M  END
>  <MODEL>
6

>  <REMARK>
 VINA RESULT:      -3.1      1.536      2.282
  Name = 
  12 active torsions:
  status: ('A' for Active; 'I' for Inactive)
    1  A    between atoms: C_1  and  C_5
    2  A    between atoms: C_1  and  C_23
    3  A    between atoms: S_2  and  C_6
    4  A    between atoms: C_5  and  C_26
    5  A    between atoms: C_6  and  N_8
    6  A    between atoms: C_6  and  C_31
    7  A    between atoms: C_9  and  C_30
    8  A    between atoms: C_11  and  C_26
    9  A    between atoms: C_14  and  C_31
   10  A    between atoms: N_20  and  C_25
   11  A    between atoms: C_27  and  C_33
   12  A    between atoms: C_29  and  C_33
                            x       y       z     vdW  Elec       q    Type
                         _______ _______ _______ _____ _____    ______ ____

>  <TORSDO>
F 12

$$$$
=
 OpenBabel11052415343D

 37 40  0  0  1  0  0  0  0  0999 V2000
  189.6330  176.4550  135.2910 C   0  0  2  0  0  3  0  0  0  0  0  0
  188.5900  179.3840  137.2100 C   0  0  0  0  0  1  0  0  0  0  0  0
  189.4140  173.8790  135.9100 C   0  0  2  0  0  3  0  0  0  0  0  0
  188.5820  177.4800  135.6180 C   0  0  2  0  0  3  0  0  0  0  0  0
  188.8650  175.1200  135.1680 C   0  0  1  0  0  3  0  0  0  0  0  0
  188.7520  177.8760  137.1040 C   0  0  1  0  0  0  0  0  0  0  0  0
  190.1070  174.2690  137.2130 C   0  0  0  0  0  2  0  0  0  0  0  0
  187.4040  175.3520  135.2450 N   0  0  2  0  0  0  0  0  0  0  0  0
  192.0260  175.4230  138.0450 O   0  0  0  0  0  1  0  0  0  0  0  0
  191.2390  175.2350  136.9110 C   0  0  2  0  0  3  0  0  0  0  0  0
  190.7050  176.5700  136.3780 C   0  0  2  0  0  3  0  0  0  0  0  0
  187.2730  176.8200  135.1730 C   0  0  1  0  0  3  0  0  0  0  0  0
  190.1810  177.5060  137.4580 C   0  0  0  0  0  2  0  0  0  0  0  0
  191.5920  172.6350  135.7480 C   0  0  0  0  0  1  0  0  0  0  0  0
  190.3110  173.0150  135.0130 C   0  0  0  0  0  3  0  0  0  0  0  0
  189.6070  171.7310  134.6040 C   0  0  0  0  0  1  0  0  0  0  0  0
  186.9410  173.4110  136.5040 O   0  0  0  0  0  0  0  0  0  0  0  0
  185.6780  173.9180  136.1560 C   0  0  2  0  0  3  0  0  0  0  0  0
  186.8170  174.8200  136.4820 C   0  0  2  0  0  3  0  0  0  0  0  0
  184.6750  173.7640  137.3180 C   0  0  1  0  0  3  0  0  0  0  0  0
  184.0270  175.1150  137.6190 C   0  0  0  0  0  1  0  0  0  0  0  0
  183.6500  172.6150  137.2310 C   0  0  2  0  0  3  0  0  0  0  0  0
  184.1900  171.4190  136.4570 C   0  0  0  0  0  1  0  0  0  0  0  0
  182.3640  173.1120  136.5840 C   0  0  0  0  0  2  0  0  0  0  0  0
  181.1220  172.5200  137.2450 C   0  0  0  0  0  2  0  0  0  0  0  0
  179.9830  173.5250  137.2830 C   0  0  0  0  0  1  0  0  0  0  0  0
  187.7860  177.1610  138.0690 C   0  0  0  0  0  2  0  0  0  0  0  0
  186.9800  178.1060  138.9590 C   0  0  1  0  0  3  0  0  0  0  0  0
  185.5940  177.6660  138.9970 N   0  0  0  0  0  2  0  0  0  0  0  0
  183.3520  178.1390  139.4010 O   0  0  0  0  0  0  0  0  0  0  0  0
  184.7180  179.9810  139.0570 N   0  0  0  0  0  1  0  0  0  0  0  0
  184.5060  178.5780  139.1610 C   0  0  0  0  0  0  0  0  0  0  0  0
  187.6400  178.1060  140.6380 S   0  0  0  0  0  3  0  0  0  0  0  0
  189.1410  177.9810  140.4260 O   0  0  0  0  0  0  0  0  0  0  0  0
  185.9590  177.4300  135.6650 C   0  0  0  0  0  2  0  0  0  0  0  0
  184.9220  177.3720  134.5940 C   0  0  0  0  0  3  0  0  0  0  0  0
  183.7520  177.1420  134.8700 O   0  0  0  0  0  0  0  0  0  0  0  0
  1  4  1  0  0  0  0
  1 11  1  0  0  0  0
  3  7  1  0  0  0  0
  4  6  1  0  0  0  0
  5  8  1  0  0  0  0
  5  1  1  0  0  0  0
  5  3  1  0  0  0  0
  6  2  1  0  0  0  0
  6 13  1  0  0  0  0
  6 27  1  0  0  0  0
  8 19  1  0  0  0  0
 10  7  1  0  0  0  0
 10  9  1  0  0  0  0
 11 10  1  0  0  0  0
 11 13  1  0  0  0  0
 12  8  1  0  0  0  0
 12  4  1  0  0  0  0
 12 35  1  0  0  0  0
 15 14  1  0  0  0  0
 15  3  1  0  0  0  0
 16 15  1  0  0  0  0
 18 19  1  0  0  0  0
 18 17  1  0  0  0  0
 18 20  1  0  0  0  0
 19 17  1  0  0  0  0
 20 21  1  0  0  0  0
 22 20  1  0  0  0  0
 23 22  1  0  0  0  0
 24 22  1  0  0  0  0
 24 25  1  0  0  0  0
 25 26  1  0  0  0  0
 27 28  1  0  0  0  0
 28 29  1  0  0  0  0
 28 33  1  0  0  0  0
 29 32  1  0  0  0  0
 31 32  1  0  0  0  0
 32 30  2  0  0  0  0
 34 33  2  0  0  0  0
 36 37  2  0  0  0  0
 36 35  1  0  0  0  0
M  END
>  <MODEL>
7

>  <REMARK>
 VINA RESULT:      -3.0      2.737      7.284
  Name = 
  12 active torsions:
  status: ('A' for Active; 'I' for Inactive)
    1  A    between atoms: C_1  and  C_5
    2  A    between atoms: C_1  and  C_23
    3  A    between atoms: S_2  and  C_6
    4  A    between atoms: C_5  and  C_26
    5  A    between atoms: C_6  and  N_8
    6  A    between atoms: C_6  and  C_31
    7  A    between atoms: C_9  and  C_30
    8  A    between atoms: C_11  and  C_26
    9  A    between atoms: C_14  and  C_31
   10  A    between atoms: N_20  and  C_25
   11  A    between atoms: C_27  and  C_33
   12  A    between atoms: C_29  and  C_33
                            x       y       z     vdW  Elec       q    Type
                         _______ _______ _______ _____ _____    ______ ____

>  <TORSDO>
F 12

$$$$
=
 OpenBabel11052415343D

 37 40  0  0  1  0  0  0  0  0999 V2000
  187.5270  175.1920  135.5270 C   0  0  2  0  0  3  0  0  0  0  0  0
  190.2700  177.0050  137.1200 C   0  0  0  0  0  1  0  0  0  0  0  0
  185.3420  174.1520  136.6270 C   0  0  2  0  0  3  0  0  0  0  0  0
  188.1340  176.4980  135.9620 C   0  0  2  0  0  3  0  0  0  0  0  0
  186.0260  175.3160  135.8720 C   0  0  1  0  0  3  0  0  0  0  0  0
  188.9670  176.2320  137.2390 C   0  0  1  0  0  0  0  0  0  0  0  0
  186.3120  173.4580  137.5800 C   0  0  0  0  0  2  0  0  0  0  0  0
  185.7090  176.6880  136.3320 N   0  0  2  0  0  0  0  0  0  0  0  0
  188.2810  172.1050  137.5950 O   0  0  0  0  0  1  0  0  0  0  0  0
  187.5020  172.9370  136.7940 C   0  0  2  0  0  3  0  0  0  0  0  0
  188.3340  174.0880  136.2140 C   0  0  2  0  0  3  0  0  0  0  0  0
  186.9380  177.4520  136.0440 C   0  0  1  0  0  3  0  0  0  0  0  0
  189.2720  174.7440  137.2170 C   0  0  0  0  0  2  0  0  0  0  0  0
  184.1150  171.9660  136.4470 C   0  0  0  0  0  1  0  0  0  0  0  0
  184.6580  173.1620  135.6730 C   0  0  0  0  0  3  0  0  0  0  0  0
  183.4970  173.8160  134.9420 C   0  0  0  0  0  1  0  0  0  0  0  0
  184.1250  176.0980  137.9780 O   0  0  0  0  0  0  0  0  0  0  0  0
  184.1090  177.5020  137.9560 C   0  0  2  0  0  3  0  0  0  0  0  0
  185.3700  176.7360  137.7600 C   0  0  2  0  0  3  0  0  0  0  0  0
  183.9670  178.0810  139.3800 C   0  0  1  0  0  3  0  0  0  0  0  0
  184.1680  179.5960  139.3400 C   0  0  0  0  0  1  0  0  0  0  0  0
  182.7300  177.6630  140.2020 C   0  0  2  0  0  3  0  0  0  0  0  0
  181.5040  177.4390  139.3250 C   0  0  0  0  0  1  0  0  0  0  0  0
  182.4260  178.7170  141.2580 C   0  0  0  0  0  2  0  0  0  0  0  0
  183.3140  178.5680  142.4910 C   0  0  0  0  0  2  0  0  0  0  0  0
  182.5770  178.9730  143.7560 C   0  0  0  0  0  1  0  0  0  0  0  0
  188.2480  176.5870  138.5550 C   0  0  0  0  0  2  0  0  0  0  0  0
  189.0060  177.5810  139.4320 C   0  0  1  0  0  3  0  0  0  0  0  0
  188.0630  178.5190  140.0210 N   0  0  0  0  0  2  0  0  0  0  0  0
  186.5750  179.0600  141.7250 O   0  0  0  0  0  0  0  0  0  0  0  0
  188.0980  177.3850  142.2210 N   0  0  0  0  0  1  0  0  0  0  0  0
  187.5390  178.3510  141.3400 C   0  0  0  0  0  0  0  0  0  0  0  0
  189.8760  176.7170  140.7560 S   0  0  0  0  0  3  0  0  0  0  0  0
  191.2120  177.4400  140.8290 O   0  0  0  0  0  0  0  0  0  0  0  0
  187.1280  178.7780  136.7850 C   0  0  0  0  0  2  0  0  0  0  0  0
  188.4320  179.4010  136.4140 C   0  0  0  0  0  3  0  0  0  0  0  0
  189.0380  180.1000  137.2150 O   0  0  0  0  0  0  0  0  0  0  0  0
  1  5  1  0  0  0  0
  1  4  1  0  0  0  0
  1 11  1  0  0  0  0
  2  6  1  0  0  0  0
  3  7  1  0  0  0  0
  4 12  1  0  0  0  0
  4  6  1  0  0  0  0
  5  8  1  0  0  0  0
  5  3  1  0  0  0  0
  6 27  1  0  0  0  0
  8 19  1  0  0  0  0
 10  7  1  0  0  0  0
 10  9  1  0  0  0  0
 11 10  1  0  0  0  0
 11 13  1  0  0  0  0
 12  8  1  0  0  0  0
 12 35  1  0  0  0  0
 13  6  1  0  0  0  0
 15 14  1  0  0  0  0
 15  3  1  0  0  0  0
 16 15  1  0  0  0  0
 18 17  1  0  0  0  0
 18 20  1  0  0  0  0
 19 18  1  0  0  0  0
 19 17  1  0  0  0  0
 20 22  1  0  0  0  0
 21 20  1  0  0  0  0
 22 24  1  0  0  0  0
 23 22  1  0  0  0  0
 24 25  1  0  0  0  0
 25 26  1  0  0  0  0
 27 28  1  0  0  0  0
 28 29  1  0  0  0  0
 28 33  1  0  0  0  0
 29 32  1  0  0  0  0
 32 30  2  0  0  0  0
 32 31  1  0  0  0  0
 33 34  2  0  0  0  0
 36 35  1  0  0  0  0
 36 37  2  0  0  0  0
M  END
>  <MODEL>
8

>  <REMARK>
 VINA RESULT:      -3.0      2.439      5.382
  Name = 
  12 active torsions:
  status: ('A' for Active; 'I' for Inactive)
    1  A    between atoms: C_1  and  C_5
    2  A    between atoms: C_1  and  C_23
    3  A    between atoms: S_2  and  C_6
    4  A    between atoms: C_5  and  C_26
    5  A    between atoms: C_6  and  N_8
    6  A    between atoms: C_6  and  C_31
    7  A    between atoms: C_9  and  C_30
    8  A    between atoms: C_11  and  C_26
    9  A    between atoms: C_14  and  C_31
   10  A    between atoms: N_20  and  C_25
   11  A    between atoms: C_27  and  C_33
   12  A    between atoms: C_29  and  C_33
                            x       y       z     vdW  Elec       q    Type
                         _______ _______ _______ _____ _____    ______ ____

>  <TORSDO>
F 12

$$$$
=
 OpenBabel11052415343D

 37 40  0  0  1  0  0  0  0  0999 V2000
  183.7040  178.5930  138.3670 C   0  0  2  0  0  3  0  0  0  0  0  0
  184.6670  176.4170  135.5930 C   0  0  0  0  0  1  0  0  0  0  0  0
  184.0890  178.2550  140.9750 C   0  0  2  0  0  3  0  0  0  0  0  0
  184.7110  178.1990  137.3200 C   0  0  2  0  0  3  0  0  0  0  0  0
  184.5380  178.8830  139.6340 C   0  0  1  0  0  3  0  0  0  0  0  0
  184.5830  176.6750  137.0890 C   0  0  1  0  0  0  0  0  0  0  0  0
  183.4320  176.8930  140.7620 C   0  0  0  0  0  2  0  0  0  0  0  0
  185.9870  178.8360  139.3260 N   0  0  2  0  0  0  0  0  0  0  0  0
  181.4910  175.8750  139.8130 O   0  0  0  0  0  1  0  0  0  0  0  0
  182.2380  177.0510  139.8380 C   0  0  2  0  0  3  0  0  0  0  0  0
  182.6750  177.4610  138.4250 C   0  0  2  0  0  3  0  0  0  0  0  0
  186.0340  178.7590  137.8530 C   0  0  1  0  0  3  0  0  0  0  0  0
  183.1930  176.3090  137.5760 C   0  0  0  0  0  2  0  0  0  0  0  0
  181.7670  178.6930  141.8300 C   0  0  0  0  0  1  0  0  0  0  0  0
  183.2030  179.2040  141.7940 C   0  0  0  0  0  3  0  0  0  0  0  0
  183.6970  179.3170  143.2270 C   0  0  0  0  0  1  0  0  0  0  0  0
  186.9230  177.9620  141.3070 O   0  0  0  0  0  0  0  0  0  0  0  0
  188.0080  178.0770  140.4220 C   0  0  2  0  0  3  0  0  0  0  0  0
  186.6540  177.6830  139.9460 C   0  0  2  0  0  3  0  0  0  0  0  0
  188.9730  176.8820  140.5620 C   0  0  1  0  0  3  0  0  0  0  0  0
  189.9410  176.8620  139.3790 C   0  0  0  0  0  1  0  0  0  0  0  0
  189.6820  176.6890  141.9180 C   0  0  2  0  0  3  0  0  0  0  0  0
  188.7020  176.3790  143.0420 C   0  0  0  0  0  1  0  0  0  0  0  0
  190.4910  177.9320  142.2640 C   0  0  0  0  0  2  0  0  0  0  0  0
  190.1950  178.4370  143.6740 C   0  0  0  0  0  2  0  0  0  0  0  0
  191.2940  179.3600  144.1740 C   0  0  0  0  0  1  0  0  0  0  0  0
  185.6270  175.8260  137.8410 C   0  0  0  0  0  2  0  0  0  0  0  0
  186.1940  174.6670  137.0240 C   0  0  1  0  0  3  0  0  0  0  0  0
  187.6390  174.6220  137.1890 N   0  0  0  0  0  2  0  0  0  0  0  0
  189.7320  174.0210  136.3700 O   0  0  0  0  0  0  0  0  0  0  0  0
  188.0360  174.1370  134.7940 N   0  0  0  0  0  1  0  0  0  0  0  0
  188.5200  174.2510  136.1270 C   0  0  0  0  0  0  0  0  0  0  0  0
  185.4930  173.1000  137.5820 S   0  0  0  0  0  3  0  0  0  0  0  0
  184.2770  172.9200  136.6870 O   0  0  0  0  0  0  0  0  0  0  0  0
  187.3330  178.2540  137.2210 C   0  0  0  0  0  2  0  0  0  0  0  0
  188.3340  179.3560  137.1350 C   0  0  0  0  0  3  0  0  0  0  0  0
  189.4940  179.1210  136.8220 O   0  0  0  0  0  0  0  0  0  0  0  0
  1 11  1  0  0  0  0
  1  5  1  0  0  0  0
  2  6  1  0  0  0  0
  3 15  1  0  0  0  0
  4 12  1  0  0  0  0
  4  1  1  0  0  0  0
  5  3  1  0  0  0  0
  6  4  1  0  0  0  0
  6 13  1  0  0  0  0
  6 27  1  0  0  0  0
  7  3  1  0  0  0  0
  8  5  1  0  0  0  0
  8 19  1  0  0  0  0
  9 10  1  0  0  0  0
 10  7  1  0  0  0  0
 11 10  1  0  0  0  0
 12  8  1  0  0  0  0
 13 11  1  0  0  0  0
 15 14  1  0  0  0  0
 15 16  1  0  0  0  0
 18 20  1  0  0  0  0
 18 17  1  0  0  0  0
 19 18  1  0  0  0  0
 19 17  1  0  0  0  0
 20 22  1  0  0  0  0
 21 20  1  0  0  0  0
 22 24  1  0  0  0  0
 22 23  1  0  0  0  0
 24 25  1  0  0  0  0
 25 26  1  0  0  0  0
 28 29  1  0  0  0  0
 28 33  1  0  0  0  0
 28 27  1  0  0  0  0
 31 32  1  0  0  0  0
 32 30  2  0  0  0  0
 32 29  1  0  0  0  0
 34 33  2  0  0  0  0
 35 12  1  0  0  0  0
 36 35  1  0  0  0  0
 37 36  2  0  0  0  0
M  END
>  <MODEL>
9

>  <REMARK>
 VINA RESULT:      -2.4      1.682      2.346
  Name = 
  12 active torsions:
  status: ('A' for Active; 'I' for Inactive)
    1  A    between atoms: C_1  and  C_5
    2  A    between atoms: C_1  and  C_23
    3  A    between atoms: S_2  and  C_6
    4  A    between atoms: C_5  and  C_26
    5  A    between atoms: C_6  and  N_8
    6  A    between atoms: C_6  and  C_31
    7  A    between atoms: C_9  and  C_30
    8  A    between atoms: C_11  and  C_26
    9  A    between atoms: C_14  and  C_31
   10  A    between atoms: N_20  and  C_25
   11  A    between atoms: C_27  and  C_33
   12  A    between atoms: C_29  and  C_33
                            x       y       z     vdW  Elec       q    Type
                         _______ _______ _______ _____ _____    ______ ____

>  <TORSDO>
F 12

$$$$
