=
 OpenBabel11052416133D

 43 48  0  0  1  0  0  0  0  0999 V2000
  181.2100  170.5280  135.9710 C   0  0  0  0  0  2  0  0  0  0  0  0
  181.2070  175.5710  137.2750 C   0  0  0  0  0  0  0  0  0  0  0  0
  183.4640  176.9520  136.1530 C   0  0  1  0  0  3  0  0  0  0  0  0
  180.9450  172.7710  137.0620 C   0  0  0  0  0  0  0  0  0  0  0  0
  183.5430  171.5590  136.1410 C   0  0  0  0  0  2  0  0  0  0  0  0
  182.7130  170.2770  136.0810 C   0  0  0  0  0  2  0  0  0  0  0  0
  181.9350  173.4480  136.2990 C   0  0  0  0  0  0  0  0  0  0  0  0
  180.7400  171.3820  137.0100 O   0  0  0  0  0  0  0  0  0  0  0  0
  182.8770  172.7050  135.3910 C   0  0  0  0  0  2  0  0  0  0  0  0
  183.0770  175.5910  135.5690 C   0  0  0  0  0  2  0  0  0  0  0  0
  182.0610  174.8500  136.4100 C   0  0  0  0  0  0  0  0  0  0  0  0
  180.2580  174.8830  138.0370 C   0  0  0  0  0  3  0  0  0  0  0  0
  181.3490  176.9980  137.4060 N   0  0  0  0  0  0  0  0  0  0  0  0
  182.1890  177.7350  136.4630 C   0  0  0  0  0  2  0  0  0  0  0  0
  180.1310  173.5010  137.9300 C   0  0  0  0  0  3  0  0  0  0  0  0
  184.3920  176.8080  137.3740 C   0  0  1  0  0  3  0  0  0  0  0  0
  185.0540  175.4390  137.3940 C   0  0  0  0  0  1  0  0  0  0  0  0
  185.4560  177.9060  137.4700 C   0  0  0  0  0  2  0  0  0  0  0  0
  186.5280  177.7740  136.3980 C   0  0  0  0  0  2  0  0  0  0  0  0
  187.8900  177.8200  137.0580 C   0  0  0  0  0  2  0  0  0  0  0  0
  187.7470  177.5650  138.5420 C   0  0  0  0  0  2  0  0  0  0  0  0
  188.8100  178.3520  139.3030 C   0  0  1  0  0  3  0  0  0  0  0  0
  190.0370  176.6510  141.2300 C   0  0  0  0  0  2  0  0  0  0  0  0
  188.4520  178.5340  140.7890 C   0  0  2  0  0  3  0  0  0  0  0  0
  190.1610  177.6370  139.1990 C   0  0  0  0  0  2  0  0  0  0  0  0
  188.6680  177.2370  141.5810 C   0  0  2  0  0  3  0  0  0  0  0  0
  187.1400  178.9950  140.9410 O   0  0  0  0  0  1  0  0  0  0  0  0
  190.1110  176.3890  139.8500 O   0  0  0  0  0  0  0  0  0  0  0  0
  188.5610  177.4710  143.0590 C   0  0  0  0  0  0  0  0  0  0  0  0
  187.1690  177.3980  145.1360 C   0  0  0  0  0  2  0  0  0  0  0  0
  189.4940  178.2280  145.2980 C   0  0  0  0  0  2  0  0  0  0  0  0
  188.4760  177.2810  145.9120 C   0  0  0  0  0  2  0  0  0  0  0  0
  189.8040  177.7980  143.8630 C   0  0  0  0  0  2  0  0  0  0  0  0
  187.3870  177.2100  143.6580 C   0  0  0  0  0  3  0  0  0  0  0  0
  180.7950  177.7000  138.5660 C   0  0  0  0  0  2  0  0  0  0  0  0
  183.8150  177.5100  141.0170 C   0  0  0  0  0  2  0  0  0  0  0  0
  183.4360  178.7390  141.8630 C   0  0  1  0  0  3  0  0  0  0  0  0
  181.2890  179.1110  140.6090 C   0  0  0  0  0  2  0  0  0  0  0  0
  182.6740  177.0070  140.1250 C   0  0  0  0  0  2  0  0  0  0  0  0
  181.8760  178.1750  139.5380 C   0  0  1  0  0  3  0  0  0  0  0  0
  181.9250  178.9340  141.9890 C   0  0  0  0  0  2  0  0  0  0  0  0
  184.1180  178.7150  143.2280 C   0  0  0  0  0  2  0  0  0  0  0  0
  183.1250  178.8210  144.3760 C   0  0  0  0  0  1  0  0  0  0  0  0
  1  6  1  0  0  0  0
  1  8  1  0  0  0  0
  2 13  1  0  0  0  0
  2 12  1  0  0  0  0
  3 14  1  0  0  0  0
  3 16  1  1  0  0  0
  4 15  1  0  0  0  0
  6  5  1  0  0  0  0
  7 11  1  0  0  0  0
  7  4  2  0  0  0  0
  8  4  1  0  0  0  0
  9  5  1  0  0  0  0
  9  7  1  0  0  0  0
 10  3  1  0  0  0  0
 10 11  1  0  0  0  0
 11  2  2  0  0  0  0
 13 35  1  0  0  0  0
 14 13  1  0  0  0  0
 15 12  2  0  0  0  0
 16 17  1  6  0  0  0
 16 18  1  0  0  0  0
 19 20  1  0  0  0  0
 19 18  1  0  0  0  0
 20 21  1  0  0  0  0
 22 21  1  6  0  0  0
 22 24  1  0  0  0  0
 23 26  1  0  0  0  0
 24 27  1  6  0  0  0
 24 26  1  0  0  0  0
 25 22  1  0  0  0  0
 25 28  1  0  0  0  0
 26 29  1  1  0  0  0
 28 23  1  0  0  0  0
 29 34  2  0  0  0  0
 29 33  1  0  0  0  0
 30 32  1  0  0  0  0
 31 32  1  0  0  0  0
 33 31  1  0  0  0  0
 34 30  1  0  0  0  0
 36 37  1  0  0  0  0
 37 41  1  0  0  0  0
 37 42  1  1  0  0  0
 38 41  1  0  0  0  0
 39 36  1  0  0  0  0
 40 35  1  1  0  0  0
 40 39  1  0  0  0  0
 40 38  1  0  0  0  0
 42 43  1  0  0  0  0
M  END
>  <MODEL>
1

>  <REMARK>
 VINA RESULT:      -7.9      0.000      0.000
  Name = 
  10 active torsions:
  status: ('A' for Active; 'I' for Inactive)
    1  A    between atoms: C_1  and  N_34
    2  A    between atoms: C_1  and  C_35
    3  A    between atoms: C_2  and  C_6
    4  A    between atoms: C_2  and  C_13
    5  A    between atoms: C_3  and  C_4
    6  A    between atoms: C_3  and  C_12
    7  A    between atoms: C_6  and  C_17
    8  A    between atoms: C_11  and  C_22
    9  A    between atoms: C_12  and  C_17
   10  A    between atoms: C_19  and  C_25
                            x       y       z     vdW  Elec       q    Type
                         _______ _______ _______ _____ _____    ______ ____

>  <TORSDO>
F 10

$$$$
=
 OpenBabel11052416133D

 43 48  0  0  1  0  0  0  0  0999 V2000
  181.8040  170.3720  135.1550 C   0  0  0  0  0  2  0  0  0  0  0  0
  182.9350  175.3980  135.9250 C   0  0  0  0  0  0  0  0  0  0  0  0
  185.6990  175.9550  135.3670 C   0  0  1  0  0  3  0  0  0  0  0  0
  181.9370  172.7600  135.9100 C   0  0  0  0  0  0  0  0  0  0  0  0
  184.2180  170.7950  135.8840 C   0  0  0  0  0  2  0  0  0  0  0  0
  183.0950  169.7720  135.7110 C   0  0  0  0  0  2  0  0  0  0  0  0
  183.2370  173.0270  135.4000 C   0  0  0  0  0  0  0  0  0  0  0  0
  181.3590  171.4800  135.9320 O   0  0  0  0  0  0  0  0  0  0  0  0
  184.1190  171.9280  134.8720 C   0  0  0  0  0  2  0  0  0  0  0  0
  185.0930  174.6570  134.8270 C   0  0  0  0  0  2  0  0  0  0  0  0
  183.7300  174.3500  135.4110 C   0  0  0  0  0  0  0  0  0  0  0  0
  181.6700  175.1100  136.4470 C   0  0  0  0  0  3  0  0  0  0  0  0
  183.4460  176.7440  135.9560 N   0  0  0  0  0  0  0  0  0  0  0  0
  184.6690  177.0750  135.2270 C   0  0  0  0  0  2  0  0  0  0  0  0
  181.1800  173.8080  136.4380 C   0  0  0  0  0  3  0  0  0  0  0  0
  186.2130  175.7900  136.8100 C   0  0  1  0  0  3  0  0  0  0  0  0
  186.9540  174.4730  136.9740 C   0  0  0  0  0  1  0  0  0  0  0  0
  187.0950  176.9500  137.2840 C   0  0  0  0  0  2  0  0  0  0  0  0
  188.5270  176.8360  136.7840 C   0  0  0  0  0  2  0  0  0  0  0  0
  189.4690  176.9320  137.9650 C   0  0  0  0  0  2  0  0  0  0  0  0
  188.6770  177.1770  139.2310 C   0  0  0  0  0  2  0  0  0  0  0  0
  189.5180  177.9860  140.2140 C   0  0  1  0  0  3  0  0  0  0  0  0
  190.0880  176.3840  142.4990 C   0  0  0  0  0  2  0  0  0  0  0  0
  188.7680  178.2730  141.5270 C   0  0  2  0  0  3  0  0  0  0  0  0
  190.8130  177.2320  140.5330 C   0  0  0  0  0  2  0  0  0  0  0  0
  188.7010  177.0250  142.4190 C   0  0  2  0  0  3  0  0  0  0  0  0
  187.4860  178.7740  141.2800 O   0  0  0  0  0  1  0  0  0  0  0  0
  190.5330  176.0310  141.2120 O   0  0  0  0  0  0  0  0  0  0  0  0
  188.1970  177.3570  143.7930 C   0  0  0  0  0  0  0  0  0  0  0  0
  186.2500  177.7670  145.3100 C   0  0  0  0  0  2  0  0  0  0  0  0
  188.5370  177.9570  146.2380 C   0  0  0  0  0  2  0  0  0  0  0  0
  187.1610  177.3490  146.4590 C   0  0  0  0  0  2  0  0  0  0  0  0
  189.1590  177.3850  144.9640 C   0  0  0  0  0  2  0  0  0  0  0  0
  186.8680  177.4500  143.9740 C   0  0  0  0  0  3  0  0  0  0  0  0
  182.8490  177.7490  136.8390 C   0  0  0  0  0  2  0  0  0  0  0  0
  182.7080  177.2200  140.6950 C   0  0  0  0  0  2  0  0  0  0  0  0
  183.9310  178.0900  141.0390 C   0  0  1  0  0  3  0  0  0  0  0  0
  184.2680  178.8020  138.6510 C   0  0  0  0  0  2  0  0  0  0  0  0
  182.1870  177.4370  139.2690 C   0  0  0  0  0  2  0  0  0  0  0  0
  183.3410  177.6310  138.2820 C   0  0  1  0  0  3  0  0  0  0  0  0
  184.1020  179.2800  140.0950 C   0  0  0  0  0  2  0  0  0  0  0  0
  183.9180  178.5260  142.5010 C   0  0  0  0  0  2  0  0  0  0  0  0
  182.5350  178.9560  142.9670 C   0  0  0  0  0  1  0  0  0  0  0  0
  1  6  1  0  0  0  0
  1  8  1  0  0  0  0
  2 13  1  0  0  0  0
  2 12  1  0  0  0  0
  3 16  1  1  0  0  0
  4  8  1  0  0  0  0
  4 15  1  0  0  0  0
  6  5  1  0  0  0  0
  7 11  1  0  0  0  0
  7  4  2  0  0  0  0
  9  7  1  0  0  0  0
  9  5  1  0  0  0  0
 10  3  1  0  0  0  0
 10 11  1  0  0  0  0
 11  2  2  0  0  0  0
 13 35  1  0  0  0  0
 14  3  1  0  0  0  0
 14 13  1  0  0  0  0
 15 12  2  0  0  0  0
 16 17  1  6  0  0  0
 16 18  1  0  0  0  0
 19 18  1  0  0  0  0
 19 20  1  0  0  0  0
 20 21  1  0  0  0  0
 22 21  1  6  0  0  0
 22 25  1  0  0  0  0
 22 24  1  0  0  0  0
 24 27  1  6  0  0  0
 24 26  1  0  0  0  0
 25 28  1  0  0  0  0
 26 23  1  0  0  0  0
 26 29  1  1  0  0  0
 28 23  1  0  0  0  0
 29 34  2  0  0  0  0
 29 33  1  0  0  0  0
 30 32  1  0  0  0  0
 31 32  1  0  0  0  0
 33 31  1  0  0  0  0
 34 30  1  0  0  0  0
 36 37  1  0  0  0  0
 37 42  1  1  0  0  0
 38 41  1  0  0  0  0
 39 36  1  0  0  0  0
 40 35  1  6  0  0  0
 40 38  1  0  0  0  0
 40 39  1  0  0  0  0
 41 37  1  0  0  0  0
 42 43  1  0  0  0  0
M  END
>  <MODEL>
2

>  <REMARK>
 VINA RESULT:      -7.9      1.281      1.775
  Name = 
  10 active torsions:
  status: ('A' for Active; 'I' for Inactive)
    1  A    between atoms: C_1  and  N_34
    2  A    between atoms: C_1  and  C_35
    3  A    between atoms: C_2  and  C_6
    4  A    between atoms: C_2  and  C_13
    5  A    between atoms: C_3  and  C_4
    6  A    between atoms: C_3  and  C_12
    7  A    between atoms: C_6  and  C_17
    8  A    between atoms: C_11  and  C_22
    9  A    between atoms: C_12  and  C_17
   10  A    between atoms: C_19  and  C_25
                            x       y       z     vdW  Elec       q    Type
                         _______ _______ _______ _____ _____    ______ ____

>  <TORSDO>
F 10

$$$$
=
 OpenBabel11052416133D

 43 48  0  0  1  0  0  0  0  0999 V2000
  187.4940  177.8180  148.9130 C   0  0  0  0  0  2  0  0  0  0  0  0
  186.5300  178.2360  143.8110 C   0  0  0  0  0  0  0  0  0  0  0  0
  188.5790  176.9700  142.2420 C   0  0  1  0  0  3  0  0  0  0  0  0
  186.7740  178.4980  146.6080 C   0  0  0  0  0  0  0  0  0  0  0  0
  189.5970  177.8870  147.4590 C   0  0  0  0  0  2  0  0  0  0  0  0
  189.0080  178.0210  148.8640 C   0  0  0  0  0  2  0  0  0  0  0  0
  187.6770  177.6640  145.8950 C   0  0  0  0  0  0  0  0  0  0  0  0
  186.8170  178.6790  148.0010 O   0  0  0  0  0  0  0  0  0  0  0  0
  188.7910  176.9300  146.5920 C   0  0  0  0  0  2  0  0  0  0  0  0
  188.4730  176.6160  143.7280 C   0  0  0  0  0  2  0  0  0  0  0  0
  187.5500  177.5370  144.4950 C   0  0  0  0  0  0  0  0  0  0  0  0
  185.6680  179.0730  144.5270 C   0  0  0  0  0  3  0  0  0  0  0  0
  186.4120  178.1240  142.3800 N   0  0  0  0  0  0  0  0  0  0  0  0
  187.1700  177.0980  141.6660 C   0  0  0  0  0  2  0  0  0  0  0  0
  185.7910  179.2000  145.9080 C   0  0  0  0  0  3  0  0  0  0  0  0
  189.4380  178.2280  142.0140 C   0  0  1  0  0  3  0  0  0  0  0  0
  190.5500  178.3220  143.0470 C   0  0  0  0  0  1  0  0  0  0  0  0
  190.0250  178.3240  140.6020 C   0  0  0  0  0  2  0  0  0  0  0  0
  191.0460  177.2310  140.3220 C   0  0  0  0  0  2  0  0  0  0  0  0
  190.9100  176.7910  138.8790 C   0  0  0  0  0  2  0  0  0  0  0  0
  189.4670  176.4410  138.5860 C   0  0  0  0  0  2  0  0  0  0  0  0
  189.1350  176.8000  137.1410 C   0  0  1  0  0  3  0  0  0  0  0  0
  186.8030  178.4350  137.0920 C   0  0  0  0  0  2  0  0  0  0  0  0
  187.8040  176.1810  136.6750 C   0  0  2  0  0  3  0  0  0  0  0  0
  189.0590  178.3220  136.9880 C   0  0  0  0  0  2  0  0  0  0  0  0
  186.6010  176.9270  137.2670 C   0  0  2  0  0  3  0  0  0  0  0  0
  187.7440  174.8190  136.9850 O   0  0  0  0  0  1  0  0  0  0  0  0
  187.9850  178.8420  137.7360 O   0  0  0  0  0  0  0  0  0  0  0  0
  185.3150  176.4930  136.6280 C   0  0  0  0  0  0  0  0  0  0  0  0
  183.2020  175.1630  136.7760 C   0  0  0  0  0  2  0  0  0  0  0  0
  183.6570  176.4380  134.7040 C   0  0  0  0  0  2  0  0  0  0  0  0
  182.6110  176.1410  135.7660 C   0  0  0  0  0  2  0  0  0  0  0  0
  184.8560  177.1450  135.3380 C   0  0  0  0  0  2  0  0  0  0  0  0
  184.5190  175.6560  137.3140 C   0  0  0  0  0  3  0  0  0  0  0  0
  185.6710  179.1270  141.6120 C   0  0  0  0  0  2  0  0  0  0  0  0
  183.2650  178.7680  138.5700 C   0  0  0  0  0  2  0  0  0  0  0  0
  182.2310  177.8650  139.2670 C   0  0  1  0  0  3  0  0  0  0  0  0
  183.4210  177.9750  141.4790 C   0  0  0  0  0  2  0  0  0  0  0  0
  184.2350  179.4480  139.5430 C   0  0  0  0  0  2  0  0  0  0  0  0
  184.6270  178.5040  140.6840 C   0  0  1  0  0  3  0  0  0  0  0  0
  182.0850  178.1650  140.7580 C   0  0  0  0  0  2  0  0  0  0  0  0
  180.8850  177.8950  138.5500 C   0  0  0  0  0  2  0  0  0  0  0  0
  180.0360  176.6690  138.8560 C   0  0  0  0  0  1  0  0  0  0  0  0
  2 11  2  0  0  0  0
  2 12  1  0  0  0  0
  3 16  1  1  0  0  0
  3 10  1  0  0  0  0
  4  8  1  0  0  0  0
  5  6  1  0  0  0  0
  6  1  1  0  0  0  0
  7  9  1  0  0  0  0
  7  4  2  0  0  0  0
  8  1  1  0  0  0  0
  9  5  1  0  0  0  0
 10 11  1  0  0  0  0
 11  7  1  0  0  0  0
 12 15  2  0  0  0  0
 13  2  1  0  0  0  0
 14  3  1  0  0  0  0
 14 13  1  0  0  0  0
 15  4  1  0  0  0  0
 16 17  1  1  0  0  0
 18 16  1  0  0  0  0
 19 18  1  0  0  0  0
 20 19  1  0  0  0  0
 21 20  1  0  0  0  0
 22 21  1  1  0  0  0
 23 26  1  0  0  0  0
 23 28  1  0  0  0  0
 24 27  1  1  0  0  0
 24 22  1  0  0  0  0
 24 26  1  0  0  0  0
 25 22  1  0  0  0  0
 25 28  1  0  0  0  0
 26 29  1  6  0  0  0
 29 34  2  0  0  0  0
 30 34  1  0  0  0  0
 31 33  1  0  0  0  0
 31 32  1  0  0  0  0
 32 30  1  0  0  0  0
 33 29  1  0  0  0  0
 35 13  1  0  0  0  0
 36 37  1  0  0  0  0
 36 39  1  0  0  0  0
 37 42  1  6  0  0  0
 37 41  1  0  0  0  0
 39 40  1  0  0  0  0
 40 38  1  0  0  0  0
 40 35  1  1  0  0  0
 41 38  1  0  0  0  0
 42 43  1  0  0  0  0
M  END
>  <MODEL>
3

>  <REMARK>
 VINA RESULT:      -7.8      2.633      8.571
  Name = 
  10 active torsions:
  status: ('A' for Active; 'I' for Inactive)
    1  A    between atoms: C_1  and  N_34
    2  A    between atoms: C_1  and  C_35
    3  A    between atoms: C_2  and  C_6
    4  A    between atoms: C_2  and  C_13
    5  A    between atoms: C_3  and  C_4
    6  A    between atoms: C_3  and  C_12
    7  A    between atoms: C_6  and  C_17
    8  A    between atoms: C_11  and  C_22
    9  A    between atoms: C_12  and  C_17
   10  A    between atoms: C_19  and  C_25
                            x       y       z     vdW  Elec       q    Type
                         _______ _______ _______ _____ _____    ______ ____

>  <TORSDO>
F 10

$$$$
=
 OpenBabel11052416133D

 43 48  0  0  1  0  0  0  0  0999 V2000
  195.0340  174.8460  136.5660 C   0  0  0  0  0  2  0  0  0  0  0  0
  190.6660  176.6640  138.7470 C   0  0  0  0  0  0  0  0  0  0  0  0
  188.3820  176.2250  137.0580 C   0  0  1  0  0  3  0  0  0  0  0  0
  193.2810  176.0920  137.8570 C   0  0  0  0  0  0  0  0  0  0  0  0
  193.2820  175.6380  134.8810 C   0  0  0  0  0  2  0  0  0  0  0  0
  194.7420  175.2560  135.1240 C   0  0  0  0  0  2  0  0  0  0  0  0
  192.1640  175.6450  137.1010 C   0  0  0  0  0  0  0  0  0  0  0  0
  194.6150  175.8430  137.4940 O   0  0  0  0  0  0  0  0  0  0  0  0
  192.3350  174.8900  135.8100 C   0  0  0  0  0  2  0  0  0  0  0  0
  189.6580  175.4240  136.7840 C   0  0  0  0  0  2  0  0  0  0  0  0
  190.8580  175.9350  137.5520 C   0  0  0  0  0  0  0  0  0  0  0  0
  191.7790  177.1180  139.4620 C   0  0  0  0  0  3  0  0  0  0  0  0
  189.3350  176.9790  139.1960 N   0  0  0  0  0  0  0  0  0  0  0  0
  188.1840  176.3310  138.5690 C   0  0  0  0  0  2  0  0  0  0  0  0
  193.0680  176.8340  139.0210 C   0  0  0  0  0  3  0  0  0  0  0  0
  188.4060  177.5970  136.3580 C   0  0  1  0  0  3  0  0  0  0  0  0
  189.3810  177.5940  135.1910 C   0  0  0  0  0  1  0  0  0  0  0  0
  187.0270  178.0710  135.8870 C   0  0  0  0  0  2  0  0  0  0  0  0
  185.9790  176.9710  135.9560 C   0  0  0  0  0  2  0  0  0  0  0  0
  184.6630  177.5140  135.4400 C   0  0  0  0  0  2  0  0  0  0  0  0
  183.6070  177.4010  136.5180 C   0  0  0  0  0  2  0  0  0  0  0  0
  184.1920  176.7010  137.7400 C   0  0  1  0  0  3  0  0  0  0  0  0
  182.1080  176.1750  139.6080 C   0  0  0  0  0  2  0  0  0  0  0  0
  184.0990  177.5650  139.0110 C   0  0  2  0  0  3  0  0  0  0  0  0
  183.4590  175.3780  137.9810 C   0  0  0  0  0  2  0  0  0  0  0  0
  182.6670  177.5990  139.5620 C   0  0  2  0  0  3  0  0  0  0  0  0
  184.5710  178.8600  138.7780 O   0  0  0  0  0  1  0  0  0  0  0  0
  182.1130  175.6120  138.3200 O   0  0  0  0  0  0  0  0  0  0  0  0
  182.6170  178.2270  140.9240 C   0  0  0  0  0  0  0  0  0  0  0  0
  181.2710  179.3570  142.7040 C   0  0  0  0  0  2  0  0  0  0  0  0
  183.6890  179.0010  143.0940 C   0  0  0  0  0  2  0  0  0  0  0  0
  182.3030  178.8410  143.7000 C   0  0  0  0  0  2  0  0  0  0  0  0
  183.8150  178.1230  141.8480 C   0  0  0  0  0  2  0  0  0  0  0  0
  181.4410  178.7160  141.3520 C   0  0  0  0  0  3  0  0  0  0  0  0
  189.1080  178.0580  140.1600 C   0  0  0  0  0  2  0  0  0  0  0  0
  187.0660  177.4860  143.4260 C   0  0  0  0  0  2  0  0  0  0  0  0
  188.2750  177.2840  144.3590 C   0  0  1  0  0  3  0  0  0  0  0  0
  189.9370  177.7560  142.5330 C   0  0  0  0  0  2  0  0  0  0  0  0
  187.4370  178.0970  142.0700 C   0  0  0  0  0  2  0  0  0  0  0  0
  188.7670  177.5380  141.5570 C   0  0  1  0  0  3  0  0  0  0  0  0
  189.4890  178.1180  143.9510 C   0  0  0  0  0  2  0  0  0  0  0  0
  187.9010  177.5110  145.8210 C   0  0  0  0  0  2  0  0  0  0  0  0
  186.5680  178.2290  145.9760 C   0  0  0  0  0  1  0  0  0  0  0  0
  1  8  1  0  0  0  0
  2 13  1  0  0  0  0
  2 12  1  0  0  0  0
  3 16  1  1  0  0  0
  3 14  1  0  0  0  0
  4 15  1  0  0  0  0
  5  6  1  0  0  0  0
  5  9  1  0  0  0  0
  6  1  1  0  0  0  0
  7 11  1  0  0  0  0
  7  4  2  0  0  0  0
  8  4  1  0  0  0  0
  9  7  1  0  0  0  0
 10  3  1  0  0  0  0
 10 11  1  0  0  0  0
 11  2  2  0  0  0  0
 13 35  1  0  0  0  0
 14 13  1  0  0  0  0
 15 12  2  0  0  0  0
 16 17  1  6  0  0  0
 18 19  1  0  0  0  0
 18 16  1  0  0  0  0
 20 19  1  0  0  0  0
 20 21  1  0  0  0  0
 22 21  1  6  0  0  0
 22 25  1  0  0  0  0
 22 24  1  0  0  0  0
 24 27  1  6  0  0  0
 24 26  1  0  0  0  0
 25 28  1  0  0  0  0
 26 23  1  0  0  0  0
 26 29  1  1  0  0  0
 28 23  1  0  0  0  0
 29 34  2  0  0  0  0
 29 33  1  0  0  0  0
 30 32  1  0  0  0  0
 31 32  1  0  0  0  0
 33 31  1  0  0  0  0
 34 30  1  0  0  0  0
 36 37  1  0  0  0  0
 37 42  1  1  0  0  0
 38 41  1  0  0  0  0
 39 36  1  0  0  0  0
 40 35  1  6  0  0  0
 40 39  1  0  0  0  0
 40 38  1  0  0  0  0
 41 37  1  0  0  0  0
 42 43  1  0  0  0  0
M  END
>  <MODEL>
4

>  <REMARK>
 VINA RESULT:      -7.7      2.882      7.996
  Name = 
  10 active torsions:
  status: ('A' for Active; 'I' for Inactive)
    1  A    between atoms: C_1  and  N_34
    2  A    between atoms: C_1  and  C_35
    3  A    between atoms: C_2  and  C_6
    4  A    between atoms: C_2  and  C_13
    5  A    between atoms: C_3  and  C_4
    6  A    between atoms: C_3  and  C_12
    7  A    between atoms: C_6  and  C_17
    8  A    between atoms: C_11  and  C_22
    9  A    between atoms: C_12  and  C_17
   10  A    between atoms: C_19  and  C_25
                            x       y       z     vdW  Elec       q    Type
                         _______ _______ _______ _____ _____    ______ ____

>  <TORSDO>
F 10

$$$$
=
 OpenBabel11052416133D

 43 48  0  0  1  0  0  0  0  0999 V2000
  182.9540  172.1740  135.9880 C   0  0  0  0  0  2  0  0  0  0  0  0
  184.8440  176.9060  137.0720 C   0  0  0  0  0  0  0  0  0  0  0  0
  187.6310  177.1080  136.3990 C   0  0  1  0  0  3  0  0  0  0  0  0
  183.4710  174.4470  136.9130 C   0  0  0  0  0  0  0  0  0  0  0  0
  185.4350  172.1860  136.6070 C   0  0  0  0  0  2  0  0  0  0  0  0
  184.1670  171.3520  136.4220 C   0  0  0  0  0  2  0  0  0  0  0  0
  184.7700  174.5680  136.3520 C   0  0  0  0  0  0  0  0  0  0  0  0
  182.7120  173.2650  136.8720 O   0  0  0  0  0  0  0  0  0  0  0  0
  185.4560  173.4030  135.6910 C   0  0  0  0  0  2  0  0  0  0  0  0
  186.8160  175.9600  135.7980 C   0  0  0  0  0  2  0  0  0  0  0  0
  185.4520  175.8020  136.4340 C   0  0  0  0  0  0  0  0  0  0  0  0
  183.5750  176.7590  137.6420 C   0  0  0  0  0  3  0  0  0  0  0  0
  185.5470  178.1580  137.1760 N   0  0  0  0  0  0  0  0  0  0  0  0
  186.7710  178.3710  136.4040 C   0  0  0  0  0  2  0  0  0  0  0  0
  182.9000  175.5440  137.5630 C   0  0  0  0  0  3  0  0  0  0  0  0
  188.1810  176.7520  137.7930 C   0  0  1  0  0  3  0  0  0  0  0  0
  188.7320  175.3350  137.8130 C   0  0  0  0  0  1  0  0  0  0  0  0
  189.2410  177.7330  138.3050 C   0  0  0  0  0  2  0  0  0  0  0  0
  189.3430  177.7390  139.8230 C   0  0  0  0  0  2  0  0  0  0  0  0
  190.4150  176.7570  140.2470 C   0  0  0  0  0  2  0  0  0  0  0  0
  190.3550  176.5520  141.7450 C   0  0  0  0  0  2  0  0  0  0  0  0
  190.3090  177.9050  142.4470 C   0  0  1  0  0  3  0  0  0  0  0  0
  191.1780  177.5930  145.1420 C   0  0  0  0  0  2  0  0  0  0  0  0
  189.2610  177.9440  143.5750 C   0  0  2  0  0  3  0  0  0  0  0  0
  191.6850  178.2330  143.0340 C   0  0  0  0  0  2  0  0  0  0  0  0
  189.7410  177.1770  144.8140 C   0  0  2  0  0  3  0  0  0  0  0  0
  188.0270  177.4530  143.1360 O   0  0  0  0  0  1  0  0  0  0  0  0
  192.0220  177.3190  144.0510 O   0  0  0  0  0  0  0  0  0  0  0  0
  188.8440  177.4180  145.9920 C   0  0  0  0  0  0  0  0  0  0  0  0
  188.5850  177.6090  148.4730 C   0  0  0  0  0  2  0  0  0  0  0  0
  186.5780  177.8680  147.0480 C   0  0  0  0  0  2  0  0  0  0  0  0
  187.3640  178.4800  148.1970 C   0  0  0  0  0  2  0  0  0  0  0  0
  187.4210  177.8910  145.7720 C   0  0  0  0  0  2  0  0  0  0  0  0
  189.3870  177.3730  147.2210 C   0  0  0  0  0  3  0  0  0  0  0  0
  185.1450  179.1600  138.1650 C   0  0  0  0  0  2  0  0  0  0  0  0
  183.3710  178.3260  141.5310 C   0  0  0  0  0  2  0  0  0  0  0  0
  184.6510  178.1590  142.3700 C   0  0  1  0  0  3  0  0  0  0  0  0
  186.1530  178.8080  140.4610 C   0  0  0  0  0  2  0  0  0  0  0  0
  183.6110  179.0160  140.1830 C   0  0  0  0  0  2  0  0  0  0  0  0
  184.9330  178.5610  139.5560 C   0  0  1  0  0  3  0  0  0  0  0  0
  185.7850  179.0810  141.9210 C   0  0  0  0  0  2  0  0  0  0  0  0
  184.3670  178.2990  143.8630 C   0  0  0  0  0  2  0  0  0  0  0  0
  183.1460  179.1630  144.1440 C   0  0  0  0  0  1  0  0  0  0  0  0
  1  6  1  0  0  0  0
  1  8  1  0  0  0  0
  2 13  1  0  0  0  0
  2 12  1  0  0  0  0
  3 14  1  0  0  0  0
  3 16  1  1  0  0  0
  4 15  1  0  0  0  0
  6  5  1  0  0  0  0
  7 11  1  0  0  0  0
  7  4  2  0  0  0  0
  8  4  1  0  0  0  0
  9  7  1  0  0  0  0
  9  5  1  0  0  0  0
 10  3  1  0  0  0  0
 10 11  1  0  0  0  0
 11  2  2  0  0  0  0
 13 35  1  0  0  0  0
 14 13  1  0  0  0  0
 15 12  2  0  0  0  0
 16 17  1  6  0  0  0
 16 18  1  0  0  0  0
 18 19  1  0  0  0  0
 19 20  1  0  0  0  0
 20 21  1  0  0  0  0
 22 21  1  1  0  0  0
 22 25  1  0  0  0  0
 22 24  1  0  0  0  0
 24 27  1  6  0  0  0
 24 26  1  0  0  0  0
 25 28  1  0  0  0  0
 26 23  1  0  0  0  0
 26 29  1  1  0  0  0
 28 23  1  0  0  0  0
 29 34  2  0  0  0  0
 31 32  1  0  0  0  0
 32 30  1  0  0  0  0
 33 29  1  0  0  0  0
 33 31  1  0  0  0  0
 34 30  1  0  0  0  0
 36 37  1  0  0  0  0
 37 42  1  1  0  0  0
 38 41  1  0  0  0  0
 39 36  1  0  0  0  0
 40 35  1  6  0  0  0
 40 39  1  0  0  0  0
 40 38  1  0  0  0  0
 41 37  1  0  0  0  0
 42 43  1  0  0  0  0
M  END
>  <MODEL>
5

>  <REMARK>
 VINA RESULT:      -7.6      1.893      3.461
  Name = 
  10 active torsions:
  status: ('A' for Active; 'I' for Inactive)
    1  A    between atoms: C_1  and  N_34
    2  A    between atoms: C_1  and  C_35
    3  A    between atoms: C_2  and  C_6
    4  A    between atoms: C_2  and  C_13
    5  A    between atoms: C_3  and  C_4
    6  A    between atoms: C_3  and  C_12
    7  A    between atoms: C_6  and  C_17
    8  A    between atoms: C_11  and  C_22
    9  A    between atoms: C_12  and  C_17
   10  A    between atoms: C_19  and  C_25
                            x       y       z     vdW  Elec       q    Type
                         _______ _______ _______ _____ _____    ______ ____

>  <TORSDO>
F 10

$$$$
=
 OpenBabel11052416133D

 43 48  0  0  1  0  0  0  0  0999 V2000
  185.6970  174.9410  134.8250 C   0  0  0  0  0  2  0  0  0  0  0  0
  182.1700  178.3590  136.5620 C   0  0  0  0  0  0  0  0  0  0  0  0
  182.8200  179.2980  139.1990 C   0  0  1  0  0  3  0  0  0  0  0  0
  183.6460  176.2940  135.3330 C   0  0  0  0  0  0  0  0  0  0  0  0
  185.4030  174.9320  137.3650 C   0  0  0  0  0  2  0  0  0  0  0  0
  185.9410  174.1980  136.1370 C   0  0  0  0  0  2  0  0  0  0  0  0
  184.1320  176.8970  136.5240 C   0  0  0  0  0  0  0  0  0  0  0  0
  184.3210  175.2670  134.6510 O   0  0  0  0  0  0  0  0  0  0  0  0
  185.4110  176.4430  137.1740 C   0  0  0  0  0  2  0  0  0  0  0  0
  183.9160  178.6160  138.3760 C   0  0  0  0  0  2  0  0  0  0  0  0
  183.3880  177.9310  137.1340 C   0  0  0  0  0  0  0  0  0  0  0  0
  181.6960  177.7340  135.4040 C   0  0  0  0  0  3  0  0  0  0  0  0
  181.4000  179.3980  137.1940 N   0  0  0  0  0  0  0  0  0  0  0  0
  181.9920  180.1870  138.2740 C   0  0  0  0  0  2  0  0  0  0  0  0
  182.4260  176.7150  134.8000 C   0  0  0  0  0  3  0  0  0  0  0  0
  181.9660  178.2750  139.9720 C   0  0  1  0  0  3  0  0  0  0  0  0
  182.8220  177.1280  140.4840 C   0  0  0  0  0  1  0  0  0  0  0  0
  181.1680  178.8900  141.1280 C   0  0  0  0  0  2  0  0  0  0  0  0
  181.4460  178.2030  142.4570 C   0  0  0  0  0  2  0  0  0  0  0  0
  181.9500  179.2330  143.4460 C   0  0  0  0  0  2  0  0  0  0  0  0
  183.0410  178.6270  144.3020 C   0  0  0  0  0  2  0  0  0  0  0  0
  184.2920  179.4960  144.2300 C   0  0  1  0  0  3  0  0  0  0  0  0
  186.5110  177.8820  143.4640 C   0  0  0  0  0  2  0  0  0  0  0  0
  185.3340  179.1110  145.2960 C   0  0  2  0  0  3  0  0  0  0  0  0
  184.9300  179.3740  142.8420 C   0  0  0  0  0  2  0  0  0  0  0  0
  186.0640  177.8130  144.9260 C   0  0  2  0  0  3  0  0  0  0  0  0
  184.7480  179.0070  146.5620 O   0  0  0  0  0  1  0  0  0  0  0  0
  185.3970  178.0630  142.6250 O   0  0  0  0  0  0  0  0  0  0  0  0
  187.2400  177.5670  145.8230 C   0  0  0  0  0  0  0  0  0  0  0  0
  189.7090  177.2420  146.0640 C   0  0  0  0  0  2  0  0  0  0  0  0
  188.2950  177.1300  148.0930 C   0  0  0  0  0  2  0  0  0  0  0  0
  189.5540  177.7410  147.4960 C   0  0  0  0  0  2  0  0  0  0  0  0
  187.0660  177.6230  147.3290 C   0  0  0  0  0  2  0  0  0  0  0  0
  188.4570  177.4760  145.2610 C   0  0  0  0  0  3  0  0  0  0  0  0
  179.9790  179.5680  136.8840 C   0  0  0  0  0  2  0  0  0  0  0  0
  180.1350  183.2030  135.4960 C   0  0  0  0  0  2  0  0  0  0  0  0
  179.4820  183.8870  136.7110 C   0  0  1  0  0  3  0  0  0  0  0  0
  179.3440  181.7420  138.0160 C   0  0  0  0  0  2  0  0  0  0  0  0
  180.5930  181.7680  135.7760 C   0  0  0  0  0  2  0  0  0  0  0  0
  179.5930  181.0330  136.6730 C   0  0  1  0  0  3  0  0  0  0  0  0
  179.8160  183.1970  138.0340 C   0  0  0  0  0  2  0  0  0  0  0  0
  179.8010  185.3790  136.7560 C   0  0  0  0  0  2  0  0  0  0  0  0
  179.3190  186.0370  138.0410 C   0  0  0  0  0  1  0  0  0  0  0  0
  1  6  1  0  0  0  0
  2 11  1  0  0  0  0
  2 13  1  0  0  0  0
  3 16  1  6  0  0  0
  4  7  1  0  0  0  0
  6  5  1  0  0  0  0
  7 11  2  0  0  0  0
  7  9  1  0  0  0  0
  8  1  1  0  0  0  0
  8  4  1  0  0  0  0
  9  5  1  0  0  0  0
 10  3  1  0  0  0  0
 11 10  1  0  0  0  0
 12  2  2  0  0  0  0
 13 14  1  0  0  0  0
 14  3  1  0  0  0  0
 15  4  2  0  0  0  0
 15 12  1  0  0  0  0
 16 17  1  1  0  0  0
 16 18  1  0  0  0  0
 18 19  1  0  0  0  0
 19 20  1  0  0  0  0
 20 21  1  0  0  0  0
 22 21  1  6  0  0  0
 22 24  1  0  0  0  0
 23 26  1  0  0  0  0
 24 27  1  1  0  0  0
 25 22  1  0  0  0  0
 26 24  1  0  0  0  0
 26 29  1  1  0  0  0
 28 25  1  0  0  0  0
 28 23  1  0  0  0  0
 29 33  1  0  0  0  0
 30 32  1  0  0  0  0
 32 31  1  0  0  0  0
 33 31  1  0  0  0  0
 34 29  2  0  0  0  0
 34 30  1  0  0  0  0
 35 13  1  0  0  0  0
 36 39  1  0  0  0  0
 36 37  1  0  0  0  0
 37 42  1  1  0  0  0
 37 41  1  0  0  0  0
 38 41  1  0  0  0  0
 39 40  1  0  0  0  0
 40 35  1  1  0  0  0
 40 38  1  0  0  0  0
 42 43  1  0  0  0  0
M  END
>  <MODEL>
6

>  <REMARK>
 VINA RESULT:      -7.3      3.134      5.545
  Name = 
  10 active torsions:
  status: ('A' for Active; 'I' for Inactive)
    1  A    between atoms: C_1  and  N_34
    2  A    between atoms: C_1  and  C_35
    3  A    between atoms: C_2  and  C_6
    4  A    between atoms: C_2  and  C_13
    5  A    between atoms: C_3  and  C_4
    6  A    between atoms: C_3  and  C_12
    7  A    between atoms: C_6  and  C_17
    8  A    between atoms: C_11  and  C_22
    9  A    between atoms: C_12  and  C_17
   10  A    between atoms: C_19  and  C_25
                            x       y       z     vdW  Elec       q    Type
                         _______ _______ _______ _____ _____    ______ ____

>  <TORSDO>
F 10

$$$$
=
 OpenBabel11052416133D

 43 48  0  0  1  0  0  0  0  0999 V2000
  187.9550  177.7200  149.0810 C   0  0  0  0  0  2  0  0  0  0  0  0
  186.0620  178.2750  144.2600 C   0  0  0  0  0  0  0  0  0  0  0  0
  187.8200  177.1280  142.2970 C   0  0  1  0  0  3  0  0  0  0  0  0
  186.8080  178.4520  146.9740 C   0  0  0  0  0  0  0  0  0  0  0  0
  189.7530  177.9040  147.2720 C   0  0  0  0  0  2  0  0  0  0  0  0
  189.4290  177.9710  148.7650 C   0  0  0  0  0  2  0  0  0  0  0  0
  187.5860  177.6720  146.0770 C   0  0  0  0  0  0  0  0  0  0  0  0
  187.1010  178.5880  148.3420 O   0  0  0  0  0  0  0  0  0  0  0  0
  188.8260  176.9500  146.5300 C   0  0  0  0  0  2  0  0  0  0  0  0
  187.9970  176.7210  143.7630 C   0  0  0  0  0  2  0  0  0  0  0  0
  187.2070  177.5870  144.7200 C   0  0  0  0  0  0  0  0  0  0  0  0
  185.3250  179.0600  145.1540 C   0  0  0  0  0  3  0  0  0  0  0  0
  185.6860  178.2080  142.8720 N   0  0  0  0  0  0  0  0  0  0  0  0
  186.3260  177.2300  141.9930 C   0  0  0  0  0  2  0  0  0  0  0  0
  185.6960  179.1460  146.4920 C   0  0  0  0  0  3  0  0  0  0  0  0
  188.5900  178.4200  141.9650 C   0  0  1  0  0  3  0  0  0  0  0  0
  189.9460  178.4350  142.6520 C   0  0  0  0  0  1  0  0  0  0  0  0
  188.7610  178.6630  140.4620 C   0  0  0  0  0  2  0  0  0  0  0  0
  189.9020  177.8510  139.8660 C   0  0  0  0  0  2  0  0  0  0  0  0
  189.6920  177.7320  138.3710 C   0  0  0  0  0  2  0  0  0  0  0  0
  189.1890  176.3450  138.0350 C   0  0  0  0  0  2  0  0  0  0  0  0
  188.5680  176.3470  136.6430 C   0  0  1  0  0  3  0  0  0  0  0  0
  185.7300  176.3190  136.8810 C   0  0  0  0  0  2  0  0  0  0  0  0
  187.8100  175.0420  136.3380 C   0  0  2  0  0  3  0  0  0  0  0  0
  187.6020  177.5280  136.5060 C   0  0  0  0  0  2  0  0  0  0  0  0
  186.4640  174.9900  137.0730 C   0  0  2  0  0  3  0  0  0  0  0  0
  188.5870  173.9220  136.6460 O   0  0  0  0  0  1  0  0  0  0  0  0
  186.5090  177.3780  137.3800 O   0  0  0  0  0  0  0  0  0  0  0  0
  185.6180  173.8490  136.5910 C   0  0  0  0  0  0  0  0  0  0  0  0
  184.8330  172.4300  134.6860 C   0  0  0  0  0  2  0  0  0  0  0  0
  183.9340  171.9790  136.9480 C   0  0  0  0  0  2  0  0  0  0  0  0
  184.5570  171.3400  135.7160 C   0  0  0  0  0  2  0  0  0  0  0  0
  184.9320  172.9410  137.5940 C   0  0  0  0  0  2  0  0  0  0  0  0
  185.6340  173.5580  135.2790 C   0  0  0  0  0  3  0  0  0  0  0  0
  184.7920  179.2110  142.2900 C   0  0  0  0  0  2  0  0  0  0  0  0
  183.4760  178.7410  138.6550 C   0  0  0  0  0  2  0  0  0  0  0  0
  182.0530  178.2940  139.0370 C   0  0  1  0  0  3  0  0  0  0  0  0
  182.4610  178.6270  141.4960 C   0  0  0  0  0  2  0  0  0  0  0  0
  184.2480  179.3770  139.8170 C   0  0  0  0  0  2  0  0  0  0  0  0
  183.9560  178.6570  141.1360 C   0  0  1  0  0  3  0  0  0  0  0  0
  181.5430  178.9560  140.3170 C   0  0  0  0  0  2  0  0  0  0  0  0
  181.0760  178.4760  137.8790 C   0  0  0  0  0  2  0  0  0  0  0  0
  181.0150  179.9160  137.3910 C   0  0  0  0  0  1  0  0  0  0  0  0
  2 11  2  0  0  0  0
  2 12  1  0  0  0  0
  3 16  1  1  0  0  0
  3 10  1  0  0  0  0
  4  8  1  0  0  0  0
  5  6  1  0  0  0  0
  6  1  1  0  0  0  0
  7  9  1  0  0  0  0
  7  4  2  0  0  0  0
  8  1  1  0  0  0  0
  9  5  1  0  0  0  0
 10 11  1  0  0  0  0
 11  7  1  0  0  0  0
 12 15  2  0  0  0  0
 13  2  1  0  0  0  0
 14  3  1  0  0  0  0
 14 13  1  0  0  0  0
 15  4  1  0  0  0  0
 16 17  1  1  0  0  0
 18 16  1  0  0  0  0
 19 18  1  0  0  0  0
 20 19  1  0  0  0  0
 21 20  1  0  0  0  0
 22 21  1  1  0  0  0
 23 26  1  0  0  0  0
 23 28  1  0  0  0  0
 24 22  1  0  0  0  0
 24 27  1  1  0  0  0
 24 26  1  0  0  0  0
 25 22  1  0  0  0  0
 25 28  1  0  0  0  0
 26 29  1  6  0  0  0
 29 33  1  0  0  0  0
 30 34  1  0  0  0  0
 30 32  1  0  0  0  0
 31 33  1  0  0  0  0
 32 31  1  0  0  0  0
 34 29  2  0  0  0  0
 35 13  1  0  0  0  0
 36 37  1  0  0  0  0
 36 39  1  0  0  0  0
 37 42  1  6  0  0  0
 37 41  1  0  0  0  0
 39 40  1  0  0  0  0
 40 38  1  0  0  0  0
 40 35  1  1  0  0  0
 41 38  1  0  0  0  0
 43 42  1  0  0  0  0
M  END
>  <MODEL>
7

>  <REMARK>
 VINA RESULT:      -7.2      2.651      8.740
  Name = 
  10 active torsions:
  status: ('A' for Active; 'I' for Inactive)
    1  A    between atoms: C_1  and  N_34
    2  A    between atoms: C_1  and  C_35
    3  A    between atoms: C_2  and  C_6
    4  A    between atoms: C_2  and  C_13
    5  A    between atoms: C_3  and  C_4
    6  A    between atoms: C_3  and  C_12
    7  A    between atoms: C_6  and  C_17
    8  A    between atoms: C_11  and  C_22
    9  A    between atoms: C_12  and  C_17
   10  A    between atoms: C_19  and  C_25
                            x       y       z     vdW  Elec       q    Type
                         _______ _______ _______ _____ _____    ______ ____

>  <TORSDO>
F 10

$$$$
=
 OpenBabel11052416133D

 43 48  0  0  1  0  0  0  0  0999 V2000
  188.0540  177.8600  149.2170 C   0  0  0  0  0  2  0  0  0  0  0  0
  186.0190  178.2620  144.4390 C   0  0  0  0  0  0  0  0  0  0  0  0
  187.7560  177.1220  142.4530 C   0  0  1  0  0  3  0  0  0  0  0  0
  186.8310  178.5160  147.1280 C   0  0  0  0  0  0  0  0  0  0  0  0
  189.7980  178.0560  147.3570 C   0  0  0  0  0  2  0  0  0  0  0  0
  189.5110  178.1460  148.8560 C   0  0  0  0  0  2  0  0  0  0  0  0
  187.6060  177.7390  146.2260 C   0  0  0  0  0  0  0  0  0  0  0  0
  187.1570  178.6890  148.4840 O   0  0  0  0  0  0  0  0  0  0  0  0
  188.8790  177.0610  146.6600 C   0  0  0  0  0  2  0  0  0  0  0  0
  187.9830  176.7510  143.9210 C   0  0  0  0  0  2  0  0  0  0  0  0
  187.1940  177.6150  144.8810 C   0  0  0  0  0  0  0  0  0  0  0  0
  185.2840  179.0450  145.3360 C   0  0  0  0  0  3  0  0  0  0  0  0
  185.6090  178.1550  143.0630 N   0  0  0  0  0  0  0  0  0  0  0  0
  186.2520  177.1770  142.1870 C   0  0  0  0  0  2  0  0  0  0  0  0
  185.6880  179.1690  146.6620 C   0  0  0  0  0  3  0  0  0  0  0  0
  188.4800  178.4270  142.0730 C   0  0  1  0  0  3  0  0  0  0  0  0
  189.8810  178.4620  142.6640 C   0  0  0  0  0  1  0  0  0  0  0  0
  188.5420  178.6790  140.5630 C   0  0  0  0  0  2  0  0  0  0  0  0
  188.8710  177.4200  139.7760 C   0  0  0  0  0  2  0  0  0  0  0  0
  190.1580  177.6420  139.0090 C   0  0  0  0  0  2  0  0  0  0  0  0
  190.8400  176.3140  138.7620 C   0  0  0  0  0  2  0  0  0  0  0  0
  191.4310  176.2950  137.3560 C   0  0  1  0  0  3  0  0  0  0  0  0
  192.5590  173.7290  136.8480 C   0  0  0  0  0  2  0  0  0  0  0  0
  192.9630  176.1420  137.3660 C   0  0  2  0  0  3  0  0  0  0  0  0
  190.8200  175.1430  136.5510 C   0  0  0  0  0  2  0  0  0  0  0  0
  193.3810  174.7020  137.6960 C   0  0  2  0  0  3  0  0  0  0  0  0
  193.5550  177.0450  138.2530 O   0  0  0  0  0  1  0  0  0  0  0  0
  191.1870  173.9020  137.1060 O   0  0  0  0  0  0  0  0  0  0  0  0
  194.8480  174.4890  137.4650 C   0  0  0  0  0  0  0  0  0  0  0  0
  196.7850  174.5110  135.8820 C   0  0  0  0  0  2  0  0  0  0  0  0
  197.1800  173.8320  138.2290 C   0  0  0  0  0  2  0  0  0  0  0  0
  197.6750  174.7240  137.1010 C   0  0  0  0  0  2  0  0  0  0  0  0
  195.7710  174.2560  138.6460 C   0  0  0  0  0  2  0  0  0  0  0  0
  195.3290  174.6850  136.2260 C   0  0  0  0  0  3  0  0  0  0  0  0
  184.6720  179.1210  142.4860 C   0  0  0  0  0  2  0  0  0  0  0  0
  183.9670  178.7600  138.6720 C   0  0  0  0  0  2  0  0  0  0  0  0
  182.4880  178.3510  138.8020 C   0  0  1  0  0  3  0  0  0  0  0  0
  182.4900  178.6250  141.3010 C   0  0  0  0  0  2  0  0  0  0  0  0
  184.5520  179.3500  139.9610 C   0  0  0  0  0  2  0  0  0  0  0  0
  184.0250  178.6150  141.1960 C   0  0  1  0  0  3  0  0  0  0  0  0
  181.7900  179.0050  139.9950 C   0  0  0  0  0  2  0  0  0  0  0  0
  181.7230  178.5860  137.5030 C   0  0  0  0  0  2  0  0  0  0  0  0
  180.9100  177.3710  137.0800 C   0  0  0  0  0  1  0  0  0  0  0  0
  2 11  2  0  0  0  0
  2 12  1  0  0  0  0
  3 16  1  1  0  0  0
  3 10  1  0  0  0  0
  4  8  1  0  0  0  0
  5  6  1  0  0  0  0
  6  1  1  0  0  0  0
  7  9  1  0  0  0  0
  7  4  2  0  0  0  0
  8  1  1  0  0  0  0
  9  5  1  0  0  0  0
 10 11  1  0  0  0  0
 11  7  1  0  0  0  0
 12 15  2  0  0  0  0
 13  2  1  0  0  0  0
 14  3  1  0  0  0  0
 14 13  1  0  0  0  0
 15  4  1  0  0  0  0
 16 17  1  6  0  0  0
 18 16  1  0  0  0  0
 19 18  1  0  0  0  0
 20 19  1  0  0  0  0
 21 20  1  0  0  0  0
 22 24  1  0  0  0  0
 22 21  1  1  0  0  0
 23 28  1  0  0  0  0
 23 26  1  0  0  0  0
 24 26  1  0  0  0  0
 24 27  1  1  0  0  0
 25 28  1  0  0  0  0
 25 22  1  0  0  0  0
 26 29  1  6  0  0  0
 29 33  1  0  0  0  0
 30 34  1  0  0  0  0
 30 32  1  0  0  0  0
 31 33  1  0  0  0  0
 32 31  1  0  0  0  0
 34 29  2  0  0  0  0
 35 13  1  0  0  0  0
 36 37  1  0  0  0  0
 36 39  1  0  0  0  0
 37 42  1  6  0  0  0
 37 41  1  0  0  0  0
 39 40  1  0  0  0  0
 40 38  1  0  0  0  0
 40 35  1  1  0  0  0
 41 38  1  0  0  0  0
 43 42  1  0  0  0  0
M  END
>  <MODEL>
8

>  <REMARK>
 VINA RESULT:      -7.2      3.799      8.973
  Name = 
  10 active torsions:
  status: ('A' for Active; 'I' for Inactive)
    1  A    between atoms: C_1  and  N_34
    2  A    between atoms: C_1  and  C_35
    3  A    between atoms: C_2  and  C_6
    4  A    between atoms: C_2  and  C_13
    5  A    between atoms: C_3  and  C_4
    6  A    between atoms: C_3  and  C_12
    7  A    between atoms: C_6  and  C_17
    8  A    between atoms: C_11  and  C_22
    9  A    between atoms: C_12  and  C_17
   10  A    between atoms: C_19  and  C_25
                            x       y       z     vdW  Elec       q    Type
                         _______ _______ _______ _____ _____    ______ ____

>  <TORSDO>
F 10

$$$$
=
 OpenBabel11052416133D

 43 48  0  0  1  0  0  0  0  0999 V2000
  190.7200  177.8020  142.0710 C   0  0  0  0  0  2  0  0  0  0  0  0
  189.8040  176.8340  137.0350 C   0  0  0  0  0  0  0  0  0  0  0  0
  187.4380  178.1810  136.1150 C   0  0  1  0  0  3  0  0  0  0  0  0
  190.5350  176.8470  139.7590 C   0  0  0  0  0  0  0  0  0  0  0  0
  188.2430  177.8440  141.4370 C   0  0  0  0  0  2  0  0  0  0  0  0
  189.2740  177.7690  142.5640 C   0  0  0  0  0  2  0  0  0  0  0  0
  189.5060  177.7110  139.3000 C   0  0  0  0  0  0  0  0  0  0  0  0
  190.9680  176.7950  141.0950 O   0  0  0  0  0  0  0  0  0  0  0  0
  188.7650  178.6250  140.2390 C   0  0  0  0  0  2  0  0  0  0  0  0
  188.0840  178.6500  137.4220 C   0  0  0  0  0  2  0  0  0  0  0  0
  189.1440  177.7000  137.9350 C   0  0  0  0  0  0  0  0  0  0  0  0
  190.7960  175.9710  137.5120 C   0  0  0  0  0  3  0  0  0  0  0  0
  189.4220  176.8060  135.6470 N   0  0  0  0  0  0  0  0  0  0  0  0
  188.5420  177.8440  135.1140 C   0  0  0  0  0  2  0  0  0  0  0  0
  191.1550  175.9790  138.8570 C   0  0  0  0  0  3  0  0  0  0  0  0
  186.4610  177.0130  136.3460 C   0  0  1  0  0  3  0  0  0  0  0  0
  186.3970  176.6420  137.8190 C   0  0  0  0  0  1  0  0  0  0  0  0
  185.0500  177.2760  135.8100 C   0  0  0  0  0  2  0  0  0  0  0  0
  183.9760  176.5830  136.6340 C   0  0  0  0  0  2  0  0  0  0  0  0
  182.9890  177.6210  137.1270 C   0  0  0  0  0  2  0  0  0  0  0  0
  182.7570  177.4400  138.6110 C   0  0  0  0  0  2  0  0  0  0  0  0
  182.7440  178.8020  139.2980 C   0  0  1  0  0  3  0  0  0  0  0  0
  185.2350  179.2120  140.6170 C   0  0  0  0  0  2  0  0  0  0  0  0
  182.8000  178.6850  140.8320 C   0  0  2  0  0  3  0  0  0  0  0  0
  183.9340  179.6380  138.8180 C   0  0  0  0  0  2  0  0  0  0  0  0
  184.2090  178.3160  141.3160 C   0  0  2  0  0  3  0  0  0  0  0  0
  181.8580  177.7650  141.3040 O   0  0  0  0  0  1  0  0  0  0  0  0
  185.1480  179.0500  139.2230 O   0  0  0  0  0  0  0  0  0  0  0  0
  184.3310  178.4430  142.8060 C   0  0  0  0  0  0  0  0  0  0  0  0
  185.6900  178.0810  144.8740 C   0  0  0  0  0  2  0  0  0  0  0  0
  183.4340  179.0760  145.0970 C   0  0  0  0  0  2  0  0  0  0  0  0
  184.8940  179.2210  145.5000 C   0  0  0  0  0  2  0  0  0  0  0  0
  183.2960  179.2340  143.5830 C   0  0  0  0  0  2  0  0  0  0  0  0
  185.4550  177.9960  143.3890 C   0  0  0  0  0  3  0  0  0  0  0  0
  189.7700  175.6620  134.8000 C   0  0  0  0  0  2  0  0  0  0  0  0
  186.3320  173.8430  134.5940 C   0  0  0  0  0  2  0  0  0  0  0  0
  186.6210  172.7930  135.6830 C   0  0  1  0  0  3  0  0  0  0  0  0
  188.8680  173.7780  136.2310 C   0  0  0  0  0  2  0  0  0  0  0  0
  187.3250  175.0110  134.5950 C   0  0  0  0  0  2  0  0  0  0  0  0
  188.7470  174.5290  134.8930 C   0  0  1  0  0  3  0  0  0  0  0  0
  187.5220  173.3220  136.7980 C   0  0  0  0  0  2  0  0  0  0  0  0
  185.3330  172.1890  136.2360 C   0  0  0  0  0  2  0  0  0  0  0  0
  184.8460  172.9050  137.4880 C   0  0  0  0  0  1  0  0  0  0  0  0
  1  6  1  0  0  0  0
  2 12  2  0  0  0  0
  2 11  1  0  0  0  0
  3 16  1  1  0  0  0
  3 10  1  0  0  0  0
  4  8  1  0  0  0  0
  5  6  1  0  0  0  0
  7  4  1  0  0  0  0
  7  9  1  0  0  0  0
  8  1  1  0  0  0  0
  9  5  1  0  0  0  0
 10 11  1  0  0  0  0
 11  7  2  0  0  0  0
 12 15  1  0  0  0  0
 13  2  1  0  0  0  0
 14 13  1  0  0  0  0
 14  3  1  0  0  0  0
 15  4  2  0  0  0  0
 16 17  1  1  0  0  0
 18 16  1  0  0  0  0
 18 19  1  0  0  0  0
 19 20  1  0  0  0  0
 20 21  1  0  0  0  0
 22 21  1  6  0  0  0
 22 24  1  0  0  0  0
 23 26  1  0  0  0  0
 24 27  1  6  0  0  0
 24 26  1  0  0  0  0
 25 28  1  0  0  0  0
 25 22  1  0  0  0  0
 26 29  1  1  0  0  0
 28 23  1  0  0  0  0
 29 34  2  0  0  0  0
 29 33  1  0  0  0  0
 30 32  1  0  0  0  0
 31 32  1  0  0  0  0
 33 31  1  0  0  0  0
 34 30  1  0  0  0  0
 35 13  1  0  0  0  0
 36 39  1  0  0  0  0
 36 37  1  0  0  0  0
 37 42  1  1  0  0  0
 37 41  1  0  0  0  0
 38 41  1  0  0  0  0
 39 40  1  0  0  0  0
 40 35  1  1  0  0  0
 40 38  1  0  0  0  0
 42 43  1  0  0  0  0
M  END
>  <MODEL>
9

>  <REMARK>
 VINA RESULT:      -6.9      2.714      7.734
  Name = 
  10 active torsions:
  status: ('A' for Active; 'I' for Inactive)
    1  A    between atoms: C_1  and  N_34
    2  A    between atoms: C_1  and  C_35
    3  A    between atoms: C_2  and  C_6
    4  A    between atoms: C_2  and  C_13
    5  A    between atoms: C_3  and  C_4
    6  A    between atoms: C_3  and  C_12
    7  A    between atoms: C_6  and  C_17
    8  A    between atoms: C_11  and  C_22
    9  A    between atoms: C_12  and  C_17
   10  A    between atoms: C_19  and  C_25
                            x       y       z     vdW  Elec       q    Type
                         _______ _______ _______ _____ _____    ______ ____

>  <TORSDO>
F 10

$$$$
