=
 OpenBabel11052415153D

 37 43  0  0  1  0  0  0  0  0999 V2000
  184.6270  178.6840  139.6490 C   0  0  2  0  0  3  0  0  0  0  0  0
  190.1760  179.0490  143.7040 C   0  0  0  0  0  2  0  0  0  0  0  0
  186.6370  176.2150  135.0320 C   0  0  0  0  0  2  0  0  0  0  0  0
  189.1070  177.5400  138.7320 N   0  0  0  0  0  0  0  0  0  0  0  0
  183.7360  178.5600  140.7410 O   0  0  0  0  0  0  0  0  0  0  0  0
  189.4620  177.7680  143.2190 C   0  0  2  0  0  0  0  0  0  0  0  0
  187.9600  177.9980  143.3030 C   0  0  0  0  0  2  0  0  0  0  0  0
  189.8150  176.5540  144.0870 C   0  0  0  0  0  2  0  0  0  0  0  0
  188.9820  178.2200  136.2480 C   0  0  0  0  0  2  0  0  0  0  0  0
  188.1800  177.3560  139.8370 C   0  0  1  0  0  3  0  0  0  0  0  0
  188.3880  178.0520  137.6150 C   0  0  0  0  0  0  0  0  0  0  0  0
  188.6420  178.2470  140.9780 C   0  0  1  0  0  3  0  0  0  0  0  0
  191.8320  175.2840  144.6030 C   0  0  0  0  0  2  0  0  0  0  0  0
  188.6880  177.0010  135.3830 C   0  0  0  0  0  2  0  0  0  0  0  0
  184.0560  179.5170  141.6030 O   0  0  0  0  0  0  0  0  0  0  0  0
  191.9950  177.7060  144.8130 C   0  0  0  0  0  2  0  0  0  0  0  0
  191.2880  176.4700  144.3530 C   0  0  0  0  0  0  0  0  0  0  0  0
  187.1000  178.1950  137.8870 C   0  0  0  0  0  0  0  0  0  0  0  0
  185.0870  177.4240  136.6180 C   0  0  0  0  0  2  0  0  0  0  0  0
  191.2090  176.9150  139.9280 O   0  0  0  0  0  0  0  0  0  0  0  0
  191.0230  176.7450  137.6550 O   0  0  0  0  0  0  0  0  0  0  0  0
  186.1260  178.4110  136.8640 N   0  0  0  0  0  2  0  0  0  0  0  0
  185.1290  179.0290  142.3770 C   0  0  2  0  0  3  0  0  0  0  0  0
  187.5730  178.6480  141.9840 C   0  0  1  0  0  3  0  0  0  0  0  0
  190.4730  177.0730  138.7390 C   0  0  0  0  0  0  0  0  0  0  0  0
  186.7760  177.6990  139.2700 C   0  0  2  0  0  3  0  0  0  0  0  0
  187.5260  177.2180  134.6380 O   0  0  0  0  0  0  0  0  0  0  0  0
  189.6690  177.4560  141.7340 C   0  0  1  0  0  3  0  0  0  0  0  0
  185.2510  176.8130  135.2310 C   0  0  0  0  0  2  0  0  0  0  0  0
  186.1660  178.3070  141.5040 C   0  0  2  0  0  3  0  0  0  0  0  0
  191.6860  178.8580  143.8660 C   0  0  0  0  0  2  0  0  0  0  0  0
  186.0420  178.6930  140.0810 N   0  0  2  0  0  0  0  0  0  0  0  0
  191.0390  177.6880  141.1190 C   0  0  0  0  0  2  0  0  0  0  0  0
  184.6260  178.1070  143.4800 C   0  0  0  0  0  2  0  0  0  0  0  0
  184.6360  178.8300  144.8120 C   0  0  0  0  0  1  0  0  0  0  0  0
  182.8250  180.0580  138.6020 C   0  0  0  0  0  1  0  0  0  0  0  0
  184.3170  179.9420  138.8430 C   0  0  0  0  0  2  0  0  0  0  0  0
  1 37  1  1  0  0  0
  1 32  1  0  0  0  0
  1  5  1  0  0  0  0
  2 31  1  0  0  0  0
  3 29  1  0  0  0  0
  4 25  1  0  0  0  0
  5 15  1  0  0  0  0
  6  7  1  1  0  0  0
  6  2  1  0  0  0  0
  6  8  1  0  0  0  0
  8 17  1  0  0  0  0
  9 11  1  0  0  0  0
 10  4  1  6  0  0  0
 10 12  1  0  0  0  0
 11 18  2  0  0  0  0
 11  4  1  0  0  0  0
 12 28  1  0  0  0  0
 12 24  1  0  0  0  0
 14  9  1  0  0  0  0
 15 23  1  0  0  0  0
 17 13  2  0  0  0  0
 17 16  1  0  0  0  0
 18 26  1  0  0  0  0
 19 22  1  0  0  0  0
 20 33  1  0  0  0  0
 21 25  2  0  0  0  0
 22 18  1  0  0  0  0
 23 34  1  0  0  0  0
 24  7  1  0  0  0  0
 25 20  1  0  0  0  0
 26 10  1  0  0  0  0
 26 32  1  0  0  0  0
 27  3  1  0  0  0  0
 27 14  1  0  0  0  0
 28  6  1  0  0  0  0
 29 19  1  0  0  0  0
 30 24  1  0  0  0  0
 30 23  1  0  0  0  0
 31 16  1  0  0  0  0
 32 30  1  0  0  0  0
 33 28  1  0  0  0  0
 34 35  1  0  0  0  0
 36 37  1  0  0  0  0
M  END
>  <MODEL>
1

>  <REMARK>
 VINA RESULT:      -8.4      0.000      0.000
  Name = 
  2 active torsions:
  status: ('A' for Active; 'I' for Inactive)
    1  A    between atoms: C_1  and  C_23
    2  A    between atoms: C_11  and  C_26
                            x       y       z     vdW  Elec       q    Type
                         _______ _______ _______ _____ _____    ______ ____

>  <TORSDO>
F 2

$$$$
=
 OpenBabel11052415153D

 37 43  0  0  1  0  0  0  0  0999 V2000
  189.6660  177.6750  142.5770 C   0  0  2  0  0  3  0  0  0  0  0  0
  184.0970  179.7760  139.1220 C   0  0  0  0  0  2  0  0  0  0  0  0
  187.6440  176.7500  147.7260 C   0  0  0  0  0  2  0  0  0  0  0  0
  185.3010  178.5310  144.1360 N   0  0  0  0  0  0  0  0  0  0  0  0
  190.2540  177.0840  141.4350 O   0  0  0  0  0  0  0  0  0  0  0  0
  184.3370  178.3790  139.7360 C   0  0  2  0  0  0  0  0  0  0  0  0
  185.7790  177.9780  139.4580 C   0  0  0  0  0  2  0  0  0  0  0  0
  183.4130  177.3200  139.1240 C   0  0  0  0  0  2  0  0  0  0  0  0
  186.0750  179.3770  146.4450 C   0  0  0  0  0  2  0  0  0  0  0  0
  185.8950  177.8700  142.9860 C   0  0  1  0  0  3  0  0  0  0  0  0
  186.3310  178.8340  145.0700 C   0  0  0  0  0  0  0  0  0  0  0  0
  185.6300  178.7370  141.7680 C   0  0  1  0  0  3  0  0  0  0  0  0
  181.0100  176.9140  139.0410 C   0  0  0  0  0  2  0  0  0  0  0  0
  186.0190  178.2470  147.4650 C   0  0  0  0  0  2  0  0  0  0  0  0
  190.1870  177.9860  140.4630 O   0  0  0  0  0  0  0  0  0  0  0  0
  181.7510  179.1590  138.4490 C   0  0  0  0  0  2  0  0  0  0  0  0
  181.9970  177.8030  139.0320 C   0  0  0  0  0  0  0  0  0  0  0  0
  187.5140  178.4180  144.6460 C   0  0  0  0  0  0  0  0  0  0  0  0
  189.2580  177.0520  145.8070 C   0  0  0  0  0  2  0  0  0  0  0  0
  182.9550  178.6700  143.2870 O   0  0  0  0  0  0  0  0  0  0  0  0
  183.4280  178.6950  145.5260 O   0  0  0  0  0  0  0  0  0  0  0  0
  188.6480  178.3380  145.5110 N   0  0  0  0  0  2  0  0  0  0  0  0
  188.8990  177.8850  139.8980 C   0  0  2  0  0  3  0  0  0  0  0  0
  186.5930  178.5620  140.6030 C   0  0  1  0  0  3  0  0  0  0  0  0
  183.8780  178.6530  144.3500 C   0  0  0  0  0  0  0  0  0  0  0  0
  187.3970  177.6820  143.3380 C   0  0  2  0  0  3  0  0  0  0  0  0
  187.2800  178.0630  148.0380 O   0  0  0  0  0  0  0  0  0  0  0  0
  184.2710  178.3440  141.2650 C   0  0  1  0  0  3  0  0  0  0  0  0
  189.1020  176.7180  147.2860 C   0  0  0  0  0  2  0  0  0  0  0  0
  187.8210  177.7410  140.9830 C   0  0  2  0  0  3  0  0  0  0  0  0
  182.6240  180.1890  139.1530 C   0  0  0  0  0  2  0  0  0  0  0  0
  188.3120  178.2020  142.3000 N   0  0  2  0  0  0  0  0  0  0  0  0
  183.2120  179.1730  141.9740 C   0  0  0  0  0  2  0  0  0  0  0  0
  188.8270  176.7220  138.9180 C   0  0  0  0  0  2  0  0  0  0  0  0
  189.4190  177.1260  137.5820 C   0  0  0  0  0  1  0  0  0  0  0  0
  191.8260  178.1990  143.7140 C   0  0  0  0  0  1  0  0  0  0  0  0
  190.5580  178.7860  143.1260 C   0  0  0  0  0  2  0  0  0  0  0  0
  1 37  1  6  0  0  0
  2 31  1  0  0  0  0
  3 27  1  0  0  0  0
  4 25  1  0  0  0  0
  4 11  1  0  0  0  0
  5  1  1  0  0  0  0
  6  2  1  6  0  0  0
  6 28  1  0  0  0  0
  7  6  1  0  0  0  0
  7 24  1  0  0  0  0
  8  6  1  0  0  0  0
  9 14  1  0  0  0  0
 10 26  1  0  0  0  0
 10  4  1  1  0  0  0
 11  9  1  0  0  0  0
 12 10  1  0  0  0  0
 14 27  1  0  0  0  0
 15  5  1  0  0  0  0
 16 17  1  0  0  0  0
 16 31  1  0  0  0  0
 17 13  2  0  0  0  0
 17  8  1  0  0  0  0
 18 11  2  0  0  0  0
 18 22  1  0  0  0  0
 19 29  1  0  0  0  0
 20 25  1  0  0  0  0
 22 19  1  0  0  0  0
 23 15  1  0  0  0  0
 23 30  1  0  0  0  0
 24 30  1  0  0  0  0
 24 12  1  0  0  0  0
 25 21  2  0  0  0  0
 26 18  1  0  0  0  0
 28 12  1  0  0  0  0
 28 33  1  0  0  0  0
 29  3  1  0  0  0  0
 30 32  1  0  0  0  0
 32  1  1  0  0  0  0
 32 26  1  0  0  0  0
 33 20  1  0  0  0  0
 34 23  1  0  0  0  0
 35 34  1  0  0  0  0
 37 36  1  0  0  0  0
M  END
>  <MODEL>
2

>  <REMARK>
 VINA RESULT:      -8.3      2.552      8.505
  Name = 
  2 active torsions:
  status: ('A' for Active; 'I' for Inactive)
    1  A    between atoms: C_1  and  C_23
    2  A    between atoms: C_11  and  C_26
                            x       y       z     vdW  Elec       q    Type
                         _______ _______ _______ _____ _____    ______ ____

>  <TORSDO>
F 2

$$$$
=
 OpenBabel11052415153D

 37 43  0  0  1  0  0  0  0  0999 V2000
  185.4230  178.1850  144.3190 C   0  0  2  0  0  3  0  0  0  0  0  0
  189.0420  178.8030  138.4980 C   0  0  0  0  0  2  0  0  0  0  0  0
  180.1340  177.9900  142.4660 C   0  0  0  0  0  2  0  0  0  0  0  0
  183.9220  178.7140  139.8830 N   0  0  0  0  0  0  0  0  0  0  0  0
  186.4510  177.4730  144.9810 O   0  0  0  0  0  0  0  0  0  0  0  0
  188.1840  177.5950  138.9350 C   0  0  2  0  0  0  0  0  0  0  0  0
  188.4250  177.3500  140.4180 C   0  0  0  0  0  2  0  0  0  0  0  0
  188.5570  176.3220  138.1670 C   0  0  0  0  0  2  0  0  0  0  0  0
  181.8380  180.0830  140.5390 C   0  0  0  0  0  2  0  0  0  0  0  0
  184.9440  177.9340  140.5610 C   0  0  1  0  0  3  0  0  0  0  0  0
  183.0930  179.3290  140.8640 C   0  0  0  0  0  0  0  0  0  0  0  0
  186.2960  178.5080  140.1720 C   0  0  1  0  0  3  0  0  0  0  0  0
  188.4890  175.5810  135.8440 C   0  0  0  0  0  2  0  0  0  0  0  0
  180.6220  179.1720  140.6460 C   0  0  0  0  0  2  0  0  0  0  0  0
  187.5720  178.1560  144.7840 O   0  0  0  0  0  0  0  0  0  0  0  0
  189.5160  177.7520  136.2600 C   0  0  0  0  0  2  0  0  0  0  0  0
  188.6950  176.5790  136.6970 C   0  0  0  0  0  0  0  0  0  0  0  0
  183.4670  179.0060  142.0910 C   0  0  0  0  0  0  0  0  0  0  0  0
  182.1230  178.1400  144.0150 C   0  0  0  0  0  2  0  0  0  0  0  0
  184.7100  178.3650  137.5380 O   0  0  0  0  0  0  0  0  0  0  0  0
  182.5320  178.8810  138.0100 O   0  0  0  0  0  0  0  0  0  0  0  0
  182.6380  179.2490  143.2290 N   0  0  0  0  0  2  0  0  0  0  0  0
  188.0700  177.7730  143.5210 C   0  0  2  0  0  3  0  0  0  0  0  0
  187.4350  178.2480  141.1450 C   0  0  1  0  0  3  0  0  0  0  0  0
  183.6920  178.6780  138.4580 C   0  0  0  0  0  0  0  0  0  0  0  0
  184.6090  178.0250  142.0740 C   0  0  2  0  0  3  0  0  0  0  0  0
  180.0640  179.2760  141.9220 O   0  0  0  0  0  0  0  0  0  0  0  0
  186.6740  177.8430  138.8790 C   0  0  1  0  0  3  0  0  0  0  0  0
  180.6030  178.0750  143.9120 C   0  0  0  0  0  2  0  0  0  0  0  0
  186.9450  177.6920  142.4780 C   0  0  2  0  0  3  0  0  0  0  0  0
  189.0450  179.0070  136.9820 C   0  0  0  0  0  2  0  0  0  0  0  0
  185.7530  178.4580  142.9040 N   0  0  2  0  0  0  0  0  0  0  0  0
  186.1030  178.6390  137.7170 C   0  0  0  0  0  2  0  0  0  0  0  0
  188.8110  176.4460  143.6100 C   0  0  0  0  0  2  0  0  0  0  0  0
  190.2610  176.6800  143.9830 C   0  0  0  0  0  1  0  0  0  0  0  0
  185.2460  179.3000  146.5460 C   0  0  0  0  0  1  0  0  0  0  0  0
  185.1200  179.4920  145.0480 C   0  0  0  0  0  2  0  0  0  0  0  0
  1  5  1  0  0  0  0
  1 37  1  1  0  0  0
  2  6  1  0  0  0  0
  3 29  1  0  0  0  0
  4 11  1  0  0  0  0
  6  8  1  6  0  0  0
  6  7  1  0  0  0  0
  7 24  1  0  0  0  0
  9 14  1  0  0  0  0
  9 11  1  0  0  0  0
 10  4  1  6  0  0  0
 10 26  1  0  0  0  0
 11 18  2  0  0  0  0
 12 10  1  0  0  0  0
 12 24  1  0  0  0  0
 13 17  2  0  0  0  0
 14 27  1  0  0  0  0
 15  5  1  0  0  0  0
 16 17  1  0  0  0  0
 16 31  1  0  0  0  0
 17  8  1  0  0  0  0
 18 22  1  0  0  0  0
 20 33  1  0  0  0  0
 20 25  1  0  0  0  0
 21 25  2  0  0  0  0
 22 19  1  0  0  0  0
 23 34  1  0  0  0  0
 23 15  1  0  0  0  0
 24 30  1  0  0  0  0
 25  4  1  0  0  0  0
 26 18  1  0  0  0  0
 26 32  1  0  0  0  0
 27  3  1  0  0  0  0
 28  6  1  0  0  0  0
 28 12  1  0  0  0  0
 29 19  1  0  0  0  0
 30 32  1  0  0  0  0
 30 23  1  0  0  0  0
 31  2  1  0  0  0  0
 32  1  1  0  0  0  0
 33 28  1  0  0  0  0
 34 35  1  0  0  0  0
 37 36  1  0  0  0  0
M  END
>  <MODEL>
3

>  <REMARK>
 VINA RESULT:      -6.1      2.600      6.585
  Name = 
  2 active torsions:
  status: ('A' for Active; 'I' for Inactive)
    1  A    between atoms: C_1  and  C_23
    2  A    between atoms: C_11  and  C_26
                            x       y       z     vdW  Elec       q    Type
                         _______ _______ _______ _____ _____    ______ ____

>  <TORSDO>
F 2

$$$$
=
 OpenBabel11052415153D

 37 43  0  0  1  0  0  0  0  0999 V2000
  190.3950  177.5800  142.7280 C   0  0  2  0  0  3  0  0  0  0  0  0
  187.9750  178.7700  136.3960 C   0  0  0  0  0  2  0  0  0  0  0  0
  185.7170  177.3490  145.8110 C   0  0  0  0  0  2  0  0  0  0  0  0
  185.9790  178.4000  141.2970 N   0  0  0  0  0  0  0  0  0  0  0  0
  191.5130  176.8540  142.2540 O   0  0  0  0  0  0  0  0  0  0  0  0
  187.7540  177.5030  137.2520 C   0  0  2  0  0  0  0  0  0  0  0  0
  189.0690  177.1520  137.9330 C   0  0  0  0  0  2  0  0  0  0  0  0
  187.3160  176.3070  136.4000 C   0  0  0  0  0  2  0  0  0  0  0  0
  185.2990  179.6420  143.4520 C   0  0  0  0  0  2  0  0  0  0  0  0
  187.1040  177.6040  140.8330 C   0  0  1  0  0  3  0  0  0  0  0  0
  186.2850  178.9080  142.5920 C   0  0  0  0  0  0  0  0  0  0  0  0
  187.6350  178.2530  139.5660 C   0  0  1  0  0  3  0  0  0  0  0  0
  185.3950  175.7460  135.0050 C   0  0  0  0  0  2  0  0  0  0  0  0
  184.6120  178.6850  144.4170 C   0  0  0  0  0  2  0  0  0  0  0  0
  192.0620  177.5880  141.2940 O   0  0  0  0  0  0  0  0  0  0  0  0
  186.4360  177.9120  134.5970 C   0  0  0  0  0  2  0  0  0  0  0  0
  186.2400  176.6820  135.4260 C   0  0  0  0  0  0  0  0  0  0  0  0
  187.4740  178.5030  143.0070 C   0  0  0  0  0  0  0  0  0  0  0  0
  188.1570  177.4460  145.1690 C   0  0  0  0  0  2  0  0  0  0  0  0
  184.5760  178.2610  139.2360 O   0  0  0  0  0  0  0  0  0  0  0  0
  183.6570  178.6640  141.2920 O   0  0  0  0  0  0  0  0  0  0  0  0
  187.8890  178.6300  144.3690 N   0  0  0  0  0  2  0  0  0  0  0  0
  191.3420  177.3210  140.1100 C   0  0  2  0  0  3  0  0  0  0  0  0
  189.0880  177.9570  139.2240 C   0  0  1  0  0  3  0  0  0  0  0  0
  184.7050  178.4660  140.6230 C   0  0  0  0  0  0  0  0  0  0  0  0
  188.1100  177.5660  142.0160 C   0  0  2  0  0  3  0  0  0  0  0  0
  185.2940  178.6700  145.6360 O   0  0  0  0  0  0  0  0  0  0  0  0
  186.8070  177.7040  138.4400 C   0  0  1  0  0  3  0  0  0  0  0  0
  187.1550  177.3370  146.3120 C   0  0  0  0  0  2  0  0  0  0  0  0
  189.8290  177.2830  140.3740 C   0  0  2  0  0  3  0  0  0  0  0  0
  186.7780  179.0910  135.4990 C   0  0  0  0  0  2  0  0  0  0  0  0
  189.4790  177.9730  141.6350 N   0  0  2  0  0  0  0  0  0  0  0  0
  185.5700  178.5670  138.2550 C   0  0  0  0  0  2  0  0  0  0  0  0
  191.8060  176.0170  139.4760 C   0  0  0  0  0  2  0  0  0  0  0  0
  192.6430  176.3030  138.2460 C   0  0  0  0  0  1  0  0  0  0  0  0
  191.6830  178.4090  144.7000 C   0  0  0  0  0  1  0  0  0  0  0  0
  190.8460  178.8150  143.5030 C   0  0  0  0  0  2  0  0  0  0  0  0
  1 37  1  6  0  0  0
  3 29  1  0  0  0  0
  4 11  1  0  0  0  0
  5  1  1  0  0  0  0
  6  2  1  6  0  0  0
  6  7  1  0  0  0  0
  6 28  1  0  0  0  0
  7 24  1  0  0  0  0
  8  6  1  0  0  0  0
  9 14  1  0  0  0  0
 10  4  1  1  0  0  0
 10 26  1  0  0  0  0
 11 18  2  0  0  0  0
 11  9  1  0  0  0  0
 12 10  1  0  0  0  0
 13 17  2  0  0  0  0
 14 27  1  0  0  0  0
 15  5  1  0  0  0  0
 16 17  1  0  0  0  0
 16 31  1  0  0  0  0
 17  8  1  0  0  0  0
 18 22  1  0  0  0  0
 19 29  1  0  0  0  0
 20 25  1  0  0  0  0
 22 19  1  0  0  0  0
 23 30  1  0  0  0  0
 23 15  1  0  0  0  0
 24 12  1  0  0  0  0
 24 30  1  0  0  0  0
 25 21  2  0  0  0  0
 25  4  1  0  0  0  0
 26 18  1  0  0  0  0
 27  3  1  0  0  0  0
 28 12  1  0  0  0  0
 30 32  1  0  0  0  0
 31  2  1  0  0  0  0
 32 26  1  0  0  0  0
 32  1  1  0  0  0  0
 33 28  1  0  0  0  0
 33 20  1  0  0  0  0
 34 23  1  0  0  0  0
 35 34  1  0  0  0  0
 37 36  1  0  0  0  0
M  END
>  <MODEL>
4

>  <REMARK>
 VINA RESULT:      -6.0      1.955      7.854
  Name = 
  2 active torsions:
  status: ('A' for Active; 'I' for Inactive)
    1  A    between atoms: C_1  and  C_23
    2  A    between atoms: C_11  and  C_26
                            x       y       z     vdW  Elec       q    Type
                         _______ _______ _______ _____ _____    ______ ____

>  <TORSDO>
F 2

$$$$
=
 OpenBabel11052415153D

 37 43  0  0  1  0  0  0  0  0999 V2000
  185.4800  177.8780  137.1210 C   0  0  2  0  0  3  0  0  0  0  0  0
  189.7850  176.3130  142.2570 C   0  0  0  0  0  2  0  0  0  0  0  0
  181.2850  180.4820  139.7800 C   0  0  0  0  0  2  0  0  0  0  0  0
  184.9550  178.4520  141.7700 N   0  0  0  0  0  0  0  0  0  0  0  0
  186.5250  178.0190  136.1770 O   0  0  0  0  0  0  0  0  0  0  0  0
  189.4030  177.7260  141.7630 C   0  0  2  0  0  0  0  0  0  0  0  0
  189.3740  177.7070  140.2410 C   0  0  0  0  0  2  0  0  0  0  0  0
  190.4180  178.7830  142.2140 C   0  0  0  0  0  2  0  0  0  0  0  0
  182.4080  178.0490  141.7340 C   0  0  0  0  0  2  0  0  0  0  0  0
  186.0180  178.6550  140.7990 C   0  0  1  0  0  3  0  0  0  0  0  0
  183.7490  178.1620  141.0700 C   0  0  0  0  0  0  0  0  0  0  0  0
  187.0780  177.5970  141.0490 C   0  0  1  0  0  3  0  0  0  0  0  0
  191.1850  179.6920  144.3440 C   0  0  0  0  0  2  0  0  0  0  0  0
  181.6660  179.3780  141.6730 C   0  0  0  0  0  2  0  0  0  0  0  0
  187.2940  176.9440  136.3000 O   0  0  0  0  0  0  0  0  0  0  0  0
  191.1380  177.2620  144.1570 C   0  0  0  0  0  2  0  0  0  0  0  0
  190.7750  178.6280  143.6620 C   0  0  0  0  0  0  0  0  0  0  0  0
  183.9280  178.1800  139.7590 C   0  0  0  0  0  0  0  0  0  0  0  0
  182.6370  179.3560  137.9680 C   0  0  0  0  0  2  0  0  0  0  0  0
  186.3320  178.6450  143.8450 O   0  0  0  0  0  0  0  0  0  0  0  0
  184.0830  179.0670  143.8500 O   0  0  0  0  0  0  0  0  0  0  0  0
  182.8330  178.2100  138.8410 N   0  0  0  0  0  2  0  0  0  0  0  0
  188.1780  177.1920  137.3710 C   0  0  2  0  0  3  0  0  0  0  0  0
  187.9710  177.2550  139.8650 C   0  0  1  0  0  3  0  0  0  0  0  0
  185.0910  178.7140  143.1830 C   0  0  0  0  0  0  0  0  0  0  0  0
  185.3360  178.5760  139.4050 C   0  0  2  0  0  3  0  0  0  0  0  0
  180.8360  179.4060  140.5500 O   0  0  0  0  0  0  0  0  0  0  0  0
  187.9750  178.1520  142.1180 C   0  0  1  0  0  3  0  0  0  0  0  0
  181.3360  180.0720  138.3140 C   0  0  0  0  0  2  0  0  0  0  0  0
  187.4510  177.8420  138.5570 C   0  0  2  0  0  3  0  0  0  0  0  0
  190.0540  176.2680  143.7630 C   0  0  0  0  0  2  0  0  0  0  0  0
  185.9890  177.6220  138.4850 N   0  0  2  0  0  0  0  0  0  0  0  0
  187.4190  177.7880  143.4840 C   0  0  0  0  0  2  0  0  0  0  0  0
  189.3440  178.0620  136.9200 C   0  0  0  0  0  2  0  0  0  0  0  0
  189.0550  179.5190  137.2180 C   0  0  0  0  0  1  0  0  0  0  0  0
  183.9050  177.0830  135.3540 C   0  0  0  0  0  1  0  0  0  0  0  0
  184.5240  176.7650  136.7010 C   0  0  0  0  0  2  0  0  0  0  0  0
  1 37  1  6  0  0  0
  1 32  1  0  0  0  0
  2 31  1  0  0  0  0
  3 27  1  0  0  0  0
  4 25  1  0  0  0  0
  5 15  1  0  0  0  0
  5  1  1  0  0  0  0
  6  7  1  6  0  0  0
  6 28  1  0  0  0  0
  6  8  1  0  0  0  0
  6  2  1  0  0  0  0
  8 17  1  0  0  0  0
 10 12  1  0  0  0  0
 10  4  1  1  0  0  0
 11  9  1  0  0  0  0
 11  4  1  0  0  0  0
 12 28  1  0  0  0  0
 14  9  1  0  0  0  0
 15 23  1  0  0  0  0
 17 16  1  0  0  0  0
 17 13  2  0  0  0  0
 18 11  2  0  0  0  0
 19 29  1  0  0  0  0
 19 22  1  0  0  0  0
 22 18  1  0  0  0  0
 23 30  1  0  0  0  0
 24  7  1  0  0  0  0
 24 12  1  0  0  0  0
 25 20  1  0  0  0  0
 25 21  2  0  0  0  0
 26 18  1  0  0  0  0
 26 10  1  0  0  0  0
 27 14  1  0  0  0  0
 28 33  1  0  0  0  0
 29  3  1  0  0  0  0
 30 24  1  0  0  0  0
 31 16  1  0  0  0  0
 32 30  1  0  0  0  0
 32 26  1  0  0  0  0
 33 20  1  0  0  0  0
 34 35  1  0  0  0  0
 34 23  1  0  0  0  0
 36 37  1  0  0  0  0
M  END
>  <MODEL>
5

>  <REMARK>
 VINA RESULT:      -6.0      1.835      5.366
  Name = 
  2 active torsions:
  status: ('A' for Active; 'I' for Inactive)
    1  A    between atoms: C_1  and  C_23
    2  A    between atoms: C_11  and  C_26
                            x       y       z     vdW  Elec       q    Type
                         _______ _______ _______ _____ _____    ______ ____

>  <TORSDO>
F 2

$$$$
=
 OpenBabel11052415153D

 37 43  0  0  1  0  0  0  0  0999 V2000
  183.0820  178.6340  143.5340 C   0  0  2  0  0  3  0  0  0  0  0  0
  189.8820  179.1000  144.4880 C   0  0  0  0  0  2  0  0  0  0  0  0
  182.7010  176.9220  138.2070 C   0  0  0  0  0  2  0  0  0  0  0  0
  186.6010  178.0630  140.4500 N   0  0  0  0  0  0  0  0  0  0  0  0
  182.8320  178.2970  144.8850 O   0  0  0  0  0  0  0  0  0  0  0  0
  189.0680  177.8160  144.2140 C   0  0  2  0  0  0  0  0  0  0  0  0
  187.7850  177.8810  145.0310 C   0  0  0  0  0  2  0  0  0  0  0  0
  189.8380  176.5550  144.6210 C   0  0  0  0  0  2  0  0  0  0  0  0
  185.2700  179.0040  138.4520 C   0  0  0  0  0  2  0  0  0  0  0  0
  186.3290  177.6620  141.8210 C   0  0  1  0  0  3  0  0  0  0  0  0
  185.4150  178.6230  139.8960 C   0  0  0  0  0  0  0  0  0  0  0  0
  187.2520  178.4610  142.7260 C   0  0  1  0  0  3  0  0  0  0  0  0
  191.8960  175.4450  143.9280 C   0  0  0  0  0  2  0  0  0  0  0  0
  184.6380  177.8680  137.6590 C   0  0  0  0  0  2  0  0  0  0  0  0
  183.4940  179.1780  145.6240 O   0  0  0  0  0  0  0  0  0  0  0  0
  192.0550  177.8320  144.3930 C   0  0  0  0  0  2  0  0  0  0  0  0
  191.2580  176.5900  144.1430 C   0  0  0  0  0  0  0  0  0  0  0  0
  184.4140  178.6020  140.7610 C   0  0  0  0  0  0  0  0  0  0  0  0
  182.0670  177.7790  140.4960 C   0  0  0  0  0  2  0  0  0  0  0  0
  189.0400  177.5240  140.4030 O   0  0  0  0  0  0  0  0  0  0  0  0
  187.7860  177.5940  138.4910 O   0  0  0  0  0  0  0  0  0  0  0  0
  183.0610  178.8330  140.3650 N   0  0  0  0  0  2  0  0  0  0  0  0
  184.8250  178.7170  145.7170 C   0  0  2  0  0  3  0  0  0  0  0  0
  186.7870  178.6350  144.1640 C   0  0  1  0  0  3  0  0  0  0  0  0
  187.8160  177.7400  139.7410 C   0  0  0  0  0  0  0  0  0  0  0  0
  184.8140  177.9220  142.0430 C   0  0  2  0  0  3  0  0  0  0  0  0
  183.2550  178.0490  137.5930 O   0  0  0  0  0  0  0  0  0  0  0  0
  188.5440  177.6970  142.7800 C   0  0  1  0  0  3  0  0  0  0  0  0
  181.5620  177.3500  139.1230 C   0  0  0  0  0  2  0  0  0  0  0  0
  185.3360  178.2080  144.3620 C   0  0  2  0  0  3  0  0  0  0  0  0
  191.2880  179.0470  143.8860 C   0  0  0  0  0  2  0  0  0  0  0  0
  184.5280  178.7380  143.2420 N   0  0  2  0  0  0  0  0  0  0  0  0
  189.4380  178.1360  141.6320 C   0  0  0  0  0  2  0  0  0  0  0  0
  184.9480  177.6300  146.7760 C   0  0  0  0  0  2  0  0  0  0  0  0
  186.0230  177.9970  147.7790 C   0  0  0  0  0  1  0  0  0  0  0  0
  180.8740  179.7550  143.2130 C   0  0  0  0  0  1  0  0  0  0  0  0
  182.3780  179.9380  143.1660 C   0  0  0  0  0  2  0  0  0  0  0  0
  1 37  1  1  0  0  0
  1  5  1  0  0  0  0
  3 29  1  0  0  0  0
  5 15  1  0  0  0  0
  6  2  1  1  0  0  0
  6  8  1  0  0  0  0
  6  7  1  0  0  0  0
  9 11  1  0  0  0  0
 10  4  1  6  0  0  0
 10 26  1  0  0  0  0
 10 12  1  0  0  0  0
 11  4  1  0  0  0  0
 11 18  2  0  0  0  0
 12 28  1  0  0  0  0
 12 24  1  0  0  0  0
 13 17  2  0  0  0  0
 14  9  1  0  0  0  0
 15 23  1  0  0  0  0
 17 16  1  0  0  0  0
 17  8  1  0  0  0  0
 18 26  1  0  0  0  0
 20 33  1  0  0  0  0
 21 25  2  0  0  0  0
 22 19  1  0  0  0  0
 22 18  1  0  0  0  0
 23 34  1  0  0  0  0
 24 30  1  0  0  0  0
 24  7  1  0  0  0  0
 25 20  1  0  0  0  0
 25  4  1  0  0  0  0
 26 32  1  0  0  0  0
 27 14  1  0  0  0  0
 27  3  1  0  0  0  0
 28  6  1  0  0  0  0
 29 19  1  0  0  0  0
 30 23  1  0  0  0  0
 31 16  1  0  0  0  0
 31  2  1  0  0  0  0
 32  1  1  0  0  0  0
 32 30  1  0  0  0  0
 33 28  1  0  0  0  0
 34 35  1  0  0  0  0
 37 36  1  0  0  0  0
M  END
>  <MODEL>
6

>  <REMARK>
 VINA RESULT:      -5.8      2.197      3.415
  Name = 
  2 active torsions:
  status: ('A' for Active; 'I' for Inactive)
    1  A    between atoms: C_1  and  C_23
    2  A    between atoms: C_11  and  C_26
                            x       y       z     vdW  Elec       q    Type
                         _______ _______ _______ _____ _____    ______ ____

>  <TORSDO>
F 2

$$$$
=
 OpenBabel11052415153D

 37 43  0  0  1  0  0  0  0  0999 V2000
  185.8660  174.2050  136.6390 C   0  0  2  0  0  3  0  0  0  0  0  0
  182.1800  179.0060  139.9160 C   0  0  0  0  0  2  0  0  0  0  0  0
  181.9100  170.7770  134.6250 C   0  0  0  0  0  2  0  0  0  0  0  0
  181.2190  174.4380  137.3950 N   0  0  0  0  0  0  0  0  0  0  0  0
  186.9010  175.1100  136.3050 O   0  0  0  0  0  0  0  0  0  0  0  0
  182.1960  178.7220  138.3970 C   0  0  2  0  0  0  0  0  0  0  0  0
  183.6360  178.4680  137.9740 C   0  0  0  0  0  2  0  0  0  0  0  0
  181.6560  179.9080  137.5890 C   0  0  0  0  0  2  0  0  0  0  0  0
  180.9210  171.8840  137.5910 C   0  0  0  0  0  2  0  0  0  0  0  0
  182.2670  175.3630  136.9950 C   0  0  1  0  0  3  0  0  0  0  0  0
  181.7510  173.1170  137.3850 C   0  0  0  0  0  0  0  0  0  0  0  0
  182.5030  176.3190  138.1520 C   0  0  1  0  0  3  0  0  0  0  0  0
  179.5260  181.0790  137.3890 C   0  0  0  0  0  2  0  0  0  0  0  0
  180.4870  171.3010  136.2530 C   0  0  0  0  0  2  0  0  0  0  0  0
  187.2120  175.7580  137.4200 O   0  0  0  0  0  0  0  0  0  0  0  0
  180.3580  180.7230  139.6520 C   0  0  0  0  0  2  0  0  0  0  0  0
  180.3910  180.4530  138.1800 C   0  0  0  0  0  0  0  0  0  0  0  0
  183.0170  173.1030  137.0020 C   0  0  0  0  0  0  0  0  0  0  0  0
  184.1670  171.7080  135.2730 C   0  0  0  0  0  2  0  0  0  0  0  0
  179.4420  176.1170  137.9060 O   0  0  0  0  0  0  0  0  0  0  0  0
  178.9320  173.9580  137.3470 O   0  0  0  0  0  0  0  0  0  0  0  0
  183.6870  171.8960  136.6320 N   0  0  0  0  0  2  0  0  0  0  0  0
  186.2850  176.8130  137.5540 C   0  0  2  0  0  3  0  0  0  0  0  0
  183.8710  176.9820  138.2000 C   0  0  1  0  0  3  0  0  0  0  0  0
  179.8340  174.8100  137.5620 C   0  0  0  0  0  0  0  0  0  0  0  0
  183.4880  174.4800  136.6200 C   0  0  2  0  0  3  0  0  0  0  0  0
  181.3980  170.3240  135.8440 O   0  0  0  0  0  0  0  0  0  0  0  0
  181.4960  177.4210  137.9920 C   0  0  1  0  0  3  0  0  0  0  0  0
  183.4180  170.5650  134.5970 C   0  0  0  0  0  2  0  0  0  0  0  0
  184.8580  176.3480  137.2260 C   0  0  2  0  0  3  0  0  0  0  0  0
  180.8150  179.4850  140.4120 C   0  0  0  0  0  2  0  0  0  0  0  0
  184.7330  174.8760  137.3120 N   0  0  2  0  0  0  0  0  0  0  0  0
  180.2060  177.0320  138.6960 C   0  0  0  0  0  2  0  0  0  0  0  0
  186.6760  177.9930  136.6750 C   0  0  0  0  0  2  0  0  0  0  0  0
  188.0730  178.4660  137.0260 C   0  0  0  0  0  1  0  0  0  0  0  0
  187.5220  172.3440  136.8010 C   0  0  0  0  0  1  0  0  0  0  0  0
  186.4010  173.0750  137.5140 C   0  0  0  0  0  2  0  0  0  0  0  0
  1 32  1  0  0  0  0
  1 37  1  1  0  0  0
  2 31  1  0  0  0  0
  3 27  1  0  0  0  0
  4 25  1  0  0  0  0
  5  1  1  0  0  0  0
  5 15  1  0  0  0  0
  6  8  1  6  0  0  0
  6  2  1  0  0  0  0
  7 24  1  0  0  0  0
  7  6  1  0  0  0  0
  8 17  1  0  0  0  0
 10  4  1  1  0  0  0
 10 12  1  0  0  0  0
 11  4  1  0  0  0  0
 11  9  1  0  0  0  0
 12 24  1  0  0  0  0
 13 17  2  0  0  0  0
 14  9  1  0  0  0  0
 15 23  1  0  0  0  0
 16 31  1  0  0  0  0
 17 16  1  0  0  0  0
 18 11  2  0  0  0  0
 19 22  1  0  0  0  0
 20 33  1  0  0  0  0
 21 25  2  0  0  0  0
 22 18  1  0  0  0  0
 25 20  1  0  0  0  0
 26 10  1  0  0  0  0
 26 18  1  0  0  0  0
 26 32  1  0  0  0  0
 27 14  1  0  0  0  0
 28 12  1  0  0  0  0
 28  6  1  0  0  0  0
 28 33  1  0  0  0  0
 29  3  1  0  0  0  0
 29 19  1  0  0  0  0
 30 32  1  0  0  0  0
 30 23  1  0  0  0  0
 30 24  1  0  0  0  0
 34 35  1  0  0  0  0
 34 23  1  0  0  0  0
 36 37  1  0  0  0  0
M  END
>  <MODEL>
7

>  <REMARK>
 VINA RESULT:      -5.7      4.887      8.886
  Name = 
  2 active torsions:
  status: ('A' for Active; 'I' for Inactive)
    1  A    between atoms: C_1  and  C_23
    2  A    between atoms: C_11  and  C_26
                            x       y       z     vdW  Elec       q    Type
                         _______ _______ _______ _____ _____    ______ ____

>  <TORSDO>
F 2

$$$$
=
 OpenBabel11052415153D

 37 43  0  0  1  0  0  0  0  0999 V2000
  190.9410  176.8300  139.8650 C   0  0  2  0  0  3  0  0  0  0  0  0
  184.8060  179.6850  138.6120 C   0  0  0  0  0  2  0  0  0  0  0  0
  190.7220  175.8080  145.3750 C   0  0  0  0  0  2  0  0  0  0  0  0
  187.5090  178.0270  142.8650 N   0  0  0  0  0  0  0  0  0  0  0  0
  191.0280  176.2510  138.5770 O   0  0  0  0  0  0  0  0  0  0  0  0
  185.0800  178.2370  139.0750 C   0  0  2  0  0  0  0  0  0  0  0  0
  186.2810  177.7090  138.3030 C   0  0  0  0  0  2  0  0  0  0  0  0
  183.8860  177.3150  138.8010 C   0  0  0  0  0  2  0  0  0  0  0  0
  189.1230  178.6510  144.7770 C   0  0  0  0  0  2  0  0  0  0  0  0
  187.5910  177.3790  141.5670 C   0  0  1  0  0  3  0  0  0  0  0  0
  188.8260  178.1680  143.3880 C   0  0  0  0  0  0  0  0  0  0  0  0
  187.0250  178.3400  140.5360 C   0  0  1  0  0  3  0  0  0  0  0  0
  181.5710  177.1590  139.5530 C   0  0  0  0  0  2  0  0  0  0  0  0
  189.2910  177.4740  145.7290 C   0  0  0  0  0  2  0  0  0  0  0  0
  190.7360  177.2120  137.7090 O   0  0  0  0  0  0  0  0  0  0  0  0
  182.3170  179.3490  138.7860 C   0  0  0  0  0  2  0  0  0  0  0  0
  182.5910  177.9430  139.2190 C   0  0  0  0  0  0  0  0  0  0  0  0
  189.7330  177.6610  142.5690 C   0  0  0  0  0  0  0  0  0  0  0  0
  191.6010  176.0600  143.0210 C   0  0  0  0  0  2  0  0  0  0  0  0
  185.0480  178.4530  142.8900 O   0  0  0  0  0  0  0  0  0  0  0  0
  186.2610  178.2970  144.8240 O   0  0  0  0  0  0  0  0  0  0  0  0
  191.0790  177.4160  142.9820 N   0  0  0  0  0  2  0  0  0  0  0  0
  189.3290  177.2760  137.6260 C   0  0  2  0  0  3  0  0  0  0  0  0
  187.5010  178.1390  139.1050 C   0  0  1  0  0  3  0  0  0  0  0  0
  186.2710  178.2790  143.5650 C   0  0  0  0  0  0  0  0  0  0  0  0
  189.0890  177.0200  141.3690 C   0  0  2  0  0  3  0  0  0  0  0  0
  190.6420  177.1300  145.8220 O   0  0  0  0  0  0  0  0  0  0  0  0
  185.5400  178.1170  140.5300 C   0  0  1  0  0  3  0  0  0  0  0  0
  191.9250  175.6550  144.4540 C   0  0  0  0  0  2  0  0  0  0  0  0
  188.6820  177.1770  139.0150 C   0  0  2  0  0  3  0  0  0  0  0  0
  183.4920  180.2420  139.1640 C   0  0  0  0  0  2  0  0  0  0  0  0
  189.6450  177.5060  140.0890 N   0  0  2  0  0  0  0  0  0  0  0  0
  184.8930  179.0050  141.5800 C   0  0  0  0  0  2  0  0  0  0  0  0
  188.7910  176.1870  136.7080 C   0  0  0  0  0  2  0  0  0  0  0  0
  188.4380  176.7700  135.3550 C   0  0  0  0  0  1  0  0  0  0  0  0
  193.4220  177.1140  139.8970 C   0  0  0  0  0  1  0  0  0  0  0  0
  192.0900  177.8100  140.0920 C   0  0  0  0  0  2  0  0  0  0  0  0
  1 32  1  0  0  0  0
  1 37  1  6  0  0  0
  2  6  1  0  0  0  0
  2 31  1  0  0  0  0
  3 27  1  0  0  0  0
  4 11  1  0  0  0  0
  4 25  1  0  0  0  0
  5  1  1  0  0  0  0
  6  7  1  6  0  0  0
  6 28  1  0  0  0  0
  7 24  1  0  0  0  0
  8  6  1  0  0  0  0
  8 17  1  0  0  0  0
  9 14  1  0  0  0  0
 10  4  1  1  0  0  0
 11  9  1  0  0  0  0
 12 10  1  0  0  0  0
 14 27  1  0  0  0  0
 15  5  1  0  0  0  0
 16 31  1  0  0  0  0
 16 17  1  0  0  0  0
 17 13  2  0  0  0  0
 18 22  1  0  0  0  0
 18 11  2  0  0  0  0
 19 29  1  0  0  0  0
 20 25  1  0  0  0  0
 22 19  1  0  0  0  0
 23 15  1  0  0  0  0
 23 30  1  0  0  0  0
 24 12  1  0  0  0  0
 25 21  2  0  0  0  0
 26 10  1  0  0  0  0
 26 18  1  0  0  0  0
 28 12  1  0  0  0  0
 28 33  1  0  0  0  0
 29  3  1  0  0  0  0
 30 24  1  0  0  0  0
 30 32  1  0  0  0  0
 32 26  1  0  0  0  0
 33 20  1  0  0  0  0
 34 23  1  0  0  0  0
 35 34  1  0  0  0  0
 36 37  1  0  0  0  0
M  END
>  <MODEL>
8

>  <REMARK>
 VINA RESULT:      -5.6      2.023      7.894
  Name = 
  2 active torsions:
  status: ('A' for Active; 'I' for Inactive)
    1  A    between atoms: C_1  and  C_23
    2  A    between atoms: C_11  and  C_26
                            x       y       z     vdW  Elec       q    Type
                         _______ _______ _______ _____ _____    ______ ____

>  <TORSDO>
F 2

$$$$
=
 OpenBabel11052415153D

 37 43  0  0  1  0  0  0  0  0999 V2000
  187.9270  177.9250  142.5790 C   0  0  2  0  0  3  0  0  0  0  0  0
  181.0660  177.6160  143.0260 C   0  0  0  0  0  2  0  0  0  0  0  0
  188.7510  179.2610  137.1950 C   0  0  0  0  0  2  0  0  0  0  0  0
  184.6680  178.3300  139.1970 N   0  0  0  0  0  0  0  0  0  0  0  0
  188.0780  178.3500  143.9200 O   0  0  0  0  0  0  0  0  0  0  0  0
  181.9230  178.8680  142.7310 C   0  0  2  0  0  0  0  0  0  0  0  0
  183.1370  178.8420  143.6480 C   0  0  0  0  0  2  0  0  0  0  0  0
  181.1470  180.1650  142.9900 C   0  0  0  0  0  2  0  0  0  0  0  0
  186.1320  177.2360  137.3780 C   0  0  0  0  0  2  0  0  0  0  0  0
  184.8410  178.8200  140.5550 C   0  0  1  0  0  3  0  0  0  0  0  0
  185.8830  177.7170  138.7770 C   0  0  0  0  0  0  0  0  0  0  0  0
  183.8360  178.0980  141.4360 C   0  0  1  0  0  3  0  0  0  0  0  0
  179.1700  181.2510  142.0640 C   0  0  0  0  0  2  0  0  0  0  0  0
  186.8450  178.3060  136.5620 C   0  0  0  0  0  2  0  0  0  0  0  0
  187.3440  177.5320  144.6630 O   0  0  0  0  0  0  0  0  0  0  0  0
  178.9310  178.9040  142.6750 C   0  0  0  0  0  2  0  0  0  0  0  0
  179.7680  180.1150  142.4050 C   0  0  0  0  0  0  0  0  0  0  0  0
  186.8140  177.7840  139.7150 C   0  0  0  0  0  0  0  0  0  0  0  0
  189.1900  178.5550  139.5800 C   0  0  0  0  0  2  0  0  0  0  0  0
  182.2510  178.8970  138.9230 O   0  0  0  0  0  0  0  0  0  0  0  0
  183.6470  178.6780  137.1240 O   0  0  0  0  0  0  0  0  0  0  0  0
  188.1900  177.5090  139.4430 N   0  0  0  0  0  2  0  0  0  0  0  0
  186.0190  178.0150  144.6200 C   0  0  2  0  0  3  0  0  0  0  0  0
  184.1840  178.0170  142.9150 C   0  0  1  0  0  3  0  0  0  0  0  0
  183.5180  178.6190  138.3750 C   0  0  0  0  0  0  0  0  0  0  0  0
  186.3290  178.5560  140.9120 C   0  0  2  0  0  3  0  0  0  0  0  0
  188.2260  178.1030  136.6170 O   0  0  0  0  0  0  0  0  0  0  0  0
  182.5580  178.8810  141.3370 C   0  0  1  0  0  3  0  0  0  0  0  0
  189.8070  178.8820  138.2250 C   0  0  0  0  0  2  0  0  0  0  0  0
  185.6240  178.4370  143.1970 C   0  0  2  0  0  3  0  0  0  0  0  0
  179.7120  177.6470  142.3140 C   0  0  0  0  0  2  0  0  0  0  0  0
  186.5060  177.8200  142.1820 N   0  0  2  0  0  0  0  0  0  0  0  0
  181.7480  178.3760  140.1550 C   0  0  0  0  0  2  0  0  0  0  0  0
  185.8350  179.1740  145.5900 C   0  0  0  0  0  2  0  0  0  0  0  0
  185.6760  178.6530  147.0040 C   0  0  0  0  0  1  0  0  0  0  0  0
  190.0920  176.6930  142.7540 C   0  0  0  0  0  1  0  0  0  0  0  0
  188.6330  176.5900  142.3560 C   0  0  0  0  0  2  0  0  0  0  0  0
  1 37  1  1  0  0  0
  1  5  1  0  0  0  0
  3 29  1  0  0  0  0
  5 15  1  0  0  0  0
  6  8  1  1  0  0  0
  6  2  1  0  0  0  0
  6  7  1  0  0  0  0
  9 11  1  0  0  0  0
 10  4  1  6  0  0  0
 10 26  1  0  0  0  0
 10 12  1  0  0  0  0
 11  4  1  0  0  0  0
 11 18  2  0  0  0  0
 12 24  1  0  0  0  0
 13 17  2  0  0  0  0
 14 27  1  0  0  0  0
 14  9  1  0  0  0  0
 17 16  1  0  0  0  0
 17  8  1  0  0  0  0
 18 26  1  0  0  0  0
 20 33  1  0  0  0  0
 21 25  2  0  0  0  0
 22 19  1  0  0  0  0
 22 18  1  0  0  0  0
 23 15  1  0  0  0  0
 23 34  1  0  0  0  0
 24 30  1  0  0  0  0
 24  7  1  0  0  0  0
 25 20  1  0  0  0  0
 25  4  1  0  0  0  0
 26 32  1  0  0  0  0
 27  3  1  0  0  0  0
 28 12  1  0  0  0  0
 28  6  1  0  0  0  0
 29 19  1  0  0  0  0
 30 23  1  0  0  0  0
 31 16  1  0  0  0  0
 31  2  1  0  0  0  0
 32  1  1  0  0  0  0
 32 30  1  0  0  0  0
 33 28  1  0  0  0  0
 34 35  1  0  0  0  0
 37 36  1  0  0  0  0
M  END
>  <MODEL>
9

>  <REMARK>
 VINA RESULT:      -5.6      2.754      6.762
  Name = 
  2 active torsions:
  status: ('A' for Active; 'I' for Inactive)
    1  A    between atoms: C_1  and  C_23
    2  A    between atoms: C_11  and  C_26
                            x       y       z     vdW  Elec       q    Type
                         _______ _______ _______ _____ _____    ______ ____

>  <TORSDO>
F 2

$$$$
