=
 OpenBabel11052413493D

 27 31  0  0  1  0  0  0  0  0999 V2000
  187.5170  178.5430  141.8650 N   0  0  0  0  0  2  0  0  0  0  0  0
  187.9490  177.5290  144.0160 C   0  0  0  0  0  0  0  0  0  0  0  0
  189.6120  176.4590  142.5020 N   0  0  0  0  0  2  0  0  0  0  0  0
  190.4560  176.9640  147.2840 C   0  0  0  0  0  3  0  0  0  0  0  0
  191.6900  176.3270  147.1350 C   0  0  0  0  0  0  0  0  0  0  0  0
  187.6170  177.9430  145.2730 N   0  0  0  0  0  0  0  0  0  0  0  0
  191.2750  176.0630  144.7630 C   0  0  0  0  0  3  0  0  0  0  0  0
  190.2650  177.2360  138.9320 C   0  0  0  0  0  0  0  0  0  0  0  0
  192.1000  175.8770  145.8760 C   0  0  0  0  0  3  0  0  0  0  0  0
  191.3480  176.6750  137.6770 Cl  0  0  0  0  0  0  0  0  0  0  0  0
  190.0320  176.6990  144.9020 C   0  0  0  0  0  0  0  0  0  0  0  0
  186.9750  177.6730  142.8890 C   0  0  1  0  0  3  0  0  0  0  0  0
  192.7260  176.0920  148.5260 Cl  0  0  0  0  0  0  0  0  0  0  0  0
  189.6280  177.1510  146.1740 C   0  0  0  0  0  0  0  0  0  0  0  0
  188.5220  178.1230  140.9430 C   0  0  0  0  0  0  0  0  0  0  0  0
  189.1920  176.9130  143.7990 C   0  0  0  0  0  0  0  0  0  0  0  0
  190.2740  176.6230  140.1860 C   0  0  0  0  0  3  0  0  0  0  0  0
  188.4290  177.7660  146.3140 N   0  0  0  0  0  0  0  0  0  0  0  0
  189.4120  178.3110  138.6900 C   0  0  0  0  0  3  0  0  0  0  0  0
  188.5440  178.7470  139.6900 C   0  0  0  0  0  3  0  0  0  0  0  0
  189.4210  177.0580  141.2090 C   0  0  0  0  0  0  0  0  0  0  0  0
  183.0460  178.9680  144.0710 C   0  0  0  0  0  3  0  0  0  0  0  0
  185.6140  178.1400  143.3150 C   0  0  0  0  0  0  0  0  0  0  0  0
  184.6120  178.2930  142.3510 C   0  0  0  0  0  3  0  0  0  0  0  0
  183.3310  178.7080  142.7280 C   0  0  0  0  0  3  0  0  0  0  0  0
  184.0420  178.8120  145.0400 C   0  0  0  0  0  3  0  0  0  0  0  0
  185.3230  178.3970  144.6650 C   0  0  0  0  0  3  0  0  0  0  0  0
  1 12  1  0  0  0  0
  2  6  1  0  0  0  0
  3 16  1  0  0  0  0
  5  4  1  0  0  0  0
  5 13  1  0  0  0  0
  6 18  2  0  0  0  0
  7 11  2  0  0  0  0
  7  9  1  0  0  0  0
  8 17  1  0  0  0  0
  9  5  2  0  0  0  0
 10  8  1  0  0  0  0
 11 14  1  0  0  0  0
 12 23  1  1  0  0  0
 12  2  1  0  0  0  0
 14 18  1  0  0  0  0
 14  4  2  0  0  0  0
 15 21  1  0  0  0  0
 15  1  1  0  0  0  0
 16  2  2  0  0  0  0
 16 11  1  0  0  0  0
 17 21  2  0  0  0  0
 19  8  2  0  0  0  0
 19 20  1  0  0  0  0
 20 15  2  0  0  0  0
 21  3  1  0  0  0  0
 22 26  1  0  0  0  0
 23 27  1  0  0  0  0
 24 25  1  0  0  0  0
 24 23  2  0  0  0  0
 25 22  2  0  0  0  0
 27 26  2  0  0  0  0
M  END
>  <MODEL>
1

>  <REMARK>
 VINA RESULT:     -11.3      0.000      0.000
  Name = 
  1 active torsions:
  status: ('A' for Active; 'I' for Inactive)
    1  A    between atoms: C_9  and  C_15
                            x       y       z     vdW  Elec       q    Type
                         _______ _______ _______ _____ _____    ______ ____

>  <TORSDO>
F 1

$$$$
=
 OpenBabel11052413493D

 27 31  0  0  1  0  0  0  0  0999 V2000
  186.7500  178.8230  140.3750 N   0  0  0  0  0  2  0  0  0  0  0  0
  186.0700  178.2240  142.6170 C   0  0  0  0  0  0  0  0  0  0  0  0
  188.2390  177.0390  142.3090 N   0  0  0  0  0  2  0  0  0  0  0  0
  186.6740  178.4090  146.7260 C   0  0  0  0  0  3  0  0  0  0  0  0
  187.8160  177.8500  147.3060 C   0  0  0  0  0  0  0  0  0  0  0  0
  185.1800  178.8190  143.4610 N   0  0  0  0  0  0  0  0  0  0  0  0
  188.5950  177.1570  145.1180 C   0  0  0  0  0  3  0  0  0  0  0  0
  190.5500  177.2440  139.4130 C   0  0  0  0  0  0  0  0  0  0  0  0
  188.7750  177.2240  146.5030 C   0  0  0  0  0  3  0  0  0  0  0  0
  192.0950  176.5610  138.9560 Cl  0  0  0  0  0  0  0  0  0  0  0  0
  187.4500  177.7140  144.5270 C   0  0  0  0  0  0  0  0  0  0  0  0
  185.7650  178.1010  141.1570 C   0  0  1  0  0  3  0  0  0  0  0  0
  188.0450  177.9330  149.0380 Cl  0  0  0  0  0  0  0  0  0  0  0  0
  186.4890  178.3430  145.3430 C   0  0  0  0  0  0  0  0  0  0  0  0
  188.0680  178.3280  140.1420 C   0  0  0  0  0  0  0  0  0  0  0  0
  187.2520  177.6740  143.1380 C   0  0  0  0  0  0  0  0  0  0  0  0
  189.9410  176.8560  140.6070 C   0  0  0  0  0  3  0  0  0  0  0  0
  185.3830  178.8830  144.7760 N   0  0  0  0  0  0  0  0  0  0  0  0
  189.9390  178.1960  138.5990 C   0  0  0  0  0  3  0  0  0  0  0  0
  188.7040  178.7300  138.9620 C   0  0  0  0  0  3  0  0  0  0  0  0
  188.7080  177.3940  140.9970 C   0  0  0  0  0  0  0  0  0  0  0  0
  181.7960  179.3220  140.0310 C   0  0  0  0  0  3  0  0  0  0  0  0
  184.3760  178.5320  140.7860 C   0  0  0  0  0  0  0  0  0  0  0  0
  184.1870  179.3190  139.6450 C   0  0  0  0  0  3  0  0  0  0  0  0
  182.9000  179.7160  139.2690 C   0  0  0  0  0  3  0  0  0  0  0  0
  181.9780  178.5290  141.1680 C   0  0  0  0  0  3  0  0  0  0  0  0
  183.2640  178.1320  141.5450 C   0  0  0  0  0  3  0  0  0  0  0  0
  1 12  1  0  0  0  0
  2 16  2  0  0  0  0
  2  6  1  0  0  0  0
  3 16  1  0  0  0  0
  4  5  1  0  0  0  0
  5 13  1  0  0  0  0
  6 18  2  0  0  0  0
  7  9  1  0  0  0  0
  8 17  1  0  0  0  0
  9  5  2  0  0  0  0
 10  8  1  0  0  0  0
 11  7  2  0  0  0  0
 11 14  1  0  0  0  0
 12 23  1  1  0  0  0
 12  2  1  0  0  0  0
 14  4  2  0  0  0  0
 15  1  1  0  0  0  0
 15 21  1  0  0  0  0
 16 11  1  0  0  0  0
 17 21  2  0  0  0  0
 18 14  1  0  0  0  0
 19 20  1  0  0  0  0
 19  8  2  0  0  0  0
 20 15  2  0  0  0  0
 21  3  1  0  0  0  0
 22 26  1  0  0  0  0
 23 27  1  0  0  0  0
 24 23  2  0  0  0  0
 25 24  1  0  0  0  0
 25 22  2  0  0  0  0
 26 27  2  0  0  0  0
M  END
>  <MODEL>
2

>  <REMARK>
 VINA RESULT:     -10.4      2.069      2.925
  Name = 
  1 active torsions:
  status: ('A' for Active; 'I' for Inactive)
    1  A    between atoms: C_9  and  C_15
                            x       y       z     vdW  Elec       q    Type
                         _______ _______ _______ _____ _____    ______ ____

>  <TORSDO>
F 1

$$$$
=
 OpenBabel11052413493D

 27 31  0  0  1  0  0  0  0  0999 V2000
  189.6420  176.7110  142.6490 N   0  0  0  0  0  2  0  0  0  0  0  0
  187.8300  177.7660  143.8530 C   0  0  0  0  0  0  0  0  0  0  0  0
  187.6300  178.6780  141.5440 N   0  0  0  0  0  2  0  0  0  0  0  0
  183.7540  178.2780  144.4860 C   0  0  0  0  0  3  0  0  0  0  0  0
  182.9410  178.8300  143.4930 C   0  0  0  0  0  0  0  0  0  0  0  0
  187.2220  177.4160  145.0230 N   0  0  0  0  0  0  0  0  0  0  0  0
  184.8610  179.0420  142.0300 C   0  0  0  0  0  3  0  0  0  0  0  0
  189.6160  177.7450  138.5520 C   0  0  0  0  0  0  0  0  0  0  0  0
  183.4940  179.2120  142.2660 C   0  0  0  0  0  3  0  0  0  0  0  0
  189.6730  178.1940  136.8610 Cl  0  0  0  0  0  0  0  0  0  0  0  0
  185.6860  178.4910  143.0230 C   0  0  0  0  0  0  0  0  0  0  0  0
  189.3150  177.6480  143.7060 C   0  0  1  0  0  3  0  0  0  0  0  0
  181.2290  179.0440  143.7830 Cl  0  0  0  0  0  0  0  0  0  0  0  0
  185.1210  178.1080  144.2550 C   0  0  0  0  0  0  0  0  0  0  0  0
  189.5300  177.0360  141.2640 C   0  0  0  0  0  0  0  0  0  0  0  0
  187.0590  178.2950  142.8060 C   0  0  0  0  0  0  0  0  0  0  0  0
  188.7360  178.3960  139.4180 C   0  0  0  0  0  3  0  0  0  0  0  0
  185.9130  177.5750  145.2160 N   0  0  0  0  0  0  0  0  0  0  0  0
  190.4280  176.7190  139.0300 C   0  0  0  0  0  3  0  0  0  0  0  0
  190.3870  176.3720  140.3790 C   0  0  0  0  0  3  0  0  0  0  0  0
  188.6680  178.0500  140.7730 C   0  0  0  0  0  0  0  0  0  0  0  0
  191.4100  176.6150  147.3190 C   0  0  0  0  0  3  0  0  0  0  0  0
  190.0260  177.2820  144.9770 C   0  0  0  0  0  0  0  0  0  0  0  0
  191.2240  176.5640  144.9050 C   0  0  0  0  0  3  0  0  0  0  0  0
  191.9150  176.2290  146.0750 C   0  0  0  0  0  3  0  0  0  0  0  0
  190.2160  177.3380  147.3970 C   0  0  0  0  0  3  0  0  0  0  0  0
  189.5260  177.6740  146.2290 C   0  0  0  0  0  3  0  0  0  0  0  0
  1 12  1  0  0  0  0
  2  6  1  0  0  0  0
  3 16  1  0  0  0  0
  5 13  1  0  0  0  0
  5  4  2  0  0  0  0
  6 18  2  0  0  0  0
  7  9  2  0  0  0  0
  7 11  1  0  0  0  0
  8 19  2  0  0  0  0
  8 17  1  0  0  0  0
  9  5  1  0  0  0  0
 10  8  1  0  0  0  0
 11 14  2  0  0  0  0
 12  2  1  0  0  0  0
 12 23  1  1  0  0  0
 14  4  1  0  0  0  0
 14 18  1  0  0  0  0
 15  1  1  0  0  0  0
 16 11  1  0  0  0  0
 16  2  2  0  0  0  0
 17 21  2  0  0  0  0
 19 20  1  0  0  0  0
 20 15  2  0  0  0  0
 21 15  1  0  0  0  0
 21  3  1  0  0  0  0
 22 26  1  0  0  0  0
 23 27  1  0  0  0  0
 24 23  2  0  0  0  0
 24 25  1  0  0  0  0
 25 22  2  0  0  0  0
 27 26  2  0  0  0  0
M  END
>  <MODEL>
3

>  <REMARK>
 VINA RESULT:     -10.3      2.479      5.805
  Name = 
  1 active torsions:
  status: ('A' for Active; 'I' for Inactive)
    1  A    between atoms: C_9  and  C_15
                            x       y       z     vdW  Elec       q    Type
                         _______ _______ _______ _____ _____    ______ ____

>  <TORSDO>
F 1

$$$$
=
 OpenBabel11052413493D

 27 31  0  0  1  0  0  0  0  0999 V2000
  189.6590  178.3370  141.5280 N   0  0  0  0  0  2  0  0  0  0  0  0
  187.2800  178.1260  141.1530 C   0  0  0  0  0  0  0  0  0  0  0  0
  187.5920  177.3350  143.4940 N   0  0  0  0  0  2  0  0  0  0  0  0
  183.3880  179.3160  141.9980 C   0  0  0  0  0  3  0  0  0  0  0  0
  182.8430  179.1240  143.2710 C   0  0  0  0  0  0  0  0  0  0  0  0
  186.4750  178.7110  140.2200 N   0  0  0  0  0  0  0  0  0  0  0  0
  184.9230  178.1300  144.0180 C   0  0  0  0  0  3  0  0  0  0  0  0
  190.7170  177.3360  145.4950 C   0  0  0  0  0  0  0  0  0  0  0  0
  183.6090  178.5310  144.2790 C   0  0  0  0  0  3  0  0  0  0  0  0
  191.2030  176.8750  147.1120 Cl  0  0  0  0  0  0  0  0  0  0  0  0
  185.4780  178.3160  142.7430 C   0  0  0  0  0  0  0  0  0  0  0  0
  188.6410  177.6310  140.7760 C   0  0  1  0  0  3  0  0  0  0  0  0
  181.2000  179.6250  143.6020 Cl  0  0  0  0  0  0  0  0  0  0  0  0
  184.7000  178.9150  141.7330 C   0  0  0  0  0  0  0  0  0  0  0  0
  189.9380  178.0630  142.9000 C   0  0  0  0  0  0  0  0  0  0  0  0
  186.7990  177.9370  142.4580 C   0  0  0  0  0  0  0  0  0  0  0  0
  189.4080  177.1100  145.0680 C   0  0  0  0  0  3  0  0  0  0  0  0
  185.2320  179.0980  140.5000 N   0  0  0  0  0  0  0  0  0  0  0  0
  191.6290  177.9540  144.6420 C   0  0  0  0  0  3  0  0  0  0  0  0
  191.2410  178.3100  143.3510 C   0  0  0  0  0  3  0  0  0  0  0  0
  188.9940  177.4770  143.7820 C   0  0  0  0  0  0  0  0  0  0  0  0
  189.4240  177.7770  136.5470 C   0  0  0  0  0  3  0  0  0  0  0  0
  188.9290  177.6980  139.3040 C   0  0  0  0  0  0  0  0  0  0  0  0
  189.0880  176.5100  138.5840 C   0  0  0  0  0  3  0  0  0  0  0  0
  189.3380  176.5480  137.2080 C   0  0  0  0  0  3  0  0  0  0  0  0
  189.2600  178.9680  137.2610 C   0  0  0  0  0  3  0  0  0  0  0  0
  189.0100  178.9310  138.6350 C   0  0  0  0  0  3  0  0  0  0  0  0
  1 15  1  0  0  0  0
  2 16  1  0  0  0  0
  3 21  1  0  0  0  0
  4  5  2  0  0  0  0
  5 13  1  0  0  0  0
  5  9  1  0  0  0  0
  6 18  1  0  0  0  0
  6  2  2  0  0  0  0
  7  9  2  0  0  0  0
  8 10  1  0  0  0  0
 11  7  1  0  0  0  0
 12 23  1  6  0  0  0
 12  2  1  0  0  0  0
 12  1  1  0  0  0  0
 14  4  1  0  0  0  0
 14 11  1  0  0  0  0
 15 20  2  0  0  0  0
 15 21  1  0  0  0  0
 16 11  2  0  0  0  0
 16  3  1  0  0  0  0
 17  8  1  0  0  0  0
 18 14  2  0  0  0  0
 19  8  2  0  0  0  0
 20 19  1  0  0  0  0
 21 17  2  0  0  0  0
 22 25  2  0  0  0  0
 22 26  1  0  0  0  0
 24 23  2  0  0  0  0
 25 24  1  0  0  0  0
 26 27  2  0  0  0  0
 27 23  1  0  0  0  0
M  END
>  <MODEL>
4

>  <REMARK>
 VINA RESULT:     -10.1      2.770      6.854
  Name = 
  1 active torsions:
  status: ('A' for Active; 'I' for Inactive)
    1  A    between atoms: C_9  and  C_15
                            x       y       z     vdW  Elec       q    Type
                         _______ _______ _______ _____ _____    ______ ____

>  <TORSDO>
F 1

$$$$
=
 OpenBabel11052413493D

 27 31  0  0  1  0  0  0  0  0999 V2000
  189.9450  177.9980  142.8420 N   0  0  0  0  0  2  0  0  0  0  0  0
  188.1640  177.7710  141.2230 C   0  0  0  0  0  0  0  0  0  0  0  0
  187.0540  177.3200  143.4070 N   0  0  0  0  0  2  0  0  0  0  0  0
  184.5850  179.1300  139.6040 C   0  0  0  0  0  3  0  0  0  0  0  0
  183.4120  179.1310  140.3630 C   0  0  0  0  0  0  0  0  0  0  0  0
  188.0680  178.2290  139.9430 N   0  0  0  0  0  0  0  0  0  0  0  0
  184.6280  178.2220  142.2520 C   0  0  0  0  0  3  0  0  0  0  0  0
  188.5330  177.5600  146.8020 C   0  0  0  0  0  0  0  0  0  0  0  0
  183.4330  178.6770  141.6860 C   0  0  0  0  0  3  0  0  0  0  0  0
  187.9980  177.3280  148.4510 Cl  0  0  0  0  0  0  0  0  0  0  0  0
  185.8110  178.2160  141.4970 C   0  0  0  0  0  0  0  0  0  0  0  0
  189.4530  177.2070  141.7320 C   0  0  1  0  0  3  0  0  0  0  0  0
  181.9150  179.7000  139.6590 Cl  0  0  0  0  0  0  0  0  0  0  0  0
  185.7810  178.6750  140.1650 C   0  0  0  0  0  0  0  0  0  0  0  0
  189.3920  177.9190  144.1550 C   0  0  0  0  0  0  0  0  0  0  0  0
  187.0260  177.7790  142.0450 C   0  0  0  0  0  0  0  0  0  0  0  0
  187.6640  177.2960  145.7420 C   0  0  0  0  0  3  0  0  0  0  0  0
  186.9200  178.6710  139.4320 N   0  0  0  0  0  0  0  0  0  0  0  0
  189.8180  178.0350  146.5440 C   0  0  0  0  0  3  0  0  0  0  0  0
  190.2440  178.2080  145.2280 C   0  0  0  0  0  3  0  0  0  0  0  0
  188.0680  177.4800  144.4130 C   0  0  0  0  0  0  0  0  0  0  0  0
  192.5310  176.7640  138.7580 C   0  0  0  0  0  3  0  0  0  0  0  0
  190.5120  177.0580  140.6780 C   0  0  0  0  0  0  0  0  0  0  0  0
  191.7990  177.5450  140.9300 C   0  0  0  0  0  3  0  0  0  0  0  0
  192.8070  177.4000  139.9710 C   0  0  0  0  0  3  0  0  0  0  0  0
  191.2480  176.2700  138.5030 C   0  0  0  0  0  3  0  0  0  0  0  0
  190.2400  176.4140  139.4610 C   0  0  0  0  0  3  0  0  0  0  0  0
  1 15  1  0  0  0  0
  2 12  1  0  0  0  0
  2 16  1  0  0  0  0
  3 21  1  0  0  0  0
  4 14  1  0  0  0  0
  4  5  2  0  0  0  0
  5  9  1  0  0  0  0
  6  2  2  0  0  0  0
  8 10  1  0  0  0  0
  9  7  2  0  0  0  0
 11 16  2  0  0  0  0
 11  7  1  0  0  0  0
 12 23  1  6  0  0  0
 12  1  1  0  0  0  0
 13  5  1  0  0  0  0
 14 11  1  0  0  0  0
 15 21  2  0  0  0  0
 15 20  1  0  0  0  0
 16  3  1  0  0  0  0
 17  8  2  0  0  0  0
 18  6  1  0  0  0  0
 18 14  2  0  0  0  0
 19  8  1  0  0  0  0
 20 19  2  0  0  0  0
 21 17  1  0  0  0  0
 22 25  1  0  0  0  0
 23 24  1  0  0  0  0
 25 24  2  0  0  0  0
 26 22  2  0  0  0  0
 26 27  1  0  0  0  0
 27 23  2  0  0  0  0
M  END
>  <MODEL>
5

>  <REMARK>
 VINA RESULT:      -9.9      2.797      7.705
  Name = 
  1 active torsions:
  status: ('A' for Active; 'I' for Inactive)
    1  A    between atoms: C_9  and  C_15
                            x       y       z     vdW  Elec       q    Type
                         _______ _______ _______ _____ _____    ______ ____

>  <TORSDO>
F 1

$$$$
=
 OpenBabel11052413493D

 27 31  0  0  1  0  0  0  0  0999 V2000
  189.6920  176.7240  141.2540 N   0  0  0  0  0  2  0  0  0  0  0  0
  187.9320  177.8050  142.5100 C   0  0  0  0  0  0  0  0  0  0  0  0
  187.6130  178.6410  140.1860 N   0  0  0  0  0  2  0  0  0  0  0  0
  183.8870  178.3120  143.3240 C   0  0  0  0  0  3  0  0  0  0  0  0
  183.0220  178.8260  142.3550 C   0  0  0  0  0  0  0  0  0  0  0  0
  187.3840  177.4890  143.7180 N   0  0  0  0  0  0  0  0  0  0  0  0
  184.8680  179.0030  140.7940 C   0  0  0  0  0  3  0  0  0  0  0  0
  189.4590  177.6240  137.1320 C   0  0  0  0  0  0  0  0  0  0  0  0
  183.5120  179.1710  141.0910 C   0  0  0  0  0  3  0  0  0  0  0  0
  189.4300  178.0190  135.4270 Cl  0  0  0  0  0  0  0  0  0  0  0  0
  185.7450  178.4890  141.7620 C   0  0  0  0  0  0  0  0  0  0  0  0
  189.4090  177.6920  142.2950 C   0  0  1  0  0  3  0  0  0  0  0  0
  181.3250  179.0380  142.7210 Cl  0  0  0  0  0  0  0  0  0  0  0  0
  185.2430  178.1430  143.0320 C   0  0  0  0  0  0  0  0  0  0  0  0
  189.5100  177.0030  139.8660 C   0  0  0  0  0  0  0  0  0  0  0  0
  187.1070  178.2950  141.4860 C   0  0  0  0  0  0  0  0  0  0  0  0
  188.6170  178.2980  138.0180 C   0  0  0  0  0  3  0  0  0  0  0  0
  186.0850  177.6450  143.9700 N   0  0  0  0  0  0  0  0  0  0  0  0
  190.3010  176.6190  137.6020 C   0  0  0  0  0  3  0  0  0  0  0  0
  190.3280  176.3160  138.9620 C   0  0  0  0  0  3  0  0  0  0  0  0
  188.6170  177.9950  139.3860 C   0  0  0  0  0  0  0  0  0  0  0  0
  191.6810  176.7550  145.8270 C   0  0  0  0  0  3  0  0  0  0  0  0
  190.1840  177.3710  143.5400 C   0  0  0  0  0  0  0  0  0  0  0  0
  190.9350  176.1920  143.5920 C   0  0  0  0  0  3  0  0  0  0  0  0
  191.6800  175.8830  144.7340 C   0  0  0  0  0  3  0  0  0  0  0  0
  190.9370  177.9380  145.7780 C   0  0  0  0  0  3  0  0  0  0  0  0
  190.1910  178.2480  144.6370 C   0  0  0  0  0  3  0  0  0  0  0  0
  1 12  1  0  0  0  0
  2  6  1  0  0  0  0
  3 16  1  0  0  0  0
  5 13  1  0  0  0  0
  5  4  2  0  0  0  0
  6 18  2  0  0  0  0
  7  9  2  0  0  0  0
  7 11  1  0  0  0  0
  8 19  2  0  0  0  0
  8 17  1  0  0  0  0
  9  5  1  0  0  0  0
 10  8  1  0  0  0  0
 11 14  2  0  0  0  0
 12  2  1  0  0  0  0
 12 23  1  1  0  0  0
 14  4  1  0  0  0  0
 14 18  1  0  0  0  0
 15  1  1  0  0  0  0
 16 11  1  0  0  0  0
 16  2  2  0  0  0  0
 17 21  2  0  0  0  0
 19 20  1  0  0  0  0
 20 15  2  0  0  0  0
 21 15  1  0  0  0  0
 21  3  1  0  0  0  0
 23 24  2  0  0  0  0
 23 27  1  0  0  0  0
 24 25  1  0  0  0  0
 25 22  2  0  0  0  0
 26 22  1  0  0  0  0
 27 26  2  0  0  0  0
M  END
>  <MODEL>
6

>  <REMARK>
 VINA RESULT:      -9.9      2.920      6.024
  Name = 
  1 active torsions:
  status: ('A' for Active; 'I' for Inactive)
    1  A    between atoms: C_9  and  C_15
                            x       y       z     vdW  Elec       q    Type
                         _______ _______ _______ _____ _____    ______ ____

>  <TORSDO>
F 1

$$$$
=
 OpenBabel11052413493D

 27 31  0  0  1  0  0  0  0  0999 V2000
  188.3110  177.0920  143.3810 N   0  0  0  0  0  2  0  0  0  0  0  0
  186.1970  178.2610  143.4870 C   0  0  0  0  0  0  0  0  0  0  0  0
  187.0250  178.7230  141.1830 N   0  0  0  0  0  2  0  0  0  0  0  0
  182.2570  178.6830  142.2320 C   0  0  0  0  0  3  0  0  0  0  0  0
  181.9600  179.0030  140.9040 C   0  0  0  0  0  0  0  0  0  0  0  0
  185.1390  178.1030  144.3330 N   0  0  0  0  0  0  0  0  0  0  0  0
  184.3260  179.0350  140.3780 C   0  0  0  0  0  3  0  0  0  0  0  0
  190.0580  177.3530  139.5420 C   0  0  0  0  0  0  0  0  0  0  0  0
  182.9940  179.1790  139.9780 C   0  0  0  0  0  3  0  0  0  0  0  0
  190.8410  177.4860  137.9820 Cl  0  0  0  0  0  0  0  0  0  0  0  0
  184.6330  178.7160  141.7100 C   0  0  0  0  0  0  0  0  0  0  0  0
  187.5990  178.1900  144.0050 C   0  0  1  0  0  3  0  0  0  0  0  0
  180.2950  179.1840  140.4000 Cl  0  0  0  0  0  0  0  0  0  0  0  0
  183.5860  178.5400  142.6360 C   0  0  0  0  0  0  0  0  0  0  0  0
  188.8070  177.1510  142.0440 C   0  0  0  0  0  0  0  0  0  0  0  0
  185.9610  178.5510  142.1340 C   0  0  0  0  0  0  0  0  0  0  0  0
  188.9170  178.1090  139.8170 C   0  0  0  0  0  3  0  0  0  0  0  0
  183.8780  178.2310  143.9220 N   0  0  0  0  0  0  0  0  0  0  0  0
  190.5550  176.4720  140.5000 C   0  0  0  0  0  3  0  0  0  0  0  0
  189.9350  176.3780  141.7450 C   0  0  0  0  0  3  0  0  0  0  0  0
  188.2700  178.0150  141.0550 C   0  0  0  0  0  0  0  0  0  0  0  0
  187.9300  177.9460  148.2880 C   0  0  0  0  0  3  0  0  0  0  0  0
  187.6930  178.0990  145.5010 C   0  0  0  0  0  0  0  0  0  0  0  0
  188.8180  177.5020  146.0790 C   0  0  0  0  0  3  0  0  0  0  0  0
  188.9360  177.4230  147.4700 C   0  0  0  0  0  3  0  0  0  0  0  0
  186.8060  178.5490  147.7160 C   0  0  0  0  0  3  0  0  0  0  0  0
  186.6870  178.6280  146.3250 C   0  0  0  0  0  3  0  0  0  0  0  0
  1 12  1  0  0  0  0
  2 12  1  0  0  0  0
  2  6  1  0  0  0  0
  3 16  1  0  0  0  0
  4 14  1  0  0  0  0
  5  4  2  0  0  0  0
  7 11  1  0  0  0  0
  8 17  2  0  0  0  0
  8 19  1  0  0  0  0
  9  7  2  0  0  0  0
  9  5  1  0  0  0  0
 10  8  1  0  0  0  0
 11 16  1  0  0  0  0
 11 14  2  0  0  0  0
 12 23  1  1  0  0  0
 13  5  1  0  0  0  0
 14 18  1  0  0  0  0
 15  1  1  0  0  0  0
 16  2  2  0  0  0  0
 17 21  1  0  0  0  0
 18  6  2  0  0  0  0
 19 20  2  0  0  0  0
 20 15  1  0  0  0  0
 21  3  1  0  0  0  0
 21 15  2  0  0  0  0
 23 24  2  0  0  0  0
 23 27  1  0  0  0  0
 24 25  1  0  0  0  0
 25 22  2  0  0  0  0
 26 22  1  0  0  0  0
 27 26  2  0  0  0  0
M  END
>  <MODEL>
7

>  <REMARK>
 VINA RESULT:      -9.6      2.848      6.173
  Name = 
  1 active torsions:
  status: ('A' for Active; 'I' for Inactive)
    1  A    between atoms: C_9  and  C_15
                            x       y       z     vdW  Elec       q    Type
                         _______ _______ _______ _____ _____    ______ ____

>  <TORSDO>
F 1

$$$$
=
 OpenBabel11052413493D

 27 31  0  0  1  0  0  0  0  0999 V2000
  184.2020  177.9180  140.8850 N   0  0  0  0  0  2  0  0  0  0  0  0
  186.0200  178.3230  142.4260 C   0  0  0  0  0  0  0  0  0  0  0  0
  184.0250  179.2530  143.5910 N   0  0  0  0  0  2  0  0  0  0  0  0
  187.8810  177.5680  146.0660 C   0  0  0  0  0  3  0  0  0  0  0  0
  187.2580  177.9040  147.2700 C   0  0  0  0  0  0  0  0  0  0  0  0
  187.2540  177.7480  142.5110 N   0  0  0  0  0  0  0  0  0  0  0  0
  185.3440  178.7530  146.0490 C   0  0  0  0  0  3  0  0  0  0  0  0
  180.4820  179.1100  142.4970 C   0  0  0  0  0  0  0  0  0  0  0  0
  185.9910  178.4960  147.2620 C   0  0  0  0  0  3  0  0  0  0  0  0
  178.9310  179.6430  143.1070 Cl  0  0  0  0  0  0  0  0  0  0  0  0
  185.9640  178.4210  144.8340 C   0  0  0  0  0  0  0  0  0  0  0  0
  185.4310  178.6590  141.0920 C   0  0  1  0  0  3  0  0  0  0  0  0
  188.0630  177.5850  148.7900 Cl  0  0  0  0  0  0  0  0  0  0  0  0
  187.2390  177.8230  144.8510 C   0  0  0  0  0  0  0  0  0  0  0  0
  182.9710  178.2670  141.5170 C   0  0  0  0  0  0  0  0  0  0  0  0
  185.3310  178.6530  143.6040 C   0  0  0  0  0  0  0  0  0  0  0  0
  181.6510  179.4240  143.1920 C   0  0  0  0  0  3  0  0  0  0  0  0
  187.8410  177.5000  143.6810 N   0  0  0  0  0  0  0  0  0  0  0  0
  180.5500  178.3470  141.3330 C   0  0  0  0  0  3  0  0  0  0  0  0
  181.7890  177.9340  140.8450 C   0  0  0  0  0  3  0  0  0  0  0  0
  182.9030  179.0030  142.7280 C   0  0  0  0  0  0  0  0  0  0  0  0
  188.0930  178.1150  137.7560 C   0  0  0  0  0  3  0  0  0  0  0  0
  186.3720  178.4550  139.9410 C   0  0  0  0  0  0  0  0  0  0  0  0
  185.8500  178.2720  138.6560 C   0  0  0  0  0  3  0  0  0  0  0  0
  186.7080  178.0990  137.5650 C   0  0  0  0  0  3  0  0  0  0  0  0
  188.6210  178.3040  139.0370 C   0  0  0  0  0  3  0  0  0  0  0  0
  187.7640  178.4760  140.1270 C   0  0  0  0  0  3  0  0  0  0  0  0
  1 12  1  0  0  0  0
  1 15  1  0  0  0  0
  2  6  2  0  0  0  0
  2 16  1  0  0  0  0
  3 16  1  0  0  0  0
  4  5  2  0  0  0  0
  5 13  1  0  0  0  0
  6 18  1  0  0  0  0
  7  9  2  0  0  0  0
  8 10  1  0  0  0  0
  8 17  1  0  0  0  0
  9  5  1  0  0  0  0
 11 14  1  0  0  0  0
 11  7  1  0  0  0  0
 12 23  1  6  0  0  0
 12  2  1  0  0  0  0
 14  4  1  0  0  0  0
 15 21  1  0  0  0  0
 16 11  2  0  0  0  0
 18 14  2  0  0  0  0
 19  8  2  0  0  0  0
 20 19  1  0  0  0  0
 20 15  2  0  0  0  0
 21 17  2  0  0  0  0
 21  3  1  0  0  0  0
 22 26  1  0  0  0  0
 23 27  1  0  0  0  0
 24 23  2  0  0  0  0
 25 22  2  0  0  0  0
 25 24  1  0  0  0  0
 26 27  2  0  0  0  0
M  END
>  <MODEL>
8

>  <REMARK>
 VINA RESULT:      -9.6      3.492      6.370
  Name = 
  1 active torsions:
  status: ('A' for Active; 'I' for Inactive)
    1  A    between atoms: C_9  and  C_15
                            x       y       z     vdW  Elec       q    Type
                         _______ _______ _______ _____ _____    ______ ____

>  <TORSDO>
F 1

$$$$
=
 OpenBabel11052413493D

 27 31  0  0  1  0  0  0  0  0999 V2000
  186.7450  177.5080  143.2290 N   0  0  0  0  0  2  0  0  0  0  0  0
  187.9850  177.9030  141.1910 C   0  0  0  0  0  0  0  0  0  0  0  0
  189.6690  178.2430  142.9950 N   0  0  0  0  0  2  0  0  0  0  0  0
  190.9670  176.7780  138.5230 C   0  0  0  0  0  3  0  0  0  0  0  0
  192.3080  176.7650  138.9150 C   0  0  0  0  0  0  0  0  0  0  0  0
  187.7160  177.5370  139.9060 N   0  0  0  0  0  0  0  0  0  0  0  0
  191.6730  177.5030  141.1340 C   0  0  0  0  0  3  0  0  0  0  0  0
  189.2270  177.7250  146.6430 C   0  0  0  0  0  0  0  0  0  0  0  0
  192.6610  177.1270  140.2180 C   0  0  0  0  0  3  0  0  0  0  0  0
  190.2090  177.8630  148.0840 Cl  0  0  0  0  0  0  0  0  0  0  0  0
  190.3240  177.5210  140.7490 C   0  0  0  0  0  0  0  0  0  0  0  0
  186.8880  178.3890  142.0860 C   0  0  1  0  0  3  0  0  0  0  0  0
  193.5480  176.2950  137.7730 Cl  0  0  0  0  0  0  0  0  0  0  0  0
  189.9770  177.1530  139.4340 C   0  0  0  0  0  0  0  0  0  0  0  0
  187.6510  177.5170  144.3320 C   0  0  0  0  0  0  0  0  0  0  0  0
  189.3110  177.8780  141.6520 C   0  0  0  0  0  0  0  0  0  0  0  0
  189.7520  178.0900  145.4020 C   0  0  0  0  0  3  0  0  0  0  0  0
  188.6750  177.1680  139.0580 N   0  0  0  0  0  0  0  0  0  0  0  0
  187.9280  177.2260  146.7280 C   0  0  0  0  0  3  0  0  0  0  0  0
  187.1460  177.1280  145.5780 C   0  0  0  0  0  3  0  0  0  0  0  0
  188.9870  177.9820  144.2340 C   0  0  0  0  0  0  0  0  0  0  0  0
  183.0870  178.9450  140.1490 C   0  0  0  0  0  3  0  0  0  0  0  0
  185.5700  178.5720  141.3920 C   0  0  0  0  0  0  0  0  0  0  0  0
  184.3870  178.3380  142.1000 C   0  0  0  0  0  3  0  0  0  0  0  0
  183.1470  178.5220  141.4790 C   0  0  0  0  0  3  0  0  0  0  0  0
  184.2670  179.1860  139.4370 C   0  0  0  0  0  3  0  0  0  0  0  0
  185.5060  179.0030  140.0570 C   0  0  0  0  0  3  0  0  0  0  0  0
  1 15  1  0  0  0  0
  2 16  1  0  0  0  0
  2 12  1  0  0  0  0
  3 21  1  0  0  0  0
  4  5  2  0  0  0  0
  4 14  1  0  0  0  0
  5  9  1  0  0  0  0
  6  2  2  0  0  0  0
  8 19  1  0  0  0  0
  8 10  1  0  0  0  0
  9  7  2  0  0  0  0
 11  7  1  0  0  0  0
 11 16  2  0  0  0  0
 12 23  1  6  0  0  0
 12  1  1  0  0  0  0
 13  5  1  0  0  0  0
 14 11  1  0  0  0  0
 15 20  1  0  0  0  0
 16  3  1  0  0  0  0
 17  8  2  0  0  0  0
 18 14  2  0  0  0  0
 18  6  1  0  0  0  0
 20 19  2  0  0  0  0
 21 15  2  0  0  0  0
 21 17  1  0  0  0  0
 22 25  1  0  0  0  0
 23 24  1  0  0  0  0
 25 24  2  0  0  0  0
 26 27  1  0  0  0  0
 26 22  2  0  0  0  0
 27 23  2  0  0  0  0
M  END
>  <MODEL>
9

>  <REMARK>
 VINA RESULT:      -9.3      1.988      5.722
  Name = 
  1 active torsions:
  status: ('A' for Active; 'I' for Inactive)
    1  A    between atoms: C_9  and  C_15
                            x       y       z     vdW  Elec       q    Type
                         _______ _______ _______ _____ _____    ______ ____

>  <TORSDO>
F 1

$$$$
