=
 OpenBabel11052414033D

 34 39  0  0  1  0  0  0  0  0999 V2000
  186.0780  178.0370  143.3800 C   0  0  0  0  0  0  0  0  0  0  0  0
  186.7630  178.3580  140.9090 C   0  0  0  0  0  0  0  0  0  0  0  0
  190.3210  176.9870  138.0720 C   0  0  1  0  0  3  0  0  0  0  0  0
  188.3910  177.7650  142.6920 C   0  0  0  0  0  0  0  0  0  0  0  0
  191.2720  176.9450  140.5670 C   0  0  0  0  0  2  0  0  0  0  0  0
  185.7020  178.9300  140.5420 O   0  0  0  0  0  0  0  0  0  0  0  0
  188.8560  177.1530  140.4110 C   0  0  2  0  0  3  0  0  0  0  0  0
  187.0570  178.0990  142.3630 C   0  0  0  0  0  0  0  0  0  0  0  0
  190.1040  177.0290  139.5900 C   0  0  1  0  0  0  0  0  0  0  0  0
  190.7700  177.3950  141.8760 N   0  0  2  0  0  0  0  0  0  0  0  0
  188.7270  177.2320  143.9370 C   0  0  0  0  0  0  0  0  0  0  0  0
  186.4360  177.5700  144.6550 C   0  0  0  0  0  3  0  0  0  0  0  0
  187.7360  177.9520  139.9200 N   0  0  0  0  0  2  0  0  0  0  0  0
  190.7560  176.2660  142.8140 C   0  0  0  0  0  2  0  0  0  0  0  0
  190.1170  176.6810  144.1560 C   0  0  1  0  0  3  0  0  0  0  0  0
  190.0050  175.7180  138.8380 C   0  0  0  0  0  2  0  0  0  0  0  0
  189.4050  177.8670  141.6020 C   0  0  2  0  0  3  0  0  0  0  0  0
  187.7450  177.1530  144.9280 C   0  0  0  0  0  3  0  0  0  0  0  0
  186.7160  176.9770  136.8780 C   0  0  0  0  0  2  0  0  0  0  0  0
  189.1450  177.5440  137.3160 C   0  0  0  0  0  0  0  0  0  0  0  0
  188.1680  176.5410  136.7410 C   0  0  0  0  0  2  0  0  0  0  0  0
  187.3210  178.9210  135.3250 C   0  0  0  0  0  2  0  0  0  0  0  0
  187.8520  179.6200  136.5670 C   0  0  0  0  0  2  0  0  0  0  0  0
  189.0070  178.8830  137.1960 C   0  0  0  0  0  3  0  0  0  0  0  0
  186.2930  177.8490  135.6940 C   0  0  0  0  0  2  0  0  0  0  0  0
  184.0330  179.0190  144.3590 C   0  0  0  0  0  1  0  0  0  0  0  0
  184.6450  178.3750  143.1280 C   0  0  0  0  0  2  0  0  0  0  0  0
  191.0380  177.6240  144.9450 C   0  0  1  0  0  3  0  0  0  0  0  0
  191.4800  176.4470  147.1430 C   0  0  0  0  0  0  0  0  0  0  0  0
  190.3070  176.6710  147.5410 O   0  0  0  0  0  0  0  0  0  0  0  0
  191.9080  176.8830  145.8520 N   0  0  0  0  0  2  0  0  0  0  0  0
  192.4280  175.7160  148.0210 C   0  0  0  0  0  1  0  0  0  0  0  0
  191.0230  180.1280  144.1390 C   0  0  0  0  0  1  0  0  0  0  0  0
  192.0330  178.6550  143.8210 S   0  0  0  0  0  0  0  0  0  0  0  0
  1 12  1  0  0  0  0
  2  8  1  0  0  0  0
  3 20  1  6  0  0  0
  3 16  1  0  0  0  0
  3  9  1  0  0  0  0
  4 11  2  0  0  0  0
  6  2  2  0  0  0  0
  7 13  1  6  0  0  0
  7 17  1  0  0  0  0
  8  4  1  0  0  0  0
  8  1  2  0  0  0  0
  9 16  1  1  0  0  0
  9  7  1  0  0  0  0
  9  5  1  0  0  0  0
 10  5  1  6  0  0  0
 10 14  1  0  0  0  0
 11 15  1  0  0  0  0
 11 18  1  0  0  0  0
 12 18  2  0  0  0  0
 13  2  1  0  0  0  0
 14 15  1  0  0  0  0
 15 28  1  6  0  0  0
 17 10  1  0  0  0  0
 17  4  1  1  0  0  0
 21 19  1  0  0  0  0
 21 20  1  0  0  0  0
 22 25  1  0  0  0  0
 22 23  1  0  0  0  0
 23 24  1  0  0  0  0
 24 20  2  0  0  0  0
 25 19  1  0  0  0  0
 27  1  1  0  0  0  0
 27 26  1  0  0  0  0
 28 34  1  6  0  0  0
 28 31  1  0  0  0  0
 29 30  2  0  0  0  0
 29 32  1  0  0  0  0
 31 29  1  0  0  0  0
 34 33  1  0  0  0  0
M  END
>  <MODEL>
1

>  <REMARK>
 VINA RESULT:      -8.4      0.000      0.000
  Name = 
  5 active torsions:
  status: ('A' for Active; 'I' for Inactive)
    1  A    between atoms: C_1  and  C_19
    2  A    between atoms: C_3  and  C_13
    3  A    between atoms: C_12  and  N_23
    4  A    between atoms: C_12  and  S_27
    5  A    between atoms: C_12  and  C_28
                            x       y       z     vdW  Elec       q    Type
                         _______ _______ _______ _____ _____    ______ ____

>  <TORSDO>
F 5

$$$$
=
 OpenBabel11052414033D

 34 39  0  0  1  0  0  0  0  0999 V2000
  185.1050  178.4610  143.0230 C   0  0  0  0  0  0  0  0  0  0  0  0
  187.2080  177.5040  144.1810 C   0  0  0  0  0  0  0  0  0  0  0  0
  191.8470  177.1180  143.2190 C   0  0  1  0  0  3  0  0  0  0  0  0
  187.0600  177.8380  141.7230 C   0  0  0  0  0  0  0  0  0  0  0  0
  190.5890  177.2860  140.8700 C   0  0  0  0  0  2  0  0  0  0  0  0
  186.6580  177.2550  145.2870 O   0  0  0  0  0  0  0  0  0  0  0  0
  189.2150  177.8530  142.7920 C   0  0  2  0  0  3  0  0  0  0  0  0
  186.4030  177.9050  142.9730 C   0  0  0  0  0  0  0  0  0  0  0  0
  190.5910  177.4170  142.3890 C   0  0  1  0  0  0  0  0  0  0  0  0
  189.1800  177.2620  140.4440 N   0  0  2  0  0  0  0  0  0  0  0  0
  186.5280  178.4430  140.5830 C   0  0  0  0  0  0  0  0  0  0  0  0
  184.5420  179.0020  141.8560 C   0  0  0  0  0  3  0  0  0  0  0  0
  188.6440  177.3900  144.0540 N   0  0  0  0  0  2  0  0  0  0  0  0
  188.8730  178.4800  139.6840 C   0  0  0  0  0  2  0  0  0  0  0  0
  187.3710  178.5390  139.3330 C   0  0  1  0  0  3  0  0  0  0  0  0
  191.5370  178.5350  142.7780 C   0  0  0  0  0  2  0  0  0  0  0  0
  188.4180  177.2210  141.7000 C   0  0  2  0  0  3  0  0  0  0  0  0
  185.2530  179.0110  140.6490 C   0  0  0  0  0  3  0  0  0  0  0  0
  192.3440  175.4070  146.5730 C   0  0  0  0  0  2  0  0  0  0  0  0
  191.5190  176.8520  144.6640 C   0  0  0  0  0  0  0  0  0  0  0  0
  191.7590  175.4450  145.1690 C   0  0  0  0  0  2  0  0  0  0  0  0
  190.1510  176.4810  147.3430 C   0  0  0  0  0  2  0  0  0  0  0  0
  190.7620  177.8050  146.9140 C   0  0  0  0  0  2  0  0  0  0  0  0
  191.0480  177.8580  145.4340 C   0  0  0  0  0  3  0  0  0  0  0  0
  191.2370  175.4400  147.6290 C   0  0  0  0  0  2  0  0  0  0  0  0
  182.8940  178.9510  144.0070 C   0  0  0  0  0  1  0  0  0  0  0  0
  184.3340  178.5700  144.2970 C   0  0  0  0  0  2  0  0  0  0  0  0
  187.0080  177.5020  138.2600 C   0  0  1  0  0  3  0  0  0  0  0  0
  184.8320  176.7720  137.1900 C   0  0  0  0  0  0  0  0  0  0  0  0
  185.1360  175.5560  137.3160 O   0  0  0  0  0  0  0  0  0  0  0  0
  185.7150  177.7950  137.6520 N   0  0  0  0  0  2  0  0  0  0  0  0
  183.5400  177.1470  136.5610 C   0  0  0  0  0  1  0  0  0  0  0  0
  188.5810  175.6390  137.2720 C   0  0  0  0  0  1  0  0  0  0  0  0
  188.2990  177.4080  136.9790 S   0  0  0  0  0  0  0  0  0  0  0  0
  1 27  1  0  0  0  0
  2  6  2  0  0  0  0
  3 20  1  1  0  0  0
  4  8  2  0  0  0  0
  7 13  1  1  0  0  0
  8  1  1  0  0  0  0
  8  2  1  0  0  0  0
  9  5  1  6  0  0  0
  9 16  1  0  0  0  0
  9  7  1  0  0  0  0
  9  3  1  0  0  0  0
 10 14  1  1  0  0  0
 10  5  1  0  0  0  0
 10 17  1  0  0  0  0
 11 18  2  0  0  0  0
 11  4  1  0  0  0  0
 12  1  2  0  0  0  0
 13  2  1  0  0  0  0
 15 28  1  6  0  0  0
 15 14  1  0  0  0  0
 15 11  1  0  0  0  0
 16  3  1  0  0  0  0
 17  4  1  6  0  0  0
 17  7  1  0  0  0  0
 18 12  1  0  0  0  0
 19 25  1  0  0  0  0
 20 21  1  0  0  0  0
 20 24  2  0  0  0  0
 21 19  1  0  0  0  0
 22 25  1  0  0  0  0
 23 22  1  0  0  0  0
 24 23  1  0  0  0  0
 26 27  1  0  0  0  0
 28 34  1  6  0  0  0
 29 30  2  0  0  0  0
 29 31  1  0  0  0  0
 31 28  1  0  0  0  0
 32 29  1  0  0  0  0
 34 33  1  0  0  0  0
M  END
>  <MODEL>
2

>  <REMARK>
 VINA RESULT:      -8.3      2.403      7.354
  Name = 
  5 active torsions:
  status: ('A' for Active; 'I' for Inactive)
    1  A    between atoms: C_1  and  C_19
    2  A    between atoms: C_3  and  C_13
    3  A    between atoms: C_12  and  N_23
    4  A    between atoms: C_12  and  S_27
    5  A    between atoms: C_12  and  C_28
                            x       y       z     vdW  Elec       q    Type
                         _______ _______ _______ _____ _____    ______ ____

>  <TORSDO>
F 5

$$$$
=
 OpenBabel11052414033D

 34 39  0  0  1  0  0  0  0  0999 V2000
  185.1540  178.3410  144.9610 C   0  0  0  0  0  0  0  0  0  0  0  0
  187.4740  177.2480  145.2840 C   0  0  0  0  0  0  0  0  0  0  0  0
  191.5640  176.9760  142.8780 C   0  0  1  0  0  3  0  0  0  0  0  0
  186.5810  177.8780  143.0510 C   0  0  0  0  0  0  0  0  0  0  0  0
  189.6450  177.4310  141.0770 C   0  0  0  0  0  2  0  0  0  0  0  0
  187.2860  176.8660  146.4690 O   0  0  0  0  0  0  0  0  0  0  0  0
  188.9610  177.7610  143.3850 C   0  0  2  0  0  3  0  0  0  0  0  0
  186.3490  177.7940  144.4430 C   0  0  0  0  0  0  0  0  0  0  0  0
  190.1250  177.3750  142.5230 C   0  0  1  0  0  0  0  0  0  0  0  0
  188.1730  177.4600  141.1140 N   0  0  2  0  0  0  0  0  0  0  0  0
  185.7450  178.6180  142.2130 C   0  0  0  0  0  0  0  0  0  0  0  0
  184.2770  179.0210  144.1000 C   0  0  0  0  0  3  0  0  0  0  0  0
  188.7930  177.1490  144.7000 N   0  0  0  0  0  2  0  0  0  0  0  0
  187.6940  178.7620  140.6350 C   0  0  0  0  0  2  0  0  0  0  0  0
  186.1610  178.8650  140.7820 C   0  0  1  0  0  3  0  0  0  0  0  0
  191.1880  178.4360  142.7220 C   0  0  0  0  0  2  0  0  0  0  0  0
  187.8400  177.2670  142.5320 C   0  0  2  0  0  3  0  0  0  0  0  0
  184.5770  179.1760  142.7410 C   0  0  0  0  0  3  0  0  0  0  0  0
  190.8360  177.2090  146.5970 C   0  0  0  0  0  2  0  0  0  0  0  0
  191.6920  176.5360  144.3120 C   0  0  0  0  0  0  0  0  0  0  0  0
  191.6280  177.6210  145.3650 C   0  0  0  0  0  2  0  0  0  0  0  0
  192.6450  175.4350  146.9690 C   0  0  0  0  0  2  0  0  0  0  0  0
  191.8860  174.5890  145.9590 C   0  0  0  0  0  2  0  0  0  0  0  0
  191.8430  175.2220  144.5910 C   0  0  0  0  0  3  0  0  0  0  0  0
  191.7310  176.4840  147.6060 C   0  0  0  0  0  2  0  0  0  0  0  0
  185.5580  179.3970  147.1580 C   0  0  0  0  0  1  0  0  0  0  0  0
  184.8220  178.2950  146.4170 C   0  0  0  0  0  2  0  0  0  0  0  0
  185.4410  177.9660  139.7650 C   0  0  1  0  0  3  0  0  0  0  0  0
  183.5490  179.5800  139.2870 C   0  0  0  0  0  0  0  0  0  0  0  0
  184.3580  180.4930  138.9740 O   0  0  0  0  0  0  0  0  0  0  0  0
  184.0210  178.2910  139.6790 N   0  0  0  0  0  2  0  0  0  0  0  0
  182.0880  179.8430  139.2420 C   0  0  0  0  0  1  0  0  0  0  0  0
  185.1230  176.8240  137.4170 C   0  0  0  0  0  1  0  0  0  0  0  0
  186.2160  178.0900  138.1210 S   0  0  0  0  0  0  0  0  0  0  0  0
  1 27  1  0  0  0  0
  2  6  2  0  0  0  0
  3 20  1  1  0  0  0
  4  8  2  0  0  0  0
  5 10  1  0  0  0  0
  7 13  1  1  0  0  0
  8  1  1  0  0  0  0
  8  2  1  0  0  0  0
  9  5  1  6  0  0  0
  9 16  1  0  0  0  0
  9  3  1  0  0  0  0
  9  7  1  0  0  0  0
 10 14  1  1  0  0  0
 10 17  1  0  0  0  0
 11 18  2  0  0  0  0
 11  4  1  0  0  0  0
 12  1  2  0  0  0  0
 13  2  1  0  0  0  0
 14 15  1  0  0  0  0
 15 28  1  6  0  0  0
 15 11  1  0  0  0  0
 16  3  1  0  0  0  0
 17  4  1  1  0  0  0
 17  7  1  0  0  0  0
 18 12  1  0  0  0  0
 19 25  1  0  0  0  0
 20 24  2  0  0  0  0
 20 21  1  0  0  0  0
 21 19  1  0  0  0  0
 22 25  1  0  0  0  0
 23 22  1  0  0  0  0
 24 23  1  0  0  0  0
 27 26  1  0  0  0  0
 28 34  1  6  0  0  0
 29 31  1  0  0  0  0
 30 29  2  0  0  0  0
 31 28  1  0  0  0  0
 32 29  1  0  0  0  0
 33 34  1  0  0  0  0
M  END
>  <MODEL>
3

>  <REMARK>
 VINA RESULT:      -8.3      2.541      7.437
  Name = 
  5 active torsions:
  status: ('A' for Active; 'I' for Inactive)
    1  A    between atoms: C_1  and  C_19
    2  A    between atoms: C_3  and  C_13
    3  A    between atoms: C_12  and  N_23
    4  A    between atoms: C_12  and  S_27
    5  A    between atoms: C_12  and  C_28
                            x       y       z     vdW  Elec       q    Type
                         _______ _______ _______ _____ _____    ______ ____

>  <TORSDO>
F 5

$$$$
=
 OpenBabel11052414033D

 34 39  0  0  1  0  0  0  0  0999 V2000
  185.6700  178.1470  144.6460 C   0  0  0  0  0  0  0  0  0  0  0  0
  184.0860  179.0660  142.8220 C   0  0  0  0  0  0  0  0  0  0  0  0
  183.6760  178.7820  138.0960 C   0  0  1  0  0  3  0  0  0  0  0  0
  186.4070  178.3190  142.3380 C   0  0  0  0  0  0  0  0  0  0  0  0
  186.2450  178.3330  138.6690 C   0  0  0  0  0  2  0  0  0  0  0  0
  183.2390  179.5650  143.6100 O   0  0  0  0  0  0  0  0  0  0  0  0
  184.7560  178.2660  140.5880 C   0  0  2  0  0  3  0  0  0  0  0  0
  185.4110  178.5450  143.3150 C   0  0  0  0  0  0  0  0  0  0  0  0
  184.7910  178.4750  139.1050 C   0  0  1  0  0  0  0  0  0  0  0  0
  187.0680  178.4310  139.8860 N   0  0  2  0  0  0  0  0  0  0  0  0
  187.5570  177.5810  142.6220 C   0  0  0  0  0  0  0  0  0  0  0  0
  186.8640  177.4700  144.9430 C   0  0  0  0  0  3  0  0  0  0  0  0
  183.7970  179.0030  141.4070 N   0  0  0  0  0  2  0  0  0  0  0  0
  187.7070  177.1370  140.1540 C   0  0  0  0  0  2  0  0  0  0  0  0
  188.4750  177.1750  141.4930 C   0  0  1  0  0  3  0  0  0  0  0  0
  183.9870  177.3510  138.4850 C   0  0  0  0  0  2  0  0  0  0  0  0
  186.1130  178.7750  140.9480 C   0  0  2  0  0  3  0  0  0  0  0  0
  187.7930  177.1720  143.9380 C   0  0  0  0  0  3  0  0  0  0  0  0
  180.8920  181.3230  138.5560 C   0  0  0  0  0  2  0  0  0  0  0  0
  182.4450  179.3340  138.7630 C   0  0  0  0  0  0  0  0  0  0  0  0
  182.3130  180.8410  138.8080 C   0  0  0  0  0  2  0  0  0  0  0  0
  180.2670  180.1090  140.7230 C   0  0  0  0  0  2  0  0  0  0  0  0
  180.1960  178.8460  139.8800 C   0  0  0  0  0  2  0  0  0  0  0  0
  181.5270  178.4820  139.2700 C   0  0  0  0  0  3  0  0  0  0  0  0
  180.0870  181.3590  139.8580 C   0  0  0  0  0  2  0  0  0  0  0  0
  185.3970  178.6000  147.0590 C   0  0  0  0  0  1  0  0  0  0  0  0
  184.6800  178.3480  145.7450 C   0  0  0  0  0  2  0  0  0  0  0  0
  189.7410  178.0380  141.3840 C   0  0  1  0  0  3  0  0  0  0  0  0
  190.9590  178.5740  143.5390 C   0  0  0  0  0  0  0  0  0  0  0  0
  190.3380  179.6630  143.6620 O   0  0  0  0  0  0  0  0  0  0  0  0
  190.7010  177.7090  142.4330 N   0  0  0  0  0  2  0  0  0  0  0  0
  191.9670  178.1820  144.5570 C   0  0  0  0  0  1  0  0  0  0  0  0
  192.1310  177.4460  140.4570 C   0  0  0  0  0  1  0  0  0  0  0  0
  190.5140  177.8600  139.7440 S   0  0  0  0  0  0  0  0  0  0  0  0
  1 12  1  0  0  0  0
  1 27  1  0  0  0  0
  2  8  1  0  0  0  0
  2  6  2  0  0  0  0
  3 16  1  0  0  0  0
  3 20  1  1  0  0  0
  3  9  1  0  0  0  0
  4 11  2  0  0  0  0
  4  8  1  0  0  0  0
  5  9  1  0  0  0  0
  7 17  1  0  0  0  0
  7 13  1  1  0  0  0
  8  1  2  0  0  0  0
  9 16  1  6  0  0  0
  9  7  1  0  0  0  0
 10  5  1  6  0  0  0
 10 14  1  0  0  0  0
 10 17  1  0  0  0  0
 11 18  1  0  0  0  0
 13  2  1  0  0  0  0
 14 15  1  0  0  0  0
 15 28  1  6  0  0  0
 15 11  1  0  0  0  0
 17  4  1  1  0  0  0
 18 12  2  0  0  0  0
 19 21  1  0  0  0  0
 19 25  1  0  0  0  0
 20 21  1  0  0  0  0
 20 24  2  0  0  0  0
 23 22  1  0  0  0  0
 24 23  1  0  0  0  0
 25 22  1  0  0  0  0
 27 26  1  0  0  0  0
 28 34  1  6  0  0  0
 28 31  1  0  0  0  0
 29 30  2  0  0  0  0
 29 32  1  0  0  0  0
 31 29  1  0  0  0  0
 34 33  1  0  0  0  0
M  END
>  <MODEL>
4

>  <REMARK>
 VINA RESULT:      -7.8      3.277      5.065
  Name = 
  5 active torsions:
  status: ('A' for Active; 'I' for Inactive)
    1  A    between atoms: C_1  and  C_19
    2  A    between atoms: C_3  and  C_13
    3  A    between atoms: C_12  and  N_23
    4  A    between atoms: C_12  and  S_27
    5  A    between atoms: C_12  and  C_28
                            x       y       z     vdW  Elec       q    Type
                         _______ _______ _______ _____ _____    ______ ____

>  <TORSDO>
F 5

$$$$
=
 OpenBabel11052414033D

 34 39  0  0  1  0  0  0  0  0999 V2000
  186.5910  178.0410  137.9470 C   0  0  0  0  0  0  0  0  0  0  0  0
  188.0870  178.2480  140.0450 C   0  0  0  0  0  0  0  0  0  0  0  0
  187.5790  177.7880  144.7480 C   0  0  1  0  0  3  0  0  0  0  0  0
  185.6120  178.4700  140.1280 C   0  0  0  0  0  0  0  0  0  0  0  0
  185.1670  178.3910  143.7730 C   0  0  0  0  0  2  0  0  0  0  0  0
  189.1770  178.3790  139.4270 O   0  0  0  0  0  0  0  0  0  0  0  0
  186.8050  177.7580  142.0930 C   0  0  2  0  0  3  0  0  0  0  0  0
  186.7630  178.2940  139.3270 C   0  0  0  0  0  0  0  0  0  0  0  0
  186.6130  177.9520  143.5670 C   0  0  1  0  0  0  0  0  0  0  0  0
  184.6560  178.8140  142.4580 N   0  0  2  0  0  0  0  0  0  0  0  0
  184.3290  178.2470  139.6270 C   0  0  0  0  0  0  0  0  0  0  0  0
  185.2930  177.8900  137.4310 C   0  0  0  0  0  3  0  0  0  0  0  0
  188.0940  178.0650  141.4790 N   0  0  0  0  0  2  0  0  0  0  0  0
  183.6190  177.8780  142.0080 C   0  0  0  0  0  2  0  0  0  0  0  0
  183.1550  178.2260  140.5780 C   0  0  1  0  0  3  0  0  0  0  0  0
  186.8060  176.5980  144.2170 C   0  0  0  0  0  2  0  0  0  0  0  0
  185.8300  178.7630  141.5760 C   0  0  2  0  0  3  0  0  0  0  0  0
  184.1720  177.9740  138.2650 C   0  0  0  0  0  3  0  0  0  0  0  0
  190.5690  176.5420  142.7670 C   0  0  0  0  0  2  0  0  0  0  0  0
  189.0190  177.8170  144.3100 C   0  0  0  0  0  0  0  0  0  0  0  0
  189.6580  176.4840  143.9840 C   0  0  0  0  0  2  0  0  0  0  0  0
  192.0270  178.1440  144.1330 C   0  0  0  0  0  2  0  0  0  0  0  0
  191.0590  179.2350  143.7030 C   0  0  0  0  0  2  0  0  0  0  0  0
  189.6600  179.0030  144.2160 C   0  0  0  0  0  3  0  0  0  0  0  0
  191.9870  176.9600  143.1630 C   0  0  0  0  0  2  0  0  0  0  0  0
  187.9240  176.3700  136.7100 C   0  0  0  0  0  1  0  0  0  0  0  0
  187.7470  177.8440  137.0220 C   0  0  0  0  0  2  0  0  0  0  0  0
  182.3220  179.5160  140.5600 C   0  0  1  0  0  3  0  0  0  0  0  0
  181.8480  180.7900  138.4240 C   0  0  0  0  0  0  0  0  0  0  0  0
  182.6960  181.6730  138.7190 O   0  0  0  0  0  0  0  0  0  0  0  0
  181.6200  179.6800  139.2920 N   0  0  0  0  0  2  0  0  0  0  0  0
  181.0790  180.9010  137.1580 C   0  0  0  0  0  1  0  0  0  0  0  0
  179.9760  178.4490  141.0870 C   0  0  0  0  0  1  0  0  0  0  0  0
  181.1380  179.5480  141.9440 S   0  0  0  0  0  0  0  0  0  0  0  0
  1  8  1  0  0  0  0
  2 13  1  0  0  0  0
  3 20  1  6  0  0  0
  6  2  2  0  0  0  0
  7 13  1  1  0  0  0
  7  9  1  0  0  0  0
  8  2  1  0  0  0  0
  8  4  2  0  0  0  0
  9  5  1  1  0  0  0
  9 16  1  0  0  0  0
  9  3  1  0  0  0  0
 10 14  1  6  0  0  0
 10  5  1  0  0  0  0
 11  4  1  0  0  0  0
 11 15  1  0  0  0  0
 12  1  2  0  0  0  0
 12 18  1  0  0  0  0
 15 28  1  1  0  0  0
 15 14  1  0  0  0  0
 16  3  1  0  0  0  0
 17  4  1  6  0  0  0
 17  7  1  0  0  0  0
 17 10  1  0  0  0  0
 18 11  2  0  0  0  0
 19 25  1  0  0  0  0
 19 21  1  0  0  0  0
 21 20  1  0  0  0  0
 23 22  1  0  0  0  0
 23 24  1  0  0  0  0
 24 20  2  0  0  0  0
 25 22  1  0  0  0  0
 26 27  1  0  0  0  0
 27  1  1  0  0  0  0
 28 31  1  6  0  0  0
 28 34  1  0  0  0  0
 29 30  2  0  0  0  0
 29 31  1  0  0  0  0
 32 29  1  0  0  0  0
 33 34  1  0  0  0  0
M  END
>  <MODEL>
5

>  <REMARK>
 VINA RESULT:      -7.7      3.369      8.205
  Name = 
  5 active torsions:
  status: ('A' for Active; 'I' for Inactive)
    1  A    between atoms: C_1  and  C_19
    2  A    between atoms: C_3  and  C_13
    3  A    between atoms: C_12  and  N_23
    4  A    between atoms: C_12  and  S_27
    5  A    between atoms: C_12  and  C_28
                            x       y       z     vdW  Elec       q    Type
                         _______ _______ _______ _____ _____    ______ ____

>  <TORSDO>
F 5

$$$$
=
 OpenBabel11052414033D

 34 39  0  0  1  0  0  0  0  0999 V2000
  184.4200  178.4520  145.4720 C   0  0  0  0  0  0  0  0  0  0  0  0
  186.8210  177.6580  144.9370 C   0  0  0  0  0  0  0  0  0  0  0  0
  189.8140  177.8480  141.2490 C   0  0  1  0  0  3  0  0  0  0  0  0
  185.1350  178.1330  143.1730 C   0  0  0  0  0  0  0  0  0  0  0  0
  187.3470  178.0290  140.2430 C   0  0  0  0  0  2  0  0  0  0  0  0
  187.1070  177.2790  146.1030 O   0  0  0  0  0  0  0  0  0  0  0  0
  187.4780  178.3160  142.6530 C   0  0  2  0  0  3  0  0  0  0  0  0
  185.4160  178.0460  144.5560 C   0  0  0  0  0  0  0  0  0  0  0  0
  188.3050  178.0600  141.4290 C   0  0  1  0  0  0  0  0  0  0  0  0
  185.9890  177.8780  140.7920 N   0  0  2  0  0  0  0  0  0  0  0  0
  183.9760  178.7490  142.6990 C   0  0  0  0  0  0  0  0  0  0  0  0
  183.2220  179.0030  144.9890 C   0  0  0  0  0  3  0  0  0  0  0  0
  187.8550  177.7110  143.9280 N   0  0  0  0  0  2  0  0  0  0  0  0
  185.2170  179.1020  140.5440 C   0  0  0  0  0  2  0  0  0  0  0  0
  183.8320  179.0190  141.2190 C   0  0  1  0  0  3  0  0  0  0  0  0
  189.2330  179.2470  141.2720 C   0  0  0  0  0  2  0  0  0  0  0  0
  186.1980  177.6720  142.2320 C   0  0  2  0  0  3  0  0  0  0  0  0
  183.0070  179.1680  143.6150 C   0  0  0  0  0  3  0  0  0  0  0  0
  191.6800  175.4540  143.5300 C   0  0  0  0  0  2  0  0  0  0  0  0
  190.4870  177.4530  142.5360 C   0  0  0  0  0  0  0  0  0  0  0  0
  190.3890  175.9970  142.9380 C   0  0  0  0  0  2  0  0  0  0  0  0
  191.3270  177.1340  145.4310 C   0  0  0  0  0  2  0  0  0  0  0  0
  191.9560  178.1640  144.5060 C   0  0  0  0  0  2  0  0  0  0  0  0
  191.1450  178.3900  143.2550 C   0  0  0  0  0  3  0  0  0  0  0  0
  191.7430  175.7140  145.0380 C   0  0  0  0  0  2  0  0  0  0  0  0
  185.6800  179.3980  147.3740 C   0  0  0  0  0  1  0  0  0  0  0  0
  184.6260  178.3920  146.9500 C   0  0  0  0  0  2  0  0  0  0  0  0
  182.9180  178.0200  140.4950 C   0  0  1  0  0  3  0  0  0  0  0  0
  180.5010  177.2750  140.6240 C   0  0  0  0  0  0  0  0  0  0  0  0
  180.7970  176.1200  140.2180 O   0  0  0  0  0  0  0  0  0  0  0  0
  181.5120  178.2690  140.7970 N   0  0  0  0  0  2  0  0  0  0  0  0
  179.0870  177.6080  140.9320 C   0  0  0  0  0  1  0  0  0  0  0  0
  182.2680  179.6210  138.5100 C   0  0  0  0  0  1  0  0  0  0  0  0
  183.1930  178.0700  138.6940 S   0  0  0  0  0  0  0  0  0  0  0  0
  1 27  1  0  0  0  0
  2  6  2  0  0  0  0
  3 16  1  0  0  0  0
  3  9  1  0  0  0  0
  3 20  1  1  0  0  0
  4  8  1  0  0  0  0
  7 13  1  1  0  0  0
  8  2  1  0  0  0  0
  8  1  2  0  0  0  0
  9  5  1  6  0  0  0
  9  7  1  0  0  0  0
 10  5  1  6  0  0  0
 10 17  1  0  0  0  0
 11  4  2  0  0  0  0
 11 18  1  0  0  0  0
 12  1  1  0  0  0  0
 13  2  1  0  0  0  0
 14 10  1  0  0  0  0
 14 15  1  0  0  0  0
 15 28  1  6  0  0  0
 15 11  1  0  0  0  0
 16  9  1  0  0  0  0
 17  7  1  0  0  0  0
 17  4  1  1  0  0  0
 18 12  2  0  0  0  0
 19 25  1  0  0  0  0
 20 21  1  0  0  0  0
 20 24  2  0  0  0  0
 21 19  1  0  0  0  0
 23 22  1  0  0  0  0
 24 23  1  0  0  0  0
 25 22  1  0  0  0  0
 27 26  1  0  0  0  0
 28 34  1  6  0  0  0
 28 31  1  0  0  0  0
 29 31  1  0  0  0  0
 29 32  1  0  0  0  0
 30 29  2  0  0  0  0
 33 34  1  0  0  0  0
M  END
>  <MODEL>
6

>  <REMARK>
 VINA RESULT:      -7.1      3.269      7.413
  Name = 
  5 active torsions:
  status: ('A' for Active; 'I' for Inactive)
    1  A    between atoms: C_1  and  C_19
    2  A    between atoms: C_3  and  C_13
    3  A    between atoms: C_12  and  N_23
    4  A    between atoms: C_12  and  S_27
    5  A    between atoms: C_12  and  C_28
                            x       y       z     vdW  Elec       q    Type
                         _______ _______ _______ _____ _____    ______ ____

>  <TORSDO>
F 5

$$$$
=
 OpenBabel11052414033D

 34 39  0  0  1  0  0  0  0  0999 V2000
  187.6660  178.2200  138.9200 C   0  0  0  0  0  0  0  0  0  0  0  0
  185.3190  177.8560  137.9010 C   0  0  0  0  0  0  0  0  0  0  0  0
  180.8200  178.8430  139.0730 C   0  0  1  0  0  3  0  0  0  0  0  0
  185.6900  178.2290  140.3310 C   0  0  0  0  0  0  0  0  0  0  0  0
  182.2000  178.7370  141.3570 C   0  0  0  0  0  2  0  0  0  0  0  0
  185.7150  177.4180  136.7890 O   0  0  0  0  0  0  0  0  0  0  0  0
  183.5710  178.8150  139.3520 C   0  0  2  0  0  3  0  0  0  0  0  0
  186.2690  178.0580  139.0530 C   0  0  0  0  0  0  0  0  0  0  0  0
  182.1520  178.8040  139.8340 C   0  0  1  0  0  0  0  0  0  0  0  0
  183.5660  178.3290  141.7250 N   0  0  2  0  0  0  0  0  0  0  0  0
  186.4320  178.7010  141.4140 C   0  0  0  0  0  0  0  0  0  0  0  0
  188.4220  178.6230  140.0330 C   0  0  0  0  0  3  0  0  0  0  0  0
  183.9190  178.1600  138.0930 N   0  0  0  0  0  2  0  0  0  0  0  0
  184.2450  179.4390  142.4060 C   0  0  0  0  0  2  0  0  0  0  0  0
  185.7190  179.0820  142.6910 C   0  0  1  0  0  3  0  0  0  0  0  0
  181.5400  180.1280  139.4260 C   0  0  0  0  0  2  0  0  0  0  0  0
  184.2150  178.0250  140.4420 C   0  0  2  0  0  3  0  0  0  0  0  0
  187.8100  178.8800  141.2650 C   0  0  0  0  0  3  0  0  0  0  0  0
  180.2040  176.6050  136.0680 C   0  0  0  0  0  2  0  0  0  0  0  0
  180.9790  178.4380  137.6320 C   0  0  0  0  0  0  0  0  0  0  0  0
  180.9680  176.9540  137.3360 C   0  0  0  0  0  2  0  0  0  0  0  0
  181.9860  177.9510  134.8150 C   0  0  0  0  0  2  0  0  0  0  0  0
  181.1810  179.1840  135.1940 C   0  0  0  0  0  2  0  0  0  0  0  0
  181.1110  179.3940  136.6850 C   0  0  0  0  0  3  0  0  0  0  0  0
  181.1120  176.6940  134.8390 C   0  0  0  0  0  2  0  0  0  0  0  0
  189.0550  179.3490  137.2190 C   0  0  0  0  0  1  0  0  0  0  0  0
  188.3670  178.0550  137.6120 C   0  0  0  0  0  2  0  0  0  0  0  0
  185.8330  178.0270  143.8010 C   0  0  1  0  0  3  0  0  0  0  0  0
  188.1290  177.0410  144.2150 C   0  0  0  0  0  0  0  0  0  0  0  0
  187.8950  176.0770  143.4390 O   0  0  0  0  0  0  0  0  0  0  0  0
  187.1490  178.0560  144.4320 N   0  0  0  0  0  2  0  0  0  0  0  0
  189.4390  177.1270  144.9080 C   0  0  0  0  0  1  0  0  0  0  0  0
  185.6810  179.0030  146.2400 C   0  0  0  0  0  1  0  0  0  0  0  0
  184.5300  178.2530  145.0540 S   0  0  0  0  0  0  0  0  0  0  0  0
  1  8  2  0  0  0  0
  1 12  1  0  0  0  0
  2 13  1  0  0  0  0
  2  8  1  0  0  0  0
  3 20  1  6  0  0  0
  3 16  1  0  0  0  0
  3  9  1  0  0  0  0
  4 11  2  0  0  0  0
  6  2  2  0  0  0  0
  7 13  1  6  0  0  0
  7  9  1  0  0  0  0
  7 17  1  0  0  0  0
  8  4  1  0  0  0  0
  9 16  1  1  0  0  0
  9  5  1  0  0  0  0
 10  5  1  6  0  0  0
 10 14  1  0  0  0  0
 11 15  1  0  0  0  0
 12 18  2  0  0  0  0
 14 15  1  0  0  0  0
 15 28  1  1  0  0  0
 17  4  1  1  0  0  0
 17 10  1  0  0  0  0
 18 11  1  0  0  0  0
 19 21  1  0  0  0  0
 21 20  1  0  0  0  0
 22 25  1  0  0  0  0
 22 23  1  0  0  0  0
 23 24  1  0  0  0  0
 24 20  2  0  0  0  0
 25 19  1  0  0  0  0
 26 27  1  0  0  0  0
 27  1  1  0  0  0  0
 28 31  1  1  0  0  0
 28 34  1  0  0  0  0
 29 31  1  0  0  0  0
 29 32  1  0  0  0  0
 30 29  2  0  0  0  0
 34 33  1  0  0  0  0
M  END
>  <MODEL>
7

>  <REMARK>
 VINA RESULT:      -6.9      3.827      6.286
  Name = 
  5 active torsions:
  status: ('A' for Active; 'I' for Inactive)
    1  A    between atoms: C_1  and  C_19
    2  A    between atoms: C_3  and  C_13
    3  A    between atoms: C_12  and  N_23
    4  A    between atoms: C_12  and  S_27
    5  A    between atoms: C_12  and  C_28
                            x       y       z     vdW  Elec       q    Type
                         _______ _______ _______ _____ _____    ______ ____

>  <TORSDO>
F 5

$$$$
=
 OpenBabel11052414033D

 34 39  0  0  1  0  0  0  0  0999 V2000
  186.8420  178.0530  143.3870 C   0  0  0  0  0  0  0  0  0  0  0  0
  184.6560  178.8410  142.2550 C   0  0  0  0  0  0  0  0  0  0  0  0
  182.6300  178.4980  137.9690 C   0  0  1  0  0  3  0  0  0  0  0  0
  186.7060  178.2650  140.9710 C   0  0  0  0  0  0  0  0  0  0  0  0
  185.2620  178.2450  137.5940 C   0  0  0  0  0  2  0  0  0  0  0  0
  184.1070  179.2790  143.3000 O   0  0  0  0  0  0  0  0  0  0  0  0
  184.5530  178.0780  139.9120 C   0  0  2  0  0  3  0  0  0  0  0  0
  186.1030  178.4220  142.2400 C   0  0  0  0  0  0  0  0  0  0  0  0
  184.0480  178.2810  138.5160 C   0  0  1  0  0  0  0  0  0  0  0  0
  186.4520  178.4110  138.4460 N   0  0  2  0  0  0  0  0  0  0  0  0
  187.9320  177.6160  140.8170 C   0  0  0  0  0  0  0  0  0  0  0  0
  188.1100  177.4680  143.2310 C   0  0  0  0  0  3  0  0  0  0  0  0
  183.8930  178.7470  141.0310 N   0  0  0  0  0  2  0  0  0  0  0  0
  187.2350  177.1700  138.4460 C   0  0  0  0  0  2  0  0  0  0  0  0
  188.4200  177.2730  139.4290 C   0  0  1  0  0  3  0  0  0  0  0  0
  183.1600  177.0960  138.1940 C   0  0  0  0  0  2  0  0  0  0  0  0
  185.9090  178.6890  139.7830 C   0  0  2  0  0  3  0  0  0  0  0  0
  188.6440  177.2340  141.9580 C   0  0  0  0  0  3  0  0  0  0  0  0
  180.0340  180.8440  139.4430 C   0  0  0  0  0  2  0  0  0  0  0  0
  181.6770  178.9610  139.0380 C   0  0  0  0  0  0  0  0  0  0  0  0
  181.4800  180.4550  139.1740 C   0  0  0  0  0  2  0  0  0  0  0  0
  180.2710  179.5710  141.6530 C   0  0  0  0  0  2  0  0  0  0  0  0
  179.9870  178.3140  140.8460 C   0  0  0  0  0  2  0  0  0  0  0  0
  181.0430  178.0450  139.8040 C   0  0  0  0  0  3  0  0  0  0  0  0
  179.7290  180.8140  140.9430 C   0  0  0  0  0  2  0  0  0  0  0  0
  187.2170  177.5230  145.7700 C   0  0  0  0  0  1  0  0  0  0  0  0
  186.2900  178.1860  144.7680 C   0  0  0  0  0  2  0  0  0  0  0  0
  189.5020  178.2280  138.9010 C   0  0  1  0  0  3  0  0  0  0  0  0
  191.7710  177.2400  139.4360 C   0  0  0  0  0  0  0  0  0  0  0  0
  191.6900  177.6100  140.6370 O   0  0  0  0  0  0  0  0  0  0  0  0
  190.7100  177.5040  138.5180 N   0  0  0  0  0  2  0  0  0  0  0  0
  192.9810  176.5160  138.9690 C   0  0  0  0  0  1  0  0  0  0  0  0
  189.5220  178.0190  136.2780 C   0  0  0  0  0  1  0  0  0  0  0  0
  188.8800  179.2040  137.4940 S   0  0  0  0  0  0  0  0  0  0  0  0
  1 27  1  0  0  0  0
  2  6  2  0  0  0  0
  3 16  1  0  0  0  0
  3  9  1  0  0  0  0
  3 20  1  1  0  0  0
  4  8  1  0  0  0  0
  7 13  1  1  0  0  0
  8  2  1  0  0  0  0
  8  1  2  0  0  0  0
  9  5  1  6  0  0  0
  9  7  1  0  0  0  0
 10  5  1  6  0  0  0
 10 17  1  0  0  0  0
 11  4  2  0  0  0  0
 11 18  1  0  0  0  0
 12  1  1  0  0  0  0
 13  2  1  0  0  0  0
 14 10  1  0  0  0  0
 14 15  1  0  0  0  0
 15 28  1  6  0  0  0
 15 11  1  0  0  0  0
 16  9  1  0  0  0  0
 17  7  1  0  0  0  0
 17  4  1  1  0  0  0
 18 12  2  0  0  0  0
 19 25  1  0  0  0  0
 20 21  1  0  0  0  0
 20 24  2  0  0  0  0
 21 19  1  0  0  0  0
 23 22  1  0  0  0  0
 24 23  1  0  0  0  0
 25 22  1  0  0  0  0
 27 26  1  0  0  0  0
 28 34  1  6  0  0  0
 29 30  2  0  0  0  0
 31 28  1  0  0  0  0
 31 29  1  0  0  0  0
 32 29  1  0  0  0  0
 33 34  1  0  0  0  0
M  END
>  <MODEL>
8

>  <REMARK>
 VINA RESULT:      -6.8      3.480      6.254
  Name = 
  5 active torsions:
  status: ('A' for Active; 'I' for Inactive)
    1  A    between atoms: C_1  and  C_19
    2  A    between atoms: C_3  and  C_13
    3  A    between atoms: C_12  and  N_23
    4  A    between atoms: C_12  and  S_27
    5  A    between atoms: C_12  and  C_28
                            x       y       z     vdW  Elec       q    Type
                         _______ _______ _______ _____ _____    ______ ____

>  <TORSDO>
F 5

$$$$
=
 OpenBabel11052414033D

 34 39  0  0  1  0  0  0  0  0999 V2000
  185.0940  178.4310  142.4840 C   0  0  0  0  0  0  0  0  0  0  0  0
  187.0870  177.5060  143.8440 C   0  0  0  0  0  0  0  0  0  0  0  0
  191.8060  177.2180  143.3560 C   0  0  1  0  0  3  0  0  0  0  0  0
  187.1820  177.8560  141.3850 C   0  0  0  0  0  0  0  0  0  0  0  0
  190.7900  177.3800  140.8920 C   0  0  0  0  0  2  0  0  0  0  0  0
  186.4330  177.2380  144.8870 O   0  0  0  0  0  0  0  0  0  0  0  0
  189.2180  177.9050  142.6680 C   0  0  2  0  0  3  0  0  0  0  0  0
  186.4010  177.9010  142.5630 C   0  0  0  0  0  0  0  0  0  0  0  0
  190.6360  177.4990  142.4050 C   0  0  1  0  0  0  0  0  0  0  0  0
  189.4320  177.3320  140.3250 N   0  0  2  0  0  0  0  0  0  0  0  0
  186.7570  178.4600  140.2010 C   0  0  0  0  0  0  0  0  0  0  0  0
  184.6410  178.9710  141.2690 C   0  0  0  0  0  3  0  0  0  0  0  0
  188.5300  177.4210  143.8630 N   0  0  0  0  0  2  0  0  0  0  0  0
  189.1800  178.5500  139.5450 C   0  0  0  0  0  2  0  0  0  0  0  0
  187.7210  178.5830  139.0440 C   0  0  1  0  0  3  0  0  0  0  0  0
  191.5150  178.6310  142.8940 C   0  0  0  0  0  2  0  0  0  0  0  0
  188.5480  177.2660  141.4970 C   0  0  2  0  0  3  0  0  0  0  0  0
  185.4700  179.0030  140.1410 C   0  0  0  0  0  3  0  0  0  0  0  0
  192.0910  175.6250  146.7920 C   0  0  0  0  0  2  0  0  0  0  0  0
  191.3390  176.9330  144.7590 C   0  0  0  0  0  0  0  0  0  0  0  0
  191.6810  175.5730  145.3280 C   0  0  0  0  0  2  0  0  0  0  0  0
  189.7080  176.4370  147.2650 C   0  0  0  0  0  2  0  0  0  0  0  0
  190.2070  177.8190  146.8740 C   0  0  0  0  0  2  0  0  0  0  0  0
  190.6620  177.8860  145.4380 C   0  0  0  0  0  3  0  0  0  0  0  0
  190.8670  175.5390  147.7070 C   0  0  0  0  0  2  0  0  0  0  0  0
  182.8190  179.0030  143.2580 C   0  0  0  0  0  1  0  0  0  0  0  0
  184.1950  178.5160  143.6730 C   0  0  0  0  0  2  0  0  0  0  0  0
  187.4890  177.5470  137.9330 C   0  0  1  0  0  3  0  0  0  0  0  0
  189.0430  175.7750  137.0070 C   0  0  0  0  0  0  0  0  0  0  0  0
  188.9410  176.2430  135.8420 O   0  0  0  0  0  0  0  0  0  0  0  0
  188.3550  176.3850  138.1000 N   0  0  0  0  0  2  0  0  0  0  0  0
  189.8910  174.5810  137.2490 C   0  0  0  0  0  1  0  0  0  0  0  0
  185.5940  177.4200  136.1130 C   0  0  0  0  0  1  0  0  0  0  0  0
  185.7430  177.0290  137.8790 S   0  0  0  0  0  0  0  0  0  0  0  0
  1  8  1  0  0  0  0
  1 27  1  0  0  0  0
  2 13  1  0  0  0  0
  2  6  2  0  0  0  0
  3 20  1  1  0  0  0
  4  8  2  0  0  0  0
  7 13  1  1  0  0  0
  8  2  1  0  0  0  0
  9  5  1  6  0  0  0
  9  7  1  0  0  0  0
  9 16  1  0  0  0  0
  9  3  1  0  0  0  0
 10 14  1  1  0  0  0
 10  5  1  0  0  0  0
 10 17  1  0  0  0  0
 11  4  1  0  0  0  0
 12  1  2  0  0  0  0
 15 28  1  6  0  0  0
 15 14  1  0  0  0  0
 15 11  1  0  0  0  0
 16  3  1  0  0  0  0
 17  4  1  6  0  0  0
 17  7  1  0  0  0  0
 18 11  2  0  0  0  0
 18 12  1  0  0  0  0
 19 25  1  0  0  0  0
 20 21  1  0  0  0  0
 20 24  2  0  0  0  0
 21 19  1  0  0  0  0
 22 25  1  0  0  0  0
 23 22  1  0  0  0  0
 24 23  1  0  0  0  0
 26 27  1  0  0  0  0
 28 34  1  1  0  0  0
 28 31  1  0  0  0  0
 29 32  1  0  0  0  0
 29 31  1  0  0  0  0
 30 29  2  0  0  0  0
 33 34  1  0  0  0  0
M  END
>  <MODEL>
9

>  <REMARK>
 VINA RESULT:      -6.7      2.494      7.132
  Name = 
  5 active torsions:
  status: ('A' for Active; 'I' for Inactive)
    1  A    between atoms: C_1  and  C_19
    2  A    between atoms: C_3  and  C_13
    3  A    between atoms: C_12  and  N_23
    4  A    between atoms: C_12  and  S_27
    5  A    between atoms: C_12  and  C_28
                            x       y       z     vdW  Elec       q    Type
                         _______ _______ _______ _____ _____    ______ ____

>  <TORSDO>
F 5

$$$$
