=
 OpenBabel11052415263D

 37 40  0  0  1  0  0  0  0  0999 V2000
  179.8480  177.5400  139.2710 O   0  0  0  0  0  0  0  0  0  0  0  0
  181.0870  181.0510  139.1300 C   0  0  0  0  0  2  0  0  0  0  0  0
  182.5430  175.3260  137.8720 C   0  0  0  0  0  3  0  0  0  0  0  0
  180.7000  178.3380  140.0600 C   0  0  2  0  0  3  0  0  0  0  0  0
  181.8870  176.4230  138.4530 C   0  0  0  0  0  0  0  0  0  0  0  0
  179.9360  179.4800  140.7270 C   0  0  2  0  0  3  0  0  0  0  0  0
  179.6040  175.6130  137.9360 C   0  0  0  0  0  1  0  0  0  0  0  0
  182.5840  177.6420  138.5920 C   0  0  0  0  0  0  0  0  0  0  0  0
  184.5290  176.6640  137.5350 C   0  0  0  0  0  3  0  0  0  0  0  0
  180.4610  176.2840  138.9980 C   0  0  2  0  0  0  0  0  0  0  0  0
  183.8980  177.7570  138.1300 C   0  0  0  0  0  3  0  0  0  0  0  0
  179.7560  180.6680  139.7840 C   0  0  0  0  0  2  0  0  0  0  0  0
  181.9190  178.8140  139.2510 C   0  0  1  0  0  3  0  0  0  0  0  0
  183.8550  175.4410  137.4040 C   0  0  0  0  0  0  0  0  0  0  0  0
  181.6390  179.9430  138.3310 N   0  0  0  0  0  0  0  0  0  0  0  0
  184.4630  174.3260  136.8190 O   0  0  0  0  0  0  0  0  0  0  0  0
  185.0540  173.2840  137.5850 C   0  0  0  0  0  1  0  0  0  0  0  0
  179.3550  174.8850  140.6250 C   0  0  0  0  0  2  0  0  0  0  0  0
  180.4300  175.4250  140.1720 N   0  0  0  0  0  0  0  0  0  0  0  0
  180.7550  179.5920  137.1910 C   0  0  2  0  0  3  0  0  0  0  0  0
  181.5190  179.1260  136.1120 O   0  0  0  0  0  0  0  0  0  0  0  0
  181.6010  177.1750  134.7560 C   0  0  0  0  0  1  0  0  0  0  0  0
  180.7180  178.1820  135.4640 C   0  0  0  0  0  2  0  0  0  0  0  0
  179.9080  180.7880  136.7170 C   0  0  0  0  0  2  0  0  0  0  0  0
  180.7340  181.7710  135.8960 C   0  0  0  0  0  2  0  0  0  0  0  0
  180.0380  183.1190  135.8300 C   0  0  0  0  0  2  0  0  0  0  0  0
  181.5530  184.4930  137.2230 C   0  0  0  0  0  1  0  0  0  0  0  0
  181.0590  184.2400  135.8140 C   0  0  0  0  0  2  0  0  0  0  0  0
  180.6400  179.8970  142.0130 C   0  0  0  0  0  2  0  0  0  0  0  0
  180.9840  178.6860  142.8710 C   0  0  0  0  0  2  0  0  0  0  0  0
  182.7010  178.9310  144.6800 C   0  0  0  0  0  3  0  0  0  0  0  0
  182.4050  178.7400  143.3260 C   0  0  0  0  0  0  0  0  0  0  0  0
  183.4420  178.6290  142.3920 C   0  0  0  0  0  3  0  0  0  0  0  0
  185.7750  178.5950  141.9110 F   0  0  0  0  0  0  0  0  0  0  0  0
  185.0690  178.8900  144.1680 C   0  0  0  0  0  3  0  0  0  0  0  0
  184.7720  178.7030  142.8140 C   0  0  0  0  0  0  0  0  0  0  0  0
  184.0320  179.0040  145.1010 C   0  0  0  0  0  3  0  0  0  0  0  0
  2 12  1  0  0  0  0
  3  5  1  0  0  0  0
  4  1  1  6  0  0  0
  4  6  1  0  0  0  0
  5  8  2  0  0  0  0
  5 10  1  0  0  0  0
  6 29  1  1  0  0  0
  9 11  2  0  0  0  0
 10  7  1  6  0  0  0
 10  1  1  0  0  0  0
 10 19  1  0  0  0  0
 11  8  1  0  0  0  0
 12  6  1  0  0  0  0
 13  8  1  6  0  0  0
 13  4  1  0  0  0  0
 14  9  1  0  0  0  0
 14  3  2  0  0  0  0
 15  2  1  0  0  0  0
 15 13  1  0  0  0  0
 16 14  1  0  0  0  0
 16 17  1  0  0  0  0
 19 18  2  0  0  0  0
 20 24  1  6  0  0  0
 20 15  1  0  0  0  0
 21 20  1  0  0  0  0
 22 23  1  0  0  0  0
 23 21  1  0  0  0  0
 25 24  1  0  0  0  0
 26 25  1  0  0  0  0
 28 26  1  0  0  0  0
 28 27  1  0  0  0  0
 29 30  1  0  0  0  0
 30 32  1  0  0  0  0
 31 37  1  0  0  0  0
 32 31  2  0  0  0  0
 33 36  2  0  0  0  0
 33 32  1  0  0  0  0
 34 36  1  0  0  0  0
 35 37  2  0  0  0  0
 36 35  1  0  0  0  0
M  END
>  <MODEL>
1

>  <REMARK>
 VINA RESULT:      -5.6      0.000      0.000
  Name = 
  12 active torsions:
  status: ('A' for Active; 'I' for Inactive)
    1  A    between atoms: C_1  and  O_5
    2  A    between atoms: C_1  and  C_33
    3  A    between atoms: C_1  and  N_36
    4  A    between atoms: O_3  and  C_32
    5  A    between atoms: O_5  and  C_23
    6  A    between atoms: C_6  and  C_31
    7  A    between atoms: C_14  and  C_37
    8  A    between atoms: C_17  and  C_26
    9  A    between atoms: C_17  and  C_33
   10  A    between atoms: C_24  and  N_28
   11  A    between atoms: C_26  and  C_34
   12  A    between atoms: C_31  and  C_37
                            x       y       z     vdW  Elec       q    Type
                         _______ _______ _______ _____ _____    ______ ____

>  <TORSDO>
F 12

$$$$
=
 OpenBabel11052415263D

 37 40  0  0  1  0  0  0  0  0999 V2000
  180.7720  177.0850  139.8300 O   0  0  0  0  0  0  0  0  0  0  0  0
  183.7520  179.1170  138.8950 C   0  0  0  0  0  2  0  0  0  0  0  0
  180.7990  173.9840  137.7090 C   0  0  0  0  0  3  0  0  0  0  0  0
  182.1440  177.0640  140.1490 C   0  0  2  0  0  3  0  0  0  0  0  0
  181.2220  175.1340  138.3940 C   0  0  0  0  0  0  0  0  0  0  0  0
  182.5500  178.2990  140.9510 C   0  0  2  0  0  3  0  0  0  0  0  0
  178.9360  175.9540  138.8800 C   0  0  0  0  0  1  0  0  0  0  0  0
  182.5110  175.6470  138.1390 C   0  0  0  0  0  0  0  0  0  0  0  0
  182.8950  173.9020  136.5060 C   0  0  0  0  0  3  0  0  0  0  0  0
  180.3310  175.7820  139.4590 C   0  0  2  0  0  0  0  0  0  0  0  0
  183.3380  175.0320  137.1950 C   0  0  0  0  0  3  0  0  0  0  0  0
  182.8160  179.5000  140.0460 C   0  0  0  0  0  2  0  0  0  0  0  0
  183.0020  176.8480  138.8910 C   0  0  1  0  0  3  0  0  0  0  0  0
  181.6220  173.3700  136.7610 C   0  0  0  0  0  0  0  0  0  0  0  0
  183.1700  178.0590  138.0510 N   0  0  0  0  0  0  0  0  0  0  0  0
  181.1540  172.2360  136.0920 O   0  0  0  0  0  0  0  0  0  0  0  0
  181.9500  171.0740  135.9000 C   0  0  0  0  0  1  0  0  0  0  0  0
  179.0790  174.4530  141.0380 C   0  0  0  0  0  2  0  0  0  0  0  0
  180.2020  174.9260  140.6280 N   0  0  0  0  0  0  0  0  0  0  0  0
  181.9250  178.5100  137.3810 C   0  0  2  0  0  3  0  0  0  0  0  0
  181.8870  178.0370  136.0610 O   0  0  0  0  0  0  0  0  0  0  0  0
  180.4670  176.4880  134.9500 C   0  0  0  0  0  1  0  0  0  0  0  0
  180.5470  177.7330  135.8080 C   0  0  0  0  0  2  0  0  0  0  0  0
  181.7930  180.0440  137.3600 C   0  0  0  0  0  2  0  0  0  0  0  0
  180.4130  180.4970  137.8210 C   0  0  0  0  0  2  0  0  0  0  0  0
  180.4690  181.9260  138.3300 C   0  0  0  0  0  2  0  0  0  0  0  0
  181.2810  184.0040  137.2590 C   0  0  0  0  0  1  0  0  0  0  0  0
  180.2460  182.9010  137.1910 C   0  0  0  0  0  2  0  0  0  0  0  0
  183.7620  177.9820  141.8190 C   0  0  0  0  0  2  0  0  0  0  0  0
  183.8530  178.9320  143.0070 C   0  0  0  0  0  2  0  0  0  0  0  0
  186.0760  177.8410  143.3910 C   0  0  0  0  0  3  0  0  0  0  0  0
  184.9920  178.5640  143.8990 C   0  0  0  0  0  0  0  0  0  0  0  0
  184.9610  178.9180  145.2530 C   0  0  0  0  0  3  0  0  0  0  0  0
  185.9850  178.8970  147.4040 F   0  0  0  0  0  0  0  0  0  0  0  0
  187.1010  177.8340  145.5860 C   0  0  0  0  0  3  0  0  0  0  0  0
  186.0150  178.5540  146.0950 C   0  0  0  0  0  0  0  0  0  0  0  0
  187.1310  177.4770  144.2340 C   0  0  0  0  0  3  0  0  0  0  0  0
  2 12  1  0  0  0  0
  3  5  1  0  0  0  0
  4  1  1  6  0  0  0
  4  6  1  0  0  0  0
  5 10  1  0  0  0  0
  6 29  1  6  0  0  0
  8  5  2  0  0  0  0
  9 14  1  0  0  0  0
  9 11  2  0  0  0  0
 10  7  1  6  0  0  0
 10  1  1  0  0  0  0
 10 19  1  0  0  0  0
 11  8  1  0  0  0  0
 12  6  1  0  0  0  0
 13  8  1  6  0  0  0
 13  4  1  0  0  0  0
 14  3  2  0  0  0  0
 15 13  1  0  0  0  0
 15  2  1  0  0  0  0
 16 14  1  0  0  0  0
 17 16  1  0  0  0  0
 19 18  2  0  0  0  0
 20 24  1  6  0  0  0
 20 15  1  0  0  0  0
 21 20  1  0  0  0  0
 22 23  1  0  0  0  0
 23 21  1  0  0  0  0
 24 25  1  0  0  0  0
 25 26  1  0  0  0  0
 28 27  1  0  0  0  0
 28 26  1  0  0  0  0
 29 30  1  0  0  0  0
 30 32  1  0  0  0  0
 31 32  2  0  0  0  0
 31 37  1  0  0  0  0
 32 33  1  0  0  0  0
 33 36  2  0  0  0  0
 35 36  1  0  0  0  0
 36 34  1  0  0  0  0
 37 35  2  0  0  0  0
M  END
>  <MODEL>
2

>  <REMARK>
 VINA RESULT:      -5.5      1.931      2.691
  Name = 
  12 active torsions:
  status: ('A' for Active; 'I' for Inactive)
    1  A    between atoms: C_1  and  O_5
    2  A    between atoms: C_1  and  C_33
    3  A    between atoms: C_1  and  N_36
    4  A    between atoms: O_3  and  C_32
    5  A    between atoms: O_5  and  C_23
    6  A    between atoms: C_6  and  C_31
    7  A    between atoms: C_14  and  C_37
    8  A    between atoms: C_17  and  C_26
    9  A    between atoms: C_17  and  C_33
   10  A    between atoms: C_24  and  N_28
   11  A    between atoms: C_26  and  C_34
   12  A    between atoms: C_31  and  C_37
                            x       y       z     vdW  Elec       q    Type
                         _______ _______ _______ _____ _____    ______ ____

>  <TORSDO>
F 12

$$$$
=
 OpenBabel11052415263D

 37 40  0  0  1  0  0  0  0  0999 V2000
  182.1570  179.6210  142.0790 O   0  0  0  0  0  0  0  0  0  0  0  0
  185.6820  178.5750  141.4790 C   0  0  0  0  0  2  0  0  0  0  0  0
  179.9370  177.3320  140.0910 C   0  0  0  0  0  3  0  0  0  0  0  0
  183.0060  178.6140  142.5790 C   0  0  2  0  0  3  0  0  0  0  0  0
  181.0460  177.8420  140.7850 C   0  0  0  0  0  0  0  0  0  0  0  0
  184.1610  179.2060  143.3840 C   0  0  2  0  0  3  0  0  0  0  0  0
  180.1680  180.1530  140.9330 C   0  0  0  0  0  1  0  0  0  0  0  0
  182.2830  177.1710  140.6870 C   0  0  0  0  0  0  0  0  0  0  0  0
  181.2990  175.5510  139.1820 C   0  0  0  0  0  3  0  0  0  0  0  0
  180.9020  179.0640  141.6990 C   0  0  2  0  0  0  0  0  0  0  0  0
  182.4050  176.0340  139.8830 C   0  0  0  0  0  3  0  0  0  0  0  0
  185.3020  179.6700  142.4800 C   0  0  0  0  0  2  0  0  0  0  0  0
  183.4710  177.6720  141.4550 C   0  0  1  0  0  3  0  0  0  0  0  0
  180.0570  176.1970  139.2840 C   0  0  0  0  0  0  0  0  0  0  0  0
  184.5520  178.2240  140.6030 N   0  0  0  0  0  0  0  0  0  0  0  0
  178.9310  175.7330  138.5990 O   0  0  0  0  0  0  0  0  0  0  0  0
  179.0200  174.9380  137.4240 C   0  0  0  0  0  1  0  0  0  0  0  0
  178.9310  179.2520  143.0790 C   0  0  0  0  0  2  0  0  0  0  0  0
  180.0970  178.7530  142.8690 N   0  0  0  0  0  0  0  0  0  0  0  0
  184.1320  179.3700  139.7570 C   0  0  2  0  0  3  0  0  0  0  0  0
  182.8270  179.1710  139.2860 O   0  0  0  0  0  0  0  0  0  0  0  0
  181.4210  179.7020  137.4440 C   0  0  0  0  0  1  0  0  0  0  0  0
  182.6710  180.0610  138.2200 C   0  0  0  0  0  2  0  0  0  0  0  0
  185.0660  179.5800  138.5500 C   0  0  0  0  0  2  0  0  0  0  0  0
  185.6270  178.2590  138.0380 C   0  0  0  0  0  2  0  0  0  0  0  0
  187.1380  178.2360  138.1820 C   0  0  0  0  0  2  0  0  0  0  0  0
  189.0550  177.6490  136.7310 C   0  0  0  0  0  1  0  0  0  0  0  0
  187.8010  178.4900  136.8420 C   0  0  0  0  0  2  0  0  0  0  0  0
  184.6490  178.1970  144.4160 C   0  0  0  0  0  2  0  0  0  0  0  0
  185.2070  178.8960  145.6500 C   0  0  0  0  0  2  0  0  0  0  0  0
  187.3230  177.6660  145.1080 C   0  0  0  0  0  3  0  0  0  0  0  0
  186.5130  178.2990  146.0580 C   0  0  0  0  0  0  0  0  0  0  0  0
  186.9140  178.3450  147.3980 C   0  0  0  0  0  3  0  0  0  0  0  0
  188.5130  177.8120  149.0820 F   0  0  0  0  0  0  0  0  0  0  0  0
  188.9360  177.1370  146.8360 C   0  0  0  0  0  3  0  0  0  0  0  0
  188.1250  177.7650  147.7860 C   0  0  0  0  0  0  0  0  0  0  0  0
  188.5340  177.0870  145.4970 C   0  0  0  0  0  3  0  0  0  0  0  0
  2 12  1  0  0  0  0
  3  5  1  0  0  0  0
  4  1  1  6  0  0  0
  4  6  1  0  0  0  0
  5 10  1  0  0  0  0
  6 29  1  1  0  0  0
  8  5  2  0  0  0  0
  9 14  1  0  0  0  0
  9 11  2  0  0  0  0
 10  7  1  6  0  0  0
 10  1  1  0  0  0  0
 10 19  1  0  0  0  0
 11  8  1  0  0  0  0
 12  6  1  0  0  0  0
 13  8  1  6  0  0  0
 13  4  1  0  0  0  0
 14  3  2  0  0  0  0
 15 13  1  0  0  0  0
 15  2  1  0  0  0  0
 16 14  1  0  0  0  0
 17 16  1  0  0  0  0
 19 18  2  0  0  0  0
 20 24  1  6  0  0  0
 20 15  1  0  0  0  0
 21 20  1  0  0  0  0
 22 23  1  0  0  0  0
 23 21  1  0  0  0  0
 25 26  1  0  0  0  0
 25 24  1  0  0  0  0
 27 28  1  0  0  0  0
 28 26  1  0  0  0  0
 29 30  1  0  0  0  0
 30 32  1  0  0  0  0
 31 37  2  0  0  0  0
 31 32  1  0  0  0  0
 32 33  2  0  0  0  0
 33 36  1  0  0  0  0
 35 36  2  0  0  0  0
 36 34  1  0  0  0  0
 37 35  1  0  0  0  0
M  END
>  <MODEL>
3

>  <REMARK>
 VINA RESULT:      -5.0      2.904      5.350
  Name = 
  12 active torsions:
  status: ('A' for Active; 'I' for Inactive)
    1  A    between atoms: C_1  and  O_5
    2  A    between atoms: C_1  and  C_33
    3  A    between atoms: C_1  and  N_36
    4  A    between atoms: O_3  and  C_32
    5  A    between atoms: O_5  and  C_23
    6  A    between atoms: C_6  and  C_31
    7  A    between atoms: C_14  and  C_37
    8  A    between atoms: C_17  and  C_26
    9  A    between atoms: C_17  and  C_33
   10  A    between atoms: C_24  and  N_28
   11  A    between atoms: C_26  and  C_34
   12  A    between atoms: C_31  and  C_37
                            x       y       z     vdW  Elec       q    Type
                         _______ _______ _______ _____ _____    ______ ____

>  <TORSDO>
F 12

$$$$
=
 OpenBabel11052415263D

 37 40  0  0  1  0  0  0  0  0999 V2000
  188.4360  177.9640  137.1110 O   0  0  0  0  0  0  0  0  0  0  0  0
  190.8450  175.4690  138.4720 C   0  0  0  0  0  2  0  0  0  0  0  0
  185.4910  176.0720  135.7430 C   0  0  0  0  0  3  0  0  0  0  0  0
  188.5510  177.2250  138.3050 C   0  0  2  0  0  3  0  0  0  0  0  0
  186.6390  176.3990  136.4840 C   0  0  0  0  0  0  0  0  0  0  0  0
  189.7730  177.6560  139.1130 C   0  0  2  0  0  3  0  0  0  0  0  0
  187.1630  178.4420  135.1860 C   0  0  0  0  0  1  0  0  0  0  0  0
  187.3090  175.3800  137.1920 C   0  0  0  0  0  0  0  0  0  0  0  0
  185.7210  173.7480  136.3710 C   0  0  0  0  0  3  0  0  0  0  0  0
  187.1160  177.8520  136.5860 C   0  0  2  0  0  0  0  0  0  0  0  0
  186.8500  174.0610  137.1300 C   0  0  0  0  0  3  0  0  0  0  0  0
  191.0500  176.9810  138.6140 C   0  0  0  0  0  2  0  0  0  0  0  0
  188.5110  175.7120  138.0260 C   0  0  1  0  0  3  0  0  0  0  0  0
  185.0340  174.7530  135.6750 C   0  0  0  0  0  0  0  0  0  0  0  0
  189.7810  175.1530  137.5040 N   0  0  0  0  0  0  0  0  0  0  0  0
  183.8960  174.4720  134.9140 O   0  0  0  0  0  0  0  0  0  0  0  0
  182.5810  174.7850  135.3540 C   0  0  0  0  0  1  0  0  0  0  0  0
  185.2690  178.1580  138.1090 C   0  0  0  0  0  2  0  0  0  0  0  0
  186.1820  178.6580  137.3550 N   0  0  0  0  0  0  0  0  0  0  0  0
  190.1280  175.6090  136.1350 C   0  0  2  0  0  3  0  0  0  0  0  0
  189.8900  174.5840  135.2090 O   0  0  0  0  0  0  0  0  0  0  0  0
  190.6040  172.3380  134.8920 C   0  0  0  0  0  1  0  0  0  0  0  0
  190.1660  173.3930  135.8870 C   0  0  0  0  0  2  0  0  0  0  0  0
  191.5990  176.0500  136.0190 C   0  0  0  0  0  2  0  0  0  0  0  0
  192.1260  175.8800  134.5990 C   0  0  0  0  0  2  0  0  0  0  0  0
  193.3450  174.9750  134.5940 C   0  0  0  0  0  2  0  0  0  0  0  0
  194.1570  173.0840  135.9680 C   0  0  0  0  0  1  0  0  0  0  0  0
  193.6670  174.5160  136.0030 C   0  0  0  0  0  2  0  0  0  0  0  0
  189.5440  177.3790  140.5940 C   0  0  0  0  0  2  0  0  0  0  0  0
  188.2690  178.0490  141.0890 C   0  0  0  0  0  2  0  0  0  0  0  0
  186.7800  177.7390  143.0810 C   0  0  0  0  0  3  0  0  0  0  0  0
  188.0720  177.8100  142.5490 C   0  0  0  0  0  0  0  0  0  0  0  0
  189.1820  177.6870  143.3930 C   0  0  0  0  0  3  0  0  0  0  0  0
  190.0730  177.3660  145.5800 F   0  0  0  0  0  0  0  0  0  0  0  0
  187.7070  177.4110  145.2950 C   0  0  0  0  0  3  0  0  0  0  0  0
  188.9990  177.4870  144.7640 C   0  0  0  0  0  0  0  0  0  0  0  0
  186.5980  177.5390  144.4520 C   0  0  0  0  0  3  0  0  0  0  0  0
  2 12  1  0  0  0  0
  3  5  1  0  0  0  0
  4  1  1  6  0  0  0
  4  6  1  0  0  0  0
  5 10  1  0  0  0  0
  5  8  2  0  0  0  0
  6 29  1  1  0  0  0
  9 11  2  0  0  0  0
 10  7  1  6  0  0  0
 10  1  1  0  0  0  0
 10 19  1  0  0  0  0
 11  8  1  0  0  0  0
 12  6  1  0  0  0  0
 13  8  1  6  0  0  0
 13  4  1  0  0  0  0
 14  3  2  0  0  0  0
 14  9  1  0  0  0  0
 15 13  1  0  0  0  0
 15  2  1  0  0  0  0
 16 17  1  0  0  0  0
 16 14  1  0  0  0  0
 19 18  2  0  0  0  0
 20 24  1  1  0  0  0
 20 15  1  0  0  0  0
 21 23  1  0  0  0  0
 21 20  1  0  0  0  0
 22 23  1  0  0  0  0
 25 24  1  0  0  0  0
 26 25  1  0  0  0  0
 26 28  1  0  0  0  0
 27 28  1  0  0  0  0
 29 30  1  0  0  0  0
 30 32  1  0  0  0  0
 31 37  1  0  0  0  0
 32 31  2  0  0  0  0
 32 33  1  0  0  0  0
 33 36  2  0  0  0  0
 36 35  1  0  0  0  0
 36 34  1  0  0  0  0
 37 35  2  0  0  0  0
M  END
>  <MODEL>
4

>  <REMARK>
 VINA RESULT:      -4.8      5.200      8.782
  Name = 
  12 active torsions:
  status: ('A' for Active; 'I' for Inactive)
    1  A    between atoms: C_1  and  O_5
    2  A    between atoms: C_1  and  C_33
    3  A    between atoms: C_1  and  N_36
    4  A    between atoms: O_3  and  C_32
    5  A    between atoms: O_5  and  C_23
    6  A    between atoms: C_6  and  C_31
    7  A    between atoms: C_14  and  C_37
    8  A    between atoms: C_17  and  C_26
    9  A    between atoms: C_17  and  C_33
   10  A    between atoms: C_24  and  N_28
   11  A    between atoms: C_26  and  C_34
   12  A    between atoms: C_31  and  C_37
                            x       y       z     vdW  Elec       q    Type
                         _______ _______ _______ _____ _____    ______ ____

>  <TORSDO>
F 12

$$$$
=
 OpenBabel11052415263D

 37 40  0  0  1  0  0  0  0  0999 V2000
  193.4020  174.4140  138.2400 O   0  0  0  0  0  0  0  0  0  0  0  0
  190.7530  175.7860  136.0080 C   0  0  0  0  0  2  0  0  0  0  0  0
  196.7170  175.0200  136.5760 C   0  0  0  0  0  3  0  0  0  0  0  0
  192.8670  175.6910  137.9830 C   0  0  2  0  0  3  0  0  0  0  0  0
  195.3610  175.1290  136.9270 C   0  0  0  0  0  0  0  0  0  0  0  0
  191.4120  175.7890  138.4390 C   0  0  2  0  0  3  0  0  0  0  0  0
  195.2970  173.0130  138.2120 C   0  0  0  0  0  1  0  0  0  0  0  0
  194.5100  175.9240  136.1300 C   0  0  0  0  0  0  0  0  0  0  0  0
  196.3530  176.4320  134.6460 C   0  0  0  0  0  3  0  0  0  0  0  0
  194.8260  174.4590  138.1960 C   0  0  2  0  0  0  0  0  0  0  0  0
  195.0080  176.5670  134.9940 C   0  0  0  0  0  3  0  0  0  0  0  0
  190.4520  175.2160  137.3980 C   0  0  0  0  0  2  0  0  0  0  0  0
  193.0690  176.0910  136.5110 C   0  0  1  0  0  3  0  0  0  0  0  0
  197.2160  175.6590  135.4370 C   0  0  0  0  0  0  0  0  0  0  0  0
  192.1180  175.4520  135.5680 N   0  0  0  0  0  0  0  0  0  0  0  0
  198.5690  175.5100  135.1180 O   0  0  0  0  0  0  0  0  0  0  0  0
  199.1110  174.2940  134.6230 C   0  0  0  0  0  1  0  0  0  0  0  0
  196.5510  174.8780  139.8320 C   0  0  0  0  0  2  0  0  0  0  0  0
  195.3620  175.0920  139.3910 N   0  0  0  0  0  0  0  0  0  0  0  0
  192.3060  173.9870  135.4160 C   0  0  2  0  0  3  0  0  0  0  0  0
  193.5150  173.7210  134.7560 O   0  0  0  0  0  0  0  0  0  0  0  0
  195.1140  171.9630  134.7080 C   0  0  0  0  0  1  0  0  0  0  0  0
  193.6450  172.3300  134.7560 C   0  0  0  0  0  2  0  0  0  0  0  0
  191.1580  173.3280  134.6290 C   0  0  0  0  0  2  0  0  0  0  0  0
  190.3620  172.3630  135.4990 C   0  0  0  0  0  2  0  0  0  0  0  0
  188.8780  172.4960  135.2120 C   0  0  0  0  0  2  0  0  0  0  0  0
  187.2260  173.5250  136.7410 C   0  0  0  0  0  1  0  0  0  0  0  0
  188.0750  172.2990  136.4840 C   0  0  0  0  0  2  0  0  0  0  0  0
  191.0660  177.2350  138.7730 C   0  0  0  0  0  2  0  0  0  0  0  0
  191.6160  177.6330  140.1370 C   0  0  0  0  0  2  0  0  0  0  0  0
  189.2490  177.6930  140.9600 C   0  0  0  0  0  3  0  0  0  0  0  0
  190.5980  177.4160  141.2070 C   0  0  0  0  0  0  0  0  0  0  0  0
  190.9990  176.9640  142.4700 C   0  0  0  0  0  3  0  0  0  0  0  0
  190.4380  176.3440  144.7010 F   0  0  0  0  0  0  0  0  0  0  0  0
  188.7010  177.0550  143.2320 C   0  0  0  0  0  3  0  0  0  0  0  0
  190.0500  176.7830  143.4800 C   0  0  0  0  0  0  0  0  0  0  0  0
  188.3010  177.5110  141.9710 C   0  0  0  0  0  3  0  0  0  0  0  0
  2 12  1  0  0  0  0
  3  5  1  0  0  0  0
  4  1  1  6  0  0  0
  4  6  1  0  0  0  0
  5 10  1  0  0  0  0
  6 29  1  6  0  0  0
  8  5  2  0  0  0  0
  9 11  2  0  0  0  0
  9 14  1  0  0  0  0
 10  7  1  6  0  0  0
 10  1  1  0  0  0  0
 10 19  1  0  0  0  0
 11  8  1  0  0  0  0
 12  6  1  0  0  0  0
 13  8  1  6  0  0  0
 13  4  1  0  0  0  0
 14  3  2  0  0  0  0
 15  2  1  0  0  0  0
 15 13  1  0  0  0  0
 16 14  1  0  0  0  0
 17 16  1  0  0  0  0
 19 18  2  0  0  0  0
 20 24  1  6  0  0  0
 20 15  1  0  0  0  0
 21 20  1  0  0  0  0
 22 23  1  0  0  0  0
 23 21  1  0  0  0  0
 24 25  1  0  0  0  0
 26 25  1  0  0  0  0
 26 28  1  0  0  0  0
 28 27  1  0  0  0  0
 29 30  1  0  0  0  0
 30 32  1  0  0  0  0
 31 32  2  0  0  0  0
 31 37  1  0  0  0  0
 32 33  1  0  0  0  0
 33 36  2  0  0  0  0
 35 36  1  0  0  0  0
 36 34  1  0  0  0  0
 37 35  2  0  0  0  0
M  END
>  <MODEL>
5

>  <REMARK>
 VINA RESULT:      -4.5      8.963     12.383
  Name = 
  12 active torsions:
  status: ('A' for Active; 'I' for Inactive)
    1  A    between atoms: C_1  and  O_5
    2  A    between atoms: C_1  and  C_33
    3  A    between atoms: C_1  and  N_36
    4  A    between atoms: O_3  and  C_32
    5  A    between atoms: O_5  and  C_23
    6  A    between atoms: C_6  and  C_31
    7  A    between atoms: C_14  and  C_37
    8  A    between atoms: C_17  and  C_26
    9  A    between atoms: C_17  and  C_33
   10  A    between atoms: C_24  and  N_28
   11  A    between atoms: C_26  and  C_34
   12  A    between atoms: C_31  and  C_37
                            x       y       z     vdW  Elec       q    Type
                         _______ _______ _______ _____ _____    ______ ____

>  <TORSDO>
F 12

$$$$
=
 OpenBabel11052415263D

 37 40  0  0  1  0  0  0  0  0999 V2000
  190.1380  174.8450  137.7220 O   0  0  0  0  0  0  0  0  0  0  0  0
  191.8950  177.6960  139.3550 C   0  0  0  0  0  2  0  0  0  0  0  0
  187.0830  176.2160  136.0180 C   0  0  0  0  0  3  0  0  0  0  0  0
  191.0190  175.8590  137.2980 C   0  0  2  0  0  3  0  0  0  0  0  0
  188.3510  176.1310  136.6160 C   0  0  0  0  0  0  0  0  0  0  0  0
  192.4040  175.6910  137.9180 C   0  0  2  0  0  3  0  0  0  0  0  0
  188.0080  173.8540  137.5300 C   0  0  0  0  0  1  0  0  0  0  0  0
  189.0390  177.3200  136.9360 C   0  0  0  0  0  0  0  0  0  0  0  0
  187.1790  178.6320  136.1110 C   0  0  0  0  0  3  0  0  0  0  0  0
  189.0150  174.7690  136.8500 C   0  0  2  0  0  0  0  0  0  0  0  0
  188.4490  178.5620  136.6860 C   0  0  0  0  0  3  0  0  0  0  0  0
  192.4690  176.2760  139.3280 C   0  0  0  0  0  2  0  0  0  0  0  0
  190.4130  177.2530  137.5340 C   0  0  1  0  0  3  0  0  0  0  0  0
  186.4900  177.4580  135.7720 C   0  0  0  0  0  0  0  0  0  0  0  0
  190.4820  177.7190  138.9400 N   0  0  0  0  0  0  0  0  0  0  0  0
  185.2200  177.4950  135.1880 O   0  0  0  0  0  0  0  0  0  0  0  0
  184.0760  176.9180  135.8030 C   0  0  0  0  0  1  0  0  0  0  0  0
  189.9870  173.0090  135.5150 C   0  0  0  0  0  2  0  0  0  0  0  0
  189.3770  174.1380  135.5910 N   0  0  0  0  0  0  0  0  0  0  0  0
  189.6200  176.9550  139.8760 C   0  0  2  0  0  3  0  0  0  0  0  0
  188.2690  177.2440  139.6350 O   0  0  0  0  0  0  0  0  0  0  0  0
  186.5240  178.5870  140.5310 C   0  0  0  0  0  1  0  0  0  0  0  0
  188.0150  178.4420  140.3100 C   0  0  0  0  0  2  0  0  0  0  0  0
  189.9370  177.2650  141.3510 C   0  0  0  0  0  2  0  0  0  0  0  0
  190.1520  175.9920  142.1590 C   0  0  0  0  0  2  0  0  0  0  0  0
  189.4070  176.0740  143.4800 C   0  0  0  0  0  2  0  0  0  0  0  0
  187.4690  177.2990  144.4120 C   0  0  0  0  0  1  0  0  0  0  0  0
  187.9610  176.4670  143.2460 C   0  0  0  0  0  2  0  0  0  0  0  0
  193.4600  176.3150  137.0130 C   0  0  0  0  0  2  0  0  0  0  0  0
  193.9400  175.3230  135.9610 C   0  0  0  0  0  2  0  0  0  0  0  0
  195.5630  174.1500  137.4680 C   0  0  0  0  0  3  0  0  0  0  0  0
  194.4690  174.0810  136.5990 C   0  0  0  0  0  0  0  0  0  0  0  0
  193.8890  172.8420  136.3030 C   0  0  0  0  0  3  0  0  0  0  0  0
  193.8360  170.4780  136.5960 F   0  0  0  0  0  0  0  0  0  0  0  0
  195.4890  171.7460  137.7540 C   0  0  0  0  0  3  0  0  0  0  0  0
  194.3980  171.6770  136.8810 C   0  0  0  0  0  0  0  0  0  0  0  0
  196.0720  172.9840  138.0460 C   0  0  0  0  0  3  0  0  0  0  0  0
  3  5  1  0  0  0  0
  4 13  1  0  0  0  0
  4  1  1  1  0  0  0
  4  6  1  0  0  0  0
  5 10  1  0  0  0  0
  5  8  2  0  0  0  0
  6 29  1  6  0  0  0
  6 12  1  0  0  0  0
  9 11  2  0  0  0  0
 10  7  1  1  0  0  0
 10  1  1  0  0  0  0
 11  8  1  0  0  0  0
 12  2  1  0  0  0  0
 13  8  1  1  0  0  0
 13 15  1  0  0  0  0
 14  3  2  0  0  0  0
 14  9  1  0  0  0  0
 15  2  1  0  0  0  0
 15 20  1  0  0  0  0
 16 14  1  0  0  0  0
 16 17  1  0  0  0  0
 18 19  2  0  0  0  0
 19 10  1  0  0  0  0
 20 24  1  1  0  0  0
 21 20  1  0  0  0  0
 21 23  1  0  0  0  0
 23 22  1  0  0  0  0
 24 25  1  0  0  0  0
 25 26  1  0  0  0  0
 28 26  1  0  0  0  0
 28 27  1  0  0  0  0
 30 32  1  0  0  0  0
 30 29  1  0  0  0  0
 31 37  1  0  0  0  0
 32 31  2  0  0  0  0
 33 32  1  0  0  0  0
 33 36  2  0  0  0  0
 34 36  1  0  0  0  0
 35 37  2  0  0  0  0
 36 35  1  0  0  0  0
M  END
>  <MODEL>
6

>  <REMARK>
 VINA RESULT:      -4.5      6.925     10.895
  Name = 
  12 active torsions:
  status: ('A' for Active; 'I' for Inactive)
    1  A    between atoms: C_1  and  O_5
    2  A    between atoms: C_1  and  C_33
    3  A    between atoms: C_1  and  N_36
    4  A    between atoms: O_3  and  C_32
    5  A    between atoms: O_5  and  C_23
    6  A    between atoms: C_6  and  C_31
    7  A    between atoms: C_14  and  C_37
    8  A    between atoms: C_17  and  C_26
    9  A    between atoms: C_17  and  C_33
   10  A    between atoms: C_24  and  N_28
   11  A    between atoms: C_26  and  C_34
   12  A    between atoms: C_31  and  C_37
                            x       y       z     vdW  Elec       q    Type
                         _______ _______ _______ _____ _____    ______ ____

>  <TORSDO>
F 12

$$$$
=
 OpenBabel11052415263D

 37 40  0  0  1  0  0  0  0  0999 V2000
  189.7920  177.2170  136.9340 O   0  0  0  0  0  0  0  0  0  0  0  0
  192.7040  175.2380  138.1540 C   0  0  0  0  0  2  0  0  0  0  0  0
  187.2800  174.7990  135.5330 C   0  0  0  0  0  3  0  0  0  0  0  0
  190.0880  176.4750  138.0940 C   0  0  2  0  0  3  0  0  0  0  0  0
  188.3500  175.3320  136.2690 C   0  0  0  0  0  0  0  0  0  0  0  0
  191.2110  177.1240  138.9010 C   0  0  2  0  0  3  0  0  0  0  0  0
  188.4020  177.4880  135.0510 C   0  0  0  0  0  1  0  0  0  0  0  0
  189.2370  174.4520  136.9240 C   0  0  0  0  0  0  0  0  0  0  0  0
  188.0090  172.5530  136.0600 C   0  0  0  0  0  3  0  0  0  0  0  0
  188.5140  176.8480  136.4260 C   0  0  2  0  0  0  0  0  0  0  0  0
  189.0650  173.0700  136.8140 C   0  0  0  0  0  3  0  0  0  0  0  0
  192.5890  176.7530  138.3550 C   0  0  0  0  0  2  0  0  0  0  0  0
  190.3610  174.9990  137.7530 C   0  0  1  0  0  3  0  0  0  0  0  0
  187.1090  173.4170  135.4170 C   0  0  0  0  0  0  0  0  0  0  0  0
  191.7080  174.7410  137.1890 N   0  0  0  0  0  0  0  0  0  0  0  0
  186.0380  172.9300  134.6620 O   0  0  0  0  0  0  0  0  0  0  0  0
  185.6870  171.5530  134.6270 C   0  0  0  0  0  1  0  0  0  0  0  0
  186.6100  178.2830  136.8080 C   0  0  0  0  0  2  0  0  0  0  0  0
  187.4490  177.4100  137.2410 N   0  0  0  0  0  0  0  0  0  0  0  0
  191.9180  175.3120  135.8350 C   0  0  2  0  0  3  0  0  0  0  0  0
  192.2400  174.2940  134.9260 O   0  0  0  0  0  0  0  0  0  0  0  0
  193.6300  172.3880  135.2210 C   0  0  0  0  0  1  0  0  0  0  0  0
  192.4030  173.1400  135.6960 C   0  0  0  0  0  2  0  0  0  0  0  0
  193.0390  176.3670  135.8120 C   0  0  0  0  0  2  0  0  0  0  0  0
  194.1650  175.9710  134.8640 C   0  0  0  0  0  2  0  0  0  0  0  0
  195.4700  176.6150  135.2970 C   0  0  0  0  0  2  0  0  0  0  0  0
  196.5410  174.6670  136.3850 C   0  0  0  0  0  1  0  0  0  0  0  0
  196.6060  175.6140  135.2060 C   0  0  0  0  0  2  0  0  0  0  0  0
  191.0800  176.7490  140.3720 C   0  0  0  0  0  2  0  0  0  0  0  0
  189.7270  177.1700  140.9310 C   0  0  0  0  0  2  0  0  0  0  0  0
  191.0140  177.7600  142.9980 C   0  0  0  0  0  3  0  0  0  0  0  0
  189.8020  177.3910  142.4050 C   0  0  0  0  0  0  0  0  0  0  0  0
  188.6660  177.1980  143.1990 C   0  0  0  0  0  3  0  0  0  0  0  0
  187.6410  177.1970  145.3500 F   0  0  0  0  0  0  0  0  0  0  0  0
  189.9510  177.7550  145.1750 C   0  0  0  0  0  3  0  0  0  0  0  0
  188.7410  177.3820  144.5820 C   0  0  0  0  0  0  0  0  0  0  0  0
  191.0890  177.9430  144.3820 C   0  0  0  0  0  3  0  0  0  0  0  0
  2 12  1  0  0  0  0
  3  5  1  0  0  0  0
  4  1  1  6  0  0  0
  4  6  1  0  0  0  0
  5 10  1  0  0  0  0
  5  8  2  0  0  0  0
  6 29  1  1  0  0  0
  9 11  2  0  0  0  0
 10  7  1  6  0  0  0
 10  1  1  0  0  0  0
 10 19  1  0  0  0  0
 11  8  1  0  0  0  0
 12  6  1  0  0  0  0
 13  8  1  6  0  0  0
 13  4  1  0  0  0  0
 14  3  2  0  0  0  0
 14  9  1  0  0  0  0
 15 13  1  0  0  0  0
 15  2  1  0  0  0  0
 16 14  1  0  0  0  0
 17 16  1  0  0  0  0
 18 19  2  0  0  0  0
 20 24  1  1  0  0  0
 20 15  1  0  0  0  0
 21 23  1  0  0  0  0
 21 20  1  0  0  0  0
 22 23  1  0  0  0  0
 25 26  1  0  0  0  0
 25 24  1  0  0  0  0
 28 26  1  0  0  0  0
 28 27  1  0  0  0  0
 29 30  1  0  0  0  0
 30 32  1  0  0  0  0
 31 37  1  0  0  0  0
 32 31  2  0  0  0  0
 32 33  1  0  0  0  0
 33 36  2  0  0  0  0
 36 35  1  0  0  0  0
 36 34  1  0  0  0  0
 37 35  2  0  0  0  0
M  END
>  <MODEL>
7

>  <REMARK>
 VINA RESULT:      -4.3      6.758     10.245
  Name = 
  12 active torsions:
  status: ('A' for Active; 'I' for Inactive)
    1  A    between atoms: C_1  and  O_5
    2  A    between atoms: C_1  and  C_33
    3  A    between atoms: C_1  and  N_36
    4  A    between atoms: O_3  and  C_32
    5  A    between atoms: O_5  and  C_23
    6  A    between atoms: C_6  and  C_31
    7  A    between atoms: C_14  and  C_37
    8  A    between atoms: C_17  and  C_26
    9  A    between atoms: C_17  and  C_33
   10  A    between atoms: C_24  and  N_28
   11  A    between atoms: C_26  and  C_34
   12  A    between atoms: C_31  and  C_37
                            x       y       z     vdW  Elec       q    Type
                         _______ _______ _______ _____ _____    ______ ____

>  <TORSDO>
F 12

$$$$
=
 OpenBabel11052415263D

 37 40  0  0  1  0  0  0  0  0999 V2000
  188.9700  173.9520  137.1140 O   0  0  0  0  0  0  0  0  0  0  0  0
  191.5050  176.6630  137.4490 C   0  0  0  0  0  2  0  0  0  0  0  0
  185.9140  175.4440  135.5160 C   0  0  0  0  0  3  0  0  0  0  0  0
  189.9050  174.5660  136.2570 C   0  0  2  0  0  3  0  0  0  0  0  0
  187.2440  175.2420  135.9190 C   0  0  0  0  0  0  0  0  0  0  0  0
  191.3390  174.2670  136.6900 C   0  0  2  0  0  3  0  0  0  0  0  0
  186.7080  173.4740  137.5670 C   0  0  0  0  0  1  0  0  0  0  0  0
  188.1820  176.2790  135.7280 C   0  0  0  0  0  0  0  0  0  0  0  0
  186.4490  177.6910  134.7980 C   0  0  0  0  0  3  0  0  0  0  0  0
  187.6920  173.8910  136.4870 C   0  0  2  0  0  0  0  0  0  0  0  0
  187.7800  177.4970  135.1740 C   0  0  0  0  0  3  0  0  0  0  0  0
  191.8010  175.2030  137.8060 C   0  0  0  0  0  2  0  0  0  0  0  0
  189.6170  176.0700  136.1090 C   0  0  1  0  0  3  0  0  0  0  0  0
  185.5090  176.6640  134.9660 C   0  0  0  0  0  0  0  0  0  0  0  0
  190.0630  176.8930  137.2590 N   0  0  0  0  0  0  0  0  0  0  0  0
  184.1710  176.8260  134.5940 O   0  0  0  0  0  0  0  0  0  0  0  0
  183.0900  176.4810  135.4490 C   0  0  0  0  0  1  0  0  0  0  0  0
  187.6280  171.5990  135.7330 C   0  0  0  0  0  2  0  0  0  0  0  0
  187.6640  172.8570  135.4660 N   0  0  0  0  0  0  0  0  0  0  0  0
  189.2970  176.6560  138.5090 C   0  0  2  0  0  3  0  0  0  0  0  0
  187.9230  176.7980  138.2680 O   0  0  0  0  0  0  0  0  0  0  0  0
  186.1190  178.3330  138.4780 C   0  0  0  0  0  1  0  0  0  0  0  0
  187.6040  178.1000  138.6660 C   0  0  0  0  0  2  0  0  0  0  0  0
  189.7040  177.6200  139.6380 C   0  0  0  0  0  2  0  0  0  0  0  0
  190.1350  176.8690  140.8910 C   0  0  0  0  0  2  0  0  0  0  0  0
  191.4430  177.4300  141.4190 C   0  0  0  0  0  2  0  0  0  0  0  0
  190.3470  177.1320  143.6170 C   0  0  0  0  0  1  0  0  0  0  0  0
  191.6530  177.0120  142.8610 C   0  0  0  0  0  2  0  0  0  0  0  0
  192.2730  174.3380  135.4880 C   0  0  0  0  0  2  0  0  0  0  0  0
  193.2780  173.1930  135.5020 C   0  0  0  0  0  2  0  0  0  0  0  0
  194.7360  173.0540  137.5360 C   0  0  0  0  0  3  0  0  0  0  0  0
  194.5090  173.5730  136.2560 C   0  0  0  0  0  0  0  0  0  0  0  0
  195.4230  174.4720  135.6950 C   0  0  0  0  0  3  0  0  0  0  0  0
  197.4490  175.7150  135.8660 F   0  0  0  0  0  0  0  0  0  0  0  0
  196.7930  174.3250  137.6870 C   0  0  0  0  0  3  0  0  0  0  0  0
  196.5640  174.8460  136.4100 C   0  0  0  0  0  0  0  0  0  0  0  0
  195.8770  173.4290  138.2500 C   0  0  0  0  0  3  0  0  0  0  0  0
  2 12  1  0  0  0  0
  3  5  1  0  0  0  0
  4  6  1  0  0  0  0
  4  1  1  1  0  0  0
  5 10  1  0  0  0  0
  6 29  1  6  0  0  0
  6 12  1  0  0  0  0
  8  5  2  0  0  0  0
  9 14  1  0  0  0  0
  9 11  2  0  0  0  0
 10  1  1  0  0  0  0
 10  7  1  1  0  0  0
 11  8  1  0  0  0  0
 13  8  1  1  0  0  0
 13  4  1  0  0  0  0
 13 15  1  0  0  0  0
 14  3  2  0  0  0  0
 15  2  1  0  0  0  0
 15 20  1  0  0  0  0
 16 14  1  0  0  0  0
 16 17  1  0  0  0  0
 19 18  2  0  0  0  0
 19 10  1  0  0  0  0
 20 24  1  1  0  0  0
 21 20  1  0  0  0  0
 21 23  1  0  0  0  0
 22 23  1  0  0  0  0
 24 25  1  0  0  0  0
 25 26  1  0  0  0  0
 26 28  1  0  0  0  0
 28 27  1  0  0  0  0
 29 30  1  0  0  0  0
 30 32  1  0  0  0  0
 31 37  1  0  0  0  0
 32 31  2  0  0  0  0
 33 32  1  0  0  0  0
 33 36  2  0  0  0  0
 34 36  1  0  0  0  0
 35 37  2  0  0  0  0
 36 35  1  0  0  0  0
M  END
>  <MODEL>
8

>  <REMARK>
 VINA RESULT:      -4.3      6.872     10.765
  Name = 
  12 active torsions:
  status: ('A' for Active; 'I' for Inactive)
    1  A    between atoms: C_1  and  O_5
    2  A    between atoms: C_1  and  C_33
    3  A    between atoms: C_1  and  N_36
    4  A    between atoms: O_3  and  C_32
    5  A    between atoms: O_5  and  C_23
    6  A    between atoms: C_6  and  C_31
    7  A    between atoms: C_14  and  C_37
    8  A    between atoms: C_17  and  C_26
    9  A    between atoms: C_17  and  C_33
   10  A    between atoms: C_24  and  N_28
   11  A    between atoms: C_26  and  C_34
   12  A    between atoms: C_31  and  C_37
                            x       y       z     vdW  Elec       q    Type
                         _______ _______ _______ _____ _____    ______ ____

>  <TORSDO>
F 12

$$$$
=
 OpenBabel11052415263D

 37 40  0  0  1  0  0  0  0  0999 V2000
  181.6410  177.8780  137.8360 O   0  0  0  0  0  0  0  0  0  0  0  0
  179.7740  177.3740  134.6510 C   0  0  0  0  0  2  0  0  0  0  0  0
  185.1800  176.7470  137.2700 C   0  0  0  0  0  3  0  0  0  0  0  0
  181.5110  178.5840  136.6240 C   0  0  2  0  0  3  0  0  0  0  0  0
  183.8720  177.2020  137.0360 C   0  0  0  0  0  0  0  0  0  0  0  0
  180.0930  179.1190  136.4390 C   0  0  2  0  0  3  0  0  0  0  0  0
  183.0700  176.7540  139.3360 C   0  0  0  0  0  1  0  0  0  0  0  0
  183.3790  177.2170  135.7140 C   0  0  0  0  0  0  0  0  0  0  0  0
  185.4650  176.2870  134.9120 C   0  0  0  0  0  3  0  0  0  0  0  0
  183.0160  177.7460  138.1850 C   0  0  2  0  0  0  0  0  0  0  0  0
  184.1740  176.7560  134.6620 C   0  0  0  0  0  3  0  0  0  0  0  0
  179.1540  178.0530  135.8760 C   0  0  0  0  0  2  0  0  0  0  0  0
  182.0010  177.7400  135.4350 C   0  0  1  0  0  3  0  0  0  0  0  0
  185.9750  176.2810  136.2190 C   0  0  0  0  0  0  0  0  0  0  0  0
  181.0410  176.7030  134.9850 N   0  0  0  0  0  0  0  0  0  0  0  0
  187.2660  175.8240  136.5010 O   0  0  0  0  0  0  0  0  0  0  0  0
  187.5420  174.4760  136.8570 C   0  0  0  0  0  1  0  0  0  0  0  0
  183.8620  179.2000  139.9160 C   0  0  0  0  0  2  0  0  0  0  0  0
  183.5470  179.0040  138.6850 N   0  0  0  0  0  0  0  0  0  0  0  0
  180.8410  175.5990  135.9580 C   0  0  2  0  0  3  0  0  0  0  0  0
  181.7000  174.5310  135.6610 O   0  0  0  0  0  0  0  0  0  0  0  0
  183.5310  173.4370  136.7110 C   0  0  0  0  0  1  0  0  0  0  0  0
  182.1670  174.0700  136.8950 C   0  0  0  0  0  2  0  0  0  0  0  0
  179.3910  175.0800  135.9650 C   0  0  0  0  0  2  0  0  0  0  0  0
  178.9960  174.5350  137.3320 C   0  0  0  0  0  2  0  0  0  0  0  0
  179.1450  175.6110  138.3920 C   0  0  0  0  0  2  0  0  0  0  0  0
  179.4980  175.9500  140.8180 C   0  0  0  0  0  1  0  0  0  0  0  0
  179.7750  175.0340  139.6450 C   0  0  0  0  0  2  0  0  0  0  0  0
  180.1140  180.3590  135.5540 C   0  0  0  0  0  2  0  0  0  0  0  0
  179.0050  181.3310  135.9380 C   0  0  0  0  0  2  0  0  0  0  0  0
  180.4420  183.2770  135.2850 C   0  0  0  0  0  3  0  0  0  0  0  0
  179.5550  182.6940  136.1960 C   0  0  0  0  0  0  0  0  0  0  0  0
  179.2060  183.3790  137.3660 C   0  0  0  0  0  3  0  0  0  0  0  0
  179.3990  185.3080  138.7510 F   0  0  0  0  0  0  0  0  0  0  0  0
  180.6220  185.2300  136.7060 C   0  0  0  0  0  3  0  0  0  0  0  0
  179.7380  184.6460  137.6190 C   0  0  0  0  0  0  0  0  0  0  0  0
  180.9740  184.5440  135.5390 C   0  0  0  0  0  3  0  0  0  0  0  0
  1 10  1  0  0  0  0
  2 15  1  0  0  0  0
  2 12  1  0  0  0  0
  4  1  1  1  0  0  0
  5  3  1  0  0  0  0
  5 10  1  0  0  0  0
  6 29  1  6  0  0  0
  6  4  1  0  0  0  0
  8  5  2  0  0  0  0
  9 14  1  0  0  0  0
 10 19  1  0  0  0  0
 10  7  1  1  0  0  0
 11  9  2  0  0  0  0
 11  8  1  0  0  0  0
 12  6  1  0  0  0  0
 13  8  1  1  0  0  0
 13  4  1  0  0  0  0
 14 16  1  0  0  0  0
 14  3  2  0  0  0  0
 15 13  1  0  0  0  0
 15 20  1  0  0  0  0
 16 17  1  0  0  0  0
 19 18  2  0  0  0  0
 20 24  1  6  0  0  0
 21 20  1  0  0  0  0
 21 23  1  0  0  0  0
 22 23  1  0  0  0  0
 24 25  1  0  0  0  0
 25 26  1  0  0  0  0
 26 28  1  0  0  0  0
 28 27  1  0  0  0  0
 29 30  1  0  0  0  0
 30 32  1  0  0  0  0
 31 37  2  0  0  0  0
 31 32  1  0  0  0  0
 32 33  2  0  0  0  0
 33 36  1  0  0  0  0
 35 36  2  0  0  0  0
 36 34  1  0  0  0  0
 37 35  1  0  0  0  0
M  END
>  <MODEL>
9

>  <REMARK>
 VINA RESULT:      -4.1      3.077      6.374
  Name = 
  12 active torsions:
  status: ('A' for Active; 'I' for Inactive)
    1  A    between atoms: C_1  and  O_5
    2  A    between atoms: C_1  and  C_33
    3  A    between atoms: C_1  and  N_36
    4  A    between atoms: O_3  and  C_32
    5  A    between atoms: O_5  and  C_23
    6  A    between atoms: C_6  and  C_31
    7  A    between atoms: C_14  and  C_37
    8  A    between atoms: C_17  and  C_26
    9  A    between atoms: C_17  and  C_33
   10  A    between atoms: C_24  and  N_28
   11  A    between atoms: C_26  and  C_34
   12  A    between atoms: C_31  and  C_37
                            x       y       z     vdW  Elec       q    Type
                         _______ _______ _______ _____ _____    ______ ____

>  <TORSDO>
F 12

$$$$
