=
 OpenBabel11052413443D

 27 31  0  0  1  0  0  0  0  0999 V2000
  186.3750  178.0530  142.3620 C   0  0  0  0  0  3  0  0  0  0  0  0
  185.9280  178.2550  144.7970 C   0  0  0  0  0  0  0  0  0  0  0  0
  187.6510  176.5900  144.5130 O   0  0  0  0  0  0  0  0  0  0  0  0
  187.6370  179.1520  148.1650 N   0  0  0  0  0  0  0  0  0  0  0  0
  190.0010  178.4440  148.8350 C   0  0  0  0  0  1  0  0  0  0  0  0
  185.2430  179.2350  145.6950 C   0  0  0  0  0  3  0  0  0  0  0  0
  188.4640  177.2240  147.2840 C   0  0  0  0  0  0  0  0  0  0  0  0
  190.5810  176.9980  142.3210 C   0  0  0  0  0  3  0  0  0  0  0  0
  189.3680  176.0650  147.0310 C   0  0  0  0  0  1  0  0  0  0  0  0
  190.1390  177.9960  141.2890 C   0  0  0  0  0  2  0  0  0  0  0  0
  187.0530  177.3390  146.8090 C   0  0  1  0  0  3  0  0  0  0  0  0
  185.5070  178.2140  143.3700 C   0  0  0  0  0  0  0  0  0  0  0  0
  188.7200  178.2340  148.1040 C   0  0  0  0  0  0  0  0  0  0  0  0
  186.6990  178.6440  147.4360 C   0  0  0  0  0  0  0  0  0  0  0  0
  187.8200  177.7720  142.4250 C   0  0  0  0  0  0  0  0  0  0  0  0
  186.8800  177.4370  145.3110 C   0  0  0  0  0  0  0  0  0  0  0  0
  189.7750  176.5800  143.2970 C   0  0  0  0  0  3  0  0  0  0  0  0
  185.6280  179.4280  146.9210 N   0  0  0  0  0  0  0  0  0  0  0  0
  188.6480  178.1650  141.2610 C   0  0  0  0  0  0  0  0  0  0  0  0
  188.1170  178.6970  140.2500 O   0  0  0  0  0  0  0  0  0  0  0  0
  188.3720  177.0250  143.4000 C   0  0  0  0  0  0  0  0  0  0  0  0
  181.3880  178.8900  142.3300 C   0  0  0  0  0  3  0  0  0  0  0  0
  184.0790  178.4330  143.0150 C   0  0  0  0  0  0  0  0  0  0  0  0
  183.6610  178.3820  141.6740 C   0  0  0  0  0  3  0  0  0  0  0  0
  182.3240  178.6060  141.3330 C   0  0  0  0  0  3  0  0  0  0  0  0
  181.7890  178.9530  143.6670 C   0  0  0  0  0  3  0  0  0  0  0  0
  183.1250  178.7280  144.0070 C   0  0  0  0  0  3  0  0  0  0  0  0
  1 15  1  0  0  0  0
  1 12  2  0  0  0  0
  2 16  2  0  0  0  0
  2  6  1  0  0  0  0
  3 16  1  0  0  0  0
  6 18  2  0  0  0  0
  7 13  2  0  0  0  0
  8 17  2  0  0  0  0
  9  7  1  0  0  0  0
 10  8  1  0  0  0  0
 11 16  1  6  0  0  0
 11  7  1  0  0  0  0
 11 14  1  0  0  0  0
 12  2  1  0  0  0  0
 13  4  1  0  0  0  0
 13  5  1  0  0  0  0
 14  4  2  0  0  0  0
 15 21  2  0  0  0  0
 17 21  1  0  0  0  0
 18 14  1  0  0  0  0
 19 10  1  0  0  0  0
 19 15  1  0  0  0  0
 20 19  2  0  0  0  0
 21  3  1  0  0  0  0
 22 26  1  0  0  0  0
 23 12  1  0  0  0  0
 23 27  1  0  0  0  0
 24 23  2  0  0  0  0
 25 24  1  0  0  0  0
 25 22  2  0  0  0  0
 26 27  2  0  0  0  0
M  END
>  <MODEL>
1

>  <REMARK>
 VINA RESULT:      -9.7      0.000      0.000
  Name = 
  1 active torsions:
  status: ('A' for Active; 'I' for Inactive)
    1  A    between atoms: C_9  and  C_15
                            x       y       z     vdW  Elec       q    Type
                         _______ _______ _______ _____ _____    ______ ____

>  <TORSDO>
F 1

$$$$
=
 OpenBabel11052413443D

 27 31  0  0  1  0  0  0  0  0999 V2000
  189.5090  177.1330  140.4150 C   0  0  0  0  0  3  0  0  0  0  0  0
  187.6240  177.9140  141.8320 C   0  0  0  0  0  0  0  0  0  0  0  0
  187.3220  178.8650  139.6350 O   0  0  0  0  0  0  0  0  0  0  0  0
  183.7530  177.8300  142.1030 N   0  0  0  0  0  0  0  0  0  0  0  0
  182.1460  178.0840  140.1300 C   0  0  0  0  0  1  0  0  0  0  0  0
  187.0190  177.5220  143.1420 C   0  0  0  0  0  3  0  0  0  0  0  0
  184.4480  179.0450  140.3100 C   0  0  0  0  0  0  0  0  0  0  0  0
  187.6610  176.9730  136.4960 C   0  0  0  0  0  3  0  0  0  0  0  0
  184.4300  179.7650  139.0040 C   0  0  0  0  0  1  0  0  0  0  0  0
  188.5720  175.8310  136.8450 C   0  0  0  0  0  2  0  0  0  0  0  0
  185.5270  179.1440  141.3370 C   0  0  1  0  0  3  0  0  0  0  0  0
  189.0520  177.5650  141.5980 C   0  0  0  0  0  0  0  0  0  0  0  0
  183.4390  178.3530  140.8200 C   0  0  0  0  0  0  0  0  0  0  0  0
  184.9290  178.2790  142.3920 C   0  0  0  0  0  0  0  0  0  0  0  0
  188.7940  177.0320  139.1320 C   0  0  0  0  0  0  0  0  0  0  0  0
  186.8680  178.5810  140.9240 C   0  0  0  0  0  0  0  0  0  0  0  0
  187.3080  177.8980  137.3870 C   0  0  0  0  0  3  0  0  0  0  0  0
  185.7510  177.6730  143.3850 N   0  0  0  0  0  0  0  0  0  0  0  0
  189.3010  176.0570  138.1370 C   0  0  0  0  0  0  0  0  0  0  0  0
  190.3240  175.3660  138.3860 O   0  0  0  0  0  0  0  0  0  0  0  0
  187.8310  177.8990  138.7670 C   0  0  0  0  0  0  0  0  0  0  0  0
  191.8130  177.7080  144.8950 C   0  0  0  0  0  3  0  0  0  0  0  0
  190.0190  177.6170  142.7290 C   0  0  0  0  0  0  0  0  0  0  0  0
  190.4580  176.4330  143.3470 C   0  0  0  0  0  3  0  0  0  0  0  0
  191.3510  176.4770  144.4210 C   0  0  0  0  0  3  0  0  0  0  0  0
  191.3800  178.8930  144.2970 C   0  0  0  0  0  3  0  0  0  0  0  0
  190.4870  178.8490  143.2230 C   0  0  0  0  0  3  0  0  0  0  0  0
  1 12  2  0  0  0  0
  2  6  1  0  0  0  0
  3 16  1  0  0  0  0
  4 14  2  0  0  0  0
  5 13  1  0  0  0  0
  6 18  2  0  0  0  0
  7 13  2  0  0  0  0
  8 10  1  0  0  0  0
  8 17  2  0  0  0  0
  9  7  1  0  0  0  0
 10 19  1  0  0  0  0
 11  7  1  6  0  0  0
 11 14  1  0  0  0  0
 12  2  1  0  0  0  0
 12 23  1  0  0  0  0
 13  4  1  0  0  0  0
 14 18  1  0  0  0  0
 15  1  1  0  0  0  0
 16 11  1  0  0  0  0
 16  2  2  0  0  0  0
 17 21  1  0  0  0  0
 19 20  2  0  0  0  0
 19 15  1  0  0  0  0
 21 15  2  0  0  0  0
 21  3  1  0  0  0  0
 23 27  2  0  0  0  0
 23 24  1  0  0  0  0
 24 25  2  0  0  0  0
 25 22  1  0  0  0  0
 26 22  2  0  0  0  0
 27 26  1  0  0  0  0
M  END
>  <MODEL>
2

>  <REMARK>
 VINA RESULT:      -9.2      2.929      6.822
  Name = 
  1 active torsions:
  status: ('A' for Active; 'I' for Inactive)
    1  A    between atoms: C_9  and  C_15
                            x       y       z     vdW  Elec       q    Type
                         _______ _______ _______ _____ _____    ______ ____

>  <TORSDO>
F 1

$$$$
=
 OpenBabel11052413443D

 27 31  0  0  1  0  0  0  0  0999 V2000
  188.7780  177.3410  140.1360 C   0  0  0  0  0  3  0  0  0  0  0  0
  191.1580  176.7350  139.7640 C   0  0  0  0  0  0  0  0  0  0  0  0
  189.8320  175.4500  138.2110 O   0  0  0  0  0  0  0  0  0  0  0  0
  193.9390  176.7530  137.0560 N   0  0  0  0  0  0  0  0  0  0  0  0
  193.5840  176.1540  134.5950 C   0  0  0  0  0  1  0  0  0  0  0  0
  192.4900  177.3070  140.1270 C   0  0  0  0  0  3  0  0  0  0  0  0
  192.2680  175.2960  136.5420 C   0  0  0  0  0  0  0  0  0  0  0  0
  187.1090  176.8460  136.1640 C   0  0  0  0  0  3  0  0  0  0  0  0
  191.3870  174.3840  135.7580 C   0  0  0  0  0  1  0  0  0  0  0  0
  186.6480  178.0530  136.9300 C   0  0  0  0  0  2  0  0  0  0  0  0
  192.3130  175.3860  138.0320 C   0  0  1  0  0  3  0  0  0  0  0  0
  189.9970  177.0830  140.6280 C   0  0  0  0  0  0  0  0  0  0  0  0
  193.2540  176.0300  136.0430 C   0  0  0  0  0  0  0  0  0  0  0  0
  193.4080  176.3860  138.1750 C   0  0  0  0  0  0  0  0  0  0  0  0
  188.3000  177.2240  138.7470 C   0  0  0  0  0  0  0  0  0  0  0  0
  191.0580  175.9160  138.6870 C   0  0  0  0  0  0  0  0  0  0  0  0
  188.0910  176.0590  136.6020 C   0  0  0  0  0  3  0  0  0  0  0  0
  193.5330  177.1600  139.3640 N   0  0  0  0  0  0  0  0  0  0  0  0
  187.1340  178.0480  138.3490 C   0  0  0  0  0  0  0  0  0  0  0  0
  186.5670  178.7980  139.1880 O   0  0  0  0  0  0  0  0  0  0  0  0
  188.7590  176.2850  137.8980 C   0  0  0  0  0  0  0  0  0  0  0  0
  190.5910  177.5340  144.8650 C   0  0  0  0  0  3  0  0  0  0  0  0
  190.1880  177.2330  142.0960 C   0  0  0  0  0  0  0  0  0  0  0  0
  189.9930  178.4780  142.7180 C   0  0  0  0  0  3  0  0  0  0  0  0
  190.1900  178.6280  144.0930 C   0  0  0  0  0  3  0  0  0  0  0  0
  190.7970  176.2920  144.2600 C   0  0  0  0  0  3  0  0  0  0  0  0
  190.5990  176.1420  142.8850 C   0  0  0  0  0  3  0  0  0  0  0  0
  1 12  2  0  0  0  0
  2  6  1  0  0  0  0
  2 12  1  0  0  0  0
  3 16  1  0  0  0  0
  4 14  2  0  0  0  0
  5 13  1  0  0  0  0
  8 17  2  0  0  0  0
  8 10  1  0  0  0  0
  9  7  1  0  0  0  0
 10 19  1  0  0  0  0
 11  7  1  6  0  0  0
 11 14  1  0  0  0  0
 11 16  1  0  0  0  0
 12 23  1  0  0  0  0
 13  7  2  0  0  0  0
 13  4  1  0  0  0  0
 14 18  1  0  0  0  0
 15  1  1  0  0  0  0
 16  2  2  0  0  0  0
 17 21  1  0  0  0  0
 18  6  2  0  0  0  0
 19 15  1  0  0  0  0
 19 20  2  0  0  0  0
 21  3  1  0  0  0  0
 21 15  2  0  0  0  0
 23 24  2  0  0  0  0
 23 27  1  0  0  0  0
 24 25  1  0  0  0  0
 25 22  2  0  0  0  0
 26 22  1  0  0  0  0
 27 26  2  0  0  0  0
M  END
>  <MODEL>
3

>  <REMARK>
 VINA RESULT:      -8.9      5.156      8.763
  Name = 
  1 active torsions:
  status: ('A' for Active; 'I' for Inactive)
    1  A    between atoms: C_9  and  C_15
                            x       y       z     vdW  Elec       q    Type
                         _______ _______ _______ _____ _____    ______ ____

>  <TORSDO>
F 1

$$$$
=
 OpenBabel11052413443D

 27 31  0  0  1  0  0  0  0  0999 V2000
  183.9320  178.6520  142.9500 C   0  0  0  0  0  3  0  0  0  0  0  0
  183.0610  178.1800  140.6730 C   0  0  0  0  0  0  0  0  0  0  0  0
  185.2570  179.1480  140.4220 O   0  0  0  0  0  0  0  0  0  0  0  0
  183.8200  176.1350  137.4620 N   0  0  0  0  0  0  0  0  0  0  0  0
  186.1470  175.8250  136.4460 C   0  0  0  0  0  1  0  0  0  0  0  0
  181.9590  177.3600  140.0830 C   0  0  0  0  0  3  0  0  0  0  0  0
  185.3630  177.7720  137.8060 C   0  0  0  0  0  0  0  0  0  0  0  0
  188.2010  178.1380  142.3870 C   0  0  0  0  0  3  0  0  0  0  0  0
  186.6260  178.5610  137.7110 C   0  0  0  0  0  1  0  0  0  0  0  0
  187.6270  177.5680  143.6520 C   0  0  0  0  0  2  0  0  0  0  0  0
  184.0880  178.2530  138.4160 C   0  0  1  0  0  3  0  0  0  0  0  0
  182.9110  178.6280  142.0840 C   0  0  0  0  0  0  0  0  0  0  0  0
  185.1390  176.6050  137.2180 C   0  0  0  0  0  0  0  0  0  0  0  0
  183.2300  177.0670  138.1350 C   0  0  0  0  0  0  0  0  0  0  0  0
  185.3600  178.3870  142.7000 C   0  0  0  0  0  0  0  0  0  0  0  0
  184.1340  178.4990  139.9060 C   0  0  0  0  0  0  0  0  0  0  0  0
  187.4310  178.6280  141.4160 C   0  0  0  0  0  3  0  0  0  0  0  0
  182.0580  176.8220  138.9040 N   0  0  0  0  0  0  0  0  0  0  0  0
  186.1880  177.9450  143.8480 C   0  0  0  0  0  0  0  0  0  0  0  0
  185.6800  177.8300  144.9940 O   0  0  0  0  0  0  0  0  0  0  0  0
  185.9630  178.6970  141.5370 C   0  0  0  0  0  0  0  0  0  0  0  0
  179.0060  179.6560  143.5700 C   0  0  0  0  0  3  0  0  0  0  0  0
  181.5650  178.9980  142.6020 C   0  0  0  0  0  0  0  0  0  0  0  0
  181.1360  178.5440  143.8610 C   0  0  0  0  0  3  0  0  0  0  0  0
  179.8660  178.8720  144.3430 C   0  0  0  0  0  3  0  0  0  0  0  0
  179.4150  180.1070  142.3130 C   0  0  0  0  0  3  0  0  0  0  0  0
  180.6850  179.7790  141.8310 C   0  0  0  0  0  3  0  0  0  0  0  0
  2 12  1  0  0  0  0
  3 21  1  0  0  0  0
  4 14  2  0  0  0  0
  5 13  1  0  0  0  0
  6  2  1  0  0  0  0
  8 10  1  0  0  0  0
  9  7  1  0  0  0  0
 10 19  1  0  0  0  0
 11  7  1  1  0  0  0
 11 16  1  0  0  0  0
 12 23  1  0  0  0  0
 12  1  2  0  0  0  0
 13  4  1  0  0  0  0
 13  7  2  0  0  0  0
 14 11  1  0  0  0  0
 14 18  1  0  0  0  0
 15  1  1  0  0  0  0
 15 19  1  0  0  0  0
 16  3  1  0  0  0  0
 16  2  2  0  0  0  0
 17 21  1  0  0  0  0
 17  8  2  0  0  0  0
 18  6  2  0  0  0  0
 19 20  2  0  0  0  0
 21 15  2  0  0  0  0
 22 25  1  0  0  0  0
 23 24  1  0  0  0  0
 24 25  2  0  0  0  0
 26 22  2  0  0  0  0
 27 26  1  0  0  0  0
 27 23  2  0  0  0  0
M  END
>  <MODEL>
4

>  <REMARK>
 VINA RESULT:      -8.8      3.679      6.723
  Name = 
  1 active torsions:
  status: ('A' for Active; 'I' for Inactive)
    1  A    between atoms: C_9  and  C_15
                            x       y       z     vdW  Elec       q    Type
                         _______ _______ _______ _____ _____    ______ ____

>  <TORSDO>
F 1

$$$$
=
 OpenBabel11052413443D

 27 31  0  0  1  0  0  0  0  0999 V2000
  184.8180  178.8930  141.2520 C   0  0  0  0  0  3  0  0  0  0  0  0
  185.2150  178.1830  138.9050 C   0  0  0  0  0  0  0  0  0  0  0  0
  187.3440  178.8370  139.8340 O   0  0  0  0  0  0  0  0  0  0  0  0
  187.1730  175.5960  136.7730 N   0  0  0  0  0  0  0  0  0  0  0  0
  189.5820  174.8630  137.2180 C   0  0  0  0  0  1  0  0  0  0  0  0
  184.4640  177.4170  137.8630 C   0  0  0  0  0  3  0  0  0  0  0  0
  188.5660  177.0740  137.7990 C   0  0  0  0  0  0  0  0  0  0  0  0
  188.5610  177.8010  143.1500 C   0  0  0  0  0  3  0  0  0  0  0  0
  189.8060  177.6850  138.3580 C   0  0  0  0  0  1  0  0  0  0  0  0
  187.3120  177.5030  143.9290 C   0  0  0  0  0  2  0  0  0  0  0  0
  187.2740  177.7890  137.5780 C   0  0  1  0  0  3  0  0  0  0  0  0
  184.4250  178.8560  139.9710 C   0  0  0  0  0  0  0  0  0  0  0  0
  188.4800  175.8650  137.2610 C   0  0  0  0  0  0  0  0  0  0  0  0
  186.4970  176.6820  136.9510 C   0  0  0  0  0  0  0  0  0  0  0  0
  186.0850  178.4270  141.8410 C   0  0  0  0  0  0  0  0  0  0  0  0
  186.5680  178.2530  138.8310 C   0  0  0  0  0  0  0  0  0  0  0  0
  188.5260  178.2240  141.8860 C   0  0  0  0  0  3  0  0  0  0  0  0
  185.0730  176.6970  136.9680 N   0  0  0  0  0  0  0  0  0  0  0  0
  186.0850  178.0720  143.2800 C   0  0  0  0  0  0  0  0  0  0  0  0
  185.0360  178.1950  143.9670 O   0  0  0  0  0  0  0  0  0  0  0  0
  187.2570  178.4830  141.1800 C   0  0  0  0  0  0  0  0  0  0  0  0
  180.6130  180.6260  139.0500 C   0  0  0  0  0  3  0  0  0  0  0  0
  183.1030  179.4560  139.6440 C   0  0  0  0  0  0  0  0  0  0  0  0
  183.0080  180.5100  138.7190 C   0  0  0  0  0  3  0  0  0  0  0  0
  181.7710  181.0900  138.4210 C   0  0  0  0  0  3  0  0  0  0  0  0
  180.6930  179.5850  139.9780 C   0  0  0  0  0  3  0  0  0  0  0  0
  181.9290  179.0050  140.2750 C   0  0  0  0  0  3  0  0  0  0  0  0
  1 15  1  0  0  0  0
  2 12  1  0  0  0  0
  3 21  1  0  0  0  0
  4 14  2  0  0  0  0
  4 13  1  0  0  0  0
  5 13  1  0  0  0  0
  6  2  1  0  0  0  0
  7  9  1  0  0  0  0
  8 10  1  0  0  0  0
 11 14  1  1  0  0  0
 11  7  1  0  0  0  0
 11 16  1  0  0  0  0
 12  1  2  0  0  0  0
 13  7  2  0  0  0  0
 14 18  1  0  0  0  0
 15 19  1  0  0  0  0
 16  2  2  0  0  0  0
 16  3  1  0  0  0  0
 17  8  2  0  0  0  0
 18  6  2  0  0  0  0
 19 10  1  0  0  0  0
 19 20  2  0  0  0  0
 21 15  2  0  0  0  0
 21 17  1  0  0  0  0
 22 26  1  0  0  0  0
 23 12  1  0  0  0  0
 23 27  1  0  0  0  0
 24 23  2  0  0  0  0
 25 24  1  0  0  0  0
 25 22  2  0  0  0  0
 26 27  2  0  0  0  0
M  END
>  <MODEL>
5

>  <REMARK>
 VINA RESULT:      -8.3      4.061      6.766
  Name = 
  1 active torsions:
  status: ('A' for Active; 'I' for Inactive)
    1  A    between atoms: C_9  and  C_15
                            x       y       z     vdW  Elec       q    Type
                         _______ _______ _______ _____ _____    ______ ____

>  <TORSDO>
F 1

$$$$
=
 OpenBabel11052413443D

 27 31  0  0  1  0  0  0  0  0999 V2000
  189.4830  177.6700  140.9230 C   0  0  0  0  0  3  0  0  0  0  0  0
  187.1510  178.2570  141.5470 C   0  0  0  0  0  0  0  0  0  0  0  0
  187.9540  176.6580  143.1660 O   0  0  0  0  0  0  0  0  0  0  0  0
  185.0400  179.7940  144.4180 N   0  0  0  0  0  0  0  0  0  0  0  0
  185.4040  179.3310  146.9070 C   0  0  0  0  0  1  0  0  0  0  0  0
  186.1770  179.3370  141.2030 C   0  0  0  0  0  3  0  0  0  0  0  0
  185.9390  177.7900  145.0110 C   0  0  0  0  0  0  0  0  0  0  0  0
  191.2510  176.8390  144.7950 C   0  0  0  0  0  3  0  0  0  0  0  0
  186.4160  176.6530  145.8500 C   0  0  0  0  0  1  0  0  0  0  0  0
  192.0980  177.6250  143.8350 C   0  0  0  0  0  2  0  0  0  0  0  0
  185.7490  177.7520  143.5300 C   0  0  1  0  0  3  0  0  0  0  0  0
  188.2250  177.9540  140.5610 C   0  0  0  0  0  0  0  0  0  0  0  0
  185.4560  178.9360  145.4710 C   0  0  0  0  0  0  0  0  0  0  0  0
  185.2040  179.1240  143.3270 C   0  0  0  0  0  0  0  0  0  0  0  0
  190.0320  177.4780  142.2760 C   0  0  0  0  0  0  0  0  0  0  0  0
  187.0130  177.5870  142.7180 C   0  0  0  0  0  0  0  0  0  0  0  0
  189.9740  176.5510  144.5430 C   0  0  0  0  0  3  0  0  0  0  0  0
  185.2850  179.7540  142.0530 N   0  0  0  0  0  0  0  0  0  0  0  0
  191.4830  177.7110  142.4690 C   0  0  0  0  0  0  0  0  0  0  0  0
  192.2110  178.0380  141.4940 O   0  0  0  0  0  0  0  0  0  0  0  0
  189.3170  176.9350  143.2800 C   0  0  0  0  0  0  0  0  0  0  0  0
  187.3770  178.2390  136.3530 C   0  0  0  0  0  3  0  0  0  0  0  0
  187.9330  178.0370  139.1040 C   0  0  0  0  0  0  0  0  0  0  0  0
  188.9170  178.4830  138.2040 C   0  0  0  0  0  3  0  0  0  0  0  0
  188.6420  178.5810  136.8380 C   0  0  0  0  0  3  0  0  0  0  0  0
  186.3870  177.8030  137.2350 C   0  0  0  0  0  3  0  0  0  0  0  0
  186.6610  177.7040  138.6020 C   0  0  0  0  0  3  0  0  0  0  0  0
  1 15  1  0  0  0  0
  2 16  2  0  0  0  0
  3 21  1  0  0  0  0
  4 13  1  0  0  0  0
  6  2  1  0  0  0  0
  6 18  2  0  0  0  0
  7 13  2  0  0  0  0
  7  9  1  0  0  0  0
 10  8  1  0  0  0  0
 11 16  1  6  0  0  0
 11  7  1  0  0  0  0
 12  1  2  0  0  0  0
 12  2  1  0  0  0  0
 13  5  1  0  0  0  0
 14 11  1  0  0  0  0
 14  4  2  0  0  0  0
 15 19  1  0  0  0  0
 15 21  2  0  0  0  0
 16  3  1  0  0  0  0
 17  8  2  0  0  0  0
 18 14  1  0  0  0  0
 19 10  1  0  0  0  0
 20 19  2  0  0  0  0
 21 17  1  0  0  0  0
 22 25  2  0  0  0  0
 22 26  1  0  0  0  0
 23 12  1  0  0  0  0
 24 23  2  0  0  0  0
 25 24  1  0  0  0  0
 26 27  2  0  0  0  0
 27 23  1  0  0  0  0
M  END
>  <MODEL>
6

>  <REMARK>
 VINA RESULT:      -8.1      2.496      4.610
  Name = 
  1 active torsions:
  status: ('A' for Active; 'I' for Inactive)
    1  A    between atoms: C_9  and  C_15
                            x       y       z     vdW  Elec       q    Type
                         _______ _______ _______ _____ _____    ______ ____

>  <TORSDO>
F 1

$$$$
=
 OpenBabel11052413443D

 27 31  0  0  1  0  0  0  0  0999 V2000
  187.3000  177.9050  142.5180 C   0  0  0  0  0  3  0  0  0  0  0  0
  185.4160  178.0820  140.9090 C   0  0  0  0  0  0  0  0  0  0  0  0
  187.3900  178.9280  139.8090 O   0  0  0  0  0  0  0  0  0  0  0  0
  184.2420  176.8640  137.4150 N   0  0  0  0  0  0  0  0  0  0  0  0
  185.7490  176.6590  135.3590 C   0  0  0  0  0  1  0  0  0  0  0  0
  184.0380  177.5160  140.7880 C   0  0  0  0  0  3  0  0  0  0  0  0
  186.0400  178.2500  137.2660 C   0  0  0  0  0  0  0  0  0  0  0  0
  190.6680  177.2530  139.8650 C   0  0  0  0  0  3  0  0  0  0  0  0
  187.2390  178.9480  136.7190 C   0  0  0  0  0  1  0  0  0  0  0  0
  190.6420  176.4240  141.1170 C   0  0  0  0  0  2  0  0  0  0  0  0
  185.2940  178.6500  138.4970 C   0  0  1  0  0  3  0  0  0  0  0  0
  186.0100  178.1700  142.2710 C   0  0  0  0  0  0  0  0  0  0  0  0
  185.3650  177.2870  136.6540 C   0  0  0  0  0  0  0  0  0  0  0  0
  184.2040  177.6350  138.4510 C   0  0  0  0  0  0  0  0  0  0  0  0
  188.3810  177.6120  141.5610 C   0  0  0  0  0  0  0  0  0  0  0  0
  186.0590  178.5090  139.7930 C   0  0  0  0  0  0  0  0  0  0  0  0
  189.6440  178.0240  139.5020 C   0  0  0  0  0  3  0  0  0  0  0  0
  183.4880  177.2860  139.6320 N   0  0  0  0  0  0  0  0  0  0  0  0
  189.5460  176.8400  142.0540 C   0  0  0  0  0  0  0  0  0  0  0  0
  189.6060  176.4760  143.2590 O   0  0  0  0  0  0  0  0  0  0  0  0
  188.4330  178.1630  140.3330 C   0  0  0  0  0  0  0  0  0  0  0  0
  183.4910  179.0520  145.6450 C   0  0  0  0  0  3  0  0  0  0  0  0
  185.1420  178.4900  143.4360 C   0  0  0  0  0  0  0  0  0  0  0  0
  185.6140  178.3140  144.7480 C   0  0  0  0  0  3  0  0  0  0  0  0
  184.7960  178.5950  145.8450 C   0  0  0  0  0  3  0  0  0  0  0  0
  183.0040  179.2240  144.3470 C   0  0  0  0  0  3  0  0  0  0  0  0
  183.8220  178.9430  143.2500 C   0  0  0  0  0  3  0  0  0  0  0  0
  2 12  1  0  0  0  0
  3 21  1  0  0  0  0
  4 14  2  0  0  0  0
  5 13  1  0  0  0  0
  6  2  1  0  0  0  0
  8 10  1  0  0  0  0
  9  7  1  0  0  0  0
 10 19  1  0  0  0  0
 11  7  1  6  0  0  0
 11 16  1  0  0  0  0
 12  1  2  0  0  0  0
 12 23  1  0  0  0  0
 13  7  2  0  0  0  0
 13  4  1  0  0  0  0
 14 11  1  0  0  0  0
 14 18  1  0  0  0  0
 15 19  1  0  0  0  0
 15  1  1  0  0  0  0
 16  3  1  0  0  0  0
 16  2  2  0  0  0  0
 17  8  2  0  0  0  0
 17 21  1  0  0  0  0
 18  6  2  0  0  0  0
 19 20  2  0  0  0  0
 21 15  2  0  0  0  0
 22 25  1  0  0  0  0
 23 24  1  0  0  0  0
 24 25  2  0  0  0  0
 26 22  2  0  0  0  0
 27 23  2  0  0  0  0
 27 26  1  0  0  0  0
M  END
>  <MODEL>
7

>  <REMARK>
 VINA RESULT:      -8.0      3.546      6.530
  Name = 
  1 active torsions:
  status: ('A' for Active; 'I' for Inactive)
    1  A    between atoms: C_9  and  C_15
                            x       y       z     vdW  Elec       q    Type
                         _______ _______ _______ _____ _____    ______ ____

>  <TORSDO>
F 1

$$$$
=
 OpenBabel11052413443D

 27 31  0  0  1  0  0  0  0  0999 V2000
  184.2010  179.1460  140.8140 C   0  0  0  0  0  3  0  0  0  0  0  0
  184.2870  178.1970  138.5210 C   0  0  0  0  0  0  0  0  0  0  0  0
  186.5550  178.6780  139.1920 O   0  0  0  0  0  0  0  0  0  0  0  0
  185.7380  175.2280  136.4840 N   0  0  0  0  0  0  0  0  0  0  0  0
  188.0870  174.2620  136.7840 C   0  0  0  0  0  1  0  0  0  0  0  0
  183.3600  177.4370  137.6280 C   0  0  0  0  0  3  0  0  0  0  0  0
  187.3760  176.6170  137.2360 C   0  0  0  0  0  0  0  0  0  0  0  0
  187.9740  177.7960  142.4730 C   0  0  0  0  0  3  0  0  0  0  0  0
  188.7230  177.1260  137.6230 C   0  0  0  0  0  1  0  0  0  0  0  0
  186.7830  177.7120  143.3830 C   0  0  0  0  0  2  0  0  0  0  0  0
  186.1520  177.4540  137.0620 C   0  0  1  0  0  3  0  0  0  0  0  0
  183.6830  179.0460  139.5830 C   0  0  0  0  0  0  0  0  0  0  0  0
  187.1080  175.3840  136.8270 C   0  0  0  0  0  0  0  0  0  0  0  0
  185.2030  176.3960  136.6160 C   0  0  0  0  0  0  0  0  0  0  0  0
  185.4630  178.5890  141.3320 C   0  0  0  0  0  0  0  0  0  0  0  0
  185.6260  178.1030  138.3220 C   0  0  0  0  0  0  0  0  0  0  0  0
  187.8600  178.1100  141.1820 C   0  0  0  0  0  3  0  0  0  0  0  0
  183.7970  176.5770  136.7560 N   0  0  0  0  0  0  0  0  0  0  0  0
  185.5650  178.3620  142.7930 C   0  0  0  0  0  0  0  0  0  0  0  0
  184.6080  178.6630  143.5540 O   0  0  0  0  0  0  0  0  0  0  0  0
  186.5630  178.4520  140.5690 C   0  0  0  0  0  0  0  0  0  0  0  0
  180.0060  181.1540  138.8440 C   0  0  0  0  0  3  0  0  0  0  0  0
  182.4070  179.7650  139.3170 C   0  0  0  0  0  0  0  0  0  0  0  0
  182.3970  180.9380  138.5440 C   0  0  0  0  0  3  0  0  0  0  0  0
  181.2050  181.6270  138.3060 C   0  0  0  0  0  3  0  0  0  0  0  0
  180.0000  179.9930  139.6210 C   0  0  0  0  0  3  0  0  0  0  0  0
  181.1920  179.3040  139.8580 C   0  0  0  0  0  3  0  0  0  0  0  0
  1 15  1  0  0  0  0
  2 12  1  0  0  0  0
  3 21  1  0  0  0  0
  4 14  2  0  0  0  0
  4 13  1  0  0  0  0
  5 13  1  0  0  0  0
  6  2  1  0  0  0  0
  7  9  1  0  0  0  0
  8 10  1  0  0  0  0
 11 14  1  1  0  0  0
 11  7  1  0  0  0  0
 11 16  1  0  0  0  0
 12  1  2  0  0  0  0
 13  7  2  0  0  0  0
 14 18  1  0  0  0  0
 15 19  1  0  0  0  0
 16  2  2  0  0  0  0
 16  3  1  0  0  0  0
 17  8  2  0  0  0  0
 18  6  2  0  0  0  0
 19 10  1  0  0  0  0
 19 20  2  0  0  0  0
 21 17  1  0  0  0  0
 21 15  2  0  0  0  0
 22 26  1  0  0  0  0
 23 12  1  0  0  0  0
 23 27  1  0  0  0  0
 24 23  2  0  0  0  0
 25 24  1  0  0  0  0
 25 22  2  0  0  0  0
 26 27  2  0  0  0  0
M  END
>  <MODEL>
8

>  <REMARK>
 VINA RESULT:      -7.6      4.481      7.250
  Name = 
  1 active torsions:
  status: ('A' for Active; 'I' for Inactive)
    1  A    between atoms: C_9  and  C_15
                            x       y       z     vdW  Elec       q    Type
                         _______ _______ _______ _____ _____    ______ ____

>  <TORSDO>
F 1

$$$$
=
 OpenBabel11052413443D

 27 31  0  0  1  0  0  0  0  0999 V2000
  188.4510  177.6180  142.8850 C   0  0  0  0  0  3  0  0  0  0  0  0
  186.0500  178.1710  142.5680 C   0  0  0  0  0  0  0  0  0  0  0  0
  187.2620  179.1080  140.7030 O   0  0  0  0  0  0  0  0  0  0  0  0
  183.0830  177.6590  140.1180 N   0  0  0  0  0  0  0  0  0  0  0  0
  183.2620  177.7570  137.5680 C   0  0  0  0  0  1  0  0  0  0  0  0
  184.7470  177.7010  143.1290 C   0  0  0  0  0  3  0  0  0  0  0  0
  184.7120  178.9640  139.2110 C   0  0  0  0  0  0  0  0  0  0  0  0
  189.8330  177.2980  138.7860 C   0  0  0  0  0  3  0  0  0  0  0  0
  185.5360  179.6920  138.2030 C   0  0  0  0  0  1  0  0  0  0  0  0
  190.3470  176.2600  139.7410 C   0  0  0  0  0  2  0  0  0  0  0  0
  184.7740  179.1690  140.6890 C   0  0  1  0  0  3  0  0  0  0  0  0
  187.2700  177.9840  143.4000 C   0  0  0  0  0  0  0  0  0  0  0  0
  183.6940  178.1590  138.9370 C   0  0  0  0  0  0  0  0  0  0  0  0
  183.6920  178.2310  141.1030 C   0  0  0  0  0  0  0  0  0  0  0  0
  188.8280  177.4520  141.4700 C   0  0  0  0  0  0  0  0  0  0  0  0
  186.0720  178.7610  141.3460 C   0  0  0  0  0  0  0  0  0  0  0  0
  188.8830  178.1690  139.1290 C   0  0  0  0  0  3  0  0  0  0  0  0
  183.6530  177.7090  142.4270 N   0  0  0  0  0  0  0  0  0  0  0  0
  189.9630  176.5500  141.1620 C   0  0  0  0  0  0  0  0  0  0  0  0
  190.5890  175.9720  142.0910 O   0  0  0  0  0  0  0  0  0  0  0  0
  188.3100  178.2120  140.4870 C   0  0  0  0  0  0  0  0  0  0  0  0
  187.0070  178.3600  147.6780 C   0  0  0  0  0  3  0  0  0  0  0  0
  187.1840  178.1290  144.8790 C   0  0  0  0  0  0  0  0  0  0  0  0
  188.2030  177.6260  145.7060 C   0  0  0  0  0  3  0  0  0  0  0  0
  188.1170  177.7430  147.0960 C   0  0  0  0  0  3  0  0  0  0  0  0
  185.9820  178.8570  146.8700 C   0  0  0  0  0  3  0  0  0  0  0  0
  186.0680  178.7410  145.4800 C   0  0  0  0  0  3  0  0  0  0  0  0
  1 12  2  0  0  0  0
  2  6  1  0  0  0  0
  2 12  1  0  0  0  0
  3 16  1  0  0  0  0
  4 14  2  0  0  0  0
  5 13  1  0  0  0  0
  8 17  2  0  0  0  0
  8 10  1  0  0  0  0
  9  7  1  0  0  0  0
 10 19  1  0  0  0  0
 11  7  1  6  0  0  0
 11 14  1  0  0  0  0
 11 16  1  0  0  0  0
 12 23  1  0  0  0  0
 13  7  2  0  0  0  0
 13  4  1  0  0  0  0
 14 18  1  0  0  0  0
 15  1  1  0  0  0  0
 16  2  2  0  0  0  0
 17 21  1  0  0  0  0
 18  6  2  0  0  0  0
 19 15  1  0  0  0  0
 19 20  2  0  0  0  0
 21  3  1  0  0  0  0
 21 15  2  0  0  0  0
 23 27  2  0  0  0  0
 23 24  1  0  0  0  0
 24 25  2  0  0  0  0
 25 22  1  0  0  0  0
 26 22  2  0  0  0  0
 27 26  1  0  0  0  0
M  END
>  <MODEL>
9

>  <REMARK>
 VINA RESULT:      -7.6      2.581      6.180
  Name = 
  1 active torsions:
  status: ('A' for Active; 'I' for Inactive)
    1  A    between atoms: C_9  and  C_15
                            x       y       z     vdW  Elec       q    Type
                         _______ _______ _______ _____ _____    ______ ____

>  <TORSDO>
F 1

$$$$
