=
 OpenBabel11052412353D

 30 32  0  0  1  0  0  0  0  0999 V2000
  186.2560  177.8720  143.0760 C   0  0  0  0  0  0  0  0  0  0  0  0
  184.2210  178.6850  141.9410 C   0  0  0  0  0  2  0  0  0  0  0  0
  185.4940  176.5730  137.6060 C   0  0  0  0  0  2  0  0  0  0  0  0
  187.6530  175.5070  137.0860 C   0  0  0  0  0  2  0  0  0  0  0  0
  187.6300  177.4800  143.0040 N   0  0  0  0  0  2  0  0  0  0  0  0
  189.7990  176.9510  141.7730 C   0  0  2  0  0  3  0  0  0  0  0  0
  188.2920  179.0470  140.9460 S   0  0  0  0  0  0  0  0  0  0  0  0
  189.2350  177.4360  137.4200 C   0  0  1  0  0  0  0  0  0  0  0  0
  189.1000  178.7890  137.1900 C   0  0  0  0  0  0  0  0  0  0  0  0
  188.5010  177.7160  141.8880 C   0  0  0  0  0  0  0  0  0  0  0  0
  190.0050  176.3730  140.3730 C   0  0  0  0  0  2  0  0  0  0  0  0
  183.7310  178.8350  140.5150 C   0  0  0  0  0  2  0  0  0  0  0  0
  190.6070  177.0460  137.9820 C   0  0  1  0  0  3  0  0  0  0  0  0
  185.6520  177.8040  144.1810 O   0  0  0  0  0  0  0  0  0  0  0  0
  184.9790  177.8150  137.9870 O   0  0  0  0  0  0  0  0  0  0  0  0
  183.5680  177.4620  139.8880 C   0  0  0  0  0  2  0  0  0  0  0  0
  185.5790  178.2730  141.9230 O   0  0  0  0  0  0  0  0  0  0  0  0
  187.9530  176.7390  137.9220 C   0  0  1  0  0  3  0  0  0  0  0  0
  188.9530  179.9740  137.5850 O   0  0  0  0  0  0  0  0  0  0  0  0
  189.2630  177.7740  136.0930 O   0  0  0  0  0  0  0  0  0  0  0  0
  192.2370  177.3910  139.8640 C   0  0  0  0  0  1  0  0  0  0  0  0
  183.6620  177.5530  138.3740 C   0  0  0  0  0  2  0  0  0  0  0  0
  186.8220  176.7570  136.9010 C   0  0  2  0  0  3  0  0  0  0  0  0
  190.7670  177.3490  139.4800 C   0  0  2  0  0  3  0  0  0  0  0  0
  190.7470  174.6840  138.2230 O   0  0  0  0  0  0  0  0  0  0  0  0
  191.8870  175.5060  136.3450 C   0  0  0  0  0  1  0  0  0  0  0  0
  191.0540  175.6680  137.5680 C   0  0  0  0  0  0  0  0  0  0  0  0
  189.9710  175.8650  142.8390 C   0  0  0  0  0  2  0  0  0  0  0  0
  191.6690  177.4470  143.7100 C   0  0  0  0  0  1  0  0  0  0  0  0
  191.2900  175.9860  143.5910 C   0  0  0  0  0  2  0  0  0  0  0  0
  1 14  2  0  0  0  0
  3 15  1  0  0  0  0
  5  1  1  0  0  0  0
  6 10  1  0  0  0  0
  6 28  1  1  0  0  0
  7 10  2  0  0  0  0
  8 20  1  6  0  0  0
  8 18  1  0  0  0  0
  8 13  1  0  0  0  0
  9  8  1  0  0  0  0
  9 19  2  0  0  0  0
 10  5  1  0  0  0  0
 11  6  1  0  0  0  0
 12  2  1  0  0  0  0
 13 27  1  1  0  0  0
 13 24  1  0  0  0  0
 15 22  1  0  0  0  0
 16 12  1  0  0  0  0
 17  2  1  0  0  0  0
 17  1  1  0  0  0  0
 18  4  1  6  0  0  0
 20  9  1  0  0  0  0
 22 16  1  0  0  0  0
 23  4  1  6  0  0  0
 23  3  1  0  0  0  0
 23 18  1  0  0  0  0
 24 21  1  1  0  0  0
 24 11  1  0  0  0  0
 26 27  1  0  0  0  0
 27 25  2  0  0  0  0
 28 30  1  0  0  0  0
 30 29  1  0  0  0  0
M  END
>  <MODEL>
1

>  <REMARK>
 VINA RESULT:      -7.6      0.000      0.000
  Name = 
  3 active torsions:
  status: ('A' for Active; 'I' for Inactive)
    1  A    between atoms: C_6  and  C_8
    2  A    between atoms: C_6  and  C_21
    3  A    between atoms: C_15  and  C_26
                            x       y       z     vdW  Elec       q    Type
                         _______ _______ _______ _____ _____    ______ ____

>  <TORSDO>
F 3

$$$$
=
 OpenBabel11052412353D

 30 32  0  0  1  0  0  0  0  0999 V2000
  186.7870  178.7550  140.9740 C   0  0  0  0  0  0  0  0  0  0  0  0
  184.6950  179.0570  139.6990 C   0  0  0  0  0  2  0  0  0  0  0  0
  185.6830  175.2090  136.6850 C   0  0  0  0  0  2  0  0  0  0  0  0
  187.7960  173.9460  136.5830 C   0  0  0  0  0  2  0  0  0  0  0  0
  188.1500  178.3220  141.0140 N   0  0  0  0  0  2  0  0  0  0  0  0
  190.2350  177.2290  140.0370 C   0  0  2  0  0  3  0  0  0  0  0  0
  188.7020  178.7990  138.4460 S   0  0  0  0  0  0  0  0  0  0  0  0
  189.4140  175.7670  135.9510 C   0  0  1  0  0  0  0  0  0  0  0  0
  189.2790  176.8840  135.1550 C   0  0  0  0  0  0  0  0  0  0  0  0
  188.9550  178.0120  139.8670 C   0  0  0  0  0  0  0  0  0  0  0  0
  190.3510  176.0870  139.0280 C   0  0  0  0  0  2  0  0  0  0  0  0
  184.1210  178.5810  138.3800 C   0  0  0  0  0  2  0  0  0  0  0  0
  190.8130  175.6160  136.5590 C   0  0  1  0  0  3  0  0  0  0  0  0
  186.2490  179.2020  142.0230 O   0  0  0  0  0  0  0  0  0  0  0  0
  185.2050  176.5080  136.5040 O   0  0  0  0  0  0  0  0  0  0  0  0
  183.9070  177.0790  138.4330 C   0  0  0  0  0  2  0  0  0  0  0  0
  186.0450  178.6310  139.7980 O   0  0  0  0  0  0  0  0  0  0  0  0
  188.1580  175.4090  136.7730 C   0  0  1  0  0  3  0  0  0  0  0  0
  189.1680  178.1270  134.9920 O   0  0  0  0  0  0  0  0  0  0  0  0
  189.3660  175.4860  134.6120 O   0  0  0  0  0  0  0  0  0  0  0  0
  192.5570  176.6960  138.0120 C   0  0  0  0  0  1  0  0  0  0  0  0
  183.9100  176.4910  137.0320 C   0  0  0  0  0  2  0  0  0  0  0  0
  186.9680  175.0160  135.9070 C   0  0  2  0  0  3  0  0  0  0  0  0
  191.0670  176.5420  137.7600 C   0  0  2  0  0  3  0  0  0  0  0  0
  190.6320  173.4740  137.5770 O   0  0  0  0  0  0  0  0  0  0  0  0
  192.3630  173.6210  136.0000 C   0  0  0  0  0  1  0  0  0  0  0  0
  191.2210  174.1820  136.7750 C   0  0  0  0  0  0  0  0  0  0  0  0
  190.4600  176.7180  141.4630 C   0  0  0  0  0  2  0  0  0  0  0  0
  191.2000  178.2080  143.3000 C   0  0  0  0  0  1  0  0  0  0  0  0
  191.6660  177.3640  142.1330 C   0  0  0  0  0  2  0  0  0  0  0  0
  1  5  1  0  0  0  0
  1 14  2  0  0  0  0
  2 17  1  0  0  0  0
  6 28  1  1  0  0  0
  7 10  2  0  0  0  0
  8 20  1  6  0  0  0
  8 13  1  0  0  0  0
  8 18  1  0  0  0  0
  9  8  1  0  0  0  0
 10  6  1  0  0  0  0
 10  5  1  0  0  0  0
 11  6  1  0  0  0  0
 12 16  1  0  0  0  0
 12  2  1  0  0  0  0
 13 27  1  1  0  0  0
 13 24  1  0  0  0  0
 15  3  1  0  0  0  0
 15 22  1  0  0  0  0
 17  1  1  0  0  0  0
 18  4  1  1  0  0  0
 19  9  2  0  0  0  0
 20  9  1  0  0  0  0
 22 16  1  0  0  0  0
 23  4  1  1  0  0  0
 23  3  1  0  0  0  0
 23 18  1  0  0  0  0
 24 21  1  1  0  0  0
 24 11  1  0  0  0  0
 26 27  1  0  0  0  0
 27 25  2  0  0  0  0
 28 30  1  0  0  0  0
 30 29  1  0  0  0  0
M  END
>  <MODEL>
2

>  <REMARK>
 VINA RESULT:      -6.3      1.781      2.077
  Name = 
  3 active torsions:
  status: ('A' for Active; 'I' for Inactive)
    1  A    between atoms: C_6  and  C_8
    2  A    between atoms: C_6  and  C_21
    3  A    between atoms: C_15  and  C_26
                            x       y       z     vdW  Elec       q    Type
                         _______ _______ _______ _____ _____    ______ ____

>  <TORSDO>
F 3

$$$$
=
 OpenBabel11052412353D

 30 32  0  0  1  0  0  0  0  0999 V2000
  185.7910  178.9490  140.7630 C   0  0  0  0  0  0  0  0  0  0  0  0
  183.3840  178.7520  140.2510 C   0  0  0  0  0  2  0  0  0  0  0  0
  183.9770  174.3690  137.9480 C   0  0  0  0  0  2  0  0  0  0  0  0
  186.1240  173.2980  137.3890 C   0  0  0  0  0  2  0  0  0  0  0  0
  187.1480  178.6520  140.4220 N   0  0  0  0  0  2  0  0  0  0  0  0
  188.9670  177.5240  139.0370 C   0  0  2  0  0  3  0  0  0  0  0  0
  186.7810  178.5180  137.7800 S   0  0  0  0  0  0  0  0  0  0  0  0
  187.1470  175.0300  135.8780 C   0  0  1  0  0  0  0  0  0  0  0  0
  186.5920  175.8990  134.9640 C   0  0  0  0  0  0  0  0  0  0  0  0
  187.5900  178.1330  139.1580 C   0  0  0  0  0  0  0  0  0  0  0  0
  188.9400  176.1800  138.3090 C   0  0  0  0  0  2  0  0  0  0  0  0
  182.5080  177.9180  139.3380 C   0  0  0  0  0  2  0  0  0  0  0  0
  188.6720  175.1500  135.9860 C   0  0  1  0  0  3  0  0  0  0  0  0
  185.5460  179.5970  141.8160 O   0  0  0  0  0  0  0  0  0  0  0  0
  183.2640  175.5400  137.6770 O   0  0  0  0  0  0  0  0  0  0  0  0
  182.5660  176.4650  139.7710 C   0  0  0  0  0  2  0  0  0  0  0  0
  184.7470  178.4760  139.9660 O   0  0  0  0  0  0  0  0  0  0  0  0
  186.2880  174.7860  137.1360 C   0  0  1  0  0  3  0  0  0  0  0  0
  186.2380  177.0490  134.5960 O   0  0  0  0  0  0  0  0  0  0  0  0
  186.7260  174.4210  134.7260 O   0  0  0  0  0  0  0  0  0  0  0  0
  190.5880  176.6950  136.4940 C   0  0  0  0  0  1  0  0  0  0  0  0
  182.2220  175.5480  138.6080 C   0  0  0  0  0  2  0  0  0  0  0  0
  184.9650  174.0950  136.8330 C   0  0  2  0  0  3  0  0  0  0  0  0
  189.1380  176.3620  136.8070 C   0  0  2  0  0  3  0  0  0  0  0  0
  189.6020  173.5700  137.5020 O   0  0  0  0  0  0  0  0  0  0  0  0
  189.7260  172.9020  135.2560 C   0  0  0  0  0  1  0  0  0  0  0  0
  189.3510  173.8520  136.3400 C   0  0  0  0  0  0  0  0  0  0  0  0
  189.7080  177.4040  140.3720 C   0  0  0  0  0  2  0  0  0  0  0  0
  191.9150  177.6180  141.4780 C   0  0  0  0  0  1  0  0  0  0  0  0
  191.2110  177.2340  140.1940 C   0  0  0  0  0  2  0  0  0  0  0  0
  1 14  2  0  0  0  0
  5  1  1  0  0  0  0
  6 10  1  0  0  0  0
  6 28  1  1  0  0  0
  7 10  2  0  0  0  0
  8 20  1  6  0  0  0
  8 13  1  0  0  0  0
  8 18  1  0  0  0  0
  9  8  1  0  0  0  0
 10  5  1  0  0  0  0
 11  6  1  0  0  0  0
 12 16  1  0  0  0  0
 12  2  1  0  0  0  0
 13 27  1  1  0  0  0
 13 24  1  0  0  0  0
 15  3  1  0  0  0  0
 15 22  1  0  0  0  0
 17  2  1  0  0  0  0
 17  1  1  0  0  0  0
 18  4  1  1  0  0  0
 19  9  2  0  0  0  0
 20  9  1  0  0  0  0
 22 16  1  0  0  0  0
 23 18  1  0  0  0  0
 23  4  1  1  0  0  0
 23  3  1  0  0  0  0
 24 21  1  1  0  0  0
 24 11  1  0  0  0  0
 26 27  1  0  0  0  0
 27 25  2  0  0  0  0
 30 28  1  0  0  0  0
 30 29  1  0  0  0  0
M  END
>  <MODEL>
3

>  <REMARK>
 VINA RESULT:      -6.0      2.248      3.070
  Name = 
  3 active torsions:
  status: ('A' for Active; 'I' for Inactive)
    1  A    between atoms: C_6  and  C_8
    2  A    between atoms: C_6  and  C_21
    3  A    between atoms: C_15  and  C_26
                            x       y       z     vdW  Elec       q    Type
                         _______ _______ _______ _____ _____    ______ ____

>  <TORSDO>
F 3

$$$$
=
 OpenBabel11052412353D

 30 32  0  0  1  0  0  0  0  0999 V2000
  188.7000  176.2990  138.3500 C   0  0  0  0  0  0  0  0  0  0  0  0
  189.5250  177.5080  140.3380 C   0  0  0  0  0  2  0  0  0  0  0  0
  184.9650  177.8510  142.3280 C   0  0  0  0  0  2  0  0  0  0  0  0
  182.8470  177.2440  141.2260 C   0  0  0  0  0  2  0  0  0  0  0  0
  187.6420  176.0330  137.4240 N   0  0  0  0  0  2  0  0  0  0  0  0
  185.2560  176.2450  136.5510 C   0  0  2  0  0  3  0  0  0  0  0  0
  186.4790  178.4310  137.5870 S   0  0  0  0  0  0  0  0  0  0  0  0
  182.8700  178.8010  139.2490 C   0  0  1  0  0  0  0  0  0  0  0  0
  183.3450  180.0860  139.0930 C   0  0  0  0  0  0  0  0  0  0  0  0
  186.4460  176.8160  137.2860 C   0  0  0  0  0  0  0  0  0  0  0  0
  183.9530  176.4400  137.3250 C   0  0  0  0  0  2  0  0  0  0  0  0
  188.9280  178.3290  141.4630 C   0  0  0  0  0  2  0  0  0  0  0  0
  182.2420  178.2240  137.9750 C   0  0  1  0  0  3  0  0  0  0  0  0
  189.7910  175.6770  138.2360 O   0  0  0  0  0  0  0  0  0  0  0  0
  186.0410  178.7270  142.1660 O   0  0  0  0  0  0  0  0  0  0  0  0
  188.0530  177.4410  142.3290 C   0  0  0  0  0  2  0  0  0  0  0  0
  188.5050  177.1980  139.4000 O   0  0  0  0  0  0  0  0  0  0  0  0
  183.7210  177.9100  140.1780 C   0  0  1  0  0  3  0  0  0  0  0  0
  184.1800  180.9170  138.6510 O   0  0  0  0  0  0  0  0  0  0  0  0
  182.0950  179.7510  139.8590 O   0  0  0  0  0  0  0  0  0  0  0  0
  182.6380  177.6400  135.5630 C   0  0  0  0  0  1  0  0  0  0  0  0
  187.0120  178.2700  143.0620 C   0  0  0  0  0  2  0  0  0  0  0  0
  183.7420  178.3980  141.6210 C   0  0  2  0  0  3  0  0  0  0  0  0
  183.2730  177.7510  136.9390 C   0  0  2  0  0  3  0  0  0  0  0  0
  181.3640  176.0570  138.4130 O   0  0  0  0  0  0  0  0  0  0  0  0
  179.7240  177.7310  138.3090 C   0  0  0  0  0  1  0  0  0  0  0  0
  181.1290  177.2440  138.2470 C   0  0  0  0  0  0  0  0  0  0  0  0
  185.4300  174.7790  136.1410 C   0  0  0  0  0  2  0  0  0  0  0  0
  185.3050  173.0030  137.8640 C   0  0  0  0  0  1  0  0  0  0  0  0
  184.4970  173.8440  136.9000 C   0  0  0  0  0  2  0  0  0  0  0  0
  1 17  1  0  0  0  0
  2 12  1  0  0  0  0
  5  1  1  0  0  0  0
  6 28  1  1  0  0  0
  6 10  1  0  0  0  0
  6 11  1  0  0  0  0
  8  9  1  6  0  0  0
  8 20  1  0  0  0  0
  8 18  1  0  0  0  0
  9 20  1  0  0  0  0
 10  5  1  0  0  0  0
 10  7  2  0  0  0  0
 12 16  1  0  0  0  0
 13 27  1  1  0  0  0
 13  8  1  0  0  0  0
 14  1  2  0  0  0  0
 15  3  1  0  0  0  0
 15 22  1  0  0  0  0
 16 22  1  0  0  0  0
 17  2  1  0  0  0  0
 18  4  1  1  0  0  0
 18 23  1  0  0  0  0
 19  9  2  0  0  0  0
 23  4  1  1  0  0  0
 23  3  1  0  0  0  0
 24 21  1  6  0  0  0
 24 11  1  0  0  0  0
 24 13  1  0  0  0  0
 27 26  1  0  0  0  0
 27 25  2  0  0  0  0
 28 30  1  0  0  0  0
 30 29  1  0  0  0  0
M  END
>  <MODEL>
4

>  <REMARK>
 VINA RESULT:      -5.3      2.490      7.226
  Name = 
  3 active torsions:
  status: ('A' for Active; 'I' for Inactive)
    1  A    between atoms: C_6  and  C_8
    2  A    between atoms: C_6  and  C_21
    3  A    between atoms: C_15  and  C_26
                            x       y       z     vdW  Elec       q    Type
                         _______ _______ _______ _____ _____    ______ ____

>  <TORSDO>
F 3

$$$$
=
 OpenBabel11052412353D

 30 32  0  0  1  0  0  0  0  0999 V2000
  183.6570  178.4190  141.1560 C   0  0  0  0  0  0  0  0  0  0  0  0
  181.5480  177.5570  140.2060 C   0  0  0  0  0  2  0  0  0  0  0  0
  183.8910  174.0720  137.5180 C   0  0  0  0  0  2  0  0  0  0  0  0
  186.3270  173.8590  137.2190 C   0  0  0  0  0  2  0  0  0  0  0  0
  185.0660  178.6360  141.0260 N   0  0  0  0  0  2  0  0  0  0  0  0
  187.3190  178.4110  139.8550 C   0  0  2  0  0  3  0  0  0  0  0  0
  185.0990  178.8610  138.3660 S   0  0  0  0  0  0  0  0  0  0  0  0
  186.8750  176.0650  136.1400 C   0  0  1  0  0  0  0  0  0  0  0  0
  186.1740  176.8580  135.2570 C   0  0  0  0  0  0  0  0  0  0  0  0
  185.8120  178.5170  139.8060 C   0  0  0  0  0  0  0  0  0  0  0  0
  187.8460  177.2800  138.9730 C   0  0  0  0  0  2  0  0  0  0  0  0
  181.1330  176.6620  139.0560 C   0  0  0  0  0  2  0  0  0  0  0  0
  188.2400  176.6440  136.5290 C   0  0  1  0  0  3  0  0  0  0  0  0
  183.0760  178.7590  142.2220 O   0  0  0  0  0  0  0  0  0  0  0  0
  182.8600  174.9820  137.2730 O   0  0  0  0  0  0  0  0  0  0  0  0
  181.6310  175.2510  139.3090 C   0  0  0  0  0  2  0  0  0  0  0  0
  182.9470  177.7860  140.1340 O   0  0  0  0  0  0  0  0  0  0  0  0
  186.0010  175.3420  137.1860 C   0  0  1  0  0  3  0  0  0  0  0  0
  185.4960  177.8810  134.9780 O   0  0  0  0  0  0  0  0  0  0  0  0
  186.8360  175.5670  134.8640 O   0  0  0  0  0  0  0  0  0  0  0  0
  189.4300  178.6060  137.5570 C   0  0  0  0  0  1  0  0  0  0  0  0
  181.7710  174.4930  137.9990 C   0  0  0  0  0  2  0  0  0  0  0  0
  185.0450  174.3290  136.5700 C   0  0  2  0  0  3  0  0  0  0  0  0
  188.1560  177.7770  137.5640 C   0  0  2  0  0  3  0  0  0  0  0  0
  189.4700  175.2160  137.9800 O   0  0  0  0  0  0  0  0  0  0  0  0
  190.0680  175.0020  135.7210 C   0  0  0  0  0  1  0  0  0  0  0  0
  189.2730  175.5900  136.8340 C   0  0  0  0  0  0  0  0  0  0  0  0
  187.8830  178.3010  141.2750 C   0  0  0  0  0  2  0  0  0  0  0  0
  188.9090  176.5450  142.6910 C   0  0  0  0  0  1  0  0  0  0  0  0
  189.0170  177.2900  141.3770 C   0  0  0  0  0  2  0  0  0  0  0  0
  1 14  2  0  0  0  0
  5  1  1  0  0  0  0
  6 28  1  1  0  0  0
  7 10  2  0  0  0  0
  8 20  1  6  0  0  0
  8 13  1  0  0  0  0
  8 18  1  0  0  0  0
  9  8  1  0  0  0  0
 10  6  1  0  0  0  0
 10  5  1  0  0  0  0
 11  6  1  0  0  0  0
 12 16  1  0  0  0  0
 12  2  1  0  0  0  0
 13 27  1  1  0  0  0
 13 24  1  0  0  0  0
 15  3  1  0  0  0  0
 15 22  1  0  0  0  0
 17  2  1  0  0  0  0
 17  1  1  0  0  0  0
 18  4  1  1  0  0  0
 19  9  2  0  0  0  0
 20  9  1  0  0  0  0
 22 16  1  0  0  0  0
 23 18  1  0  0  0  0
 23  4  1  1  0  0  0
 23  3  1  0  0  0  0
 24 21  1  1  0  0  0
 24 11  1  0  0  0  0
 26 27  1  0  0  0  0
 27 25  2  0  0  0  0
 28 30  1  0  0  0  0
 30 29  1  0  0  0  0
M  END
>  <MODEL>
5

>  <REMARK>
 VINA RESULT:      -4.9      2.376      3.261
  Name = 
  3 active torsions:
  status: ('A' for Active; 'I' for Inactive)
    1  A    between atoms: C_6  and  C_8
    2  A    between atoms: C_6  and  C_21
    3  A    between atoms: C_15  and  C_26
                            x       y       z     vdW  Elec       q    Type
                         _______ _______ _______ _____ _____    ______ ____

>  <TORSDO>
F 3

$$$$
=
 OpenBabel11052412353D

 30 32  0  0  1  0  0  0  0  0999 V2000
  182.3830  178.6270  141.3890 C   0  0  0  0  0  0  0  0  0  0  0  0
  180.1570  177.6640  140.9310 C   0  0  0  0  0  2  0  0  0  0  0  0
  182.0240  174.1170  137.9660 C   0  0  0  0  0  2  0  0  0  0  0  0
  184.3540  173.9540  137.1810 C   0  0  0  0  0  2  0  0  0  0  0  0
  183.7260  178.8750  140.9620 N   0  0  0  0  0  2  0  0  0  0  0  0
  185.6990  178.6540  139.3620 C   0  0  2  0  0  3  0  0  0  0  0  0
  183.2070  178.9710  138.3450 S   0  0  0  0  0  0  0  0  0  0  0  0
  184.5890  176.1190  135.9200 C   0  0  1  0  0  0  0  0  0  0  0  0
  183.6930  176.8490  135.1680 C   0  0  0  0  0  0  0  0  0  0  0  0
  184.2110  178.7170  139.6200 C   0  0  0  0  0  0  0  0  0  0  0  0
  186.0750  177.4950  138.4390 C   0  0  0  0  0  2  0  0  0  0  0  0
  179.5480  176.7040  139.9300 C   0  0  0  0  0  2  0  0  0  0  0  0
  185.9830  176.7530  135.9950 C   0  0  1  0  0  3  0  0  0  0  0  0
  182.0210  179.0030  142.5360 O   0  0  0  0  0  0  0  0  0  0  0  0
  180.9330  174.9850  137.9010 O   0  0  0  0  0  0  0  0  0  0  0  0
  180.1370  175.3200  140.1330 C   0  0  0  0  0  2  0  0  0  0  0  0
  181.5030  177.9260  140.5630 O   0  0  0  0  0  0  0  0  0  0  0  0
  183.9740  175.4240  137.1530 C   0  0  1  0  0  3  0  0  0  0  0  0
  182.9370  177.8390  134.9920 O   0  0  0  0  0  0  0  0  0  0  0  0
  184.3070  175.5590  134.7020 O   0  0  0  0  0  0  0  0  0  0  0  0
  187.2860  178.7930  136.6720 C   0  0  0  0  0  1  0  0  0  0  0  0
  180.0330  174.5030  138.8560 C   0  0  0  0  0  2  0  0  0  0  0  0
  182.9490  174.3570  136.7910 C   0  0  2  0  0  3  0  0  0  0  0  0
  186.0710  177.9320  136.9770 C   0  0  2  0  0  3  0  0  0  0  0  0
  187.4340  175.3180  137.2180 O   0  0  0  0  0  0  0  0  0  0  0  0
  187.7900  175.2600  134.9000 C   0  0  0  0  0  1  0  0  0  0  0  0
  187.0940  175.7430  136.1240 C   0  0  0  0  0  0  0  0  0  0  0  0
  186.5450  178.6280  140.6380 C   0  0  0  0  0  2  0  0  0  0  0  0
  188.6290  177.7460  141.6490 C   0  0  0  0  0  1  0  0  0  0  0  0
  187.9970  178.2530  140.3710 C   0  0  0  0  0  2  0  0  0  0  0  0
  1 14  2  0  0  0  0
  5  1  1  0  0  0  0
  6 10  1  0  0  0  0
  6 28  1  1  0  0  0
  7 10  2  0  0  0  0
  8 20  1  6  0  0  0
  8 13  1  0  0  0  0
  8 18  1  0  0  0  0
  9  8  1  0  0  0  0
 10  5  1  0  0  0  0
 11  6  1  0  0  0  0
 12 16  1  0  0  0  0
 12  2  1  0  0  0  0
 13 27  1  1  0  0  0
 13 24  1  0  0  0  0
 15  3  1  0  0  0  0
 15 22  1  0  0  0  0
 17  2  1  0  0  0  0
 17  1  1  0  0  0  0
 18  4  1  6  0  0  0
 19  9  2  0  0  0  0
 20  9  1  0  0  0  0
 22 16  1  0  0  0  0
 23 18  1  0  0  0  0
 23  4  1  1  0  0  0
 23  3  1  0  0  0  0
 24 21  1  6  0  0  0
 24 11  1  0  0  0  0
 26 27  1  0  0  0  0
 27 25  2  0  0  0  0
 30 28  1  0  0  0  0
 30 29  1  0  0  0  0
M  END
>  <MODEL>
6

>  <REMARK>
 VINA RESULT:      -4.6      3.184      4.828
  Name = 
  3 active torsions:
  status: ('A' for Active; 'I' for Inactive)
    1  A    between atoms: C_6  and  C_8
    2  A    between atoms: C_6  and  C_21
    3  A    between atoms: C_15  and  C_26
                            x       y       z     vdW  Elec       q    Type
                         _______ _______ _______ _____ _____    ______ ____

>  <TORSDO>
F 3

$$$$
