=
 OpenBabel11052415393D

 34 38  0  0  1  0  0  0  0  0999 V2000
  185.1090  178.9680  140.5560 C   0  0  0  0  0  0  0  0  0  0  0  0
  187.4930  177.2830  138.1430 C   0  0  0  0  0  2  0  0  0  0  0  0
  190.3830  176.9440  139.9970 C   0  0  0  0  0  0  0  0  0  0  0  0
  185.1450  177.9380  137.9390 N   0  0  0  0  0  0  0  0  0  0  0  0
  182.6360  179.3820  140.2250 C   0  0  0  0  0  3  0  0  0  0  0  0
  181.6410  178.3060  138.2700 C   0  0  0  0  0  3  0  0  0  0  0  0
  190.7560  176.8660  141.1970 O   0  0  0  0  0  0  0  0  0  0  0  0
  181.5440  178.9360  139.6030 C   0  0  0  0  0  3  0  0  0  0  0  0
  184.0210  178.4220  138.3740 C   0  0  0  0  0  0  0  0  0  0  0  0
  184.0040  179.3420  139.5810 C   0  0  2  0  0  3  0  0  0  0  0  0
  182.7960  178.0660  137.7240 N   0  0  0  0  0  0  0  0  0  0  0  0
  188.8760  177.9120  138.2370 C   0  0  0  0  0  2  0  0  0  0  0  0
  190.9790  176.0890  139.0260 N   0  0  0  0  0  1  0  0  0  0  0  0
  189.3650  177.8810  139.6120 N   0  0  0  0  0  0  0  0  0  0  0  0
  188.7040  178.7010  140.6210 C   0  0  0  0  0  2  0  0  0  0  0  0
  186.4220  178.2840  138.5640 C   0  0  1  0  0  3  0  0  0  0  0  0
  187.3840  178.0560  141.0160 C   0  0  0  0  0  2  0  0  0  0  0  0
  186.2700  178.4470  140.0730 C   0  0  0  0  0  0  0  0  0  0  0  0
  184.9540  179.2970  142.0180 C   0  0  0  0  0  2  0  0  0  0  0  0
  184.4790  178.1260  142.7420 N   0  0  0  0  0  2  0  0  0  0  0  0
  184.2790  178.5350  144.1220 C   0  0  0  0  0  2  0  0  0  0  0  0
  186.6760  178.2040  147.0420 C   0  0  0  0  0  3  0  0  0  0  0  0
  186.6790  177.8240  144.2580 C   0  0  0  0  0  3  0  0  0  0  0  0
  190.1440  176.9890  146.5040 C   0  0  0  0  0  0  0  0  0  0  0  0
  188.9840  177.4610  147.1440 C   0  0  0  0  0  3  0  0  0  0  0  0
  187.8320  177.7400  146.4010 C   0  0  0  0  0  0  0  0  0  0  0  0
  188.9860  177.0780  144.3630 C   0  0  0  0  0  3  0  0  0  0  0  0
  187.8340  177.5480  144.9980 C   0  0  0  0  0  0  0  0  0  0  0  0
  190.1340  176.8000  145.1130 C   0  0  0  0  0  3  0  0  0  0  0  0
  185.5260  178.2910  144.9030 C   0  0  0  0  0  0  0  0  0  0  0  0
  185.5240  178.4730  146.2940 C   0  0  0  0  0  3  0  0  0  0  0  0
  191.3620  176.6980  147.2860 C   0  0  0  0  0  0  0  0  0  0  0  0
  191.6720  177.4210  148.2710 O   0  0  0  0  0  0  0  0  0  0  0  0
  192.2530  175.5520  146.9320 C   0  0  0  0  0  1  0  0  0  0  0  0
  1 19  1  0  0  0  0
  2 12  1  0  0  0  0
  3  7  2  0  0  0  0
  4  9  2  0  0  0  0
  4 16  1  0  0  0  0
  6  8  1  0  0  0  0
  8  5  2  0  0  0  0
  9 10  1  0  0  0  0
 10  5  1  1  0  0  0
 10  1  1  0  0  0  0
 11  6  2  0  0  0  0
 11  9  1  0  0  0  0
 12 14  1  0  0  0  0
 13  3  1  0  0  0  0
 14  3  1  0  0  0  0
 14 15  1  0  0  0  0
 15 17  1  0  0  0  0
 16  2  1  1  0  0  0
 16 18  1  0  0  0  0
 18  1  2  0  0  0  0
 18 17  1  0  0  0  0
 19 20  1  0  0  0  0
 20 21  1  0  0  0  0
 21 30  1  0  0  0  0
 23 30  2  0  0  0  0
 23 28  1  0  0  0  0
 24 25  1  0  0  0  0
 24 32  1  0  0  0  0
 26 22  1  0  0  0  0
 26 25  2  0  0  0  0
 27 28  2  0  0  0  0
 27 29  1  0  0  0  0
 28 26  1  0  0  0  0
 29 24  2  0  0  0  0
 30 31  1  0  0  0  0
 31 22  2  0  0  0  0
 32 33  2  0  0  0  0
 34 32  1  0  0  0  0
M  END
>  <MODEL>
1

>  <REMARK>
 VINA RESULT:     -10.4      0.000      0.000
  Name = 
  5 active torsions:
  status: ('A' for Active; 'I' for Inactive)
    1  A    between atoms: C_1  and  C_9
    2  A    between atoms: C_7  and  C_11
    3  A    between atoms: N_8  and  C_9
    4  A    between atoms: N_8  and  C_18
    5  A    between atoms: C_18  and  C_30
                            x       y       z     vdW  Elec       q    Type
                         _______ _______ _______ _____ _____    ______ ____

>  <TORSDO>
F 5

$$$$
=
 OpenBabel11052415393D

 34 38  0  0  1  0  0  0  0  0999 V2000
  183.8890  178.1970  138.4050 C   0  0  0  0  0  0  0  0  0  0  0  0
  186.0440  175.4330  136.9700 C   0  0  0  0  0  2  0  0  0  0  0  0
  189.1640  176.8910  136.7640 C   0  0  0  0  0  0  0  0  0  0  0  0
  183.6850  175.5070  137.6100 N   0  0  0  0  0  0  0  0  0  0  0  0
  181.4940  178.0160  139.1970 C   0  0  0  0  0  3  0  0  0  0  0  0
  180.5970  175.7470  139.3230 C   0  0  0  0  0  3  0  0  0  0  0  0
  189.8340  177.8170  137.2940 O   0  0  0  0  0  0  0  0  0  0  0  0
  180.5870  177.1750  139.6970 C   0  0  0  0  0  3  0  0  0  0  0  0
  182.6200  176.0670  138.1010 C   0  0  0  0  0  0  0  0  0  0  0  0
  182.5190  177.5800  138.1740 C   0  0  2  0  0  3  0  0  0  0  0  0
  181.5520  175.2510  138.5940 N   0  0  0  0  0  0  0  0  0  0  0  0
  186.9840  175.9890  135.9080 C   0  0  0  0  0  2  0  0  0  0  0  0
  189.7970  175.6460  136.4870 N   0  0  0  0  0  1  0  0  0  0  0  0
  187.7780  177.0890  136.4460 N   0  0  0  0  0  0  0  0  0  0  0  0
  187.1150  178.3390  136.8000 C   0  0  0  0  0  2  0  0  0  0  0  0
  184.7960  176.3010  137.0850 C   0  0  1  0  0  3  0  0  0  0  0  0
  186.3650  178.1630  138.1120 C   0  0  0  0  0  2  0  0  0  0  0  0
  184.9890  177.5800  137.8940 C   0  0  0  0  0  0  0  0  0  0  0  0
  183.9960  179.5400  139.0790 C   0  0  0  0  0  2  0  0  0  0  0  0
  184.7870  179.4230  140.2960 N   0  0  0  0  0  2  0  0  0  0  0  0
  183.9430  178.7770  141.2880 C   0  0  0  0  0  2  0  0  0  0  0  0
  184.7670  178.8130  144.9900 C   0  0  0  0  0  3  0  0  0  0  0  0
  185.9850  178.0810  142.5650 C   0  0  0  0  0  3  0  0  0  0  0  0
  188.0330  177.5280  146.2050 C   0  0  0  0  0  0  0  0  0  0  0  0
  186.7400  178.0810  146.1980 C   0  0  0  0  0  3  0  0  0  0  0  0
  186.0570  178.2680  144.9920 C   0  0  0  0  0  0  0  0  0  0  0  0
  187.9540  177.3460  143.7770 C   0  0  0  0  0  3  0  0  0  0  0  0
  186.6710  177.8970  143.7700 C   0  0  0  0  0  0  0  0  0  0  0  0
  188.6310  177.1630  144.9880 C   0  0  0  0  0  3  0  0  0  0  0  0
  184.6950  178.6300  142.5670 C   0  0  0  0  0  0  0  0  0  0  0  0
  184.0860  178.9890  143.7790 C   0  0  0  0  0  3  0  0  0  0  0  0
  188.7560  177.3340  147.4770 C   0  0  0  0  0  0  0  0  0  0  0  0
  189.8410  176.6920  147.4990 O   0  0  0  0  0  0  0  0  0  0  0  0
  188.2260  177.8860  148.7600 C   0  0  0  0  0  1  0  0  0  0  0  0
  1 19  1  0  0  0  0
  3  7  2  0  0  0  0
  4  9  2  0  0  0  0
  5  8  2  0  0  0  0
  6  8  1  0  0  0  0
  9 10  1  0  0  0  0
  9 11  1  0  0  0  0
 10  1  1  0  0  0  0
 10  5  1  1  0  0  0
 11  6  2  0  0  0  0
 12 14  1  0  0  0  0
 12  2  1  0  0  0  0
 13  3  1  0  0  0  0
 14  3  1  0  0  0  0
 14 15  1  0  0  0  0
 15 17  1  0  0  0  0
 16  2  1  1  0  0  0
 16  4  1  0  0  0  0
 16 18  1  0  0  0  0
 18 17  1  0  0  0  0
 18  1  2  0  0  0  0
 19 20  1  0  0  0  0
 20 21  1  0  0  0  0
 21 30  1  0  0  0  0
 22 26  1  0  0  0  0
 23 30  2  0  0  0  0
 23 28  1  0  0  0  0
 24 32  1  0  0  0  0
 25 24  1  0  0  0  0
 26 25  2  0  0  0  0
 27 29  1  0  0  0  0
 28 27  2  0  0  0  0
 28 26  1  0  0  0  0
 29 24  2  0  0  0  0
 30 31  1  0  0  0  0
 31 22  2  0  0  0  0
 32 33  2  0  0  0  0
 32 34  1  0  0  0  0
M  END
>  <MODEL>
2

>  <REMARK>
 VINA RESULT:      -9.9      2.062      2.878
  Name = 
  5 active torsions:
  status: ('A' for Active; 'I' for Inactive)
    1  A    between atoms: C_1  and  C_9
    2  A    between atoms: C_7  and  C_11
    3  A    between atoms: N_8  and  C_9
    4  A    between atoms: N_8  and  C_18
    5  A    between atoms: C_18  and  C_30
                            x       y       z     vdW  Elec       q    Type
                         _______ _______ _______ _____ _____    ______ ____

>  <TORSDO>
F 5

$$$$
=
 OpenBabel11052415393D

 34 38  0  0  1  0  0  0  0  0999 V2000
  184.7690  178.8220  141.1010 C   0  0  0  0  0  0  0  0  0  0  0  0
  182.8940  178.5970  137.8190 C   0  0  0  0  0  2  0  0  0  0  0  0
  179.6740  179.4820  138.6870 C   0  0  0  0  0  0  0  0  0  0  0  0
  185.2480  178.2630  138.3870 N   0  0  0  0  0  0  0  0  0  0  0  0
  187.2670  178.6370  141.4530 C   0  0  0  0  0  3  0  0  0  0  0  0
  188.6170  178.6150  139.4160 C   0  0  0  0  0  3  0  0  0  0  0  0
  179.0580  180.1430  139.5650 O   0  0  0  0  0  0  0  0  0  0  0  0
  188.4520  178.8220  140.8690 C   0  0  0  0  0  3  0  0  0  0  0  0
  186.2710  178.2490  139.1890 C   0  0  0  0  0  0  0  0  0  0  0  0
  186.0620  178.1370  140.6880 C   0  0  2  0  0  3  0  0  0  0  0  0
  187.5940  178.3620  138.6540 N   0  0  0  0  0  0  0  0  0  0  0  0
  181.5380  177.9360  138.0260 C   0  0  0  0  0  2  0  0  0  0  0  0
  179.2690  179.5890  137.3260 N   0  0  0  0  0  1  0  0  0  0  0  0
  180.7740  178.6350  139.0540 N   0  0  0  0  0  0  0  0  0  0  0  0
  181.2330  178.5880  140.4380 C   0  0  0  0  0  2  0  0  0  0  0  0
  183.8800  178.1380  138.8880 C   0  0  1  0  0  3  0  0  0  0  0  0
  182.4250  179.5170  140.6110 C   0  0  0  0  0  2  0  0  0  0  0  0
  183.7200  178.8370  140.2340 C   0  0  0  0  0  0  0  0  0  0  0  0
  184.6260  179.3570  142.5020 C   0  0  0  0  0  2  0  0  0  0  0  0
  184.5240  178.2530  143.4470 N   0  0  0  0  0  2  0  0  0  0  0  0
  184.4980  178.8370  144.7780 C   0  0  0  0  0  2  0  0  0  0  0  0
  186.9830  178.2470  147.5810 C   0  0  0  0  0  3  0  0  0  0  0  0
  186.8740  178.0370  144.7810 C   0  0  0  0  0  3  0  0  0  0  0  0
  190.3830  176.9490  146.8420 C   0  0  0  0  0  0  0  0  0  0  0  0
  189.2640  177.4200  147.5520 C   0  0  0  0  0  3  0  0  0  0  0  0
  188.0980  177.7840  146.8710 C   0  0  0  0  0  0  0  0  0  0  0  0
  189.1540  177.2060  144.7550 C   0  0  0  0  0  3  0  0  0  0  0  0
  188.0430  177.6760  145.4600 C   0  0  0  0  0  0  0  0  0  0  0  0
  190.3170  176.8440  145.4440 C   0  0  0  0  0  3  0  0  0  0  0  0
  185.7620  178.5030  145.4950 C   0  0  0  0  0  0  0  0  0  0  0  0
  185.8160  178.6010  146.8940 C   0  0  0  0  0  3  0  0  0  0  0  0
  191.6170  176.5690  147.5600 C   0  0  0  0  0  0  0  0  0  0  0  0
  192.0690  177.3050  148.4780 O   0  0  0  0  0  0  0  0  0  0  0  0
  192.3560  175.3160  147.2170 C   0  0  0  0  0  1  0  0  0  0  0  0
  1 19  1  0  0  0  0
  2 12  1  0  0  0  0
  3 14  1  0  0  0  0
  3  7  2  0  0  0  0
  4 16  1  0  0  0  0
  4  9  2  0  0  0  0
  6  8  1  0  0  0  0
  8  5  2  0  0  0  0
  9 10  1  0  0  0  0
 10  1  1  0  0  0  0
 10  5  1  1  0  0  0
 11  9  1  0  0  0  0
 11  6  2  0  0  0  0
 12 14  1  0  0  0  0
 13  3  1  0  0  0  0
 14 15  1  0  0  0  0
 15 17  1  0  0  0  0
 16  2  1  6  0  0  0
 16 18  1  0  0  0  0
 18 17  1  0  0  0  0
 18  1  2  0  0  0  0
 19 20  1  0  0  0  0
 20 21  1  0  0  0  0
 21 30  1  0  0  0  0
 23 28  2  0  0  0  0
 23 30  1  0  0  0  0
 24 25  2  0  0  0  0
 24 32  1  0  0  0  0
 26 25  1  0  0  0  0
 26 22  2  0  0  0  0
 27 29  2  0  0  0  0
 27 28  1  0  0  0  0
 28 26  1  0  0  0  0
 29 24  1  0  0  0  0
 30 31  2  0  0  0  0
 31 22  1  0  0  0  0
 32 33  2  0  0  0  0
 34 32  1  0  0  0  0
M  END
>  <MODEL>
3

>  <REMARK>
 VINA RESULT:      -9.6      2.383      4.965
  Name = 
  5 active torsions:
  status: ('A' for Active; 'I' for Inactive)
    1  A    between atoms: C_1  and  C_9
    2  A    between atoms: C_7  and  C_11
    3  A    between atoms: N_8  and  C_9
    4  A    between atoms: N_8  and  C_18
    5  A    between atoms: C_18  and  C_30
                            x       y       z     vdW  Elec       q    Type
                         _______ _______ _______ _____ _____    ______ ____

>  <TORSDO>
F 5

$$$$
=
 OpenBabel11052415393D

 34 38  0  0  1  0  0  0  0  0999 V2000
  187.3250  177.6450  144.3210 C   0  0  0  0  0  0  0  0  0  0  0  0
  183.8040  178.8170  145.0760 C   0  0  0  0  0  2  0  0  0  0  0  0
  182.2350  178.6310  142.0080 C   0  0  0  0  0  0  0  0  0  0  0  0
  185.7580  178.4720  146.5050 N   0  0  0  0  0  0  0  0  0  0  0  0
  189.1650  177.1550  145.9860 C   0  0  0  0  0  3  0  0  0  0  0  0
  188.4860  177.1510  148.3330 C   0  0  0  0  0  3  0  0  0  0  0  0
  182.3280  178.0170  140.9120 O   0  0  0  0  0  0  0  0  0  0  0  0
  189.4060  176.7740  147.2410 C   0  0  0  0  0  3  0  0  0  0  0  0
  186.9820  178.1130  146.7500 C   0  0  0  0  0  0  0  0  0  0  0  0
  187.9970  178.0450  145.6240 C   0  0  2  0  0  3  0  0  0  0  0  0
  187.3640  177.7600  148.0850 N   0  0  0  0  0  0  0  0  0  0  0  0
  183.3090  179.7520  143.9810 C   0  0  0  0  0  2  0  0  0  0  0  0
  180.9480  178.8340  142.5840 N   0  0  0  0  0  1  0  0  0  0  0  0
  183.4130  179.1160  142.6720 N   0  0  0  0  0  0  0  0  0  0  0  0
  184.7330  178.8390  142.1170 C   0  0  0  0  0  2  0  0  0  0  0  0
  185.3260  178.8530  145.1600 C   0  0  1  0  0  3  0  0  0  0  0  0
  185.3360  177.6310  142.8170 C   0  0  0  0  0  2  0  0  0  0  0  0
  186.0360  178.0200  144.0980 C   0  0  0  0  0  0  0  0  0  0  0  0
  188.1300  176.9560  143.2500 C   0  0  0  0  0  2  0  0  0  0  0  0
  188.9420  177.9320  142.5350 N   0  0  0  0  0  2  0  0  0  0  0  0
  188.5770  177.8390  141.1310 C   0  0  0  0  0  2  0  0  0  0  0  0
  192.1800  177.1280  140.1850 C   0  0  0  0  0  3  0  0  0  0  0  0
  189.6410  177.1180  138.9790 C   0  0  0  0  0  3  0  0  0  0  0  0
  193.0380  175.9970  136.7540 C   0  0  0  0  0  0  0  0  0  0  0  0
  193.1700  176.3790  138.1000 C   0  0  0  0  0  3  0  0  0  0  0  0
  192.0450  176.7530  138.8420 C   0  0  0  0  0  0  0  0  0  0  0  0
  190.6340  176.3650  136.8970 C   0  0  0  0  0  3  0  0  0  0  0  0
  190.7660  176.7470  138.2340 C   0  0  0  0  0  0  0  0  0  0  0  0
  191.7640  175.9920  136.1610 C   0  0  0  0  0  3  0  0  0  0  0  0
  189.7810  177.4950  140.3220 C   0  0  0  0  0  0  0  0  0  0  0  0
  191.0480  177.4930  140.9240 C   0  0  0  0  0  3  0  0  0  0  0  0
  194.2250  175.6050  135.9680 C   0  0  0  0  0  0  0  0  0  0  0  0
  195.0090  176.4860  135.5230 O   0  0  0  0  0  0  0  0  0  0  0  0
  194.5230  174.1700  135.6790 C   0  0  0  0  0  1  0  0  0  0  0  0
  1 10  1  0  0  0  0
  3 13  1  0  0  0  0
  3 14  1  0  0  0  0
  4  9  2  0  0  0  0
  5  8  2  0  0  0  0
  7  3  2  0  0  0  0
  8  6  1  0  0  0  0
  9 11  1  0  0  0  0
 10  5  1  1  0  0  0
 10  9  1  0  0  0  0
 11  6  2  0  0  0  0
 12  2  1  0  0  0  0
 14 12  1  0  0  0  0
 15 14  1  0  0  0  0
 15 17  1  0  0  0  0
 16  2  1  1  0  0  0
 16  4  1  0  0  0  0
 17 18  1  0  0  0  0
 18  1  2  0  0  0  0
 18 16  1  0  0  0  0
 19  1  1  0  0  0  0
 20 19  1  0  0  0  0
 21 20  1  0  0  0  0
 22 31  1  0  0  0  0
 23 30  1  0  0  0  0
 24 25  2  0  0  0  0
 25 26  1  0  0  0  0
 26 22  2  0  0  0  0
 27 28  1  0  0  0  0
 28 26  1  0  0  0  0
 28 23  2  0  0  0  0
 29 24  1  0  0  0  0
 29 27  2  0  0  0  0
 30 31  2  0  0  0  0
 30 21  1  0  0  0  0
 32 24  1  0  0  0  0
 33 32  2  0  0  0  0
 34 32  1  0  0  0  0
M  END
>  <MODEL>
4

>  <REMARK>
 VINA RESULT:      -9.5      3.334      8.484
  Name = 
  5 active torsions:
  status: ('A' for Active; 'I' for Inactive)
    1  A    between atoms: C_1  and  C_9
    2  A    between atoms: C_7  and  C_11
    3  A    between atoms: N_8  and  C_9
    4  A    between atoms: N_8  and  C_18
    5  A    between atoms: C_18  and  C_30
                            x       y       z     vdW  Elec       q    Type
                         _______ _______ _______ _____ _____    ______ ____

>  <TORSDO>
F 5

$$$$
=
 OpenBabel11052415393D

 34 38  0  0  1  0  0  0  0  0999 V2000
  182.5770  178.4560  140.9030 C   0  0  0  0  0  0  0  0  0  0  0  0
  180.8090  176.1620  138.4630 C   0  0  0  0  0  2  0  0  0  0  0  0
  183.2200  175.5430  136.0730 C   0  0  0  0  0  0  0  0  0  0  0  0
  180.0970  177.1710  140.5740 N   0  0  0  0  0  0  0  0  0  0  0  0
  181.7330  179.2360  143.1560 C   0  0  0  0  0  3  0  0  0  0  0  0
  179.6990  178.1430  143.9530 C   0  0  0  0  0  3  0  0  0  0  0  0
  184.4730  175.5290  135.9480 O   0  0  0  0  0  0  0  0  0  0  0  0
  180.9380  178.9140  144.1780 C   0  0  0  0  0  3  0  0  0  0  0  0
  180.2660  177.8760  141.6520 C   0  0  0  0  0  0  0  0  0  0  0  0
  181.3790  178.9050  141.7240 C   0  0  2  0  0  3  0  0  0  0  0  0
  179.4110  177.6620  142.7810 N   0  0  0  0  0  0  0  0  0  0  0  0
  181.1330  176.5600  137.0300 C   0  0  0  0  0  2  0  0  0  0  0  0
  182.4490  174.5070  135.4740 N   0  0  0  0  0  1  0  0  0  0  0  0
  182.5760  176.5910  136.8160 N   0  0  0  0  0  0  0  0  0  0  0  0
  183.3750  177.6080  137.4910 C   0  0  0  0  0  2  0  0  0  0  0  0
  180.9390  177.3640  139.3930 C   0  0  1  0  0  3  0  0  0  0  0  0
  183.5420  177.2340  138.9560 C   0  0  0  0  0  2  0  0  0  0  0  0
  182.3720  177.7030  139.7880 C   0  0  0  0  0  0  0  0  0  0  0  0
  183.9530  178.9540  141.2620 C   0  0  0  0  0  2  0  0  0  0  0  0
  184.6760  177.9270  141.9980 N   0  0  0  0  0  2  0  0  0  0  0  0
  184.8010  178.3980  143.3680 C   0  0  0  0  0  2  0  0  0  0  0  0
  188.4310  177.3160  143.5510 C   0  0  0  0  0  3  0  0  0  0  0  0
  186.3430  177.9980  145.3040 C   0  0  0  0  0  3  0  0  0  0  0  0
  190.1390  176.9970  146.8330 C   0  0  0  0  0  0  0  0  0  0  0  0
  189.9110  176.9890  145.4450 C   0  0  0  0  0  3  0  0  0  0  0  0
  188.6530  177.3190  144.9340 C   0  0  0  0  0  0  0  0  0  0  0  0
  187.8270  177.6740  147.1960 C   0  0  0  0  0  3  0  0  0  0  0  0
  187.6010  177.6640  145.8170 C   0  0  0  0  0  0  0  0  0  0  0  0
  189.0900  177.3420  147.7000 C   0  0  0  0  0  3  0  0  0  0  0  0
  186.1260  177.9910  143.9190 C   0  0  0  0  0  0  0  0  0  0  0  0
  187.1710  177.6570  143.0450 C   0  0  0  0  0  3  0  0  0  0  0  0
  191.4670  176.6440  147.3750 C   0  0  0  0  0  0  0  0  0  0  0  0
  191.9490  177.2910  148.3430 O   0  0  0  0  0  0  0  0  0  0  0  0
  192.2670  175.5240  146.7930 C   0  0  0  0  0  1  0  0  0  0  0  0
  1 19  1  0  0  0  0
  1 10  1  0  0  0  0
  3 14  1  0  0  0  0
  4  9  2  0  0  0  0
  5  8  2  0  0  0  0
  6  8  1  0  0  0  0
  7  3  2  0  0  0  0
  9 10  1  0  0  0  0
  9 11  1  0  0  0  0
 10  5  1  1  0  0  0
 11  6  2  0  0  0  0
 12  2  1  0  0  0  0
 13  3  1  0  0  0  0
 14 12  1  0  0  0  0
 14 15  1  0  0  0  0
 15 17  1  0  0  0  0
 16  2  1  1  0  0  0
 16 18  1  0  0  0  0
 16  4  1  0  0  0  0
 17 18  1  0  0  0  0
 18  1  2  0  0  0  0
 19 20  1  0  0  0  0
 20 21  1  0  0  0  0
 21 30  1  0  0  0  0
 22 26  1  0  0  0  0
 23 28  1  0  0  0  0
 24 32  1  0  0  0  0
 24 29  1  0  0  0  0
 25 24  2  0  0  0  0
 26 25  1  0  0  0  0
 26 28  2  0  0  0  0
 27 29  2  0  0  0  0
 28 27  1  0  0  0  0
 30 23  2  0  0  0  0
 31 22  2  0  0  0  0
 31 30  1  0  0  0  0
 32 33  2  0  0  0  0
 34 32  1  0  0  0  0
M  END
>  <MODEL>
5

>  <REMARK>
 VINA RESULT:      -9.5      2.752      4.662
  Name = 
  5 active torsions:
  status: ('A' for Active; 'I' for Inactive)
    1  A    between atoms: C_1  and  C_9
    2  A    between atoms: C_7  and  C_11
    3  A    between atoms: N_8  and  C_9
    4  A    between atoms: N_8  and  C_18
    5  A    between atoms: C_18  and  C_30
                            x       y       z     vdW  Elec       q    Type
                         _______ _______ _______ _____ _____    ______ ____

>  <TORSDO>
F 5

$$$$
=
 OpenBabel11052415393D

 34 38  0  0  1  0  0  0  0  0999 V2000
  187.3330  177.6210  144.2970 C   0  0  0  0  0  0  0  0  0  0  0  0
  183.8340  178.8250  145.1010 C   0  0  0  0  0  2  0  0  0  0  0  0
  182.2130  178.6280  142.0610 C   0  0  0  0  0  0  0  0  0  0  0  0
  185.8080  178.4750  146.5000 N   0  0  0  0  0  0  0  0  0  0  0  0
  189.1960  177.1280  145.9340 C   0  0  0  0  0  3  0  0  0  0  0  0
  188.5560  177.1470  148.2920 C   0  0  0  0  0  3  0  0  0  0  0  0
  182.2840  178.0060  140.9680 O   0  0  0  0  0  0  0  0  0  0  0  0
  189.4560  176.7550  147.1880 C   0  0  0  0  0  3  0  0  0  0  0  0
  187.0340  178.1080  146.7280 C   0  0  0  0  0  0  0  0  0  0  0  0
  188.0300  178.0250  145.5860 C   0  0  2  0  0  3  0  0  0  0  0  0
  187.4350  177.7620  148.0580 N   0  0  0  0  0  0  0  0  0  0  0  0
  183.3280  179.7560  144.0070 C   0  0  0  0  0  2  0  0  0  0  0  0
  180.9380  178.8450  142.6570 N   0  0  0  0  0  1  0  0  0  0  0  0
  183.4050  179.1090  142.7020 N   0  0  0  0  0  0  0  0  0  0  0  0
  184.7140  178.8190  142.1270 C   0  0  0  0  0  2  0  0  0  0  0  0
  185.3570  178.8490  145.1600 C   0  0  1  0  0  3  0  0  0  0  0  0
  185.3200  177.6100  142.8250 C   0  0  0  0  0  2  0  0  0  0  0  0
  186.0430  178.0040  144.0920 C   0  0  0  0  0  0  0  0  0  0  0  0
  188.1150  176.9180  143.2180 C   0  0  0  0  0  2  0  0  0  0  0  0
  189.0030  177.8630  142.5540 N   0  0  0  0  0  2  0  0  0  0  0  0
  188.3360  178.2830  141.3330 C   0  0  0  0  0  2  0  0  0  0  0  0
  189.0550  177.0590  137.8160 C   0  0  0  0  0  3  0  0  0  0  0  0
  190.4370  177.4760  140.2280 C   0  0  0  0  0  3  0  0  0  0  0  0
  192.4980  176.0740  136.8320 C   0  0  0  0  0  0  0  0  0  0  0  0
  191.1170  176.3330  136.7640 C   0  0  0  0  0  3  0  0  0  0  0  0
  190.4290  176.7970  137.8890 C   0  0  0  0  0  0  0  0  0  0  0  0
  192.4980  176.7530  139.1720 C   0  0  0  0  0  3  0  0  0  0  0  0
  191.1260  177.0080  139.1040 C   0  0  0  0  0  0  0  0  0  0  0  0
  193.1790  176.2890  138.0410 C   0  0  0  0  0  3  0  0  0  0  0  0
  189.0610  177.7340  140.1510 C   0  0  0  0  0  0  0  0  0  0  0  0
  188.3740  177.5320  138.9440 C   0  0  0  0  0  3  0  0  0  0  0  0
  193.2250  175.5800  135.6450 C   0  0  0  0  0  0  0  0  0  0  0  0
  192.7740  174.6060  134.9860 O   0  0  0  0  0  0  0  0  0  0  0  0
  194.5040  176.2140  135.2020 C   0  0  0  0  0  1  0  0  0  0  0  0
  1 10  1  0  0  0  0
  3 13  1  0  0  0  0
  3 14  1  0  0  0  0
  4  9  2  0  0  0  0
  5  8  2  0  0  0  0
  7  3  2  0  0  0  0
  8  6  1  0  0  0  0
  9 11  1  0  0  0  0
 10  5  1  1  0  0  0
 10  9  1  0  0  0  0
 11  6  2  0  0  0  0
 12  2  1  0  0  0  0
 14 12  1  0  0  0  0
 15 14  1  0  0  0  0
 15 17  1  0  0  0  0
 16  2  1  1  0  0  0
 16  4  1  0  0  0  0
 17 18  1  0  0  0  0
 18  1  2  0  0  0  0
 18 16  1  0  0  0  0
 19  1  1  0  0  0  0
 20 19  1  0  0  0  0
 21 20  1  0  0  0  0
 22 26  2  0  0  0  0
 22 31  1  0  0  0  0
 24 29  1  0  0  0  0
 25 24  2  0  0  0  0
 25 26  1  0  0  0  0
 26 28  1  0  0  0  0
 28 27  1  0  0  0  0
 28 23  2  0  0  0  0
 29 27  2  0  0  0  0
 30 23  1  0  0  0  0
 30 21  1  0  0  0  0
 31 30  2  0  0  0  0
 32 24  1  0  0  0  0
 33 32  2  0  0  0  0
 34 32  1  0  0  0  0
M  END
>  <MODEL>
6

>  <REMARK>
 VINA RESULT:      -9.5      3.265      8.464
  Name = 
  5 active torsions:
  status: ('A' for Active; 'I' for Inactive)
    1  A    between atoms: C_1  and  C_9
    2  A    between atoms: C_7  and  C_11
    3  A    between atoms: N_8  and  C_9
    4  A    between atoms: N_8  and  C_18
    5  A    between atoms: C_18  and  C_30
                            x       y       z     vdW  Elec       q    Type
                         _______ _______ _______ _____ _____    ______ ____

>  <TORSDO>
F 5

$$$$
=
 OpenBabel11052415393D

 34 38  0  0  1  0  0  0  0  0999 V2000
  181.4370  177.6430  140.0820 C   0  0  0  0  0  0  0  0  0  0  0  0
  179.4120  174.4570  139.7920 C   0  0  0  0  0  2  0  0  0  0  0  0
  180.9910  172.7460  137.2460 C   0  0  0  0  0  0  0  0  0  0  0  0
  179.2530  176.3670  141.3100 N   0  0  0  0  0  0  0  0  0  0  0  0
  181.2410  179.4240  141.8670 C   0  0  0  0  0  3  0  0  0  0  0  0
  179.8000  178.8630  143.7580 C   0  0  0  0  0  3  0  0  0  0  0  0
  182.1190  172.6690  136.6890 O   0  0  0  0  0  0  0  0  0  0  0  0
  180.8890  179.6430  143.1340 C   0  0  0  0  0  3  0  0  0  0  0  0
  179.6330  177.5080  141.8030 C   0  0  0  0  0  0  0  0  0  0  0  0
  180.5080  178.4380  140.9850 C   0  0  2  0  0  3  0  0  0  0  0  0
  179.2390  177.8730  143.1310 N   0  0  0  0  0  0  0  0  0  0  0  0
  179.1800  174.1060  138.3280 C   0  0  0  0  0  2  0  0  0  0  0  0
  180.2640  171.5510  137.5130 N   0  0  0  0  0  1  0  0  0  0  0  0
  180.4470  174.0240  137.6100 N   0  0  0  0  0  0  0  0  0  0  0  0
  181.2270  175.2390  137.4030 C   0  0  0  0  0  2  0  0  0  0  0  0
  179.6200  175.9590  139.9540 C   0  0  1  0  0  3  0  0  0  0  0  0
  181.9220  175.6250  138.7000 C   0  0  0  0  0  2  0  0  0  0  0  0
  181.0200  176.4440  139.5930 C   0  0  0  0  0  0  0  0  0  0  0  0
  182.7440  178.2490  139.6400 C   0  0  0  0  0  2  0  0  0  0  0  0
  183.8310  177.7370  140.4620 N   0  0  0  0  0  2  0  0  0  0  0  0
  184.6530  178.8760  140.8350 C   0  0  0  0  0  2  0  0  0  0  0  0
  184.9730  178.5460  144.5990 C   0  0  0  0  0  3  0  0  0  0  0  0
  186.5730  178.2280  142.3110 C   0  0  0  0  0  3  0  0  0  0  0  0
  188.1700  177.4390  146.1290 C   0  0  0  0  0  0  0  0  0  0  0  0
  186.8370  177.8640  145.9950 C   0  0  0  0  0  3  0  0  0  0  0  0
  186.3030  178.1290  144.7300 C   0  0  0  0  0  0  0  0  0  0  0  0
  188.4340  177.5430  143.7090 C   0  0  0  0  0  3  0  0  0  0  0  0
  187.1100  177.9670  143.5770 C   0  0  0  0  0  0  0  0  0  0  0  0
  188.9610  177.2800  144.9790 C   0  0  0  0  0  3  0  0  0  0  0  0
  185.2420  178.6490  142.1860 C   0  0  0  0  0  0  0  0  0  0  0  0
  184.4420  178.8010  143.3290 C   0  0  0  0  0  3  0  0  0  0  0  0
  188.7360  177.1630  147.4650 C   0  0  0  0  0  0  0  0  0  0  0  0
  189.6300  176.2850  147.6060 O   0  0  0  0  0  0  0  0  0  0  0  0
  188.2680  177.9090  148.6720 C   0  0  0  0  0  1  0  0  0  0  0  0
  1 10  1  0  0  0  0
  3 13  1  0  0  0  0
  3 14  1  0  0  0  0
  4  9  2  0  0  0  0
  5  8  2  0  0  0  0
  7  3  2  0  0  0  0
  8  6  1  0  0  0  0
  9 11  1  0  0  0  0
 10  9  1  0  0  0  0
 10  5  1  1  0  0  0
 11  6  2  0  0  0  0
 12  2  1  0  0  0  0
 14 12  1  0  0  0  0
 15 14  1  0  0  0  0
 15 17  1  0  0  0  0
 16  2  1  1  0  0  0
 16  4  1  0  0  0  0
 17 18  1  0  0  0  0
 18 16  1  0  0  0  0
 18  1  2  0  0  0  0
 19  1  1  0  0  0  0
 19 20  1  0  0  0  0
 20 21  1  0  0  0  0
 21 30  1  0  0  0  0
 22 26  1  0  0  0  0
 23 28  1  0  0  0  0
 24 32  1  0  0  0  0
 25 24  1  0  0  0  0
 26 25  2  0  0  0  0
 27 29  1  0  0  0  0
 28 27  2  0  0  0  0
 28 26  1  0  0  0  0
 29 24  2  0  0  0  0
 30 23  2  0  0  0  0
 30 31  1  0  0  0  0
 31 22  2  0  0  0  0
 32 33  2  0  0  0  0
 32 34  1  0  0  0  0
M  END
>  <MODEL>
7

>  <REMARK>
 VINA RESULT:      -9.4      3.558      5.875
  Name = 
  5 active torsions:
  status: ('A' for Active; 'I' for Inactive)
    1  A    between atoms: C_1  and  C_9
    2  A    between atoms: C_7  and  C_11
    3  A    between atoms: N_8  and  C_9
    4  A    between atoms: N_8  and  C_18
    5  A    between atoms: C_18  and  C_30
                            x       y       z     vdW  Elec       q    Type
                         _______ _______ _______ _____ _____    ______ ____

>  <TORSDO>
F 5

$$$$
=
 OpenBabel11052415393D

 34 38  0  0  1  0  0  0  0  0999 V2000
  189.2390  177.2860  143.9070 C   0  0  0  0  0  0  0  0  0  0  0  0
  186.0230  178.1810  145.6950 C   0  0  0  0  0  2  0  0  0  0  0  0
  183.7590  178.5380  143.1170 C   0  0  0  0  0  0  0  0  0  0  0  0
  188.2580  177.6290  146.5200 N   0  0  0  0  0  0  0  0  0  0  0  0
  191.4180  176.5430  144.9560 C   0  0  0  0  0  3  0  0  0  0  0  0
  191.3240  176.0670  147.3500 C   0  0  0  0  0  3  0  0  0  0  0  0
  183.5760  178.1500  141.9320 O   0  0  0  0  0  0  0  0  0  0  0  0
  191.9480  175.9360  146.0180 C   0  0  0  0  0  3  0  0  0  0  0  0
  189.5000  177.2680  146.3910 C   0  0  0  0  0  0  0  0  0  0  0  0
  190.2120  177.4490  145.0640 C   0  0  2  0  0  3  0  0  0  0  0  0
  190.1860  176.6770  147.5010 N   0  0  0  0  0  0  0  0  0  0  0  0
  185.2940  179.2930  144.9530 C   0  0  0  0  0  2  0  0  0  0  0  0
  182.6520  178.5860  144.0120 N   0  0  0  0  0  1  0  0  0  0  0  0
  185.0700  178.9230  143.5600 N   0  0  0  0  0  0  0  0  0  0  0  0
  186.2130  178.8000  142.6630 C   0  0  0  0  0  2  0  0  0  0  0  0
  187.5210  178.2470  145.4180 C   0  0  1  0  0  3  0  0  0  0  0  0
  186.9470  177.4990  142.9490 C   0  0  0  0  0  2  0  0  0  0  0  0
  187.9410  177.6570  144.0760 C   0  0  0  0  0  0  0  0  0  0  0  0
  189.7510  176.8410  142.5620 C   0  0  0  0  0  2  0  0  0  0  0  0
  190.5050  177.9200  141.9370 N   0  0  0  0  0  2  0  0  0  0  0  0
  191.2370  177.3350  140.8260 C   0  0  0  0  0  2  0  0  0  0  0  0
  189.7070  175.7390  137.7450 C   0  0  0  0  0  3  0  0  0  0  0  0
  189.0940  177.7620  139.5970 C   0  0  0  0  0  3  0  0  0  0  0  0
  186.3870  176.8450  136.5020 C   0  0  0  0  0  0  0  0  0  0  0  0
  187.6010  176.1430  136.6110 C   0  0  0  0  0  3  0  0  0  0  0  0
  188.5020  176.4450  137.6360 C   0  0  0  0  0  0  0  0  0  0  0  0
  186.9870  178.1600  138.4630 C   0  0  0  0  0  3  0  0  0  0  0  0
  188.1920  177.4630  138.5700 C   0  0  0  0  0  0  0  0  0  0  0  0
  186.0890  177.8520  137.4340 C   0  0  0  0  0  3  0  0  0  0  0  0
  190.3000  177.0550  139.7010 C   0  0  0  0  0  0  0  0  0  0  0  0
  190.6010  176.0410  138.7790 C   0  0  0  0  0  3  0  0  0  0  0  0
  185.4360  176.5300  135.4170 C   0  0  0  0  0  0  0  0  0  0  0  0
  185.0950  177.4220  134.5940 O   0  0  0  0  0  0  0  0  0  0  0  0
  184.8560  175.1610  135.2710 C   0  0  0  0  0  1  0  0  0  0  0  0
  1 18  2  0  0  0  0
  1 10  1  0  0  0  0
  3 14  1  0  0  0  0
  3 13  1  0  0  0  0
  5  8  2  0  0  0  0
  6 11  2  0  0  0  0
  7  3  2  0  0  0  0
  8  6  1  0  0  0  0
  9  4  2  0  0  0  0
  9 11  1  0  0  0  0
 10  5  1  6  0  0  0
 10  9  1  0  0  0  0
 12  2  1  0  0  0  0
 14 12  1  0  0  0  0
 15 17  1  0  0  0  0
 15 14  1  0  0  0  0
 16  2  1  1  0  0  0
 16  4  1  0  0  0  0
 17 18  1  0  0  0  0
 18 16  1  0  0  0  0
 19  1  1  0  0  0  0
 20 19  1  0  0  0  0
 21 20  1  0  0  0  0
 22 31  1  0  0  0  0
 23 30  1  0  0  0  0
 24 25  2  0  0  0  0
 24 29  1  0  0  0  0
 25 26  1  0  0  0  0
 26 22  2  0  0  0  0
 26 28  1  0  0  0  0
 27 28  1  0  0  0  0
 28 23  2  0  0  0  0
 29 27  2  0  0  0  0
 30 21  1  0  0  0  0
 31 30  2  0  0  0  0
 32 24  1  0  0  0  0
 33 32  2  0  0  0  0
 34 32  1  0  0  0  0
M  END
>  <MODEL>
8

>  <REMARK>
 VINA RESULT:      -9.4      3.207      9.055
  Name = 
  5 active torsions:
  status: ('A' for Active; 'I' for Inactive)
    1  A    between atoms: C_1  and  C_9
    2  A    between atoms: C_7  and  C_11
    3  A    between atoms: N_8  and  C_9
    4  A    between atoms: N_8  and  C_18
    5  A    between atoms: C_18  and  C_30
                            x       y       z     vdW  Elec       q    Type
                         _______ _______ _______ _____ _____    ______ ____

>  <TORSDO>
F 5

$$$$
=
 OpenBabel11052415393D

 34 38  0  0  1  0  0  0  0  0999 V2000
  185.2330  177.8600  137.8470 C   0  0  0  0  0  0  0  0  0  0  0  0
  188.2760  175.9060  136.7240 C   0  0  0  0  0  2  0  0  0  0  0  0
  190.7750  177.0780  138.7940 C   0  0  0  0  0  0  0  0  0  0  0  0
  185.9360  175.8450  136.0160 N   0  0  0  0  0  0  0  0  0  0  0  0
  182.8350  177.5060  137.1260 C   0  0  0  0  0  3  0  0  0  0  0  0
  182.4210  175.4950  135.8010 C   0  0  0  0  0  3  0  0  0  0  0  0
  190.9200  177.6130  139.9260 O   0  0  0  0  0  0  0  0  0  0  0  0
  181.9700  176.5950  136.6770 C   0  0  0  0  0  3  0  0  0  0  0  0
  184.6860  176.1930  136.0690 C   0  0  0  0  0  0  0  0  0  0  0  0
  184.2880  177.5110  136.7080 C   0  0  2  0  0  3  0  0  0  0  0  0
  183.6820  175.3190  135.5410 N   0  0  0  0  0  0  0  0  0  0  0  0
  189.4950  176.8160  136.6510 C   0  0  0  0  0  2  0  0  0  0  0  0
  191.6770  176.0530  138.3890 N   0  0  0  0  0  1  0  0  0  0  0  0
  189.7100  177.4940  137.9250 N   0  0  0  0  0  0  0  0  0  0  0  0
  188.7440  178.4900  138.3740 C   0  0  0  0  0  2  0  0  0  0  0  0
  186.9960  176.7120  136.5310 C   0  0  1  0  0  3  0  0  0  0  0  0
  187.4960  177.7910  138.8920 C   0  0  0  0  0  2  0  0  0  0  0  0
  186.5340  177.4670  137.7730 C   0  0  0  0  0  0  0  0  0  0  0  0
  184.7500  178.7400  138.9700 C   0  0  0  0  0  2  0  0  0  0  0  0
  184.2460  177.9180  140.0620 N   0  0  0  0  0  2  0  0  0  0  0  0
  183.6840  178.8250  141.0500 C   0  0  0  0  0  2  0  0  0  0  0  0
  184.3800  178.7360  144.7770 C   0  0  0  0  0  3  0  0  0  0  0  0
  185.7150  178.1770  142.3680 C   0  0  0  0  0  3  0  0  0  0  0  0
  187.6650  177.5650  146.0520 C   0  0  0  0  0  0  0  0  0  0  0  0
  186.3450  178.0510  146.0230 C   0  0  0  0  0  3  0  0  0  0  0  0
  185.6960  178.2570  144.8020 C   0  0  0  0  0  0  0  0  0  0  0  0
  187.6780  177.4890  143.6170 C   0  0  0  0  0  3  0  0  0  0  0  0
  186.3690  177.9740  143.5880 C   0  0  0  0  0  0  0  0  0  0  0  0
  188.3220  177.2860  144.8430 C   0  0  0  0  0  3  0  0  0  0  0  0
  184.3990  178.6590  142.3470 C   0  0  0  0  0  0  0  0  0  0  0  0
  183.7320  178.9310  143.5510 C   0  0  0  0  0  3  0  0  0  0  0  0
  188.3540  177.3510  147.3410 C   0  0  0  0  0  0  0  0  0  0  0  0
  187.7810  177.6510  148.4230 O   0  0  0  0  0  0  0  0  0  0  0  0
  189.7340  176.7820  147.3940 C   0  0  0  0  0  1  0  0  0  0  0  0
  1 19  1  0  0  0  0
  3  7  2  0  0  0  0
  4  9  2  0  0  0  0
  4 16  1  0  0  0  0
  6  8  1  0  0  0  0
  8  5  2  0  0  0  0
  9 10  1  0  0  0  0
 10  5  1  1  0  0  0
 10  1  1  0  0  0  0
 11  6  2  0  0  0  0
 11  9  1  0  0  0  0
 12  2  1  0  0  0  0
 12 14  1  0  0  0  0
 13  3  1  0  0  0  0
 14 15  1  0  0  0  0
 14  3  1  0  0  0  0
 15 17  1  0  0  0  0
 16  2  1  1  0  0  0
 16 18  1  0  0  0  0
 18  1  2  0  0  0  0
 18 17  1  0  0  0  0
 19 20  1  0  0  0  0
 20 21  1  0  0  0  0
 21 30  1  0  0  0  0
 22 26  1  0  0  0  0
 23 28  1  0  0  0  0
 24 32  1  0  0  0  0
 25 24  1  0  0  0  0
 26 25  2  0  0  0  0
 27 29  1  0  0  0  0
 28 27  2  0  0  0  0
 28 26  1  0  0  0  0
 29 24  2  0  0  0  0
 30 23  2  0  0  0  0
 30 31  1  0  0  0  0
 31 22  2  0  0  0  0
 32 34  1  0  0  0  0
 32 33  2  0  0  0  0
M  END
>  <MODEL>
9

>  <REMARK>
 VINA RESULT:      -9.4      1.850      2.770
  Name = 
  5 active torsions:
  status: ('A' for Active; 'I' for Inactive)
    1  A    between atoms: C_1  and  C_9
    2  A    between atoms: C_7  and  C_11
    3  A    between atoms: N_8  and  C_9
    4  A    between atoms: N_8  and  C_18
    5  A    between atoms: C_18  and  C_30
                            x       y       z     vdW  Elec       q    Type
                         _______ _______ _______ _____ _____    ______ ____

>  <TORSDO>
F 5

$$$$
