=
 OpenBabel11052413253D

 28 31  0  0  1  0  0  0  0  0999 V2000
  188.1900  177.8640  144.5120 C   0  0  2  0  0  3  0  0  0  0  0  0
  184.0310  178.6170  143.4860 C   0  0  0  0  0  1  0  0  0  0  0  0
  188.3810  177.9890  140.6530 C   0  0  1  0  0  3  0  0  0  0  0  0
  186.4100  178.1310  142.7430 C   0  0  0  0  0  0  0  0  0  0  0  0
  188.8640  178.1390  142.0910 C   0  0  0  0  0  2  0  0  0  0  0  0
  185.7890  178.1450  145.1630 C   0  0  0  0  0  2  0  0  0  0  0  0
  186.1160  178.6210  141.5210 C   0  0  0  0  0  3  0  0  0  0  0  0
  185.3110  177.8350  143.7460 C   0  0  1  0  0  3  0  0  0  0  0  0
  187.1660  178.9000  140.4800 C   0  0  0  0  0  2  0  0  0  0  0  0
  187.0890  177.4110  145.4710 C   0  0  0  0  0  2  0  0  0  0  0  0
  187.8020  177.5950  143.0490 C   0  0  1  0  0  3  0  0  0  0  0  0
  188.9640  178.7850  138.2820 C   0  0  0  0  0  2  0  0  0  0  0  0
  190.4840  176.3230  138.3110 C   0  0  0  0  0  2  0  0  0  0  0  0
  188.0670  176.5060  137.5450 C   0  0  0  0  0  0  0  0  0  0  0  0
  189.4950  178.3440  139.6540 C   0  0  2  0  0  3  0  0  0  0  0  0
  191.3690  177.0830  140.3480 O   0  0  0  0  0  0  0  0  0  0  0  0
  189.1230  175.6570  138.2080 C   0  0  0  0  0  2  0  0  0  0  0  0
  190.5050  177.2340  139.5000 C   0  0  0  0  0  0  0  0  0  0  0  0
  186.9710  175.7890  136.8400 C   0  0  0  0  0  1  0  0  0  0  0  0
  187.9700  177.8450  137.6450 C   0  0  0  0  0  3  0  0  0  0  0  0
  189.5000  177.2180  144.8760 C   0  0  0  0  0  0  0  0  0  0  0  0
  190.2330  176.5220  143.9010 C   0  0  0  0  0  3  0  0  0  0  0  0
  191.2460  176.7270  146.5000 C   0  0  0  0  0  0  0  0  0  0  0  0
  191.4570  175.9320  144.2210 C   0  0  0  0  0  3  0  0  0  0  0  0
  189.2600  178.0620  147.2450 C   0  0  0  0  0  1  0  0  0  0  0  0
  190.0130  177.3220  146.1860 C   0  0  0  0  0  0  0  0  0  0  0  0
  191.7700  176.8180  147.7850 O   0  0  0  0  0  1  0  0  0  0  0  0
  191.9620  176.0360  145.5180 C   0  0  0  0  0  3  0  0  0  0  0  0
  1 21  1  1  0  0  0
  1 10  1  0  0  0  0
  3  9  1  1  0  0  0
  3  5  1  0  0  0  0
  4 11  1  0  0  0  0
  4  8  1  0  0  0  0
  6 10  1  0  0  0  0
  7  4  2  0  0  0  0
  8  2  1  6  0  0  0
  8  6  1  0  0  0  0
  9  7  1  0  0  0  0
 11  5  1  6  0  0  0
 11  1  1  0  0  0  0
 13 18  1  0  0  0  0
 14 20  2  0  0  0  0
 14 17  1  0  0  0  0
 15 12  1  6  0  0  0
 15  3  1  0  0  0  0
 17 13  1  0  0  0  0
 18 15  1  0  0  0  0
 18 16  2  0  0  0  0
 19 14  1  0  0  0  0
 20 12  1  0  0  0  0
 21 26  1  0  0  0  0
 22 24  1  0  0  0  0
 22 21  2  0  0  0  0
 23 27  1  0  0  0  0
 24 28  2  0  0  0  0
 26 23  2  0  0  0  0
 26 25  1  0  0  0  0
 28 23  1  0  0  0  0
M  END
>  <MODEL>
1

>  <REMARK>
 VINA RESULT:     -10.2      0.000      0.000
  Name = 
  2 active torsions:
  status: ('A' for Active; 'I' for Inactive)
    1  A    between atoms: C_1  and  C_2
    2  A    between atoms: C_10  and  C_13
                            x       y       z     vdW  Elec       q    Type
                         _______ _______ _______ _____ _____    ______ ____

>  <TORSDO>
F 2

$$$$
=
 OpenBabel11052413253D

 28 31  0  0  1  0  0  0  0  0999 V2000
  188.3840  177.9930  142.8340 C   0  0  2  0  0  3  0  0  0  0  0  0
  185.7890  177.8930  146.3230 C   0  0  0  0  0  1  0  0  0  0  0  0
  184.9200  178.5490  141.2090 C   0  0  1  0  0  3  0  0  0  0  0  0
  186.0530  178.0310  143.8010 C   0  0  0  0  0  0  0  0  0  0  0  0
  186.4330  178.6560  141.3690 C   0  0  0  0  0  2  0  0  0  0  0  0
  188.0250  177.6610  145.2880 C   0  0  0  0  0  2  0  0  0  0  0  0
  184.8170  178.5650  143.7130 C   0  0  0  0  0  3  0  0  0  0  0  0
  186.5340  177.3960  145.0920 C   0  0  1  0  0  3  0  0  0  0  0  0
  184.2810  179.1760  142.4460 C   0  0  0  0  0  2  0  0  0  0  0  0
  188.8220  177.2090  144.0710 C   0  0  0  0  0  2  0  0  0  0  0  0
  186.8860  177.7930  142.5490 C   0  0  1  0  0  3  0  0  0  0  0  0
  182.9220  179.3820  139.8260 C   0  0  0  0  0  2  0  0  0  0  0  0
  184.1560  177.6770  137.8410 C   0  0  0  0  0  2  0  0  0  0  0  0
  182.4030  176.8980  139.5090 C   0  0  0  0  0  0  0  0  0  0  0  0
  184.4490  179.2440  139.9200 C   0  0  2  0  0  3  0  0  0  0  0  0
  186.1480  178.8170  138.3340 O   0  0  0  0  0  0  0  0  0  0  0  0
  183.6270  176.5430  138.7030 C   0  0  0  0  0  2  0  0  0  0  0  0
  185.0000  178.5890  138.6780 C   0  0  0  0  0  0  0  0  0  0  0  0
  181.4730  175.7860  139.8470 C   0  0  0  0  0  1  0  0  0  0  0  0
  182.1470  178.1060  140.0470 C   0  0  0  0  0  3  0  0  0  0  0  0
  189.2370  177.6240  141.6490 C   0  0  0  0  0  0  0  0  0  0  0  0
  188.6310  177.2200  140.4480 C   0  0  0  0  0  3  0  0  0  0  0  0
  191.4200  177.3660  140.6030 C   0  0  0  0  0  0  0  0  0  0  0  0
  189.4100  176.8910  139.3380 C   0  0  0  0  0  3  0  0  0  0  0  0
  191.3180  178.1310  142.9890 C   0  0  0  0  0  1  0  0  0  0  0  0
  190.6430  177.6980  141.7260 C   0  0  0  0  0  0  0  0  0  0  0  0
  192.8080  177.4340  140.6580 O   0  0  0  0  0  1  0  0  0  0  0  0
  190.8020  176.9650  139.4160 C   0  0  0  0  0  3  0  0  0  0  0  0
  1 21  1  6  0  0  0
  1 10  1  0  0  0  0
  3  5  1  1  0  0  0
  3  9  1  0  0  0  0
  4  8  1  0  0  0  0
  7  4  2  0  0  0  0
  8  6  1  0  0  0  0
  8  2  1  1  0  0  0
  9  7  1  0  0  0  0
 10  6  1  0  0  0  0
 11  5  1  6  0  0  0
 11  1  1  0  0  0  0
 11  4  1  0  0  0  0
 12 20  1  0  0  0  0
 13 18  1  0  0  0  0
 13 17  1  0  0  0  0
 14 19  1  0  0  0  0
 14 20  2  0  0  0  0
 15 12  1  6  0  0  0
 15  3  1  0  0  0  0
 16 18  2  0  0  0  0
 17 14  1  0  0  0  0
 18 15  1  0  0  0  0
 21 26  1  0  0  0  0
 22 21  2  0  0  0  0
 23 27  1  0  0  0  0
 23 26  2  0  0  0  0
 24 28  2  0  0  0  0
 24 22  1  0  0  0  0
 26 25  1  0  0  0  0
 28 23  1  0  0  0  0
M  END
>  <MODEL>
2

>  <REMARK>
 VINA RESULT:      -9.6      2.520      4.683
  Name = 
  2 active torsions:
  status: ('A' for Active; 'I' for Inactive)
    1  A    between atoms: C_1  and  C_2
    2  A    between atoms: C_10  and  C_13
                            x       y       z     vdW  Elec       q    Type
                         _______ _______ _______ _____ _____    ______ ____

>  <TORSDO>
F 2

$$$$
=
 OpenBabel11052413253D

 28 31  0  0  1  0  0  0  0  0999 V2000
  184.1920  178.3710  142.8950 C   0  0  2  0  0  3  0  0  0  0  0  0
  184.9800  178.5380  147.1700 C   0  0  0  0  0  1  0  0  0  0  0  0
  187.9500  177.4710  143.0000 C   0  0  1  0  0  3  0  0  0  0  0  0
  185.8430  178.2430  144.8000 C   0  0  0  0  0  0  0  0  0  0  0  0
  186.5190  177.4770  142.4740 C   0  0  0  0  0  2  0  0  0  0  0  0
  183.4610  178.8490  145.2410 C   0  0  0  0  0  2  0  0  0  0  0  0
  186.9370  177.6220  145.2880 C   0  0  0  0  0  3  0  0  0  0  0  0
  184.9030  178.9970  145.7200 C   0  0  1  0  0  3  0  0  0  0  0  0
  187.9180  176.8890  144.4120 C   0  0  0  0  0  2  0  0  0  0  0  0
  183.3270  179.2670  143.7820 C   0  0  0  0  0  2  0  0  0  0  0  0
  185.6730  178.4490  143.3010 C   0  0  1  0  0  3  0  0  0  0  0  0
  189.6490  175.5540  142.8150 C   0  0  0  0  0  2  0  0  0  0  0  0
  191.2540  177.6810  141.6880 C   0  0  0  0  0  2  0  0  0  0  0  0
  191.1850  177.0940  144.1610 C   0  0  0  0  0  0  0  0  0  0  0  0
  188.8750  176.6570  142.0780 C   0  0  2  0  0  3  0  0  0  0  0  0
  189.4120  178.1170  140.3000 O   0  0  0  0  0  0  0  0  0  0  0  0
  191.3350  178.1770  143.1220 C   0  0  0  0  0  2  0  0  0  0  0  0
  189.8180  177.5320  141.2910 C   0  0  0  0  0  0  0  0  0  0  0  0
  191.8540  177.3190  145.4710 C   0  0  0  0  0  1  0  0  0  0  0  0
  190.3990  176.0060  144.0440 C   0  0  0  0  0  3  0  0  0  0  0  0
  183.9860  178.7140  141.4440 C   0  0  0  0  0  0  0  0  0  0  0  0
  185.0820  179.0870  140.6500 C   0  0  0  0  0  3  0  0  0  0  0  0
  182.5340  178.9530  139.5050 C   0  0  0  0  0  0  0  0  0  0  0  0
  184.9070  179.3910  139.2990 C   0  0  0  0  0  3  0  0  0  0  0  0
  181.5140  178.2470  141.6830 C   0  0  0  0  0  1  0  0  0  0  0  0
  182.7010  178.6460  140.8650 C   0  0  0  0  0  0  0  0  0  0  0  0
  181.2760  178.8910  138.9150 O   0  0  0  0  0  1  0  0  0  0  0  0
  183.6350  179.3230  138.7280 C   0  0  0  0  0  3  0  0  0  0  0  0
  1 21  1  6  0  0  0
  1 11  1  0  0  0  0
  1 10  1  0  0  0  0
  3  5  1  6  0  0  0
  3  9  1  0  0  0  0
  4  7  2  0  0  0  0
  4  8  1  0  0  0  0
  6  8  1  0  0  0  0
  8  2  1  1  0  0  0
  9  7  1  0  0  0  0
 10  6  1  0  0  0  0
 11  5  1  6  0  0  0
 11  4  1  0  0  0  0
 12 20  1  0  0  0  0
 13 17  1  0  0  0  0
 14 19  1  0  0  0  0
 15 12  1  1  0  0  0
 15  3  1  0  0  0  0
 16 18  2  0  0  0  0
 17 14  1  0  0  0  0
 18 13  1  0  0  0  0
 18 15  1  0  0  0  0
 20 14  2  0  0  0  0
 22 21  2  0  0  0  0
 23 26  2  0  0  0  0
 24 22  1  0  0  0  0
 26 21  1  0  0  0  0
 26 25  1  0  0  0  0
 27 23  1  0  0  0  0
 28 24  2  0  0  0  0
 28 23  1  0  0  0  0
M  END
>  <MODEL>
3

>  <REMARK>
 VINA RESULT:      -9.1      2.732      6.593
  Name = 
  2 active torsions:
  status: ('A' for Active; 'I' for Inactive)
    1  A    between atoms: C_1  and  C_2
    2  A    between atoms: C_10  and  C_13
                            x       y       z     vdW  Elec       q    Type
                         _______ _______ _______ _____ _____    ______ ____

>  <TORSDO>
F 2

$$$$
=
 OpenBabel11052413253D

 28 31  0  0  1  0  0  0  0  0999 V2000
  185.9140  178.5150  143.8930 C   0  0  2  0  0  3  0  0  0  0  0  0
  182.4620  178.8400  141.2670 C   0  0  0  0  0  1  0  0  0  0  0  0
  187.5630  178.0550  140.4270 C   0  0  1  0  0  3  0  0  0  0  0  0
  184.9440  178.3940  141.5660 C   0  0  0  0  0  0  0  0  0  0  0  0
  187.4620  178.4540  141.8950 C   0  0  0  0  0  2  0  0  0  0  0  0
  183.4470  178.7430  143.5350 C   0  0  0  0  0  2  0  0  0  0  0  0
  185.1390  178.6710  140.2600 C   0  0  0  0  0  3  0  0  0  0  0  0
  183.5450  178.1880  142.1160 C   0  0  1  0  0  3  0  0  0  0  0  0
  186.5080  178.8500  139.6600 C   0  0  0  0  0  2  0  0  0  0  0  0
  184.5290  178.1470  144.4270 C   0  0  0  0  0  2  0  0  0  0  0  0
  186.1130  177.9990  142.4580 C   0  0  1  0  0  3  0  0  0  0  0  0
  188.9740  178.9560  138.4800 C   0  0  0  0  0  2  0  0  0  0  0  0
  190.1010  176.2970  138.6520 C   0  0  0  0  0  2  0  0  0  0  0  0
  188.1020  176.9150  137.2080 C   0  0  0  0  0  0  0  0  0  0  0  0
  188.9750  178.3200  139.8780 C   0  0  2  0  0  3  0  0  0  0  0  0
  190.3600  176.7300  140.9440 O   0  0  0  0  0  0  0  0  0  0  0  0
  188.7790  175.8590  138.0460 C   0  0  0  0  0  2  0  0  0  0  0  0
  189.8420  177.0860  139.8980 C   0  0  0  0  0  0  0  0  0  0  0  0
  187.2180  176.4400  136.1100 C   0  0  0  0  0  1  0  0  0  0  0  0
  188.1360  178.2400  137.4490 C   0  0  0  0  0  3  0  0  0  0  0  0
  186.9850  178.0150  144.8260 C   0  0  0  0  0  0  0  0  0  0  0  0
  188.0860  177.3090  144.3140 C   0  0  0  0  0  3  0  0  0  0  0  0
  187.9260  177.8080  147.0610 C   0  0  0  0  0  0  0  0  0  0  0  0
  189.0940  176.8550  145.1660 C   0  0  0  0  0  3  0  0  0  0  0  0
  185.7500  179.0220  146.7860 C   0  0  0  0  0  1  0  0  0  0  0  0
  186.9060  178.2670  146.2110 C   0  0  0  0  0  0  0  0  0  0  0  0
  187.8670  178.0460  148.4300 O   0  0  0  0  0  1  0  0  0  0  0  0
  189.0130  177.1050  146.5370 C   0  0  0  0  0  3  0  0  0  0  0  0
  1 10  1  0  0  0  0
  1 21  1  1  0  0  0
  3  9  1  6  0  0  0
  3  5  1  0  0  0  0
  4  8  1  0  0  0  0
  4 11  1  0  0  0  0
  6 10  1  0  0  0  0
  7  4  2  0  0  0  0
  8  2  1  6  0  0  0
  8  6  1  0  0  0  0
  9  7  1  0  0  0  0
 11  5  1  6  0  0  0
 11  1  1  0  0  0  0
 13 18  1  0  0  0  0
 14 20  2  0  0  0  0
 14 17  1  0  0  0  0
 15 12  1  6  0  0  0
 15 18  1  0  0  0  0
 15  3  1  0  0  0  0
 17 13  1  0  0  0  0
 18 16  2  0  0  0  0
 19 14  1  0  0  0  0
 20 12  1  0  0  0  0
 21 26  1  0  0  0  0
 22 21  2  0  0  0  0
 22 24  1  0  0  0  0
 23 27  1  0  0  0  0
 24 28  2  0  0  0  0
 26 25  1  0  0  0  0
 26 23  2  0  0  0  0
 28 23  1  0  0  0  0
M  END
>  <MODEL>
4

>  <REMARK>
 VINA RESULT:      -8.8      1.464      2.221
  Name = 
  2 active torsions:
  status: ('A' for Active; 'I' for Inactive)
    1  A    between atoms: C_1  and  C_2
    2  A    between atoms: C_10  and  C_13
                            x       y       z     vdW  Elec       q    Type
                         _______ _______ _______ _____ _____    ______ ____

>  <TORSDO>
F 2

$$$$
=
 OpenBabel11052413253D

 28 31  0  0  1  0  0  0  0  0999 V2000
  185.9980  178.1650  141.1030 C   0  0  2  0  0  3  0  0  0  0  0  0
  183.1750  179.0660  144.2870 C   0  0  0  0  0  1  0  0  0  0  0  0
  188.1070  177.3290  144.2330 C   0  0  1  0  0  3  0  0  0  0  0  0
  185.5120  178.3780  143.5700 C   0  0  0  0  0  0  0  0  0  0  0  0
  187.6390  177.2320  142.7850 C   0  0  0  0  0  2  0  0  0  0  0  0
  183.7850  179.0300  141.8890 C   0  0  0  0  0  2  0  0  0  0  0  0
  185.7240  177.8590  144.7980 C   0  0  0  0  0  3  0  0  0  0  0  0
  184.3160  179.2700  143.3000 C   0  0  1  0  0  3  0  0  0  0  0  0
  186.9120  176.9970  145.1260 C   0  0  0  0  0  2  0  0  0  0  0  0
  184.8930  179.1910  140.8550 C   0  0  0  0  0  2  0  0  0  0  0  0
  186.6020  178.3240  142.5080 C   0  0  1  0  0  3  0  0  0  0  0  0
  190.2420  176.8820  145.5900 C   0  0  0  0  0  2  0  0  0  0  0  0
  191.3610  176.6970  142.9290 C   0  0  0  0  0  2  0  0  0  0  0  0
  191.2130  178.8490  144.2740 C   0  0  0  0  0  0  0  0  0  0  0  0
  189.2870  176.3780  144.4980 C   0  0  2  0  0  3  0  0  0  0  0  0
  189.6040  175.2100  142.4680 O   0  0  0  0  0  0  0  0  0  0  0  0
  191.1820  178.2050  142.9100 C   0  0  0  0  0  2  0  0  0  0  0  0
  190.0500  176.0430  143.2400 C   0  0  0  0  0  0  0  0  0  0  0  0
  191.6800  180.2600  144.3440 C   0  0  0  0  0  1  0  0  0  0  0  0
  190.7390  178.2960  145.4070 C   0  0  0  0  0  3  0  0  0  0  0  0
  187.0460  178.2530  140.0260 C   0  0  0  0  0  0  0  0  0  0  0  0
  188.3950  178.4300  140.3740 C   0  0  0  0  0  3  0  0  0  0  0  0
  187.6860  178.2050  137.6770 C   0  0  0  0  0  0  0  0  0  0  0  0
  189.3790  178.4970  139.3850 C   0  0  0  0  0  3  0  0  0  0  0  0
  185.2630  177.9420  138.2640 C   0  0  0  0  0  1  0  0  0  0  0  0
  186.6900  178.1380  138.6660 C   0  0  0  0  0  0  0  0  0  0  0  0
  187.3550  178.0930  136.3310 O   0  0  0  0  0  1  0  0  0  0  0  0
  189.0230  178.3840  138.0400 C   0  0  0  0  0  3  0  0  0  0  0  0
  1 21  1  6  0  0  0
  1 11  1  0  0  0  0
  3  5  1  6  0  0  0
  3 15  1  0  0  0  0
  3  9  1  0  0  0  0
  4  7  2  0  0  0  0
  6  8  1  0  0  0  0
  7  9  1  0  0  0  0
  8  4  1  0  0  0  0
  8  2  1  1  0  0  0
 10  1  1  0  0  0  0
 10  6  1  0  0  0  0
 11  5  1  1  0  0  0
 11  4  1  0  0  0  0
 13 18  1  0  0  0  0
 14 19  1  0  0  0  0
 14 20  2  0  0  0  0
 15 12  1  1  0  0  0
 16 18  2  0  0  0  0
 17 13  1  0  0  0  0
 17 14  1  0  0  0  0
 18 15  1  0  0  0  0
 20 12  1  0  0  0  0
 21 22  1  0  0  0  0
 23 28  2  0  0  0  0
 23 26  1  0  0  0  0
 24 22  2  0  0  0  0
 25 26  1  0  0  0  0
 26 21  2  0  0  0  0
 27 23  1  0  0  0  0
 28 24  1  0  0  0  0
M  END
>  <MODEL>
5

>  <REMARK>
 VINA RESULT:      -8.4      1.861      6.217
  Name = 
  2 active torsions:
  status: ('A' for Active; 'I' for Inactive)
    1  A    between atoms: C_1  and  C_2
    2  A    between atoms: C_10  and  C_13
                            x       y       z     vdW  Elec       q    Type
                         _______ _______ _______ _____ _____    ______ ____

>  <TORSDO>
F 2

$$$$
=
 OpenBabel11052413253D

 28 31  0  0  1  0  0  0  0  0999 V2000
  184.6990  178.6540  141.9110 C   0  0  2  0  0  3  0  0  0  0  0  0
  182.2470  178.3570  138.3310 C   0  0  0  0  0  1  0  0  0  0  0  0
  187.3980  178.1180  139.1970 C   0  0  1  0  0  3  0  0  0  0  0  0
  184.5340  178.2340  139.4280 C   0  0  0  0  0  0  0  0  0  0  0  0
  186.8010  178.6180  140.5070 C   0  0  0  0  0  2  0  0  0  0  0  0
  182.4640  178.5580  140.7880 C   0  0  0  0  0  2  0  0  0  0  0  0
  185.1100  178.4280  138.2230 C   0  0  0  0  0  3  0  0  0  0  0  0
  183.0570  177.9080  139.5390 C   0  0  1  0  0  3  0  0  0  0  0  0
  186.5770  178.7200  138.0580 C   0  0  0  0  0  2  0  0  0  0  0  0
  183.2540  178.1680  142.0310 C   0  0  0  0  0  2  0  0  0  0  0  0
  185.3880  178.0530  140.6750 C   0  0  1  0  0  3  0  0  0  0  0  0
  189.3100  178.8640  137.6510 C   0  0  0  0  0  2  0  0  0  0  0  0
  190.5440  176.5020  138.7770 C   0  0  0  0  0  2  0  0  0  0  0  0
  189.1240  176.5100  136.6690 C   0  0  0  0  0  0  0  0  0  0  0  0
  188.8830  178.5050  139.0820 C   0  0  2  0  0  3  0  0  0  0  0  0
  189.9500  177.3850  140.8690 O   0  0  0  0  0  0  0  0  0  0  0  0
  189.5600  175.7510  137.8960 C   0  0  0  0  0  2  0  0  0  0  0  0
  189.7980  177.4530  139.6600 C   0  0  0  0  0  0  0  0  0  0  0  0
  188.7220  175.7030  135.4840 C   0  0  0  0  0  1  0  0  0  0  0  0
  188.9510  177.8440  136.5990 C   0  0  0  0  0  3  0  0  0  0  0  0
  185.4570  178.3600  143.1790 C   0  0  0  0  0  0  0  0  0  0  0  0
  186.5680  177.5010  143.1470 C   0  0  0  0  0  3  0  0  0  0  0  0
  185.8080  178.6840  145.5650 C   0  0  0  0  0  0  0  0  0  0  0  0
  187.2890  177.2340  144.3120 C   0  0  0  0  0  3  0  0  0  0  0  0
  183.9010  179.8810  144.4630 C   0  0  0  0  0  1  0  0  0  0  0  0
  185.0760  178.9570  144.3980 C   0  0  0  0  0  0  0  0  0  0  0  0
  185.4490  179.2620  146.7780 O   0  0  0  0  0  1  0  0  0  0  0  0
  186.9090  177.8250  145.5180 C   0  0  0  0  0  3  0  0  0  0  0  0
  1 10  1  0  0  0  0
  1 21  1  1  0  0  0
  3  9  1  6  0  0  0
  3  5  1  0  0  0  0
  4  8  1  0  0  0  0
  4 11  1  0  0  0  0
  6 10  1  0  0  0  0
  7  4  2  0  0  0  0
  8  2  1  6  0  0  0
  8  6  1  0  0  0  0
  9  7  1  0  0  0  0
 11  5  1  6  0  0  0
 11  1  1  0  0  0  0
 13 18  1  0  0  0  0
 14 17  1  0  0  0  0
 15 12  1  6  0  0  0
 15  3  1  0  0  0  0
 15 18  1  0  0  0  0
 17 13  1  0  0  0  0
 18 16  2  0  0  0  0
 19 14  1  0  0  0  0
 20 14  2  0  0  0  0
 20 12  1  0  0  0  0
 21 26  1  0  0  0  0
 22 21  2  0  0  0  0
 22 24  1  0  0  0  0
 23 27  1  0  0  0  0
 24 28  2  0  0  0  0
 26 25  1  0  0  0  0
 26 23  2  0  0  0  0
 28 23  1  0  0  0  0
M  END
>  <MODEL>
6

>  <REMARK>
 VINA RESULT:      -8.3      2.511      3.929
  Name = 
  2 active torsions:
  status: ('A' for Active; 'I' for Inactive)
    1  A    between atoms: C_1  and  C_2
    2  A    between atoms: C_10  and  C_13
                            x       y       z     vdW  Elec       q    Type
                         _______ _______ _______ _____ _____    ______ ____

>  <TORSDO>
F 2

$$$$
=
 OpenBabel11052413253D

 28 31  0  0  1  0  0  0  0  0999 V2000
  186.3810  178.0390  141.5960 C   0  0  2  0  0  3  0  0  0  0  0  0
  187.9190  178.1010  137.5280 C   0  0  0  0  0  1  0  0  0  0  0  0
  183.1100  178.3710  139.5630 C   0  0  1  0  0  3  0  0  0  0  0  0
  185.9510  178.2870  139.1210 C   0  0  0  0  0  0  0  0  0  0  0  0
  184.0080  177.9660  140.7260 C   0  0  0  0  0  2  0  0  0  0  0  0
  188.2880  178.0700  139.9750 C   0  0  0  0  0  2  0  0  0  0  0  0
  185.1130  178.0080  138.1010 C   0  0  0  0  0  3  0  0  0  0  0  0
  187.4050  178.6280  138.8610 C   0  0  1  0  0  3  0  0  0  0  0  0
  183.6550  177.6970  138.3040 C   0  0  0  0  0  2  0  0  0  0  0  0
  187.8030  178.5400  141.3400 C   0  0  0  0  0  2  0  0  0  0  0  0
  185.4080  178.5490  140.5200 C   0  0  1  0  0  3  0  0  0  0  0  0
  180.8000  177.8870  138.5480 C   0  0  0  0  0  2  0  0  0  0  0  0
  180.0350  179.9400  140.4380 C   0  0  0  0  0  2  0  0  0  0  0  0
  180.7540  180.3940  138.0420 C   0  0  0  0  0  0  0  0  0  0  0  0
  181.6480  177.9690  139.8260 C   0  0  2  0  0  3  0  0  0  0  0  0
  181.2030  178.6790  142.0360 O   0  0  0  0  0  0  0  0  0  0  0  0
  180.7310  180.8810  139.4690 C   0  0  0  0  0  2  0  0  0  0  0  0
  180.9830  178.8560  140.8490 C   0  0  0  0  0  0  0  0  0  0  0  0
  180.8050  181.4310  136.9760 C   0  0  0  0  0  1  0  0  0  0  0  0
  180.8570  179.1070  137.6610 C   0  0  0  0  0  3  0  0  0  0  0  0
  185.9340  178.4150  142.9840 C   0  0  0  0  0  0  0  0  0  0  0  0
  184.9300  179.3810  143.1580 C   0  0  0  0  0  3  0  0  0  0  0  0
  186.0560  178.1430  145.3990 C   0  0  0  0  0  0  0  0  0  0  0  0
  184.4950  179.7270  144.4390 C   0  0  0  0  0  3  0  0  0  0  0  0
  187.5670  176.7530  143.9610 C   0  0  0  0  0  1  0  0  0  0  0  0
  186.5000  177.7900  144.1140 C   0  0  0  0  0  0  0  0  0  0  0  0
  186.6010  177.5380  146.5270 O   0  0  0  0  0  1  0  0  0  0  0  0
  185.0580  179.1080  145.5570 C   0  0  0  0  0  3  0  0  0  0  0  0
  1 21  1  1  0  0  0
  3  9  1  6  0  0  0
  3 15  1  0  0  0  0
  3  5  1  0  0  0  0
  4 11  1  0  0  0  0
  6 10  1  0  0  0  0
  7  9  1  0  0  0  0
  7  4  2  0  0  0  0
  8  2  1  6  0  0  0
  8  4  1  0  0  0  0
  8  6  1  0  0  0  0
 10  1  1  0  0  0  0
 11  5  1  6  0  0  0
 11  1  1  0  0  0  0
 13 18  1  0  0  0  0
 14 17  1  0  0  0  0
 15 12  1  6  0  0  0
 15 18  1  0  0  0  0
 17 13  1  0  0  0  0
 18 16  2  0  0  0  0
 19 14  1  0  0  0  0
 20 14  2  0  0  0  0
 20 12  1  0  0  0  0
 21 22  2  0  0  0  0
 21 26  1  0  0  0  0
 22 24  1  0  0  0  0
 23 28  1  0  0  0  0
 23 27  1  0  0  0  0
 24 28  2  0  0  0  0
 25 26  1  0  0  0  0
 26 23  2  0  0  0  0
M  END
>  <MODEL>
7

>  <REMARK>
 VINA RESULT:      -8.2      4.112      6.740
  Name = 
  2 active torsions:
  status: ('A' for Active; 'I' for Inactive)
    1  A    between atoms: C_1  and  C_2
    2  A    between atoms: C_10  and  C_13
                            x       y       z     vdW  Elec       q    Type
                         _______ _______ _______ _____ _____    ______ ____

>  <TORSDO>
F 2

$$$$
=
 OpenBabel11052413253D

 28 31  0  0  1  0  0  0  0  0999 V2000
  190.0610  176.1360  136.7270 C   0  0  2  0  0  3  0  0  0  0  0  0
  194.3880  175.6940  136.7160 C   0  0  0  0  0  1  0  0  0  0  0  0
  190.9210  177.0880  140.3730 C   0  0  1  0  0  3  0  0  0  0  0  0
  192.2440  176.1620  137.9930 C   0  0  0  0  0  0  0  0  0  0  0  0
  190.1380  177.0940  139.0650 C   0  0  0  0  0  2  0  0  0  0  0  0
  192.1940  175.4890  135.5890 C   0  0  0  0  0  2  0  0  0  0  0  0
  192.9660  176.7670  138.9600 C   0  0  0  0  0  3  0  0  0  0  0  0
  192.9230  175.3320  136.9210 C   0  0  1  0  0  3  0  0  0  0  0  0
  192.3360  177.5730  140.0640 C   0  0  0  0  0  2  0  0  0  0  0  0
  190.7120  175.1680  135.7390 C   0  0  0  0  0  2  0  0  0  0  0  0
  190.7290  176.0550  138.1090 C   0  0  1  0  0  3  0  0  0  0  0  0
  191.1390  178.2800  142.6380 C   0  0  0  0  0  2  0  0  0  0  0  0
  188.7730  176.7090  143.1890 C   0  0  0  0  0  2  0  0  0  0  0  0
  191.1500  175.9180  143.6190 C   0  0  0  0  0  0  0  0  0  0  0  0
  190.2410  177.9780  141.4290 C   0  0  2  0  0  3  0  0  0  0  0  0
  187.9270  177.5730  141.1770 O   0  0  0  0  0  0  0  0  0  0  0  0
  189.7420  175.5400  143.2340 C   0  0  0  0  0  2  0  0  0  0  0  0
  188.9130  177.4230  141.8800 C   0  0  0  0  0  0  0  0  0  0  0  0
  191.9680  174.8740  144.2940 C   0  0  0  0  0  1  0  0  0  0  0  0
  191.7630  177.0720  143.2930 C   0  0  0  0  0  3  0  0  0  0  0  0
  188.5770  175.8880  136.8020 C   0  0  0  0  0  0  0  0  0  0  0  0
  188.0950  174.5900  137.0340 C   0  0  0  0  0  3  0  0  0  0  0  0
  186.2840  176.7030  136.7550 C   0  0  0  0  0  0  0  0  0  0  0  0
  186.7230  174.3500  137.1230 C   0  0  0  0  0  3  0  0  0  0  0  0
  188.1460  178.3490  136.4220 C   0  0  0  0  0  1  0  0  0  0  0  0
  187.6630  176.9540  136.6640 C   0  0  0  0  0  0  0  0  0  0  0  0
  185.3660  177.7400  136.6210 O   0  0  0  0  0  1  0  0  0  0  0  0
  185.8200  175.4050  136.9840 C   0  0  0  0  0  3  0  0  0  0  0  0
  1 21  1  1  0  0  0
  1 11  1  0  0  0  0
  3  5  1  6  0  0  0
  3 15  1  0  0  0  0
  4 11  1  0  0  0  0
  4  7  2  0  0  0  0
  6 10  1  0  0  0  0
  6  8  1  0  0  0  0
  7  9  1  0  0  0  0
  8  2  1  6  0  0  0
  8  4  1  0  0  0  0
  9  3  1  0  0  0  0
 10  1  1  0  0  0  0
 11  5  1  1  0  0  0
 12 20  1  0  0  0  0
 13 17  1  0  0  0  0
 14 19  1  0  0  0  0
 15 18  1  0  0  0  0
 15 12  1  1  0  0  0
 16 18  2  0  0  0  0
 17 14  1  0  0  0  0
 18 13  1  0  0  0  0
 20 14  2  0  0  0  0
 21 22  1  0  0  0  0
 22 24  2  0  0  0  0
 23 28  2  0  0  0  0
 25 26  1  0  0  0  0
 26 23  1  0  0  0  0
 26 21  2  0  0  0  0
 27 23  1  0  0  0  0
 28 24  1  0  0  0  0
M  END
>  <MODEL>
8

>  <REMARK>
 VINA RESULT:      -7.8      2.841      8.193
  Name = 
  2 active torsions:
  status: ('A' for Active; 'I' for Inactive)
    1  A    between atoms: C_1  and  C_2
    2  A    between atoms: C_10  and  C_13
                            x       y       z     vdW  Elec       q    Type
                         _______ _______ _______ _____ _____    ______ ____

>  <TORSDO>
F 2

$$$$
=
 OpenBabel11052413253D

 28 31  0  0  1  0  0  0  0  0999 V2000
  185.9290  178.7440  142.0840 C   0  0  2  0  0  3  0  0  0  0  0  0
  184.9160  178.3370  146.2940 C   0  0  0  0  0  1  0  0  0  0  0  0
  182.0670  178.7200  141.9260 C   0  0  1  0  0  3  0  0  0  0  0  0
  184.1700  178.4490  143.8690 C   0  0  0  0  0  0  0  0  0  0  0  0
  183.4900  179.0620  141.5000 C   0  0  0  0  0  2  0  0  0  0  0  0
  186.5930  178.4230  144.4760 C   0  0  0  0  0  2  0  0  0  0  0  0
  182.9290  178.7850  144.2790 C   0  0  0  0  0  3  0  0  0  0  0  0
  185.1990  177.9290  144.8550 C   0  0  1  0  0  3  0  0  0  0  0  0
  181.8630  179.2740  143.3350 C   0  0  0  0  0  2  0  0  0  0  0  0
  186.9210  178.0680  143.0310 C   0  0  0  0  0  2  0  0  0  0  0  0
  184.4860  178.3100  142.3860 C   0  0  1  0  0  3  0  0  0  0  0  0
  179.6550  178.6430  141.0450 C   0  0  0  0  0  2  0  0  0  0  0  0
  181.0550  178.2410  138.5450 C   0  0  0  0  0  2  0  0  0  0  0  0
  180.3210  176.3640  140.0940 C   0  0  0  0  0  0  0  0  0  0  0  0
  181.0390  179.3020  140.9400 C   0  0  2  0  0  3  0  0  0  0  0  0
  182.3180  180.1300  139.1340 O   0  0  0  0  0  0  0  0  0  0  0  0
  181.3440  176.8570  139.1010 C   0  0  0  0  0  2  0  0  0  0  0  0
  181.5310  179.2790  139.5140 C   0  0  0  0  0  0  0  0  0  0  0  0
  180.1390  174.8910  140.1970 C   0  0  0  0  0  1  0  0  0  0  0  0
  179.6550  177.1350  140.9740 C   0  0  0  0  0  3  0  0  0  0  0  0
  186.3090  178.4790  140.6510 C   0  0  0  0  0  0  0  0  0  0  0  0
  185.3130  178.4040  139.6650 C   0  0  0  0  0  3  0  0  0  0  0  0
  187.9960  178.0980  138.9380 C   0  0  0  0  0  0  0  0  0  0  0  0
  185.6530  178.1760  138.3300 C   0  0  0  0  0  3  0  0  0  0  0  0
  188.7470  178.4080  141.3100 C   0  0  0  0  0  1  0  0  0  0  0  0
  187.6620  178.3270  140.2830 C   0  0  0  0  0  0  0  0  0  0  0  0
  189.3250  177.9450  138.5550 O   0  0  0  0  0  1  0  0  0  0  0  0
  186.9930  178.0240  137.9690 C   0  0  0  0  0  3  0  0  0  0  0  0
  1 21  1  6  0  0  0
  1 11  1  0  0  0  0
  1 10  1  0  0  0  0
  3  5  1  6  0  0  0
  3  9  1  0  0  0  0
  4  7  2  0  0  0  0
  4  8  1  0  0  0  0
  6  8  1  0  0  0  0
  8  2  1  1  0  0  0
  9  7  1  0  0  0  0
 10  6  1  0  0  0  0
 11  5  1  6  0  0  0
 11  4  1  0  0  0  0
 13 17  1  0  0  0  0
 13 18  1  0  0  0  0
 14 19  1  0  0  0  0
 14 20  2  0  0  0  0
 15 12  1  6  0  0  0
 15  3  1  0  0  0  0
 16 18  2  0  0  0  0
 17 14  1  0  0  0  0
 18 15  1  0  0  0  0
 20 12  1  0  0  0  0
 22 21  2  0  0  0  0
 23 26  2  0  0  0  0
 24 22  1  0  0  0  0
 26 21  1  0  0  0  0
 26 25  1  0  0  0  0
 27 23  1  0  0  0  0
 28 24  2  0  0  0  0
 28 23  1  0  0  0  0
M  END
>  <MODEL>
9

>  <REMARK>
 VINA RESULT:      -7.7      3.606      6.956
  Name = 
  2 active torsions:
  status: ('A' for Active; 'I' for Inactive)
    1  A    between atoms: C_1  and  C_2
    2  A    between atoms: C_10  and  C_13
                            x       y       z     vdW  Elec       q    Type
                         _______ _______ _______ _____ _____    ______ ____

>  <TORSDO>
F 2

$$$$
