=
 OpenBabel11052413423D

 27 32  0  0  1  0  0  0  0  0999 V2000
  182.2740  178.1840  142.0050 C   0  0  0  0  0  2  0  0  0  0  0  0
  182.2510  178.0800  139.4820 C   0  0  1  0  0  3  0  0  0  0  0  0
  184.4080  179.5840  139.8560 C   0  0  0  0  0  2  0  0  0  0  0  0
  185.1020  176.1430  137.2530 N   0  0  0  0  0  0  0  0  0  0  0  0
  187.1730  176.1150  136.9100 N   0  0  0  0  0  0  0  0  0  0  0  0
  182.0510  176.5280  139.4750 C   0  0  0  0  0  2  0  0  0  0  0  0
  185.5890  177.2890  137.7170 C   0  0  0  0  0  0  0  0  0  0  0  0
  187.3150  178.0190  141.7080 C   0  0  0  0  0  3  0  0  0  0  0  0
  186.9370  177.3430  137.5300 C   0  0  0  0  0  3  0  0  0  0  0  0
  186.7730  177.8010  142.9760 C   0  0  0  0  0  3  0  0  0  0  0  0
  184.2480  177.7330  138.2380 C   0  0  1  0  0  3  0  0  0  0  0  0
  181.7700  178.6850  140.7260 N   0  0  0  0  0  0  0  0  0  0  0  0
  186.0420  175.3930  136.7490 N   0  0  0  0  0  0  0  0  0  0  0  0
  183.7850  176.5590  137.6030 C   0  0  2  0  0  3  0  0  0  0  0  0
  183.2710  179.1670  142.5990 C   0  0  0  0  0  2  0  0  0  0  0  0
  183.6520  178.5240  139.1120 C   0  0  1  0  0  3  0  0  0  0  0  0
  186.5380  178.6090  140.7100 C   0  0  0  0  0  3  0  0  0  0  0  0
  183.1390  175.7180  138.7090 C   0  0  0  0  0  2  0  0  0  0  0  0
  185.4550  178.1770  143.2470 C   0  0  0  0  0  3  0  0  0  0  0  0
  184.6700  178.7740  142.2540 C   0  0  0  0  0  0  0  0  0  0  0  0
  185.2150  178.9890  140.9700 C   0  0  0  0  0  0  0  0  0  0  0  0
  178.9310  181.7740  140.6180 N   0  0  0  0  0  0  0  0  0  0  0  0
  180.7960  179.7490  140.6820 C   0  0  0  0  0  0  0  0  0  0  0  0
  180.6690  180.5580  139.5460 C   0  0  0  0  0  3  0  0  0  0  0  0
  179.7200  181.5770  139.5310 C   0  0  0  0  0  3  0  0  0  0  0  0
  179.0420  181.0070  141.7040 N   0  0  0  0  0  0  0  0  0  0  0  0
  179.9510  180.0000  141.7700 C   0  0  0  0  0  3  0  0  0  0  0  0
  1 15  1  0  0  0  0
  2  6  1  1  0  0  0
  2 12  1  0  0  0  0
  3 21  1  0  0  0  0
  4 14  1  0  0  0  0
  4  7  1  0  0  0  0
  5  9  1  0  0  0  0
  8 10  1  0  0  0  0
  9  7  2  0  0  0  0
 10 19  2  0  0  0  0
 11  7  1  1  0  0  0
 11 16  1  0  0  0  0
 12  1  1  0  0  0  0
 13  5  2  0  0  0  0
 13  4  1  0  0  0  0
 14 11  1  0  0  0  0
 14 18  1  1  0  0  0
 16  2  1  0  0  0  0
 16  3  1  1  0  0  0
 17 21  1  0  0  0  0
 17  8  2  0  0  0  0
 18  6  1  0  0  0  0
 20 15  1  0  0  0  0
 20 19  1  0  0  0  0
 21 20  2  0  0  0  0
 22 26  1  0  0  0  0
 23 12  1  0  0  0  0
 23 27  1  0  0  0  0
 24 23  2  0  0  0  0
 25 24  1  0  0  0  0
 25 22  2  0  0  0  0
 26 27  2  0  0  0  0
M  END
>  <MODEL>
1

>  <REMARK>
 VINA RESULT:      -6.4      0.000      0.000
  Name = 
  1 active torsions:
  status: ('A' for Active; 'I' for Inactive)
    1  A    between atoms: C_9  and  N_15
                            x       y       z     vdW  Elec       q    Type
                         _______ _______ _______ _____ _____    ______ ____

>  <TORSDO>
F 1

$$$$
=
 OpenBabel11052413423D

 27 32  0  0  1  0  0  0  0  0999 V2000
  191.8920  174.1070  137.5300 C   0  0  0  0  0  2  0  0  0  0  0  0
  191.5730  176.5880  137.8780 C   0  0  1  0  0  3  0  0  0  0  0  0
  190.1990  176.2640  135.6280 C   0  0  0  0  0  2  0  0  0  0  0  0
  187.9610  178.3210  138.7680 N   0  0  0  0  0  0  0  0  0  0  0  0
  186.0060  178.5050  138.0260 N   0  0  0  0  0  0  0  0  0  0  0  0
  191.1740  176.4000  139.3790 C   0  0  0  0  0  2  0  0  0  0  0  0
  187.9990  177.9830  137.4840 C   0  0  0  0  0  0  0  0  0  0  0  0
  187.1600  174.0110  135.7610 C   0  0  0  0  0  3  0  0  0  0  0  0
  186.7570  178.0760  136.9310 C   0  0  0  0  0  3  0  0  0  0  0  0
  187.7280  172.7680  136.0470 C   0  0  0  0  0  3  0  0  0  0  0  0
  189.4590  177.6250  137.5450 C   0  0  1  0  0  3  0  0  0  0  0  0
  192.3910  175.4750  137.3890 N   0  0  0  0  0  0  0  0  0  0  0  0
  186.7550  178.6500  139.1420 N   0  0  0  0  0  0  0  0  0  0  0  0
  189.3690  178.1280  138.8620 C   0  0  2  0  0  3  0  0  0  0  0  0
  191.4150  173.5800  136.1850 C   0  0  0  0  0  2  0  0  0  0  0  0
  190.4090  176.9110  136.9650 C   0  0  1  0  0  3  0  0  0  0  0  0
  187.9770  175.1340  135.6160 C   0  0  0  0  0  3  0  0  0  0  0  0
  189.7800  176.9680  139.7760 C   0  0  0  0  0  2  0  0  0  0  0  0
  189.1120  172.6480  136.1850 C   0  0  0  0  0  3  0  0  0  0  0  0
  189.9400  173.7670  136.0380 C   0  0  0  0  0  0  0  0  0  0  0  0
  189.3660  175.0240  135.7540 C   0  0  0  0  0  0  0  0  0  0  0  0
  196.1490  176.2130  135.6720 N   0  0  0  0  0  0  0  0  0  0  0  0
  193.6800  175.7340  136.7930 C   0  0  0  0  0  0  0  0  0  0  0  0
  193.8200  176.6770  135.7680 C   0  0  0  0  0  3  0  0  0  0  0  0
  195.0760  176.9070  135.2130 C   0  0  0  0  0  3  0  0  0  0  0  0
  196.0270  175.3130  136.6500 N   0  0  0  0  0  0  0  0  0  0  0  0
  194.8240  175.0510  137.2250 C   0  0  0  0  0  3  0  0  0  0  0  0
  2  6  1  1  0  0  0
  3 21  1  0  0  0  0
  4 14  1  0  0  0  0
  4 13  1  0  0  0  0
  5 13  2  0  0  0  0
  6 18  1  0  0  0  0
  7  4  1  0  0  0  0
  8 10  1  0  0  0  0
  9  7  2  0  0  0  0
  9  5  1  0  0  0  0
 10 19  2  0  0  0  0
 11  7  1  1  0  0  0
 11 14  1  0  0  0  0
 12  1  1  0  0  0  0
 12  2  1  0  0  0  0
 14 18  1  1  0  0  0
 15  1  1  0  0  0  0
 16  3  1  1  0  0  0
 16 11  1  0  0  0  0
 16  2  1  0  0  0  0
 17 21  1  0  0  0  0
 17  8  2  0  0  0  0
 20 15  1  0  0  0  0
 20 19  1  0  0  0  0
 21 20  2  0  0  0  0
 22 26  1  0  0  0  0
 23 27  1  0  0  0  0
 23 12  1  0  0  0  0
 24 23  2  0  0  0  0
 25 22  2  0  0  0  0
 25 24  1  0  0  0  0
 26 27  2  0  0  0  0
M  END
>  <MODEL>
2

>  <REMARK>
 VINA RESULT:      -6.4      5.391     10.366
  Name = 
  1 active torsions:
  status: ('A' for Active; 'I' for Inactive)
    1  A    between atoms: C_9  and  N_15
                            x       y       z     vdW  Elec       q    Type
                         _______ _______ _______ _____ _____    ______ ____

>  <TORSDO>
F 1

$$$$
=
 OpenBabel11052413423D

 27 32  0  0  1  0  0  0  0  0999 V2000
  189.7780  178.3840  145.8280 C   0  0  0  0  0  2  0  0  0  0  0  0
  189.4640  177.6000  143.4480 C   0  0  1  0  0  3  0  0  0  0  0  0
  187.3380  176.4810  144.5810 C   0  0  0  0  0  2  0  0  0  0  0  0
  186.3920  178.8380  141.0250 N   0  0  0  0  0  0  0  0  0  0  0  0
  184.2950  178.8940  140.9380 N   0  0  0  0  0  0  0  0  0  0  0  0
  189.7020  179.0330  142.8680 C   0  0  0  0  0  2  0  0  0  0  0  0
  185.9410  177.9640  141.9180 C   0  0  0  0  0  0  0  0  0  0  0  0
  184.7490  178.7990  146.0810 C   0  0  0  0  0  3  0  0  0  0  0  0
  184.5790  177.9460  141.9220 C   0  0  0  0  0  3  0  0  0  0  0  0
  185.4620  179.4050  147.1170 C   0  0  0  0  0  3  0  0  0  0  0  0
  187.3280  177.6350  142.4030 C   0  0  1  0  0  3  0  0  0  0  0  0
  190.0920  177.4330  144.7610 N   0  0  0  0  0  0  0  0  0  0  0  0
  185.4120  179.4310  140.4000 N   0  0  0  0  0  0  0  0  0  0  0  0
  187.7320  178.4770  141.3430 C   0  0  2  0  0  3  0  0  0  0  0  0
  188.8450  177.7450  146.8440 C   0  0  0  0  0  2  0  0  0  0  0  0
  188.0150  177.1570  143.4260 C   0  0  1  0  0  3  0  0  0  0  0  0
  185.3680  177.8430  145.2740 C   0  0  0  0  0  3  0  0  0  0  0  0
  188.5430  179.6010  141.9960 C   0  0  0  0  0  2  0  0  0  0  0  0
  186.7940  179.0530  147.3480 C   0  0  0  0  0  3  0  0  0  0  0  0
  187.4220  178.0920  146.5470 C   0  0  0  0  0  0  0  0  0  0  0  0
  186.7040  177.4830  145.4970 C   0  0  0  0  0  0  0  0  0  0  0  0
  192.7940  174.2840  145.3880 N   0  0  0  0  0  0  0  0  0  0  0  0
  191.0220  176.3530  144.9840 C   0  0  0  0  0  0  0  0  0  0  0  0
  191.5980  176.1510  146.2440 C   0  0  0  0  0  3  0  0  0  0  0  0
  192.4920  175.0990  146.4310 C   0  0  0  0  0  3  0  0  0  0  0  0
  192.2500  174.4660  144.1840 N   0  0  0  0  0  0  0  0  0  0  0  0
  191.3720  175.4770  143.9490 C   0  0  0  0  0  3  0  0  0  0  0  0
  1 15  1  0  0  0  0
  2  6  1  1  0  0  0
  2 12  1  0  0  0  0
  3 21  1  0  0  0  0
  4 14  1  0  0  0  0
  4  7  1  0  0  0  0
  5  9  1  0  0  0  0
  7  9  2  0  0  0  0
  8 10  1  0  0  0  0
 10 19  2  0  0  0  0
 11  7  1  1  0  0  0
 11 16  1  0  0  0  0
 12 23  1  0  0  0  0
 12  1  1  0  0  0  0
 13  5  2  0  0  0  0
 13  4  1  0  0  0  0
 14 18  1  1  0  0  0
 14 11  1  0  0  0  0
 16  2  1  0  0  0  0
 16  3  1  1  0  0  0
 17 21  1  0  0  0  0
 17  8  2  0  0  0  0
 18  6  1  0  0  0  0
 20 15  1  0  0  0  0
 20 19  1  0  0  0  0
 21 20  2  0  0  0  0
 22 25  1  0  0  0  0
 23 24  1  0  0  0  0
 24 25  2  0  0  0  0
 26 22  2  0  0  0  0
 27 26  1  0  0  0  0
 27 23  2  0  0  0  0
M  END
>  <MODEL>
3

>  <REMARK>
 VINA RESULT:      -6.3      4.627      8.692
  Name = 
  1 active torsions:
  status: ('A' for Active; 'I' for Inactive)
    1  A    between atoms: C_9  and  N_15
                            x       y       z     vdW  Elec       q    Type
                         _______ _______ _______ _____ _____    ______ ____

>  <TORSDO>
F 1

$$$$
=
 OpenBabel11052413423D

 27 32  0  0  1  0  0  0  0  0999 V2000
  185.8950  179.5410  141.9200 C   0  0  0  0  0  2  0  0  0  0  0  0
  184.8240  178.7240  144.0560 C   0  0  1  0  0  3  0  0  0  0  0  0
  186.4950  176.7130  143.5870 C   0  0  0  0  0  2  0  0  0  0  0  0
  186.8280  178.3620  147.6200 N   0  0  0  0  0  0  0  0  0  0  0  0
  188.4920  177.4080  148.4740 N   0  0  0  0  0  0  0  0  0  0  0  0
  185.0260  180.1010  144.7700 C   0  0  0  0  0  2  0  0  0  0  0  0
  187.1700  177.3710  146.8040 C   0  0  0  0  0  0  0  0  0  0  0  0
  190.1980  177.4940  143.6010 C   0  0  0  0  0  3  0  0  0  0  0  0
  188.2510  176.7030  147.2940 C   0  0  0  0  0  3  0  0  0  0  0  0
  190.3210  178.3590  142.5120 C   0  0  0  0  0  3  0  0  0  0  0  0
  186.1160  177.7410  145.7940 C   0  0  1  0  0  3  0  0  0  0  0  0
  184.7880  178.8670  142.5990 N   0  0  0  0  0  0  0  0  0  0  0  0
  187.6140  178.4190  148.6590 N   0  0  0  0  0  0  0  0  0  0  0  0
  185.7290  178.6830  146.7730 C   0  0  2  0  0  3  0  0  0  0  0  0
  186.7770  178.5230  141.2130 C   0  0  0  0  0  2  0  0  0  0  0  0
  185.7770  177.6410  144.5210 C   0  0  1  0  0  3  0  0  0  0  0  0
  188.9520  176.9590  143.9300 C   0  0  0  0  0  3  0  0  0  0  0  0
  185.8440  180.0530  146.0950 C   0  0  0  0  0  2  0  0  0  0  0  0
  189.1970  178.6840  141.7490 C   0  0  0  0  0  3  0  0  0  0  0  0
  187.9440  178.1500  142.0680 C   0  0  0  0  0  0  0  0  0  0  0  0
  187.8180  177.2810  143.1720 C   0  0  0  0  0  0  0  0  0  0  0  0
  181.4970  177.4080  140.4420 N   0  0  0  0  0  0  0  0  0  0  0  0
  183.6620  178.3620  141.8520 C   0  0  0  0  0  0  0  0  0  0  0  0
  183.8500  177.5050  140.7610 C   0  0  0  0  0  3  0  0  0  0  0  0
  182.7440  177.0320  140.0590 C   0  0  0  0  0  3  0  0  0  0  0  0
  181.3060  178.2240  141.4800 N   0  0  0  0  0  0  0  0  0  0  0  0
  182.3510  178.7130  142.1980 C   0  0  0  0  0  3  0  0  0  0  0  0
  1 12  1  0  0  0  0
  2 16  1  0  0  0  0
  2  6  1  1  0  0  0
  4 13  1  0  0  0  0
  5 13  2  0  0  0  0
  6 18  1  0  0  0  0
  7  9  2  0  0  0  0
  7  4  1  0  0  0  0
  8 17  1  0  0  0  0
  9  5  1  0  0  0  0
 10  8  2  0  0  0  0
 11 14  1  0  0  0  0
 11  7  1  6  0  0  0
 12  2  1  0  0  0  0
 14 18  1  6  0  0  0
 14  4  1  0  0  0  0
 15  1  1  0  0  0  0
 15 20  1  0  0  0  0
 16  3  1  6  0  0  0
 16 11  1  0  0  0  0
 19 20  2  0  0  0  0
 19 10  1  0  0  0  0
 20 21  1  0  0  0  0
 21  3  1  0  0  0  0
 21 17  2  0  0  0  0
 22 26  1  0  0  0  0
 23 27  1  0  0  0  0
 23 12  1  0  0  0  0
 24 23  2  0  0  0  0
 25 22  2  0  0  0  0
 25 24  1  0  0  0  0
 26 27  2  0  0  0  0
M  END
>  <MODEL>
4

>  <REMARK>
 VINA RESULT:      -6.1      3.922      6.662
  Name = 
  1 active torsions:
  status: ('A' for Active; 'I' for Inactive)
    1  A    between atoms: C_9  and  N_15
                            x       y       z     vdW  Elec       q    Type
                         _______ _______ _______ _____ _____    ______ ____

>  <TORSDO>
F 1

$$$$
=
 OpenBabel11052413423D

 27 32  0  0  1  0  0  0  0  0999 V2000
  182.3240  177.5540  140.4470 C   0  0  0  0  0  2  0  0  0  0  0  0
  183.2770  177.6330  138.1100 C   0  0  1  0  0  3  0  0  0  0  0  0
  184.8350  179.4270  139.2970 C   0  0  0  0  0  2  0  0  0  0  0  0
  187.0490  176.3380  137.1390 N   0  0  0  0  0  0  0  0  0  0  0  0
  189.0660  176.6630  137.6220 N   0  0  0  0  0  0  0  0  0  0  0  0
  183.3670  176.0740  138.0160 C   0  0  0  0  0  2  0  0  0  0  0  0
  187.1170  177.5100  137.7620 C   0  0  0  0  0  0  0  0  0  0  0  0
  187.0480  178.2090  142.1160 C   0  0  0  0  0  3  0  0  0  0  0  0
  188.4040  177.7890  138.1110 C   0  0  0  0  0  3  0  0  0  0  0  0
  186.1120  177.8160  143.0750 C   0  0  0  0  0  3  0  0  0  0  0  0
  185.6240  177.6970  137.7290 C   0  0  1  0  0  3  0  0  0  0  0  0
  182.2630  178.0620  139.0760 N   0  0  0  0  0  0  0  0  0  0  0  0
  188.2250  175.7840  137.0310 N   0  0  0  0  0  0  0  0  0  0  0  0
  185.6470  176.5140  136.9570 C   0  0  2  0  0  3  0  0  0  0  0  0
  182.8340  178.6360  141.3860 C   0  0  0  0  0  2  0  0  0  0  0  0
  184.6130  178.3190  138.3120 C   0  0  1  0  0  3  0  0  0  0  0  0
  186.6170  178.7400  140.8990 C   0  0  0  0  0  3  0  0  0  0  0  0
  184.7870  175.5030  137.7230 C   0  0  0  0  0  2  0  0  0  0  0  0
  184.7470  177.9590  142.8190 C   0  0  0  0  0  3  0  0  0  0  0  0
  184.3060  178.4950  141.6040 C   0  0  0  0  0  0  0  0  0  0  0  0
  185.2500  178.8870  140.6320 C   0  0  0  0  0  0  0  0  0  0  0  0
  179.1850  180.6600  137.8980 N   0  0  0  0  0  0  0  0  0  0  0  0
  181.2100  178.9590  138.6670 C   0  0  0  0  0  0  0  0  0  0  0  0
  181.4640  180.0010  137.7670 C   0  0  0  0  0  3  0  0  0  0  0  0
  180.4290  180.8510  137.3880 C   0  0  0  0  0  3  0  0  0  0  0  0
  178.9310  179.6700  138.7550 N   0  0  0  0  0  0  0  0  0  0  0  0
  179.9060  178.8130  139.1560 C   0  0  0  0  0  3  0  0  0  0  0  0
  1 15  1  0  0  0  0
  2  6  1  1  0  0  0
  2 16  1  0  0  0  0
  2 12  1  0  0  0  0
  3 21  1  0  0  0  0
  4  7  1  0  0  0  0
  5  9  1  0  0  0  0
  7  9  2  0  0  0  0
  8 10  1  0  0  0  0
 11  7  1  1  0  0  0
 11 16  1  0  0  0  0
 12  1  1  0  0  0  0
 13  4  1  0  0  0  0
 13  5  2  0  0  0  0
 14  4  1  0  0  0  0
 14 18  1  1  0  0  0
 14 11  1  0  0  0  0
 15 20  1  0  0  0  0
 16  3  1  1  0  0  0
 17  8  2  0  0  0  0
 18  6  1  0  0  0  0
 19 10  2  0  0  0  0
 20 19  1  0  0  0  0
 21 17  1  0  0  0  0
 21 20  2  0  0  0  0
 22 26  1  0  0  0  0
 23 12  1  0  0  0  0
 23 27  1  0  0  0  0
 24 23  2  0  0  0  0
 25 24  1  0  0  0  0
 25 22  2  0  0  0  0
 26 27  2  0  0  0  0
M  END
>  <MODEL>
5

>  <REMARK>
 VINA RESULT:      -6.0      1.511      1.824
  Name = 
  1 active torsions:
  status: ('A' for Active; 'I' for Inactive)
    1  A    between atoms: C_9  and  N_15
                            x       y       z     vdW  Elec       q    Type
                         _______ _______ _______ _____ _____    ______ ____

>  <TORSDO>
F 1

$$$$
=
 OpenBabel11052413423D

 27 32  0  0  1  0  0  0  0  0999 V2000
  187.8200  176.3770  142.6760 C   0  0  0  0  0  2  0  0  0  0  0  0
  190.3360  176.4050  142.8940 C   0  0  1  0  0  3  0  0  0  0  0  0
  189.7260  178.5100  144.3950 C   0  0  0  0  0  2  0  0  0  0  0  0
  192.3320  175.6270  146.3940 N   0  0  0  0  0  0  0  0  0  0  0  0
  192.4790  176.2960  148.3790 N   0  0  0  0  0  0  0  0  0  0  0  0
  190.3980  174.8770  143.2190 C   0  0  0  0  0  2  0  0  0  0  0  0
  191.7980  176.8430  146.4360 C   0  0  0  0  0  0  0  0  0  0  0  0
  187.6460  177.8850  147.4960 C   0  0  0  0  0  3  0  0  0  0  0  0
  191.8560  177.3440  147.7020 C   0  0  0  0  0  3  0  0  0  0  0  0
  186.4400  177.4350  146.9550 C   0  0  0  0  0  3  0  0  0  0  0  0
  191.3950  176.7960  144.9870 C   0  0  1  0  0  3  0  0  0  0  0  0
  189.1290  176.7530  142.1400 N   0  0  0  0  0  0  0  0  0  0  0  0
  192.7630  175.2530  147.5670 N   0  0  0  0  0  0  0  0  0  0  0  0
  192.0980  175.5710  144.9910 C   0  0  2  0  0  3  0  0  0  0  0  0
  187.1120  177.5990  143.2410 C   0  0  0  0  0  2  0  0  0  0  0  0
  190.5620  177.3020  144.0940 C   0  0  1  0  0  3  0  0  0  0  0  0
  188.6990  178.2410  146.6510 C   0  0  0  0  0  3  0  0  0  0  0  0
  191.0770  174.5080  144.5710 C   0  0  0  0  0  2  0  0  0  0  0  0
  186.2860  177.3450  145.5700 C   0  0  0  0  0  3  0  0  0  0  0  0
  187.3340  177.7040  144.7150 C   0  0  0  0  0  0  0  0  0  0  0  0
  188.5550  178.1530  145.2610 C   0  0  0  0  0  0  0  0  0  0  0  0
  189.4310  178.7660  138.4700 N   0  0  0  0  0  0  0  0  0  0  0  0
  189.2400  177.4420  140.8770 C   0  0  0  0  0  0  0  0  0  0  0  0
  190.3210  177.2010  140.0210 C   0  0  0  0  0  3  0  0  0  0  0  0
  190.4020  177.8780  138.8070 C   0  0  0  0  0  3  0  0  0  0  0  0
  188.3950  179.0030  139.2780 N   0  0  0  0  0  0  0  0  0  0  0  0
  188.2700  178.3670  140.4720 C   0  0  0  0  0  3  0  0  0  0  0  0
  1 15  1  0  0  0  0
  2  6  1  1  0  0  0
  2 16  1  0  0  0  0
  3 21  1  0  0  0  0
  4  7  1  0  0  0  0
  4 13  1  0  0  0  0
  6 18  1  0  0  0  0
  7  9  2  0  0  0  0
  9  5  1  0  0  0  0
 10  8  1  0  0  0  0
 11 14  1  0  0  0  0
 11  7  1  1  0  0  0
 12  1  1  0  0  0  0
 12  2  1  0  0  0  0
 13  5  2  0  0  0  0
 14 18  1  1  0  0  0
 14  4  1  0  0  0  0
 15 20  1  0  0  0  0
 16  3  1  1  0  0  0
 16 11  1  0  0  0  0
 17  8  2  0  0  0  0
 19 10  2  0  0  0  0
 20 21  2  0  0  0  0
 20 19  1  0  0  0  0
 21 17  1  0  0  0  0
 22 25  2  0  0  0  0
 22 26  1  0  0  0  0
 23 12  1  0  0  0  0
 24 23  2  0  0  0  0
 25 24  1  0  0  0  0
 26 27  2  0  0  0  0
 27 23  1  0  0  0  0
M  END
>  <MODEL>
6

>  <REMARK>
 VINA RESULT:      -5.6      5.672      8.964
  Name = 
  1 active torsions:
  status: ('A' for Active; 'I' for Inactive)
    1  A    between atoms: C_9  and  N_15
                            x       y       z     vdW  Elec       q    Type
                         _______ _______ _______ _____ _____    ______ ____

>  <TORSDO>
F 1

$$$$
=
 OpenBabel11052413423D

 27 32  0  0  1  0  0  0  0  0999 V2000
  184.8390  179.1080  138.7270 C   0  0  0  0  0  2  0  0  0  0  0  0
  182.3440  178.7710  138.5390 C   0  0  1  0  0  3  0  0  0  0  0  0
  182.8240  177.3850  140.7530 C   0  0  0  0  0  2  0  0  0  0  0  0
  179.6240  180.3290  141.1880 N   0  0  0  0  0  0  0  0  0  0  0  0
  179.1410  180.3250  143.2310 N   0  0  0  0  0  0  0  0  0  0  0  0
  182.0820  180.2940  138.2990 C   0  0  0  0  0  2  0  0  0  0  0  0
  180.2440  179.2880  141.7330 C   0  0  0  0  0  0  0  0  0  0  0  0
  184.1750  179.2890  143.7330 C   0  0  0  0  0  3  0  0  0  0  0  0
  179.9780  179.2220  143.0680 C   0  0  0  0  0  3  0  0  0  0  0  0
  185.4200  179.7170  143.2680 C   0  0  0  0  0  3  0  0  0  0  0  0
  180.9240  178.9230  140.4410 C   0  0  1  0  0  3  0  0  0  0  0  0
  183.7030  178.3850  138.1540 N   0  0  0  0  0  0  0  0  0  0  0  0
  178.9340  180.9930  142.0740 N   0  0  0  0  0  0  0  0  0  0  0  0
  180.1290  179.9620  139.9080 C   0  0  2  0  0  3  0  0  0  0  0  0
  185.5250  178.2580  139.7850 C   0  0  0  0  0  2  0  0  0  0  0  0
  181.9610  178.2880  139.9230 C   0  0  1  0  0  3  0  0  0  0  0  0
  183.3490  178.5230  142.9080 C   0  0  0  0  0  3  0  0  0  0  0  0
  181.1150  180.9740  139.3130 C   0  0  0  0  0  2  0  0  0  0  0  0
  185.8410  179.3750  141.9810 C   0  0  0  0  0  3  0  0  0  0  0  0
  185.0220  178.6040  141.1490 C   0  0  0  0  0  0  0  0  0  0  0  0
  183.7610  178.1760  141.6150 C   0  0  0  0  0  0  0  0  0  0  0  0
  184.3250  175.2840  135.3960 N   0  0  0  0  0  0  0  0  0  0  0  0
  183.9100  177.3160  137.2080 C   0  0  0  0  0  0  0  0  0  0  0  0
  182.9010  176.3810  136.9490 C   0  0  0  0  0  3  0  0  0  0  0  0
  183.1270  175.3600  136.0300 C   0  0  0  0  0  3  0  0  0  0  0  0
  185.2940  176.1700  135.6330 N   0  0  0  0  0  0  0  0  0  0  0  0
  185.1230  177.1850  136.5210 C   0  0  0  0  0  3  0  0  0  0  0  0
  1 15  1  0  0  0  0
  2  6  1  1  0  0  0
  2 16  1  0  0  0  0
  3 21  1  0  0  0  0
  4  7  1  0  0  0  0
  4 13  1  0  0  0  0
  6 18  1  0  0  0  0
  7  9  2  0  0  0  0
  9  5  1  0  0  0  0
 10  8  1  0  0  0  0
 11  7  1  1  0  0  0
 12  2  1  0  0  0  0
 12  1  1  0  0  0  0
 13  5  2  0  0  0  0
 14 18  1  1  0  0  0
 14 11  1  0  0  0  0
 14  4  1  0  0  0  0
 15 20  1  0  0  0  0
 16 11  1  0  0  0  0
 16  3  1  1  0  0  0
 17  8  2  0  0  0  0
 19 10  2  0  0  0  0
 20 21  2  0  0  0  0
 20 19  1  0  0  0  0
 21 17  1  0  0  0  0
 22 26  2  0  0  0  0
 22 25  1  0  0  0  0
 23 12  1  0  0  0  0
 24 23  1  0  0  0  0
 25 24  2  0  0  0  0
 26 27  1  0  0  0  0
 27 23  2  0  0  0  0
M  END
>  <MODEL>
7

>  <REMARK>
 VINA RESULT:      -5.5      1.495      6.089
  Name = 
  1 active torsions:
  status: ('A' for Active; 'I' for Inactive)
    1  A    between atoms: C_9  and  N_15
                            x       y       z     vdW  Elec       q    Type
                         _______ _______ _______ _____ _____    ______ ____

>  <TORSDO>
F 1

$$$$
=
 OpenBabel11052413423D

 27 32  0  0  1  0  0  0  0  0999 V2000
  180.7770  177.5180  140.6080 C   0  0  0  0  0  2  0  0  0  0  0  0
  181.1180  180.0100  140.3920 C   0  0  1  0  0  3  0  0  0  0  0  0
  182.5360  179.1750  138.3070 C   0  0  0  0  0  2  0  0  0  0  0  0
  179.6070  182.2620  137.3110 N   0  0  0  0  0  0  0  0  0  0  0  0
  179.6430  182.4050  135.2170 N   0  0  0  0  0  0  0  0  0  0  0  0
  179.5920  180.3080  140.5630 C   0  0  0  0  0  2  0  0  0  0  0  0
  180.6550  181.5610  136.8900 C   0  0  0  0  0  0  0  0  0  0  0  0
  180.6720  177.3570  135.5590 C   0  0  0  0  0  3  0  0  0  0  0  0
  180.7420  181.6050  135.5310 C   0  0  0  0  0  3  0  0  0  0  0  0
  180.2340  176.2040  136.2140 C   0  0  0  0  0  3  0  0  0  0  0  0
  180.9980  181.1000  138.2820 C   0  0  1  0  0  3  0  0  0  0  0  0
  181.4950  178.7320  140.9990 N   0  0  0  0  0  0  0  0  0  0  0  0
  178.9590  182.7980  136.3150 N   0  0  0  0  0  0  0  0  0  0  0  0
  179.9540  181.9720  138.6620 C   0  0  2  0  0  3  0  0  0  0  0  0
  181.6410  176.6680  139.6890 C   0  0  0  0  0  2  0  0  0  0  0  0
  181.6230  180.1610  138.9710 C   0  0  1  0  0  3  0  0  0  0  0  0
  181.4280  178.3060  136.2490 C   0  0  0  0  0  3  0  0  0  0  0  0
  178.9310  181.0970  139.3940 C   0  0  0  0  0  2  0  0  0  0  0  0
  180.5560  175.9990  137.5570 C   0  0  0  0  0  3  0  0  0  0  0  0
  181.3170  176.9420  138.2570 C   0  0  0  0  0  0  0  0  0  0  0  0
  181.7550  178.1100  137.5970 C   0  0  0  0  0  0  0  0  0  0  0  0
  184.5470  178.5950  143.8760 N   0  0  0  0  0  0  0  0  0  0  0  0
  182.5490  178.6820  141.9830 C   0  0  0  0  0  0  0  0  0  0  0  0
  183.8560  178.3370  141.6170 C   0  0  0  0  0  3  0  0  0  0  0  0
  184.8540  178.2990  142.5870 C   0  0  0  0  0  3  0  0  0  0  0  0
  183.3050  178.9260  144.2360 N   0  0  0  0  0  0  0  0  0  0  0  0
  182.2960  178.9780  143.3280 C   0  0  0  0  0  3  0  0  0  0  0  0
  1 12  1  0  0  0  0
  2  6  1  6  0  0  0
  2 12  1  0  0  0  0
  4 14  1  0  0  0  0
  5  9  1  0  0  0  0
  5 13  2  0  0  0  0
  7  4  1  0  0  0  0
  8 10  2  0  0  0  0
  8 17  1  0  0  0  0
  9  7  2  0  0  0  0
 10 19  1  0  0  0  0
 11  7  1  6  0  0  0
 11 14  1  0  0  0  0
 11 16  1  0  0  0  0
 12 23  1  0  0  0  0
 13  4  1  0  0  0  0
 14 18  1  6  0  0  0
 15  1  1  0  0  0  0
 16  3  1  6  0  0  0
 16  2  1  0  0  0  0
 17 21  2  0  0  0  0
 18  6  1  0  0  0  0
 19 20  2  0  0  0  0
 20 15  1  0  0  0  0
 21 20  1  0  0  0  0
 21  3  1  0  0  0  0
 22 26  1  0  0  0  0
 23 27  1  0  0  0  0
 24 23  2  0  0  0  0
 24 25  1  0  0  0  0
 25 22  2  0  0  0  0
 27 26  2  0  0  0  0
M  END
>  <MODEL>
8

>  <REMARK>
 VINA RESULT:      -5.5      3.054      6.235
  Name = 
  1 active torsions:
  status: ('A' for Active; 'I' for Inactive)
    1  A    between atoms: C_9  and  N_15
                            x       y       z     vdW  Elec       q    Type
                         _______ _______ _______ _____ _____    ______ ____

>  <TORSDO>
F 1

$$$$
=
 OpenBabel11052413423D

 27 32  0  0  1  0  0  0  0  0999 V2000
  190.1110  178.4300  140.9280 C   0  0  0  0  0  2  0  0  0  0  0  0
  187.6570  177.8610  141.1050 C   0  0  1  0  0  3  0  0  0  0  0  0
  188.6450  176.1770  142.9060 C   0  0  0  0  0  2  0  0  0  0  0  0
  185.3680  178.6390  144.4220 N   0  0  0  0  0  0  0  0  0  0  0  0
  185.2760  178.2330  146.4790 N   0  0  0  0  0  0  0  0  0  0  0  0
  187.2410  179.3660  141.2040 C   0  0  0  0  0  2  0  0  0  0  0  0
  186.1560  177.5930  144.6480 C   0  0  0  0  0  0  0  0  0  0  0  0
  190.3790  177.6780  145.9170 C   0  0  0  0  0  3  0  0  0  0  0  0
  186.1490  177.2710  145.9720 C   0  0  0  0  0  3  0  0  0  0  0  0
  191.4800  178.3110  145.3380 C   0  0  0  0  0  3  0  0  0  0  0  0
  186.6090  177.5310  143.2140 C   0  0  1  0  0  3  0  0  0  0  0  0
  188.9470  177.6960  140.4300 N   0  0  0  0  0  0  0  0  0  0  0  0
  184.8070  179.0630  145.5200 N   0  0  0  0  0  0  0  0  0  0  0  0
  185.6530  178.5540  143.0290 C   0  0  2  0  0  3  0  0  0  0  0  0
  191.0440  177.4900  141.6760 C   0  0  0  0  0  2  0  0  0  0  0  0
  187.5770  177.1100  142.4180 C   0  0  1  0  0  3  0  0  0  0  0  0
  189.4740  176.9790  145.1160 C   0  0  0  0  0  3  0  0  0  0  0  0
  186.4310  179.7530  142.4760 C   0  0  0  0  0  2  0  0  0  0  0  0
  191.6780  178.2420  143.9570 C   0  0  0  0  0  3  0  0  0  0  0  0
  190.7790  177.5410  143.1450 C   0  0  0  0  0  0  0  0  0  0  0  0
  189.6630  176.9050  143.7300 C   0  0  0  0  0  0  0  0  0  0  0  0
  189.2810  175.1820  137.0870 N   0  0  0  0  0  0  0  0  0  0  0  0
  189.0540  176.8340  139.2790 C   0  0  0  0  0  0  0  0  0  0  0  0
  188.0160  176.7530  138.3430 C   0  0  0  0  0  3  0  0  0  0  0  0
  188.1470  175.9130  137.2410 C   0  0  0  0  0  3  0  0  0  0  0  0
  190.2780  175.2530  137.9710 N   0  0  0  0  0  0  0  0  0  0  0  0
  190.1990  176.0570  139.0630 C   0  0  0  0  0  3  0  0  0  0  0  0
  1 15  1  0  0  0  0
  2  6  1  1  0  0  0
  2 16  1  0  0  0  0
  3 21  1  0  0  0  0
  4  7  1  0  0  0  0
  4 13  1  0  0  0  0
  6 18  1  0  0  0  0
  7  9  2  0  0  0  0
  9  5  1  0  0  0  0
 10  8  1  0  0  0  0
 11  7  1  1  0  0  0
 12  1  1  0  0  0  0
 12  2  1  0  0  0  0
 13  5  2  0  0  0  0
 14 18  1  1  0  0  0
 14 11  1  0  0  0  0
 14  4  1  0  0  0  0
 15 20  1  0  0  0  0
 16  3  1  1  0  0  0
 16 11  1  0  0  0  0
 17  8  2  0  0  0  0
 19 10  2  0  0  0  0
 20 21  2  0  0  0  0
 20 19  1  0  0  0  0
 21 17  1  0  0  0  0
 22 25  2  0  0  0  0
 22 26  1  0  0  0  0
 23 12  1  0  0  0  0
 24 23  2  0  0  0  0
 25 24  1  0  0  0  0
 26 27  2  0  0  0  0
 27 23  1  0  0  0  0
M  END
>  <MODEL>
9

>  <REMARK>
 VINA RESULT:      -5.3      4.384      7.964
  Name = 
  1 active torsions:
  status: ('A' for Active; 'I' for Inactive)
    1  A    between atoms: C_9  and  N_15
                            x       y       z     vdW  Elec       q    Type
                         _______ _______ _______ _____ _____    ______ ____

>  <TORSDO>
F 1

$$$$
