=
 OpenBabel11052412503D

 25 28  0  0  1  0  0  0  0  0999 V2000
  187.1040  177.8230  143.0050 C   0  0  0  0  0  0  0  0  0  0  0  0
  188.4380  177.4770  142.7920 C   0  0  0  0  0  0  0  0  0  0  0  0
  186.9260  178.7510  140.7990 C   0  0  0  0  0  3  0  0  0  0  0  0
  186.2060  177.5670  144.1630 C   0  0  2  0  0  3  0  0  0  0  0  0
  190.5270  176.2000  143.3640 C   0  0  1  0  0  3  0  0  0  0  0  0
  184.2940  178.8910  145.8620 C   0  0  0  0  0  3  0  0  0  0  0  0
  188.2380  178.4410  140.5880 N   0  0  0  0  0  0  0  0  0  0  0  0
  184.9500  178.2280  143.6530 C   0  0  0  0  0  0  0  0  0  0  0  0
  183.9160  178.6530  144.6000 C   0  0  0  0  0  3  0  0  0  0  0  0
  189.2530  176.8550  143.8920 C   0  0  0  0  0  2  0  0  0  0  0  0
  185.7210  178.7750  146.2670 C   0  0  0  0  0  3  0  0  0  0  0  0
  186.3570  178.4160  142.0210 C   0  0  0  0  0  0  0  0  0  0  0  0
  185.0340  178.6990  142.4470 N   0  0  0  0  0  0  0  0  0  0  0  0
  190.4280  177.4620  141.1970 C   0  0  2  0  0  3  0  0  0  0  0  0
  186.6330  178.2170  145.4530 C   0  0  0  0  0  3  0  0  0  0  0  0
  191.2700  177.1610  142.4410 C   0  0  0  0  0  2  0  0  0  0  0  0
  189.0080  177.8280  141.5400 C   0  0  0  0  0  0  0  0  0  0  0  0
  192.0960  176.1890  146.9060 C   0  0  0  0  0  0  0  0  0  0  0  0
  191.9190  176.9530  148.0510 O   0  0  0  0  0  1  0  0  0  0  0  0
  192.9350  175.2500  146.9100 O   0  0  0  0  0  0  0  0  0  0  0  0
  191.4030  175.7750  144.4960 C   0  0  0  0  0  0  0  0  0  0  0  0
  191.3210  176.4810  145.7380 N   0  0  0  0  0  2  0  0  0  0  0  0
  192.2000  174.8090  144.3510 O   0  0  0  0  0  0  0  0  0  0  0  0
  190.4360  176.3160  140.2990 N   0  0  0  0  0  2  0  0  0  0  0  0
  191.1410  176.7190  139.0960 C   0  0  0  0  0  1  0  0  0  0  0  0
  1  4  1  0  0  0  0
  2  1  1  0  0  0  0
  2 10  1  0  0  0  0
  3 12  1  0  0  0  0
  4 15  1  1  0  0  0
  5 10  1  0  0  0  0
  5 21  1  1  0  0  0
  6 11  1  0  0  0  0
  7  3  2  0  0  0  0
  7 17  1  0  0  0  0
  8  4  1  0  0  0  0
  8  9  1  0  0  0  0
  9  6  2  0  0  0  0
 12 13  1  0  0  0  0
 12  1  2  0  0  0  0
 13  8  2  0  0  0  0
 14 24  1  6  0  0  0
 14 17  1  0  0  0  0
 14 16  1  0  0  0  0
 15 11  2  0  0  0  0
 16  5  1  0  0  0  0
 17  2  2  0  0  0  0
 18 20  2  0  0  0  0
 18 19  1  0  0  0  0
 21 22  1  0  0  0  0
 22 18  1  0  0  0  0
 23 21  2  0  0  0  0
 25 24  1  0  0  0  0
M  END
>  <MODEL>
1

>  <REMARK>
 VINA RESULT:     -10.1      0.000      0.000
  Name = 
  2 active torsions:
  status: ('A' for Active; 'I' for Inactive)
    1  A    between atoms: C_6  and  C_15
    2  A    between atoms: N_13  and  C_20
                            x       y       z     vdW  Elec       q    Type
                         _______ _______ _______ _____ _____    ______ ____

>  <TORSDO>
F 2

$$$$
=
 OpenBabel11052412503D

 25 28  0  0  1  0  0  0  0  0999 V2000
  187.5980  177.7440  145.7400 C   0  0  0  0  0  0  0  0  0  0  0  0
  186.6640  178.2300  144.8250 C   0  0  0  0  0  0  0  0  0  0  0  0
  186.2900  178.5330  147.5920 C   0  0  0  0  0  3  0  0  0  0  0  0
  188.8430  176.9560  145.5330 C   0  0  2  0  0  3  0  0  0  0  0  0
  185.6370  178.3340  142.5330 C   0  0  1  0  0  3  0  0  0  0  0  0
  191.6030  176.8580  146.3470 C   0  0  0  0  0  3  0  0  0  0  0  0
  185.3820  179.0370  146.7060 N   0  0  0  0  0  0  0  0  0  0  0  0
  189.2870  176.8150  146.9670 C   0  0  0  0  0  0  0  0  0  0  0  0
  190.6900  176.5220  147.2680 C   0  0  0  0  0  3  0  0  0  0  0  0
  186.9100  178.1180  143.3460 C   0  0  0  0  0  2  0  0  0  0  0  0
  191.2040  177.5500  145.0920 C   0  0  0  0  0  3  0  0  0  0  0  0
  187.3990  177.8640  147.0900 C   0  0  0  0  0  0  0  0  0  0  0  0
  188.4730  177.3200  147.8420 N   0  0  0  0  0  0  0  0  0  0  0  0
  184.4510  179.4410  144.4480 C   0  0  2  0  0  3  0  0  0  0  0  0
  189.9120  177.6570  144.7370 C   0  0  0  0  0  3  0  0  0  0  0  0
  184.9230  179.5990  143.0000 C   0  0  0  0  0  2  0  0  0  0  0  0
  185.5370  178.9150  145.3500 C   0  0  0  0  0  0  0  0  0  0  0  0
  187.7750  178.3640  139.3020 C   0  0  0  0  0  0  0  0  0  0  0  0
  189.1310  178.2410  139.0310 O   0  0  0  0  0  1  0  0  0  0  0  0
  186.9650  178.5290  138.3520 O   0  0  0  0  0  0  0  0  0  0  0  0
  185.9550  178.4170  141.0770 C   0  0  0  0  0  0  0  0  0  0  0  0
  187.3200  178.3040  140.6590 N   0  0  0  0  0  2  0  0  0  0  0  0
  185.0310  178.5830  140.2350 O   0  0  0  0  0  0  0  0  0  0  0  0
  183.2960  178.5570  144.5040 N   0  0  0  0  0  2  0  0  0  0  0  0
  182.3020  179.0930  143.5920 C   0  0  0  0  0  1  0  0  0  0  0  0
  1 12  1  0  0  0  0
  2 17  1  0  0  0  0
  2  1  2  0  0  0  0
  4 15  1  6  0  0  0
  4  1  1  0  0  0  0
  4  8  1  0  0  0  0
  5 21  1  6  0  0  0
  5 16  1  0  0  0  0
  5 10  1  0  0  0  0
  6  9  2  0  0  0  0
  7  3  1  0  0  0  0
  8  9  1  0  0  0  0
  8 13  2  0  0  0  0
 10  2  1  0  0  0  0
 11  6  1  0  0  0  0
 12  3  2  0  0  0  0
 12 13  1  0  0  0  0
 14 24  1  6  0  0  0
 14 17  1  0  0  0  0
 15 11  2  0  0  0  0
 16 14  1  0  0  0  0
 17  7  2  0  0  0  0
 18 22  1  0  0  0  0
 19 18  1  0  0  0  0
 20 18  2  0  0  0  0
 22 21  1  0  0  0  0
 23 21  2  0  0  0  0
 25 24  1  0  0  0  0
M  END
>  <MODEL>
2

>  <REMARK>
 VINA RESULT:      -9.8      3.596      6.885
  Name = 
  2 active torsions:
  status: ('A' for Active; 'I' for Inactive)
    1  A    between atoms: C_6  and  C_15
    2  A    between atoms: N_13  and  C_20
                            x       y       z     vdW  Elec       q    Type
                         _______ _______ _______ _____ _____    ______ ____

>  <TORSDO>
F 2

$$$$
=
 OpenBabel11052412503D

 25 28  0  0  1  0  0  0  0  0999 V2000
  187.6660  177.7340  145.8230 C   0  0  0  0  0  0  0  0  0  0  0  0
  186.7040  178.2530  144.9550 C   0  0  0  0  0  0  0  0  0  0  0  0
  186.4390  178.4990  147.7400 C   0  0  0  0  0  3  0  0  0  0  0  0
  188.8910  176.9350  145.5520 C   0  0  2  0  0  3  0  0  0  0  0  0
  185.5930  178.4220  142.7070 C   0  0  1  0  0  3  0  0  0  0  0  0
  191.6780  176.7830  146.2580 C   0  0  0  0  0  3  0  0  0  0  0  0
  185.5060  179.0340  146.9010 N   0  0  0  0  0  0  0  0  0  0  0  0
  189.3870  176.7560  146.9650 C   0  0  0  0  0  0  0  0  0  0  0  0
  190.7960  176.4380  147.2050 C   0  0  0  0  0  3  0  0  0  0  0  0
  186.8930  178.1710  143.4660 C   0  0  0  0  0  2  0  0  0  0  0  0
  191.2410  177.5080  145.0350 C   0  0  0  0  0  3  0  0  0  0  0  0
  187.5200  177.8270  147.1830 C   0  0  0  0  0  0  0  0  0  0  0  0
  188.6130  177.2520  147.8810 N   0  0  0  0  0  0  0  0  0  0  0  0
  184.4960  179.5000  144.6900 C   0  0  2  0  0  3  0  0  0  0  0  0
  189.9390  177.6400  144.7310 C   0  0  0  0  0  3  0  0  0  0  0  0
  184.9140  179.6850  143.2280 C   0  0  0  0  0  2  0  0  0  0  0  0
  185.6070  178.9410  145.5380 C   0  0  0  0  0  0  0  0  0  0  0  0
  184.8480  178.6270  138.9110 C   0  0  0  0  0  0  0  0  0  0  0  0
  183.6910  178.6120  138.1440 O   0  0  0  0  0  0  0  0  0  0  0  0
  185.9670  178.7270  138.3430 O   0  0  0  0  0  1  0  0  0  0  0  0
  185.8570  178.5330  141.2420 C   0  0  0  0  0  0  0  0  0  0  0  0
  184.7490  178.5290  140.3360 N   0  0  0  0  0  2  0  0  0  0  0  0
  187.0410  178.6280  140.8180 O   0  0  0  0  0  0  0  0  0  0  0  0
  183.3320  178.6310  144.7700 N   0  0  0  0  0  2  0  0  0  0  0  0
  182.3900  179.0810  143.7610 C   0  0  0  0  0  1  0  0  0  0  0  0
  1 12  1  0  0  0  0
  2 17  1  0  0  0  0
  2  1  2  0  0  0  0
  4 15  1  6  0  0  0
  4  1  1  0  0  0  0
  4  8  1  0  0  0  0
  5 21  1  6  0  0  0
  5 16  1  0  0  0  0
  5 10  1  0  0  0  0
  6  9  2  0  0  0  0
  7  3  1  0  0  0  0
  8  9  1  0  0  0  0
  8 13  2  0  0  0  0
 10  2  1  0  0  0  0
 11  6  1  0  0  0  0
 12  3  2  0  0  0  0
 12 13  1  0  0  0  0
 14 24  1  6  0  0  0
 14 17  1  0  0  0  0
 15 11  2  0  0  0  0
 16 14  1  0  0  0  0
 17  7  2  0  0  0  0
 18 22  1  0  0  0  0
 19 18  2  0  0  0  0
 20 18  1  0  0  0  0
 22 21  1  0  0  0  0
 23 21  2  0  0  0  0
 25 24  1  0  0  0  0
M  END
>  <MODEL>
3

>  <REMARK>
 VINA RESULT:      -9.7      3.832      7.322
  Name = 
  2 active torsions:
  status: ('A' for Active; 'I' for Inactive)
    1  A    between atoms: C_6  and  C_15
    2  A    between atoms: N_13  and  C_20
                            x       y       z     vdW  Elec       q    Type
                         _______ _______ _______ _____ _____    ______ ____

>  <TORSDO>
F 2

$$$$
=
 OpenBabel11052412503D

 25 28  0  0  1  0  0  0  0  0999 V2000
  186.2400  178.2610  144.2550 C   0  0  0  0  0  0  0  0  0  0  0  0
  187.4720  177.7700  143.8230 C   0  0  0  0  0  0  0  0  0  0  0  0
  186.7190  177.6440  146.5250 C   0  0  0  0  0  3  0  0  0  0  0  0
  185.1650  178.9750  143.5160 C   0  0  2  0  0  3  0  0  0  0  0  0
  189.3300  177.5830  142.1400 C   0  0  1  0  0  3  0  0  0  0  0  0
  182.3070  178.9860  143.1590 C   0  0  0  0  0  3  0  0  0  0  0  0
  187.9150  177.1350  146.1100 N   0  0  0  0  0  0  0  0  0  0  0  0
  184.1830  179.1760  144.6420 C   0  0  0  0  0  0  0  0  0  0  0  0
  182.7700  179.4170  144.3400 C   0  0  0  0  0  3  0  0  0  0  0  0
  187.8340  177.7840  142.3640 C   0  0  0  0  0  2  0  0  0  0  0  0
  183.1890  178.2430  142.2190 C   0  0  0  0  0  3  0  0  0  0  0  0
  185.8870  178.2280  145.5780 C   0  0  0  0  0  0  0  0  0  0  0  0
  184.5910  178.7620  145.8020 N   0  0  0  0  0  0  0  0  0  0  0  0
  189.6780  176.6480  144.4420 C   0  0  2  0  0  3  0  0  0  0  0  0
  184.5170  178.1780  142.4130 C   0  0  0  0  0  3  0  0  0  0  0  0
  189.8260  176.3830  142.9410 C   0  0  0  0  0  2  0  0  0  0  0  0
  188.3110  177.1710  144.8000 C   0  0  0  0  0  0  0  0  0  0  0  0
  189.3190  178.3240  138.3370 C   0  0  0  0  0  0  0  0  0  0  0  0
  188.7790  179.3260  137.5420 O   0  0  0  0  0  0  0  0  0  0  0  0
  189.9730  177.3910  137.8010 O   0  0  0  0  0  1  0  0  0  0  0  0
  189.6210  177.4020  140.6870 C   0  0  0  0  0  0  0  0  0  0  0  0
  189.1210  178.3660  139.7540 N   0  0  0  0  0  2  0  0  0  0  0  0
  190.2960  176.4120  140.2950 O   0  0  0  0  0  0  0  0  0  0  0  0
  190.6950  177.5880  144.8870 N   0  0  0  0  0  2  0  0  0  0  0  0
  191.5720  176.8720  145.7970 C   0  0  0  0  0  1  0  0  0  0  0  0
  1 12  1  0  0  0  0
  2  1  2  0  0  0  0
  2 17  1  0  0  0  0
  4 15  1  6  0  0  0
  4  1  1  0  0  0  0
  4  8  1  0  0  0  0
  5 21  1  6  0  0  0
  5 10  1  0  0  0  0
  5 16  1  0  0  0  0
  6  9  2  0  0  0  0
  7  3  1  0  0  0  0
  8 13  2  0  0  0  0
  9  8  1  0  0  0  0
 10  2  1  0  0  0  0
 11 15  2  0  0  0  0
 11  6  1  0  0  0  0
 12 13  1  0  0  0  0
 12  3  2  0  0  0  0
 14 17  1  0  0  0  0
 14 24  1  6  0  0  0
 16 14  1  0  0  0  0
 17  7  2  0  0  0  0
 18 22  1  0  0  0  0
 19 18  2  0  0  0  0
 20 18  1  0  0  0  0
 22 21  1  0  0  0  0
 23 21  2  0  0  0  0
 24 25  1  0  0  0  0
M  END
>  <MODEL>
4

>  <REMARK>
 VINA RESULT:      -9.7      2.930      5.101
  Name = 
  2 active torsions:
  status: ('A' for Active; 'I' for Inactive)
    1  A    between atoms: C_6  and  C_15
    2  A    between atoms: N_13  and  C_20
                            x       y       z     vdW  Elec       q    Type
                         _______ _______ _______ _____ _____    ______ ____

>  <TORSDO>
F 2

$$$$
=
 OpenBabel11052412503D

 25 28  0  0  1  0  0  0  0  0999 V2000
  186.3540  178.2300  144.3310 C   0  0  0  0  0  0  0  0  0  0  0  0
  187.5640  177.7590  143.8190 C   0  0  0  0  0  0  0  0  0  0  0  0
  186.9510  177.5350  146.5500 C   0  0  0  0  0  3  0  0  0  0  0  0
  185.2400  178.9640  143.6740 C   0  0  2  0  0  3  0  0  0  0  0  0
  189.3320  177.6410  142.0360 C   0  0  1  0  0  3  0  0  0  0  0  0
  182.3680  178.9740  143.4660 C   0  0  0  0  0  3  0  0  0  0  0  0
  188.1250  177.0460  146.0560 N   0  0  0  0  0  0  0  0  0  0  0  0
  184.3170  179.1200  144.8560 C   0  0  0  0  0  0  0  0  0  0  0  0
  182.8890  179.3660  144.6360 C   0  0  0  0  0  3  0  0  0  0  0  0
  187.8490  177.8270  142.3440 C   0  0  0  0  0  2  0  0  0  0  0  0
  183.2020  178.2690  142.4560 C   0  0  0  0  0  3  0  0  0  0  0  0
  186.0700  178.1480  145.6690 C   0  0  0  0  0  0  0  0  0  0  0  0
  184.7860  178.6680  145.9770 N   0  0  0  0  0  0  0  0  0  0  0  0
  189.8010  176.6260  144.2830 C   0  0  2  0  0  3  0  0  0  0  0  0
  184.5380  178.2040  142.5790 C   0  0  0  0  0  3  0  0  0  0  0  0
  189.8730  176.4160  142.7680 C   0  0  0  0  0  2  0  0  0  0  0  0
  188.4530  177.1300  144.7290 C   0  0  0  0  0  0  0  0  0  0  0  0
  190.5920  176.1500  138.6900 C   0  0  0  0  0  0  0  0  0  0  0  0
  191.3400  175.0340  138.3420 O   0  0  0  0  0  1  0  0  0  0  0  0
  190.1780  176.9250  137.7880 O   0  0  0  0  0  0  0  0  0  0  0  0
  189.5480  177.5130  140.5650 C   0  0  0  0  0  0  0  0  0  0  0  0
  190.3050  176.4030  140.0700 N   0  0  0  0  0  2  0  0  0  0  0  0
  189.0680  178.3720  139.7770 O   0  0  0  0  0  0  0  0  0  0  0  0
  190.8370  177.5550  144.7090 N   0  0  0  0  0  2  0  0  0  0  0  0
  191.6220  176.8840  145.7290 C   0  0  0  0  0  1  0  0  0  0  0  0
  1 12  1  0  0  0  0
  2  1  2  0  0  0  0
  2 17  1  0  0  0  0
  4 15  1  6  0  0  0
  4  1  1  0  0  0  0
  4  8  1  0  0  0  0
  5 21  1  6  0  0  0
  5 10  1  0  0  0  0
  5 16  1  0  0  0  0
  6  9  2  0  0  0  0
  7  3  1  0  0  0  0
  8 13  2  0  0  0  0
  9  8  1  0  0  0  0
 10  2  1  0  0  0  0
 11 15  2  0  0  0  0
 11  6  1  0  0  0  0
 12 13  1  0  0  0  0
 12  3  2  0  0  0  0
 14 24  1  6  0  0  0
 14 17  1  0  0  0  0
 16 14  1  0  0  0  0
 17  7  2  0  0  0  0
 18 22  1  0  0  0  0
 19 18  1  0  0  0  0
 20 18  2  0  0  0  0
 22 21  1  0  0  0  0
 23 21  2  0  0  0  0
 24 25  1  0  0  0  0
M  END
>  <MODEL>
5

>  <REMARK>
 VINA RESULT:      -9.5      3.087      4.930
  Name = 
  2 active torsions:
  status: ('A' for Active; 'I' for Inactive)
    1  A    between atoms: C_6  and  C_15
    2  A    between atoms: N_13  and  C_20
                            x       y       z     vdW  Elec       q    Type
                         _______ _______ _______ _____ _____    ______ ____

>  <TORSDO>
F 2

$$$$
=
 OpenBabel11052412503D

 25 28  0  0  1  0  0  0  0  0999 V2000
  189.6390  177.4730  144.9410 C   0  0  0  0  0  0  0  0  0  0  0  0
  189.6090  177.3740  143.5500 C   0  0  0  0  0  0  0  0  0  0  0  0
  191.6800  176.2150  145.0510 C   0  0  0  0  0  3  0  0  0  0  0  0
  188.7460  178.2000  145.8830 C   0  0  2  0  0  3  0  0  0  0  0  0
  188.7910  178.0870  141.2820 C   0  0  1  0  0  3  0  0  0  0  0  0
  187.3250  177.8440  148.3620 C   0  0  0  0  0  3  0  0  0  0  0  0
  191.6480  176.0880  143.6920 N   0  0  0  0  0  0  0  0  0  0  0  0
  189.4140  177.8380  147.1850 C   0  0  0  0  0  0  0  0  0  0  0  0
  188.6600  177.9230  148.4380 C   0  0  0  0  0  3  0  0  0  0  0  0
  188.4600  177.9430  142.7650 C   0  0  0  0  0  2  0  0  0  0  0  0
  186.6460  177.6250  147.0560 C   0  0  0  0  0  3  0  0  0  0  0  0
  190.6660  176.9340  145.6700 C   0  0  0  0  0  0  0  0  0  0  0  0
  190.4960  177.1320  147.0650 N   0  0  0  0  0  0  0  0  0  0  0  0
  190.7300  176.5010  141.4310 C   0  0  2  0  0  3  0  0  0  0  0  0
  187.3170  177.7250  145.8970 C   0  0  0  0  0  3  0  0  0  0  0  0
  189.3900  176.7900  140.7480 C   0  0  0  0  0  2  0  0  0  0  0  0
  190.6490  176.6320  142.9290 C   0  0  0  0  0  0  0  0  0  0  0  0
  185.0850  178.9890  140.6030 C   0  0  0  0  0  0  0  0  0  0  0  0
  183.9550  179.1270  141.3970 O   0  0  0  0  0  1  0  0  0  0  0  0
  184.9970  179.1790  139.3610 O   0  0  0  0  0  0  0  0  0  0  0  0
  187.5690  178.4610  140.5090 C   0  0  0  0  0  0  0  0  0  0  0  0
  186.3330  178.6340  141.2080 N   0  0  0  0  0  2  0  0  0  0  0  0
  187.6350  178.6180  139.2600 O   0  0  0  0  0  0  0  0  0  0  0  0
  191.7570  177.3940  140.9150 N   0  0  0  0  0  2  0  0  0  0  0  0
  191.8850  177.1250  139.4950 C   0  0  0  0  0  1  0  0  0  0  0  0
  1 12  1  0  0  0  0
  1  4  1  0  0  0  0
  2  1  2  0  0  0  0
  3 12  2  0  0  0  0
  4 15  1  1  0  0  0
  4  8  1  0  0  0  0
  5 21  1  6  0  0  0
  5 10  1  0  0  0  0
  6  9  2  0  0  0  0
  7  3  1  0  0  0  0
  8  9  1  0  0  0  0
 10  2  1  0  0  0  0
 11  6  1  0  0  0  0
 12 13  1  0  0  0  0
 13  8  2  0  0  0  0
 14 24  1  6  0  0  0
 14 17  1  0  0  0  0
 15 11  2  0  0  0  0
 16  5  1  0  0  0  0
 16 14  1  0  0  0  0
 17  2  1  0  0  0  0
 17  7  2  0  0  0  0
 18 22  1  0  0  0  0
 18 19  1  0  0  0  0
 20 18  2  0  0  0  0
 21 22  1  0  0  0  0
 23 21  2  0  0  0  0
 25 24  1  0  0  0  0
M  END
>  <MODEL>
6

>  <REMARK>
 VINA RESULT:      -9.2      3.612      5.656
  Name = 
  2 active torsions:
  status: ('A' for Active; 'I' for Inactive)
    1  A    between atoms: C_6  and  C_15
    2  A    between atoms: N_13  and  C_20
                            x       y       z     vdW  Elec       q    Type
                         _______ _______ _______ _____ _____    ______ ____

>  <TORSDO>
F 2

$$$$
=
 OpenBabel11052412503D

 25 28  0  0  1  0  0  0  0  0999 V2000
  187.4880  177.8140  142.7190 C   0  0  0  0  0  0  0  0  0  0  0  0
  188.0510  177.9010  141.4460 C   0  0  0  0  0  0  0  0  0  0  0  0
  185.4610  178.8540  141.9640 C   0  0  0  0  0  3  0  0  0  0  0  0
  188.0030  177.1930  143.9690 C   0  0  2  0  0  3  0  0  0  0  0  0
  189.7540  177.2530  139.7140 C   0  0  1  0  0  3  0  0  0  0  0  0
  188.3000  177.7200  146.7850 C   0  0  0  0  0  3  0  0  0  0  0  0
  186.0110  178.9700  140.7200 N   0  0  0  0  0  0  0  0  0  0  0  0
  186.8480  177.4970  144.8890 C   0  0  0  0  0  0  0  0  0  0  0  0
  187.0560  177.5030  146.3400 C   0  0  0  0  0  3  0  0  0  0  0  0
  189.4630  177.4470  141.1990 C   0  0  0  0  0  2  0  0  0  0  0  0
  189.4140  177.9950  145.8360 C   0  0  0  0  0  3  0  0  0  0  0  0
  186.2130  178.2500  142.9640 C   0  0  0  0  0  0  0  0  0  0  0  0
  185.8400  178.0850  144.3230 N   0  0  0  0  0  0  0  0  0  0  0  0
  187.7750  178.6300  139.0170 C   0  0  2  0  0  3  0  0  0  0  0  0
  189.2630  177.8130  144.5140 C   0  0  0  0  0  3  0  0  0  0  0  0
  189.2960  178.4750  138.9240 C   0  0  0  0  0  2  0  0  0  0  0  0
  187.2740  178.5240  140.4340 C   0  0  0  0  0  0  0  0  0  0  0  0
  192.9850  176.0740  137.9300 C   0  0  0  0  0  0  0  0  0  0  0  0
  193.2580  175.4670  136.7120 O   0  0  0  0  0  0  0  0  0  0  0  0
  193.9320  176.3490  138.7130 O   0  0  0  0  0  1  0  0  0  0  0  0
  191.2090  177.0010  139.4960 C   0  0  0  0  0  0  0  0  0  0  0  0
  191.6290  176.3780  138.2770 N   0  0  0  0  0  2  0  0  0  0  0  0
  192.0480  177.3340  140.3760 O   0  0  0  0  0  0  0  0  0  0  0  0
  187.1190  177.6300  138.1890 N   0  0  0  0  0  2  0  0  0  0  0  0
  186.8420  178.2520  136.9060 C   0  0  0  0  0  1  0  0  0  0  0  0
  1 12  1  0  0  0  0
  1  4  1  0  0  0  0
  2  1  2  0  0  0  0
  3 12  2  0  0  0  0
  4 15  1  1  0  0  0
  4  8  1  0  0  0  0
  5 21  1  1  0  0  0
  5 10  1  0  0  0  0
  7  3  1  0  0  0  0
  8  9  1  0  0  0  0
  9  6  2  0  0  0  0
 10  2  1  0  0  0  0
 11  6  1  0  0  0  0
 12 13  1  0  0  0  0
 13  8  2  0  0  0  0
 14 24  1  6  0  0  0
 14 17  1  0  0  0  0
 15 11  2  0  0  0  0
 16 14  1  0  0  0  0
 16  5  1  0  0  0  0
 17  7  2  0  0  0  0
 17  2  1  0  0  0  0
 18 22  1  0  0  0  0
 18 20  1  0  0  0  0
 19 18  2  0  0  0  0
 21 23  2  0  0  0  0
 22 21  1  0  0  0  0
 25 24  1  0  0  0  0
M  END
>  <MODEL>
7

>  <REMARK>
 VINA RESULT:      -8.8      3.095      4.774
  Name = 
  2 active torsions:
  status: ('A' for Active; 'I' for Inactive)
    1  A    between atoms: C_6  and  C_15
    2  A    between atoms: N_13  and  C_20
                            x       y       z     vdW  Elec       q    Type
                         _______ _______ _______ _____ _____    ______ ____

>  <TORSDO>
F 2

$$$$
=
 OpenBabel11052412503D

 25 28  0  0  1  0  0  0  0  0999 V2000
  189.5210  177.5090  144.5900 C   0  0  0  0  0  0  0  0  0  0  0  0
  189.6110  177.3880  143.2030 C   0  0  0  0  0  0  0  0  0  0  0  0
  191.6200  176.3820  144.8880 C   0  0  0  0  0  3  0  0  0  0  0  0
  188.5120  178.1920  145.4430 C   0  0  2  0  0  3  0  0  0  0  0  0
  188.9390  178.0160  140.8640 C   0  0  1  0  0  3  0  0  0  0  0  0
  186.9170  177.7840  147.8050 C   0  0  0  0  0  3  0  0  0  0  0  0
  191.7060  176.2330  143.5350 N   0  0  0  0  0  0  0  0  0  0  0  0
  189.0920  177.8910  146.8010 C   0  0  0  0  0  0  0  0  0  0  0  0
  188.2340  177.9470  147.9870 C   0  0  0  0  0  3  0  0  0  0  0  0
  188.4980  177.8730  142.3170 C   0  0  0  0  0  2  0  0  0  0  0  0
  186.3620  177.5050  146.4530 C   0  0  0  0  0  3  0  0  0  0  0  0
  190.5160  177.0450  145.4100 C   0  0  0  0  0  0  0  0  0  0  0  0
  190.2210  177.2520  146.7820 N   0  0  0  0  0  0  0  0  0  0  0  0
  190.9530  176.5560  141.1990 C   0  0  2  0  0  3  0  0  0  0  0  0
  187.1180  177.6300  145.3500 C   0  0  0  0  0  3  0  0  0  0  0  0
  189.6580  176.7510  140.4040 C   0  0  0  0  0  2  0  0  0  0  0  0
  190.7420  176.7030  142.6830 C   0  0  0  0  0  0  0  0  0  0  0  0
  186.8540  178.3360  137.6140 C   0  0  0  0  0  0  0  0  0  0  0  0
  187.1070  178.1050  136.2690 O   0  0  0  0  0  0  0  0  0  0  0  0
  185.7190  178.7470  137.9700 O   0  0  0  0  0  1  0  0  0  0  0  0
  187.7650  178.3020  139.9870 C   0  0  0  0  0  0  0  0  0  0  0  0
  187.8900  178.1050  138.5750 N   0  0  0  0  0  2  0  0  0  0  0  0
  186.6830  178.7100  140.4910 O   0  0  0  0  0  0  0  0  0  0  0  0
  191.9620  177.5040  140.7510 N   0  0  0  0  0  2  0  0  0  0  0  0
  192.3400  177.1210  139.4020 C   0  0  0  0  0  1  0  0  0  0  0  0
  1 12  1  0  0  0  0
  1  4  1  0  0  0  0
  2  1  2  0  0  0  0
  3 12  2  0  0  0  0
  4 15  1  1  0  0  0
  4  8  1  0  0  0  0
  5 21  1  6  0  0  0
  5 10  1  0  0  0  0
  6  9  2  0  0  0  0
  7  3  1  0  0  0  0
  8  9  1  0  0  0  0
 10  2  1  0  0  0  0
 11  6  1  0  0  0  0
 12 13  1  0  0  0  0
 13  8  2  0  0  0  0
 14 24  1  6  0  0  0
 14 17  1  0  0  0  0
 15 11  2  0  0  0  0
 16  5  1  0  0  0  0
 16 14  1  0  0  0  0
 17  2  1  0  0  0  0
 17  7  2  0  0  0  0
 18 20  1  0  0  0  0
 18 22  1  0  0  0  0
 19 18  2  0  0  0  0
 21 23  2  0  0  0  0
 22 21  1  0  0  0  0
 25 24  1  0  0  0  0
M  END
>  <MODEL>
8

>  <REMARK>
 VINA RESULT:      -8.8      3.623      5.884
  Name = 
  2 active torsions:
  status: ('A' for Active; 'I' for Inactive)
    1  A    between atoms: C_6  and  C_15
    2  A    between atoms: N_13  and  C_20
                            x       y       z     vdW  Elec       q    Type
                         _______ _______ _______ _____ _____    ______ ____

>  <TORSDO>
F 2

$$$$
=
 OpenBabel11052412503D

 25 28  0  0  1  0  0  0  0  0999 V2000
  189.4060  177.2890  143.1150 C   0  0  0  0  0  0  0  0  0  0  0  0
  188.6130  177.6030  144.2190 C   0  0  0  0  0  0  0  0  0  0  0  0
  191.3850  177.2340  144.4720 C   0  0  0  0  0  3  0  0  0  0  0  0
  189.0370  177.0120  141.7010 C   0  0  2  0  0  3  0  0  0  0  0  0
  186.3950  177.7950  145.3870 C   0  0  1  0  0  3  0  0  0  0  0  0
  189.8000  177.6810  139.0060 C   0  0  0  0  0  3  0  0  0  0  0  0
  190.6250  177.5670  145.5540 N   0  0  0  0  0  0  0  0  0  0  0  0
  190.4100  176.7570  141.1330 C   0  0  0  0  0  0  0  0  0  0  0  0
  190.6380  176.8940  139.6930 C   0  0  0  0  0  3  0  0  0  0  0  0
  187.1410  177.8620  144.0570 C   0  0  0  0  0  2  0  0  0  0  0  0
  188.7140  178.4270  139.6970 C   0  0  0  0  0  3  0  0  0  0  0  0
  190.7530  177.0780  143.2450 C   0  0  0  0  0  0  0  0  0  0  0  0
  191.3730  176.7880  142.0020 N   0  0  0  0  0  0  0  0  0  0  0  0
  188.5010  178.0610  146.7260 C   0  0  2  0  0  3  0  0  0  0  0  0
  188.3940  178.1660  140.9760 C   0  0  0  0  0  3  0  0  0  0  0  0
  187.1120  178.6390  146.4360 C   0  0  0  0  0  2  0  0  0  0  0  0
  189.2720  177.7630  145.4670 C   0  0  0  0  0  0  0  0  0  0  0  0
  183.0760  178.6710  143.5910 C   0  0  0  0  0  0  0  0  0  0  0  0
  182.6410  178.6290  142.2740 O   0  0  0  0  0  0  0  0  0  0  0  0
  182.2910  179.0720  144.4910 O   0  0  0  0  0  1  0  0  0  0  0  0
  184.9840  178.2530  145.2180 C   0  0  0  0  0  0  0  0  0  0  0  0
  184.4100  178.2600  143.9060 N   0  0  0  0  0  2  0  0  0  0  0  0
  184.3160  178.6270  146.2190 O   0  0  0  0  0  0  0  0  0  0  0  0
  188.3820  176.8510  147.5260 N   0  0  0  0  0  2  0  0  0  0  0  0
  187.9300  177.2530  148.8460 C   0  0  0  0  0  1  0  0  0  0  0  0
  1 12  2  0  0  0  0
  1  2  1  0  0  0  0
  2 17  2  0  0  0  0
  3  7  2  0  0  0  0
  4 15  1  6  0  0  0
  4  1  1  0  0  0  0
  5 21  1  6  0  0  0
  5 16  1  0  0  0  0
  6  9  2  0  0  0  0
  6 11  1  0  0  0  0
  8  4  1  0  0  0  0
  8 13  2  0  0  0  0
  9  8  1  0  0  0  0
 10  2  1  0  0  0  0
 10  5  1  0  0  0  0
 11 15  2  0  0  0  0
 12  3  1  0  0  0  0
 13 12  1  0  0  0  0
 14 24  1  6  0  0  0
 16 14  1  0  0  0  0
 17  7  1  0  0  0  0
 17 14  1  0  0  0  0
 18 22  1  0  0  0  0
 18 20  1  0  0  0  0
 19 18  2  0  0  0  0
 21 23  2  0  0  0  0
 22 21  1  0  0  0  0
 24 25  1  0  0  0  0
M  END
>  <MODEL>
9

>  <REMARK>
 VINA RESULT:      -8.8      3.723      7.027
  Name = 
  2 active torsions:
  status: ('A' for Active; 'I' for Inactive)
    1  A    between atoms: C_6  and  C_15
    2  A    between atoms: N_13  and  C_20
                            x       y       z     vdW  Elec       q    Type
                         _______ _______ _______ _____ _____    ______ ____

>  <TORSDO>
F 2

$$$$
