=
 OpenBabel11052414543D

 55 61  0  0  1  0  0  0  0  0999 V2000
  178.9780  176.4790  141.0710 C   0  0  0  0  0  2  0  0  0  0  0  0
  183.7360  179.8940  138.9210 C   0  0  0  0  0  2  0  0  0  0  0  0
  185.8130  177.6270  136.6910 C   0  0  0  0  0  2  0  0  0  0  0  0
  185.8880  174.7960  135.4530 C   0  0  0  0  0  3  0  0  0  0  0  0
  185.4400  173.7930  134.5940 C   0  0  0  0  0  3  0  0  0  0  0  0
  183.7990  174.6900  136.6840 C   0  0  0  0  0  0  0  0  0  0  0  0
  183.3560  173.6840  135.8140 C   0  0  0  0  0  3  0  0  0  0  0  0
  186.7040  175.9070  138.0920 O   0  0  0  0  0  1  0  0  0  0  0  0
  184.1730  173.2400  134.7730 C   0  0  0  0  0  3  0  0  0  0  0  0
  185.0720  175.2520  136.4970 C   0  0  0  0  0  0  0  0  0  0  0  0
  179.7840  178.6090  141.1430 C   0  0  1  0  0  0  0  0  0  0  0  0
  180.0530  174.7050  139.8180 O   0  0  0  0  0  0  0  0  0  0  0  0
  179.3820  179.0650  139.7470 C   0  0  0  0  0  2  0  0  0  0  0  0
  181.2630  175.2500  139.3750 C   0  0  0  0  0  2  0  0  0  0  0  0
  181.6050  178.3220  138.2760 O   0  0  0  0  0  1  0  0  0  0  0  0
  182.9980  175.1500  137.7360 O   0  0  0  0  0  0  0  0  0  0  0  0
  184.1310  179.1980  137.6140 C   0  0  0  0  0  2  0  0  0  0  0  0
  185.5970  178.7960  137.6340 C   0  0  0  0  0  2  0  0  0  0  0  0
  183.1890  178.9760  139.9410 N   0  0  0  0  0  0  0  0  0  0  0  0
  179.1300  175.7600  139.7290 C   0  0  0  0  0  2  0  0  0  0  0  0
  185.5550  176.3220  137.4250 C   0  0  2  0  0  3  0  0  0  0  0  0
  180.1250  177.2510  141.3290 O   0  0  0  0  0  0  0  0  0  0  0  0
  181.8300  178.4870  139.6450 C   0  0  1  0  0  3  0  0  0  0  0  0
  181.6910  174.6660  138.0360 C   0  0  2  0  0  3  0  0  0  0  0  0
  180.7790  179.3990  140.2760 C   0  0  2  0  0  3  0  0  0  0  0  0
  180.7270  175.0750  136.9640 C   0  0  0  0  0  0  0  0  0  0  0  0
  179.6800  176.1830  135.5420 C   0  0  0  0  0  0  0  0  0  0  0  0
  179.7610  174.2750  136.4960 N   0  0  0  0  0  0  0  0  0  0  0  0
  179.1030  174.9740  135.5900 N   0  0  0  0  0  0  0  0  0  0  0  0
  180.7170  176.2890  136.3890 N   0  0  0  0  0  2  0  0  0  0  0  0
  179.2680  177.2590  134.5940 C   0  0  0  0  0  3  0  0  0  0  0  0
  180.2560  178.4080  134.6400 C   0  0  0  0  0  2  0  0  0  0  0  0
  178.9310  178.5250  135.3570 C   0  0  0  0  0  2  0  0  0  0  0  0
  184.0650  177.8260  140.1710 C   0  0  0  0  0  2  0  0  0  0  0  0
  184.1300  177.5080  141.6570 C   0  0  0  0  0  2  0  0  0  0  0  0
  187.6310  176.4400  143.9210 S   0  0  0  0  0  0  0  0  0  0  0  0
  185.9540  179.2140  141.9150 C   0  0  0  0  0  2  0  0  0  0  0  0
  186.0550  178.3940  144.5730 C   0  0  2  0  0  3  0  0  0  0  0  0
  184.6080  178.7210  142.4590 C   0  0  2  0  0  3  0  0  0  0  0  0
  184.6460  178.3960  143.9740 C   0  0  0  0  0  2  0  0  0  0  0  0
  187.0590  177.7310  143.6360 C   0  0  0  0  0  0  0  0  0  0  0  0
  187.0830  178.2090  142.2030 C   0  0  2  0  0  3  0  0  0  0  0  0
  184.7020  178.2960  146.7090 C   0  0  0  0  0  1  0  0  0  0  0  0
  187.1660  178.6930  146.8510 C   0  0  0  0  0  1  0  0  0  0  0  0
  186.0500  178.0310  146.0650 C   0  0  0  0  0  3  0  0  0  0  0  0
  188.4320  178.8240  141.8570 C   0  0  0  0  0  2  0  0  0  0  0  0
  188.8640  178.3800  140.4680 C   0  0  1  0  0  3  0  0  0  0  0  0
  189.9280  177.3300  140.4490 C   0  0  2  0  0  3  0  0  0  0  0  0
  188.5630  177.0170  140.3030 O   0  0  0  0  0  0  0  0  0  0  0  0
  190.3570  176.9640  141.7270 O   0  0  0  0  0  0  0  0  0  0  0  0
  191.9380  178.1310  143.0660 C   0  0  0  0  0  1  0  0  0  0  0  0
  191.6800  177.3780  141.7790 C   0  0  0  0  0  2  0  0  0  0  0  0
  179.2970  179.3980  142.3590 C   0  0  0  0  0  2  0  0  0  0  0  0
  179.0760  178.8180  144.7180 N   0  0  0  0  0  1  0  0  0  0  0  0
  180.0270  178.9670  143.6280 C   0  0  0  0  0  2  0  0  0  0  0  0
  1 22  1  0  0  0  0
  2 19  1  0  0  0  0
  3 21  1  0  0  0  0
  3 18  1  0  0  0  0
  4 10  1  0  0  0  0
  5  9  1  0  0  0  0
  5  4  2  0  0  0  0
  6 16  1  0  0  0  0
  7  6  1  0  0  0  0
  9  7  2  0  0  0  0
 10  6  2  0  0  0  0
 10 21  1  0  0  0  0
 11 22  1  0  0  0  0
 11 53  1  1  0  0  0
 13 11  1  0  0  0  0
 14 12  1  0  0  0  0
 16 24  1  0  0  0  0
 17 18  1  0  0  0  0
 17  2  1  0  0  0  0
 19 34  1  0  0  0  0
 20 12  1  0  0  0  0
 20  1  1  0  0  0  0
 21  8  1  6  0  0  0
 23 15  1  6  0  0  0
 23 19  1  0  0  0  0
 23 25  1  0  0  0  0
 24 26  1  6  0  0  0
 24 14  1  0  0  0  0
 25 13  1  6  0  0  0
 25 11  1  0  0  0  0
 27 29  2  0  0  0  0
 27 30  1  0  0  0  0
 28 26  2  0  0  0  0
 29 28  1  0  0  0  0
 30 26  1  0  0  0  0
 31 32  1  0  0  0  0
 31 33  1  0  0  0  0
 31 27  1  0  0  0  0
 32 33  1  0  0  0  0
 34 35  1  0  0  0  0
 37 42  1  0  0  0  0
 37 39  1  0  0  0  0
 38 45  1  1  0  0  0
 39 35  1  6  0  0  0
 39 40  1  0  0  0  0
 40 38  1  0  0  0  0
 41 36  2  0  0  0  0
 41 38  1  0  0  0  0
 42 46  1  1  0  0  0
 42 41  1  0  0  0  0
 45 43  1  0  0  0  0
 45 44  1  0  0  0  0
 47 46  1  1  0  0  0
 48 47  1  0  0  0  0
 48 50  1  1  0  0  0
 49 48  1  0  0  0  0
 49 47  1  0  0  0  0
 50 52  1  0  0  0  0
 52 51  1  0  0  0  0
 53 55  1  0  0  0  0
 55 54  1  0  0  0  0
M  END
>  <MODEL>
1

>  <REMARK>
 VINA RESULT:      -5.4      0.000      0.000
  Name = 
  12 active torsions:
  status: ('A' for Active; 'I' for Inactive)
    1  A    between atoms: C_3  and  C_21
    2  A    between atoms: C_6  and  O_25
    3  A    between atoms: C_8  and  C_20
    4  A    between atoms: C_8  and  C_22
    5  A    between atoms: C_10  and  C_32
    6  A    between atoms: C_12  and  C_50
    7  A    between atoms: C_13  and  C_52
    8  A    between atoms: C_21  and  C_53
    9  A    between atoms: C_22  and  N_43
   10  A    between atoms: O_25  and  C_38
   11  A    between atoms: C_27  and  C_55
   12  A    between atoms: C_41  and  C_55
                            x       y       z     vdW  Elec       q    Type
                         _______ _______ _______ _____ _____    ______ ____

>  <TORSDO>
F 12

$$$$
=
 OpenBabel11052414543D

 55 61  0  0  1  0  0  0  0  0999 V2000
  180.9830  176.9250  139.7810 C   0  0  0  0  0  2  0  0  0  0  0  0
  185.9530  179.2500  136.8110 C   0  0  0  0  0  2  0  0  0  0  0  0
  188.1240  176.3020  135.8020 C   0  0  0  0  0  2  0  0  0  0  0  0
  188.2180  173.2130  135.7800 C   0  0  0  0  0  3  0  0  0  0  0  0
  187.8060  171.9510  135.3520 C   0  0  0  0  0  3  0  0  0  0  0  0
  186.0480  173.5860  136.8010 C   0  0  0  0  0  0  0  0  0  0  0  0
  185.6430  172.3170  136.3650 C   0  0  0  0  0  3  0  0  0  0  0  0
  188.8780  175.2740  137.8240 O   0  0  0  0  0  1  0  0  0  0  0  0
  186.5180  171.5050  135.6430 C   0  0  0  0  0  3  0  0  0  0  0  0
  187.3430  174.0370  136.5000 C   0  0  0  0  0  0  0  0  0  0  0  0
  181.8300  178.9170  139.0700 C   0  0  1  0  0  0  0  0  0  0  0  0
  182.0990  174.8080  139.4030 O   0  0  0  0  0  0  0  0  0  0  0  0
  181.5340  178.7870  137.5820 C   0  0  0  0  0  2  0  0  0  0  0  0
  183.3480  175.1420  138.8700 C   0  0  0  0  0  2  0  0  0  0  0  0
  183.8350  177.5390  136.6830 O   0  0  0  0  0  1  0  0  0  0  0  0
  185.1880  174.4170  137.5290 O   0  0  0  0  0  0  0  0  0  0  0  0
  186.4190  178.0990  135.9130 C   0  0  0  0  0  2  0  0  0  0  0  0
  187.8710  177.7460  136.1940 C   0  0  0  0  0  2  0  0  0  0  0  0
  185.3170  178.8030  138.0680 N   0  0  0  0  0  0  0  0  0  0  0  0
  181.2090  175.7380  138.8420 C   0  0  0  0  0  2  0  0  0  0  0  0
  187.7860  175.3880  136.9670 C   0  0  2  0  0  3  0  0  0  0  0  0
  182.1260  177.7430  139.7970 O   0  0  0  0  0  0  0  0  0  0  0  0
  183.9700  178.2290  137.8900 C   0  0  1  0  0  3  0  0  0  0  0  0
  183.8530  174.0820  137.9000 C   0  0  2  0  0  3  0  0  0  0  0  0
  182.9000  179.3090  138.0360 C   0  0  2  0  0  3  0  0  0  0  0  0
  182.9740  174.0330  136.6880 C   0  0  0  0  0  0  0  0  0  0  0  0
  181.5570  173.4480  135.2750 C   0  0  0  0  0  0  0  0  0  0  0  0
  183.0620  174.9070  135.6770 N   0  0  0  0  0  0  0  0  0  0  0  0
  182.1590  174.5420  134.7860 N   0  0  0  0  0  0  0  0  0  0  0  0
  182.0350  173.0950  136.4800 N   0  0  0  0  0  2  0  0  0  0  0  0
  180.4250  172.7530  134.5940 C   0  0  0  0  0  3  0  0  0  0  0  0
  179.1060  173.3930  134.9820 C   0  0  0  0  0  2  0  0  0  0  0  0
  179.5290  172.0900  135.6210 C   0  0  0  0  0  2  0  0  0  0  0  0
  186.1480  177.8400  138.7910 C   0  0  0  0  0  2  0  0  0  0  0  0
  185.6090  177.6380  140.1990 C   0  0  0  0  0  2  0  0  0  0  0  0
  187.0860  176.4270  144.0550 S   0  0  0  0  0  0  0  0  0  0  0  0
  187.3540  179.0600  141.3120 C   0  0  0  0  0  2  0  0  0  0  0  0
  185.8750  178.6820  143.6390 C   0  0  2  0  0  3  0  0  0  0  0  0
  185.8520  178.8770  141.0640 C   0  0  2  0  0  3  0  0  0  0  0  0
  185.0240  178.8040  142.3720 C   0  0  0  0  0  2  0  0  0  0  0  0
  187.0450  177.7260  143.4350 C   0  0  0  0  0  0  0  0  0  0  0  0
  187.9150  177.9530  142.2210 C   0  0  2  0  0  3  0  0  0  0  0  0
  183.5850  179.0200  144.6620 C   0  0  0  0  0  1  0  0  0  0  0  0
  185.6100  179.2930  146.1030 C   0  0  0  0  0  1  0  0  0  0  0  0
  185.0150  178.5740  144.9060 C   0  0  0  0  0  3  0  0  0  0  0  0
  189.3440  178.2850  142.6300 C   0  0  0  0  0  2  0  0  0  0  0  0
  190.3030  177.2600  142.0450 C   0  0  1  0  0  3  0  0  0  0  0  0
  191.0360  176.4400  143.0580 C   0  0  2  0  0  3  0  0  0  0  0  0
  189.8800  175.9690  142.4080 O   0  0  0  0  0  0  0  0  0  0  0  0
  190.7230  176.7890  144.3740 O   0  0  0  0  0  0  0  0  0  0  0  0
  191.5860  176.6170  146.5840 C   0  0  0  0  0  1  0  0  0  0  0  0
  191.7250  176.2040  145.1350 C   0  0  0  0  0  2  0  0  0  0  0  0
  181.2800  180.1170  139.8420 C   0  0  0  0  0  2  0  0  0  0  0  0
  179.0490  179.2830  140.3670 N   0  0  0  0  0  1  0  0  0  0  0  0
  179.7800  180.2860  139.6100 C   0  0  0  0  0  2  0  0  0  0  0  0
  1 22  1  0  0  0  0
  2 19  1  0  0  0  0
  3 18  1  0  0  0  0
  3 21  1  0  0  0  0
  4 10  1  0  0  0  0
  5  9  1  0  0  0  0
  5  4  2  0  0  0  0
  6 16  1  0  0  0  0
  7  6  1  0  0  0  0
  9  7  2  0  0  0  0
 10  6  2  0  0  0  0
 10 21  1  0  0  0  0
 11 22  1  0  0  0  0
 11 53  1  1  0  0  0
 13 11  1  0  0  0  0
 14 12  1  0  0  0  0
 16 24  1  0  0  0  0
 17 18  1  0  0  0  0
 17  2  1  0  0  0  0
 19 34  1  0  0  0  0
 20 12  1  0  0  0  0
 20  1  1  0  0  0  0
 21  8  1  1  0  0  0
 23 15  1  6  0  0  0
 23 25  1  0  0  0  0
 23 19  1  0  0  0  0
 24 26  1  6  0  0  0
 24 14  1  0  0  0  0
 25 13  1  6  0  0  0
 25 11  1  0  0  0  0
 27 30  1  0  0  0  0
 28 26  2  0  0  0  0
 29 27  2  0  0  0  0
 29 28  1  0  0  0  0
 30 26  1  0  0  0  0
 31 32  1  0  0  0  0
 31 27  1  0  0  0  0
 31 33  1  0  0  0  0
 32 33  1  0  0  0  0
 34 35  1  0  0  0  0
 37 42  1  0  0  0  0
 38 45  1  1  0  0  0
 39 35  1  1  0  0  0
 39 37  1  0  0  0  0
 39 40  1  0  0  0  0
 40 38  1  0  0  0  0
 41 38  1  0  0  0  0
 41 36  2  0  0  0  0
 42 46  1  1  0  0  0
 42 41  1  0  0  0  0
 43 45  1  0  0  0  0
 45 44  1  0  0  0  0
 47 49  1  0  0  0  0
 47 46  1  1  0  0  0
 47 48  1  0  0  0  0
 48 50  1  1  0  0  0
 49 48  1  0  0  0  0
 50 52  1  0  0  0  0
 52 51  1  0  0  0  0
 55 53  1  0  0  0  0
 55 54  1  0  0  0  0
M  END
>  <MODEL>
2

>  <REMARK>
 VINA RESULT:      -4.9      2.080      2.902
  Name = 
  12 active torsions:
  status: ('A' for Active; 'I' for Inactive)
    1  A    between atoms: C_3  and  C_21
    2  A    between atoms: C_6  and  O_25
    3  A    between atoms: C_8  and  C_20
    4  A    between atoms: C_8  and  C_22
    5  A    between atoms: C_10  and  C_32
    6  A    between atoms: C_12  and  C_50
    7  A    between atoms: C_13  and  C_52
    8  A    between atoms: C_21  and  C_53
    9  A    between atoms: C_22  and  N_43
   10  A    between atoms: O_25  and  C_38
   11  A    between atoms: C_27  and  C_55
   12  A    between atoms: C_41  and  C_55
                            x       y       z     vdW  Elec       q    Type
                         _______ _______ _______ _____ _____    ______ ____

>  <TORSDO>
F 12

$$$$
