=
 OpenBabel11052414483D

 55 59  0  0  1  0  0  0  0  0999 V2000
  187.0190  179.0060  140.7560 C   0  0  0  0  0  2  0  0  0  0  0  0
  184.4350  175.8210  137.6080 C   0  0  0  0  0  2  0  0  0  0  0  0
  187.4360  175.2270  137.1090 C   0  0  0  0  0  1  0  0  0  0  0  0
  190.3580  176.9040  136.8350 C   0  0  0  0  0  2  0  0  0  0  0  0
  191.6080  176.1490  136.3970 C   0  0  0  0  0  2  0  0  0  0  0  0
  191.2580  176.6730  139.1920 C   0  0  0  0  0  0  0  0  0  0  0  0
  192.6080  176.2670  138.6690 C   0  0  0  0  0  2  0  0  0  0  0  0
  187.7200  177.4050  137.9540 C   0  0  0  0  0  2  0  0  0  0  0  0
  192.8000  176.6410  137.2030 C   0  0  0  0  0  2  0  0  0  0  0  0
  185.6550  179.1460  142.8690 C   0  0  0  0  0  2  0  0  0  0  0  0
  190.1590  176.8840  138.3330 C   0  0  0  0  0  0  0  0  0  0  0  0
  183.1900  178.7450  141.3000 C   0  0  1  0  0  3  0  0  0  0  0  0
  187.3700  177.5250  140.8620 C   0  0  0  0  0  2  0  0  0  0  0  0
  184.5670  178.4440  140.7120 C   0  0  0  0  0  2  0  0  0  0  0  0
  189.8410  177.0410  141.1370 C   0  0  0  0  0  0  0  0  0  0  0  0
  183.5950  176.5110  138.5790 N   0  0  0  0  0  0  0  0  0  0  0  0
  191.0830  176.7350  140.5710 C   0  0  0  0  0  3  0  0  0  0  0  0
  185.6260  176.6900  137.2280 C   0  0  0  0  0  2  0  0  0  0  0  0
  186.8210  176.2560  137.9370 N   0  0  0  0  0  0  0  0  0  0  0  0
  184.2800  179.4820  143.4380 C   0  0  0  0  0  2  0  0  0  0  0  0
  182.7110  177.4190  138.2700 C   0  0  0  0  0  0  0  0  0  0  0  0
  185.6480  179.3150  141.3500 C   0  0  2  0  0  3  0  0  0  0  0  0
  188.8920  177.1800  138.8800 C   0  0  0  0  0  0  0  0  0  0  0  0
  188.7290  177.2590  140.2840 C   0  0  0  0  0  0  0  0  0  0  0  0
  181.9460  178.0550  139.2990 N   0  0  0  0  0  2  0  0  0  0  0  0
  182.1490  177.7970  140.7200 C   0  0  0  0  0  2  0  0  0  0  0  0
  183.2190  178.5760  142.8180 C   0  0  0  0  0  2  0  0  0  0  0  0
  188.4960  177.1290  143.2420 C   0  0  0  0  0  3  0  0  0  0  0  0
  189.5540  177.1560  145.4280 C   0  0  0  0  0  0  0  0  0  0  0  0
  190.9060  177.0810  143.4140 C   0  0  0  0  0  3  0  0  0  0  0  0
  190.8090  177.1120  144.8080 C   0  0  0  0  0  3  0  0  0  0  0  0
  188.3970  177.1600  144.6370 C   0  0  0  0  0  3  0  0  0  0  0  0
  189.7520  177.1010  142.6170 C   0  0  0  0  0  0  0  0  0  0  0  0
  189.4560  177.1930  146.8950 C   0  0  0  0  0  0  0  0  0  0  0  0
  188.8410  178.2660  147.5300 O   0  0  0  0  0  0  0  0  0  0  0  0
  189.9280  176.2540  147.5900 O   0  0  0  0  0  1  0  0  0  0  0  0
  182.4510  177.8110  136.8470 C   0  0  0  0  0  2  0  0  0  0  0  0
  180.9940  177.5770  136.4570 C   0  0  0  0  0  2  0  0  0  0  0  0
  181.5490  178.9910  134.6210 F   0  0  0  0  0  0  0  0  0  0  0  0
  180.4910  178.5700  135.4090 C   0  0  0  0  0  0  0  0  0  0  0  0
  179.5470  177.9660  134.5950 F   0  0  0  0  0  0  0  0  0  0  0  0
  179.8720  179.7570  136.1070 C   0  0  0  0  0  0  0  0  0  0  0  0
  179.1650  179.5680  137.0870 O   0  0  0  0  0  0  0  0  0  0  0  0
  178.9790  181.4940  134.6100 C   0  0  0  0  0  1  0  0  0  0  0  0
  181.2950  181.2860  134.9550 F   0  0  0  0  0  0  0  0  0  0  0  0
  180.0800  181.1750  135.6100 C   0  0  2  0  0  0  0  0  0  0  0  0
  180.0240  182.1610  136.8010 C   0  0  2  0  0  3  0  0  0  0  0  0
  179.3050  183.5030  136.5880 C   0  0  1  0  0  3  0  0  0  0  0  0
  179.3540  184.3040  137.7330 O   0  0  0  0  0  1  0  0  0  0  0  0
  179.8940  184.2100  135.4620 N   0  0  0  0  0  2  0  0  0  0  0  0
  180.9120  185.1020  135.9970 C   0  0  0  0  0  1  0  0  0  0  0  0
  181.2770  182.3150  137.4750 O   0  0  0  0  0  0  0  0  0  0  0  0
  181.6860  181.5690  138.5860 C   0  0  0  0  0  0  0  0  0  0  0  0
  180.8300  181.2130  139.4360 O   0  0  0  0  0  1  0  0  0  0  0  0
  183.0180  181.2230  138.7770 O   0  0  0  0  0  0  0  0  0  0  0  0
  1 13  1  0  0  0  0
  1 22  1  0  0  0  0
  2 16  1  0  0  0  0
  3 19  1  0  0  0  0
  4 11  1  0  0  0  0
  5  4  1  0  0  0  0
  5  9  1  0  0  0  0
  6 17  1  0  0  0  0
  7  6  1  0  0  0  0
  8 23  1  0  0  0  0
  9  7  1  0  0  0  0
 10 20  1  0  0  0  0
 11 23  1  0  0  0  0
 11  6  2  0  0  0  0
 12 14  1  6  0  0  0
 12 27  1  0  0  0  0
 15 33  1  0  0  0  0
 17 15  2  0  0  0  0
 18  2  1  0  0  0  0
 18 19  1  0  0  0  0
 19  8  1  0  0  0  0
 21 16  2  0  0  0  0
 21 25  1  0  0  0  0
 22 14  1  6  0  0  0
 22 10  1  0  0  0  0
 23 24  2  0  0  0  0
 24 13  1  0  0  0  0
 24 15  1  0  0  0  0
 25 26  1  0  0  0  0
 26 12  1  0  0  0  0
 27 20  1  0  0  0  0
 28 32  1  0  0  0  0
 29 34  1  0  0  0  0
 30 31  2  0  0  0  0
 31 29  1  0  0  0  0
 32 29  2  0  0  0  0
 33 28  2  0  0  0  0
 33 30  1  0  0  0  0
 34 35  2  0  0  0  0
 34 36  1  0  0  0  0
 37 21  1  0  0  0  0
 38 37  1  0  0  0  0
 39 40  1  0  0  0  0
 40 42  1  0  0  0  0
 40 38  1  0  0  0  0
 41 40  1  0  0  0  0
 42 43  2  0  0  0  0
 45 46  1  0  0  0  0
 46 44  1  6  0  0  0
 46 42  1  0  0  0  0
 46 47  1  0  0  0  0
 47 52  1  6  0  0  0
 48 47  1  0  0  0  0
 48 49  1  1  0  0  0
 50 51  1  0  0  0  0
 50 48  1  0  0  0  0
 52 53  1  0  0  0  0
 53 55  2  0  0  0  0
 53 54  1  0  0  0  0
M  END
>  <MODEL>
1

>  <REMARK>
 VINA RESULT:      -7.6      0.000      0.000
  Name = 
  12 active torsions:
  status: ('A' for Active; 'I' for Inactive)
    1  A    between atoms: C_1  and  O_53
    2  A    between atoms: C_6  and  C_14
    3  A    between atoms: C_6  and  C_20
    4  A    between atoms: C_8  and  C_22
    5  A    between atoms: C_8  and  C_43
    6  A    between atoms: C_10  and  C_32
    7  A    between atoms: N_11  and  C_29
    8  A    between atoms: C_14  and  C_38
    9  A    between atoms: C_20  and  C_22
   10  A    between atoms: C_29  and  C_38
   11  A    between atoms: C_33  and  C_52
   12  A    between atoms: C_38  and  O_53
                            x       y       z     vdW  Elec       q    Type
                         _______ _______ _______ _____ _____    ______ ____

>  <TORSDO>
F 12

$$$$
=
 OpenBabel11052414483D

 55 59  0  0  1  0  0  0  0  0999 V2000
  186.9010  179.3390  141.2900 C   0  0  0  0  0  2  0  0  0  0  0  0
  190.0930  175.4680  140.0400 C   0  0  0  0  0  2  0  0  0  0  0  0
  190.0910  175.5740  143.1380 C   0  0  0  0  0  1  0  0  0  0  0  0
  190.0840  177.8780  145.6120 C   0  0  0  0  0  2  0  0  0  0  0  0
  190.2640  177.4170  147.0540 C   0  0  0  0  0  2  0  0  0  0  0  0
  187.6090  177.9930  146.1420 C   0  0  0  0  0  0  0  0  0  0  0  0
  187.8890  177.8900  147.6160 C   0  0  0  0  0  2  0  0  0  0  0  0
  189.4130  177.8000  142.7830 C   0  0  0  0  0  2  0  0  0  0  0  0
  189.3390  178.2200  147.9570 C   0  0  0  0  0  2  0  0  0  0  0  0
  185.0320  179.2660  139.6030 C   0  0  0  0  0  2  0  0  0  0  0  0
  188.6350  177.8920  145.1800 C   0  0  0  0  0  0  0  0  0  0  0  0
  186.9030  178.2100  137.5820 C   0  0  1  0  0  3  0  0  0  0  0  0
  186.6110  177.9910  141.9440 C   0  0  0  0  0  2  0  0  0  0  0  0
  187.2530  178.2110  139.0690 C   0  0  0  0  0  2  0  0  0  0  0  0
  185.9350  178.1210  144.3810 C   0  0  0  0  0  0  0  0  0  0  0  0
  189.3220  175.9910  138.9190 N   0  0  0  0  0  0  0  0  0  0  0  0
  186.2820  178.0870  145.7350 C   0  0  0  0  0  3  0  0  0  0  0  0
  190.3710  176.5730  141.0510 C   0  0  0  0  0  2  0  0  0  0  0  0
  189.4580  176.4730  142.1800 N   0  0  0  0  0  0  0  0  0  0  0  0
  184.7040  179.2970  138.1130 C   0  0  0  0  0  2  0  0  0  0  0  0
  189.8370  176.6470  137.9160 C   0  0  0  0  0  0  0  0  0  0  0  0
  186.5450  179.3470  139.8070 C   0  0  2  0  0  3  0  0  0  0  0  0
  188.3100  177.9090  143.8070 C   0  0  0  0  0  0  0  0  0  0  0  0
  186.9570  178.0220  143.4040 C   0  0  0  0  0  0  0  0  0  0  0  0
  188.9940  177.1380  136.8700 N   0  0  0  0  0  2  0  0  0  0  0  0
  187.5410  177.0130  136.8910 C   0  0  0  0  0  2  0  0  0  0  0  0
  185.3880  178.1340  137.3990 C   0  0  0  0  0  2  0  0  0  0  0  0
  183.5680  178.6040  145.0260 C   0  0  0  0  0  3  0  0  0  0  0  0
  181.7650  178.5240  143.4020 C   0  0  0  0  0  0  0  0  0  0  0  0
  184.0440  178.0360  142.7260 C   0  0  0  0  0  3  0  0  0  0  0  0
  182.6900  178.1740  142.4100 C   0  0  0  0  0  3  0  0  0  0  0  0
  182.2120  178.7420  144.7110 C   0  0  0  0  0  3  0  0  0  0  0  0
  184.4950  178.2370  144.0390 C   0  0  0  0  0  0  0  0  0  0  0  0
  180.3390  178.6630  143.0650 C   0  0  0  0  0  0  0  0  0  0  0  0
  179.5560  177.5350  142.8510 O   0  0  0  0  0  0  0  0  0  0  0  0
  179.8150  179.8050  142.9690 O   0  0  0  0  0  1  0  0  0  0  0  0
  191.3130  176.8890  137.8110 C   0  0  0  0  0  2  0  0  0  0  0  0
  192.0170  175.7570  137.0670 C   0  0  0  0  0  2  0  0  0  0  0  0
  194.0550  176.8770  136.5500 F   0  0  0  0  0  0  0  0  0  0  0  0
  193.5360  175.7900  137.2330 C   0  0  0  0  0  0  0  0  0  0  0  0
  193.8670  175.9100  138.5720 F   0  0  0  0  0  0  0  0  0  0  0  0
  194.1240  174.5140  136.6790 C   0  0  0  0  0  0  0  0  0  0  0  0
  193.6960  174.0740  135.6190 O   0  0  0  0  0  0  0  0  0  0  0  0
  195.6110  172.5590  136.5530 C   0  0  0  0  0  1  0  0  0  0  0  0
  194.7260  173.2590  138.6140 F   0  0  0  0  0  0  0  0  0  0  0  0
  195.2070  173.7470  137.4110 C   0  0  2  0  0  0  0  0  0  0  0  0
  196.4260  174.6680  137.6590 C   0  0  2  0  0  3  0  0  0  0  0  0
  197.3110  175.0260  136.4540 C   0  0  1  0  0  3  0  0  0  0  0  0
  197.1490  176.3610  136.0710 O   0  0  0  0  0  1  0  0  0  0  0  0
  198.7060  174.7660  136.7660 N   0  0  0  0  0  2  0  0  0  0  0  0
  199.0810  173.5400  136.0780 C   0  0  0  0  0  1  0  0  0  0  0  0
  197.1940  174.3020  138.8090 O   0  0  0  0  0  0  0  0  0  0  0  0
  197.1750  174.9800  140.0330 C   0  0  0  0  0  0  0  0  0  0  0  0
  198.1880  174.9360  140.7770 O   0  0  0  0  0  1  0  0  0  0  0  0
  196.0580  175.6940  140.4490 O   0  0  0  0  0  0  0  0  0  0  0  0
  1 13  1  0  0  0  0
  2 18  1  0  0  0  0
  4  5  1  0  0  0  0
  5  9  1  0  0  0  0
  6  7  1  0  0  0  0
  7  9  1  0  0  0  0
  8 23  1  0  0  0  0
 10 22  1  0  0  0  0
 11  4  1  0  0  0  0
 11  6  2  0  0  0  0
 12 26  1  6  0  0  0
 12 14  1  0  0  0  0
 13 24  1  0  0  0  0
 15 17  2  0  0  0  0
 16  2  1  0  0  0  0
 17  6  1  0  0  0  0
 18 19  1  0  0  0  0
 19  8  1  0  0  0  0
 19  3  1  0  0  0  0
 20 10  1  0  0  0  0
 21 16  2  0  0  0  0
 22 14  1  6  0  0  0
 22  1  1  0  0  0  0
 23 11  1  0  0  0  0
 24 23  2  0  0  0  0
 24 15  1  0  0  0  0
 25 26  1  0  0  0  0
 25 21  1  0  0  0  0
 27 12  1  0  0  0  0
 27 20  1  0  0  0  0
 29 32  2  0  0  0  0
 30 33  1  0  0  0  0
 31 30  2  0  0  0  0
 31 29  1  0  0  0  0
 32 28  1  0  0  0  0
 33 15  1  0  0  0  0
 33 28  2  0  0  0  0
 34 29  1  0  0  0  0
 35 34  2  0  0  0  0
 36 34  1  0  0  0  0
 37 21  1  0  0  0  0
 38 40  1  0  0  0  0
 38 37  1  0  0  0  0
 39 40  1  0  0  0  0
 40 41  1  0  0  0  0
 42 40  1  0  0  0  0
 42 46  1  0  0  0  0
 43 42  2  0  0  0  0
 46 44  1  6  0  0  0
 46 47  1  0  0  0  0
 46 45  1  0  0  0  0
 47 52  1  1  0  0  0
 48 49  1  1  0  0  0
 48 50  1  0  0  0  0
 48 47  1  0  0  0  0
 51 50  1  0  0  0  0
 52 53  1  0  0  0  0
 53 55  2  0  0  0  0
 53 54  1  0  0  0  0
M  END
>  <MODEL>
2

>  <REMARK>
 VINA RESULT:      -6.7      5.587     11.352
  Name = 
  12 active torsions:
  status: ('A' for Active; 'I' for Inactive)
    1  A    between atoms: C_1  and  O_53
    2  A    between atoms: C_6  and  C_14
    3  A    between atoms: C_6  and  C_20
    4  A    between atoms: C_8  and  C_22
    5  A    between atoms: C_8  and  C_43
    6  A    between atoms: C_10  and  C_32
    7  A    between atoms: N_11  and  C_29
    8  A    between atoms: C_14  and  C_38
    9  A    between atoms: C_20  and  C_22
   10  A    between atoms: C_29  and  C_38
   11  A    between atoms: C_33  and  C_52
   12  A    between atoms: C_38  and  O_53
                            x       y       z     vdW  Elec       q    Type
                         _______ _______ _______ _____ _____    ______ ____

>  <TORSDO>
F 12

$$$$
=
 OpenBabel11052414483D

 55 59  0  0  1  0  0  0  0  0999 V2000
  187.2150  176.3550  142.6810 C   0  0  0  0  0  2  0  0  0  0  0  0
  187.6090  179.2960  138.4470 C   0  0  0  0  0  2  0  0  0  0  0  0
  184.7950  179.8830  139.6050 C   0  0  0  0  0  1  0  0  0  0  0  0
  182.2330  178.2180  141.0510 C   0  0  0  0  0  2  0  0  0  0  0  0
  180.9220  178.9530  141.3090 C   0  0  0  0  0  2  0  0  0  0  0  0
  182.7350  178.6160  143.5030 C   0  0  0  0  0  0  0  0  0  0  0  0
  181.3040  178.9980  143.7650 C   0  0  0  0  0  2  0  0  0  0  0  0
  185.0720  177.7700  140.6040 C   0  0  0  0  0  2  0  0  0  0  0  0
  180.3650  178.5280  142.6590 C   0  0  0  0  0  2  0  0  0  0  0  0
  189.5040  176.3460  143.7320 C   0  0  0  0  0  2  0  0  0  0  0  0
  183.2050  178.3370  142.2030 C   0  0  0  0  0  0  0  0  0  0  0  0
  190.7270  176.6170  141.0620 C   0  0  1  0  0  3  0  0  0  0  0  0
  186.9330  177.8440  142.8680 C   0  0  0  0  0  2  0  0  0  0  0  0
  189.2410  176.8910  141.2900 C   0  0  0  0  0  2  0  0  0  0  0  0
  184.9840  178.3670  144.3980 C   0  0  0  0  0  0  0  0  0  0  0  0
  188.8590  178.6660  138.8540 N   0  0  0  0  0  0  0  0  0  0  0  0
  183.6250  178.6460  144.5720 C   0  0  0  0  0  3  0  0  0  0  0  0
  186.4260  178.4150  138.8230 C   0  0  0  0  0  2  0  0  0  0  0  0
  185.7870  178.9060  140.0350 N   0  0  0  0  0  0  0  0  0  0  0  0
  190.9780  176.0370  143.4910 C   0  0  0  0  0  2  0  0  0  0  0  0
  189.4640  177.7310  138.1750 C   0  0  0  0  0  0  0  0  0  0  0  0
  188.6980  176.0750  142.4620 C   0  0  2  0  0  3  0  0  0  0  0  0
  184.5750  178.0670  141.9990 C   0  0  0  0  0  0  0  0  0  0  0  0
  185.4690  178.0830  143.0970 C   0  0  0  0  0  0  0  0  0  0  0  0
  190.6810  177.1590  138.6680 N   0  0  0  0  0  2  0  0  0  0  0  0
  191.2650  177.5140  139.9560 C   0  0  0  0  0  2  0  0  0  0  0  0
  191.5130  176.8900  142.3430 C   0  0  0  0  0  2  0  0  0  0  0  0
  186.8910  177.4700  145.7430 C   0  0  0  0  0  3  0  0  0  0  0  0
  187.5650  178.4970  147.8380 C   0  0  0  0  0  0  0  0  0  0  0  0
  185.7000  179.4010  146.5750 C   0  0  0  0  0  3  0  0  0  0  0  0
  186.5450  179.4440  147.6880 C   0  0  0  0  0  3  0  0  0  0  0  0
  187.7360  177.5120  146.8560 C   0  0  0  0  0  3  0  0  0  0  0  0
  185.8570  178.4070  145.5980 C   0  0  0  0  0  0  0  0  0  0  0  0
  188.4490  178.5440  149.0130 C   0  0  0  0  0  0  0  0  0  0  0  0
  189.8280  178.6210  148.8500 O   0  0  0  0  0  0  0  0  0  0  0  0
  187.9670  178.5140  150.1760 O   0  0  0  0  0  1  0  0  0  0  0  0
  188.9300  177.2410  136.8640 C   0  0  0  0  0  2  0  0  0  0  0  0
  187.9650  176.0730  137.0510 C   0  0  0  0  0  2  0  0  0  0  0  0
  188.9320  174.9680  135.1740 F   0  0  0  0  0  0  0  0  0  0  0  0
  188.4990  174.7610  136.4730 C   0  0  0  0  0  0  0  0  0  0  0  0
  189.5670  174.3080  137.2290 F   0  0  0  0  0  0  0  0  0  0  0  0
  187.3960  173.7290  136.4840 C   0  0  0  0  0  0  0  0  0  0  0  0
  187.4410  172.8210  137.3030 O   0  0  0  0  0  0  0  0  0  0  0  0
  186.3580  172.5450  134.5940 C   0  0  0  0  0  1  0  0  0  0  0  0
  186.3490  174.8940  134.6860 F   0  0  0  0  0  0  0  0  0  0  0  0
  186.2530  173.7700  135.4890 C   0  0  2  0  0  0  0  0  0  0  0  0
  184.9020  173.7680  136.2430 C   0  0  2  0  0  3  0  0  0  0  0  0
  183.9980  172.5340  136.0920 C   0  0  1  0  0  3  0  0  0  0  0  0
  183.9360  171.7900  137.2750 O   0  0  0  0  0  1  0  0  0  0  0  0
  182.6610  172.9420  135.6930 N   0  0  0  0  0  2  0  0  0  0  0  0
  181.7380  172.4470  136.7020 C   0  0  0  0  0  1  0  0  0  0  0  0
  184.1750  174.9950  136.1170 O   0  0  0  0  0  0  0  0  0  0  0  0
  183.8330  175.8360  137.1820 C   0  0  0  0  0  0  0  0  0  0  0  0
  183.8660  177.0820  137.0170 O   0  0  0  0  0  0  0  0  0  0  0  0
  183.4680  175.3240  138.4210 O   0  0  0  0  0  1  0  0  0  0  0  0
  1 13  1  0  0  0  0
  2 18  1  0  0  0  0
  2 16  1  0  0  0  0
  3 19  1  0  0  0  0
  4  5  1  0  0  0  0
  4 11  1  0  0  0  0
  5  9  1  0  0  0  0
  6  7  1  0  0  0  0
  6 17  1  0  0  0  0
  8 23  1  0  0  0  0
  9  7  1  0  0  0  0
 11  6  2  0  0  0  0
 12 26  1  6  0  0  0
 12 14  1  0  0  0  0
 12 27  1  0  0  0  0
 13 24  1  0  0  0  0
 15 17  2  0  0  0  0
 15 33  1  0  0  0  0
 18 19  1  0  0  0  0
 19  8  1  0  0  0  0
 20 10  1  0  0  0  0
 21 25  1  0  0  0  0
 21 16  2  0  0  0  0
 22 14  1  6  0  0  0
 22  1  1  0  0  0  0
 22 10  1  0  0  0  0
 23 11  1  0  0  0  0
 23 24  2  0  0  0  0
 24 15  1  0  0  0  0
 25 26  1  0  0  0  0
 27 20  1  0  0  0  0
 28 32  1  0  0  0  0
 29 34  1  0  0  0  0
 30 31  2  0  0  0  0
 31 29  1  0  0  0  0
 32 29  2  0  0  0  0
 33 28  2  0  0  0  0
 33 30  1  0  0  0  0
 34 36  1  0  0  0  0
 35 34  2  0  0  0  0
 37 38  1  0  0  0  0
 37 21  1  0  0  0  0
 39 40  1  0  0  0  0
 40 42  1  0  0  0  0
 40 38  1  0  0  0  0
 40 41  1  0  0  0  0
 42 43  2  0  0  0  0
 45 46  1  0  0  0  0
 46 44  1  6  0  0  0
 46 47  1  0  0  0  0
 46 42  1  0  0  0  0
 47 52  1  6  0  0  0
 48 47  1  0  0  0  0
 48 49  1  1  0  0  0
 50 48  1  0  0  0  0
 50 51  1  0  0  0  0
 52 53  1  0  0  0  0
 53 55  1  0  0  0  0
 54 53  2  0  0  0  0
M  END
>  <MODEL>
3

>  <REMARK>
 VINA RESULT:      -6.3      3.980      7.868
  Name = 
  12 active torsions:
  status: ('A' for Active; 'I' for Inactive)
    1  A    between atoms: C_1  and  O_53
    2  A    between atoms: C_6  and  C_14
    3  A    between atoms: C_6  and  C_20
    4  A    between atoms: C_8  and  C_22
    5  A    between atoms: C_8  and  C_43
    6  A    between atoms: C_10  and  C_32
    7  A    between atoms: N_11  and  C_29
    8  A    between atoms: C_14  and  C_38
    9  A    between atoms: C_20  and  C_22
   10  A    between atoms: C_29  and  C_38
   11  A    between atoms: C_33  and  C_52
   12  A    between atoms: C_38  and  O_53
                            x       y       z     vdW  Elec       q    Type
                         _______ _______ _______ _____ _____    ______ ____

>  <TORSDO>
F 12

$$$$
=
 OpenBabel11052414483D

 55 59  0  0  1  0  0  0  0  0999 V2000
  187.4590  179.0380  140.8420 C   0  0  0  0  0  2  0  0  0  0  0  0
  184.4590  176.1290  137.7980 C   0  0  0  0  0  2  0  0  0  0  0  0
  187.3730  175.3870  137.0440 C   0  0  0  0  0  1  0  0  0  0  0  0
  190.3600  176.9070  136.6000 C   0  0  0  0  0  2  0  0  0  0  0  0
  191.5260  176.1000  136.0400 C   0  0  0  0  0  2  0  0  0  0  0  0
  191.4210  176.5340  138.8710 C   0  0  0  0  0  0  0  0  0  0  0  0
  192.7020  176.0740  138.2300 C   0  0  0  0  0  2  0  0  0  0  0  0
  187.8490  177.5110  137.9400 C   0  0  0  0  0  2  0  0  0  0  0  0
  192.8030  176.4930  136.7670 C   0  0  0  0  0  2  0  0  0  0  0  0
  186.2710  179.1720  143.0580 C   0  0  0  0  0  2  0  0  0  0  0  0
  190.2750  176.8400  138.1080 C   0  0  0  0  0  0  0  0  0  0  0  0
  183.6740  178.9720  141.6750 C   0  0  1  0  0  3  0  0  0  0  0  0
  187.7300  177.5370  140.8690 C   0  0  0  0  0  2  0  0  0  0  0  0
  184.9820  178.6160  140.9700 C   0  0  0  0  0  2  0  0  0  0  0  0
  190.1820  176.9050  140.9320 C   0  0  0  0  0  0  0  0  0  0  0  0
  183.7380  176.8260  138.8550 N   0  0  0  0  0  0  0  0  0  0  0  0
  191.3560  176.5520  140.2600 C   0  0  0  0  0  3  0  0  0  0  0  0
  185.6670  176.9440  137.3560 C   0  0  0  0  0  2  0  0  0  0  0  0
  186.8850  176.4160  137.9530 N   0  0  0  0  0  0  0  0  0  0  0  0
  184.9650  179.5620  143.7450 C   0  0  0  0  0  2  0  0  0  0  0  0
  182.8880  177.7940  138.6480 C   0  0  0  0  0  0  0  0  0  0  0  0
  186.1580  179.4010  141.5520 C   0  0  2  0  0  3  0  0  0  0  0  0
  189.0730  177.1850  138.7620 C   0  0  0  0  0  0  0  0  0  0  0  0
  189.0230  177.2170  140.1770 C   0  0  0  0  0  0  0  0  0  0  0  0
  182.2420  178.4310  139.7550 N   0  0  0  0  0  2  0  0  0  0  0  0
  182.5380  178.1070  141.1460 C   0  0  0  0  0  2  0  0  0  0  0  0
  183.8080  178.7420  143.1790 C   0  0  0  0  0  2  0  0  0  0  0  0
  191.4090  177.1750  143.0940 C   0  0  0  0  0  3  0  0  0  0  0  0
  190.2740  176.9900  145.2320 C   0  0  0  0  0  0  0  0  0  0  0  0
  189.0380  176.7100  143.1630 C   0  0  0  0  0  3  0  0  0  0  0  0
  189.0710  176.7440  144.5590 C   0  0  0  0  0  3  0  0  0  0  0  0
  191.4420  177.2090  144.4910 C   0  0  0  0  0  3  0  0  0  0  0  0
  190.2090  176.9120  142.4160 C   0  0  0  0  0  0  0  0  0  0  0  0
  190.3040  177.0210  146.7030 C   0  0  0  0  0  0  0  0  0  0  0  0
  191.4380  176.6040  147.3890 O   0  0  0  0  0  1  0  0  0  0  0  0
  189.3040  177.4250  147.3530 O   0  0  0  0  0  0  0  0  0  0  0  0
  182.5440  178.2550  137.2640 C   0  0  0  0  0  2  0  0  0  0  0  0
  181.1050  177.9050  136.8970 C   0  0  0  0  0  2  0  0  0  0  0  0
  180.4960  177.9990  134.5950 F   0  0  0  0  0  0  0  0  0  0  0  0
  180.9940  177.1510  135.5710 C   0  0  0  0  0  0  0  0  0  0  0  0
  182.2420  176.7040  135.1730 F   0  0  0  0  0  0  0  0  0  0  0  0
  180.0650  175.9740  135.7450 C   0  0  0  0  0  0  0  0  0  0  0  0
  178.9330  176.1680  136.1690 O   0  0  0  0  0  0  0  0  0  0  0  0
  181.8330  174.6190  134.7020 C   0  0  0  0  0  1  0  0  0  0  0  0
  179.5870  173.9350  134.6060 F   0  0  0  0  0  0  0  0  0  0  0  0
  180.5040  174.5560  135.4370 C   0  0  2  0  0  0  0  0  0  0  0  0
  180.6570  173.7570  136.7530 C   0  0  2  0  0  3  0  0  0  0  0  0
  180.9000  172.2430  136.6490 C   0  0  1  0  0  3  0  0  0  0  0  0
  181.8470  171.8050  137.5800 O   0  0  0  0  0  1  0  0  0  0  0  0
  179.6500  171.5240  136.8380 N   0  0  0  0  0  2  0  0  0  0  0  0
  179.6270  170.4370  135.8730 C   0  0  0  0  0  1  0  0  0  0  0  0
  179.6720  174.0850  137.7390 O   0  0  0  0  0  0  0  0  0  0  0  0
  179.9460  174.3650  139.0820 C   0  0  0  0  0  0  0  0  0  0  0  0
  180.1250  175.5580  139.4380 O   0  0  0  0  0  0  0  0  0  0  0  0
  180.0330  173.3530  140.0300 O   0  0  0  0  0  1  0  0  0  0  0  0
  1 13  1  0  0  0  0
  2 16  1  0  0  0  0
  3 19  1  0  0  0  0
  4 11  1  0  0  0  0
  5  4  1  0  0  0  0
  5  9  1  0  0  0  0
  6 17  1  0  0  0  0
  7  6  1  0  0  0  0
  8 19  1  0  0  0  0
  8 23  1  0  0  0  0
  9  7  1  0  0  0  0
 10 20  1  0  0  0  0
 11 23  1  0  0  0  0
 11  6  2  0  0  0  0
 12 14  1  6  0  0  0
 12 27  1  0  0  0  0
 14 22  1  0  0  0  0
 15 33  1  0  0  0  0
 17 15  2  0  0  0  0
 18  2  1  0  0  0  0
 18 19  1  0  0  0  0
 21 16  2  0  0  0  0
 21 25  1  0  0  0  0
 22  1  1  6  0  0  0
 22 10  1  0  0  0  0
 23 24  2  0  0  0  0
 24 13  1  0  0  0  0
 24 15  1  0  0  0  0
 25 26  1  0  0  0  0
 26 12  1  0  0  0  0
 27 20  1  0  0  0  0
 28 32  1  0  0  0  0
 29 34  1  0  0  0  0
 30 31  2  0  0  0  0
 31 29  1  0  0  0  0
 32 29  2  0  0  0  0
 33 28  2  0  0  0  0
 33 30  1  0  0  0  0
 34 36  2  0  0  0  0
 34 35  1  0  0  0  0
 37 21  1  0  0  0  0
 38 37  1  0  0  0  0
 39 40  1  0  0  0  0
 40 42  1  0  0  0  0
 40 38  1  0  0  0  0
 41 40  1  0  0  0  0
 42 43  2  0  0  0  0
 45 46  1  0  0  0  0
 46 44  1  6  0  0  0
 46 42  1  0  0  0  0
 46 47  1  0  0  0  0
 47 52  1  1  0  0  0
 48 47  1  0  0  0  0
 48 50  1  0  0  0  0
 48 49  1  1  0  0  0
 51 50  1  0  0  0  0
 52 53  1  0  0  0  0
 53 54  2  0  0  0  0
 53 55  1  0  0  0  0
M  END
>  <MODEL>
4

>  <REMARK>
 VINA RESULT:      -6.2      2.851      4.699
  Name = 
  12 active torsions:
  status: ('A' for Active; 'I' for Inactive)
    1  A    between atoms: C_1  and  O_53
    2  A    between atoms: C_6  and  C_14
    3  A    between atoms: C_6  and  C_20
    4  A    between atoms: C_8  and  C_22
    5  A    between atoms: C_8  and  C_43
    6  A    between atoms: C_10  and  C_32
    7  A    between atoms: N_11  and  C_29
    8  A    between atoms: C_14  and  C_38
    9  A    between atoms: C_20  and  C_22
   10  A    between atoms: C_29  and  C_38
   11  A    between atoms: C_33  and  C_52
   12  A    between atoms: C_38  and  O_53
                            x       y       z     vdW  Elec       q    Type
                         _______ _______ _______ _____ _____    ______ ____

>  <TORSDO>
F 12

$$$$
=
 OpenBabel11052414483D

 55 59  0  0  1  0  0  0  0  0999 V2000
  186.9960  179.3620  141.3980 C   0  0  0  0  0  2  0  0  0  0  0  0
  190.1520  175.4710  140.1220 C   0  0  0  0  0  2  0  0  0  0  0  0
  190.1550  175.5600  143.2200 C   0  0  0  0  0  1  0  0  0  0  0  0
  190.1720  177.8490  145.7070 C   0  0  0  0  0  2  0  0  0  0  0  0
  190.3490  177.3790  147.1470 C   0  0  0  0  0  2  0  0  0  0  0  0
  187.6980  177.9840  146.2420 C   0  0  0  0  0  0  0  0  0  0  0  0
  187.9800  177.8700  147.7150 C   0  0  0  0  0  2  0  0  0  0  0  0
  189.4960  177.7940  142.8790 C   0  0  0  0  0  2  0  0  0  0  0  0
  189.4330  178.1850  148.0550 C   0  0  0  0  0  2  0  0  0  0  0  0
  185.1240  179.3150  139.7130 C   0  0  0  0  0  2  0  0  0  0  0  0
  188.7230  177.8790  145.2780 C   0  0  0  0  0  0  0  0  0  0  0  0
  186.9820  178.2540  137.6840 C   0  0  1  0  0  3  0  0  0  0  0  0
  186.6950  178.0130  142.0450 C   0  0  0  0  0  2  0  0  0  0  0  0
  187.3350  178.2440  139.1710 C   0  0  0  0  0  2  0  0  0  0  0  0
  186.0230  178.1350  144.4840 C   0  0  0  0  0  0  0  0  0  0  0  0
  189.3840  176.0070  139.0050 N   0  0  0  0  0  0  0  0  0  0  0  0
  186.3720  178.0910  145.8370 C   0  0  0  0  0  3  0  0  0  0  0  0
  190.4410  176.5670  141.1380 C   0  0  0  0  0  2  0  0  0  0  0  0
  189.5290  176.4690  142.2690 N   0  0  0  0  0  0  0  0  0  0  0  0
  184.7940  179.3580  138.2240 C   0  0  0  0  0  2  0  0  0  0  0  0
  189.9040  176.6640  138.0050 C   0  0  0  0  0  0  0  0  0  0  0  0
  186.6370  179.3820  139.9150 C   0  0  2  0  0  3  0  0  0  0  0  0
  188.3950  177.9070  143.9050 C   0  0  0  0  0  0  0  0  0  0  0  0
  187.0430  178.0340  143.5040 C   0  0  0  0  0  0  0  0  0  0  0  0
  189.0630  177.1680  136.9620 N   0  0  0  0  0  2  0  0  0  0  0  0
  187.6090  177.0550  136.9850 C   0  0  0  0  0  2  0  0  0  0  0  0
  185.4670  178.1920  137.5030 C   0  0  0  0  0  2  0  0  0  0  0  0
  183.6580  178.6160  145.1390 C   0  0  0  0  0  3  0  0  0  0  0  0
  181.8550  178.5800  143.5140 C   0  0  0  0  0  0  0  0  0  0  0  0
  184.1320  178.0960  142.8270 C   0  0  0  0  0  3  0  0  0  0  0  0
  182.7790  178.2480  142.5150 C   0  0  0  0  0  3  0  0  0  0  0  0
  182.3040  178.7670  144.8280 C   0  0  0  0  0  3  0  0  0  0  0  0
  184.5840  178.2670  144.1450 C   0  0  0  0  0  0  0  0  0  0  0  0
  180.4310  178.7340  143.1810 C   0  0  0  0  0  0  0  0  0  0  0  0
  179.9030  179.9950  142.9230 O   0  0  0  0  0  0  0  0  0  0  0  0
  179.6760  177.7280  143.1250 O   0  0  0  0  0  1  0  0  0  0  0  0
  191.3810  176.8940  137.8990 C   0  0  0  0  0  2  0  0  0  0  0  0
  192.0760  175.7530  137.1600 C   0  0  0  0  0  2  0  0  0  0  0  0
  193.9300  177.1910  136.7480 F   0  0  0  0  0  0  0  0  0  0  0  0
  193.5970  175.9020  137.1300 C   0  0  0  0  0  0  0  0  0  0  0  0
  194.1240  175.6630  138.3880 F   0  0  0  0  0  0  0  0  0  0  0  0
  194.1730  174.9150  136.1430 C   0  0  0  0  0  0  0  0  0  0  0  0
  194.4280  175.2910  135.0070 O   0  0  0  0  0  0  0  0  0  0  0  0
  193.6180  172.5910  135.5570 C   0  0  0  0  0  1  0  0  0  0  0  0
  193.9690  173.2090  137.7970 F   0  0  0  0  0  0  0  0  0  0  0  0
  194.4170  173.4640  136.5120 C   0  0  2  0  0  0  0  0  0  0  0  0
  195.9260  173.1410  136.3990 C   0  0  2  0  0  3  0  0  0  0  0  0
  196.3470  171.6630  136.4390 C   0  0  1  0  0  3  0  0  0  0  0  0
  197.5900  171.4630  135.8300 O   0  0  0  0  0  1  0  0  0  0  0  0
  196.3880  171.1950  137.8150 N   0  0  0  0  0  2  0  0  0  0  0  0
  195.4300  170.1060  137.9290 C   0  0  0  0  0  1  0  0  0  0  0  0
  196.7500  173.9660  137.2280 O   0  0  0  0  0  0  0  0  0  0  0  0
  197.7560  174.8200  136.7600 C   0  0  0  0  0  0  0  0  0  0  0  0
  197.4680  176.0100  136.4740 O   0  0  0  0  0  0  0  0  0  0  0  0
  199.0630  174.3790  136.5960 O   0  0  0  0  0  1  0  0  0  0  0  0
  1 13  1  0  0  0  0
  2 18  1  0  0  0  0
  4  5  1  0  0  0  0
  5  9  1  0  0  0  0
  6  7  1  0  0  0  0
  7  9  1  0  0  0  0
  8 23  1  0  0  0  0
 10 22  1  0  0  0  0
 11  4  1  0  0  0  0
 11  6  2  0  0  0  0
 12 26  1  6  0  0  0
 12 14  1  0  0  0  0
 13 24  1  0  0  0  0
 15 17  2  0  0  0  0
 16  2  1  0  0  0  0
 17  6  1  0  0  0  0
 18 19  1  0  0  0  0
 19  8  1  0  0  0  0
 19  3  1  0  0  0  0
 20 10  1  0  0  0  0
 21 16  2  0  0  0  0
 22 14  1  6  0  0  0
 22  1  1  0  0  0  0
 23 11  1  0  0  0  0
 24 23  2  0  0  0  0
 24 15  1  0  0  0  0
 25 26  1  0  0  0  0
 25 21  1  0  0  0  0
 27 12  1  0  0  0  0
 27 20  1  0  0  0  0
 29 32  2  0  0  0  0
 30 33  1  0  0  0  0
 31 30  2  0  0  0  0
 31 29  1  0  0  0  0
 32 28  1  0  0  0  0
 33 15  1  0  0  0  0
 33 28  2  0  0  0  0
 34 29  1  0  0  0  0
 35 34  2  0  0  0  0
 36 34  1  0  0  0  0
 37 21  1  0  0  0  0
 38 37  1  0  0  0  0
 39 40  1  0  0  0  0
 40 38  1  0  0  0  0
 40 41  1  0  0  0  0
 42 46  1  0  0  0  0
 42 40  1  0  0  0  0
 43 42  2  0  0  0  0
 46 44  1  6  0  0  0
 46 45  1  0  0  0  0
 47 48  1  0  0  0  0
 47 46  1  0  0  0  0
 47 52  1  1  0  0  0
 48 49  1  1  0  0  0
 48 50  1  0  0  0  0
 50 51  1  0  0  0  0
 53 52  1  0  0  0  0
 54 53  2  0  0  0  0
 55 53  1  0  0  0  0
M  END
>  <MODEL>
5

>  <REMARK>
 VINA RESULT:      -6.1      5.939     11.450
  Name = 
  12 active torsions:
  status: ('A' for Active; 'I' for Inactive)
    1  A    between atoms: C_1  and  O_53
    2  A    between atoms: C_6  and  C_14
    3  A    between atoms: C_6  and  C_20
    4  A    between atoms: C_8  and  C_22
    5  A    between atoms: C_8  and  C_43
    6  A    between atoms: C_10  and  C_32
    7  A    between atoms: N_11  and  C_29
    8  A    between atoms: C_14  and  C_38
    9  A    between atoms: C_20  and  C_22
   10  A    between atoms: C_29  and  C_38
   11  A    between atoms: C_33  and  C_52
   12  A    between atoms: C_38  and  O_53
                            x       y       z     vdW  Elec       q    Type
                         _______ _______ _______ _____ _____    ______ ____

>  <TORSDO>
F 12

$$$$
=
 OpenBabel11052414483D

 55 59  0  0  1  0  0  0  0  0999 V2000
  187.0950  179.3530  141.3950 C   0  0  0  0  0  2  0  0  0  0  0  0
  190.2150  175.4310  140.1220 C   0  0  0  0  0  2  0  0  0  0  0  0
  190.2080  175.5130  143.2210 C   0  0  0  0  0  1  0  0  0  0  0  0
  190.2390  177.7980  145.7130 C   0  0  0  0  0  2  0  0  0  0  0  0
  190.4060  177.3230  147.1520 C   0  0  0  0  0  2  0  0  0  0  0  0
  187.7650  177.9570  146.2380 C   0  0  0  0  0  0  0  0  0  0  0  0
  188.0400  177.8370  147.7120 C   0  0  0  0  0  2  0  0  0  0  0  0
  189.5740  177.7550  142.8810 C   0  0  0  0  0  2  0  0  0  0  0  0
  189.4950  178.1360  148.0580 C   0  0  0  0  0  2  0  0  0  0  0  0
  185.2300  179.3280  139.7030 C   0  0  0  0  0  2  0  0  0  0  0  0
  188.7920  177.8430  145.2780 C   0  0  0  0  0  0  0  0  0  0  0  0
  187.0840  178.2520  137.6780 C   0  0  1  0  0  3  0  0  0  0  0  0
  186.7780  178.0050  142.0370 C   0  0  0  0  0  2  0  0  0  0  0  0
  187.4310  178.2350  139.1660 C   0  0  0  0  0  2  0  0  0  0  0  0
  186.0980  178.1300  144.4740 C   0  0  0  0  0  0  0  0  0  0  0  0
  189.4570  175.9770  139.0030 N   0  0  0  0  0  0  0  0  0  0  0  0
  186.4420  178.0790  145.8290 C   0  0  0  0  0  3  0  0  0  0  0  0
  190.5120  176.5220  141.1420 C   0  0  0  0  0  2  0  0  0  0  0  0
  189.5950  176.4310  142.2690 N   0  0  0  0  0  0  0  0  0  0  0  0
  184.9050  179.3770  138.2130 C   0  0  0  0  0  2  0  0  0  0  0  0
  189.9880  176.6300  138.0070 C   0  0  0  0  0  0  0  0  0  0  0  0
  186.7430  179.3780  139.9110 C   0  0  2  0  0  3  0  0  0  0  0  0
  188.4700  177.8770  143.9040 C   0  0  0  0  0  0  0  0  0  0  0  0
  187.1210  178.0190  143.4980 C   0  0  0  0  0  0  0  0  0  0  0  0
  189.1560  177.1450  136.9620 N   0  0  0  0  0  2  0  0  0  0  0  0
  187.7010  177.0480  136.9790 C   0  0  0  0  0  2  0  0  0  0  0  0
  185.5690  178.2060  137.4920 C   0  0  0  0  0  2  0  0  0  0  0  0
  184.2400  178.1210  142.8010 C   0  0  0  0  0  3  0  0  0  0  0  0
  181.9330  178.4920  143.4590 C   0  0  0  0  0  0  0  0  0  0  0  0
  183.7000  178.5210  145.1220 C   0  0  0  0  0  3  0  0  0  0  0  0
  182.3480  178.6320  144.7900 C   0  0  0  0  0  3  0  0  0  0  0  0
  182.8870  178.2320  142.4670 C   0  0  0  0  0  3  0  0  0  0  0  0
  184.6620  178.2770  144.1300 C   0  0  0  0  0  0  0  0  0  0  0  0
  180.5080  178.6140  143.1140 C   0  0  0  0  0  0  0  0  0  0  0  0
  180.1010  179.4970  142.1200 O   0  0  0  0  0  0  0  0  0  0  0  0
  179.6440  177.9210  143.7130 O   0  0  0  0  0  1  0  0  0  0  0  0
  191.4680  176.8450  137.9070 C   0  0  0  0  0  2  0  0  0  0  0  0
  192.0140  176.3790  136.5600 C   0  0  0  0  0  2  0  0  0  0  0  0
  193.1110  174.8360  138.0070 F   0  0  0  0  0  0  0  0  0  0  0  0
  193.0510  175.2630  136.6910 C   0  0  0  0  0  0  0  0  0  0  0  0
  192.6970  174.1880  135.8930 F   0  0  0  0  0  0  0  0  0  0  0  0
  194.4010  175.7880  136.2640 C   0  0  0  0  0  0  0  0  0  0  0  0
  194.5910  176.9970  136.2500 O   0  0  0  0  0  0  0  0  0  0  0  0
  196.6390  175.7090  135.2470 C   0  0  0  0  0  1  0  0  0  0  0  0
  195.0750  174.0060  134.8310 F   0  0  0  0  0  0  0  0  0  0  0  0
  195.5180  174.8610  135.8260 C   0  0  2  0  0  0  0  0  0  0  0  0
  196.0310  174.0480  137.0380 C   0  0  2  0  0  3  0  0  0  0  0  0
  196.3910  174.8190  138.3180 C   0  0  1  0  0  3  0  0  0  0  0  0
  196.1730  174.0490  139.4640 O   0  0  0  0  0  1  0  0  0  0  0  0
  197.7780  175.2510  138.2670 N   0  0  0  0  0  2  0  0  0  0  0  0
  198.3050  175.1740  139.6200 C   0  0  0  0  0  1  0  0  0  0  0  0
  197.0210  173.0730  136.6930 O   0  0  0  0  0  0  0  0  0  0  0  0
  196.7920  171.6950  136.6110 C   0  0  0  0  0  0  0  0  0  0  0  0
  197.0790  170.9630  137.5930 O   0  0  0  0  0  1  0  0  0  0  0  0
  196.2630  171.1150  135.4640 O   0  0  0  0  0  0  0  0  0  0  0  0
  1 13  1  0  0  0  0
  2 18  1  0  0  0  0
  4  5  1  0  0  0  0
  5  9  1  0  0  0  0
  6  7  1  0  0  0  0
  7  9  1  0  0  0  0
  8 23  1  0  0  0  0
 10 22  1  0  0  0  0
 11  4  1  0  0  0  0
 11  6  2  0  0  0  0
 12 26  1  6  0  0  0
 12 14  1  0  0  0  0
 13 24  1  0  0  0  0
 15 17  2  0  0  0  0
 16  2  1  0  0  0  0
 17  6  1  0  0  0  0
 18 19  1  0  0  0  0
 19  8  1  0  0  0  0
 19  3  1  0  0  0  0
 20 10  1  0  0  0  0
 21 16  2  0  0  0  0
 22 14  1  6  0  0  0
 22  1  1  0  0  0  0
 23 11  1  0  0  0  0
 24 23  2  0  0  0  0
 24 15  1  0  0  0  0
 25 26  1  0  0  0  0
 25 21  1  0  0  0  0
 27 12  1  0  0  0  0
 27 20  1  0  0  0  0
 28 33  1  0  0  0  0
 29 31  2  0  0  0  0
 31 30  1  0  0  0  0
 32 28  2  0  0  0  0
 32 29  1  0  0  0  0
 33 15  1  0  0  0  0
 33 30  2  0  0  0  0
 34 29  1  0  0  0  0
 34 36  1  0  0  0  0
 35 34  2  0  0  0  0
 37 21  1  0  0  0  0
 38 40  1  0  0  0  0
 38 37  1  0  0  0  0
 40 39  1  0  0  0  0
 41 40  1  0  0  0  0
 42 40  1  0  0  0  0
 43 42  2  0  0  0  0
 45 46  1  0  0  0  0
 46 44  1  6  0  0  0
 46 42  1  0  0  0  0
 46 47  1  0  0  0  0
 47 52  1  6  0  0  0
 47 48  1  0  0  0  0
 48 49  1  1  0  0  0
 50 48  1  0  0  0  0
 50 51  1  0  0  0  0
 53 52  1  0  0  0  0
 53 54  1  0  0  0  0
 55 53  2  0  0  0  0
M  END
>  <MODEL>
6

>  <REMARK>
 VINA RESULT:      -5.8      5.688     11.327
  Name = 
  12 active torsions:
  status: ('A' for Active; 'I' for Inactive)
    1  A    between atoms: C_1  and  O_53
    2  A    between atoms: C_6  and  C_14
    3  A    between atoms: C_6  and  C_20
    4  A    between atoms: C_8  and  C_22
    5  A    between atoms: C_8  and  C_43
    6  A    between atoms: C_10  and  C_32
    7  A    between atoms: N_11  and  C_29
    8  A    between atoms: C_14  and  C_38
    9  A    between atoms: C_20  and  C_22
   10  A    between atoms: C_29  and  C_38
   11  A    between atoms: C_33  and  C_52
   12  A    between atoms: C_38  and  O_53
                            x       y       z     vdW  Elec       q    Type
                         _______ _______ _______ _____ _____    ______ ____

>  <TORSDO>
F 12

$$$$
=
 OpenBabel11052414483D

 55 59  0  0  1  0  0  0  0  0999 V2000
  187.2820  176.3610  142.7570 C   0  0  0  0  0  2  0  0  0  0  0  0
  187.8090  179.2650  138.5110 C   0  0  0  0  0  2  0  0  0  0  0  0
  184.9570  179.8570  139.5730 C   0  0  0  0  0  1  0  0  0  0  0  0
  182.3530  178.2000  140.9510 C   0  0  0  0  0  2  0  0  0  0  0  0
  181.0330  178.9360  141.1600 C   0  0  0  0  0  2  0  0  0  0  0  0
  182.7750  178.6210  143.4140 C   0  0  0  0  0  0  0  0  0  0  0  0
  181.3360  179.0030  143.6260 C   0  0  0  0  0  2  0  0  0  0  0  0
  185.2050  177.7530  140.6000 C   0  0  0  0  0  2  0  0  0  0  0  0
  180.4330  178.5210  142.4950 C   0  0  0  0  0  2  0  0  0  0  0  0
  189.5370  176.3660  143.8800 C   0  0  0  0  0  2  0  0  0  0  0  0
  183.2870  178.3320  142.1320 C   0  0  0  0  0  0  0  0  0  0  0  0
  190.8450  176.6150  141.2490 C   0  0  1  0  0  3  0  0  0  0  0  0
  186.9930  177.8510  142.9210 C   0  0  0  0  0  2  0  0  0  0  0  0
  189.3520  176.8880  141.4260 C   0  0  0  0  0  2  0  0  0  0  0  0
  184.9950  178.3840  144.3830 C   0  0  0  0  0  0  0  0  0  0  0  0
  189.0460  178.6410  138.9640 N   0  0  0  0  0  0  0  0  0  0  0  0
  183.6300  178.6620  144.5100 C   0  0  0  0  0  3  0  0  0  0  0  0
  186.6150  178.3850  138.8570 C   0  0  0  0  0  2  0  0  0  0  0  0
  185.9370  178.8860  140.0430 N   0  0  0  0  0  0  0  0  0  0  0  0
  191.0190  176.0570  143.6900 C   0  0  0  0  0  2  0  0  0  0  0  0
  189.6740  177.7010  138.3140 C   0  0  0  0  0  0  0  0  0  0  0  0
  188.7730  176.0810  142.5880 C   0  0  2  0  0  3  0  0  0  0  0  0
  184.6640  178.0620  141.9750 C   0  0  0  0  0  0  0  0  0  0  0  0
  185.5220  178.0890  143.1010 C   0  0  0  0  0  0  0  0  0  0  0  0
  190.8740  177.1360  138.8500 N   0  0  0  0  0  2  0  0  0  0  0  0
  191.4160  177.5030  140.1530 C   0  0  0  0  0  2  0  0  0  0  0  0
  191.5890  176.9000  142.5520 C   0  0  0  0  0  2  0  0  0  0  0  0
  186.8190  177.4650  145.8260 C   0  0  0  0  0  3  0  0  0  0  0  0
  187.4650  178.5460  147.9020 C   0  0  0  0  0  0  0  0  0  0  0  0
  185.6800  179.4730  146.5440 C   0  0  0  0  0  3  0  0  0  0  0  0
  186.4890  179.5260  147.6820 C   0  0  0  0  0  3  0  0  0  0  0  0
  187.6280  177.5170  146.9650 C   0  0  0  0  0  3  0  0  0  0  0  0
  185.8290  178.4360  145.6100 C   0  0  0  0  0  0  0  0  0  0  0  0
  188.3100  178.6030  149.1040 C   0  0  0  0  0  0  0  0  0  0  0  0
  187.7310  178.6270  150.3680 O   0  0  0  0  0  1  0  0  0  0  0  0
  189.5650  178.6310  149.0020 O   0  0  0  0  0  0  0  0  0  0  0  0
  189.1820  177.1990  136.9890 C   0  0  0  0  0  2  0  0  0  0  0  0
  189.3370  175.6850  136.8710 C   0  0  0  0  0  2  0  0  0  0  0  0
  189.9580  174.6270  134.8280 F   0  0  0  0  0  0  0  0  0  0  0  0
  190.4760  175.2730  135.9380 C   0  0  0  0  0  0  0  0  0  0  0  0
  191.1720  176.3930  135.5130 F   0  0  0  0  0  0  0  0  0  0  0  0
  191.4120  174.3460  136.6760 C   0  0  0  0  0  0  0  0  0  0  0  0
  191.2790  174.2070  137.8850 O   0  0  0  0  0  0  0  0  0  0  0  0
  192.9690  174.4380  134.7750 C   0  0  0  0  0  1  0  0  0  0  0  0
  192.0740  172.3860  135.4910 F   0  0  0  0  0  0  0  0  0  0  0  0
  192.5280  173.6040  135.9680 C   0  0  2  0  0  0  0  0  0  0  0  0
  193.7130  173.3890  136.9380 C   0  0  2  0  0  3  0  0  0  0  0  0
  194.7720  174.5000  137.0360 C   0  0  1  0  0  3  0  0  0  0  0  0
  194.2760  175.6300  137.6920 O   0  0  0  0  0  1  0  0  0  0  0  0
  195.9520  174.0030  137.7250 N   0  0  0  0  0  2  0  0  0  0  0  0
  197.1070  174.6470  137.1200 C   0  0  0  0  0  1  0  0  0  0  0  0
  194.2980  172.0860  136.8450 O   0  0  0  0  0  0  0  0  0  0  0  0
  194.7860  171.5090  135.6670 C   0  0  0  0  0  0  0  0  0  0  0  0
  195.6820  172.1050  135.0160 O   0  0  0  0  0  0  0  0  0  0  0  0
  194.2950  170.2980  135.1960 O   0  0  0  0  0  1  0  0  0  0  0  0
  1 13  1  0  0  0  0
  2 18  1  0  0  0  0
  2 16  1  0  0  0  0
  3 19  1  0  0  0  0
  4  5  1  0  0  0  0
  4 11  1  0  0  0  0
  5  9  1  0  0  0  0
  6  7  1  0  0  0  0
  6 17  1  0  0  0  0
  8 23  1  0  0  0  0
  9  7  1  0  0  0  0
 11  6  2  0  0  0  0
 12 26  1  6  0  0  0
 12 14  1  0  0  0  0
 12 27  1  0  0  0  0
 13 24  1  0  0  0  0
 15 17  2  0  0  0  0
 15 33  1  0  0  0  0
 18 19  1  0  0  0  0
 19  8  1  0  0  0  0
 20 10  1  0  0  0  0
 21 25  1  0  0  0  0
 21 16  2  0  0  0  0
 22 14  1  6  0  0  0
 22  1  1  0  0  0  0
 22 10  1  0  0  0  0
 23 11  1  0  0  0  0
 23 24  2  0  0  0  0
 24 15  1  0  0  0  0
 25 26  1  0  0  0  0
 27 20  1  0  0  0  0
 28 32  1  0  0  0  0
 29 34  1  0  0  0  0
 30 31  2  0  0  0  0
 31 29  1  0  0  0  0
 32 29  2  0  0  0  0
 33 28  2  0  0  0  0
 33 30  1  0  0  0  0
 34 35  1  0  0  0  0
 36 34  2  0  0  0  0
 37 21  1  0  0  0  0
 38 37  1  0  0  0  0
 39 40  1  0  0  0  0
 40 42  1  0  0  0  0
 40 38  1  0  0  0  0
 41 40  1  0  0  0  0
 42 43  2  0  0  0  0
 45 46  1  0  0  0  0
 46 44  1  6  0  0  0
 46 42  1  0  0  0  0
 46 47  1  0  0  0  0
 47 52  1  6  0  0  0
 47 48  1  0  0  0  0
 48 49  1  1  0  0  0
 48 50  1  0  0  0  0
 51 50  1  0  0  0  0
 53 52  1  0  0  0  0
 54 53  2  0  0  0  0
 55 53  1  0  0  0  0
M  END
>  <MODEL>
7

>  <REMARK>
 VINA RESULT:      -5.7      5.656     10.332
  Name = 
  12 active torsions:
  status: ('A' for Active; 'I' for Inactive)
    1  A    between atoms: C_1  and  O_53
    2  A    between atoms: C_6  and  C_14
    3  A    between atoms: C_6  and  C_20
    4  A    between atoms: C_8  and  C_22
    5  A    between atoms: C_8  and  C_43
    6  A    between atoms: C_10  and  C_32
    7  A    between atoms: N_11  and  C_29
    8  A    between atoms: C_14  and  C_38
    9  A    between atoms: C_20  and  C_22
   10  A    between atoms: C_29  and  C_38
   11  A    between atoms: C_33  and  C_52
   12  A    between atoms: C_38  and  O_53
                            x       y       z     vdW  Elec       q    Type
                         _______ _______ _______ _____ _____    ______ ____

>  <TORSDO>
F 12

$$$$
=
 OpenBabel11052414483D

 55 59  0  0  1  0  0  0  0  0999 V2000
  185.1530  179.4130  141.3800 C   0  0  0  0  0  2  0  0  0  0  0  0
  181.6210  176.3100  139.2280 C   0  0  0  0  0  2  0  0  0  0  0  0
  184.1420  176.0620  137.4410 C   0  0  0  0  0  1  0  0  0  0  0  0
  186.5820  178.0350  136.1830 C   0  0  0  0  0  2  0  0  0  0  0  0
  187.5580  177.4510  135.1680 C   0  0  0  0  0  2  0  0  0  0  0  0
  188.4160  177.6660  137.8930 C   0  0  0  0  0  0  0  0  0  0  0  0
  189.4290  177.4460  136.8040 C   0  0  0  0  0  2  0  0  0  0  0  0
  184.6590  178.1660  138.3620 C   0  0  0  0  0  2  0  0  0  0  0  0
  188.9560  177.9770  135.4540 C   0  0  0  0  0  2  0  0  0  0  0  0
  184.8220  179.2150  143.8690 C   0  0  0  0  0  2  0  0  0  0  0  0
  187.0460  177.8510  137.6100 C   0  0  0  0  0  0  0  0  0  0  0  0
  181.9440  178.7290  143.4440 C   0  0  1  0  0  3  0  0  0  0  0  0
  185.5850  177.9700  141.1360 C   0  0  0  0  0  2  0  0  0  0  0  0
  182.9480  178.6210  142.2980 C   0  0  0  0  0  2  0  0  0  0  0  0
  187.9550  177.7060  140.2820 C   0  0  0  0  0  0  0  0  0  0  0  0
  181.2470  176.8180  140.5420 N   0  0  0  0  0  0  0  0  0  0  0  0
  188.8460  177.5780  139.2130 C   0  0  0  0  0  3  0  0  0  0  0  0
  182.4920  177.3240  138.4980 C   0  0  0  0  0  2  0  0  0  0  0  0
  183.8940  176.9420  138.5760 N   0  0  0  0  0  0  0  0  0  0  0  0
  183.8090  179.3580  145.0010 C   0  0  0  0  0  2  0  0  0  0  0  0
  180.2750  177.6610  140.7530 C   0  0  0  0  0  0  0  0  0  0  0  0
  184.1560  179.5290  142.5290 C   0  0  2  0  0  3  0  0  0  0  0  0
  186.1240  177.9690  138.6720 C   0  0  0  0  0  0  0  0  0  0  0  0
  186.5760  177.8950  140.0120 C   0  0  0  0  0  0  0  0  0  0  0  0
  179.9960  178.1170  142.0810 N   0  0  0  0  0  2  0  0  0  0  0  0
  180.8010  177.7450  143.2380 C   0  0  0  0  0  2  0  0  0  0  0  0
  182.6290  178.4180  144.7730 C   0  0  0  0  0  2  0  0  0  0  0  0
  187.6730  177.2390  142.7220 C   0  0  0  0  0  3  0  0  0  0  0  0
  189.5410  177.3740  144.2680 C   0  0  0  0  0  0  0  0  0  0  0  0
  189.8660  177.8470  141.9100 C   0  0  0  0  0  3  0  0  0  0  0  0
  190.3790  177.7320  143.2040 C   0  0  0  0  0  3  0  0  0  0  0  0
  188.1850  177.1240  144.0180 C   0  0  0  0  0  3  0  0  0  0  0  0
  188.5050  177.6130  141.6570 C   0  0  0  0  0  0  0  0  0  0  0  0
  190.0840  177.2580  145.6300 C   0  0  0  0  0  0  0  0  0  0  0  0
  191.3400  177.7740  145.9290 O   0  0  0  0  0  0  0  0  0  0  0  0
  189.4190  176.6930  146.5370 O   0  0  0  0  0  1  0  0  0  0  0  0
  179.4120  178.1620  139.6350 C   0  0  0  0  0  2  0  0  0  0  0  0
  179.1090  179.6510  139.7810 C   0  0  0  0  0  2  0  0  0  0  0  0
  180.7040  180.9330  141.0020 F   0  0  0  0  0  0  0  0  0  0  0  0
  180.3640  180.5220  139.7230 C   0  0  0  0  0  0  0  0  0  0  0  0
  181.4210  179.8010  139.1950 F   0  0  0  0  0  0  0  0  0  0  0  0
  180.0910  181.7290  138.8570 C   0  0  0  0  0  0  0  0  0  0  0  0
  178.9680  182.2150  138.8530 O   0  0  0  0  0  0  0  0  0  0  0  0
  182.5200  181.9500  138.5330 C   0  0  0  0  0  1  0  0  0  0  0  0
  181.0720  183.7180  137.9830 F   0  0  0  0  0  0  0  0  0  0  0  0
  181.1610  182.3360  137.9710 C   0  0  2  0  0  0  0  0  0  0  0  0
  181.0090  181.8050  136.5260 C   0  0  2  0  0  3  0  0  0  0  0  0
  179.9180  182.4310  135.6420 C   0  0  1  0  0  3  0  0  0  0  0  0
  178.9310  183.0600  136.4060 O   0  0  0  0  0  1  0  0  0  0  0  0
  180.5130  183.3840  134.7180 N   0  0  0  0  0  2  0  0  0  0  0  0
  179.9590  184.6920  135.0320 C   0  0  0  0  0  1  0  0  0  0  0  0
  181.0270  180.3760  136.4380 O   0  0  0  0  0  0  0  0  0  0  0  0
  180.0080  179.5950  135.8800 C   0  0  0  0  0  0  0  0  0  0  0  0
  178.9330  179.4420  136.5140 O   0  0  0  0  0  1  0  0  0  0  0  0
  180.1630  178.9780  134.6450 O   0  0  0  0  0  0  0  0  0  0  0  0
  2 16  1  0  0  0  0
  3 19  1  0  0  0  0
  4 11  1  0  0  0  0
  5  9  1  0  0  0  0
  5  4  1  0  0  0  0
  6 17  1  0  0  0  0
  7  6  1  0  0  0  0
  8 19  1  0  0  0  0
  8 23  1  0  0  0  0
  9  7  1  0  0  0  0
 10 20  1  0  0  0  0
 11  6  2  0  0  0  0
 11 23  1  0  0  0  0
 12 14  1  6  0  0  0
 12 27  1  0  0  0  0
 13  1  1  0  0  0  0
 14 22  1  0  0  0  0
 15 33  1  0  0  0  0
 16 21  2  0  0  0  0
 17 15  2  0  0  0  0
 18 19  1  0  0  0  0
 18  2  1  0  0  0  0
 21 25  1  0  0  0  0
 22  1  1  6  0  0  0
 22 10  1  0  0  0  0
 23 24  2  0  0  0  0
 24 15  1  0  0  0  0
 24 13  1  0  0  0  0
 25 26  1  0  0  0  0
 26 12  1  0  0  0  0
 27 20  1  0  0  0  0
 28 32  1  0  0  0  0
 29 34  1  0  0  0  0
 30 31  2  0  0  0  0
 31 29  1  0  0  0  0
 32 29  2  0  0  0  0
 33 30  1  0  0  0  0
 33 28  2  0  0  0  0
 34 35  2  0  0  0  0
 34 36  1  0  0  0  0
 37 38  1  0  0  0  0
 37 21  1  0  0  0  0
 40 38  1  0  0  0  0
 40 39  1  0  0  0  0
 41 40  1  0  0  0  0
 42 40  1  0  0  0  0
 43 42  2  0  0  0  0
 46 45  1  0  0  0  0
 46 44  1  1  0  0  0
 46 42  1  0  0  0  0
 47 52  1  1  0  0  0
 47 46  1  0  0  0  0
 48 49  1  1  0  0  0
 48 47  1  0  0  0  0
 50 51  1  0  0  0  0
 50 48  1  0  0  0  0
 53 52  1  0  0  0  0
 53 54  1  0  0  0  0
 55 53  2  0  0  0  0
M  END
>  <MODEL>
8

>  <REMARK>
 VINA RESULT:      -5.7      1.977      3.160
  Name = 
  12 active torsions:
  status: ('A' for Active; 'I' for Inactive)
    1  A    between atoms: C_1  and  O_53
    2  A    between atoms: C_6  and  C_14
    3  A    between atoms: C_6  and  C_20
    4  A    between atoms: C_8  and  C_22
    5  A    between atoms: C_8  and  C_43
    6  A    between atoms: C_10  and  C_32
    7  A    between atoms: N_11  and  C_29
    8  A    between atoms: C_14  and  C_38
    9  A    between atoms: C_20  and  C_22
   10  A    between atoms: C_29  and  C_38
   11  A    between atoms: C_33  and  C_52
   12  A    between atoms: C_38  and  O_53
                            x       y       z     vdW  Elec       q    Type
                         _______ _______ _______ _____ _____    ______ ____

>  <TORSDO>
F 12

$$$$
=
 OpenBabel11052414483D

 55 59  0  0  1  0  0  0  0  0999 V2000
  184.1190  178.2190  138.1150 C   0  0  0  0  0  2  0  0  0  0  0  0
  187.2630  177.5550  142.1660 C   0  0  0  0  0  2  0  0  0  0  0  0
  184.4230  177.8840  143.3650 C   0  0  0  0  0  1  0  0  0  0  0  0
  181.6380  179.7320  142.8590 C   0  0  0  0  0  2  0  0  0  0  0  0
  180.4970  179.6450  143.8660 C   0  0  0  0  0  2  0  0  0  0  0  0
  180.2690  178.1430  141.4360 C   0  0  0  0  0  0  0  0  0  0  0  0
  179.0520  178.3850  142.2850 C   0  0  0  0  0  2  0  0  0  0  0  0
  183.9930  178.9800  141.3260 C   0  0  0  0  0  2  0  0  0  0  0  0
  179.1700  179.6540  143.1240 C   0  0  0  0  0  2  0  0  0  0  0  0
  185.0200  176.7330  136.2910 C   0  0  0  0  0  2  0  0  0  0  0  0
  181.5240  178.7030  141.7570 C   0  0  0  0  0  0  0  0  0  0  0  0
  187.7510  177.1070  137.3400 C   0  0  1  0  0  3  0  0  0  0  0  0
  183.7380  177.1060  139.0870 C   0  0  0  0  0  2  0  0  0  0  0  0
  186.5210  177.4730  138.1700 C   0  0  0  0  0  2  0  0  0  0  0  0
  181.2580  176.9300  139.5730 C   0  0  0  0  0  0  0  0  0  0  0  0
  187.8920  177.3030  140.8760 N   0  0  0  0  0  0  0  0  0  0  0  0
  180.1570  177.2580  140.3700 C   0  0  0  0  0  3  0  0  0  0  0  0
  186.1850  178.6220  142.0290 C   0  0  0  0  0  2  0  0  0  0  0  0
  184.8650  178.0100  141.9820 N   0  0  0  0  0  0  0  0  0  0  0  0
  186.2510  176.4050  135.4530 C   0  0  0  0  0  2  0  0  0  0  0  0
  188.8300  178.0480  140.3590 C   0  0  0  0  0  0  0  0  0  0  0  0
  185.3410  177.8560  137.2770 C   0  0  2  0  0  3  0  0  0  0  0  0
  182.6540  178.3770  140.9770 C   0  0  0  0  0  0  0  0  0  0  0  0
  182.5240  177.4880  139.8830 C   0  0  0  0  0  0  0  0  0  0  0  0
  189.3730  177.7290  139.0740 N   0  0  0  0  0  2  0  0  0  0  0  0
  188.8780  176.6350  138.2480 C   0  0  0  0  0  2  0  0  0  0  0  0
  187.4080  175.9880  136.3580 C   0  0  0  0  0  2  0  0  0  0  0  0
  181.0730  176.4570  137.1250 C   0  0  0  0  0  3  0  0  0  0  0  0
  180.6920  174.2100  136.2880 C   0  0  0  0  0  0  0  0  0  0  0  0
  180.8540  174.6160  138.6750 C   0  0  0  0  0  3  0  0  0  0  0  0
  180.6760  173.7350  137.6060 C   0  0  0  0  0  3  0  0  0  0  0  0
  180.8950  175.5760  136.0540 C   0  0  0  0  0  3  0  0  0  0  0  0
  181.0410  175.9880  138.4470 C   0  0  0  0  0  0  0  0  0  0  0  0
  180.5000  173.2790  135.1650 C   0  0  0  0  0  0  0  0  0  0  0  0
  179.2270  173.0420  134.6600 O   0  0  0  0  0  1  0  0  0  0  0  0
  181.4860  172.6880  134.6510 O   0  0  0  0  0  0  0  0  0  0  0  0
  189.3820  179.2350  141.0890 C   0  0  0  0  0  2  0  0  0  0  0  0
  189.8070  178.8740  142.5100 C   0  0  0  0  0  2  0  0  0  0  0  0
  190.8030  176.8110  141.8540 F   0  0  0  0  0  0  0  0  0  0  0  0
  191.0480  177.9820  142.5520 C   0  0  0  0  0  0  0  0  0  0  0  0
  192.1210  178.6310  141.9630 F   0  0  0  0  0  0  0  0  0  0  0  0
  191.3790  177.6580  143.9890 C   0  0  0  0  0  0  0  0  0  0  0  0
  192.0980  178.4220  144.6200 O   0  0  0  0  0  0  0  0  0  0  0  0
  191.8770  175.2870  144.4160 C   0  0  0  0  0  1  0  0  0  0  0  0
  189.6610  176.0090  144.1110 F   0  0  0  0  0  0  0  0  0  0  0  0
  190.8690  176.4000  144.6630 C   0  0  2  0  0  0  0  0  0  0  0  0
  190.7060  176.6470  146.1820 C   0  0  2  0  0  3  0  0  0  0  0  0
  189.6300  177.6470  146.6340 C   0  0  1  0  0  3  0  0  0  0  0  0
  188.3490  177.2360  146.2520 O   0  0  0  0  0  1  0  0  0  0  0  0
  189.6850  177.8190  148.0770 N   0  0  0  0  0  2  0  0  0  0  0  0
  188.3500  178.1910  148.5190 C   0  0  0  0  0  1  0  0  0  0  0  0
  191.9490  176.8390  146.8660 O   0  0  0  0  0  0  0  0  0  0  0  0
  192.5410  175.9070  147.7260 C   0  0  0  0  0  0  0  0  0  0  0  0
  192.4180  174.6790  147.4820 O   0  0  0  0  0  0  0  0  0  0  0  0
  193.2540  176.3090  148.8490 O   0  0  0  0  0  1  0  0  0  0  0  0
  1 13  1  0  0  0  0
  4  5  1  0  0  0  0
  6 11  1  0  0  0  0
  6  7  1  0  0  0  0
  7  9  1  0  0  0  0
  8 19  1  0  0  0  0
  9  5  1  0  0  0  0
 11  4  1  0  0  0  0
 12 27  1  6  0  0  0
 12 14  1  0  0  0  0
 12 26  1  0  0  0  0
 13 24  1  0  0  0  0
 15 24  2  0  0  0  0
 15 17  1  0  0  0  0
 16  2  1  0  0  0  0
 17  6  2  0  0  0  0
 18  2  1  0  0  0  0
 19 18  1  0  0  0  0
 19  3  1  0  0  0  0
 20 10  1  0  0  0  0
 20 27  1  0  0  0  0
 21 16  2  0  0  0  0
 21 37  1  0  0  0  0
 22 10  1  6  0  0  0
 22  1  1  0  0  0  0
 22 14  1  0  0  0  0
 23  8  1  0  0  0  0
 23 11  2  0  0  0  0
 24 23  1  0  0  0  0
 25 21  1  0  0  0  0
 26 25  1  0  0  0  0
 28 33  1  0  0  0  0
 29 31  2  0  0  0  0
 31 30  1  0  0  0  0
 32 29  1  0  0  0  0
 32 28  2  0  0  0  0
 33 30  2  0  0  0  0
 33 15  1  0  0  0  0
 34 29  1  0  0  0  0
 35 34  1  0  0  0  0
 36 34  2  0  0  0  0
 37 38  1  0  0  0  0
 38 40  1  0  0  0  0
 39 40  1  0  0  0  0
 40 42  1  0  0  0  0
 41 40  1  0  0  0  0
 42 43  2  0  0  0  0
 42 46  1  0  0  0  0
 45 46  1  0  0  0  0
 46 44  1  6  0  0  0
 46 47  1  0  0  0  0
 47 48  1  0  0  0  0
 47 52  1  6  0  0  0
 48 49  1  1  0  0  0
 48 50  1  0  0  0  0
 50 51  1  0  0  0  0
 52 53  1  0  0  0  0
 53 55  1  0  0  0  0
 54 53  2  0  0  0  0
M  END
>  <MODEL>
9

>  <REMARK>
 VINA RESULT:      -5.5      5.147     11.624
  Name = 
  12 active torsions:
  status: ('A' for Active; 'I' for Inactive)
    1  A    between atoms: C_1  and  O_53
    2  A    between atoms: C_6  and  C_14
    3  A    between atoms: C_6  and  C_20
    4  A    between atoms: C_8  and  C_22
    5  A    between atoms: C_8  and  C_43
    6  A    between atoms: C_10  and  C_32
    7  A    between atoms: N_11  and  C_29
    8  A    between atoms: C_14  and  C_38
    9  A    between atoms: C_20  and  C_22
   10  A    between atoms: C_29  and  C_38
   11  A    between atoms: C_33  and  C_52
   12  A    between atoms: C_38  and  O_53
                            x       y       z     vdW  Elec       q    Type
                         _______ _______ _______ _____ _____    ______ ____

>  <TORSDO>
F 12

$$$$
