=
 OpenBabel11052413403D

 27 31  0  0  1  0  0  0  0  0999 V2000
  190.9410  177.6310  139.4830 C   0  0  0  0  0  2  0  0  0  0  0  0
  188.5440  178.0280  138.7830 C   0  0  2  0  0  3  0  0  0  0  0  0
  188.9750  175.7300  137.8980 C   0  0  0  0  0  2  0  0  0  0  0  0
  189.0820  179.0750  137.7880 C   0  0  0  0  0  2  0  0  0  0  0  0
  192.3080  175.6220  136.0250 C   0  0  0  0  0  2  0  0  0  0  0  0
  193.2100  175.9980  137.1660 C   0  0  0  0  0  0  0  0  0  0  0  0
  187.2040  177.0350  136.9190 C   0  0  1  0  0  3  0  0  0  0  0  0
  189.5200  177.7060  139.8330 N   0  0  0  0  0  0  0  0  0  0  0  0
  187.0160  178.4620  136.6470 N   0  0  0  0  0  2  0  0  0  0  0  0
  191.2580  176.3650  138.6920 C   0  0  2  0  0  3  0  0  0  0  0  0
  187.9980  176.8040  138.1460 N   0  0  2  0  0  0  0  0  0  0  0  0
  190.9360  175.1700  136.5100 C   0  0  0  0  0  2  0  0  0  0  0  0
  188.3340  179.0450  136.4620 C   0  0  0  0  0  2  0  0  0  0  0  0
  194.5830  176.0170  136.9600 O   0  0  0  0  0  1  0  0  0  0  0  0
  192.7260  176.3750  138.3530 C   0  0  0  0  0  3  0  0  0  0  0  0
  190.3540  176.2140  137.4530 C   0  0  1  0  0  3  0  0  0  0  0  0
  188.2040  176.5750  143.7160 C   0  0  0  0  0  3  0  0  0  0  0  0
  189.0740  177.3220  141.1490 C   0  0  0  0  0  0  0  0  0  0  0  0
  189.8160  176.4110  141.9190 C   0  0  0  0  0  3  0  0  0  0  0  0
  189.3830  176.0390  143.1950 C   0  0  0  0  0  3  0  0  0  0  0  0
  187.4570  177.4830  142.9620 C   0  0  0  0  0  3  0  0  0  0  0  0
  187.8890  177.8540  141.6860 C   0  0  0  0  0  3  0  0  0  0  0  0
  185.8400  176.3360  137.0260 C   0  0  2  0  0  3  0  0  0  0  0  0
  185.6810  175.3320  135.8900 C   0  0  0  0  0  1  0  0  0  0  0  0
  184.4690  177.7360  138.3440 C   0  0  0  0  0  2  0  0  0  0  0  0
  183.6080  176.7560  137.7030 C   0  0  0  0  0  2  0  0  0  0  0  0
  184.7550  177.3110  136.9620 N   0  0  0  0  0  0  0  0  0  0  0  0
  1  8  1  0  0  0  0
  2  4  1  6  0  0  0
  2  8  1  0  0  0  0
  5 12  1  0  0  0  0
  5  6  1  0  0  0  0
  6 15  2  0  0  0  0
  7 23  1  1  0  0  0
  7 11  1  0  0  0  0
  8 18  1  0  0  0  0
  9  7  1  0  0  0  0
 10 15  1  6  0  0  0
 10  1  1  0  0  0  0
 11  3  1  6  0  0  0
 11  2  1  0  0  0  0
 13  9  1  0  0  0  0
 13  4  1  0  0  0  0
 14  6  1  0  0  0  0
 16 12  1  6  0  0  0
 16  3  1  0  0  0  0
 16 10  1  0  0  0  0
 18 22  2  0  0  0  0
 18 19  1  0  0  0  0
 19 20  2  0  0  0  0
 20 17  1  0  0  0  0
 21 17  2  0  0  0  0
 22 21  1  0  0  0  0
 23 24  1  6  0  0  0
 26 25  1  0  0  0  0
 27 23  1  0  0  0  0
 27 26  1  0  0  0  0
 27 25  1  0  0  0  0
M  END
>  <MODEL>
1

>  <REMARK>
 VINA RESULT:      -6.6      0.000      0.000
  Name = 
  3 active torsions:
  status: ('A' for Active; 'I' for Inactive)
    1  A    between atoms: C_8  and  C_14
    2  A    between atoms: C_8  and  N_16
    3  A    between atoms: C_9  and  N_15
                            x       y       z     vdW  Elec       q    Type
                         _______ _______ _______ _____ _____    ______ ____

>  <TORSDO>
F 3

$$$$
=
 OpenBabel11052413403D

 27 31  0  0  1  0  0  0  0  0999 V2000
  190.6810  177.6530  139.6420 C   0  0  0  0  0  2  0  0  0  0  0  0
  188.3700  178.1450  138.7430 C   0  0  2  0  0  3  0  0  0  0  0  0
  188.7490  175.7990  137.9630 C   0  0  0  0  0  2  0  0  0  0  0  0
  189.0380  179.1290  137.7630 C   0  0  0  0  0  2  0  0  0  0  0  0
  192.2070  175.4640  136.3650 C   0  0  0  0  0  2  0  0  0  0  0  0
  193.0360  175.8330  137.5620 C   0  0  0  0  0  0  0  0  0  0  0  0
  187.1300  177.1570  136.8080 C   0  0  1  0  0  3  0  0  0  0  0  0
  189.2430  177.8100  139.8750 N   0  0  0  0  0  0  0  0  0  0  0  0
  187.0380  178.5810  136.4800 N   0  0  0  0  0  2  0  0  0  0  0  0
  190.9930  176.3470  138.9160 C   0  0  2  0  0  3  0  0  0  0  0  0
  187.8130  176.9290  138.1010 N   0  0  2  0  0  0  0  0  0  0  0  0
  190.7800  175.0970  136.7520 C   0  0  0  0  0  2  0  0  0  0  0  0
  188.3950  179.0920  136.3840 C   0  0  0  0  0  2  0  0  0  0  0  0
  194.4200  175.7770  137.4650 O   0  0  0  0  0  1  0  0  0  0  0  0
  192.4810  176.2730  138.6950 C   0  0  0  0  0  3  0  0  0  0  0  0
  190.1810  176.1990  137.6140 C   0  0  1  0  0  3  0  0  0  0  0  0
  187.5720  176.8780  143.6740 C   0  0  0  0  0  3  0  0  0  0  0  0
  188.6770  177.4930  141.1630 C   0  0  0  0  0  0  0  0  0  0  0  0
  189.2710  176.5230  141.9870 C   0  0  0  0  0  3  0  0  0  0  0  0
  188.7210  176.2170  143.2360 C   0  0  0  0  0  3  0  0  0  0  0  0
  186.9720  177.8450  142.8650 C   0  0  0  0  0  3  0  0  0  0  0  0
  187.5210  178.1510  141.6170 C   0  0  0  0  0  3  0  0  0  0  0  0
  185.7270  176.5300  136.8270 C   0  0  2  0  0  3  0  0  0  0  0  0
  184.8960  177.1510  137.9440 C   0  0  0  0  0  1  0  0  0  0  0  0
  186.2700  174.4910  135.7670 C   0  0  0  0  0  2  0  0  0  0  0  0
  184.8580  174.4460  136.1080 C   0  0  0  0  0  2  0  0  0  0  0  0
  185.8100  175.0870  137.0340 N   0  0  0  0  0  0  0  0  0  0  0  0
  1  8  1  0  0  0  0
  2  4  1  6  0  0  0
  2  8  1  0  0  0  0
  5 12  1  0  0  0  0
  5  6  1  0  0  0  0
  6 15  2  0  0  0  0
  7 23  1  1  0  0  0
  7 11  1  0  0  0  0
  8 18  1  0  0  0  0
  9  7  1  0  0  0  0
 10 15  1  6  0  0  0
 10  1  1  0  0  0  0
 11  3  1  6  0  0  0
 11  2  1  0  0  0  0
 13  9  1  0  0  0  0
 13  4  1  0  0  0  0
 14  6  1  0  0  0  0
 16 12  1  6  0  0  0
 16  3  1  0  0  0  0
 16 10  1  0  0  0  0
 18 22  2  0  0  0  0
 18 19  1  0  0  0  0
 19 20  2  0  0  0  0
 20 17  1  0  0  0  0
 21 17  2  0  0  0  0
 22 21  1  0  0  0  0
 23 27  1  0  0  0  0
 23 24  1  1  0  0  0
 25 26  1  0  0  0  0
 25 27  1  0  0  0  0
 26 27  1  0  0  0  0
M  END
>  <MODEL>
2

>  <REMARK>
 VINA RESULT:      -6.4      0.706      1.331
  Name = 
  3 active torsions:
  status: ('A' for Active; 'I' for Inactive)
    1  A    between atoms: C_8  and  C_14
    2  A    between atoms: C_8  and  N_16
    3  A    between atoms: C_9  and  N_15
                            x       y       z     vdW  Elec       q    Type
                         _______ _______ _______ _____ _____    ______ ____

>  <TORSDO>
F 3

$$$$
=
 OpenBabel11052413403D

 27 31  0  0  1  0  0  0  0  0999 V2000
  184.5820  179.2590  139.6160 C   0  0  0  0  0  2  0  0  0  0  0  0
  182.1020  178.8960  139.9450 C   0  0  2  0  0  3  0  0  0  0  0  0
  182.8720  176.6300  139.2190 C   0  0  0  0  0  2  0  0  0  0  0  0
  181.8780  179.7870  138.7080 C   0  0  0  0  0  2  0  0  0  0  0  0
  185.1330  176.9080  136.1470 C   0  0  0  0  0  2  0  0  0  0  0  0
  186.2250  177.7400  136.7560 C   0  0  0  0  0  0  0  0  0  0  0  0
  180.5530  177.2110  138.9350 C   0  0  1  0  0  3  0  0  0  0  0  0
  183.4430  179.0660  140.5180 N   0  0  0  0  0  0  0  0  0  0  0  0
  179.8420  178.4500  138.6120 N   0  0  0  0  0  2  0  0  0  0  0  0
  184.9640  177.9620  138.9090 C   0  0  2  0  0  3  0  0  0  0  0  0
  181.7720  177.4640  139.7340 N   0  0  2  0  0  0  0  0  0  0  0  0
  184.2520  176.2610  137.2080 C   0  0  0  0  0  2  0  0  0  0  0  0
  180.7450  179.2770  137.8290 C   0  0  0  0  0  2  0  0  0  0  0  0
  187.3450  178.0430  135.9930 O   0  0  0  0  0  1  0  0  0  0  0  0
  186.1210  178.2490  137.9870 C   0  0  0  0  0  3  0  0  0  0  0  0
  183.7630  177.3190  138.1870 C   0  0  1  0  0  3  0  0  0  0  0  0
  184.0760  178.5630  144.6940 C   0  0  0  0  0  3  0  0  0  0  0  0
  183.6590  178.8950  141.9330 C   0  0  0  0  0  0  0  0  0  0  0  0
  184.9470  178.6550  142.4380 C   0  0  0  0  0  3  0  0  0  0  0  0
  185.1550  178.4900  143.8110 C   0  0  0  0  0  3  0  0  0  0  0  0
  182.7890  178.8020  144.2060 C   0  0  0  0  0  3  0  0  0  0  0  0
  182.5820  178.9670  142.8340 C   0  0  0  0  0  3  0  0  0  0  0  0
  179.6170  176.2470  139.6790 C   0  0  2  0  0  3  0  0  0  0  0  0
  179.6020  176.5810  141.1660 C   0  0  0  0  0  1  0  0  0  0  0  0
  180.0140  174.5780  138.0560 C   0  0  0  0  0  2  0  0  0  0  0  0
  178.9330  174.1130  138.9080 C   0  0  0  0  0  2  0  0  0  0  0  0
  180.0530  174.8650  139.5010 N   0  0  0  0  0  0  0  0  0  0  0  0
  1  8  1  0  0  0  0
  2  4  1  6  0  0  0
  2  8  1  0  0  0  0
  5  6  1  0  0  0  0
  5 12  1  0  0  0  0
  6 15  2  0  0  0  0
  7 23  1  1  0  0  0
  7 11  1  0  0  0  0
  8 18  1  0  0  0  0
  9  7  1  0  0  0  0
 10 15  1  6  0  0  0
 10  1  1  0  0  0  0
 11  3  1  6  0  0  0
 11  2  1  0  0  0  0
 13  9  1  0  0  0  0
 13  4  1  0  0  0  0
 14  6  1  0  0  0  0
 16 12  1  6  0  0  0
 16 10  1  0  0  0  0
 16  3  1  0  0  0  0
 18 19  2  0  0  0  0
 18 22  1  0  0  0  0
 19 20  1  0  0  0  0
 20 17  2  0  0  0  0
 21 17  1  0  0  0  0
 22 21  2  0  0  0  0
 23 24  1  1  0  0  0
 25 26  1  0  0  0  0
 25 27  1  0  0  0  0
 26 27  1  0  0  0  0
 27 23  1  0  0  0  0
M  END
>  <MODEL>
3

>  <REMARK>
 VINA RESULT:      -6.4      4.569      6.492
  Name = 
  3 active torsions:
  status: ('A' for Active; 'I' for Inactive)
    1  A    between atoms: C_8  and  C_14
    2  A    between atoms: C_8  and  N_16
    3  A    between atoms: C_9  and  N_15
                            x       y       z     vdW  Elec       q    Type
                         _______ _______ _______ _____ _____    ______ ____

>  <TORSDO>
F 3

$$$$
=
 OpenBabel11052413403D

 27 31  0  0  1  0  0  0  0  0999 V2000
  189.5710  178.2940  139.0380 C   0  0  0  0  0  2  0  0  0  0  0  0
  187.3090  178.0510  137.9340 C   0  0  2  0  0  3  0  0  0  0  0  0
  188.1320  175.6900  137.9710 C   0  0  0  0  0  2  0  0  0  0  0  0
  187.9030  178.7860  136.7160 C   0  0  0  0  0  2  0  0  0  0  0  0
  191.7380  175.5100  136.7100 C   0  0  0  0  0  2  0  0  0  0  0  0
  192.3770  176.3780  137.7560 C   0  0  0  0  0  0  0  0  0  0  0  0
  186.4360  176.3010  136.3740 C   0  0  1  0  0  3  0  0  0  0  0  0
  188.1100  178.2500  139.1490 N   0  0  0  0  0  0  0  0  0  0  0  0
  186.1510  177.5110  135.5990 N   0  0  0  0  0  2  0  0  0  0  0  0
  190.1560  176.9060  138.7870 C   0  0  2  0  0  3  0  0  0  0  0  0
  187.0180  176.6150  137.6970 N   0  0  2  0  0  0  0  0  0  0  0  0
  190.3560  175.0280  137.1360 C   0  0  0  0  0  2  0  0  0  0  0  0
  187.4120  178.2050  135.3980 C   0  0  0  0  0  2  0  0  0  0  0  0
  193.7540  176.5480  137.7400 O   0  0  0  0  0  1  0  0  0  0  0  0
  191.6510  177.0400  138.6620 C   0  0  0  0  0  3  0  0  0  0  0  0
  189.5080  176.2150  137.5710 C   0  0  1  0  0  3  0  0  0  0  0  0
  186.2510  178.2520  142.9740 C   0  0  0  0  0  3  0  0  0  0  0  0
  187.4800  178.2520  140.4450 C   0  0  0  0  0  0  0  0  0  0  0  0
  186.1340  178.6280  140.5870 C   0  0  0  0  0  3  0  0  0  0  0  0
  185.5230  178.6280  141.8440 C   0  0  0  0  0  3  0  0  0  0  0  0
  187.5900  177.8750  142.8490 C   0  0  0  0  0  3  0  0  0  0  0  0
  188.2010  177.8740  141.5910 C   0  0  0  0  0  3  0  0  0  0  0  0
  185.1560  175.4670  136.5370 C   0  0  2  0  0  3  0  0  0  0  0  0
  184.2590  176.0950  137.5960 C   0  0  0  0  0  1  0  0  0  0  0  0
  186.1530  173.4630  135.7830 C   0  0  0  0  0  2  0  0  0  0  0  0
  184.7480  173.1880  136.0300 C   0  0  0  0  0  2  0  0  0  0  0  0
  185.4800  174.0980  136.9300 N   0  0  0  0  0  0  0  0  0  0  0  0
  1  8  1  0  0  0  0
  2  4  1  6  0  0  0
  2  8  1  0  0  0  0
  5 12  1  0  0  0  0
  5  6  1  0  0  0  0
  6 15  2  0  0  0  0
  7 23  1  1  0  0  0
  7 11  1  0  0  0  0
  8 18  1  0  0  0  0
  9  7  1  0  0  0  0
 10 15  1  6  0  0  0
 10  1  1  0  0  0  0
 11  2  1  0  0  0  0
 11  3  1  6  0  0  0
 13  9  1  0  0  0  0
 13  4  1  0  0  0  0
 14  6  1  0  0  0  0
 16 12  1  1  0  0  0
 16  3  1  0  0  0  0
 16 10  1  0  0  0  0
 18 19  2  0  0  0  0
 18 22  1  0  0  0  0
 19 20  1  0  0  0  0
 20 17  2  0  0  0  0
 21 17  1  0  0  0  0
 22 21  2  0  0  0  0
 23 27  1  0  0  0  0
 23 24  1  1  0  0  0
 25 26  1  0  0  0  0
 25 27  1  0  0  0  0
 26 27  1  0  0  0  0
M  END
>  <MODEL>
4

>  <REMARK>
 VINA RESULT:      -6.0      1.463      2.314
  Name = 
  3 active torsions:
  status: ('A' for Active; 'I' for Inactive)
    1  A    between atoms: C_8  and  C_14
    2  A    between atoms: C_8  and  N_16
    3  A    between atoms: C_9  and  N_15
                            x       y       z     vdW  Elec       q    Type
                         _______ _______ _______ _____ _____    ______ ____

>  <TORSDO>
F 3

$$$$
=
 OpenBabel11052413403D

 27 31  0  0  1  0  0  0  0  0999 V2000
  190.9120  176.4210  137.8290 C   0  0  0  0  0  2  0  0  0  0  0  0
  188.7330  177.5220  137.1730 C   0  0  2  0  0  3  0  0  0  0  0  0
  188.0840  175.1100  137.3050 C   0  0  0  0  0  2  0  0  0  0  0  0
  189.3740  177.8100  135.8020 C   0  0  0  0  0  2  0  0  0  0  0  0
  190.6290  172.9380  135.4520 C   0  0  0  0  0  2  0  0  0  0  0  0
  191.8400  173.2730  136.2750 C   0  0  0  0  0  0  0  0  0  0  0  0
  186.7370  176.6020  135.9790 C   0  0  1  0  0  3  0  0  0  0  0  0
  189.7360  177.2120  138.2010 N   0  0  0  0  0  0  0  0  0  0  0  0
  187.0250  177.7730  135.1480 N   0  0  0  0  0  2  0  0  0  0  0  0
  190.5580  174.9510  137.6220 C   0  0  2  0  0  3  0  0  0  0  0  0
  187.6500  176.5080  137.1400 N   0  0  2  0  0  0  0  0  0  0  0  0
  189.3350  173.3180  136.1620 C   0  0  0  0  0  2  0  0  0  0  0  0
  188.3860  177.6330  134.6570 C   0  0  0  0  0  2  0  0  0  0  0  0
  193.0400  172.6320  135.9970 O   0  0  0  0  0  1  0  0  0  0  0  0
  191.8100  174.2150  137.2230 C   0  0  0  0  0  3  0  0  0  0  0  0
  189.4040  174.7690  136.6170 C   0  0  1  0  0  3  0  0  0  0  0  0
  189.0210  178.2040  142.2740 C   0  0  0  0  0  3  0  0  0  0  0  0
  189.4930  177.5490  139.5810 C   0  0  0  0  0  0  0  0  0  0  0  0
  188.3450  178.2690  139.9520 C   0  0  0  0  0  3  0  0  0  0  0  0
  188.1110  178.5950  141.2910 C   0  0  0  0  0  3  0  0  0  0  0  0
  190.1660  177.4870  141.9210 C   0  0  0  0  0  3  0  0  0  0  0  0
  190.4010  177.1610  140.5820 C   0  0  0  0  0  3  0  0  0  0  0  0
  185.2750  176.6380  136.4500 C   0  0  2  0  0  3  0  0  0  0  0  0
  185.1620  177.4560  137.7310 C   0  0  0  0  0  1  0  0  0  0  0  0
  184.8860  174.5450  135.4270 C   0  0  0  0  0  2  0  0  0  0  0  0
  183.5990  175.0780  135.8390 C   0  0  0  0  0  2  0  0  0  0  0  0
  184.7790  175.2870  136.6960 N   0  0  0  0  0  0  0  0  0  0  0  0
  1  8  1  0  0  0  0
  2  4  1  6  0  0  0
  2  8  1  0  0  0  0
  5 12  1  0  0  0  0
  5  6  1  0  0  0  0
  6 15  2  0  0  0  0
  7 23  1  1  0  0  0
  7 11  1  0  0  0  0
  8 18  1  0  0  0  0
  9  7  1  0  0  0  0
 10 15  1  6  0  0  0
 10  1  1  0  0  0  0
 11  2  1  0  0  0  0
 11  3  1  6  0  0  0
 13  9  1  0  0  0  0
 13  4  1  0  0  0  0
 14  6  1  0  0  0  0
 16 12  1  1  0  0  0
 16  3  1  0  0  0  0
 16 10  1  0  0  0  0
 18 19  2  0  0  0  0
 18 22  1  0  0  0  0
 19 20  1  0  0  0  0
 20 17  2  0  0  0  0
 21 17  1  0  0  0  0
 22 21  2  0  0  0  0
 23 27  1  0  0  0  0
 23 24  1  1  0  0  0
 25 26  1  0  0  0  0
 25 27  1  0  0  0  0
 26 27  1  0  0  0  0
M  END
>  <MODEL>
5

>  <REMARK>
 VINA RESULT:      -5.9      1.714      2.488
  Name = 
  3 active torsions:
  status: ('A' for Active; 'I' for Inactive)
    1  A    between atoms: C_8  and  C_14
    2  A    between atoms: C_8  and  N_16
    3  A    between atoms: C_9  and  N_15
                            x       y       z     vdW  Elec       q    Type
                         _______ _______ _______ _____ _____    ______ ____

>  <TORSDO>
F 3

$$$$
=
 OpenBabel11052413403D

 27 31  0  0  1  0  0  0  0  0999 V2000
  191.0640  176.7600  138.4090 C   0  0  0  0  0  2  0  0  0  0  0  0
  188.7390  177.5270  137.7780 C   0  0  2  0  0  3  0  0  0  0  0  0
  188.5400  175.0400  137.5950 C   0  0  0  0  0  2  0  0  0  0  0  0
  189.3540  178.0920  136.4830 C   0  0  0  0  0  2  0  0  0  0  0  0
  191.4890  173.6030  135.6300 C   0  0  0  0  0  2  0  0  0  0  0  0
  192.5950  174.0450  136.5450 C   0  0  0  0  0  0  0  0  0  0  0  0
  186.9790  176.4200  136.3870 C   0  0  1  0  0  3  0  0  0  0  0  0
  189.7530  177.2750  138.8110 N   0  0  0  0  0  0  0  0  0  0  0  0
  187.0710  177.7170  135.7140 N   0  0  0  0  0  2  0  0  0  0  0  0
  190.9910  175.2870  138.0140 C   0  0  2  0  0  3  0  0  0  0  0  0
  187.8610  176.3480  137.5730 N   0  0  2  0  0  0  0  0  0  0  0  0
  190.1290  173.6550  136.3150 C   0  0  0  0  0  2  0  0  0  0  0  0
  188.4470  177.8840  135.2780 C   0  0  0  0  0  2  0  0  0  0  0  0
  193.8990  173.6670  136.2550 O   0  0  0  0  0  1  0  0  0  0  0  0
  192.3670  174.8410  137.5940 C   0  0  0  0  0  3  0  0  0  0  0  0
  189.9180  175.0280  136.9380 C   0  0  1  0  0  3  0  0  0  0  0  0
  188.7540  177.6190  142.9310 C   0  0  0  0  0  3  0  0  0  0  0  0
  189.4150  177.3910  140.2070 C   0  0  0  0  0  0  0  0  0  0  0  0
  190.1920  176.7530  141.1880 C   0  0  0  0  0  3  0  0  0  0  0  0
  189.8630  176.8660  142.5420 C   0  0  0  0  0  3  0  0  0  0  0  0
  187.9720  178.2600  141.9670 C   0  0  0  0  0  3  0  0  0  0  0  0
  188.3010  178.1470  140.6130 C   0  0  0  0  0  3  0  0  0  0  0  0
  185.5230  176.1360  136.7860 C   0  0  2  0  0  3  0  0  0  0  0  0
  184.8840  175.1870  135.7780 C   0  0  0  0  0  1  0  0  0  0  0  0
  184.8440  177.8910  138.2140 C   0  0  0  0  0  2  0  0  0  0  0  0
  183.6490  177.1790  137.7940 C   0  0  0  0  0  2  0  0  0  0  0  0
  184.7520  177.3750  136.8360 N   0  0  0  0  0  0  0  0  0  0  0  0
  1  8  1  0  0  0  0
  2  4  1  6  0  0  0
  2  8  1  0  0  0  0
  5 12  1  0  0  0  0
  5  6  1  0  0  0  0
  6 15  2  0  0  0  0
  7 23  1  1  0  0  0
  7 11  1  0  0  0  0
  8 18  1  0  0  0  0
  9  7  1  0  0  0  0
 10 15  1  6  0  0  0
 10  1  1  0  0  0  0
 11  3  1  6  0  0  0
 11  2  1  0  0  0  0
 13  9  1  0  0  0  0
 13  4  1  0  0  0  0
 14  6  1  0  0  0  0
 16 12  1  1  0  0  0
 16  3  1  0  0  0  0
 16 10  1  0  0  0  0
 18 22  2  0  0  0  0
 18 19  1  0  0  0  0
 19 20  2  0  0  0  0
 20 17  1  0  0  0  0
 21 17  2  0  0  0  0
 22 21  1  0  0  0  0
 23 24  1  6  0  0  0
 23 27  1  0  0  0  0
 26 25  1  0  0  0  0
 27 26  1  0  0  0  0
 27 25  1  0  0  0  0
M  END
>  <MODEL>
6

>  <REMARK>
 VINA RESULT:      -5.7      1.201      1.343
  Name = 
  3 active torsions:
  status: ('A' for Active; 'I' for Inactive)
    1  A    between atoms: C_8  and  C_14
    2  A    between atoms: C_8  and  N_16
    3  A    between atoms: C_9  and  N_15
                            x       y       z     vdW  Elec       q    Type
                         _______ _______ _______ _____ _____    ______ ____

>  <TORSDO>
F 3

$$$$
=
 OpenBabel11052413403D

 27 31  0  0  1  0  0  0  0  0999 V2000
  180.4730  180.0340  140.4880 C   0  0  0  0  0  2  0  0  0  0  0  0
  180.7640  177.5720  139.9940 C   0  0  2  0  0  3  0  0  0  0  0  0
  181.9710  178.6370  138.0800 C   0  0  0  0  0  2  0  0  0  0  0  0
  179.2540  177.5260  139.6910 C   0  0  0  0  0  2  0  0  0  0  0  0
  179.8470  181.4230  136.5450 C   0  0  0  0  0  2  0  0  0  0  0  0
  179.7480  182.3110  137.7530 C   0  0  0  0  0  0  0  0  0  0  0  0
  181.1710  176.3800  137.8320 C   0  0  1  0  0  3  0  0  0  0  0  0
  181.1400  178.7600  140.7700 N   0  0  0  0  0  0  0  0  0  0  0  0
  179.9950  175.6530  138.3170 N   0  0  0  0  0  2  0  0  0  0  0  0
  180.9600  180.6430  139.1760 C   0  0  2  0  0  3  0  0  0  0  0  0
  181.6310  177.3990  138.8010 N   0  0  2  0  0  0  0  0  0  0  0  0
  180.9720  180.4040  136.6780 C   0  0  0  0  0  2  0  0  0  0  0  0
  178.9310  176.6260  138.5070 C   0  0  0  0  0  2  0  0  0  0  0  0
  179.0960  183.5310  137.6400 O   0  0  0  0  0  1  0  0  0  0  0  0
  180.2140  181.9310  138.9470 C   0  0  0  0  0  3  0  0  0  0  0  0
  180.8370  179.6570  137.9970 C   0  0  1  0  0  3  0  0  0  0  0  0
  184.4120  178.6120  143.4830 C   0  0  0  0  0  3  0  0  0  0  0  0
  182.2490  178.7090  141.6890 C   0  0  0  0  0  0  0  0  0  0  0  0
  183.5360  178.3660  141.2410 C   0  0  0  0  0  3  0  0  0  0  0  0
  184.6110  178.3180  142.1330 C   0  0  0  0  0  3  0  0  0  0  0  0
  183.1390  178.9560  143.9430 C   0  0  0  0  0  3  0  0  0  0  0  0
  182.0640  179.0040  143.0510 C   0  0  0  0  0  3  0  0  0  0  0  0
  182.3040  175.3930  137.5150 C   0  0  2  0  0  3  0  0  0  0  0  0
  183.3980  175.5010  138.5710 C   0  0  0  0  0  1  0  0  0  0  0  0
  181.7570  175.7290  135.2420 C   0  0  0  0  0  2  0  0  0  0  0  0
  182.5660  174.5240  135.3260 C   0  0  0  0  0  2  0  0  0  0  0  0
  182.8750  175.6700  136.2000 N   0  0  0  0  0  0  0  0  0  0  0  0
  1  8  1  0  0  0  0
  2  4  1  6  0  0  0
  2  8  1  0  0  0  0
  5 12  1  0  0  0  0
  5  6  1  0  0  0  0
  6 15  2  0  0  0  0
  7 23  1  1  0  0  0
  7  9  1  0  0  0  0
  7 11  1  0  0  0  0
  8 18  1  0  0  0  0
  9 13  1  0  0  0  0
 10 15  1  6  0  0  0
 10  1  1  0  0  0  0
 11  3  1  6  0  0  0
 11  2  1  0  0  0  0
 13  4  1  0  0  0  0
 14  6  1  0  0  0  0
 16 12  1  6  0  0  0
 16  3  1  0  0  0  0
 16 10  1  0  0  0  0
 17 21  1  0  0  0  0
 18 22  1  0  0  0  0
 19 18  2  0  0  0  0
 19 20  1  0  0  0  0
 20 17  2  0  0  0  0
 22 21  2  0  0  0  0
 23 24  1  1  0  0  0
 25 26  1  0  0  0  0
 25 27  1  0  0  0  0
 26 27  1  0  0  0  0
 27 23  1  0  0  0  0
M  END
>  <MODEL>
7

>  <REMARK>
 VINA RESULT:      -5.6      6.712      8.949
  Name = 
  3 active torsions:
  status: ('A' for Active; 'I' for Inactive)
    1  A    between atoms: C_8  and  C_14
    2  A    between atoms: C_8  and  N_16
    3  A    between atoms: C_9  and  N_15
                            x       y       z     vdW  Elec       q    Type
                         _______ _______ _______ _____ _____    ______ ____

>  <TORSDO>
F 3

$$$$
=
 OpenBabel11052413403D

 27 31  0  0  1  0  0  0  0  0999 V2000
  184.5670  178.1500  138.9630 C   0  0  0  0  0  2  0  0  0  0  0  0
  182.9520  179.7540  140.0640 C   0  0  2  0  0  3  0  0  0  0  0  0
  181.6070  177.6480  139.9530 C   0  0  0  0  0  2  0  0  0  0  0  0
  182.8720  180.4900  138.7120 C   0  0  0  0  0  2  0  0  0  0  0  0
  181.8460  176.0920  136.4680 C   0  0  0  0  0  2  0  0  0  0  0  0
  183.3290  175.8510  136.4390 C   0  0  0  0  0  0  0  0  0  0  0  0
  180.4520  179.7520  140.1410 C   0  0  1  0  0  3  0  0  0  0  0  0
  184.1320  178.8840  140.1540 N   0  0  0  0  0  0  0  0  0  0  0  0
  180.6990  181.1040  139.6330 N   0  0  0  0  0  2  0  0  0  0  0  0
  183.6350  176.9810  138.6530 C   0  0  2  0  0  3  0  0  0  0  0  0
  181.7100  179.0340  140.4410 N   0  0  2  0  0  0  0  0  0  0  0  0
  181.3360  176.3340  137.8830 C   0  0  0  0  0  2  0  0  0  0  0  0
  181.4610  180.9710  138.4020 C   0  0  0  0  0  2  0  0  0  0  0  0
  183.8850  175.2070  135.3420 O   0  0  0  0  0  1  0  0  0  0  0  0
  184.1340  176.2960  137.4080 C   0  0  0  0  0  3  0  0  0  0  0  0
  182.1620  177.4260  138.5480 C   0  0  1  0  0  3  0  0  0  0  0  0
  185.9910  178.1620  143.9110 C   0  0  0  0  0  3  0  0  0  0  0  0
  184.7610  178.6400  141.4280 C   0  0  0  0  0  0  0  0  0  0  0  0
  184.0030  178.6180  142.6100 C   0  0  0  0  0  3  0  0  0  0  0  0
  184.6140  178.3800  143.8440 C   0  0  0  0  0  3  0  0  0  0  0  0
  186.7580  178.1800  142.7440 C   0  0  0  0  0  3  0  0  0  0  0  0
  186.1470  178.4170  141.5100 C   0  0  0  0  0  3  0  0  0  0  0  0
  179.5610  179.8170  141.3920 C   0  0  2  0  0  3  0  0  0  0  0  0
  178.9310  181.1990  141.5100 C   0  0  0  0  0  1  0  0  0  0  0  0
  179.9450  178.2010  143.0720 C   0  0  0  0  0  2  0  0  0  0  0  0
  179.3970  179.3840  143.7160 C   0  0  0  0  0  2  0  0  0  0  0  0
  180.3410  179.5380  142.5950 N   0  0  0  0  0  0  0  0  0  0  0  0
  1  8  1  0  0  0  0
  2  4  1  6  0  0  0
  2  8  1  0  0  0  0
  2 11  1  0  0  0  0
  5 12  1  0  0  0  0
  6  5  1  0  0  0  0
  6 15  2  0  0  0  0
  7 11  1  0  0  0  0
  7 23  1  1  0  0  0
  8 18  1  0  0  0  0
  9  7  1  0  0  0  0
 10 15  1  6  0  0  0
 10  1  1  0  0  0  0
 11  3  1  6  0  0  0
 13  4  1  0  0  0  0
 13  9  1  0  0  0  0
 14  6  1  0  0  0  0
 16 12  1  1  0  0  0
 16 10  1  0  0  0  0
 16  3  1  0  0  0  0
 18 22  2  0  0  0  0
 18 19  1  0  0  0  0
 19 20  2  0  0  0  0
 20 17  1  0  0  0  0
 21 17  2  0  0  0  0
 22 21  1  0  0  0  0
 23 24  1  1  0  0  0
 23 27  1  0  0  0  0
 25 26  1  0  0  0  0
 27 25  1  0  0  0  0
 27 26  1  0  0  0  0
M  END
>  <MODEL>
8

>  <REMARK>
 VINA RESULT:      -5.3      5.104      7.457
  Name = 
  3 active torsions:
  status: ('A' for Active; 'I' for Inactive)
    1  A    between atoms: C_8  and  C_14
    2  A    between atoms: C_8  and  N_16
    3  A    between atoms: C_9  and  N_15
                            x       y       z     vdW  Elec       q    Type
                         _______ _______ _______ _____ _____    ______ ____

>  <TORSDO>
F 3

$$$$
=
 OpenBabel11052413403D

 27 31  0  0  1  0  0  0  0  0999 V2000
  181.5530  177.9010  137.5450 C   0  0  0  0  0  2  0  0  0  0  0  0
  182.8560  177.4990  139.6740 C   0  0  2  0  0  3  0  0  0  0  0  0
  181.2670  179.3020  140.3640 C   0  0  0  0  0  2  0  0  0  0  0  0
  184.0720  178.1260  138.9650 C   0  0  0  0  0  2  0  0  0  0  0  0
  181.2200  182.1080  137.7660 C   0  0  0  0  0  2  0  0  0  0  0  0
  180.7360  181.3080  136.5910 C   0  0  0  0  0  0  0  0  0  0  0  0
  183.2970  179.0030  141.6240 C   0  0  1  0  0  3  0  0  0  0  0  0
  181.8170  177.0750  138.7270 N   0  0  0  0  0  0  0  0  0  0  0  0
  184.6650  178.6100  141.2800 N   0  0  0  0  0  2  0  0  0  0  0  0
  180.8060  179.1800  137.9110 C   0  0  2  0  0  3  0  0  0  0  0  0
  182.2950  178.3280  140.7700 N   0  0  2  0  0  0  0  0  0  0  0  0
  180.9670  181.3910  139.0860 C   0  0  0  0  0  2  0  0  0  0  0  0
  184.8940  179.0030  139.8990 C   0  0  0  0  0  2  0  0  0  0  0  0
  180.4920  181.9580  135.3890 O   0  0  0  0  0  1  0  0  0  0  0  0
  180.5940  179.9800  136.6530 C   0  0  0  0  0  3  0  0  0  0  0  0
  181.5250  179.9760  139.0180 C   0  0  1  0  0  3  0  0  0  0  0  0
  179.3170  173.7520  139.6190 C   0  0  0  0  0  3  0  0  0  0  0  0
  180.9700  175.9490  139.0300 C   0  0  0  0  0  0  0  0  0  0  0  0
  180.2190  175.9160  140.2170 C   0  0  0  0  0  3  0  0  0  0  0  0
  179.3970  174.8240  140.5100 C   0  0  0  0  0  3  0  0  0  0  0  0
  180.0570  173.7710  138.4350 C   0  0  0  0  0  3  0  0  0  0  0  0
  180.8780  174.8630  138.1420 C   0  0  0  0  0  3  0  0  0  0  0  0
  183.0220  178.7060  143.1070 C   0  0  2  0  0  3  0  0  0  0  0  0
  181.5640  179.0030  143.4340 C   0  0  0  0  0  1  0  0  0  0  0  0
  184.9520  178.6370  144.4670 C   0  0  0  0  0  2  0  0  0  0  0  0
  183.8220  178.9550  145.3230 C   0  0  0  0  0  2  0  0  0  0  0  0
  183.8830  179.5180  143.9630 N   0  0  0  0  0  0  0  0  0  0  0  0
  1 10  1  0  0  0  0
  1  8  1  0  0  0  0
  2  4  1  6  0  0  0
  2 11  1  0  0  0  0
  4 13  1  0  0  0  0
  5 12  1  0  0  0  0
  6 15  2  0  0  0  0
  6  5  1  0  0  0  0
  7 23  1  1  0  0  0
  8 18  1  0  0  0  0
  8  2  1  0  0  0  0
  9  7  1  0  0  0  0
 10 15  1  6  0  0  0
 10 16  1  0  0  0  0
 11  3  1  6  0  0  0
 11  7  1  0  0  0  0
 13  9  1  0  0  0  0
 14  6  1  0  0  0  0
 16 12  1  1  0  0  0
 16  3  1  0  0  0  0
 17 20  1  0  0  0  0
 18 19  1  0  0  0  0
 19 20  2  0  0  0  0
 21 17  2  0  0  0  0
 22 21  1  0  0  0  0
 22 18  2  0  0  0  0
 23 24  1  1  0  0  0
 23 27  1  0  0  0  0
 25 26  1  0  0  0  0
 27 25  1  0  0  0  0
 27 26  1  0  0  0  0
M  END
>  <MODEL>
9

>  <REMARK>
 VINA RESULT:      -5.2      6.151      9.364
  Name = 
  3 active torsions:
  status: ('A' for Active; 'I' for Inactive)
    1  A    between atoms: C_8  and  C_14
    2  A    between atoms: C_8  and  N_16
    3  A    between atoms: C_9  and  N_15
                            x       y       z     vdW  Elec       q    Type
                         _______ _______ _______ _____ _____    ______ ____

>  <TORSDO>
F 3

$$$$
