=
 OpenBabel11052415203D

 37 41  0  0  1  0  0  0  0  0999 V2000
  189.6460  177.0970  141.0020 C   0  0  2  0  0  3  0  0  0  0  0  0
  191.4470  178.9820  143.8630 C   0  0  0  0  0  2  0  0  0  0  0  0
  187.6540  178.6710  139.7590 C   0  0  0  0  0  3  0  0  0  0  0  0
  190.5240  178.1980  141.6290 C   0  0  0  0  0  2  0  0  0  0  0  0
  189.6130  177.1650  139.4630 C   0  0  1  0  0  3  0  0  0  0  0  0
  190.4890  178.0680  143.1360 C   0  0  0  0  0  0  0  0  0  0  0  0
  186.1320  178.3280  141.6480 C   0  0  0  0  0  1  0  0  0  0  0  0
  188.6720  175.3880  143.2750 C   0  0  0  0  0  1  0  0  0  0  0  0
  187.5950  178.3680  141.2320 C   0  0  1  0  0  3  0  0  0  0  0  0
  191.7220  177.4810  143.7840 C   0  0  0  0  0  2  0  0  0  0  0  0
  188.2680  177.0920  141.5420 N   0  0  2  0  0  0  0  0  0  0  0  0
  188.5980  178.1720  138.9410 C   0  0  0  0  0  0  0  0  0  0  0  0
  189.1130  177.8610  143.7800 C   0  0  1  0  0  3  0  0  0  0  0  0
  188.2670  176.8330  142.9980 C   0  0  2  0  0  3  0  0  0  0  0  0
  190.0670  177.2300  145.9800 C   0  0  0  0  0  3  0  0  0  0  0  0
  189.0450  177.7420  145.2810 C   0  0  0  0  0  0  0  0  0  0  0  0
  187.7880  178.2220  145.9590 C   0  0  0  0  0  2  0  0  0  0  0  0
  186.8370  178.4410  148.1380 O   0  0  0  0  0  0  0  0  0  0  0  0
  188.9680  177.5080  148.1070 N   0  0  0  0  0  0  0  0  0  0  0  0
  187.8260  178.0710  147.4540 C   0  0  0  0  0  0  0  0  0  0  0  0
  190.0110  177.1150  147.4440 C   0  0  0  0  0  3  0  0  0  0  0  0
  188.4850  178.4840  137.4660 C   0  0  0  0  0  0  0  0  0  0  0  0
  187.2090  178.9360  137.1710 F   0  0  0  0  0  0  0  0  0  0  0  0
  189.3980  179.4690  137.1360 F   0  0  0  0  0  0  0  0  0  0  0  0
  188.7340  177.3650  136.6910 F   0  0  0  0  0  0  0  0  0  0  0  0
  191.0070  177.3720  138.8650 C   0  0  0  0  0  2  0  0  0  0  0  0
  193.1500  176.2360  138.3160 C   0  0  0  0  0  2  0  0  0  0  0  0
  193.5550  175.1250  137.3700 C   0  0  1  0  0  3  0  0  0  0  0  0
  191.1300  175.4610  137.2510 C   0  0  0  0  0  2  0  0  0  0  0  0
  192.3020  174.7490  136.5930 C   0  0  2  0  0  3  0  0  0  0  0  0
  191.6690  176.0420  138.5440 C   0  0  2  0  0  3  0  0  0  0  0  0
  194.5960  175.6000  136.4570 C   0  0  0  0  0  0  0  0  0  0  0  0
  195.4180  175.9770  135.7330 N   0  0  0  0  0  0  0  0  0  0  0  0
  192.0950  173.2330  136.5320 C   0  0  0  0  0  2  0  0  0  0  0  0
  193.1490  172.5210  135.7410 C   0  0  0  0  0  0  0  0  0  0  0  0
  193.4590  172.9330  134.5940 O   0  0  0  0  0  0  0  0  0  0  0  0
  193.8040  171.4240  136.2850 O   0  0  0  0  0  1  0  0  0  0  0  0
  1 11  1  0  0  0  0
  1  4  1  1  0  0  0
  3  9  1  0  0  0  0
  4  6  1  0  0  0  0
  5 26  1  1  0  0  0
  5  1  1  0  0  0  0
  6 13  1  0  0  0  0
  6 10  1  0  0  0  0
  6  2  1  0  0  0  0
  9 11  1  0  0  0  0
  9  7  1  6  0  0  0
 10  2  1  0  0  0  0
 11 14  1  0  0  0  0
 12  5  1  0  0  0  0
 12  3  2  0  0  0  0
 13 16  1  0  0  0  0
 14  8  1  0  0  0  0
 14 13  1  0  0  0  0
 15 21  1  0  0  0  0
 16 17  1  0  0  0  0
 16 15  2  0  0  0  0
 17 20  1  0  0  0  0
 20 19  1  0  0  0  0
 20 18  2  0  0  0  0
 21 19  2  0  0  0  0
 22 12  1  0  0  0  0
 23 22  1  0  0  0  0
 24 22  1  0  0  0  0
 25 22  1  0  0  0  0
 27 31  1  0  0  0  0
 28 27  1  0  0  0  0
 29 31  1  0  0  0  0
 30 29  1  0  0  0  0
 30 28  1  0  0  0  0
 31 26  1  0  0  0  0
 32 28  1  0  0  0  0
 33 32  3  0  0  0  0
 34 30  1  0  0  0  0
 35 37  1  0  0  0  0
 35 34  1  0  0  0  0
 36 35  2  0  0  0  0
M  END
>  <MODEL>
1

>  <REMARK>
 VINA RESULT:      -7.6      0.000      0.000
  Name = 
  7 active torsions:
  status: ('A' for Active; 'I' for Inactive)
    1  A    between atoms: C_3  and  C_30
    2  A    between atoms: C_5  and  C_12
    3  A    between atoms: C_6  and  C_31
    4  A    between atoms: C_11  and  C_26
    5  A    between atoms: C_13  and  C_20
    6  A    between atoms: C_20  and  C_36
    7  A    between atoms: C_26  and  C_33
                            x       y       z     vdW  Elec       q    Type
                         _______ _______ _______ _____ _____    ______ ____

>  <TORSDO>
F 7

$$$$
=
 OpenBabel11052415203D

 37 41  0  0  1  0  0  0  0  0999 V2000
  189.2430  177.2050  141.1940 C   0  0  2  0  0  3  0  0  0  0  0  0
  191.2920  179.3010  143.7210 C   0  0  0  0  0  2  0  0  0  0  0  0
  186.8690  178.5100  140.3840 C   0  0  0  0  0  3  0  0  0  0  0  0
  190.0750  178.4100  141.6760 C   0  0  0  0  0  2  0  0  0  0  0  0
  188.9130  177.2720  139.6900 C   0  0  1  0  0  3  0  0  0  0  0  0
  190.3390  178.2730  143.1600 C   0  0  0  0  0  0  0  0  0  0  0  0
  185.7830  177.9670  142.5110 C   0  0  0  0  0  1  0  0  0  0  0  0
  188.9360  175.3790  143.5600 C   0  0  0  0  0  1  0  0  0  0  0  0
  187.1260  178.1980  141.8330 C   0  0  1  0  0  3  0  0  0  0  0  0
  191.7360  177.8490  143.5520 C   0  0  0  0  0  2  0  0  0  0  0  0
  188.0010  177.0200  141.9790 N   0  0  2  0  0  0  0  0  0  0  0  0
  187.6990  178.1400  139.3920 C   0  0  0  0  0  0  0  0  0  0  0  0
  189.1450  177.8860  144.0410 C   0  0  1  0  0  3  0  0  0  0  0  0
  188.3060  176.7590  143.4020 C   0  0  2  0  0  3  0  0  0  0  0  0
  188.4250  178.1020  146.4040 C   0  0  0  0  0  3  0  0  0  0  0  0
  189.3750  177.7560  145.5260 C   0  0  0  0  0  0  0  0  0  0  0  0
  190.7110  177.2240  145.9760 C   0  0  0  0  0  2  0  0  0  0  0  0
  191.9010  176.6870  147.9760 O   0  0  0  0  0  0  0  0  0  0  0  0
  189.7580  177.5220  148.3260 N   0  0  0  0  0  0  0  0  0  0  0  0
  190.8340  177.1240  147.4710 C   0  0  0  0  0  0  0  0  0  0  0  0
  188.6390  177.9750  147.8520 C   0  0  0  0  0  3  0  0  0  0  0  0
  187.2730  178.4390  137.9720 C   0  0  0  0  0  0  0  0  0  0  0  0
  187.2830  177.2770  137.2170 F   0  0  0  0  0  0  0  0  0  0  0  0
  185.9930  178.9590  137.9790 F   0  0  0  0  0  0  0  0  0  0  0  0
  188.1230  179.3480  137.3680 F   0  0  0  0  0  0  0  0  0  0  0  0
  190.1330  177.6600  138.8500 C   0  0  0  0  0  2  0  0  0  0  0  0
  192.2110  176.4880  138.1480 C   0  0  0  0  0  2  0  0  0  0  0  0
  192.6500  175.7530  136.8990 C   0  0  1  0  0  3  0  0  0  0  0  0
  190.3220  176.4800  136.6490 C   0  0  0  0  0  2  0  0  0  0  0  0
  191.5070  175.8870  135.9020 C   0  0  2  0  0  3  0  0  0  0  0  0
  190.7010  176.4560  138.1170 C   0  0  2  0  0  3  0  0  0  0  0  0
  193.8670  176.3630  136.3600 C   0  0  0  0  0  0  0  0  0  0  0  0
  194.8300  176.8450  135.9350 N   0  0  0  0  0  0  0  0  0  0  0  0
  191.1610  174.5510  135.2400 C   0  0  0  0  0  2  0  0  0  0  0  0
  191.2340  173.3860  136.1780 C   0  0  0  0  0  0  0  0  0  0  0  0
  192.1630  172.5460  136.0660 O   0  0  0  0  0  0  0  0  0  0  0  0
  190.2940  173.2500  137.1910 O   0  0  0  0  0  1  0  0  0  0  0  0
  1  4  1  1  0  0  0
  1 11  1  0  0  0  0
  3  9  1  0  0  0  0
  4  6  1  0  0  0  0
  5 26  1  6  0  0  0
  5  1  1  0  0  0  0
  6 10  1  0  0  0  0
  6  2  1  0  0  0  0
  6 13  1  0  0  0  0
  9 11  1  0  0  0  0
  9  7  1  1  0  0  0
 10  2  1  0  0  0  0
 11 14  1  0  0  0  0
 12  5  1  0  0  0  0
 12  3  2  0  0  0  0
 13 16  1  0  0  0  0
 14  8  1  0  0  0  0
 14 13  1  0  0  0  0
 15 21  1  0  0  0  0
 16 17  1  0  0  0  0
 16 15  2  0  0  0  0
 17 20  1  0  0  0  0
 20 18  2  0  0  0  0
 20 19  1  0  0  0  0
 21 19  2  0  0  0  0
 22 24  1  0  0  0  0
 22 12  1  0  0  0  0
 23 22  1  0  0  0  0
 25 22  1  0  0  0  0
 28 27  1  0  0  0  0
 29 31  1  0  0  0  0
 30 29  1  0  0  0  0
 30 28  1  0  0  0  0
 31 27  1  0  0  0  0
 31 26  1  0  0  0  0
 32 28  1  0  0  0  0
 33 32  3  0  0  0  0
 34 30  1  0  0  0  0
 34 35  1  0  0  0  0
 35 37  1  0  0  0  0
 36 35  2  0  0  0  0
M  END
>  <MODEL>
2

>  <REMARK>
 VINA RESULT:      -7.6      1.466      1.828
  Name = 
  7 active torsions:
  status: ('A' for Active; 'I' for Inactive)
    1  A    between atoms: C_3  and  C_30
    2  A    between atoms: C_5  and  C_12
    3  A    between atoms: C_6  and  C_31
    4  A    between atoms: C_11  and  C_26
    5  A    between atoms: C_13  and  C_20
    6  A    between atoms: C_20  and  C_36
    7  A    between atoms: C_26  and  C_33
                            x       y       z     vdW  Elec       q    Type
                         _______ _______ _______ _____ _____    ______ ____

>  <TORSDO>
F 7

$$$$
=
 OpenBabel11052415203D

 37 41  0  0  1  0  0  0  0  0999 V2000
  188.3470  177.3690  144.6230 C   0  0  2  0  0  3  0  0  0  0  0  0
  189.4640  179.6940  141.7380 C   0  0  0  0  0  2  0  0  0  0  0  0
  190.0270  177.5750  146.8870 C   0  0  0  0  0  3  0  0  0  0  0  0
  188.6390  178.7160  143.9330 C   0  0  0  0  0  2  0  0  0  0  0  0
  187.6980  177.5380  146.0100 C   0  0  1  0  0  3  0  0  0  0  0  0
  189.2860  178.4600  142.5890 C   0  0  0  0  0  0  0  0  0  0  0  0
  191.7610  176.2400  145.7860 C   0  0  0  0  0  1  0  0  0  0  0  0
  189.1210  175.2240  142.6650 C   0  0  0  0  0  1  0  0  0  0  0  0
  190.5780  177.1670  145.5470 C   0  0  1  0  0  3  0  0  0  0  0  0
  188.4050  178.6540  141.3770 C   0  0  0  0  0  2  0  0  0  0  0  0
  189.5470  176.5090  144.7230 N   0  0  2  0  0  0  0  0  0  0  0  0
  188.7190  177.7980  147.1090 C   0  0  0  0  0  0  0  0  0  0  0  0
  190.4210  177.4280  142.5540 C   0  0  1  0  0  3  0  0  0  0  0  0
  190.0750  176.1730  143.3840 C   0  0  2  0  0  3  0  0  0  0  0  0
  192.3810  177.4780  141.0370 C   0  0  0  0  0  3  0  0  0  0  0  0
  191.0940  177.1630  141.2320 C   0  0  0  0  0  0  0  0  0  0  0  0
  190.2630  176.5310  140.1450 C   0  0  0  0  0  2  0  0  0  0  0  0
  190.4500  175.7710  137.8890 O   0  0  0  0  0  0  0  0  0  0  0  0
  192.4070  176.6750  138.7650 N   0  0  0  0  0  0  0  0  0  0  0  0
  191.0300  176.3000  138.8730 C   0  0  0  0  0  0  0  0  0  0  0  0
  193.0470  177.2200  139.7530 C   0  0  0  0  0  3  0  0  0  0  0  0
  188.2900  178.1110  148.5250 C   0  0  0  0  0  0  0  0  0  0  0  0
  187.6250  177.0260  149.0720 F   0  0  0  0  0  0  0  0  0  0  0  0
  189.4080  178.3860  149.2900 F   0  0  0  0  0  0  0  0  0  0  0  0
  187.4390  179.2010  148.5680 F   0  0  0  0  0  0  0  0  0  0  0  0
  186.5720  178.5750  145.9970 C   0  0  0  0  0  2  0  0  0  0  0  0
  185.7780  177.9840  143.7160 C   0  0  0  0  0  2  0  0  0  0  0  0
  184.4930  178.2010  142.9450 C   0  0  1  0  0  3  0  0  0  0  0  0
  184.2490  179.0890  145.2170 C   0  0  0  0  0  2  0  0  0  0  0  0
  183.5920  179.0330  143.8460 C   0  0  2  0  0  3  0  0  0  0  0  0
  185.3900  178.0920  145.1720 C   0  0  2  0  0  3  0  0  0  0  0  0
  184.7710  178.9210  141.7010 C   0  0  0  0  0  0  0  0  0  0  0  0
  184.9900  179.4910  140.7170 N   0  0  0  0  0  0  0  0  0  0  0  0
  182.1680  178.4740  143.9110 C   0  0  0  0  0  2  0  0  0  0  0  0
  181.2630  179.0270  142.8540 C   0  0  0  0  0  0  0  0  0  0  0  0
  180.6920  180.1340  143.0320 O   0  0  0  0  0  1  0  0  0  0  0  0
  181.0760  178.3340  141.6660 O   0  0  0  0  0  0  0  0  0  0  0  0
  1  4  1  1  0  0  0
  1 11  1  0  0  0  0
  1  5  1  0  0  0  0
  2  6  1  0  0  0  0
  3 12  2  0  0  0  0
  5 26  1  6  0  0  0
  5 12  1  0  0  0  0
  6  4  1  0  0  0  0
  8 14  1  0  0  0  0
  9  7  1  1  0  0  0
  9  3  1  0  0  0  0
 10  2  1  0  0  0  0
 10  6  1  0  0  0  0
 11  9  1  0  0  0  0
 12 22  1  0  0  0  0
 13  6  1  0  0  0  0
 13 14  1  0  0  0  0
 14 11  1  0  0  0  0
 15 16  2  0  0  0  0
 16 13  1  0  0  0  0
 17 16  1  0  0  0  0
 18 20  2  0  0  0  0
 19 20  1  0  0  0  0
 19 21  2  0  0  0  0
 20 17  1  0  0  0  0
 21 15  1  0  0  0  0
 22 25  1  0  0  0  0
 22 23  1  0  0  0  0
 22 24  1  0  0  0  0
 27 31  1  0  0  0  0
 28 27  1  0  0  0  0
 28 30  1  0  0  0  0
 30 34  1  0  0  0  0
 30 29  1  0  0  0  0
 31 29  1  0  0  0  0
 31 26  1  0  0  0  0
 32 28  1  0  0  0  0
 33 32  3  0  0  0  0
 35 36  1  0  0  0  0
 35 34  1  0  0  0  0
 37 35  2  0  0  0  0
M  END
>  <MODEL>
3

>  <REMARK>
 VINA RESULT:      -7.4      4.543      9.333
  Name = 
  7 active torsions:
  status: ('A' for Active; 'I' for Inactive)
    1  A    between atoms: C_3  and  C_30
    2  A    between atoms: C_5  and  C_12
    3  A    between atoms: C_6  and  C_31
    4  A    between atoms: C_11  and  C_26
    5  A    between atoms: C_13  and  C_20
    6  A    between atoms: C_20  and  C_36
    7  A    between atoms: C_26  and  C_33
                            x       y       z     vdW  Elec       q    Type
                         _______ _______ _______ _____ _____    ______ ____

>  <TORSDO>
F 7

$$$$
=
 OpenBabel11052415203D

 37 41  0  0  1  0  0  0  0  0999 V2000
  183.7790  178.5560  141.0900 C   0  0  2  0  0  3  0  0  0  0  0  0
  182.3770  175.6510  138.9520 C   0  0  0  0  0  2  0  0  0  0  0  0
  182.2870  178.9730  143.4540 C   0  0  0  0  0  3  0  0  0  0  0  0
  183.4020  177.0950  140.7730 C   0  0  0  0  0  2  0  0  0  0  0  0
  184.5350  178.7000  142.4250 C   0  0  1  0  0  3  0  0  0  0  0  0
  182.6520  177.0460  139.4600 C   0  0  0  0  0  0  0  0  0  0  0  0
  180.4980  180.0730  142.1930 C   0  0  0  0  0  1  0  0  0  0  0  0
  182.8940  180.1940  138.7310 C   0  0  0  0  0  1  0  0  0  0  0  0
  181.6360  179.0670  142.1000 C   0  0  1  0  0  3  0  0  0  0  0  0
  183.4260  176.5280  138.2690 C   0  0  0  0  0  2  0  0  0  0  0  0
  182.6100  179.4640  141.0660 N   0  0  2  0  0  0  0  0  0  0  0  0
  183.6030  178.7550  143.6260 C   0  0  0  0  0  0  0  0  0  0  0  0
  181.5410  178.0840  139.2590 C   0  0  1  0  0  3  0  0  0  0  0  0
  181.9810  179.4880  139.7280 C   0  0  2  0  0  3  0  0  0  0  0  0
  179.6930  177.2630  137.8240 C   0  0  0  0  0  3  0  0  0  0  0  0
  180.7670  178.0500  137.9650 C   0  0  0  0  0  0  0  0  0  0  0  0
  181.2500  178.9340  136.8450 C   0  0  0  0  0  2  0  0  0  0  0  0
  180.7000  179.5270  134.5980 O   0  0  0  0  0  0  0  0  0  0  0  0
  179.2750  177.9580  135.5550 N   0  0  0  0  0  0  0  0  0  0  0  0
  180.4060  178.8330  135.6060 C   0  0  0  0  0  0  0  0  0  0  0  0
  178.9310  177.2250  136.5690 C   0  0  0  0  0  3  0  0  0  0  0  0
  184.1400  178.7760  145.0400 C   0  0  0  0  0  0  0  0  0  0  0  0
  185.1070  179.7590  145.1680 F   0  0  0  0  0  0  0  0  0  0  0  0
  183.1050  179.0470  145.9160 F   0  0  0  0  0  0  0  0  0  0  0  0
  184.7120  177.5640  145.3830 F   0  0  0  0  0  0  0  0  0  0  0  0
  185.6340  177.6450  142.5810 C   0  0  0  0  0  2  0  0  0  0  0  0
  187.9030  178.3450  141.8430 C   0  0  0  0  0  2  0  0  0  0  0  0
  189.2860  178.2980  142.4590 C   0  0  1  0  0  3  0  0  0  0  0  0
  187.6430  177.4360  144.0610 C   0  0  0  0  0  2  0  0  0  0  0  0
  189.1330  177.5820  143.7940 C   0  0  2  0  0  3  0  0  0  0  0  0
  186.9470  178.2790  143.0110 C   0  0  2  0  0  3  0  0  0  0  0  0
  190.1970  177.5550  141.5860 C   0  0  0  0  0  0  0  0  0  0  0  0
  190.9180  176.9670  140.8970 N   0  0  0  0  0  0  0  0  0  0  0  0
  189.8530  178.3180  144.9280 C   0  0  0  0  0  2  0  0  0  0  0  0
  190.4840  177.3970  145.9260 C   0  0  0  0  0  0  0  0  0  0  0  0
  191.7110  177.1330  145.8500 O   0  0  0  0  0  0  0  0  0  0  0  0
  189.7210  176.8590  146.9540 O   0  0  0  0  0  1  0  0  0  0  0  0
  1  4  1  1  0  0  0
  1  5  1  0  0  0  0
  2  6  1  0  0  0  0
  3 12  2  0  0  0  0
  5 26  1  1  0  0  0
  5 12  1  0  0  0  0
  6  4  1  0  0  0  0
  8 14  1  0  0  0  0
  9  7  1  1  0  0  0
  9  3  1  0  0  0  0
 10  2  1  0  0  0  0
 10  6  1  0  0  0  0
 11  1  1  0  0  0  0
 11  9  1  0  0  0  0
 12 22  1  0  0  0  0
 13  6  1  0  0  0  0
 13 14  1  0  0  0  0
 14 11  1  0  0  0  0
 15 16  2  0  0  0  0
 16 13  1  0  0  0  0
 17 16  1  0  0  0  0
 18 20  2  0  0  0  0
 19 20  1  0  0  0  0
 19 21  2  0  0  0  0
 20 17  1  0  0  0  0
 21 15  1  0  0  0  0
 22 23  1  0  0  0  0
 22 25  1  0  0  0  0
 22 24  1  0  0  0  0
 26 31  1  0  0  0  0
 27 28  1  0  0  0  0
 27 31  1  0  0  0  0
 28 30  1  0  0  0  0
 30 29  1  0  0  0  0
 30 34  1  0  0  0  0
 31 29  1  0  0  0  0
 32 28  1  0  0  0  0
 33 32  3  0  0  0  0
 34 35  1  0  0  0  0
 35 37  1  0  0  0  0
 36 35  2  0  0  0  0
M  END
>  <MODEL>
4

>  <REMARK>
 VINA RESULT:      -7.4      5.728      9.699
  Name = 
  7 active torsions:
  status: ('A' for Active; 'I' for Inactive)
    1  A    between atoms: C_3  and  C_30
    2  A    between atoms: C_5  and  C_12
    3  A    between atoms: C_6  and  C_31
    4  A    between atoms: C_11  and  C_26
    5  A    between atoms: C_13  and  C_20
    6  A    between atoms: C_20  and  C_36
    7  A    between atoms: C_26  and  C_33
                            x       y       z     vdW  Elec       q    Type
                         _______ _______ _______ _____ _____    ______ ____

>  <TORSDO>
F 7

$$$$
=
 OpenBabel11052415203D

 37 41  0  0  1  0  0  0  0  0999 V2000
  189.0120  177.4670  141.1170 C   0  0  2  0  0  3  0  0  0  0  0  0
  191.0310  179.6480  143.5970 C   0  0  0  0  0  2  0  0  0  0  0  0
  186.3740  178.4130  140.7480 C   0  0  0  0  0  3  0  0  0  0  0  0
  189.7020  178.7480  141.6270 C   0  0  0  0  0  2  0  0  0  0  0  0
  188.4740  177.6110  139.6810 C   0  0  1  0  0  3  0  0  0  0  0  0
  190.1850  178.5260  143.0440 C   0  0  0  0  0  0  0  0  0  0  0  0
  185.6890  177.5030  142.9170 C   0  0  0  0  0  1  0  0  0  0  0  0
  189.3260  175.4100  143.2860 C   0  0  0  0  0  1  0  0  0  0  0  0
  186.8730  178.0210  142.1130 C   0  0  1  0  0  3  0  0  0  0  0  0
  191.6720  178.3140  143.2160 C   0  0  0  0  0  2  0  0  0  0  0  0
  187.9360  177.0020  142.0210 N   0  0  2  0  0  0  0  0  0  0  0  0
  187.1090  178.2810  139.6290 C   0  0  0  0  0  0  0  0  0  0  0  0
  189.1990  177.8630  144.0140 C   0  0  1  0  0  3  0  0  0  0  0  0
  188.4690  176.6700  143.3590 C   0  0  2  0  0  3  0  0  0  0  0  0
  188.9120  178.0760  146.4670 C   0  0  0  0  0  3  0  0  0  0  0  0
  189.6480  177.6420  145.4360 C   0  0  0  0  0  0  0  0  0  0  0  0
  190.9520  176.9160  145.6470 C   0  0  0  0  0  2  0  0  0  0  0  0
  192.3660  176.1420  147.4090 O   0  0  0  0  0  0  0  0  0  0  0  0
  190.4460  177.2420  148.1290 N   0  0  0  0  0  0  0  0  0  0  0  0
  191.3020  176.7390  147.0980 C   0  0  0  0  0  0  0  0  0  0  0  0
  189.3390  177.8620  147.8570 C   0  0  0  0  0  3  0  0  0  0  0  0
  186.4500  178.6280  138.3120 C   0  0  0  0  0  0  0  0  0  0  0  0
  186.1080  177.4720  137.6310 F   0  0  0  0  0  0  0  0  0  0  0  0
  185.3050  179.3630  138.5550 F   0  0  0  0  0  0  0  0  0  0  0  0
  187.2940  179.3680  137.5030 F   0  0  0  0  0  0  0  0  0  0  0  0
  189.4900  178.2760  138.7480 C   0  0  0  0  0  2  0  0  0  0  0  0
  189.1800  176.4650  137.0710 C   0  0  0  0  0  2  0  0  0  0  0  0
  189.8220  175.1150  136.8300 C   0  0  1  0  0  3  0  0  0  0  0  0
  190.9200  176.2200  138.7220 C   0  0  0  0  0  2  0  0  0  0  0  0
  190.8100  174.9040  137.9680 C   0  0  2  0  0  3  0  0  0  0  0  0
  190.1920  177.2460  137.8770 C   0  0  2  0  0  3  0  0  0  0  0  0
  188.8000  174.0660  136.8440 C   0  0  0  0  0  0  0  0  0  0  0  0
  187.9930  173.2360  136.8540 N   0  0  0  0  0  0  0  0  0  0  0  0
  192.1700  174.4120  137.4650 C   0  0  0  0  0  2  0  0  0  0  0  0
  193.1510  175.5180  137.2270 C   0  0  0  0  0  0  0  0  0  0  0  0
  193.1290  176.1560  136.1440 O   0  0  0  0  0  0  0  0  0  0  0  0
  194.0660  175.8610  138.2150 O   0  0  0  0  0  1  0  0  0  0  0  0
  1  4  1  1  0  0  0
  1 11  1  0  0  0  0
  3  9  1  0  0  0  0
  4  6  1  0  0  0  0
  5 26  1  6  0  0  0
  5  1  1  0  0  0  0
  6 10  1  0  0  0  0
  6  2  1  0  0  0  0
  6 13  1  0  0  0  0
  8 14  1  0  0  0  0
  9  7  1  1  0  0  0
 10  2  1  0  0  0  0
 11  9  1  0  0  0  0
 11 14  1  0  0  0  0
 12  5  1  0  0  0  0
 12  3  2  0  0  0  0
 13 16  1  0  0  0  0
 14 13  1  0  0  0  0
 15 21  1  0  0  0  0
 16 17  1  0  0  0  0
 16 15  2  0  0  0  0
 17 20  1  0  0  0  0
 20 18  2  0  0  0  0
 20 19  1  0  0  0  0
 21 19  2  0  0  0  0
 22 24  1  0  0  0  0
 22 12  1  0  0  0  0
 23 22  1  0  0  0  0
 25 22  1  0  0  0  0
 27 31  1  0  0  0  0
 28 32  1  0  0  0  0
 28 27  1  0  0  0  0
 28 30  1  0  0  0  0
 30 29  1  0  0  0  0
 31 29  1  0  0  0  0
 31 26  1  0  0  0  0
 32 33  3  0  0  0  0
 34 30  1  0  0  0  0
 35 34  1  0  0  0  0
 35 37  1  0  0  0  0
 36 35  2  0  0  0  0
M  END
>  <MODEL>
5

>  <REMARK>
 VINA RESULT:      -6.9      2.245      2.910
  Name = 
  7 active torsions:
  status: ('A' for Active; 'I' for Inactive)
    1  A    between atoms: C_3  and  C_30
    2  A    between atoms: C_5  and  C_12
    3  A    between atoms: C_6  and  C_31
    4  A    between atoms: C_11  and  C_26
    5  A    between atoms: C_13  and  C_20
    6  A    between atoms: C_20  and  C_36
    7  A    between atoms: C_26  and  C_33
                            x       y       z     vdW  Elec       q    Type
                         _______ _______ _______ _____ _____    ______ ____

>  <TORSDO>
F 7

$$$$
=
 OpenBabel11052415203D

 37 41  0  0  1  0  0  0  0  0999 V2000
  185.3830  177.7680  139.0890 C   0  0  2  0  0  3  0  0  0  0  0  0
  182.5140  180.3490  138.7930 C   0  0  0  0  0  2  0  0  0  0  0  0
  187.3810  178.1460  137.1250 C   0  0  0  0  0  3  0  0  0  0  0  0
  184.7420  179.1700  139.1110 C   0  0  0  0  0  2  0  0  0  0  0  0
  186.8590  177.7800  139.5300 C   0  0  1  0  0  3  0  0  0  0  0  0
  183.3040  179.0700  138.6510 C   0  0  0  0  0  0  0  0  0  0  0  0
  185.9540  177.1410  135.4060 C   0  0  0  0  0  1  0  0  0  0  0  0
  183.2030  175.8470  138.3210 C   0  0  0  0  0  1  0  0  0  0  0  0
  185.9510  177.8820  136.7350 C   0  0  1  0  0  3  0  0  0  0  0  0
  182.2500  179.1710  139.7300 C   0  0  0  0  0  2  0  0  0  0  0  0
  185.2500  177.1030  137.7730 N   0  0  2  0  0  0  0  0  0  0  0  0
  187.8080  178.1540  138.4010 C   0  0  0  0  0  0  0  0  0  0  0  0
  183.0370  178.2300  137.3960 C   0  0  1  0  0  3  0  0  0  0  0  0
  183.8290  176.9050  137.4170 C   0  0  2  0  0  3  0  0  0  0  0  0
  180.7910  177.1800  137.3780 C   0  0  0  0  0  3  0  0  0  0  0  0
  181.6150  178.1240  136.9060 C   0  0  0  0  0  0  0  0  0  0  0  0
  181.1640  179.1190  135.8680 C   0  0  0  0  0  2  0  0  0  0  0  0
  179.2290  179.7070  134.5980 O   0  0  0  0  0  0  0  0  0  0  0  0
  178.9310  177.8910  136.0210 N   0  0  0  0  0  0  0  0  0  0  0  0
  179.7300  178.9340  135.4550 C   0  0  0  0  0  0  0  0  0  0  0  0
  179.4030  177.0720  136.9090 C   0  0  0  0  0  3  0  0  0  0  0  0
  189.2880  178.3420  138.6440 C   0  0  0  0  0  0  0  0  0  0  0  0
  189.6970  177.5660  139.7170 F   0  0  0  0  0  0  0  0  0  0  0  0
  189.9890  177.9550  137.5170 F   0  0  0  0  0  0  0  0  0  0  0  0
  189.5920  179.6610  138.9300 F   0  0  0  0  0  0  0  0  0  0  0  0
  187.0780  178.6290  140.7860 C   0  0  0  0  0  2  0  0  0  0  0  0
  186.0280  177.9510  142.9370 C   0  0  0  0  0  2  0  0  0  0  0  0
  186.5460  177.6560  144.3280 C   0  0  1  0  0  3  0  0  0  0  0  0
  188.4290  178.1510  142.8390 C   0  0  0  0  0  2  0  0  0  0  0  0
  188.0420  177.9350  144.2950 C   0  0  2  0  0  3  0  0  0  0  0  0
  187.2150  177.7550  142.0220 C   0  0  2  0  0  3  0  0  0  0  0  0
  185.8890  178.5300  145.3020 C   0  0  0  0  0  0  0  0  0  0  0  0
  185.3710  179.2210  146.0730 N   0  0  0  0  0  0  0  0  0  0  0  0
  188.8520  176.8100  144.9460 C   0  0  0  0  0  2  0  0  0  0  0  0
  189.5200  177.2210  146.2210 C   0  0  0  0  0  0  0  0  0  0  0  0
  188.9630  178.0510  146.9840 O   0  0  0  0  0  1  0  0  0  0  0  0
  190.7420  176.6640  146.5770 O   0  0  0  0  0  0  0  0  0  0  0  0
  1  4  1  6  0  0  0
  1  5  1  0  0  0  0
  2 10  1  0  0  0  0
  3 12  2  0  0  0  0
  5 26  1  1  0  0  0
  6  2  1  0  0  0  0
  6  4  1  0  0  0  0
  6 10  1  0  0  0  0
  9  7  1  6  0  0  0
  9  3  1  0  0  0  0
  9 11  1  0  0  0  0
 11  1  1  0  0  0  0
 12 22  1  0  0  0  0
 12  5  1  0  0  0  0
 13 14  1  0  0  0  0
 13  6  1  0  0  0  0
 14 11  1  0  0  0  0
 14  8  1  0  0  0  0
 16 15  2  0  0  0  0
 16 13  1  0  0  0  0
 17 16  1  0  0  0  0
 18 20  2  0  0  0  0
 19 21  2  0  0  0  0
 20 17  1  0  0  0  0
 20 19  1  0  0  0  0
 21 15  1  0  0  0  0
 22 25  1  0  0  0  0
 22 23  1  0  0  0  0
 24 22  1  0  0  0  0
 26 31  1  0  0  0  0
 27 28  1  0  0  0  0
 28 32  1  0  0  0  0
 29 30  1  0  0  0  0
 30 28  1  0  0  0  0
 30 34  1  0  0  0  0
 31 29  1  0  0  0  0
 31 27  1  0  0  0  0
 32 33  3  0  0  0  0
 34 35  1  0  0  0  0
 35 37  2  0  0  0  0
 35 36  1  0  0  0  0
M  END
>  <MODEL>
6

>  <REMARK>
 VINA RESULT:      -6.5      5.036      9.523
  Name = 
  7 active torsions:
  status: ('A' for Active; 'I' for Inactive)
    1  A    between atoms: C_3  and  C_30
    2  A    between atoms: C_5  and  C_12
    3  A    between atoms: C_6  and  C_31
    4  A    between atoms: C_11  and  C_26
    5  A    between atoms: C_13  and  C_20
    6  A    between atoms: C_20  and  C_36
    7  A    between atoms: C_26  and  C_33
                            x       y       z     vdW  Elec       q    Type
                         _______ _______ _______ _____ _____    ______ ____

>  <TORSDO>
F 7

$$$$
=
 OpenBabel11052415203D

 37 41  0  0  1  0  0  0  0  0999 V2000
  188.1370  177.4730  141.3280 C   0  0  2  0  0  3  0  0  0  0  0  0
  190.8730  179.2980  143.3680 C   0  0  0  0  0  2  0  0  0  0  0  0
  185.7140  178.9260  141.2310 C   0  0  0  0  0  3  0  0  0  0  0  0
  189.1310  178.6050  141.6530 C   0  0  0  0  0  2  0  0  0  0  0  0
  187.4430  177.6620  139.9650 C   0  0  1  0  0  3  0  0  0  0  0  0
  189.7530  178.3510  143.0090 C   0  0  0  0  0  0  0  0  0  0  0  0
  185.1710  178.2740  143.5290 C   0  0  0  0  0  1  0  0  0  0  0  0
  188.3350  175.4940  143.5810 C   0  0  0  0  0  1  0  0  0  0  0  0
  186.3100  178.5000  142.5460 C   0  0  1  0  0  3  0  0  0  0  0  0
  191.1770  177.8450  143.0050 C   0  0  0  0  0  2  0  0  0  0  0  0
  187.1260  177.2810  142.3920 N   0  0  2  0  0  0  0  0  0  0  0  0
  186.2450  178.5960  140.0400 C   0  0  0  0  0  0  0  0  0  0  0  0
  188.8000  177.9490  144.1420 C   0  0  1  0  0  3  0  0  0  0  0  0
  187.7640  176.9060  143.6720 C   0  0  2  0  0  3  0  0  0  0  0  0
  190.5750  177.0960  145.6480 C   0  0  0  0  0  3  0  0  0  0  0  0
  189.3900  177.7030  145.5070 C   0  0  0  0  0  0  0  0  0  0  0  0
  188.5940  178.1680  146.7000 C   0  0  0  0  0  2  0  0  0  0  0  0
  188.7140  178.2310  149.0840 O   0  0  0  0  0  0  0  0  0  0  0  0
  190.5430  177.2270  148.0550 N   0  0  0  0  0  0  0  0  0  0  0  0
  189.2730  177.8860  148.0110 C   0  0  0  0  0  0  0  0  0  0  0  0
  191.1590  176.8550  146.9750 C   0  0  0  0  0  3  0  0  0  0  0  0
  185.4920  179.0130  138.7960 C   0  0  0  0  0  0  0  0  0  0  0  0
  186.3520  179.6270  137.9020 F   0  0  0  0  0  0  0  0  0  0  0  0
  184.9450  177.8940  138.1980 F   0  0  0  0  0  0  0  0  0  0  0  0
  184.4760  179.9040  139.0940 F   0  0  0  0  0  0  0  0  0  0  0  0
  188.4320  178.0600  138.8660 C   0  0  0  0  0  2  0  0  0  0  0  0
  190.4510  176.6160  139.0080 C   0  0  0  0  0  2  0  0  0  0  0  0
  191.3390  175.9240  137.9950 C   0  0  1  0  0  3  0  0  0  0  0  0
  189.4970  177.0520  136.8370 C   0  0  0  0  0  2  0  0  0  0  0  0
  190.8200  176.3320  136.6240 C   0  0  2  0  0  3  0  0  0  0  0  0
  189.1390  176.8420  138.2950 C   0  0  2  0  0  3  0  0  0  0  0  0
  192.7260  176.3620  138.1640 C   0  0  0  0  0  0  0  0  0  0  0  0
  193.8230  176.7090  138.2960 N   0  0  0  0  0  0  0  0  0  0  0  0
  190.6780  175.1330  135.6820 C   0  0  0  0  0  2  0  0  0  0  0  0
  189.7070  174.1040  136.1720 C   0  0  0  0  0  0  0  0  0  0  0  0
  189.9640  173.4400  137.2090 O   0  0  0  0  0  1  0  0  0  0  0  0
  188.5090  173.9020  135.4990 O   0  0  0  0  0  0  0  0  0  0  0  0
  1  4  1  1  0  0  0
  1 11  1  0  0  0  0
  3  9  1  0  0  0  0
  4  6  1  0  0  0  0
  5 26  1  6  0  0  0
  5 12  1  0  0  0  0
  5  1  1  0  0  0  0
  6  2  1  0  0  0  0
  6 13  1  0  0  0  0
  8 14  1  0  0  0  0
  9  7  1  1  0  0  0
 10  6  1  0  0  0  0
 10  2  1  0  0  0  0
 11  9  1  0  0  0  0
 11 14  1  0  0  0  0
 12  3  2  0  0  0  0
 13 16  1  0  0  0  0
 14 13  1  0  0  0  0
 15 21  1  0  0  0  0
 16 15  2  0  0  0  0
 16 17  1  0  0  0  0
 17 20  1  0  0  0  0
 20 19  1  0  0  0  0
 20 18  2  0  0  0  0
 21 19  2  0  0  0  0
 22 25  1  0  0  0  0
 22 12  1  0  0  0  0
 23 22  1  0  0  0  0
 24 22  1  0  0  0  0
 28 32  1  0  0  0  0
 28 27  1  0  0  0  0
 29 31  1  0  0  0  0
 30 29  1  0  0  0  0
 30 28  1  0  0  0  0
 31 26  1  0  0  0  0
 31 27  1  0  0  0  0
 32 33  3  0  0  0  0
 34 35  1  0  0  0  0
 34 30  1  0  0  0  0
 35 36  1  0  0  0  0
 37 35  2  0  0  0  0
M  END
>  <MODEL>
7

>  <REMARK>
 VINA RESULT:      -6.4      1.913      2.575
  Name = 
  7 active torsions:
  status: ('A' for Active; 'I' for Inactive)
    1  A    between atoms: C_3  and  C_30
    2  A    between atoms: C_5  and  C_12
    3  A    between atoms: C_6  and  C_31
    4  A    between atoms: C_11  and  C_26
    5  A    between atoms: C_13  and  C_20
    6  A    between atoms: C_20  and  C_36
    7  A    between atoms: C_26  and  C_33
                            x       y       z     vdW  Elec       q    Type
                         _______ _______ _______ _____ _____    ______ ____

>  <TORSDO>
F 7

$$$$
=
 OpenBabel11052415203D

 37 41  0  0  1  0  0  0  0  0999 V2000
  189.5970  177.1280  140.9640 C   0  0  2  0  0  3  0  0  0  0  0  0
  191.4220  178.9830  143.8290 C   0  0  0  0  0  2  0  0  0  0  0  0
  187.5370  178.6840  139.8120 C   0  0  0  0  0  3  0  0  0  0  0  0
  190.4640  178.2340  141.5980 C   0  0  0  0  0  2  0  0  0  0  0  0
  189.5240  177.2360  139.4290 C   0  0  1  0  0  3  0  0  0  0  0  0
  190.4690  178.0650  143.1020 C   0  0  0  0  0  0  0  0  0  0  0  0
  186.0710  178.2530  141.7270 C   0  0  0  0  0  1  0  0  0  0  0  0
  188.7220  175.3370  143.2130 C   0  0  0  0  0  1  0  0  0  0  0  0
  187.5220  178.3410  141.2770 C   0  0  1  0  0  3  0  0  0  0  0  0
  191.7320  177.4910  143.7040 C   0  0  0  0  0  2  0  0  0  0  0  0
  188.2330  177.0750  141.5370 N   0  0  2  0  0  0  0  0  0  0  0  0
  188.4720  178.2300  138.9580 C   0  0  0  0  0  0  0  0  0  0  0  0
  189.1150  177.8050  143.7730 C   0  0  1  0  0  3  0  0  0  0  0  0
  188.2750  176.7770  142.9840 C   0  0  2  0  0  3  0  0  0  0  0  0
  190.1330  177.1300  145.9300 C   0  0  0  0  0  3  0  0  0  0  0  0
  189.0870  177.6460  145.2720 C   0  0  0  0  0  0  0  0  0  0  0  0
  187.8420  178.0910  145.9940 C   0  0  0  0  0  2  0  0  0  0  0  0
  186.9450  178.2390  148.2020 O   0  0  0  0  0  0  0  0  0  0  0  0
  189.0860  177.3360  148.0920 N   0  0  0  0  0  0  0  0  0  0  0  0
  187.9200  177.9000  147.4830 C   0  0  0  0  0  0  0  0  0  0  0  0
  190.1170  176.9750  147.3920 C   0  0  0  0  0  3  0  0  0  0  0  0
  188.3150  178.5780  137.4950 C   0  0  0  0  0  0  0  0  0  0  0  0
  189.4300  179.2660  137.0460 F   0  0  0  0  0  0  0  0  0  0  0  0
  188.1800  177.4130  136.7620 F   0  0  0  0  0  0  0  0  0  0  0  0
  187.2040  179.3740  137.2800 F   0  0  0  0  0  0  0  0  0  0  0  0
  190.8970  177.4930  138.8030 C   0  0  0  0  0  2  0  0  0  0  0  0
  189.8730  175.8460  137.2460 C   0  0  0  0  0  2  0  0  0  0  0  0
  190.3250  174.5380  136.6310 C   0  0  1  0  0  3  0  0  0  0  0  0
  192.1400  175.4790  137.9830 C   0  0  0  0  0  2  0  0  0  0  0  0
  191.6950  174.2390  137.2230 C   0  0  2  0  0  3  0  0  0  0  0  0
  191.1460  176.5670  137.6240 C   0  0  2  0  0  3  0  0  0  0  0  0
  189.3810  173.4720  136.9710 C   0  0  0  0  0  0  0  0  0  0  0  0
  188.6330  172.6300  137.2410 N   0  0  0  0  0  0  0  0  0  0  0  0
  192.7080  173.8250  136.1510 C   0  0  0  0  0  2  0  0  0  0  0  0
  192.7200  172.3520  135.8830 C   0  0  0  0  0  0  0  0  0  0  0  0
  193.5570  171.6140  136.4640 O   0  0  0  0  0  1  0  0  0  0  0  0
  191.7880  171.7960  135.0160 O   0  0  0  0  0  0  0  0  0  0  0  0
  1 11  1  0  0  0  0
  1  4  1  1  0  0  0
  3  9  1  0  0  0  0
  4  6  1  0  0  0  0
  5 26  1  1  0  0  0
  5  1  1  0  0  0  0
  6 10  1  0  0  0  0
  6 13  1  0  0  0  0
  6  2  1  0  0  0  0
  9 11  1  0  0  0  0
  9  7  1  6  0  0  0
 10  2  1  0  0  0  0
 11 14  1  0  0  0  0
 12  5  1  0  0  0  0
 12  3  2  0  0  0  0
 13 16  1  0  0  0  0
 14  8  1  0  0  0  0
 14 13  1  0  0  0  0
 15 21  1  0  0  0  0
 16 15  2  0  0  0  0
 16 17  1  0  0  0  0
 17 20  1  0  0  0  0
 20 19  1  0  0  0  0
 20 18  2  0  0  0  0
 21 19  2  0  0  0  0
 22 12  1  0  0  0  0
 23 22  1  0  0  0  0
 24 22  1  0  0  0  0
 25 22  1  0  0  0  0
 27 31  1  0  0  0  0
 28 32  1  0  0  0  0
 28 30  1  0  0  0  0
 28 27  1  0  0  0  0
 30 29  1  0  0  0  0
 31 29  1  0  0  0  0
 31 26  1  0  0  0  0
 32 33  3  0  0  0  0
 34 30  1  0  0  0  0
 35 34  1  0  0  0  0
 35 36  1  0  0  0  0
 37 35  2  0  0  0  0
M  END
>  <MODEL>
8

>  <REMARK>
 VINA RESULT:      -6.3      1.473      2.007
  Name = 
  7 active torsions:
  status: ('A' for Active; 'I' for Inactive)
    1  A    between atoms: C_3  and  C_30
    2  A    between atoms: C_5  and  C_12
    3  A    between atoms: C_6  and  C_31
    4  A    between atoms: C_11  and  C_26
    5  A    between atoms: C_13  and  C_20
    6  A    between atoms: C_20  and  C_36
    7  A    between atoms: C_26  and  C_33
                            x       y       z     vdW  Elec       q    Type
                         _______ _______ _______ _____ _____    ______ ____

>  <TORSDO>
F 7

$$$$
=
 OpenBabel11052415203D

 37 41  0  0  1  0  0  0  0  0999 V2000
  185.7020  178.2110  137.8360 C   0  0  2  0  0  3  0  0  0  0  0  0
  189.0400  176.7560  139.1450 C   0  0  0  0  0  2  0  0  0  0  0  0
  183.6130  176.3060  137.8570 C   0  0  0  0  0  3  0  0  0  0  0  0
  186.6560  177.5920  138.8760 C   0  0  0  0  0  2  0  0  0  0  0  0
  184.3420  178.6130  138.4390 C   0  0  1  0  0  3  0  0  0  0  0  0
  187.9560  177.2130  138.1990 C   0  0  0  0  0  0  0  0  0  0  0  0
  184.5200  175.2110  135.8620 C   0  0  0  0  0  1  0  0  0  0  0  0
  187.2390  178.3710  135.2580 C   0  0  0  0  0  1  0  0  0  0  0  0
  184.8740  176.0640  137.0720 C   0  0  1  0  0  3  0  0  0  0  0  0
  189.1350  178.1210  138.4650 C   0  0  0  0  0  2  0  0  0  0  0  0
  185.4980  177.3350  136.6590 N   0  0  2  0  0  0  0  0  0  0  0  0
  183.3710  177.4450  138.5310 C   0  0  0  0  0  0  0  0  0  0  0  0
  187.8480  176.4690  136.8630 C   0  0  1  0  0  3  0  0  0  0  0  0
  186.7710  177.0930  135.9480 C   0  0  2  0  0  3  0  0  0  0  0  0
  189.7260  176.8840  135.2990 C   0  0  0  0  0  3  0  0  0  0  0  0
  189.1260  176.0660  136.1730 C   0  0  0  0  0  0  0  0  0  0  0  0
  189.6970  174.7120  136.5060 C   0  0  0  0  0  2  0  0  0  0  0  0
  191.5560  173.3130  135.9700 O   0  0  0  0  0  0  0  0  0  0  0  0
  191.5360  175.3560  134.8560 N   0  0  0  0  0  0  0  0  0  0  0  0
  190.9740  174.4120  135.7740 C   0  0  0  0  0  0  0  0  0  0  0  0
  190.9740  176.5020  134.6240 C   0  0  0  0  0  3  0  0  0  0  0  0
  182.0230  177.5920  139.2010 C   0  0  0  0  0  0  0  0  0  0  0  0
  181.0160  177.1960  138.3370 F   0  0  0  0  0  0  0  0  0  0  0  0
  181.9860  176.7950  140.3300 F   0  0  0  0  0  0  0  0  0  0  0  0
  181.7810  178.9030  139.5700 F   0  0  0  0  0  0  0  0  0  0  0  0
  184.4990  179.3530  139.7700 C   0  0  0  0  0  2  0  0  0  0  0  0
  183.9000  178.3920  141.9840 C   0  0  0  0  0  2  0  0  0  0  0  0
  184.6720  178.0480  143.2400 C   0  0  1  0  0  3  0  0  0  0  0  0
  186.2180  178.8720  141.5260 C   0  0  0  0  0  2  0  0  0  0  0  0
  186.1050  178.4980  142.9960 C   0  0  2  0  0  3  0  0  0  0  0  0
  184.9290  178.4060  140.8780 C   0  0  2  0  0  3  0  0  0  0  0  0
  184.1040  178.7610  144.3870 C   0  0  0  0  0  0  0  0  0  0  0  0
  183.6560  179.3240  145.2940 N   0  0  0  0  0  0  0  0  0  0  0  0
  187.1220  177.4260  143.3980 C   0  0  0  0  0  2  0  0  0  0  0  0
  187.7570  177.6790  144.7300 C   0  0  0  0  0  0  0  0  0  0  0  0
  187.0870  177.5310  145.7850 O   0  0  0  0  0  1  0  0  0  0  0  0
  189.0930  178.0490  144.8040 O   0  0  0  0  0  0  0  0  0  0  0  0
  1  5  1  0  0  0  0
  1  4  1  1  0  0  0
  3 12  2  0  0  0  0
  5 12  1  0  0  0  0
  5 26  1  1  0  0  0
  6 10  1  0  0  0  0
  6  4  1  0  0  0  0
  6  2  1  0  0  0  0
  8 14  1  0  0  0  0
  9  7  1  6  0  0  0
  9  3  1  0  0  0  0
 10  2  1  0  0  0  0
 11  9  1  0  0  0  0
 11  1  1  0  0  0  0
 12 22  1  0  0  0  0
 13  6  1  0  0  0  0
 14 11  1  0  0  0  0
 14 13  1  0  0  0  0
 15 16  2  0  0  0  0
 16 17  1  0  0  0  0
 16 13  1  0  0  0  0
 19 20  1  0  0  0  0
 20 18  2  0  0  0  0
 20 17  1  0  0  0  0
 21 19  2  0  0  0  0
 21 15  1  0  0  0  0
 22 25  1  0  0  0  0
 22 24  1  0  0  0  0
 23 22  1  0  0  0  0
 26 31  1  0  0  0  0
 27 28  1  0  0  0  0
 28 32  1  0  0  0  0
 29 30  1  0  0  0  0
 30 28  1  0  0  0  0
 30 34  1  0  0  0  0
 31 29  1  0  0  0  0
 31 27  1  0  0  0  0
 32 33  3  0  0  0  0
 34 35  1  0  0  0  0
 35 37  2  0  0  0  0
 35 36  1  0  0  0  0
M  END
>  <MODEL>
9

>  <REMARK>
 VINA RESULT:      -6.1      3.520      9.309
  Name = 
  7 active torsions:
  status: ('A' for Active; 'I' for Inactive)
    1  A    between atoms: C_3  and  C_30
    2  A    between atoms: C_5  and  C_12
    3  A    between atoms: C_6  and  C_31
    4  A    between atoms: C_11  and  C_26
    5  A    between atoms: C_13  and  C_20
    6  A    between atoms: C_20  and  C_36
    7  A    between atoms: C_26  and  C_33
                            x       y       z     vdW  Elec       q    Type
                         _______ _______ _______ _____ _____    ______ ____

>  <TORSDO>
F 7

$$$$
