=
 OpenBabel11052412453D

 25 28  0  0  1  0  0  0  0  0999 V2000
  188.3560  177.4370  145.3660 C   0  0  0  0  0  0  0  0  0  0  0  0
  187.0430  177.9580  145.7220 C   0  0  0  0  0  0  0  0  0  0  0  0
  187.7070  178.2150  148.1050 C   0  0  0  0  0  2  0  0  0  0  0  0
  185.9210  178.1850  144.9590 C   0  0  0  0  0  0  0  0  0  0  0  0
  183.3900  178.8660  144.0820 C   0  0  0  0  0  3  0  0  0  0  0  0
  189.0130  177.6720  147.6830 N   0  0  0  0  0  0  0  0  0  0  0  0
  184.9960  178.6780  145.8470 C   0  0  0  0  0  0  0  0  0  0  0  0
  183.7110  179.0330  145.4430 C   0  0  0  0  0  3  0  0  0  0  0  0
  190.6360  176.7990  146.1610 N   0  0  0  0  0  0  0  0  0  0  0  0
  191.6500  176.6470  147.1910 C   0  0  0  0  0  1  0  0  0  0  0  0
  188.6920  177.0720  144.1260 C   0  0  0  0  0  3  0  0  0  0  0  0
  184.3460  178.3570  143.1720 C   0  0  0  0  0  3  0  0  0  0  0  0
  186.7630  178.3080  146.9900 N   0  0  0  0  0  0  0  0  0  0  0  0
  185.5150  178.7540  147.0890 N   0  0  0  0  0  0  0  0  0  0  0  0
  190.9500  176.4180  144.8130 C   0  0  0  0  0  3  0  0  0  0  0  0
  185.6380  178.0060  143.6080 C   0  0  0  0  0  3  0  0  0  0  0  0
  190.0430  176.5460  143.8350 C   0  0  0  0  0  0  0  0  0  0  0  0
  189.3290  177.3170  146.4640 C   0  0  0  0  0  0  0  0  0  0  0  0
  190.3890  176.1260  142.4460 C   0  0  0  0  0  2  0  0  0  0  0  0
  190.4460  177.3260  141.5130 C   0  0  1  0  0  3  0  0  0  0  0  0
  191.8320  177.6860  141.2620 N   0  0  0  0  0  1  0  0  0  0  0  0
  189.7580  176.9710  140.2040 C   0  0  0  0  0  2  0  0  0  0  0  0
  188.2510  178.7180  141.1500 C   0  0  0  0  0  1  0  0  0  0  0  0
  189.0180  178.8470  138.8600 N   0  0  0  0  0  1  0  0  0  0  0  0
  188.6140  177.9270  139.9080 C   0  0  1  0  0  3  0  0  0  0  0  0
  1  2  1  0  0  0  0
  1 18  1  0  0  0  0
  2 13  1  0  0  0  0
  4  2  2  0  0  0  0
  4  7  1  0  0  0  0
  5  8  2  0  0  0  0
  6  3  1  0  0  0  0
  7 14  2  0  0  0  0
  8  7  1  0  0  0  0
  9 18  1  0  0  0  0
  9 10  1  0  0  0  0
 11  1  2  0  0  0  0
 12 16  2  0  0  0  0
 12  5  1  0  0  0  0
 13 14  1  0  0  0  0
 13  3  1  0  0  0  0
 15  9  1  0  0  0  0
 16  4  1  0  0  0  0
 17 11  1  0  0  0  0
 17 15  2  0  0  0  0
 18  6  2  0  0  0  0
 19 17  1  0  0  0  0
 20 21  1  6  0  0  0
 20 19  1  0  0  0  0
 22 20  1  0  0  0  0
 24 25  1  0  0  0  0
 25 22  1  0  0  0  0
 25 23  1  1  0  0  0
M  END
>  <MODEL>
1

>  <REMARK>
 VINA RESULT:     -10.1      0.000      0.000
  Name = 
  4 active torsions:
  status: ('A' for Active; 'I' for Inactive)
    1  A    between atoms: C_6  and  C_15
    2  A    between atoms: C_6  and  C_23
    3  A    between atoms: C_12  and  C_21
    4  A    between atoms: C_15  and  C_21
                            x       y       z     vdW  Elec       q    Type
                         _______ _______ _______ _____ _____    ______ ____

>  <TORSDO>
F 4

$$$$
=
 OpenBabel11052412453D

 25 28  0  0  1  0  0  0  0  0999 V2000
  187.1550  177.7040  144.8980 C   0  0  0  0  0  0  0  0  0  0  0  0
  185.7890  178.2080  144.8600 C   0  0  0  0  0  0  0  0  0  0  0  0
  185.8290  178.7250  147.2920 C   0  0  0  0  0  2  0  0  0  0  0  0
  184.8910  178.3160  143.8230 C   0  0  0  0  0  0  0  0  0  0  0  0
  182.6540  178.8100  142.2770 C   0  0  0  0  0  3  0  0  0  0  0  0
  187.2060  178.1920  147.2680 N   0  0  0  0  0  0  0  0  0  0  0  0
  183.7670  178.8590  144.3950 C   0  0  0  0  0  0  0  0  0  0  0  0
  182.6210  179.1220  143.6500 C   0  0  0  0  0  3  0  0  0  0  0  0
  189.1690  177.2360  146.2980 N   0  0  0  0  0  0  0  0  0  0  0  0
  189.8940  177.2250  147.5580 C   0  0  0  0  0  1  0  0  0  0  0  0
  187.7970  177.2320  143.8270 C   0  0  0  0  0  3  0  0  0  0  0  0
  183.8140  178.2500  141.6920 C   0  0  0  0  0  3  0  0  0  0  0  0
  185.1950  178.6710  145.9750 N   0  0  0  0  0  0  0  0  0  0  0  0
  183.9570  179.0760  145.7130 N   0  0  0  0  0  0  0  0  0  0  0  0
  189.8170  176.7360  145.1190 C   0  0  0  0  0  3  0  0  0  0  0  0
  184.9590  177.9940  142.4700 C   0  0  0  0  0  3  0  0  0  0  0  0
  189.1840  176.7320  143.9380 C   0  0  0  0  0  0  0  0  0  0  0  0
  187.8230  177.7320  146.2110 C   0  0  0  0  0  0  0  0  0  0  0  0
  189.8720  176.1910  142.7310 C   0  0  0  0  0  2  0  0  0  0  0  0
  190.2360  177.3080  141.7650 C   0  0  1  0  0  3  0  0  0  0  0  0
  191.6090  177.7280  141.9970 N   0  0  0  0  0  1  0  0  0  0  0  0
  190.0840  176.8020  140.3390 C   0  0  0  0  0  2  0  0  0  0  0  0
  188.2940  178.5260  140.5420 C   0  0  0  0  0  1  0  0  0  0  0  0
  189.4830  178.2090  138.4600 N   0  0  0  0  0  1  0  0  0  0  0  0
  188.9520  177.5170  139.6200 C   0  0  1  0  0  3  0  0  0  0  0  0
  1 18  1  0  0  0  0
  2  1  1  0  0  0  0
  2 13  1  0  0  0  0
  4  7  1  0  0  0  0
  4  2  2  0  0  0  0
  5  8  2  0  0  0  0
  6  3  1  0  0  0  0
  7 14  2  0  0  0  0
  8  7  1  0  0  0  0
  9 10  1  0  0  0  0
 11 17  1  0  0  0  0
 11  1  2  0  0  0  0
 12  5  1  0  0  0  0
 12 16  2  0  0  0  0
 13  3  1  0  0  0  0
 14 13  1  0  0  0  0
 15  9  1  0  0  0  0
 16  4  1  0  0  0  0
 17 15  2  0  0  0  0
 18  9  1  0  0  0  0
 18  6  2  0  0  0  0
 19 17  1  0  0  0  0
 20 21  1  1  0  0  0
 20 19  1  0  0  0  0
 22 20  1  0  0  0  0
 24 25  1  0  0  0  0
 25 22  1  0  0  0  0
 25 23  1  1  0  0  0
M  END
>  <MODEL>
2

>  <REMARK>
 VINA RESULT:      -9.5      1.073      1.458
  Name = 
  4 active torsions:
  status: ('A' for Active; 'I' for Inactive)
    1  A    between atoms: C_6  and  C_15
    2  A    between atoms: C_6  and  C_23
    3  A    between atoms: C_12  and  C_21
    4  A    between atoms: C_15  and  C_21
                            x       y       z     vdW  Elec       q    Type
                         _______ _______ _______ _____ _____    ______ ____

>  <TORSDO>
F 4

$$$$
=
 OpenBabel11052412453D

 25 28  0  0  1  0  0  0  0  0999 V2000
  186.8660  178.1050  143.4760 C   0  0  0  0  0  0  0  0  0  0  0  0
  187.4990  178.1170  142.1640 C   0  0  0  0  0  0  0  0  0  0  0  0
  185.4410  179.0140  141.0930 C   0  0  0  0  0  2  0  0  0  0  0  0
  188.7630  177.7490  141.7650 C   0  0  0  0  0  0  0  0  0  0  0  0
  191.0420  177.2150  140.2960 C   0  0  0  0  0  3  0  0  0  0  0  0
  184.8530  178.9680  142.4460 N   0  0  0  0  0  0  0  0  0  0  0  0
  188.7770  177.9780  140.4110 C   0  0  0  0  0  0  0  0  0  0  0  0
  189.9050  177.7220  139.6370 C   0  0  0  0  0  3  0  0  0  0  0  0
  184.8000  178.5660  144.8010 N   0  0  0  0  0  0  0  0  0  0  0  0
  183.4200  179.0040  144.9350 C   0  0  0  0  0  1  0  0  0  0  0  0
  187.4820  177.7000  144.5890 C   0  0  0  0  0  3  0  0  0  0  0  0
  191.0230  176.9810  141.6910 C   0  0  0  0  0  3  0  0  0  0  0  0
  186.8250  178.5360  141.0780 N   0  0  0  0  0  0  0  0  0  0  0  0
  187.5890  178.4610  139.9940 N   0  0  0  0  0  0  0  0  0  0  0  0
  185.5040  178.1190  145.9700 C   0  0  0  0  0  3  0  0  0  0  0  0
  189.8680  177.2480  142.4490 C   0  0  0  0  0  3  0  0  0  0  0  0
  186.7770  177.7110  145.8880 C   0  0  0  0  0  0  0  0  0  0  0  0
  185.4680  178.5680  143.5290 C   0  0  0  0  0  0  0  0  0  0  0  0
  187.4820  177.2350  147.1140 C   0  0  0  0  0  2  0  0  0  0  0  0
  188.9320  177.6940  147.1220 C   0  0  1  0  0  3  0  0  0  0  0  0
  189.1930  178.4720  148.3220 N   0  0  0  0  0  1  0  0  0  0  0  0
  189.8390  176.4740  147.0880 C   0  0  0  0  0  2  0  0  0  0  0  0
  192.1910  175.7140  147.4190 C   0  0  0  0  0  1  0  0  0  0  0  0
  191.6300  177.2920  145.6740 N   0  0  0  0  0  1  0  0  0  0  0  0
  191.3030  176.8800  147.0270 C   0  0  1  0  0  3  0  0  0  0  0  0
  1 18  1  0  0  0  0
  1 11  2  0  0  0  0
  2  1  1  0  0  0  0
  3  6  1  0  0  0  0
  4  2  2  0  0  0  0
  4 16  1  0  0  0  0
  5 12  1  0  0  0  0
  6 18  2  0  0  0  0
  7  4  1  0  0  0  0
  8  5  2  0  0  0  0
  8  7  1  0  0  0  0
  9 10  1  0  0  0  0
  9 15  1  0  0  0  0
 11 17  1  0  0  0  0
 12 16  2  0  0  0  0
 13  3  1  0  0  0  0
 13  2  1  0  0  0  0
 14  7  2  0  0  0  0
 14 13  1  0  0  0  0
 17 15  2  0  0  0  0
 17 19  1  0  0  0  0
 18  9  1  0  0  0  0
 19 20  1  0  0  0  0
 20 21  1  1  0  0  0
 22 20  1  0  0  0  0
 24 25  1  0  0  0  0
 25 22  1  0  0  0  0
 25 23  1  6  0  0  0
M  END
>  <MODEL>
3

>  <REMARK>
 VINA RESULT:      -9.1      1.645      6.433
  Name = 
  4 active torsions:
  status: ('A' for Active; 'I' for Inactive)
    1  A    between atoms: C_6  and  C_15
    2  A    between atoms: C_6  and  C_23
    3  A    between atoms: C_12  and  C_21
    4  A    between atoms: C_15  and  C_21
                            x       y       z     vdW  Elec       q    Type
                         _______ _______ _______ _____ _____    ______ ____

>  <TORSDO>
F 4

$$$$
=
 OpenBabel11052412453D

 25 28  0  0  1  0  0  0  0  0999 V2000
  187.0630  178.2650  141.6120 C   0  0  0  0  0  0  0  0  0  0  0  0
  185.8310  178.5020  142.3510 C   0  0  0  0  0  0  0  0  0  0  0  0
  184.5600  178.9090  140.2530 C   0  0  0  0  0  2  0  0  0  0  0  0
  185.5670  178.4870  143.7010 C   0  0  0  0  0  0  0  0  0  0  0  0
  184.3510  178.6270  146.1780 C   0  0  0  0  0  3  0  0  0  0  0  0
  185.8420  178.6690  139.5620 N   0  0  0  0  0  0  0  0  0  0  0  0
  184.2300  178.7880  143.7940 C   0  0  0  0  0  0  0  0  0  0  0  0
  183.5820  178.8670  145.0230 C   0  0  0  0  0  3  0  0  0  0  0  0
  188.1690  178.1600  139.3750 N   0  0  0  0  0  0  0  0  0  0  0  0
  188.1650  178.2580  137.9250 C   0  0  0  0  0  1  0  0  0  0  0  0
  188.2270  177.9660  142.1950 C   0  0  0  0  0  3  0  0  0  0  0  0
  185.7270  178.3180  146.0780 C   0  0  0  0  0  3  0  0  0  0  0  0
  184.6890  178.8010  141.7070 N   0  0  0  0  0  0  0  0  0  0  0  0
  183.6950  178.9780  142.5710 N   0  0  0  0  0  0  0  0  0  0  0  0
  189.3980  177.8430  140.0470 C   0  0  0  0  0  3  0  0  0  0  0  0
  186.3580  178.2450  144.8220 C   0  0  0  0  0  3  0  0  0  0  0  0
  189.4420  177.7420  141.3830 C   0  0  0  0  0  0  0  0  0  0  0  0
  186.9760  178.3770  140.1460 C   0  0  0  0  0  0  0  0  0  0  0  0
  190.7340  177.4280  142.0590 C   0  0  0  0  0  2  0  0  0  0  0  0
  190.5110  176.5500  143.2800 C   0  0  1  0  0  3  0  0  0  0  0  0
  190.4070  175.1580  142.8720 N   0  0  0  0  0  1  0  0  0  0  0  0
  191.6800  176.7230  144.2360 C   0  0  0  0  0  2  0  0  0  0  0  0
  189.7320  177.2590  145.6970 C   0  0  0  0  0  1  0  0  0  0  0  0
  191.8840  176.7040  146.6520 N   0  0  0  0  0  1  0  0  0  0  0  0
  191.2360  177.3720  145.5370 C   0  0  1  0  0  3  0  0  0  0  0  0
  1 11  2  0  0  0  0
  1  2  1  0  0  0  0
  2  4  2  0  0  0  0
  3 13  1  0  0  0  0
  4  7  1  0  0  0  0
  4 16  1  0  0  0  0
  6 18  2  0  0  0  0
  6  3  1  0  0  0  0
  7  8  1  0  0  0  0
  8  5  2  0  0  0  0
  9 15  1  0  0  0  0
  9 18  1  0  0  0  0
 10  9  1  0  0  0  0
 12  5  1  0  0  0  0
 13  2  1  0  0  0  0
 13 14  1  0  0  0  0
 14  7  2  0  0  0  0
 15 17  2  0  0  0  0
 16 12  2  0  0  0  0
 17 19  1  0  0  0  0
 17 11  1  0  0  0  0
 18  1  1  0  0  0  0
 19 20  1  0  0  0  0
 20 21  1  6  0  0  0
 20 22  1  0  0  0  0
 22 25  1  0  0  0  0
 25 23  1  1  0  0  0
 25 24  1  0  0  0  0
M  END
>  <MODEL>
4

>  <REMARK>
 VINA RESULT:      -9.0      2.052      5.194
  Name = 
  4 active torsions:
  status: ('A' for Active; 'I' for Inactive)
    1  A    between atoms: C_6  and  C_15
    2  A    between atoms: C_6  and  C_23
    3  A    between atoms: C_12  and  C_21
    4  A    between atoms: C_15  and  C_21
                            x       y       z     vdW  Elec       q    Type
                         _______ _______ _______ _____ _____    ______ ____

>  <TORSDO>
F 4

$$$$
=
 OpenBabel11052412453D

 25 28  0  0  1  0  0  0  0  0999 V2000
  185.9920  178.2840  144.1940 C   0  0  0  0  0  0  0  0  0  0  0  0
  186.8680  177.9900  145.3190 C   0  0  0  0  0  0  0  0  0  0  0  0
  185.0160  178.3170  146.9470 C   0  0  0  0  0  2  0  0  0  0  0  0
  188.2050  177.6660  145.3670 C   0  0  0  0  0  0  0  0  0  0  0  0
  190.7550  176.9970  146.1950 C   0  0  0  0  0  3  0  0  0  0  0  0
  184.1820  178.6150  145.7660 N   0  0  0  0  0  0  0  0  0  0  0  0
  188.4730  177.5060  146.7050 C   0  0  0  0  0  0  0  0  0  0  0  0
  189.7440  177.1690  147.1600 C   0  0  0  0  0  3  0  0  0  0  0  0
  183.6930  178.9120  143.4460 N   0  0  0  0  0  0  0  0  0  0  0  0
  182.2990  179.2440  143.6910 C   0  0  0  0  0  1  0  0  0  0  0  0
  186.3980  178.2780  142.9220 C   0  0  0  0  0  3  0  0  0  0  0  0
  190.4740  177.1620  144.8180 C   0  0  0  0  0  3  0  0  0  0  0  0
  186.4000  178.0130  146.5800 N   0  0  0  0  0  0  0  0  0  0  0  0
  187.3660  177.7180  147.4440 N   0  0  0  0  0  0  0  0  0  0  0  0
  184.1770  178.8950  142.0940 C   0  0  0  0  0  3  0  0  0  0  0  0
  189.1790  177.5040  144.3850 C   0  0  0  0  0  3  0  0  0  0  0  0
  185.4540  178.5900  141.8270 C   0  0  0  0  0  0  0  0  0  0  0  0
  184.5930  178.6060  144.5250 C   0  0  0  0  0  0  0  0  0  0  0  0
  185.9370  178.5960  140.4160 C   0  0  0  0  0  2  0  0  0  0  0  0
  184.7740  178.7100  139.4430 C   0  0  1  0  0  3  0  0  0  0  0  0
  184.4900  180.1110  139.1790 N   0  0  0  0  0  1  0  0  0  0  0  0
  185.1390  178.0030  138.1470 C   0  0  0  0  0  2  0  0  0  0  0  0
  187.0360  176.5770  137.3800 C   0  0  0  0  0  1  0  0  0  0  0  0
  187.0880  178.9770  137.0840 N   0  0  0  0  0  1  0  0  0  0  0  0
  186.6470  177.9170  137.9740 C   0  0  1  0  0  3  0  0  0  0  0  0
  1 18  1  0  0  0  0
  1  2  1  0  0  0  0
  2  4  2  0  0  0  0
  2 13  1  0  0  0  0
  4  7  1  0  0  0  0
  5  8  2  0  0  0  0
  6  3  1  0  0  0  0
  7  8  1  0  0  0  0
  7 14  2  0  0  0  0
  9 10  1  0  0  0  0
  9 18  1  0  0  0  0
 11  1  2  0  0  0  0
 12  5  1  0  0  0  0
 13  3  1  0  0  0  0
 13 14  1  0  0  0  0
 15  9  1  0  0  0  0
 16 12  2  0  0  0  0
 16  4  1  0  0  0  0
 17 15  2  0  0  0  0
 17 11  1  0  0  0  0
 18  6  2  0  0  0  0
 19 17  1  0  0  0  0
 20 21  1  6  0  0  0
 20 19  1  0  0  0  0
 22 20  1  0  0  0  0
 24 25  1  0  0  0  0
 25 23  1  6  0  0  0
 25 22  1  0  0  0  0
M  END
>  <MODEL>
5

>  <REMARK>
 VINA RESULT:      -8.8      2.263      5.346
  Name = 
  4 active torsions:
  status: ('A' for Active; 'I' for Inactive)
    1  A    between atoms: C_6  and  C_15
    2  A    between atoms: C_6  and  C_23
    3  A    between atoms: C_12  and  C_21
    4  A    between atoms: C_15  and  C_21
                            x       y       z     vdW  Elec       q    Type
                         _______ _______ _______ _____ _____    ______ ____

>  <TORSDO>
F 4

$$$$
=
 OpenBabel11052412453D

 25 28  0  0  1  0  0  0  0  0999 V2000
  188.0510  177.4810  143.5060 C   0  0  0  0  0  0  0  0  0  0  0  0
  186.8680  177.8540  144.2700 C   0  0  0  0  0  0  0  0  0  0  0  0
  188.0500  177.4870  146.4270 C   0  0  0  0  0  2  0  0  0  0  0  0
  185.6130  178.2450  143.8630 C   0  0  0  0  0  0  0  0  0  0  0  0
  182.9760  179.0670  143.7820 C   0  0  0  0  0  3  0  0  0  0  0  0
  189.2110  177.1090  145.5970 N   0  0  0  0  0  0  0  0  0  0  0  0
  184.9240  178.4610  145.0320 C   0  0  0  0  0  0  0  0  0  0  0  0
  183.5950  178.8750  145.0320 C   0  0  0  0  0  3  0  0  0  0  0  0
  190.4270  176.7160  143.5780 N   0  0  0  0  0  0  0  0  0  0  0  0
  191.6380  176.3220  144.2790 C   0  0  0  0  0  1  0  0  0  0  0  0
  188.0930  177.4670  142.1710 C   0  0  0  0  0  3  0  0  0  0  0  0
  183.6890  178.8440  142.5810 C   0  0  0  0  0  3  0  0  0  0  0  0
  186.8870  177.8470  145.6150 N   0  0  0  0  0  0  0  0  0  0  0  0
  185.7070  178.2170  146.1020 N   0  0  0  0  0  0  0  0  0  0  0  0
  190.4230  176.7140  142.1420 C   0  0  0  0  0  3  0  0  0  0  0  0
  185.0320  178.4240  142.6100 C   0  0  0  0  0  3  0  0  0  0  0  0
  189.3270  177.0730  141.4600 C   0  0  0  0  0  0  0  0  0  0  0  0
  189.2380  177.1000  144.2900 C   0  0  0  0  0  0  0  0  0  0  0  0
  189.3430  177.0470  139.9680 C   0  0  0  0  0  2  0  0  0  0  0  0
  188.3250  178.0220  139.3960 C   0  0  1  0  0  3  0  0  0  0  0  0
  189.0150  179.1170  138.7330 N   0  0  0  0  0  1  0  0  0  0  0  0
  187.4410  177.2880  138.4000 C   0  0  0  0  0  2  0  0  0  0  0  0
  185.3980  177.4110  136.9750 C   0  0  0  0  0  1  0  0  0  0  0  0
  185.5750  178.7110  139.0070 N   0  0  0  0  0  1  0  0  0  0  0  0
  186.3310  178.1890  137.8830 C   0  0  1  0  0  3  0  0  0  0  0  0
  1  2  1  0  0  0  0
  1 18  1  0  0  0  0
  2 13  1  0  0  0  0
  4  2  2  0  0  0  0
  4  7  1  0  0  0  0
  5  8  2  0  0  0  0
  6  3  1  0  0  0  0
  7 14  2  0  0  0  0
  8  7  1  0  0  0  0
  9 10  1  0  0  0  0
  9 18  1  0  0  0  0
 11  1  2  0  0  0  0
 12 16  2  0  0  0  0
 12  5  1  0  0  0  0
 13 14  1  0  0  0  0
 13  3  1  0  0  0  0
 15  9  1  0  0  0  0
 16  4  1  0  0  0  0
 17 15  2  0  0  0  0
 17 11  1  0  0  0  0
 18  6  2  0  0  0  0
 19 17  1  0  0  0  0
 20 21  1  6  0  0  0
 20 19  1  0  0  0  0
 22 20  1  0  0  0  0
 25 23  1  6  0  0  0
 25 22  1  0  0  0  0
 25 24  1  0  0  0  0
M  END
>  <MODEL>
6

>  <REMARK>
 VINA RESULT:      -8.7      1.675      2.465
  Name = 
  4 active torsions:
  status: ('A' for Active; 'I' for Inactive)
    1  A    between atoms: C_6  and  C_15
    2  A    between atoms: C_6  and  C_23
    3  A    between atoms: C_12  and  C_21
    4  A    between atoms: C_15  and  C_21
                            x       y       z     vdW  Elec       q    Type
                         _______ _______ _______ _____ _____    ______ ____

>  <TORSDO>
F 4

$$$$
=
 OpenBabel11052412453D

 25 28  0  0  1  0  0  0  0  0999 V2000
  186.6020  178.2840  143.1150 C   0  0  0  0  0  0  0  0  0  0  0  0
  186.4710  178.1750  144.5610 C   0  0  0  0  0  0  0  0  0  0  0  0
  184.0290  178.6340  144.4510 C   0  0  0  0  0  2  0  0  0  0  0  0
  187.4030  177.9150  145.5390 C   0  0  0  0  0  0  0  0  0  0  0  0
  188.6820  177.4640  147.9470 C   0  0  0  0  0  3  0  0  0  0  0  0
  184.2290  178.7420  142.9920 N   0  0  0  0  0  0  0  0  0  0  0  0
  186.6890  177.9420  146.7120 C   0  0  0  0  0  0  0  0  0  0  0  0
  187.2970  177.7190  147.9440 C   0  0  0  0  0  3  0  0  0  0  0  0
  185.4530  178.7140  140.9400 N   0  0  0  0  0  0  0  0  0  0  0  0
  184.2810  179.0180  140.1340 C   0  0  0  0  0  1  0  0  0  0  0  0
  187.7590  178.1290  142.4660 C   0  0  0  0  0  3  0  0  0  0  0  0
  189.4140  177.4380  146.7360 C   0  0  0  0  0  3  0  0  0  0  0  0
  185.2770  178.3420  145.1580 N   0  0  0  0  0  0  0  0  0  0  0  0
  185.3870  178.2020  146.4740 N   0  0  0  0  0  0  0  0  0  0  0  0
  186.7200  178.5410  140.2870 C   0  0  0  0  0  3  0  0  0  0  0  0
  188.7730  177.6670  145.5040 C   0  0  0  0  0  3  0  0  0  0  0  0
  187.8220  178.2580  140.9940 C   0  0  0  0  0  0  0  0  0  0  0  0
  185.3690  178.5890  142.3690 C   0  0  0  0  0  0  0  0  0  0  0  0
  189.1300  178.1000  140.2950 C   0  0  0  0  0  2  0  0  0  0  0  0
  189.9550  176.9900  140.9270 C   0  0  1  0  0  3  0  0  0  0  0  0
  190.3920  176.0580  139.9000 N   0  0  0  0  0  1  0  0  0  0  0  0
  191.1630  177.6020  141.6180 C   0  0  0  0  0  2  0  0  0  0  0  0
  191.5420  176.1070  143.5780 C   0  0  0  0  0  1  0  0  0  0  0  0
  191.8710  178.4970  143.7560 N   0  0  0  0  0  1  0  0  0  0  0  0
  191.0570  177.4720  143.1290 C   0  0  1  0  0  3  0  0  0  0  0  0
  1  2  1  0  0  0  0
  2 13  1  0  0  0  0
  2  4  2  0  0  0  0
  3 13  1  0  0  0  0
  4  7  1  0  0  0  0
  6  3  1  0  0  0  0
  7  8  1  0  0  0  0
  8  5  2  0  0  0  0
  9 18  1  0  0  0  0
 10  9  1  0  0  0  0
 11  1  2  0  0  0  0
 12  5  1  0  0  0  0
 13 14  1  0  0  0  0
 14  7  2  0  0  0  0
 15  9  1  0  0  0  0
 15 17  2  0  0  0  0
 16  4  1  0  0  0  0
 16 12  2  0  0  0  0
 17 11  1  0  0  0  0
 18  6  2  0  0  0  0
 18  1  1  0  0  0  0
 19 20  1  0  0  0  0
 19 17  1  0  0  0  0
 20 21  1  6  0  0  0
 20 22  1  0  0  0  0
 22 25  1  0  0  0  0
 25 23  1  1  0  0  0
 25 24  1  0  0  0  0
M  END
>  <MODEL>
7

>  <REMARK>
 VINA RESULT:      -8.4      1.819      4.794
  Name = 
  4 active torsions:
  status: ('A' for Active; 'I' for Inactive)
    1  A    between atoms: C_6  and  C_15
    2  A    between atoms: C_6  and  C_23
    3  A    between atoms: C_12  and  C_21
    4  A    between atoms: C_15  and  C_21
                            x       y       z     vdW  Elec       q    Type
                         _______ _______ _______ _____ _____    ______ ____

>  <TORSDO>
F 4

$$$$
=
 OpenBabel11052412453D

 25 28  0  0  1  0  0  0  0  0999 V2000
  188.7670  177.9070  143.0810 C   0  0  0  0  0  0  0  0  0  0  0  0
  187.3280  178.1230  143.0350 C   0  0  0  0  0  0  0  0  0  0  0  0
  187.3270  178.1080  140.5480 C   0  0  0  0  0  2  0  0  0  0  0  0
  186.4010  178.2710  144.0410 C   0  0  0  0  0  0  0  0  0  0  0  0
  184.0730  178.6360  145.4850 C   0  0  0  0  0  3  0  0  0  0  0  0
  188.7840  177.9000  140.6610 N   0  0  0  0  0  0  0  0  0  0  0  0
  185.2070  178.4490  143.3860 C   0  0  0  0  0  0  0  0  0  0  0  0
  184.0140  178.6360  144.0780 C   0  0  0  0  0  3  0  0  0  0  0  0
  190.8750  177.5990  141.7780 N   0  0  0  0  0  0  0  0  0  0  0  0
  191.6240  177.4930  140.5360 C   0  0  0  0  0  1  0  0  0  0  0  0
  189.4620  177.8070  144.2170 C   0  0  0  0  0  3  0  0  0  0  0  0
  185.3050  178.4510  146.1560 C   0  0  0  0  0  3  0  0  0  0  0  0
  186.6830  178.2160  141.8580 N   0  0  0  0  0  0  0  0  0  0  0  0
  185.3840  178.4140  142.0490 N   0  0  0  0  0  0  0  0  0  0  0  0
  191.5790  177.5010  143.0250 C   0  0  0  0  0  3  0  0  0  0  0  0
  186.4970  178.2650  145.4300 C   0  0  0  0  0  3  0  0  0  0  0  0
  190.9250  177.5910  144.1910 C   0  0  0  0  0  0  0  0  0  0  0  0
  189.4530  177.8040  141.7810 C   0  0  0  0  0  0  0  0  0  0  0  0
  191.6810  177.5030  145.4730 C   0  0  0  0  0  2  0  0  0  0  0  0
  191.1930  176.3330  146.3140 C   0  0  1  0  0  3  0  0  0  0  0  0
  192.2550  175.3500  146.4500 N   0  0  0  0  0  1  0  0  0  0  0  0
  190.7820  176.8450  147.6860 C   0  0  0  0  0  2  0  0  0  0  0  0
  188.3090  176.6150  147.9130 C   0  0  0  0  0  1  0  0  0  0  0  0
  189.4380  178.6360  148.6140 N   0  0  0  0  0  1  0  0  0  0  0  0
  189.4490  177.5730  147.6250 C   0  0  1  0  0  3  0  0  0  0  0  0
  1 11  2  0  0  0  0
  2  1  1  0  0  0  0
  2  4  2  0  0  0  0
  3  6  1  0  0  0  0
  3 13  1  0  0  0  0
  4 16  1  0  0  0  0
  5 12  1  0  0  0  0
  6 18  2  0  0  0  0
  7  4  1  0  0  0  0
  7  8  1  0  0  0  0
  8  5  2  0  0  0  0
  9 18  1  0  0  0  0
  9 15  1  0  0  0  0
 10  9  1  0  0  0  0
 13 14  1  0  0  0  0
 13  2  1  0  0  0  0
 14  7  2  0  0  0  0
 15 17  2  0  0  0  0
 16 12  2  0  0  0  0
 17 11  1  0  0  0  0
 17 19  1  0  0  0  0
 18  1  1  0  0  0  0
 19 20  1  0  0  0  0
 20 21  1  1  0  0  0
 20 22  1  0  0  0  0
 25 22  1  0  0  0  0
 25 23  1  1  0  0  0
 25 24  1  0  0  0  0
M  END
>  <MODEL>
8

>  <REMARK>
 VINA RESULT:      -8.3      1.774      5.000
  Name = 
  4 active torsions:
  status: ('A' for Active; 'I' for Inactive)
    1  A    between atoms: C_6  and  C_15
    2  A    between atoms: C_6  and  C_23
    3  A    between atoms: C_12  and  C_21
    4  A    between atoms: C_15  and  C_21
                            x       y       z     vdW  Elec       q    Type
                         _______ _______ _______ _____ _____    ______ ____

>  <TORSDO>
F 4

$$$$
=
 OpenBabel11052412453D

 25 28  0  0  1  0  0  0  0  0999 V2000
  186.3760  178.3120  143.1820 C   0  0  0  0  0  0  0  0  0  0  0  0
  186.3700  178.2100  144.6350 C   0  0  0  0  0  0  0  0  0  0  0  0
  183.9340  178.7030  144.7360 C   0  0  0  0  0  2  0  0  0  0  0  0
  187.3810  177.9420  145.5290 C   0  0  0  0  0  0  0  0  0  0  0  0
  188.8580  177.4830  147.8190 C   0  0  0  0  0  3  0  0  0  0  0  0
  184.0080  178.8030  143.2650 N   0  0  0  0  0  0  0  0  0  0  0  0
  186.7720  177.9830  146.7600 C   0  0  0  0  0  0  0  0  0  0  0  0
  187.4820  177.7560  147.9350 C   0  0  0  0  0  3  0  0  0  0  0  0
  185.0470  178.7490  141.1140 N   0  0  0  0  0  0  0  0  0  0  0  0
  183.8130  179.0660  140.4120 C   0  0  0  0  0  1  0  0  0  0  0  0
  187.4700  178.1380  142.4360 C   0  0  0  0  0  3  0  0  0  0  0  0
  189.4810  177.4410  146.5490 C   0  0  0  0  0  3  0  0  0  0  0  0
  185.2350  178.3970  145.3330 N   0  0  0  0  0  0  0  0  0  0  0  0
  185.4580  178.2600  146.6360 N   0  0  0  0  0  0  0  0  0  0  0  0
  186.2490  178.5560  140.3540 C   0  0  0  0  0  3  0  0  0  0  0  0
  188.7380  177.6750  145.3770 C   0  0  0  0  0  3  0  0  0  0  0  0
  187.4050  178.2600  140.9640 C   0  0  0  0  0  0  0  0  0  0  0  0
  185.0860  178.6300  142.5460 C   0  0  0  0  0  0  0  0  0  0  0  0
  188.6450  178.0810  140.1530 C   0  0  0  0  0  2  0  0  0  0  0  0
  188.3250  178.0580  138.6670 C   0  0  1  0  0  3  0  0  0  0  0  0
  188.9260  179.2120  138.0180 N   0  0  0  0  0  1  0  0  0  0  0  0
  188.8770  176.7780  138.0600 C   0  0  0  0  0  2  0  0  0  0  0  0
  191.2910  176.2130  138.3260 C   0  0  0  0  0  1  0  0  0  0  0  0
  190.3240  176.5310  136.1320 N   0  0  0  0  0  1  0  0  0  0  0  0
  190.2770  176.9900  137.5080 C   0  0  1  0  0  3  0  0  0  0  0  0
  1  2  1  0  0  0  0
  2 13  1  0  0  0  0
  2  4  2  0  0  0  0
  3 13  1  0  0  0  0
  4  7  1  0  0  0  0
  5  8  2  0  0  0  0
  6  3  1  0  0  0  0
  7  8  1  0  0  0  0
  9 18  1  0  0  0  0
 10  9  1  0  0  0  0
 11  1  2  0  0  0  0
 12  5  1  0  0  0  0
 13 14  1  0  0  0  0
 14  7  2  0  0  0  0
 15 17  2  0  0  0  0
 15  9  1  0  0  0  0
 16  4  1  0  0  0  0
 16 12  2  0  0  0  0
 17 11  1  0  0  0  0
 18  1  1  0  0  0  0
 18  6  2  0  0  0  0
 19 17  1  0  0  0  0
 20 21  1  6  0  0  0
 20 19  1  0  0  0  0
 22 20  1  0  0  0  0
 24 25  1  0  0  0  0
 25 22  1  0  0  0  0
 25 23  1  1  0  0  0
M  END
>  <MODEL>
9

>  <REMARK>
 VINA RESULT:      -8.2      2.143      4.870
  Name = 
  4 active torsions:
  status: ('A' for Active; 'I' for Inactive)
    1  A    between atoms: C_6  and  C_15
    2  A    between atoms: C_6  and  C_23
    3  A    between atoms: C_12  and  C_21
    4  A    between atoms: C_15  and  C_21
                            x       y       z     vdW  Elec       q    Type
                         _______ _______ _______ _____ _____    ______ ____

>  <TORSDO>
F 4

$$$$
