=
 OpenBabel11052413353D

 28 31  0  0  1  0  0  0  0  0999 V2000
  189.3430  179.4130  146.9320 O   0  0  0  0  0  1  0  0  0  0  0  0
  187.0170  178.2230  145.3000 C   0  0  2  0  0  3  0  0  0  0  0  0
  186.6360  179.5500  147.2840 O   0  0  0  0  0  1  0  0  0  0  0  0
  189.3260  177.0340  146.5950 C   0  0  0  0  0  0  0  0  0  0  0  0
  187.5350  176.8670  144.8160 C   0  0  0  0  0  2  0  0  0  0  0  0
  189.2640  175.8140  147.4870 C   0  0  0  0  0  2  0  0  0  0  0  0
  188.6500  178.2420  147.2460 C   0  0  2  0  0  3  0  0  0  0  0  0
  190.5900  176.5150  147.2470 C   0  0  0  0  0  2  0  0  0  0  0  0
  187.1790  178.3470  146.8230 C   0  0  2  0  0  3  0  0  0  0  0  0
  189.0290  176.6760  145.1240 C   0  0  1  0  0  3  0  0  0  0  0  0
  189.9730  177.3030  144.0570 C   0  0  1  0  0  0  0  0  0  0  0  0
  191.3510  176.5960  144.0340 C   0  0  2  0  0  3  0  0  0  0  0  0
  191.6160  177.5060  141.7610 C   0  0  0  0  0  0  0  0  0  0  0  0
  190.2310  177.6150  141.6320 O   0  0  0  0  0  0  0  0  0  0  0  0
  189.3520  177.1510  142.6570 C   0  0  0  0  0  2  0  0  0  0  0  0
  192.3650  177.8290  140.8040 O   0  0  0  0  0  0  0  0  0  0  0  0
  190.1800  178.7880  144.3350 C   0  0  0  0  0  1  0  0  0  0  0  0
  192.1700  177.1030  142.9770 O   0  0  0  0  0  0  0  0  0  0  0  0
  191.2220  175.0790  143.8910 C   0  0  0  0  0  2  0  0  0  0  0  0
  192.2720  174.3820  144.7320 C   0  0  0  0  0  1  0  0  0  0  0  0
  184.5650  178.4950  145.8180 C   0  0  0  0  0  3  0  0  0  0  0  0
  185.2680  178.5140  143.4940 C   0  0  0  0  0  0  0  0  0  0  0  0
  182.9250  178.7680  144.0620 C   0  0  0  0  0  0  0  0  0  0  0  0
  185.5910  178.4180  144.8630 C   0  0  0  0  0  0  0  0  0  0  0  0
  183.9370  178.6890  143.1040 C   0  0  0  0  0  3  0  0  0  0  0  0
  186.3190  178.4330  142.4390 C   0  0  0  0  0  1  0  0  0  0  0  0
  181.2620  178.9870  143.5620 Cl  0  0  0  0  0  0  0  0  0  0  0  0
  183.2380  178.6700  145.4190 C   0  0  0  0  0  3  0  0  0  0  0  0
  2 24  1  1  0  0  0
  2  9  1  0  0  0  0
  4  7  1  0  0  0  0
  4  8  1  0  0  0  0
  4  6  1  0  0  0  0
  5  2  1  0  0  0  0
  7  1  1  6  0  0  0
  8  6  1  0  0  0  0
  9  7  1  0  0  0  0
  9  3  1  6  0  0  0
 10  5  1  6  0  0  0
 10  4  1  0  0  0  0
 11 17  1  1  0  0  0
 11 10  1  0  0  0  0
 12 19  1  6  0  0  0
 12 11  1  0  0  0  0
 13 18  1  0  0  0  0
 14 13  1  0  0  0  0
 14 15  1  0  0  0  0
 15 11  1  0  0  0  0
 16 13  2  0  0  0  0
 18 12  1  0  0  0  0
 19 20  1  0  0  0  0
 22 24  1  0  0  0  0
 23 28  2  0  0  0  0
 24 21  2  0  0  0  0
 25 22  2  0  0  0  0
 25 23  1  0  0  0  0
 26 22  1  0  0  0  0
 27 23  1  0  0  0  0
 28 21  1  0  0  0  0
M  END
>  <MODEL>
1

>  <REMARK>
 VINA RESULT:      -6.6      0.000      0.000
  Name = 
  3 active torsions:
  status: ('A' for Active; 'I' for Inactive)
    1  A    between atoms: C_1  and  C_27
    2  A    between atoms: C_2  and  C_3
    3  A    between atoms: C_10  and  C_13
                            x       y       z     vdW  Elec       q    Type
                         _______ _______ _______ _____ _____    ______ ____

>  <TORSDO>
F 3

$$$$
=
 OpenBabel11052413353D

 28 31  0  0  1  0  0  0  0  0999 V2000
  182.4080  177.7340  137.3170 O   0  0  0  0  0  1  0  0  0  0  0  0
  182.2000  178.8020  140.1990 C   0  0  2  0  0  3  0  0  0  0  0  0
  183.2250  176.6720  139.6990 O   0  0  0  0  0  1  0  0  0  0  0  0
  180.2190  178.2790  138.1450 C   0  0  0  0  0  0  0  0  0  0  0  0
  180.8560  179.5320  140.2490 C   0  0  0  0  0  2  0  0  0  0  0  0
  178.9310  177.5220  138.3810 C   0  0  0  0  0  2  0  0  0  0  0  0
  181.4380  177.3620  138.2510 C   0  0  2  0  0  3  0  0  0  0  0  0
  179.2680  178.0350  136.9920 C   0  0  0  0  0  2  0  0  0  0  0  0
  182.0150  177.3710  139.6730 C   0  0  2  0  0  3  0  0  0  0  0  0
  180.2110  179.6480  138.8580 C   0  0  1  0  0  3  0  0  0  0  0  0
  180.7230  180.8610  138.0280 C   0  0  1  0  0  0  0  0  0  0  0  0
  179.6180  181.9310  137.8460 C   0  0  2  0  0  3  0  0  0  0  0  0
  181.4400  183.5230  137.3880 C   0  0  0  0  0  0  0  0  0  0  0  0
  182.3370  182.7150  138.0890 O   0  0  0  0  0  0  0  0  0  0  0  0
  181.9010  181.5320  138.7590 C   0  0  0  0  0  2  0  0  0  0  0  0
  181.8280  184.6120  136.8930 O   0  0  0  0  0  0  0  0  0  0  0  0
  181.2040  180.4020  136.6550 C   0  0  0  0  0  1  0  0  0  0  0  0
  180.1300  183.0880  137.1810 O   0  0  0  0  0  0  0  0  0  0  0  0
  178.9900  182.3470  139.1760 C   0  0  0  0  0  2  0  0  0  0  0  0
  178.9340  183.8580  139.2790 C   0  0  0  0  0  1  0  0  0  0  0  0
  182.0650  178.7770  142.7160 C   0  0  0  0  0  3  0  0  0  0  0  0
  184.2540  178.9160  141.6740 C   0  0  0  0  0  0  0  0  0  0  0  0
  184.0530  178.8900  144.0900 C   0  0  0  0  0  0  0  0  0  0  0  0
  182.8520  178.8290  141.5550 C   0  0  0  0  0  0  0  0  0  0  0  0
  184.8440  178.9460  142.9410 C   0  0  0  0  0  3  0  0  0  0  0  0
  185.1350  178.9800  140.4720 C   0  0  0  0  0  1  0  0  0  0  0  0
  184.8030  178.9270  145.6710 Cl  0  0  0  0  0  0  0  0  0  0  0  0
  182.6640  178.8060  143.9780 C   0  0  0  0  0  3  0  0  0  0  0  0
  2  5  1  0  0  0  0
  2 24  1  1  0  0  0
  4  7  1  0  0  0  0
  4  6  1  0  0  0  0
  4 10  1  0  0  0  0
  7  1  1  6  0  0  0
  7  9  1  0  0  0  0
  8  4  1  0  0  0  0
  8  6  1  0  0  0  0
  9  3  1  6  0  0  0
  9  2  1  0  0  0  0
 10  5  1  1  0  0  0
 11 17  1  6  0  0  0
 11 15  1  0  0  0  0
 11 10  1  0  0  0  0
 12 11  1  0  0  0  0
 12 19  1  1  0  0  0
 13 14  1  0  0  0  0
 14 15  1  0  0  0  0
 16 13  2  0  0  0  0
 18 13  1  0  0  0  0
 18 12  1  0  0  0  0
 19 20  1  0  0  0  0
 21 28  1  0  0  0  0
 22 25  2  0  0  0  0
 23 27  1  0  0  0  0
 24 22  1  0  0  0  0
 24 21  2  0  0  0  0
 25 23  1  0  0  0  0
 26 22  1  0  0  0  0
 28 23  2  0  0  0  0
M  END
>  <MODEL>
2

>  <REMARK>
 VINA RESULT:      -6.2      6.489     10.473
  Name = 
  3 active torsions:
  status: ('A' for Active; 'I' for Inactive)
    1  A    between atoms: C_1  and  C_27
    2  A    between atoms: C_2  and  C_3
    3  A    between atoms: C_10  and  C_13
                            x       y       z     vdW  Elec       q    Type
                         _______ _______ _______ _____ _____    ______ ____

>  <TORSDO>
F 3

$$$$
=
 OpenBabel11052413353D

 28 31  0  0  1  0  0  0  0  0999 V2000
  185.3970  179.6350  138.3980 O   0  0  0  0  0  1  0  0  0  0  0  0
  184.9650  178.4270  141.1990 C   0  0  2  0  0  3  0  0  0  0  0  0
  187.1720  178.6920  140.2510 O   0  0  0  0  0  1  0  0  0  0  0  0
  183.9710  177.7090  138.5690 C   0  0  0  0  0  0  0  0  0  0  0  0
  183.6700  177.6200  141.0800 C   0  0  0  0  0  2  0  0  0  0  0  0
  183.9800  176.3010  138.0140 C   0  0  0  0  0  2  0  0  0  0  0  0
  185.3870  178.2710  138.6990 C   0  0  2  0  0  3  0  0  0  0  0  0
  183.4560  177.4500  137.1690 C   0  0  0  0  0  2  0  0  0  0  0  0
  185.9570  178.0160  140.1000 C   0  0  2  0  0  3  0  0  0  0  0  0
  182.9670  177.8520  139.7320 C   0  0  1  0  0  3  0  0  0  0  0  0
  182.0600  179.1170  139.7090 C   0  0  1  0  0  0  0  0  0  0  0  0
  180.7720  178.8760  138.8840 C   0  0  2  0  0  3  0  0  0  0  0  0
  179.7980  180.7670  140.1250 C   0  0  0  0  0  0  0  0  0  0  0  0
  180.7110  180.5690  141.1630 O   0  0  0  0  0  0  0  0  0  0  0  0
  181.6320  179.4780  141.1430 C   0  0  0  0  0  2  0  0  0  0  0  0
  178.9310  181.6730  140.2140 O   0  0  0  0  0  0  0  0  0  0  0  0
  182.8150  180.3030  139.1170 C   0  0  0  0  0  1  0  0  0  0  0  0
  179.8940  180.0030  138.9620 O   0  0  0  0  0  0  0  0  0  0  0  0
  180.0230  177.6200  139.3330 C   0  0  0  0  0  2  0  0  0  0  0  0
  179.9780  176.6060  138.2080 C   0  0  0  0  0  1  0  0  0  0  0  0
  186.7390  177.5520  142.7620 C   0  0  0  0  0  3  0  0  0  0  0  0
  184.8980  178.8300  143.6960 C   0  0  0  0  0  0  0  0  0  0  0  0
  186.6370  177.9580  145.1440 C   0  0  0  0  0  0  0  0  0  0  0  0
  185.5460  178.2700  142.5770 C   0  0  0  0  0  0  0  0  0  0  0  0
  185.4480  178.6710  144.9720 C   0  0  0  0  0  3  0  0  0  0  0  0
  183.6270  179.5980  143.5570 C   0  0  0  0  0  1  0  0  0  0  0  0
  187.3170  177.7650  146.7450 Cl  0  0  0  0  0  0  0  0  0  0  0  0
  187.2820  177.3980  144.0390 C   0  0  0  0  0  3  0  0  0  0  0  0
  2 24  1  1  0  0  0
  4  7  1  0  0  0  0
  4 10  1  0  0  0  0
  5  2  1  0  0  0  0
  6  4  1  0  0  0  0
  7  1  1  1  0  0  0
  7  9  1  0  0  0  0
  8  6  1  0  0  0  0
  8  4  1  0  0  0  0
  9  3  1  1  0  0  0
  9  2  1  0  0  0  0
 10  5  1  1  0  0  0
 11 17  1  6  0  0  0
 11 10  1  0  0  0  0
 11 15  1  0  0  0  0
 12 18  1  0  0  0  0
 12 19  1  1  0  0  0
 12 11  1  0  0  0  0
 13 16  2  0  0  0  0
 13 14  1  0  0  0  0
 15 14  1  0  0  0  0
 18 13  1  0  0  0  0
 20 19  1  0  0  0  0
 21 28  1  0  0  0  0
 22 25  2  0  0  0  0
 23 27  1  0  0  0  0
 24 21  2  0  0  0  0
 24 22  1  0  0  0  0
 25 23  1  0  0  0  0
 26 22  1  0  0  0  0
 28 23  2  0  0  0  0
M  END
>  <MODEL>
3

>  <REMARK>
 VINA RESULT:      -6.0      5.042      8.916
  Name = 
  3 active torsions:
  status: ('A' for Active; 'I' for Inactive)
    1  A    between atoms: C_1  and  C_27
    2  A    between atoms: C_2  and  C_3
    3  A    between atoms: C_10  and  C_13
                            x       y       z     vdW  Elec       q    Type
                         _______ _______ _______ _____ _____    ______ ____

>  <TORSDO>
F 3

$$$$
=
 OpenBabel11052413353D

 28 31  0  0  1  0  0  0  0  0999 V2000
  187.4530  178.0490  134.7130 O   0  0  0  0  0  1  0  0  0  0  0  0
  187.1470  177.5020  137.7290 C   0  0  2  0  0  3  0  0  0  0  0  0
  187.4860  179.7330  136.8660 O   0  0  0  0  0  1  0  0  0  0  0  0
  188.9840  176.4960  135.7210 C   0  0  0  0  0  0  0  0  0  0  0  0
  187.8440  176.1580  137.9540 C   0  0  0  0  0  2  0  0  0  0  0  0
  190.4840  176.4180  135.9050 C   0  0  0  0  0  2  0  0  0  0  0  0
  188.5040  177.9440  135.6280 C   0  0  2  0  0  3  0  0  0  0  0  0
  189.8550  175.9830  134.5940 C   0  0  0  0  0  2  0  0  0  0  0  0
  188.0860  178.4780  137.0050 C   0  0  2  0  0  3  0  0  0  0  0  0
  188.2490  175.4890  136.6300 C   0  0  1  0  0  3  0  0  0  0  0  0
  187.1040  174.6690  135.9670 C   0  0  1  0  0  0  0  0  0  0  0  0
  187.6580  173.4510  135.1860 C   0  0  2  0  0  3  0  0  0  0  0  0
  185.4010  172.4860  135.3820 C   0  0  0  0  0  0  0  0  0  0  0  0
  185.1460  173.2820  136.5000 O   0  0  0  0  0  0  0  0  0  0  0  0
  186.1530  174.1310  137.0510 C   0  0  0  0  0  2  0  0  0  0  0  0
  184.5310  171.6720  134.9770 O   0  0  0  0  0  0  0  0  0  0  0  0
  186.3020  175.5490  135.0130 C   0  0  0  0  0  1  0  0  0  0  0  0
  186.5940  172.6430  134.6760 O   0  0  0  0  0  0  0  0  0  0  0  0
  188.5840  172.5870  136.0420 C   0  0  0  0  0  2  0  0  0  0  0  0
  189.8470  172.2520  135.2740 C   0  0  0  0  0  1  0  0  0  0  0  0
  187.5520  178.2530  140.1010 C   0  0  0  0  0  3  0  0  0  0  0  0
  185.2930  178.3660  139.2190 C   0  0  0  0  0  0  0  0  0  0  0  0
  185.7510  179.0710  141.4930 C   0  0  0  0  0  0  0  0  0  0  0  0
  186.6550  178.0540  139.0400 C   0  0  0  0  0  0  0  0  0  0  0  0
  184.8500  178.8730  140.4440 C   0  0  0  0  0  3  0  0  0  0  0  0
  184.2980  178.1680  138.1250 C   0  0  0  0  0  1  0  0  0  0  0  0
  185.1850  179.7060  143.0230 Cl  0  0  0  0  0  0  0  0  0  0  0  0
  187.1010  178.7610  141.3220 C   0  0  0  0  0  3  0  0  0  0  0  0
  2  5  1  0  0  0  0
  2 24  1  1  0  0  0
  4  6  1  0  0  0  0
  4 10  1  0  0  0  0
  7  1  1  6  0  0  0
  7  4  1  0  0  0  0
  7  9  1  0  0  0  0
  8  4  1  0  0  0  0
  8  6  1  0  0  0  0
  9  3  1  6  0  0  0
  9  2  1  0  0  0  0
 10  5  1  1  0  0  0
 11 17  1  6  0  0  0
 11 10  1  0  0  0  0
 11 15  1  0  0  0  0
 12 11  1  0  0  0  0
 12 19  1  1  0  0  0
 13 14  1  0  0  0  0
 14 15  1  0  0  0  0
 16 13  2  0  0  0  0
 18 12  1  0  0  0  0
 18 13  1  0  0  0  0
 20 19  1  0  0  0  0
 21 28  1  0  0  0  0
 22 25  2  0  0  0  0
 23 27  1  0  0  0  0
 24 22  1  0  0  0  0
 24 21  2  0  0  0  0
 25 23  1  0  0  0  0
 26 22  1  0  0  0  0
 28 23  2  0  0  0  0
M  END
>  <MODEL>
4

>  <REMARK>
 VINA RESULT:      -6.0      6.574      8.922
  Name = 
  3 active torsions:
  status: ('A' for Active; 'I' for Inactive)
    1  A    between atoms: C_1  and  C_27
    2  A    between atoms: C_2  and  C_3
    3  A    between atoms: C_10  and  C_13
                            x       y       z     vdW  Elec       q    Type
                         _______ _______ _______ _____ _____    ______ ____

>  <TORSDO>
F 3

$$$$
=
 OpenBabel11052413353D

 28 31  0  0  1  0  0  0  0  0999 V2000
  187.6660  179.5980  136.6550 O   0  0  0  0  0  1  0  0  0  0  0  0
  188.1450  177.6330  138.9790 C   0  0  2  0  0  3  0  0  0  0  0  0
  189.2290  179.7910  138.8900 O   0  0  0  0  0  1  0  0  0  0  0  0
  188.4700  177.4010  136.1050 C   0  0  0  0  0  0  0  0  0  0  0  0
  188.1210  176.2480  138.3300 C   0  0  0  0  0  2  0  0  0  0  0  0
  189.7030  176.8360  135.4340 C   0  0  0  0  0  2  0  0  0  0  0  0
  188.7630  178.7420  136.7800 C   0  0  2  0  0  3  0  0  0  0  0  0
  188.5490  177.3560  134.5940 C   0  0  0  0  0  2  0  0  0  0  0  0
  189.1420  178.5490  138.2540 C   0  0  2  0  0  3  0  0  0  0  0  0
  187.6830  176.3080  136.8570 C   0  0  1  0  0  3  0  0  0  0  0  0
  186.1390  176.3140  136.6630 C   0  0  1  0  0  0  0  0  0  0  0  0
  185.6040  174.9000  136.3230 C   0  0  2  0  0  3  0  0  0  0  0  0
  183.4080  175.7040  137.0960 C   0  0  0  0  0  0  0  0  0  0  0  0
  184.0290  176.6870  137.8690 O   0  0  0  0  0  0  0  0  0  0  0  0
  185.4510  176.7680  137.9640 C   0  0  0  0  0  2  0  0  0  0  0  0
  182.1560  175.5900  137.1090 O   0  0  0  0  0  0  0  0  0  0  0  0
  185.7450  177.2770  135.5470 C   0  0  0  0  0  1  0  0  0  0  0  0
  184.1760  174.8940  136.2570 O   0  0  0  0  0  0  0  0  0  0  0  0
  186.0700  173.8480  137.3290 C   0  0  0  0  0  2  0  0  0  0  0  0
  185.1290  172.6600  137.3180 C   0  0  0  0  0  1  0  0  0  0  0  0
  189.6250  176.8680  140.8710 C   0  0  0  0  0  3  0  0  0  0  0  0
  187.5610  178.0260  141.4100 C   0  0  0  0  0  0  0  0  0  0  0  0
  189.0290  177.2620  143.1810 C   0  0  0  0  0  0  0  0  0  0  0  0
  188.4510  177.5100  140.4470 C   0  0  0  0  0  0  0  0  0  0  0  0
  187.8560  177.8990  142.7710 C   0  0  0  0  0  3  0  0  0  0  0  0
  186.2970  178.7130  141.0140 C   0  0  0  0  0  1  0  0  0  0  0  0
  189.3900  177.1080  144.8870 Cl  0  0  0  0  0  0  0  0  0  0  0  0
  189.9130  176.7460  142.2320 C   0  0  0  0  0  3  0  0  0  0  0  0
  2 24  1  1  0  0  0
  4  7  1  0  0  0  0
  4 10  1  0  0  0  0
  5  2  1  0  0  0  0
  6  4  1  0  0  0  0
  7  1  1  1  0  0  0
  7  9  1  0  0  0  0
  8  6  1  0  0  0  0
  8  4  1  0  0  0  0
  9  3  1  1  0  0  0
  9  2  1  0  0  0  0
 10  5  1  1  0  0  0
 11 17  1  6  0  0  0
 11 10  1  0  0  0  0
 11 15  1  0  0  0  0
 12 11  1  0  0  0  0
 12 19  1  1  0  0  0
 13 16  2  0  0  0  0
 13 14  1  0  0  0  0
 14 15  1  0  0  0  0
 18 12  1  0  0  0  0
 18 13  1  0  0  0  0
 20 19  1  0  0  0  0
 21 28  1  0  0  0  0
 22 25  2  0  0  0  0
 23 27  1  0  0  0  0
 24 21  2  0  0  0  0
 24 22  1  0  0  0  0
 25 23  1  0  0  0  0
 26 22  1  0  0  0  0
 28 23  2  0  0  0  0
M  END
>  <MODEL>
5

>  <REMARK>
 VINA RESULT:      -5.9      5.800      8.648
  Name = 
  3 active torsions:
  status: ('A' for Active; 'I' for Inactive)
    1  A    between atoms: C_1  and  C_27
    2  A    between atoms: C_2  and  C_3
    3  A    between atoms: C_10  and  C_13
                            x       y       z     vdW  Elec       q    Type
                         _______ _______ _______ _____ _____    ______ ____

>  <TORSDO>
F 3

$$$$
=
 OpenBabel11052413353D

 28 31  0  0  1  0  0  0  0  0999 V2000
  188.8410  180.0730  141.6520 O   0  0  0  0  0  1  0  0  0  0  0  0
  189.6730  177.3530  140.4690 C   0  0  2  0  0  3  0  0  0  0  0  0
  189.0000  179.2020  139.0660 O   0  0  0  0  0  1  0  0  0  0  0  0
  187.6380  178.1270  142.3870 C   0  0  0  0  0  0  0  0  0  0  0  0
  189.1460  176.3170  141.4640 C   0  0  0  0  0  2  0  0  0  0  0  0
  186.2000  177.6590  142.3350 C   0  0  0  0  0  2  0  0  0  0  0  0
  187.9640  179.0720  141.2290 C   0  0  2  0  0  3  0  0  0  0  0  0
  186.6490  178.6190  143.4220 C   0  0  0  0  0  2  0  0  0  0  0  0
  188.5460  178.3030  140.0350 C   0  0  2  0  0  3  0  0  0  0  0  0
  188.5980  176.9720  142.7420 C   0  0  1  0  0  3  0  0  0  0  0  0
  189.6910  177.2870  143.8040 C   0  0  1  0  0  0  0  0  0  0  0  0
  189.0670  177.7740  145.1350 C   0  0  2  0  0  3  0  0  0  0  0  0
  191.1880  177.1180  146.2010 C   0  0  0  0  0  0  0  0  0  0  0  0
  191.4470  176.2260  145.1590 O   0  0  0  0  0  0  0  0  0  0  0  0
  190.5010  176.0140  144.1110 C   0  0  0  0  0  2  0  0  0  0  0  0
  191.9910  177.2120  147.1650 O   0  0  0  0  0  0  0  0  0  0  0  0
  190.6490  178.3540  143.2840 C   0  0  0  0  0  1  0  0  0  0  0  0
  190.0700  177.9520  146.1380 O   0  0  0  0  0  0  0  0  0  0  0  0
  187.9950  176.8160  145.6560 C   0  0  0  0  0  2  0  0  0  0  0  0
  187.2860  177.4220  146.8510 C   0  0  0  0  0  1  0  0  0  0  0  0
  189.5240  175.9710  138.3660 C   0  0  0  0  0  3  0  0  0  0  0  0
  191.7140  176.6940  139.1260 C   0  0  0  0  0  0  0  0  0  0  0  0
  191.5000  175.3590  137.1130 C   0  0  0  0  0  0  0  0  0  0  0  0
  190.3160  176.6630  139.2970 C   0  0  0  0  0  0  0  0  0  0  0  0
  192.2970  176.0420  138.0350 C   0  0  0  0  0  3  0  0  0  0  0  0
  192.6010  177.4100  140.0880 C   0  0  0  0  0  1  0  0  0  0  0  0
  192.2400  174.5480  135.7500 Cl  0  0  0  0  0  0  0  0  0  0  0  0
  190.1150  175.3230  137.2780 C   0  0  0  0  0  3  0  0  0  0  0  0
  2 24  1  6  0  0  0
  2  5  1  0  0  0  0
  4 10  1  0  0  0  0
  4  8  1  0  0  0  0
  6  4  1  0  0  0  0
  6  8  1  0  0  0  0
  7  1  1  1  0  0  0
  7  4  1  0  0  0  0
  9  3  1  6  0  0  0
  9  2  1  0  0  0  0
  9  7  1  0  0  0  0
 10  5  1  6  0  0  0
 10 11  1  0  0  0  0
 11 17  1  6  0  0  0
 11 15  1  0  0  0  0
 11 12  1  0  0  0  0
 12 19  1  1  0  0  0
 12 18  1  0  0  0  0
 13 16  2  0  0  0  0
 14 13  1  0  0  0  0
 15 14  1  0  0  0  0
 18 13  1  0  0  0  0
 19 20  1  0  0  0  0
 21 24  1  0  0  0  0
 22 24  2  0  0  0  0
 22 26  1  0  0  0  0
 23 28  1  0  0  0  0
 23 25  2  0  0  0  0
 25 22  1  0  0  0  0
 27 23  1  0  0  0  0
 28 21  2  0  0  0  0
M  END
>  <MODEL>
6

>  <REMARK>
 VINA RESULT:      -5.8      3.690      6.841
  Name = 
  3 active torsions:
  status: ('A' for Active; 'I' for Inactive)
    1  A    between atoms: C_1  and  C_27
    2  A    between atoms: C_2  and  C_3
    3  A    between atoms: C_10  and  C_13
                            x       y       z     vdW  Elec       q    Type
                         _______ _______ _______ _____ _____    ______ ____

>  <TORSDO>
F 3

$$$$
=
 OpenBabel11052413353D

 28 31  0  0  1  0  0  0  0  0999 V2000
  179.9170  175.4420  136.6910 O   0  0  0  0  0  1  0  0  0  0  0  0
  182.8230  175.2020  137.6860 C   0  0  2  0  0  3  0  0  0  0  0  0
  181.8050  173.5040  136.3000 O   0  0  0  0  0  1  0  0  0  0  0  0
  180.2900  175.5310  139.0630 C   0  0  0  0  0  0  0  0  0  0  0  0
  182.8050  175.8070  139.0910 C   0  0  0  0  0  2  0  0  0  0  0  0
  179.8610  174.7090  140.2590 C   0  0  0  0  0  2  0  0  0  0  0  0
  180.3380  174.6870  137.7890 C   0  0  2  0  0  3  0  0  0  0  0  0
  178.9310  175.7650  139.6870 C   0  0  0  0  0  2  0  0  0  0  0  0
  181.7430  174.1170  137.5550 C   0  0  2  0  0  3  0  0  0  0  0  0
  181.4590  176.4750  139.4150 C   0  0  1  0  0  3  0  0  0  0  0  0
  181.3440  177.9380  138.8940 C   0  0  1  0  0  0  0  0  0  0  0  0
  180.5290  178.8250  139.8670 C   0  0  2  0  0  3  0  0  0  0  0  0
  181.6330  180.7520  138.8050 C   0  0  0  0  0  0  0  0  0  0  0  0
  182.6890  179.9350  138.3960 O   0  0  0  0  0  0  0  0  0  0  0  0
  182.7480  178.5580  138.7680 C   0  0  0  0  0  2  0  0  0  0  0  0
  181.6550  181.9840  138.5500 O   0  0  0  0  0  0  0  0  0  0  0  0
  180.6790  177.9640  137.5210 C   0  0  0  0  0  1  0  0  0  0  0  0
  180.5240  180.1880  139.4380 O   0  0  0  0  0  0  0  0  0  0  0  0
  181.0550  178.7470  141.3010 C   0  0  0  0  0  2  0  0  0  0  0  0
  179.9560  178.2920  142.2400 C   0  0  0  0  0  1  0  0  0  0  0  0
  184.6020  173.4240  137.8530 C   0  0  0  0  0  3  0  0  0  0  0  0
  185.0920  175.4390  136.5900 C   0  0  0  0  0  0  0  0  0  0  0  0
  186.7590  173.6910  136.7920 C   0  0  0  0  0  0  0  0  0  0  0  0
  184.1970  174.6770  137.3680 C   0  0  0  0  0  0  0  0  0  0  0  0
  186.3670  174.9400  136.3070 C   0  0  0  0  0  3  0  0  0  0  0  0
  184.7130  176.7790  136.0550 C   0  0  0  0  0  1  0  0  0  0  0  0
  188.3580  173.0760  136.4320 Cl  0  0  0  0  0  0  0  0  0  0  0  0
  185.8780  172.9330  137.5650 C   0  0  0  0  0  3  0  0  0  0  0  0
  2 24  1  1  0  0  0
  2  5  1  0  0  0  0
  4 10  1  0  0  0  0
  4  8  1  0  0  0  0
  4  6  1  0  0  0  0
  7  1  1  6  0  0  0
  7  4  1  0  0  0  0
  8  6  1  0  0  0  0
  9  3  1  6  0  0  0
  9  2  1  0  0  0  0
  9  7  1  0  0  0  0
 10  5  1  6  0  0  0
 11 17  1  6  0  0  0
 11 10  1  0  0  0  0
 11 12  1  0  0  0  0
 12 19  1  1  0  0  0
 13 18  1  0  0  0  0
 14 15  1  0  0  0  0
 14 13  1  0  0  0  0
 15 11  1  0  0  0  0
 16 13  2  0  0  0  0
 18 12  1  0  0  0  0
 19 20  1  0  0  0  0
 22 24  1  0  0  0  0
 23 28  2  0  0  0  0
 24 21  2  0  0  0  0
 25 22  2  0  0  0  0
 25 23  1  0  0  0  0
 26 22  1  0  0  0  0
 27 23  1  0  0  0  0
 28 21  1  0  0  0  0
M  END
>  <MODEL>
7

>  <REMARK>
 VINA RESULT:      -5.8      8.480     10.832
  Name = 
  3 active torsions:
  status: ('A' for Active; 'I' for Inactive)
    1  A    between atoms: C_1  and  C_27
    2  A    between atoms: C_2  and  C_3
    3  A    between atoms: C_10  and  C_13
                            x       y       z     vdW  Elec       q    Type
                         _______ _______ _______ _____ _____    ______ ____

>  <TORSDO>
F 3

$$$$
=
 OpenBabel11052413353D

 28 31  0  0  1  0  0  0  0  0999 V2000
  183.9740  177.9300  140.8550 O   0  0  0  0  0  1  0  0  0  0  0  0
  185.1360  177.5420  138.0290 C   0  0  2  0  0  3  0  0  0  0  0  0
  186.3980  178.6100  139.7920 O   0  0  0  0  0  1  0  0  0  0  0  0
  182.7420  178.8530  139.0110 C   0  0  0  0  0  0  0  0  0  0  0  0
  183.9450  177.7330  137.0880 C   0  0  0  0  0  2  0  0  0  0  0  0
  182.2980  180.2370  138.5890 C   0  0  0  0  0  2  0  0  0  0  0  0
  184.0150  178.9050  139.8560 C   0  0  2  0  0  3  0  0  0  0  0  0
  181.4900  179.4570  139.6110 C   0  0  0  0  0  2  0  0  0  0  0  0
  185.2660  178.7400  138.9820 C   0  0  2  0  0  3  0  0  0  0  0  0
  182.6160  177.8410  137.8540 C   0  0  1  0  0  3  0  0  0  0  0  0
  181.9840  176.4630  138.2080 C   0  0  1  0  0  0  0  0  0  0  0  0
  180.4370  176.5340  138.2140 C   0  0  2  0  0  3  0  0  0  0  0  0
  180.4710  174.0880  137.9260 C   0  0  0  0  0  0  0  0  0  0  0  0
  181.7540  174.1590  137.3810 O   0  0  0  0  0  0  0  0  0  0  0  0
  182.3960  175.4150  137.1580 C   0  0  0  0  0  2  0  0  0  0  0  0
  179.8870  172.9780  138.0180 O   0  0  0  0  0  0  0  0  0  0  0  0
  182.4670  175.9920  139.5770 C   0  0  0  0  0  1  0  0  0  0  0  0
  179.8660  175.2410  138.4290 O   0  0  0  0  0  0  0  0  0  0  0  0
  179.8790  177.1240  136.9190 C   0  0  0  0  0  2  0  0  0  0  0  0
  178.9410  178.2730  137.2270 C   0  0  0  0  0  1  0  0  0  0  0  0
  187.1850  178.4000  136.8370 C   0  0  0  0  0  3  0  0  0  0  0  0
  186.7790  176.0070  136.8670 C   0  0  0  0  0  0  0  0  0  0  0  0
  188.7290  176.8990  135.7370 C   0  0  0  0  0  0  0  0  0  0  0  0
  186.3920  177.3120  137.2330 C   0  0  0  0  0  0  0  0  0  0  0  0
  187.9460  175.8100  136.1220 C   0  0  0  0  0  3  0  0  0  0  0  0
  185.9700  174.8160  137.2580 C   0  0  0  0  0  1  0  0  0  0  0  0
  190.1880  176.6410  134.8040 Cl  0  0  0  0  0  0  0  0  0  0  0  0
  188.3490  178.1940  136.0930 C   0  0  0  0  0  3  0  0  0  0  0  0
  2 24  1  6  0  0  0
  2  9  1  0  0  0  0
  4  8  1  0  0  0  0
  4  7  1  0  0  0  0
  5  2  1  0  0  0  0
  6  4  1  0  0  0  0
  6  8  1  0  0  0  0
  7  1  1  1  0  0  0
  9  3  1  1  0  0  0
  9  7  1  0  0  0  0
 10  5  1  1  0  0  0
 10 11  1  0  0  0  0
 10  4  1  0  0  0  0
 11 12  1  0  0  0  0
 11 17  1  1  0  0  0
 12 19  1  6  0  0  0
 12 18  1  0  0  0  0
 13 16  2  0  0  0  0
 13 18  1  0  0  0  0
 14 13  1  0  0  0  0
 15 14  1  0  0  0  0
 15 11  1  0  0  0  0
 19 20  1  0  0  0  0
 21 24  1  0  0  0  0
 22 24  2  0  0  0  0
 22 26  1  0  0  0  0
 23 28  1  0  0  0  0
 23 25  2  0  0  0  0
 25 22  1  0  0  0  0
 27 23  1  0  0  0  0
 28 21  2  0  0  0  0
M  END
>  <MODEL>
8

>  <REMARK>
 VINA RESULT:      -5.8      7.279     10.450
  Name = 
  3 active torsions:
  status: ('A' for Active; 'I' for Inactive)
    1  A    between atoms: C_1  and  C_27
    2  A    between atoms: C_2  and  C_3
    3  A    between atoms: C_10  and  C_13
                            x       y       z     vdW  Elec       q    Type
                         _______ _______ _______ _____ _____    ______ ____

>  <TORSDO>
F 3

$$$$
=
 OpenBabel11052413353D

 28 31  0  0  1  0  0  0  0  0999 V2000
  179.3770  177.5340  141.7180 O   0  0  0  0  0  1  0  0  0  0  0  0
  182.1980  178.5860  142.3690 C   0  0  2  0  0  3  0  0  0  0  0  0
  180.5460  178.2140  144.0930 O   0  0  0  0  0  1  0  0  0  0  0  0
  180.0910  179.5490  140.6220 C   0  0  0  0  0  0  0  0  0  0  0  0
  182.5550  179.4970  141.1930 C   0  0  0  0  0  2  0  0  0  0  0  0
  179.6150  180.9850  140.5770 C   0  0  0  0  0  2  0  0  0  0  0  0
  179.7110  178.8720  141.9390 C   0  0  2  0  0  3  0  0  0  0  0  0
  178.9600  179.9370  139.6930 C   0  0  0  0  0  2  0  0  0  0  0  0
  180.8420  178.9900  142.9690 C   0  0  2  0  0  3  0  0  0  0  0  0
  181.5210  179.4080  140.0590 C   0  0  1  0  0  3  0  0  0  0  0  0
  181.7640  178.2210  139.0820 C   0  0  1  0  0  0  0  0  0  0  0  0
  181.0490  178.4480  137.7260 C   0  0  2  0  0  3  0  0  0  0  0  0
  182.6310  176.8100  136.7860 C   0  0  0  0  0  0  0  0  0  0  0  0
  183.5330  177.0740  137.8180 O   0  0  0  0  0  0  0  0  0  0  0  0
  183.2700  178.0820  138.7940 C   0  0  0  0  0  2  0  0  0  0  0  0
  182.9310  175.9900  135.8820 O   0  0  0  0  0  0  0  0  0  0  0  0
  181.2660  176.9160  139.6950 C   0  0  0  0  0  1  0  0  0  0  0  0
  181.3700  177.4080  136.7980 O   0  0  0  0  0  0  0  0  0  0  0  0
  181.3960  179.8030  137.1080 C   0  0  0  0  0  2  0  0  0  0  0  0
  180.3600  180.1870  136.0710 C   0  0  0  0  0  1  0  0  0  0  0  0
  183.0240  178.9750  144.7190 C   0  0  0  0  0  3  0  0  0  0  0  0
  184.6200  178.2710  143.0310 C   0  0  0  0  0  0  0  0  0  0  0  0
  185.3480  178.6650  145.3100 C   0  0  0  0  0  0  0  0  0  0  0  0
  183.3000  178.6080  143.3930 C   0  0  0  0  0  0  0  0  0  0  0  0
  185.6350  178.3010  143.9930 C   0  0  0  0  0  3  0  0  0  0  0  0
  184.9690  177.8780  141.6350 C   0  0  0  0  0  1  0  0  0  0  0  0
  186.6260  178.6990  146.5060 Cl  0  0  0  0  0  0  0  0  0  0  0  0
  184.0430  179.0030  145.6740 C   0  0  0  0  0  3  0  0  0  0  0  0
  2  9  1  0  0  0  0
  2 24  1  1  0  0  0
  4  7  1  0  0  0  0
  5  2  1  0  0  0  0
  6  4  1  0  0  0  0
  7  1  1  6  0  0  0
  7  9  1  0  0  0  0
  8  6  1  0  0  0  0
  8  4  1  0  0  0  0
  9  3  1  1  0  0  0
 10  4  1  0  0  0  0
 10  5  1  1  0  0  0
 11 17  1  1  0  0  0
 11 10  1  0  0  0  0
 12 19  1  6  0  0  0
 12 11  1  0  0  0  0
 13 18  1  0  0  0  0
 13 14  1  0  0  0  0
 14 15  1  0  0  0  0
 15 11  1  0  0  0  0
 16 13  2  0  0  0  0
 18 12  1  0  0  0  0
 20 19  1  0  0  0  0
 21 28  1  0  0  0  0
 22 24  1  0  0  0  0
 22 25  2  0  0  0  0
 23 28  2  0  0  0  0
 23 27  1  0  0  0  0
 24 21  2  0  0  0  0
 25 23  1  0  0  0  0
 26 22  1  0  0  0  0
M  END
>  <MODEL>
9

>  <REMARK>
 VINA RESULT:      -5.7      5.392      9.112
  Name = 
  3 active torsions:
  status: ('A' for Active; 'I' for Inactive)
    1  A    between atoms: C_1  and  C_27
    2  A    between atoms: C_2  and  C_3
    3  A    between atoms: C_10  and  C_13
                            x       y       z     vdW  Elec       q    Type
                         _______ _______ _______ _____ _____    ______ ____

>  <TORSDO>
F 3

$$$$
