=
 OpenBabel11052413503D

 27 31  0  0  0  0  0  0  0  0999 V2000
  187.4490  177.4940  143.3570 N   0  0  0  0  0  0  0  0  0  0  0  0
  187.8560  177.5090  142.0420 C   0  0  0  0  0  0  0  0  0  0  0  0
  185.9080  178.8470  141.4370 C   0  0  0  0  0  0  0  0  0  0  0  0
  188.9260  177.6740  138.0650 N   0  0  0  0  0  0  0  0  0  0  0  0
  187.6390  178.8590  136.2760 C   0  0  0  0  0  1  0  0  0  0  0  0
  189.0470  176.8410  141.6380 C   0  0  0  0  0  3  0  0  0  0  0  0
  187.0410  178.7270  138.6710 O   0  0  0  0  0  0  0  0  0  0  0  0
  183.8540  179.3920  144.4650 C   0  0  0  0  0  3  0  0  0  0  0  0
  185.2210  179.4690  140.5780 O   0  0  0  0  0  0  0  0  0  0  0  0
  184.5870  178.6980  145.4200 C   0  0  0  0  0  3  0  0  0  0  0  0
  187.5560  178.1790  139.7400 C   0  0  0  0  0  0  0  0  0  0  0  0
  187.8600  178.4230  137.6800 C   0  0  0  0  0  0  0  0  0  0  0  0
  188.7020  177.5360  139.3830 C   0  0  0  0  0  0  0  0  0  0  0  0
  186.2660  178.1010  143.7390 C   0  0  0  0  0  0  0  0  0  0  0  0
  187.0850  178.1930  141.0610 C   0  0  0  0  0  0  0  0  0  0  0  0
  184.3010  179.4400  143.1480 C   0  0  0  0  0  3  0  0  0  0  0  0
  189.4820  176.8500  140.3030 C   0  0  0  0  0  3  0  0  0  0  0  0
  186.4100  177.3720  146.0610 F   0  0  0  0  0  0  0  0  0  0  0  0
  185.7760  178.0520  145.0760 C   0  0  0  0  0  0  0  0  0  0  0  0
  185.4900  178.8000  142.7720 C   0  0  0  0  0  0  0  0  0  0  0  0
  188.3170  176.8470  144.3520 C   0  0  0  0  0  2  0  0  0  0  0  0
  192.1120  178.7860  144.6140 C   0  0  0  0  0  3  0  0  0  0  0  0
  189.6390  177.5420  144.4400 C   0  0  0  0  0  0  0  0  0  0  0  0
  190.7310  176.8990  145.0270 C   0  0  0  0  0  3  0  0  0  0  0  0
  191.9350  177.5280  145.1020 N   0  0  0  0  0  0  0  0  0  0  0  0
  191.0460  179.4630  144.0190 C   0  0  0  0  0  3  0  0  0  0  0  0
  189.8030  178.8360  143.9340 C   0  0  0  0  0  3  0  0  0  0  0  0
  1 14  1  0  0  0  0
  1 21  1  0  0  0  0
  2  1  1  0  0  0  0
  3 20  1  0  0  0  0
  4 13  1  0  0  0  0
  5 12  1  0  0  0  0
  6  2  1  0  0  0  0
  7 11  1  0  0  0  0
  8 10  1  0  0  0  0
  9  3  2  0  0  0  0
 11 15  1  0  0  0  0
 12  4  2  0  0  0  0
 12  7  1  0  0  0  0
 13 11  2  0  0  0  0
 13 17  1  0  0  0  0
 14 19  1  0  0  0  0
 15  3  1  0  0  0  0
 15  2  2  0  0  0  0
 16  8  2  0  0  0  0
 17  6  2  0  0  0  0
 19 10  2  0  0  0  0
 19 18  1  0  0  0  0
 20 16  1  0  0  0  0
 20 14  2  0  0  0  0
 21 23  1  0  0  0  0
 22 25  1  0  0  0  0
 23 24  1  0  0  0  0
 24 25  2  0  0  0  0
 26 22  2  0  0  0  0
 27 26  1  0  0  0  0
 27 23  2  0  0  0  0
M  END
>  <MODEL>
1

>  <REMARK>
 VINA RESULT:      -9.1      0.000      0.000
  Name = 
  2 active torsions:
  status: ('A' for Active; 'I' for Inactive)
    1  A    between atoms: N_1  and  C_15
    2  A    between atoms: C_9  and  C_15
                            x       y       z     vdW  Elec       q    Type
                         _______ _______ _______ _____ _____    ______ ____

>  <TORSDO>
F 2

$$$$
=
 OpenBabel11052413503D

 27 31  0  0  0  0  0  0  0  0999 V2000
  184.4400  178.7940  140.9080 N   0  0  0  0  0  0  0  0  0  0  0  0
  184.4880  178.7570  142.2830 C   0  0  0  0  0  0  0  0  0  0  0  0
  186.8840  178.3060  142.2050 C   0  0  0  0  0  0  0  0  0  0  0  0
  184.8240  178.6250  146.3900 N   0  0  0  0  0  0  0  0  0  0  0  0
  186.9460  178.2130  147.6480 C   0  0  0  0  0  1  0  0  0  0  0  0
  183.3110  178.9570  143.0610 C   0  0  0  0  0  3  0  0  0  0  0  0
  186.6910  178.3000  145.1910 O   0  0  0  0  0  0  0  0  0  0  0  0
  187.9360  178.0820  138.6660 C   0  0  0  0  0  3  0  0  0  0  0  0
  187.9870  178.1020  142.7860 O   0  0  0  0  0  0  0  0  0  0  0  0
  186.7290  178.2880  138.0090 C   0  0  0  0  0  3  0  0  0  0  0  0
  185.7050  178.4950  144.3540 C   0  0  0  0  0  0  0  0  0  0  0  0
  186.1590  178.3780  146.3970 C   0  0  0  0  0  0  0  0  0  0  0  0
  184.5650  178.6940  145.0720 C   0  0  0  0  0  0  0  0  0  0  0  0
  185.5740  178.5510  140.1540 C   0  0  0  0  0  0  0  0  0  0  0  0
  185.7200  178.5140  142.9510 C   0  0  0  0  0  0  0  0  0  0  0  0
  187.9790  178.0940  140.0560 C   0  0  0  0  0  3  0  0  0  0  0  0
  183.3400  178.9280  144.4640 C   0  0  0  0  0  3  0  0  0  0  0  0
  184.4170  178.6740  138.0110 F   0  0  0  0  0  0  0  0  0  0  0  0
  185.5550  178.5150  138.7300 C   0  0  0  0  0  0  0  0  0  0  0  0
  186.8170  178.3190  140.8080 C   0  0  0  0  0  0  0  0  0  0  0  0
  183.1640  179.1320  140.2600 C   0  0  0  0  0  2  0  0  0  0  0  0
  180.5750  175.7430  140.0440 C   0  0  0  0  0  3  0  0  0  0  0  0
  182.2720  177.9340  140.1820 C   0  0  0  0  0  0  0  0  0  0  0  0
  180.9310  178.0330  140.5620 C   0  0  0  0  0  3  0  0  0  0  0  0
  180.1170  176.9460  140.4860 N   0  0  0  0  0  0  0  0  0  0  0  0
  181.9080  175.6020  139.6540 C   0  0  0  0  0  3  0  0  0  0  0  0
  182.7600  176.7050  139.7260 C   0  0  0  0  0  3  0  0  0  0  0  0
  1  2  1  0  0  0  0
  2 15  2  0  0  0  0
  2  6  1  0  0  0  0
  3  9  2  0  0  0  0
  3 15  1  0  0  0  0
  4 12  2  0  0  0  0
  6 17  2  0  0  0  0
  7 12  1  0  0  0  0
  8 16  1  0  0  0  0
 10  8  2  0  0  0  0
 10 19  1  0  0  0  0
 11 13  2  0  0  0  0
 11  7  1  0  0  0  0
 12  5  1  0  0  0  0
 13  4  1  0  0  0  0
 14 20  1  0  0  0  0
 14  1  1  0  0  0  0
 15 11  1  0  0  0  0
 16 20  2  0  0  0  0
 17 13  1  0  0  0  0
 18 19  1  0  0  0  0
 19 14  2  0  0  0  0
 20  3  1  0  0  0  0
 21  1  1  0  0  0  0
 22 25  1  0  0  0  0
 23 21  1  0  0  0  0
 23 24  1  0  0  0  0
 25 24  2  0  0  0  0
 26 27  1  0  0  0  0
 26 22  2  0  0  0  0
 27 23  2  0  0  0  0
M  END
>  <MODEL>
2

>  <REMARK>
 VINA RESULT:      -8.9      3.651      7.659
  Name = 
  2 active torsions:
  status: ('A' for Active; 'I' for Inactive)
    1  A    between atoms: N_1  and  C_15
    2  A    between atoms: C_9  and  C_15
                            x       y       z     vdW  Elec       q    Type
                         _______ _______ _______ _____ _____    ______ ____

>  <TORSDO>
F 2

$$$$
=
 OpenBabel11052413503D

 27 31  0  0  0  0  0  0  0  0999 V2000
  188.2590  178.2730  140.9170 N   0  0  0  0  0  0  0  0  0  0  0  0
  189.1660  177.9650  141.9060 C   0  0  0  0  0  0  0  0  0  0  0  0
  187.3470  177.6370  143.4970 C   0  0  0  0  0  0  0  0  0  0  0  0
  191.7340  177.0030  144.9840 N   0  0  0  0  0  0  0  0  0  0  0  0
  191.0330  176.4070  147.3100 C   0  0  0  0  0  1  0  0  0  0  0  0
  190.5650  177.9700  141.6400 C   0  0  0  0  0  3  0  0  0  0  0  0
  189.5360  176.9940  145.4320 O   0  0  0  0  0  0  0  0  0  0  0  0
  184.1390  178.3510  141.7990 C   0  0  0  0  0  3  0  0  0  0  0  0
  186.9330  177.3370  144.6520 O   0  0  0  0  0  0  0  0  0  0  0  0
  184.5760  178.7010  140.5270 C   0  0  0  0  0  3  0  0  0  0  0  0
  189.6880  177.3260  144.1770 C   0  0  0  0  0  0  0  0  0  0  0  0
  190.7550  176.8040  145.9040 C   0  0  0  0  0  0  0  0  0  0  0  0
  191.0210  177.3350  143.8940 C   0  0  0  0  0  0  0  0  0  0  0  0
  186.9030  178.3160  141.1900 C   0  0  0  0  0  0  0  0  0  0  0  0
  188.7160  177.6390  143.2150 C   0  0  0  0  0  0  0  0  0  0  0  0
  185.0640  177.9950  142.7760 C   0  0  0  0  0  3  0  0  0  0  0  0
  191.5060  177.6530  142.6330 C   0  0  0  0  0  3  0  0  0  0  0  0
  186.2780  179.0800  138.9600 F   0  0  0  0  0  0  0  0  0  0  0  0
  185.9370  178.6940  140.2130 C   0  0  0  0  0  0  0  0  0  0  0  0
  186.4370  177.9800  142.4910 C   0  0  0  0  0  0  0  0  0  0  0  0
  188.7610  178.5230  139.5580 C   0  0  0  0  0  2  0  0  0  0  0  0
  189.3820  174.8450  137.4790 C   0  0  0  0  0  3  0  0  0  0  0  0
  188.9640  177.2380  138.8200 C   0  0  0  0  0  0  0  0  0  0  0  0
  190.1700  176.5440  138.9400 C   0  0  0  0  0  3  0  0  0  0  0  0
  190.3540  175.3720  138.2730 N   0  0  0  0  0  0  0  0  0  0  0  0
  188.1610  175.5070  137.3330 C   0  0  0  0  0  3  0  0  0  0  0  0
  187.9540  176.7110  138.0080 C   0  0  0  0  0  3  0  0  0  0  0  0
  1 14  1  0  0  0  0
  1  2  1  0  0  0  0
  2 15  1  0  0  0  0
  3  9  2  0  0  0  0
  4 12  2  0  0  0  0
  6  2  2  0  0  0  0
  6 17  1  0  0  0  0
  7 12  1  0  0  0  0
  8 16  1  0  0  0  0
 10  8  2  0  0  0  0
 11  7  1  0  0  0  0
 12  5  1  0  0  0  0
 13 11  1  0  0  0  0
 13  4  1  0  0  0  0
 14 20  1  0  0  0  0
 15  3  1  0  0  0  0
 15 11  2  0  0  0  0
 17 13  2  0  0  0  0
 18 19  1  0  0  0  0
 19 10  1  0  0  0  0
 19 14  2  0  0  0  0
 20 16  2  0  0  0  0
 20  3  1  0  0  0  0
 21  1  1  0  0  0  0
 22 25  1  0  0  0  0
 23 24  1  0  0  0  0
 23 21  1  0  0  0  0
 25 24  2  0  0  0  0
 26 22  2  0  0  0  0
 26 27  1  0  0  0  0
 27 23  2  0  0  0  0
M  END
>  <MODEL>
3

>  <REMARK>
 VINA RESULT:      -8.5      2.715      5.768
  Name = 
  2 active torsions:
  status: ('A' for Active; 'I' for Inactive)
    1  A    between atoms: N_1  and  C_15
    2  A    between atoms: C_9  and  C_15
                            x       y       z     vdW  Elec       q    Type
                         _______ _______ _______ _____ _____    ______ ____

>  <TORSDO>
F 2

$$$$
=
 OpenBabel11052413503D

 27 31  0  0  0  0  0  0  0  0999 V2000
  184.4460  178.8820  141.0550 N   0  0  0  0  0  0  0  0  0  0  0  0
  185.7450  178.6160  141.4240 C   0  0  0  0  0  0  0  0  0  0  0  0
  185.0420  178.3170  143.7410 C   0  0  0  0  0  0  0  0  0  0  0  0
  189.5700  177.7780  142.7120 N   0  0  0  0  0  0  0  0  0  0  0  0
  190.2110  177.2480  145.0710 C   0  0  0  0  0  1  0  0  0  0  0  0
  186.7950  178.6280  140.4630 C   0  0  0  0  0  3  0  0  0  0  0  0
  187.9370  177.7590  144.2480 O   0  0  0  0  0  0  0  0  0  0  0  0
  181.4030  178.9420  143.9690 C   0  0  0  0  0  3  0  0  0  0  0  0
  185.3050  178.0480  144.9470 O   0  0  0  0  0  0  0  0  0  0  0  0
  181.0980  179.2570  142.6500 C   0  0  0  0  0  3  0  0  0  0  0  0
  187.3980  178.0540  143.0940 C   0  0  0  0  0  0  0  0  0  0  0  0
  189.2260  177.5980  144.0130 C   0  0  0  0  0  0  0  0  0  0  0  0
  188.3830  178.0680  142.1520 C   0  0  0  0  0  0  0  0  0  0  0  0
  183.4350  178.9190  141.9980 C   0  0  0  0  0  0  0  0  0  0  0  0
  186.0580  178.3250  142.7810 C   0  0  0  0  0  0  0  0  0  0  0  0
  182.7120  178.6280  144.3200 C   0  0  0  0  0  3  0  0  0  0  0  0
  188.1250  178.3520  140.8190 C   0  0  0  0  0  3  0  0  0  0  0  0
  181.7120  179.6060  140.4150 F   0  0  0  0  0  0  0  0  0  0  0  0
  182.0910  179.2550  141.6680 C   0  0  0  0  0  0  0  0  0  0  0  0
  183.7300  178.6180  143.3570 C   0  0  0  0  0  0  0  0  0  0  0  0
  184.1530  179.0950  139.6300 C   0  0  0  0  0  2  0  0  0  0  0  0
  183.7240  175.3770  137.5730 C   0  0  0  0  0  3  0  0  0  0  0  0
  183.9870  177.7890  138.9180 C   0  0  0  0  0  0  0  0  0  0  0  0
  184.7590  177.5040  137.7900 C   0  0  0  0  0  3  0  0  0  0  0  0
  184.6140  176.3140  137.1450 N   0  0  0  0  0  0  0  0  0  0  0  0
  182.9340  175.6230  138.6970 C   0  0  0  0  0  3  0  0  0  0  0  0
  183.0680  176.8380  139.3710 C   0  0  0  0  0  3  0  0  0  0  0  0
  1  2  1  0  0  0  0
  1 14  1  0  0  0  0
  2 15  1  0  0  0  0
  3  9  2  0  0  0  0
  4 12  2  0  0  0  0
  6 17  1  0  0  0  0
  6  2  2  0  0  0  0
  8 16  1  0  0  0  0
 10  8  2  0  0  0  0
 11  7  1  0  0  0  0
 12  7  1  0  0  0  0
 12  5  1  0  0  0  0
 13  4  1  0  0  0  0
 13 11  1  0  0  0  0
 14 20  1  0  0  0  0
 15 11  2  0  0  0  0
 15  3  1  0  0  0  0
 17 13  2  0  0  0  0
 18 19  1  0  0  0  0
 19 14  2  0  0  0  0
 19 10  1  0  0  0  0
 20  3  1  0  0  0  0
 20 16  2  0  0  0  0
 21  1  1  0  0  0  0
 22 26  1  0  0  0  0
 23 27  1  0  0  0  0
 23 21  1  0  0  0  0
 24 23  2  0  0  0  0
 25 22  2  0  0  0  0
 25 24  1  0  0  0  0
 26 27  2  0  0  0  0
M  END
>  <MODEL>
4

>  <REMARK>
 VINA RESULT:      -8.5      3.221      6.170
  Name = 
  2 active torsions:
  status: ('A' for Active; 'I' for Inactive)
    1  A    between atoms: N_1  and  C_15
    2  A    between atoms: C_9  and  C_15
                            x       y       z     vdW  Elec       q    Type
                         _______ _______ _______ _____ _____    ______ ____

>  <TORSDO>
F 2

$$$$
=
 OpenBabel11052413503D

 27 31  0  0  0  0  0  0  0  0999 V2000
  189.4710  177.9680  144.0410 N   0  0  0  0  0  0  0  0  0  0  0  0
  189.4690  177.9260  142.6650 C   0  0  0  0  0  0  0  0  0  0  0  0
  187.0300  177.8940  142.6540 C   0  0  0  0  0  0  0  0  0  0  0  0
  189.2660  177.8160  138.5490 N   0  0  0  0  0  0  0  0  0  0  0  0
  187.1510  177.7630  137.2130 C   0  0  0  0  0  1  0  0  0  0  0  0
  190.6900  177.9140  141.9320 C   0  0  0  0  0  3  0  0  0  0  0  0
  187.3280  177.8270  139.6780 O   0  0  0  0  0  0  0  0  0  0  0  0
  185.8250  177.8860  146.1520 C   0  0  0  0  0  3  0  0  0  0  0  0
  185.9300  177.8760  142.0320 O   0  0  0  0  0  0  0  0  0  0  0  0
  187.0260  177.8880  146.8530 C   0  0  0  0  0  3  0  0  0  0  0  0
  188.3010  177.8580  140.5510 C   0  0  0  0  0  0  0  0  0  0  0  0
  187.9090  177.8020  138.4920 C   0  0  0  0  0  0  0  0  0  0  0  0
  189.4840  177.8520  139.8750 C   0  0  0  0  0  0  0  0  0  0  0  0
  188.2860  177.9300  144.7530 C   0  0  0  0  0  0  0  0  0  0  0  0
  188.2390  177.8920  141.9520 C   0  0  0  0  0  0  0  0  0  0  0  0
  185.8360  177.8930  144.7610 C   0  0  0  0  0  3  0  0  0  0  0  0
  190.7080  177.8780  140.5280 C   0  0  0  0  0  3  0  0  0  0  0  0
  189.3680  177.8720  146.9370 F   0  0  0  0  0  0  0  0  0  0  0  0
  188.2470  177.9040  146.1760 C   0  0  0  0  0  0  0  0  0  0  0  0
  187.0470  177.9080  144.0530 C   0  0  0  0  0  0  0  0  0  0  0  0
  190.7620  178.0870  144.7360 C   0  0  0  0  0  2  0  0  0  0  0  0
  192.4310  174.2290  145.4860 C   0  0  0  0  0  3  0  0  0  0  0  0
  191.3440  176.7380  145.0160 C   0  0  0  0  0  0  0  0  0  0  0  0
  191.5240  175.8230  143.9760 C   0  0  0  0  0  3  0  0  0  0  0  0
  192.0580  174.5970  144.2290 N   0  0  0  0  0  0  0  0  0  0  0  0
  192.2680  175.1150  146.5520 C   0  0  0  0  0  3  0  0  0  0  0  0
  191.7200  176.3760  146.3140 C   0  0  0  0  0  3  0  0  0  0  0  0
  1 21  1  0  0  0  0
  1 14  1  0  0  0  0
  2  1  1  0  0  0  0
  3 20  1  0  0  0  0
  4 13  1  0  0  0  0
  5 12  1  0  0  0  0
  6  2  2  0  0  0  0
  7 11  1  0  0  0  0
  8 10  1  0  0  0  0
  9  3  2  0  0  0  0
 11 15  2  0  0  0  0
 12  4  2  0  0  0  0
 12  7  1  0  0  0  0
 13 17  2  0  0  0  0
 13 11  1  0  0  0  0
 14 19  1  0  0  0  0
 15  3  1  0  0  0  0
 15  2  1  0  0  0  0
 16  8  2  0  0  0  0
 17  6  1  0  0  0  0
 19 10  2  0  0  0  0
 19 18  1  0  0  0  0
 20 14  2  0  0  0  0
 20 16  1  0  0  0  0
 21 23  1  0  0  0  0
 22 26  1  0  0  0  0
 23 27  1  0  0  0  0
 24 25  1  0  0  0  0
 24 23  2  0  0  0  0
 25 22  2  0  0  0  0
 27 26  2  0  0  0  0
M  END
>  <MODEL>
5

>  <REMARK>
 VINA RESULT:      -8.4      1.771      2.533
  Name = 
  2 active torsions:
  status: ('A' for Active; 'I' for Inactive)
    1  A    between atoms: N_1  and  C_15
    2  A    between atoms: C_9  and  C_15
                            x       y       z     vdW  Elec       q    Type
                         _______ _______ _______ _____ _____    ______ ____

>  <TORSDO>
F 2

$$$$
=
 OpenBabel11052413503D

 27 31  0  0  0  0  0  0  0  0999 V2000
  184.4430  178.8520  141.3250 N   0  0  0  0  0  0  0  0  0  0  0  0
  185.6030  178.6030  140.6260 C   0  0  0  0  0  0  0  0  0  0  0  0
  186.7750  178.1170  142.7090 C   0  0  0  0  0  0  0  0  0  0  0  0
  189.1580  177.8020  138.6990 N   0  0  0  0  0  0  0  0  0  0  0  0
  191.2860  177.1270  139.8280 C   0  0  0  0  0  1  0  0  0  0  0  0
  185.6390  178.7170  139.2070 C   0  0  0  0  0  3  0  0  0  0  0  0
  189.1320  177.6200  140.9340 O   0  0  0  0  0  0  0  0  0  0  0  0
  184.4340  178.6050  145.5310 C   0  0  0  0  0  3  0  0  0  0  0  0
  187.8180  177.7730  143.3330 O   0  0  0  0  0  0  0  0  0  0  0  0
  183.2820  179.0030  144.8640 C   0  0  0  0  0  3  0  0  0  0  0  0
  187.9350  177.9780  140.5470 C   0  0  0  0  0  0  0  0  0  0  0  0
  189.8520  177.5180  139.8320 C   0  0  0  0  0  0  0  0  0  0  0  0
  187.9400  178.0910  139.1890 C   0  0  0  0  0  0  0  0  0  0  0  0
  184.4230  178.7880  142.7070 C   0  0  0  0  0  0  0  0  0  0  0  0
  186.7890  178.2270  141.3150 C   0  0  0  0  0  0  0  0  0  0  0  0
  185.5850  178.3090  144.8090 C   0  0  0  0  0  3  0  0  0  0  0  0
  186.8090  178.4610  138.4750 C   0  0  0  0  0  3  0  0  0  0  0  0
  182.1080  179.5290  142.9040 F   0  0  0  0  0  0  0  0  0  0  0  0
  183.2630  179.1030  143.4710 C   0  0  0  0  0  0  0  0  0  0  0  0
  185.5980  178.4020  143.4100 C   0  0  0  0  0  0  0  0  0  0  0  0
  183.2200  179.1550  140.5680 C   0  0  0  0  0  2  0  0  0  0  0  0
  180.9500  175.6240  139.7860 C   0  0  0  0  0  3  0  0  0  0  0  0
  182.4400  177.9090  140.2910 C   0  0  0  0  0  0  0  0  0  0  0  0
  181.0780  177.8540  140.5940 C   0  0  0  0  0  3  0  0  0  0  0  0
  180.3660  176.7230  140.3380 N   0  0  0  0  0  0  0  0  0  0  0  0
  182.3100  175.6390  139.4680 C   0  0  0  0  0  3  0  0  0  0  0  0
  183.0570  176.7890  139.7250 C   0  0  0  0  0  3  0  0  0  0  0  0
  1 14  1  0  0  0  0
  2 15  1  0  0  0  0
  2  1  1  0  0  0  0
  3  9  2  0  0  0  0
  3 20  1  0  0  0  0
  4 13  1  0  0  0  0
  4 12  2  0  0  0  0
  5 12  1  0  0  0  0
  6  2  2  0  0  0  0
 10  8  1  0  0  0  0
 11  7  1  0  0  0  0
 11 15  2  0  0  0  0
 12  7  1  0  0  0  0
 13 11  1  0  0  0  0
 14 20  2  0  0  0  0
 14 19  1  0  0  0  0
 15  3  1  0  0  0  0
 16  8  2  0  0  0  0
 17 13  2  0  0  0  0
 17  6  1  0  0  0  0
 18 19  1  0  0  0  0
 19 10  2  0  0  0  0
 20 16  1  0  0  0  0
 21  1  1  0  0  0  0
 22 25  1  0  0  0  0
 23 21  1  0  0  0  0
 23 24  1  0  0  0  0
 25 24  2  0  0  0  0
 26 27  1  0  0  0  0
 26 22  2  0  0  0  0
 27 23  2  0  0  0  0
M  END
>  <MODEL>
6

>  <REMARK>
 VINA RESULT:      -8.4      3.189      5.806
  Name = 
  2 active torsions:
  status: ('A' for Active; 'I' for Inactive)
    1  A    between atoms: N_1  and  C_15
    2  A    between atoms: C_9  and  C_15
                            x       y       z     vdW  Elec       q    Type
                         _______ _______ _______ _____ _____    ______ ____

>  <TORSDO>
F 2

$$$$
=
 OpenBabel11052413503D

 27 31  0  0  0  0  0  0  0  0999 V2000
  188.7380  178.1250  141.1920 N   0  0  0  0  0  0  0  0  0  0  0  0
  187.3910  178.3410  141.3780 C   0  0  0  0  0  0  0  0  0  0  0  0
  187.5980  177.7130  143.7260 C   0  0  0  0  0  0  0  0  0  0  0  0
  183.3840  178.9540  142.1260 N   0  0  0  0  0  0  0  0  0  0  0  0
  182.2670  178.6320  144.3410 C   0  0  0  0  0  1  0  0  0  0  0  0
  186.5640  178.7670  140.3000 C   0  0  0  0  0  3  0  0  0  0  0  0
  184.6620  178.2770  143.8400 O   0  0  0  0  0  0  0  0  0  0  0  0
  191.1080  176.7570  144.3970 C   0  0  0  0  0  3  0  0  0  0  0  0
  187.0900  177.5410  144.8700 O   0  0  0  0  0  0  0  0  0  0  0  0
  191.6800  176.9230  143.1410 C   0  0  0  0  0  3  0  0  0  0  0  0
  185.4280  178.3830  142.7860 C   0  0  0  0  0  0  0  0  0  0  0  0
  183.4500  178.6160  143.4390 C   0  0  0  0  0  0  0  0  0  0  0  0
  184.6610  178.7940  141.7380 C   0  0  0  0  0  0  0  0  0  0  0  0
  189.5310  177.6650  142.2280 C   0  0  0  0  0  0  0  0  0  0  0  0
  186.8030  178.1390  142.6570 C   0  0  0  0  0  0  0  0  0  0  0  0
  189.7550  177.0250  144.5830 C   0  0  0  0  0  3  0  0  0  0  0  0
  185.1900  178.9990  140.4710 C   0  0  0  0  0  3  0  0  0  0  0  0
  191.5430  177.4690  140.8660 F   0  0  0  0  0  0  0  0  0  0  0  0
  190.9130  177.3650  142.0610 C   0  0  0  0  0  0  0  0  0  0  0  0
  188.9600  177.4690  143.5170 C   0  0  0  0  0  0  0  0  0  0  0  0
  189.3210  178.4270  139.8770 C   0  0  0  0  0  2  0  0  0  0  0  0
  188.8940  175.1020  137.2320 C   0  0  0  0  0  3  0  0  0  0  0  0
  189.1570  177.2700  138.9420 C   0  0  0  0  0  0  0  0  0  0  0  0
  190.1660  176.3110  138.8320 C   0  0  0  0  0  3  0  0  0  0  0  0
  190.0170  175.2550  137.9860 N   0  0  0  0  0  0  0  0  0  0  0  0
  187.8620  176.0390  137.3130 C   0  0  0  0  0  3  0  0  0  0  0  0
  187.9970  177.1290  138.1740 C   0  0  0  0  0  3  0  0  0  0  0  0
  1  2  1  0  0  0  0
  1 14  1  0  0  0  0
  2 15  1  0  0  0  0
  3  9  2  0  0  0  0
  4 12  2  0  0  0  0
  6 17  1  0  0  0  0
  6  2  2  0  0  0  0
  8 16  1  0  0  0  0
 10  8  2  0  0  0  0
 11  7  1  0  0  0  0
 12  7  1  0  0  0  0
 12  5  1  0  0  0  0
 13  4  1  0  0  0  0
 13 11  1  0  0  0  0
 14 20  1  0  0  0  0
 15 11  2  0  0  0  0
 15  3  1  0  0  0  0
 17 13  2  0  0  0  0
 18 19  1  0  0  0  0
 19 14  2  0  0  0  0
 19 10  1  0  0  0  0
 20  3  1  0  0  0  0
 20 16  2  0  0  0  0
 21  1  1  0  0  0  0
 22 26  2  0  0  0  0
 22 25  1  0  0  0  0
 23 21  1  0  0  0  0
 24 23  1  0  0  0  0
 25 24  2  0  0  0  0
 26 27  1  0  0  0  0
 27 23  2  0  0  0  0
M  END
>  <MODEL>
7

>  <REMARK>
 VINA RESULT:      -8.4      2.641      5.949
  Name = 
  2 active torsions:
  status: ('A' for Active; 'I' for Inactive)
    1  A    between atoms: N_1  and  C_15
    2  A    between atoms: C_9  and  C_15
                            x       y       z     vdW  Elec       q    Type
                         _______ _______ _______ _____ _____    ______ ____

>  <TORSDO>
F 2

$$$$
=
 OpenBabel11052413503D

 27 31  0  0  0  0  0  0  0  0999 V2000
  186.2420  178.5880  140.9070 N   0  0  0  0  0  0  0  0  0  0  0  0
  187.2560  178.2670  140.0330 C   0  0  0  0  0  0  0  0  0  0  0  0
  188.5190  177.2410  141.8500 C   0  0  0  0  0  0  0  0  0  0  0  0
  190.3820  177.2110  137.5620 N   0  0  0  0  0  0  0  0  0  0  0  0
  192.4470  176.0010  138.2900 C   0  0  0  0  0  1  0  0  0  0  0  0
  187.1700  178.6140  138.6540 C   0  0  0  0  0  3  0  0  0  0  0  0
  190.5480  176.6590  139.7290 O   0  0  0  0  0  0  0  0  0  0  0  0
  186.6100  177.6320  144.9940 C   0  0  0  0  0  3  0  0  0  0  0  0
  189.5360  176.6220  142.2740 O   0  0  0  0  0  0  0  0  0  0  0  0
  185.4930  178.3290  144.5490 C   0  0  0  0  0  3  0  0  0  0  0  0
  189.4080  177.2760  139.5580 C   0  0  0  0  0  0  0  0  0  0  0  0
  191.1200  176.6240  138.5390 C   0  0  0  0  0  0  0  0  0  0  0  0
  189.2970  177.6170  138.2440 C   0  0  0  0  0  0  0  0  0  0  0  0
  186.3490  178.2940  142.2540 C   0  0  0  0  0  0  0  0  0  0  0  0
  188.4130  177.5830  140.4980 C   0  0  0  0  0  0  0  0  0  0  0  0
  187.6060  177.2720  144.0920 C   0  0  0  0  0  3  0  0  0  0  0  0
  188.1910  178.2900  137.7460 C   0  0  0  0  0  3  0  0  0  0  0  0
  184.2490  179.3740  142.8600 F   0  0  0  0  0  0  0  0  0  0  0  0
  185.3530  178.6670  143.2020 C   0  0  0  0  0  0  0  0  0  0  0  0
  187.4940  177.5980  142.7330 C   0  0  0  0  0  0  0  0  0  0  0  0
  185.0280  179.2200  140.3690 C   0  0  0  0  0  2  0  0  0  0  0  0
  182.5610  176.3500  138.3920 C   0  0  0  0  0  3  0  0  0  0  0  0
  184.1550  178.2110  139.6930 C   0  0  0  0  0  0  0  0  0  0  0  0
  184.1000  178.1560  138.2980 C   0  0  0  0  0  3  0  0  0  0  0  0
  183.3110  177.2360  137.6810 N   0  0  0  0  0  0  0  0  0  0  0  0
  182.5890  176.3710  139.7880 C   0  0  0  0  0  3  0  0  0  0  0  0
  183.3910  177.3090  140.4390 C   0  0  0  0  0  3  0  0  0  0  0  0
  1 14  1  0  0  0  0
  2 15  1  0  0  0  0
  2  1  1  0  0  0  0
  3  9  2  0  0  0  0
  3 20  1  0  0  0  0
  4 13  1  0  0  0  0
  4 12  2  0  0  0  0
  5 12  1  0  0  0  0
  6  2  2  0  0  0  0
 10  8  1  0  0  0  0
 11  7  1  0  0  0  0
 11 15  2  0  0  0  0
 12  7  1  0  0  0  0
 13 11  1  0  0  0  0
 14 20  2  0  0  0  0
 14 19  1  0  0  0  0
 15  3  1  0  0  0  0
 16  8  2  0  0  0  0
 17 13  2  0  0  0  0
 17  6  1  0  0  0  0
 18 19  1  0  0  0  0
 19 10  2  0  0  0  0
 20 16  1  0  0  0  0
 21  1  1  0  0  0  0
 22 26  1  0  0  0  0
 23 21  1  0  0  0  0
 23 27  1  0  0  0  0
 24 23  2  0  0  0  0
 25 24  1  0  0  0  0
 25 22  2  0  0  0  0
 26 27  2  0  0  0  0
M  END
>  <MODEL>
8

>  <REMARK>
 VINA RESULT:      -8.2      2.796      5.489
  Name = 
  2 active torsions:
  status: ('A' for Active; 'I' for Inactive)
    1  A    between atoms: N_1  and  C_15
    2  A    between atoms: C_9  and  C_15
                            x       y       z     vdW  Elec       q    Type
                         _______ _______ _______ _____ _____    ______ ____

>  <TORSDO>
F 2

$$$$
=
 OpenBabel11052413503D

 27 31  0  0  0  0  0  0  0  0999 V2000
  188.0050  178.1870  139.5180 N   0  0  0  0  0  0  0  0  0  0  0  0
  186.8710  178.3810  140.2750 C   0  0  0  0  0  0  0  0  0  0  0  0
  188.1500  177.9980  142.3170 C   0  0  0  0  0  0  0  0  0  0  0  0
  183.5890  178.9470  142.7040 N   0  0  0  0  0  0  0  0  0  0  0  0
  183.6070  178.8170  145.2030 C   0  0  0  0  0  1  0  0  0  0  0  0
  185.6210  178.6720  139.6590 C   0  0  0  0  0  3  0  0  0  0  0  0
  185.5430  178.4840  143.7020 O   0  0  0  0  0  0  0  0  0  0  0  0
  191.6480  177.2190  141.4000 C   0  0  0  0  0  3  0  0  0  0  0  0
  188.2220  177.9270  143.5760 O   0  0  0  0  0  0  0  0  0  0  0  0
  191.5850  177.2750  140.0120 C   0  0  0  0  0  3  0  0  0  0  0  0
  185.7480  178.5070  142.4110 C   0  0  0  0  0  0  0  0  0  0  0  0
  184.2600  178.7460  143.8680 C   0  0  0  0  0  0  0  0  0  0  0  0
  184.5650  178.7880  141.7940 C   0  0  0  0  0  0  0  0  0  0  0  0
  189.2070  177.8570  140.1160 C   0  0  0  0  0  0  0  0  0  0  0  0
  186.9340  178.2910  141.6940 C   0  0  0  0  0  0  0  0  0  0  0  0
  190.5060  177.4640  142.1550 C   0  0  0  0  0  3  0  0  0  0  0  0
  184.4560  178.8790  140.4140 C   0  0  0  0  0  3  0  0  0  0  0  0
  190.4060  177.5840  138.0100 F   0  0  0  0  0  0  0  0  0  0  0  0
  190.3870  177.5830  139.3650 C   0  0  0  0  0  0  0  0  0  0  0  0
  189.2890  177.7750  141.5340 C   0  0  0  0  0  0  0  0  0  0  0  0
  187.9140  178.3720  138.0620 C   0  0  0  0  0  2  0  0  0  0  0  0
  185.8790  175.0750  136.2670 C   0  0  0  0  0  3  0  0  0  0  0  0
  187.1920  177.2290  137.4230 C   0  0  0  0  0  0  0  0  0  0  0  0
  187.6470  175.9210  137.6080 C   0  0  0  0  0  3  0  0  0  0  0  0
  186.9880  174.8800  137.0310 N   0  0  0  0  0  0  0  0  0  0  0  0
  185.3910  176.3670  136.0580 C   0  0  0  0  0  3  0  0  0  0  0  0
  186.0540  177.4480  136.6390 C   0  0  0  0  0  3  0  0  0  0  0  0
  1 14  1  0  0  0  0
  1  2  1  0  0  0  0
  2 15  1  0  0  0  0
  3  9  2  0  0  0  0
  4 12  2  0  0  0  0
  6  2  2  0  0  0  0
  6 17  1  0  0  0  0
  7 12  1  0  0  0  0
  8 16  1  0  0  0  0
 10  8  2  0  0  0  0
 11  7  1  0  0  0  0
 12  5  1  0  0  0  0
 13 11  1  0  0  0  0
 13  4  1  0  0  0  0
 14 20  1  0  0  0  0
 15  3  1  0  0  0  0
 15 11  2  0  0  0  0
 17 13  2  0  0  0  0
 18 19  1  0  0  0  0
 19 10  1  0  0  0  0
 19 14  2  0  0  0  0
 20 16  2  0  0  0  0
 20  3  1  0  0  0  0
 21  1  1  0  0  0  0
 22 25  1  0  0  0  0
 23 24  1  0  0  0  0
 23 21  1  0  0  0  0
 25 24  2  0  0  0  0
 26 22  2  0  0  0  0
 26 27  1  0  0  0  0
 27 23  2  0  0  0  0
M  END
>  <MODEL>
9

>  <REMARK>
 VINA RESULT:      -8.2      3.021      6.901
  Name = 
  2 active torsions:
  status: ('A' for Active; 'I' for Inactive)
    1  A    between atoms: N_1  and  C_15
    2  A    between atoms: C_9  and  C_15
                            x       y       z     vdW  Elec       q    Type
                         _______ _______ _______ _____ _____    ______ ____

>  <TORSDO>
F 2

$$$$
