=
 OpenBabel11052415513D

 34 38  0  0  1  0  0  0  0  0999 V2000
  188.9430  176.8040  144.2690 C   0  0  2  0  0  3  0  0  0  0  0  0
  192.2500  176.8710  142.4570 C   0  0  0  0  0  3  0  0  0  0  0  0
  191.6550  175.4850  144.6890 S   0  0  0  0  0  0  0  0  0  0  0  0
  186.7150  177.4520  145.2770 C   0  0  1  0  0  3  0  0  0  0  0  0
  187.6630  177.6130  144.0830 C   0  0  0  0  0  2  0  0  0  0  0  0
  188.8300  177.1930  146.7920 C   0  0  1  0  0  3  0  0  0  0  0  0
  189.0180  178.3830  147.7140 C   0  0  0  0  0  1  0  0  0  0  0  0
  187.3340  176.9010  146.5780 C   0  0  0  0  0  2  0  0  0  0  0  0
  191.0620  176.8440  145.6980 C   0  0  0  0  0  0  0  0  0  0  0  0
  189.6590  177.3710  145.5130 C   0  0  1  0  0  3  0  0  0  0  0  0
  191.8290  177.4050  146.4630 O   0  0  0  0  0  0  0  0  0  0  0  0
  192.0340  177.7730  141.2890 C   0  0  0  0  0  2  0  0  0  0  0  0
  191.1910  177.1130  140.2450 C   0  0  0  0  0  0  0  0  0  0  0  0
  189.9230  176.7660  140.5000 C   0  0  0  0  0  3  0  0  0  0  0  0
  191.2530  176.4270  143.2240 C   0  0  0  0  0  0  0  0  0  0  0  0
  189.2510  176.8570  141.8130 C   0  0  0  0  0  3  0  0  0  0  0  0
  189.8250  176.7930  143.0290 C   0  0  0  0  0  0  0  0  0  0  0  0
  191.7390  176.9300  138.8880 C   0  0  0  0  0  0  0  0  0  0  0  0
  193.1390  176.7530  138.6980 N   0  0  0  0  0  1  0  0  0  0  0  0
  190.9770  176.9240  137.8840 O   0  0  0  0  0  0  0  0  0  0  0  0
  185.8170  178.6720  145.4840 C   0  0  0  0  0  2  0  0  0  0  0  0
  182.3150  179.0170  144.1420 N   0  0  0  0  0  0  0  0  0  0  0  0
  184.8690  178.5500  143.1710 C   0  0  0  0  0  3  0  0  0  0  0  0
  181.5820  178.7000  140.5580 C   0  0  0  0  0  0  0  0  0  0  0  0
  181.3990  178.8850  141.9380 C   0  0  0  0  0  3  0  0  0  0  0  0
  182.4940  178.8370  142.8060 C   0  0  0  0  0  0  0  0  0  0  0  0
  183.9720  178.4160  140.9220 C   0  0  0  0  0  3  0  0  0  0  0  0
  183.7860  178.6000  142.2940 C   0  0  0  0  0  0  0  0  0  0  0  0
  182.8730  178.4660  140.0590 C   0  0  0  0  0  3  0  0  0  0  0  0
  184.6590  178.7280  144.5400 C   0  0  0  0  0  0  0  0  0  0  0  0
  183.3620  178.9700  145.0100 C   0  0  0  0  0  3  0  0  0  0  0  0
  180.4290  178.7510  139.6430 C   0  0  0  0  0  0  0  0  0  0  0  0
  179.1620  178.2410  140.0490 N   0  0  0  0  0  1  0  0  0  0  0  0
  180.5520  179.2480  138.4910 O   0  0  0  0  0  0  0  0  0  0  0  0
  1  5  1  6  0  0  0
  1 10  1  0  0  0  0
  2 15  2  0  0  0  0
  3  9  1  0  0  0  0
  4 21  1  1  0  0  0
  4  8  1  0  0  0  0
  5  4  1  0  0  0  0
  6  7  1  1  0  0  0
  8  6  1  0  0  0  0
  9 11  2  0  0  0  0
 10  9  1  1  0  0  0
 10  6  1  0  0  0  0
 12  2  1  0  0  0  0
 13 14  2  0  0  0  0
 13 12  1  0  0  0  0
 14 16  1  0  0  0  0
 15  3  1  0  0  0  0
 16 17  2  0  0  0  0
 17 15  1  0  0  0  0
 17  1  1  0  0  0  0
 18 13  1  0  0  0  0
 19 18  1  0  0  0  0
 20 18  2  0  0  0  0
 22 31  1  0  0  0  0
 23 30  1  0  0  0  0
 24 25  2  0  0  0  0
 25 26  1  0  0  0  0
 26 22  2  0  0  0  0
 27 28  1  0  0  0  0
 28 26  1  0  0  0  0
 28 23  2  0  0  0  0
 29 24  1  0  0  0  0
 29 27  2  0  0  0  0
 30 31  2  0  0  0  0
 30 21  1  0  0  0  0
 32 33  1  0  0  0  0
 32 24  1  0  0  0  0
 34 32  2  0  0  0  0
M  END
>  <MODEL>
1

>  <REMARK>
 VINA RESULT:     -10.2      0.000      0.000
  Name = 
  4 active torsions:
  status: ('A' for Active; 'I' for Inactive)
    1  A    between atoms: C_3  and  C_25
    2  A    between atoms: C_7  and  C_11
    3  A    between atoms: C_8  and  C_18
    4  A    between atoms: C_18  and  C_30
                            x       y       z     vdW  Elec       q    Type
                         _______ _______ _______ _____ _____    ______ ____

>  <TORSDO>
F 4

$$$$
=
 OpenBabel11052415513D

 34 38  0  0  1  0  0  0  0  0999 V2000
  187.5370  178.3220  139.7230 C   0  0  2  0  0  3  0  0  0  0  0  0
  189.3390  176.6320  136.8740 C   0  0  0  0  0  3  0  0  0  0  0  0
  187.5480  178.6360  136.6940 S   0  0  0  0  0  0  0  0  0  0  0  0
  186.3420  178.7860  141.9040 C   0  0  1  0  0  3  0  0  0  0  0  0
  187.4700  178.0100  141.2140 C   0  0  0  0  0  2  0  0  0  0  0  0
  185.0000  178.6250  139.6660 C   0  0  1  0  0  3  0  0  0  0  0  0
  183.7980  177.7090  139.7890 C   0  0  0  0  0  1  0  0  0  0  0  0
  185.2510  179.3740  140.9870 C   0  0  0  0  0  2  0  0  0  0  0  0
  186.1980  177.8700  137.5930 C   0  0  0  0  0  0  0  0  0  0  0  0
  186.2030  177.8550  139.1040 C   0  0  1  0  0  3  0  0  0  0  0  0
  185.3280  177.2740  136.9800 O   0  0  0  0  0  0  0  0  0  0  0  0
  190.2170  175.6140  137.5190 C   0  0  0  0  0  2  0  0  0  0  0  0
  191.3810  176.2600  138.2030 C   0  0  0  0  0  0  0  0  0  0  0  0
  191.1990  177.0900  139.2360 C   0  0  0  0  0  3  0  0  0  0  0  0
  188.6960  177.5770  137.5620 C   0  0  0  0  0  0  0  0  0  0  0  0
  189.8950  177.5690  139.7410 C   0  0  0  0  0  3  0  0  0  0  0  0
  188.7540  177.7140  139.0420 C   0  0  0  0  0  0  0  0  0  0  0  0
  192.7480  175.8980  137.7880 C   0  0  0  0  0  0  0  0  0  0  0  0
  193.0870  174.5370  137.5420 N   0  0  0  0  0  1  0  0  0  0  0  0
  193.6310  176.7870  137.6420 O   0  0  0  0  0  0  0  0  0  0  0  0
  185.7950  178.0600  143.1340 C   0  0  0  0  0  2  0  0  0  0  0  0
  187.4550  177.5120  146.4690 N   0  0  0  0  0  0  0  0  0  0  0  0
  188.1490  177.5130  143.7850 C   0  0  0  0  0  3  0  0  0  0  0  0
  191.0360  176.7440  146.7390 C   0  0  0  0  0  0  0  0  0  0  0  0
  189.7050  177.0060  147.1010 C   0  0  0  0  0  3  0  0  0  0  0  0
  188.7450  177.2600  146.1170 C   0  0  0  0  0  0  0  0  0  0  0  0
  190.4380  176.9940  144.3930 C   0  0  0  0  0  3  0  0  0  0  0  0
  189.1150  177.2540  144.7570 C   0  0  0  0  0  0  0  0  0  0  0  0
  191.3940  176.7390  145.3820 C   0  0  0  0  0  3  0  0  0  0  0  0
  186.8330  177.7790  144.1720 C   0  0  0  0  0  0  0  0  0  0  0  0
  186.5020  177.7670  145.5330 C   0  0  0  0  0  3  0  0  0  0  0  0
  192.0490  176.4760  147.7760 C   0  0  0  0  0  0  0  0  0  0  0  0
  192.8260  175.2830  147.7320 N   0  0  0  0  0  1  0  0  0  0  0  0
  192.2360  177.3000  148.7100 O   0  0  0  0  0  0  0  0  0  0  0  0
  1  5  1  1  0  0  0
  2 12  1  0  0  0  0
  2 15  2  0  0  0  0
  3 15  1  0  0  0  0
  3  9  1  0  0  0  0
  4 21  1  1  0  0  0
  5  4  1  0  0  0  0
  6  7  1  1  0  0  0
  6  8  1  0  0  0  0
  8  4  1  0  0  0  0
 10  9  1  6  0  0  0
 10  6  1  0  0  0  0
 10  1  1  0  0  0  0
 11  9  2  0  0  0  0
 12 13  1  0  0  0  0
 13 14  2  0  0  0  0
 14 16  1  0  0  0  0
 15 17  1  0  0  0  0
 17  1  1  0  0  0  0
 17 16  2  0  0  0  0
 18 13  1  0  0  0  0
 19 18  1  0  0  0  0
 20 18  2  0  0  0  0
 21 30  1  0  0  0  0
 23 30  2  0  0  0  0
 23 28  1  0  0  0  0
 24 25  1  0  0  0  0
 24 32  1  0  0  0  0
 26 22  1  0  0  0  0
 26 25  2  0  0  0  0
 27 28  2  0  0  0  0
 27 29  1  0  0  0  0
 28 26  1  0  0  0  0
 29 24  2  0  0  0  0
 30 31  1  0  0  0  0
 31 22  2  0  0  0  0
 32 34  2  0  0  0  0
 33 32  1  0  0  0  0
M  END
>  <MODEL>
2

>  <REMARK>
 VINA RESULT:     -10.0      3.348      7.702
  Name = 
  4 active torsions:
  status: ('A' for Active; 'I' for Inactive)
    1  A    between atoms: C_3  and  C_25
    2  A    between atoms: C_7  and  C_11
    3  A    between atoms: C_8  and  C_18
    4  A    between atoms: C_18  and  C_30
                            x       y       z     vdW  Elec       q    Type
                         _______ _______ _______ _____ _____    ______ ____

>  <TORSDO>
F 4

$$$$
=
 OpenBabel11052415513D

 34 38  0  0  1  0  0  0  0  0999 V2000
  186.3050  178.4370  138.7920 C   0  0  2  0  0  3  0  0  0  0  0  0
  189.0460  176.6330  136.9350 C   0  0  0  0  0  3  0  0  0  0  0  0
  187.1340  178.2040  135.8720 S   0  0  0  0  0  0  0  0  0  0  0  0
  184.4910  179.0500  140.4450 C   0  0  1  0  0  3  0  0  0  0  0  0
  185.8590  178.3880  140.2500 C   0  0  0  0  0  2  0  0  0  0  0  0
  183.8710  178.2470  138.0350 C   0  0  1  0  0  3  0  0  0  0  0  0
  182.8140  177.1600  138.0530 C   0  0  0  0  0  1  0  0  0  0  0  0
  183.6370  179.2530  139.1760 C   0  0  0  0  0  2  0  0  0  0  0  0
  185.6960  177.3720  136.5500 C   0  0  0  0  0  0  0  0  0  0  0  0
  185.2750  177.6270  137.9780 C   0  0  1  0  0  3  0  0  0  0  0  0
  185.1220  176.5250  135.8860 O   0  0  0  0  0  0  0  0  0  0  0  0
  189.8300  175.9270  137.9890 C   0  0  0  0  0  2  0  0  0  0  0  0
  190.6570  176.8890  138.7820 C   0  0  0  0  0  0  0  0  0  0  0  0
  190.0830  177.8420  139.5260 C   0  0  0  0  0  3  0  0  0  0  0  0
  188.1170  177.5480  137.2130 C   0  0  0  0  0  0  0  0  0  0  0  0
  188.6380  178.1510  139.5680 C   0  0  0  0  0  3  0  0  0  0  0  0
  187.7340  177.9550  138.5910 C   0  0  0  0  0  0  0  0  0  0  0  0
  192.1220  176.7200  138.8140 C   0  0  0  0  0  0  0  0  0  0  0  0
  192.7960  176.0930  137.7280 N   0  0  0  0  0  1  0  0  0  0  0  0
  192.7930  177.1310  139.7990 O   0  0  0  0  0  0  0  0  0  0  0  0
  183.7170  178.4660  141.6270 C   0  0  0  0  0  2  0  0  0  0  0  0
  184.7240  178.8060  145.2400 N   0  0  0  0  0  0  0  0  0  0  0  0
  185.8000  177.8510  142.8710 C   0  0  0  0  0  3  0  0  0  0  0  0
  188.0140  177.7000  146.4380 C   0  0  0  0  0  0  0  0  0  0  0  0
  186.7170  178.2370  146.4320 C   0  0  0  0  0  3  0  0  0  0  0  0
  185.9810  178.2860  145.2450 C   0  0  0  0  0  0  0  0  0  0  0  0
  187.8330  177.2570  144.0520 C   0  0  0  0  0  3  0  0  0  0  0  0
  186.5440  177.7930  144.0500 C   0  0  0  0  0  0  0  0  0  0  0  0
  188.5640  177.2110  145.2430 C   0  0  0  0  0  3  0  0  0  0  0  0
  184.5160  178.4000  142.8890 C   0  0  0  0  0  0  0  0  0  0  0  0
  183.9880  178.8700  144.0990 C   0  0  0  0  0  3  0  0  0  0  0  0
  188.7910  177.6480  147.6900 C   0  0  0  0  0  0  0  0  0  0  0  0
  188.1980  178.0450  148.9230 N   0  0  0  0  0  1  0  0  0  0  0  0
  189.9870  177.2510  147.6800 O   0  0  0  0  0  0  0  0  0  0  0  0
  1  5  1  1  0  0  0
  2 15  2  0  0  0  0
  2 12  1  0  0  0  0
  3  9  1  0  0  0  0
  3 15  1  0  0  0  0
  4 21  1  1  0  0  0
  5  4  1  0  0  0  0
  6  7  1  1  0  0  0
  6  8  1  0  0  0  0
  8  4  1  0  0  0  0
 10  9  1  6  0  0  0
 10  6  1  0  0  0  0
 10  1  1  0  0  0  0
 11  9  2  0  0  0  0
 12 13  1  0  0  0  0
 13 18  1  0  0  0  0
 13 14  2  0  0  0  0
 14 16  1  0  0  0  0
 15 17  1  0  0  0  0
 17  1  1  0  0  0  0
 17 16  2  0  0  0  0
 18 20  2  0  0  0  0
 19 18  1  0  0  0  0
 21 30  1  0  0  0  0
 22 26  1  0  0  0  0
 23 30  2  0  0  0  0
 23 28  1  0  0  0  0
 24 32  1  0  0  0  0
 25 24  1  0  0  0  0
 26 25  2  0  0  0  0
 27 29  1  0  0  0  0
 28 27  2  0  0  0  0
 28 26  1  0  0  0  0
 29 24  2  0  0  0  0
 30 31  1  0  0  0  0
 31 22  2  0  0  0  0
 32 33  1  0  0  0  0
 34 32  2  0  0  0  0
M  END
>  <MODEL>
3

>  <REMARK>
 VINA RESULT:      -9.9      3.153      7.178
  Name = 
  4 active torsions:
  status: ('A' for Active; 'I' for Inactive)
    1  A    between atoms: C_3  and  C_25
    2  A    between atoms: C_7  and  C_11
    3  A    between atoms: C_8  and  C_18
    4  A    between atoms: C_18  and  C_30
                            x       y       z     vdW  Elec       q    Type
                         _______ _______ _______ _____ _____    ______ ____

>  <TORSDO>
F 4

$$$$
=
 OpenBabel11052415513D

 34 38  0  0  1  0  0  0  0  0999 V2000
  182.9330  179.0050  141.1780 C   0  0  2  0  0  3  0  0  0  0  0  0
  182.9340  177.4870  137.7260 C   0  0  0  0  0  3  0  0  0  0  0  0
  181.1290  179.2150  138.7340 S   0  0  0  0  0  0  0  0  0  0  0  0
  183.1900  179.3700  143.6680 C   0  0  1  0  0  3  0  0  0  0  0  0
  183.7920  178.7360  142.4090 C   0  0  0  0  0  2  0  0  0  0  0  0
  180.8280  178.9480  142.6280 C   0  0  1  0  0  3  0  0  0  0  0  0
  180.0600  177.8780  143.3780 C   0  0  0  0  0  1  0  0  0  0  0  0
  181.7020  179.7690  143.5930 C   0  0  0  0  0  2  0  0  0  0  0  0
  180.6760  178.2990  140.2080 C   0  0  0  0  0  0  0  0  0  0  0  0
  181.5650  178.3360  141.4280 C   0  0  1  0  0  3  0  0  0  0  0  0
  179.7000  177.5670  140.1850 O   0  0  0  0  0  0  0  0  0  0  0  0
  184.1490  176.6240  137.6820 C   0  0  0  0  0  2  0  0  0  0  0  0
  185.3950  177.4480  137.5930 C   0  0  0  0  0  0  0  0  0  0  0  0
  185.7430  178.2800  138.5820 C   0  0  0  0  0  3  0  0  0  0  0  0
  182.6970  178.3560  138.7100 C   0  0  0  0  0  0  0  0  0  0  0  0
  184.9300  178.5890  139.7780 C   0  0  0  0  0  3  0  0  0  0  0  0
  183.5900  178.5500  139.8830 C   0  0  0  0  0  0  0  0  0  0  0  0
  186.2950  177.2670  136.4390 C   0  0  0  0  0  0  0  0  0  0  0  0
  187.6850  177.0330  136.6440 N   0  0  0  0  0  1  0  0  0  0  0  0
  185.8460  177.3130  135.2620 O   0  0  0  0  0  0  0  0  0  0  0  0
  183.5670  178.6170  144.9440 C   0  0  0  0  0  2  0  0  0  0  0  0
  187.0260  177.5360  143.9190 N   0  0  0  0  0  0  0  0  0  0  0  0
  185.6770  178.2400  146.2360 C   0  0  0  0  0  3  0  0  0  0  0  0
  189.7310  177.1450  146.3710 C   0  0  0  0  0  0  0  0  0  0  0  0
  189.0410  177.1570  145.1490 C   0  0  0  0  0  3  0  0  0  0  0  0
  187.6930  177.5230  145.1050 C   0  0  0  0  0  0  0  0  0  0  0  0
  187.7060  177.8700  147.5110 C   0  0  0  0  0  3  0  0  0  0  0  0
  187.0240  177.8810  146.2930 C   0  0  0  0  0  0  0  0  0  0  0  0
  189.0550  177.5040  147.5490 C   0  0  0  0  0  3  0  0  0  0  0  0
  185.0110  178.2360  145.0080 C   0  0  0  0  0  0  0  0  0  0  0  0
  185.7130  177.8830  143.8480 C   0  0  0  0  0  3  0  0  0  0  0  0
  191.1520  176.7590  146.4180 C   0  0  0  0  0  0  0  0  0  0  0  0
  191.8570  176.7530  147.6570 N   0  0  0  0  0  1  0  0  0  0  0  0
  191.7580  176.4310  145.3630 O   0  0  0  0  0  0  0  0  0  0  0  0
  1 10  1  0  0  0  0
  1  5  1  1  0  0  0
  2 15  2  0  0  0  0
  3  9  1  0  0  0  0
  4 21  1  1  0  0  0
  5  4  1  0  0  0  0
  6  7  1  1  0  0  0
  6  8  1  0  0  0  0
  8  4  1  0  0  0  0
 10  9  1  6  0  0  0
 10  6  1  0  0  0  0
 11  9  2  0  0  0  0
 12  2  1  0  0  0  0
 13 12  1  0  0  0  0
 13 14  2  0  0  0  0
 14 16  1  0  0  0  0
 15  3  1  0  0  0  0
 15 17  1  0  0  0  0
 16 17  2  0  0  0  0
 17  1  1  0  0  0  0
 18 19  1  0  0  0  0
 18 13  1  0  0  0  0
 20 18  2  0  0  0  0
 21 30  1  0  0  0  0
 22 26  1  0  0  0  0
 23 28  1  0  0  0  0
 24 32  1  0  0  0  0
 24 29  1  0  0  0  0
 25 24  2  0  0  0  0
 26 25  1  0  0  0  0
 26 28  2  0  0  0  0
 27 29  2  0  0  0  0
 28 27  1  0  0  0  0
 30 23  2  0  0  0  0
 31 22  2  0  0  0  0
 31 30  1  0  0  0  0
 32 33  1  0  0  0  0
 34 32  2  0  0  0  0
M  END
>  <MODEL>
4

>  <REMARK>
 VINA RESULT:      -9.4      3.861      8.442
  Name = 
  4 active torsions:
  status: ('A' for Active; 'I' for Inactive)
    1  A    between atoms: C_3  and  C_25
    2  A    between atoms: C_7  and  C_11
    3  A    between atoms: C_8  and  C_18
    4  A    between atoms: C_18  and  C_30
                            x       y       z     vdW  Elec       q    Type
                         _______ _______ _______ _____ _____    ______ ____

>  <TORSDO>
F 4

$$$$
=
 OpenBabel11052415513D

 34 38  0  0  1  0  0  0  0  0999 V2000
  181.9010  179.5240  138.5480 C   0  0  2  0  0  3  0  0  0  0  0  0
  180.0870  180.9030  135.5430 C   0  0  0  0  0  3  0  0  0  0  0  0
  179.5620  178.5960  136.8320 S   0  0  0  0  0  0  0  0  0  0  0  0
  183.6840  178.8970  140.2290 C   0  0  1  0  0  3  0  0  0  0  0  0
  183.1670  179.9740  139.2680 C   0  0  0  0  0  2  0  0  0  0  0  0
  182.7380  177.1090  138.5720 C   0  0  1  0  0  3  0  0  0  0  0  0
  183.8430  176.3400  137.8750 C   0  0  0  0  0  1  0  0  0  0  0  0
  183.1490  177.4670  140.0120 C   0  0  0  0  0  2  0  0  0  0  0  0
  181.1960  177.8600  136.7400 C   0  0  0  0  0  0  0  0  0  0  0  0
  182.2770  178.2880  137.7040 C   0  0  1  0  0  3  0  0  0  0  0  0
  181.4570  177.0880  135.8320 O   0  0  0  0  0  0  0  0  0  0  0  0
  180.7620  182.1980  135.2440 C   0  0  0  0  0  2  0  0  0  0  0  0
  180.4000  183.2410  136.2530 C   0  0  0  0  0  0  0  0  0  0  0  0
  180.7390  183.1010  137.5400 C   0  0  0  0  0  3  0  0  0  0  0  0
  180.3070  180.2130  136.6630 C   0  0  0  0  0  0  0  0  0  0  0  0
  181.3660  181.9060  138.1430 C   0  0  0  0  0  3  0  0  0  0  0  0
  181.2580  180.6310  137.7260 C   0  0  0  0  0  0  0  0  0  0  0  0
  179.7440  184.4820  135.8010 C   0  0  0  0  0  0  0  0  0  0  0  0
  179.4910  185.5370  136.7240 N   0  0  0  0  0  1  0  0  0  0  0  0
  179.4050  184.6260  134.5950 O   0  0  0  0  0  0  0  0  0  0  0  0
  185.1980  178.9690  140.4340 C   0  0  0  0  0  2  0  0  0  0  0  0
  185.1420  178.6550  144.1860 N   0  0  0  0  0  0  0  0  0  0  0  0
  186.9100  178.2190  142.0970 C   0  0  0  0  0  3  0  0  0  0  0  0
  188.0690  177.4840  146.0680 C   0  0  0  0  0  0  0  0  0  0  0  0
  186.7780  177.9560  145.7830 C   0  0  0  0  0  3  0  0  0  0  0  0
  186.3930  178.1990  144.4620 C   0  0  0  0  0  0  0  0  0  0  0  0
  188.5900  177.4990  143.6910 C   0  0  0  0  0  3  0  0  0  0  0  0
  187.3060  177.9690  143.4110 C   0  0  0  0  0  0  0  0  0  0  0  0
  188.9700  177.2570  145.0150 C   0  0  0  0  0  3  0  0  0  0  0  0
  185.6230  178.6970  141.8410 C   0  0  0  0  0  0  0  0  0  0  0  0
  184.7430  178.9040  142.9100 C   0  0  0  0  0  3  0  0  0  0  0  0
  188.4760  177.2270  147.4610 C   0  0  0  0  0  0  0  0  0  0  0  0
  187.8630  177.9380  148.5340 N   0  0  0  0  0  1  0  0  0  0  0  0
  189.3700  176.3760  147.7170 O   0  0  0  0  0  0  0  0  0  0  0  0
  1  5  1  6  0  0  0
  2 15  2  0  0  0  0
  4 21  1  6  0  0  0
  5  4  1  0  0  0  0
  6  7  1  6  0  0  0
  6  8  1  0  0  0  0
  8  4  1  0  0  0  0
  9  3  1  0  0  0  0
 10  9  1  1  0  0  0
 10  1  1  0  0  0  0
 10  6  1  0  0  0  0
 11  9  2  0  0  0  0
 12  2  1  0  0  0  0
 12 13  1  0  0  0  0
 13 14  2  0  0  0  0
 14 16  1  0  0  0  0
 15  3  1  0  0  0  0
 15 17  1  0  0  0  0
 17 16  2  0  0  0  0
 17  1  1  0  0  0  0
 18 13  1  0  0  0  0
 18 19  1  0  0  0  0
 20 18  2  0  0  0  0
 21 30  1  0  0  0  0
 22 26  1  0  0  0  0
 23 28  1  0  0  0  0
 24 32  1  0  0  0  0
 25 24  1  0  0  0  0
 26 25  2  0  0  0  0
 27 29  1  0  0  0  0
 28 27  2  0  0  0  0
 28 26  1  0  0  0  0
 29 24  2  0  0  0  0
 30 23  2  0  0  0  0
 30 31  1  0  0  0  0
 31 22  2  0  0  0  0
 32 34  2  0  0  0  0
 32 33  1  0  0  0  0
M  END
>  <MODEL>
5

>  <REMARK>
 VINA RESULT:      -9.3      4.379     10.463
  Name = 
  4 active torsions:
  status: ('A' for Active; 'I' for Inactive)
    1  A    between atoms: C_3  and  C_25
    2  A    between atoms: C_7  and  C_11
    3  A    between atoms: C_8  and  C_18
    4  A    between atoms: C_18  and  C_30
                            x       y       z     vdW  Elec       q    Type
                         _______ _______ _______ _____ _____    ______ ____

>  <TORSDO>
F 4

$$$$
=
 OpenBabel11052415513D

 34 38  0  0  1  0  0  0  0  0999 V2000
  189.2310  176.8800  141.0440 C   0  0  2  0  0  3  0  0  0  0  0  0
  189.8360  177.8620  137.4540 C   0  0  0  0  0  3  0  0  0  0  0  0
  191.3050  176.1580  138.9350 S   0  0  0  0  0  0  0  0  0  0  0  0
  188.6160  176.9120  143.4980 C   0  0  1  0  0  3  0  0  0  0  0  0
  188.2520  177.3990  142.0910 C   0  0  0  0  0  2  0  0  0  0  0  0
  191.1240  176.9750  142.7590 C   0  0  1  0  0  3  0  0  0  0  0  0
  191.8950  178.0760  143.4600 C   0  0  0  0  0  1  0  0  0  0  0  0
  190.0520  176.3820  143.6920 C   0  0  0  0  0  2  0  0  0  0  0  0
  191.6560  177.2420  140.3210 C   0  0  0  0  0  0  0  0  0  0  0  0
  190.6170  177.4620  141.3950 C   0  0  1  0  0  3  0  0  0  0  0  0
  192.6970  177.8780  140.3390 O   0  0  0  0  0  0  0  0  0  0  0  0
  188.7330  178.8080  137.1190 C   0  0  0  0  0  2  0  0  0  0  0  0
  187.4310  178.0870  136.9650 C   0  0  0  0  0  0  0  0  0  0  0  0
  186.8730  177.4440  137.9980 C   0  0  0  0  0  3  0  0  0  0  0  0
  189.8520  177.1320  138.5700 C   0  0  0  0  0  0  0  0  0  0  0  0
  187.4870  177.2490  139.3280 C   0  0  0  0  0  3  0  0  0  0  0  0
  188.7990  177.1910  139.6190 C   0  0  0  0  0  0  0  0  0  0  0  0
  186.7120  178.1690  135.6800 C   0  0  0  0  0  0  0  0  0  0  0  0
  185.4650  177.5030  135.5120 N   0  0  0  0  0  1  0  0  0  0  0  0
  187.1890  178.8320  134.7200 O   0  0  0  0  0  0  0  0  0  0  0  0
  188.1570  177.8750  144.5920 C   0  0  0  0  0  2  0  0  0  0  0  0
  184.6540  178.7510  145.6640 N   0  0  0  0  0  0  0  0  0  0  0  0
  186.0200  178.1670  143.3230 C   0  0  0  0  0  3  0  0  0  0  0  0
  181.9030  179.0030  143.2460 C   0  0  0  0  0  0  0  0  0  0  0  0
  182.6050  179.0150  144.4610 C   0  0  0  0  0  3  0  0  0  0  0  0
  183.9750  178.7380  144.4860 C   0  0  0  0  0  0  0  0  0  0  0  0
  183.9580  178.4330  142.0740 C   0  0  0  0  0  3  0  0  0  0  0  0
  184.6530  178.4450  143.2850 C   0  0  0  0  0  0  0  0  0  0  0  0
  182.5880  178.7110  142.0560 C   0  0  0  0  0  3  0  0  0  0  0  0
  186.6930  178.1760  144.5470 C   0  0  0  0  0  0  0  0  0  0  0  0
  185.9860  178.4810  145.7170 C   0  0  0  0  0  3  0  0  0  0  0  0
  180.4580  179.2950  143.2190 C   0  0  0  0  0  0  0  0  0  0  0  0
  179.5200  178.3360  143.6980 N   0  0  0  0  0  1  0  0  0  0  0  0
  180.0400  180.3970  142.7730 O   0  0  0  0  0  0  0  0  0  0  0  0
  1 10  1  0  0  0  0
  1  5  1  1  0  0  0
  2 15  2  0  0  0  0
  3  9  1  0  0  0  0
  4  8  1  0  0  0  0
  4 21  1  1  0  0  0
  5  4  1  0  0  0  0
  6  7  1  1  0  0  0
  6  8  1  0  0  0  0
  9 11  2  0  0  0  0
 10  9  1  6  0  0  0
 10  6  1  0  0  0  0
 12  2  1  0  0  0  0
 13 12  1  0  0  0  0
 13 14  2  0  0  0  0
 14 16  1  0  0  0  0
 15  3  1  0  0  0  0
 15 17  1  0  0  0  0
 16 17  2  0  0  0  0
 17  1  1  0  0  0  0
 18 13  1  0  0  0  0
 19 18  1  0  0  0  0
 20 18  2  0  0  0  0
 22 31  1  0  0  0  0
 23 30  1  0  0  0  0
 24 25  2  0  0  0  0
 25 26  1  0  0  0  0
 26 22  2  0  0  0  0
 27 28  1  0  0  0  0
 28 23  2  0  0  0  0
 28 26  1  0  0  0  0
 29 27  2  0  0  0  0
 29 24  1  0  0  0  0
 30 21  1  0  0  0  0
 30 31  2  0  0  0  0
 32 24  1  0  0  0  0
 32 33  1  0  0  0  0
 34 32  2  0  0  0  0
M  END
>  <MODEL>
6

>  <REMARK>
 VINA RESULT:      -9.1      2.930      4.172
  Name = 
  4 active torsions:
  status: ('A' for Active; 'I' for Inactive)
    1  A    between atoms: C_3  and  C_25
    2  A    between atoms: C_7  and  C_11
    3  A    between atoms: C_8  and  C_18
    4  A    between atoms: C_18  and  C_30
                            x       y       z     vdW  Elec       q    Type
                         _______ _______ _______ _____ _____    ______ ____

>  <TORSDO>
F 4

$$$$
=
 OpenBabel11052415513D

 34 38  0  0  1  0  0  0  0  0999 V2000
  188.6180  177.8400  139.2560 C   0  0  2  0  0  3  0  0  0  0  0  0
  190.0700  176.4110  142.4290 C   0  0  0  0  0  3  0  0  0  0  0  0
  191.4330  177.4370  140.3440 S   0  0  0  0  0  0  0  0  0  0  0  0
  187.1620  178.2690  137.2320 C   0  0  1  0  0  3  0  0  0  0  0  0
  187.1940  177.8730  138.7120 C   0  0  0  0  0  2  0  0  0  0  0  0
  189.4780  177.0840  136.9710 C   0  0  1  0  0  3  0  0  0  0  0  0
  189.3790  175.8190  136.1410 C   0  0  0  0  0  1  0  0  0  0  0  0
  188.4920  178.1490  136.4590 C   0  0  0  0  0  2  0  0  0  0  0  0
  190.7340  176.4220  139.0410 C   0  0  0  0  0  0  0  0  0  0  0  0
  189.3770  176.7530  138.4660 C   0  0  1  0  0  3  0  0  0  0  0  0
  191.3130  175.4060  138.6930 O   0  0  0  0  0  0  0  0  0  0  0  0
  188.8920  176.0030  143.2460 C   0  0  0  0  0  2  0  0  0  0  0  0
  188.1850  177.1950  143.8090 C   0  0  0  0  0  0  0  0  0  0  0  0
  187.6040  178.0950  143.0070 C   0  0  0  0  0  3  0  0  0  0  0  0
  189.9660  177.1500  141.3240 C   0  0  0  0  0  0  0  0  0  0  0  0
  187.6830  178.1140  141.5310 C   0  0  0  0  0  3  0  0  0  0  0  0
  188.6760  177.6310  140.7620 C   0  0  0  0  0  0  0  0  0  0  0  0
  188.0500  177.3250  145.2720 C   0  0  0  0  0  0  0  0  0  0  0  0
  186.7960  177.6740  145.8480 N   0  0  0  0  0  1  0  0  0  0  0  0
  189.0390  177.1250  146.0280 O   0  0  0  0  0  0  0  0  0  0  0  0
  185.9590  177.6850  136.4910 C   0  0  0  0  0  2  0  0  0  0  0  0
  183.2240  175.8510  138.3180 N   0  0  0  0  0  0  0  0  0  0  0  0
  184.1990  178.4370  138.1030 C   0  0  0  0  0  3  0  0  0  0  0  0
  180.9090  177.5920  140.5760 C   0  0  0  0  0  0  0  0  0  0  0  0
  181.5280  176.5660  139.8450 C   0  0  0  0  0  3  0  0  0  0  0  0
  182.6240  176.8470  139.0250 C   0  0  0  0  0  0  0  0  0  0  0  0
  182.4940  179.1920  139.6540 C   0  0  0  0  0  3  0  0  0  0  0  0
  183.1080  178.1680  138.9290 C   0  0  0  0  0  0  0  0  0  0  0  0
  181.3990  178.9040  140.4740 C   0  0  0  0  0  3  0  0  0  0  0  0
  184.7920  177.3990  137.3800 C   0  0  0  0  0  0  0  0  0  0  0  0
  184.2880  176.0990  137.5080 C   0  0  0  0  0  3  0  0  0  0  0  0
  179.7540  177.2950  141.4420 C   0  0  0  0  0  0  0  0  0  0  0  0
  179.3060  178.2510  142.3980 N   0  0  0  0  0  1  0  0  0  0  0  0
  179.1520  176.1930  141.3430 O   0  0  0  0  0  0  0  0  0  0  0  0
  1  5  1  6  0  0  0
  1 17  1  0  0  0  0
  2 12  1  0  0  0  0
  3 15  1  0  0  0  0
  4 21  1  6  0  0  0
  4  5  1  0  0  0  0
  6  7  1  6  0  0  0
  6 10  1  0  0  0  0
  8  6  1  0  0  0  0
  8  4  1  0  0  0  0
  9  3  1  0  0  0  0
 10  9  1  1  0  0  0
 10  1  1  0  0  0  0
 11  9  2  0  0  0  0
 12 13  1  0  0  0  0
 13 18  1  0  0  0  0
 14 13  2  0  0  0  0
 15  2  2  0  0  0  0
 16 14  1  0  0  0  0
 17 15  1  0  0  0  0
 17 16  2  0  0  0  0
 18 19  1  0  0  0  0
 18 20  2  0  0  0  0
 21 30  1  0  0  0  0
 22 26  1  0  0  0  0
 23 28  1  0  0  0  0
 24 32  1  0  0  0  0
 25 24  2  0  0  0  0
 26 25  1  0  0  0  0
 27 29  2  0  0  0  0
 28 26  2  0  0  0  0
 28 27  1  0  0  0  0
 29 24  1  0  0  0  0
 30 31  1  0  0  0  0
 30 23  2  0  0  0  0
 31 22  2  0  0  0  0
 32 33  1  0  0  0  0
 34 32  2  0  0  0  0
M  END
>  <MODEL>
7

>  <REMARK>
 VINA RESULT:      -9.1      2.887      6.153
  Name = 
  4 active torsions:
  status: ('A' for Active; 'I' for Inactive)
    1  A    between atoms: C_3  and  C_25
    2  A    between atoms: C_7  and  C_11
    3  A    between atoms: C_8  and  C_18
    4  A    between atoms: C_18  and  C_30
                            x       y       z     vdW  Elec       q    Type
                         _______ _______ _______ _____ _____    ______ ____

>  <TORSDO>
F 4

$$$$
=
 OpenBabel11052415513D

 34 38  0  0  1  0  0  0  0  0999 V2000
  187.9930  178.3840  140.5010 C   0  0  2  0  0  3  0  0  0  0  0  0
  187.8610  177.5280  144.1700 C   0  0  0  0  0  3  0  0  0  0  0  0
  190.0260  178.2990  142.7650 S   0  0  0  0  0  0  0  0  0  0  0  0
  187.5930  178.4260  138.0030 C   0  0  1  0  0  3  0  0  0  0  0  0
  186.9580  178.2600  139.3870 C   0  0  0  0  0  2  0  0  0  0  0  0
  189.7610  177.3390  138.9790 C   0  0  1  0  0  3  0  0  0  0  0  0
  190.0140  175.9600  138.4030 C   0  0  0  0  0  1  0  0  0  0  0  0
  189.1250  178.2620  137.9250 C   0  0  0  0  0  2  0  0  0  0  0  0
  189.9560  177.0630  141.4670 C   0  0  0  0  0  0  0  0  0  0  0  0
  189.0010  177.2320  140.3090 C   0  0  1  0  0  3  0  0  0  0  0  0
  190.6100  176.0390  141.5750 O   0  0  0  0  0  0  0  0  0  0  0  0
  186.4340  177.1860  144.4380 C   0  0  0  0  0  2  0  0  0  0  0  0
  185.5750  178.4110  144.4360 C   0  0  0  0  0  0  0  0  0  0  0  0
  185.4280  179.1480  143.3290 C   0  0  0  0  0  3  0  0  0  0  0  0
  188.2710  178.0860  143.0310 C   0  0  0  0  0  0  0  0  0  0  0  0
  186.1530  178.9490  142.0560 C   0  0  0  0  0  3  0  0  0  0  0  0
  187.3730  178.4070  141.8900 C   0  0  0  0  0  0  0  0  0  0  0  0
  184.8090  178.7530  145.6480 C   0  0  0  0  0  0  0  0  0  0  0  0
  185.4400  178.7370  146.9250 N   0  0  0  0  0  1  0  0  0  0  0  0
  183.5890  179.0650  145.5700 O   0  0  0  0  0  0  0  0  0  0  0  0
  186.8310  177.6750  136.9110 C   0  0  0  0  0  2  0  0  0  0  0  0
  184.0850  175.1870  137.5850 N   0  0  0  0  0  0  0  0  0  0  0  0
  184.6260  177.8610  138.0790 C   0  0  0  0  0  3  0  0  0  0  0  0
  181.0230  176.1330  139.3760 C   0  0  0  0  0  0  0  0  0  0  0  0
  181.9690  175.3620  138.6840 C   0  0  0  0  0  3  0  0  0  0  0  0
  183.1680  175.9370  138.2550 C   0  0  0  0  0  0  0  0  0  0  0  0
  182.4890  178.0690  139.2050 C   0  0  0  0  0  3  0  0  0  0  0  0
  183.4270  177.2980  138.5170 C   0  0  0  0  0  0  0  0  0  0  0  0
  181.2910  177.4870  139.6330 C   0  0  0  0  0  3  0  0  0  0  0  0
  185.5470  177.0730  137.3840 C   0  0  0  0  0  0  0  0  0  0  0  0
  185.2580  175.7230  137.1510 C   0  0  0  0  0  3  0  0  0  0  0  0
  179.7580  175.5270  139.8300 C   0  0  0  0  0  0  0  0  0  0  0  0
  179.1200  175.9930  141.0160 N   0  0  0  0  0  1  0  0  0  0  0  0
  179.2300  174.5910  139.1720 O   0  0  0  0  0  0  0  0  0  0  0  0
  1  5  1  6  0  0  0
  1 17  1  0  0  0  0
  2 12  1  0  0  0  0
  3 15  1  0  0  0  0
  4 21  1  6  0  0  0
  4  5  1  0  0  0  0
  6  7  1  6  0  0  0
  6 10  1  0  0  0  0
  8  4  1  0  0  0  0
  8  6  1  0  0  0  0
  9 11  2  0  0  0  0
  9  3  1  0  0  0  0
 10  1  1  0  0  0  0
 10  9  1  1  0  0  0
 13 12  1  0  0  0  0
 13 18  1  0  0  0  0
 14 13  2  0  0  0  0
 15  2  2  0  0  0  0
 16 14  1  0  0  0  0
 17 16  2  0  0  0  0
 17 15  1  0  0  0  0
 18 19  1  0  0  0  0
 20 18  2  0  0  0  0
 21 30  1  0  0  0  0
 22 26  1  0  0  0  0
 23 28  1  0  0  0  0
 24 29  1  0  0  0  0
 24 32  1  0  0  0  0
 25 24  2  0  0  0  0
 26 28  2  0  0  0  0
 26 25  1  0  0  0  0
 27 29  2  0  0  0  0
 28 27  1  0  0  0  0
 30 23  2  0  0  0  0
 31 30  1  0  0  0  0
 31 22  2  0  0  0  0
 32 33  1  0  0  0  0
 34 32  2  0  0  0  0
M  END
>  <MODEL>
8

>  <REMARK>
 VINA RESULT:      -8.9      3.230      6.348
  Name = 
  4 active torsions:
  status: ('A' for Active; 'I' for Inactive)
    1  A    between atoms: C_3  and  C_25
    2  A    between atoms: C_7  and  C_11
    3  A    between atoms: C_8  and  C_18
    4  A    between atoms: C_18  and  C_30
                            x       y       z     vdW  Elec       q    Type
                         _______ _______ _______ _____ _____    ______ ____

>  <TORSDO>
F 4

$$$$
=
 OpenBabel11052415513D

 34 38  0  0  1  0  0  0  0  0999 V2000
  183.1450  177.2750  138.2100 C   0  0  2  0  0  3  0  0  0  0  0  0
  181.9540  174.9950  135.4540 C   0  0  0  0  0  3  0  0  0  0  0  0
  182.9710  177.4740  135.1770 S   0  0  0  0  0  0  0  0  0  0  0  0
  183.3900  178.5000  140.4100 C   0  0  1  0  0  3  0  0  0  0  0  0
  183.0630  177.1670  139.7290 C   0  0  0  0  0  2  0  0  0  0  0  0
  182.3450  179.7000  138.3350 C   0  0  1  0  0  3  0  0  0  0  0  0
  181.0400  180.3930  138.6770 C   0  0  0  0  0  1  0  0  0  0  0  0
  183.3210  179.7610  139.5230 C   0  0  0  0  0  2  0  0  0  0  0  0
  181.8560  178.3450  136.2790 C   0  0  0  0  0  0  0  0  0  0  0  0
  182.0740  178.2970  137.7730 C   0  0  1  0  0  3  0  0  0  0  0  0
  180.8660  178.8920  135.8230 O   0  0  0  0  0  0  0  0  0  0  0  0
  181.5070  173.7510  136.1450 C   0  0  0  0  0  2  0  0  0  0  0  0
  182.6760  172.9580  136.6370 C   0  0  0  0  0  0  0  0  0  0  0  0
  183.5000  173.4510  137.5690 C   0  0  0  0  0  3  0  0  0  0  0  0
  182.6350  175.9620  136.0690 C   0  0  0  0  0  0  0  0  0  0  0  0
  183.4590  174.8220  138.1200 C   0  0  0  0  0  3  0  0  0  0  0  0
  183.0060  175.9320  137.5090 C   0  0  0  0  0  0  0  0  0  0  0  0
  182.8610  171.5770  136.1550 C   0  0  0  0  0  0  0  0  0  0  0  0
  182.2950  171.1680  134.9140 N   0  0  0  0  0  1  0  0  0  0  0  0
  183.5250  170.7450  136.8310 O   0  0  0  0  0  0  0  0  0  0  0  0
  182.6980  178.6550  141.7640 C   0  0  0  0  0  2  0  0  0  0  0  0
  184.1050  178.9450  145.2450 N   0  0  0  0  0  0  0  0  0  0  0  0
  184.9140  178.0440  142.7520 C   0  0  0  0  0  3  0  0  0  0  0  0
  187.5200  177.8580  146.0430 C   0  0  0  0  0  0  0  0  0  0  0  0
  186.2260  178.3810  146.1930 C   0  0  0  0  0  3  0  0  0  0  0  0
  185.3590  178.4400  145.0980 C   0  0  0  0  0  0  0  0  0  0  0  0
  187.0740  177.4550  143.6840 C   0  0  0  0  0  3  0  0  0  0  0  0
  185.7870  177.9750  143.8380 C   0  0  0  0  0  0  0  0  0  0  0  0
  187.9360  177.3970  144.7840 C   0  0  0  0  0  3  0  0  0  0  0  0
  183.6350  178.5770  142.9260 C   0  0  0  0  0  0  0  0  0  0  0  0
  183.2430  179.0200  144.1960 C   0  0  0  0  0  3  0  0  0  0  0  0
  188.4340  177.7950  147.1970 C   0  0  0  0  0  0  0  0  0  0  0  0
  188.0060  178.2390  148.4810 N   0  0  0  0  0  1  0  0  0  0  0  0
  189.6040  177.3460  147.0580 O   0  0  0  0  0  0  0  0  0  0  0  0
  1  5  1  1  0  0  0
  2 15  2  0  0  0  0
  2 12  1  0  0  0  0
  3 15  1  0  0  0  0
  3  9  1  0  0  0  0
  4 21  1  1  0  0  0
  5  4  1  0  0  0  0
  6  7  1  1  0  0  0
  6  8  1  0  0  0  0
  8  4  1  0  0  0  0
 10  9  1  6  0  0  0
 10  1  1  0  0  0  0
 10  6  1  0  0  0  0
 11  9  2  0  0  0  0
 12 13  1  0  0  0  0
 13 14  2  0  0  0  0
 14 16  1  0  0  0  0
 15 17  1  0  0  0  0
 17 16  2  0  0  0  0
 17  1  1  0  0  0  0
 18 13  1  0  0  0  0
 18 20  2  0  0  0  0
 19 18  1  0  0  0  0
 21 30  1  0  0  0  0
 23 30  2  0  0  0  0
 23 28  1  0  0  0  0
 24 25  1  0  0  0  0
 24 32  1  0  0  0  0
 26 22  1  0  0  0  0
 26 25  2  0  0  0  0
 27 28  2  0  0  0  0
 27 29  1  0  0  0  0
 28 26  1  0  0  0  0
 29 24  2  0  0  0  0
 30 31  1  0  0  0  0
 31 22  2  0  0  0  0
 32 33  1  0  0  0  0
 34 32  2  0  0  0  0
M  END
>  <MODEL>
9

>  <REMARK>
 VINA RESULT:      -8.9      4.590      9.317
  Name = 
  4 active torsions:
  status: ('A' for Active; 'I' for Inactive)
    1  A    between atoms: C_3  and  C_25
    2  A    between atoms: C_7  and  C_11
    3  A    between atoms: C_8  and  C_18
    4  A    between atoms: C_18  and  C_30
                            x       y       z     vdW  Elec       q    Type
                         _______ _______ _______ _____ _____    ______ ____

>  <TORSDO>
F 4

$$$$
