=
 OpenBabel11052413593D

 34 38  0  0  1  0  0  0  0  0999 V2000
  189.1110  176.7720  136.3980 C   0  0  2  0  0  3  0  0  0  0  0  0
  190.3140  175.8790  138.3730 N   0  0  2  0  0  0  0  0  0  0  0  0
  189.8140  178.2510  138.3680 C   0  0  0  0  0  2  0  0  0  0  0  0
  190.5400  176.4170  139.7060 C   0  0  0  0  0  2  0  0  0  0  0  0
  189.3470  175.4760  135.6000 C   0  0  0  0  0  2  0  0  0  0  0  0
  191.7450  176.0690  134.9720 C   0  0  0  0  0  1  0  0  0  0  0  0
  191.5450  175.2250  137.9540 C   0  0  0  0  0  2  0  0  0  0  0  0
  191.2760  174.2880  136.7710 C   0  0  1  0  0  3  0  0  0  0  0  0
  189.8070  177.7390  139.7870 C   0  0  2  0  0  3  0  0  0  0  0  0
  190.1430  177.0400  137.5100 C   0  0  2  0  0  3  0  0  0  0  0  0
  190.7980  174.9920  135.4900 C   0  0  1  0  0  3  0  0  0  0  0  0
  187.0470  175.7710  137.2010 N   0  0  0  0  0  0  0  0  0  0  0  0
  186.8900  178.0470  136.9420 C   0  0  0  0  0  0  0  0  0  0  0  0
  185.6530  175.9600  137.5950 C   0  0  1  0  0  3  0  0  0  0  0  0
  185.2260  177.7420  137.4740 S   0  0  0  0  0  0  0  0  0  0  0  0
  187.6890  176.8410  136.8790 C   0  0  0  0  0  0  0  0  0  0  0  0
  184.7520  175.1600  136.6750 C   0  0  0  0  0  1  0  0  0  0  0  0
  187.3160  179.1930  136.6460 O   0  0  0  0  0  0  0  0  0  0  0  0
  194.6580  172.7250  137.0440 C   0  0  0  0  0  0  0  0  0  0  0  0
  194.6060  171.6900  136.1080 C   0  0  0  0  0  3  0  0  0  0  0  0
  192.4330  173.3720  136.5120 C   0  0  0  0  0  0  0  0  0  0  0  0
  193.4400  171.4990  135.3680 C   0  0  0  0  0  3  0  0  0  0  0  0
  193.5800  173.5340  137.2260 N   0  0  0  0  0  0  0  0  0  0  0  0
  192.3450  172.3390  135.5670 C   0  0  0  0  0  3  0  0  0  0  0  0
  196.1100  172.9800  137.9860 Cl  0  0  0  0  0  0  0  0  0  0  0  0
  188.4870  177.5060  140.1790 O   0  0  0  0  0  0  0  0  0  0  0  0
  188.2950  178.3140  141.3040 C   0  0  0  0  0  2  0  0  0  0  0  0
  190.3590  177.1120  143.0750 O   0  0  0  0  0  0  0  0  0  0  0  0
  188.0740  177.4610  142.5490 C   0  0  1  0  0  3  0  0  0  0  0  0
  189.2710  177.4970  143.4660 C   0  0  0  0  0  0  0  0  0  0  0  0
  187.8800  177.4150  145.5490 C   0  0  0  0  0  2  0  0  0  0  0  0
  186.6780  177.1780  144.6170 C   0  0  0  0  0  2  0  0  0  0  0  0
  186.8050  177.9070  143.2800 C   0  0  0  0  0  2  0  0  0  0  0  0
  189.1190  178.0110  144.8670 C   0  0  0  0  0  2  0  0  0  0  0  0
  1 16  1  1  0  0  0
  1 10  1  0  0  0  0
  2  7  1  6  0  0  0
  2  4  1  0  0  0  0
  3  9  1  0  0  0  0
  4  9  1  0  0  0  0
  5  1  1  0  0  0  0
  8 21  1  6  0  0  0
  8  7  1  0  0  0  0
  9 26  1  6  0  0  0
 10  3  1  1  0  0  0
 10  2  1  0  0  0  0
 11  6  1  1  0  0  0
 11  5  1  0  0  0  0
 11  8  1  0  0  0  0
 12 14  1  0  0  0  0
 13 15  1  0  0  0  0
 14 17  1  6  0  0  0
 15 14  1  0  0  0  0
 16 13  1  0  0  0  0
 16 12  2  0  0  0  0
 18 13  2  0  0  0  0
 19 23  1  0  0  0  0
 19 25  1  0  0  0  0
 20 19  2  0  0  0  0
 21 23  2  0  0  0  0
 22 24  2  0  0  0  0
 22 20  1  0  0  0  0
 24 21  1  0  0  0  0
 26 27  1  0  0  0  0
 28 30  2  0  0  0  0
 29 27  1  6  0  0  0
 29 33  1  0  0  0  0
 29 30  1  0  0  0  0
 30 34  1  0  0  0  0
 32 31  1  0  0  0  0
 33 32  1  0  0  0  0
 34 31  1  0  0  0  0
M  END
>  <MODEL>
1

>  <REMARK>
 VINA RESULT:      -7.3      0.000      0.000
  Name = 
  5 active torsions:
  status: ('A' for Active; 'I' for Inactive)
    1  A    between atoms: C_3  and  C_13
    2  A    between atoms: C_3  and  O_17
    3  A    between atoms: C_4  and  C_15
    4  A    between atoms: C_12  and  C_28
    5  A    between atoms: O_17  and  C_29
                            x       y       z     vdW  Elec       q    Type
                         _______ _______ _______ _____ _____    ______ ____

>  <TORSDO>
F 5

$$$$
=
 OpenBabel11052413593D

 34 38  0  0  1  0  0  0  0  0999 V2000
  189.9320  175.9450  136.1820 C   0  0  2  0  0  3  0  0  0  0  0  0
  190.9320  175.8710  138.4500 N   0  0  2  0  0  0  0  0  0  0  0  0
  189.7930  177.9150  137.8150 C   0  0  0  0  0  2  0  0  0  0  0  0
  190.7350  176.6950  139.6330 C   0  0  0  0  0  2  0  0  0  0  0  0
  190.6740  174.6650  135.7540 C   0  0  0  0  0  2  0  0  0  0  0  0
  192.8820  175.8610  135.3100 C   0  0  0  0  0  1  0  0  0  0  0  0
  192.3540  175.5760  138.3580 C   0  0  0  0  0  2  0  0  0  0  0  0
  192.5960  174.3970  137.4100 C   0  0  1  0  0  3  0  0  0  0  0  0
  189.6560  177.7040  139.3020 C   0  0  2  0  0  3  0  0  0  0  0  0
  190.6100  176.7320  137.3190 C   0  0  2  0  0  3  0  0  0  0  0  0
  192.1960  174.6570  135.9470 C   0  0  1  0  0  3  0  0  0  0  0  0
  188.1360  174.6060  137.1250 N   0  0  0  0  0  0  0  0  0  0  0  0
  187.3670  176.4050  135.9230 C   0  0  0  0  0  0  0  0  0  0  0  0
  186.6980  174.3900  137.2670 C   0  0  1  0  0  3  0  0  0  0  0  0
  185.7960  175.7150  136.3690 S   0  0  0  0  0  0  0  0  0  0  0  0
  188.4830  175.6470  136.4500 C   0  0  0  0  0  0  0  0  0  0  0  0
  186.3280  173.0410  136.6830 C   0  0  0  0  0  1  0  0  0  0  0  0
  187.4870  177.4400  135.2170 O   0  0  0  0  0  0  0  0  0  0  0  0
  196.1180  173.9830  138.5810 C   0  0  0  0  0  0  0  0  0  0  0  0
  196.5840  172.9100  137.8170 C   0  0  0  0  0  3  0  0  0  0  0  0
  193.9920  173.8660  137.5250 C   0  0  0  0  0  0  0  0  0  0  0  0
  195.7280  172.3100  136.8940 C   0  0  0  0  0  3  0  0  0  0  0  0
  194.8440  174.4310  138.4220 N   0  0  0  0  0  0  0  0  0  0  0  0
  194.4250  172.7840  136.7440 C   0  0  0  0  0  3  0  0  0  0  0  0
  197.1750  174.7490  139.7470 Cl  0  0  0  0  0  0  0  0  0  0  0  0
  188.4060  177.1410  139.5680 O   0  0  0  0  0  0  0  0  0  0  0  0
  187.5750  178.2270  139.8640 C   0  0  0  0  0  2  0  0  0  0  0  0
  185.5460  179.7520  141.4130 O   0  0  0  0  0  0  0  0  0  0  0  0
  187.5600  178.5010  141.3640 C   0  0  1  0  0  3  0  0  0  0  0  0
  186.1680  178.8030  141.8590 C   0  0  0  0  0  0  0  0  0  0  0  0
  186.5250  177.6470  144.0540 C   0  0  0  0  0  2  0  0  0  0  0  0
  187.9990  177.5160  143.6310 C   0  0  0  0  0  2  0  0  0  0  0  0
  188.1750  177.3240  142.1250 C   0  0  0  0  0  2  0  0  0  0  0  0
  185.5460  177.9270  142.9060 C   0  0  0  0  0  2  0  0  0  0  0  0
  1 16  1  1  0  0  0
  1 10  1  0  0  0  0
  2  7  1  6  0  0  0
  2  4  1  0  0  0  0
  3  9  1  0  0  0  0
  5 11  1  0  0  0  0
  5  1  1  0  0  0  0
  8 21  1  6  0  0  0
  8  7  1  0  0  0  0
  9 26  1  6  0  0  0
  9  4  1  0  0  0  0
 10  3  1  1  0  0  0
 10  2  1  0  0  0  0
 11  6  1  1  0  0  0
 11  8  1  0  0  0  0
 12 14  1  0  0  0  0
 13 15  1  0  0  0  0
 13 16  1  0  0  0  0
 14 17  1  6  0  0  0
 15 14  1  0  0  0  0
 16 12  2  0  0  0  0
 18 13  2  0  0  0  0
 19 25  1  0  0  0  0
 20 19  2  0  0  0  0
 21 23  2  0  0  0  0
 22 20  1  0  0  0  0
 23 19  1  0  0  0  0
 24 22  2  0  0  0  0
 24 21  1  0  0  0  0
 26 27  1  0  0  0  0
 28 30  2  0  0  0  0
 29 27  1  6  0  0  0
 29 30  1  0  0  0  0
 29 33  1  0  0  0  0
 30 34  1  0  0  0  0
 32 31  1  0  0  0  0
 33 32  1  0  0  0  0
 34 31  1  0  0  0  0
M  END
>  <MODEL>
2

>  <REMARK>
 VINA RESULT:      -7.3      1.599      2.207
  Name = 
  5 active torsions:
  status: ('A' for Active; 'I' for Inactive)
    1  A    between atoms: C_3  and  C_13
    2  A    between atoms: C_3  and  O_17
    3  A    between atoms: C_4  and  C_15
    4  A    between atoms: C_12  and  C_28
    5  A    between atoms: O_17  and  C_29
                            x       y       z     vdW  Elec       q    Type
                         _______ _______ _______ _____ _____    ______ ____

>  <TORSDO>
F 5

$$$$
=
 OpenBabel11052413593D

 34 38  0  0  1  0  0  0  0  0999 V2000
  190.6560  177.3240  139.4700 C   0  0  2  0  0  3  0  0  0  0  0  0
  188.2150  177.6330  139.7810 N   0  0  2  0  0  0  0  0  0  0  0  0
  189.2890  178.9860  138.0790 C   0  0  0  0  0  2  0  0  0  0  0  0
  187.1950  178.2520  138.9500 C   0  0  0  0  0  2  0  0  0  0  0  0
  190.7750  176.5130  140.7750 C   0  0  0  0  0  2  0  0  0  0  0  0
  190.7700  178.5700  142.2820 C   0  0  0  0  0  1  0  0  0  0  0  0
  187.9310  177.9960  141.1620 C   0  0  0  0  0  2  0  0  0  0  0  0
  188.6820  177.0700  142.1240 C   0  0  1  0  0  3  0  0  0  0  0  0
  187.8670  178.6940  137.6670 C   0  0  2  0  0  3  0  0  0  0  0  0
  189.4620  178.2960  139.4240 C   0  0  2  0  0  3  0  0  0  0  0  0
  190.2160  177.1690  142.0440 C   0  0  1  0  0  3  0  0  0  0  0  0
  189.7110  175.6960  137.9330 N   0  0  0  0  0  0  0  0  0  0  0  0
  191.9100  176.1760  137.4790 C   0  0  0  0  0  0  0  0  0  0  0  0
  189.9190  174.8050  136.7940 C   0  0  1  0  0  3  0  0  0  0  0  0
  191.6510  174.9710  136.2050 S   0  0  0  0  0  0  0  0  0  0  0  0
  190.7250  176.4130  138.2780 C   0  0  0  0  0  0  0  0  0  0  0  0
  189.6640  173.3720  137.2190 C   0  0  0  0  0  1  0  0  0  0  0  0
  193.0130  176.7520  137.6640 O   0  0  0  0  0  0  0  0  0  0  0  0
  188.6540  177.1280  145.8580 C   0  0  0  0  0  0  0  0  0  0  0  0
  187.3330  177.4660  146.1620 C   0  0  0  0  0  3  0  0  0  0  0  0
  188.1830  177.2030  143.5300 C   0  0  0  0  0  0  0  0  0  0  0  0
  186.4290  177.6780  145.1210 C   0  0  0  0  0  3  0  0  0  0  0  0
  189.0470  177.0080  144.5620 N   0  0  0  0  0  0  0  0  0  0  0  0
  186.8500  177.5480  143.7980 C   0  0  0  0  0  3  0  0  0  0  0  0
  189.8060  176.8610  147.1480 Cl  0  0  0  0  0  0  0  0  0  0  0  0
  187.8660  177.6320  136.7610 O   0  0  0  0  0  0  0  0  0  0  0  0
  186.8790  177.9560  135.8240 C   0  0  0  0  0  2  0  0  0  0  0  0
  187.2110  175.1560  134.8790 O   0  0  0  0  0  0  0  0  0  0  0  0
  185.8180  176.8630  135.7570 C   0  0  1  0  0  3  0  0  0  0  0  0
  186.4370  175.4870  135.7610 C   0  0  0  0  0  0  0  0  0  0  0  0
  184.5880  174.4820  137.1210 C   0  0  0  0  0  2  0  0  0  0  0  0
  183.8630  175.8290  136.9460 C   0  0  0  0  0  2  0  0  0  0  0  0
  184.8180  177.0210  136.9050 C   0  0  0  0  0  2  0  0  0  0  0  0
  186.0990  174.5230  136.8590 C   0  0  0  0  0  2  0  0  0  0  0  0
  1 16  1  6  0  0  0
  1  5  1  0  0  0  0
  2  4  1  6  0  0  0
  2  7  1  0  0  0  0
  5 11  1  0  0  0  0
  7  8  1  0  0  0  0
  8 21  1  1  0  0  0
  9 26  1  6  0  0  0
  9  3  1  0  0  0  0
  9  4  1  0  0  0  0
 10  3  1  6  0  0  0
 10  1  1  0  0  0  0
 10  2  1  0  0  0  0
 11  8  1  0  0  0  0
 11  6  1  6  0  0  0
 12 16  2  0  0  0  0
 13 18  2  0  0  0  0
 13 16  1  0  0  0  0
 14 17  1  1  0  0  0
 14 12  1  0  0  0  0
 15 14  1  0  0  0  0
 15 13  1  0  0  0  0
 19 20  1  0  0  0  0
 19 25  1  0  0  0  0
 21 24  2  0  0  0  0
 21 23  1  0  0  0  0
 22 20  2  0  0  0  0
 23 19  2  0  0  0  0
 24 22  1  0  0  0  0
 27 26  1  0  0  0  0
 28 30  2  0  0  0  0
 29 30  1  0  0  0  0
 29 27  1  1  0  0  0
 29 33  1  0  0  0  0
 30 34  1  0  0  0  0
 32 31  1  0  0  0  0
 33 32  1  0  0  0  0
 34 31  1  0  0  0  0
M  END
>  <MODEL>
3

>  <REMARK>
 VINA RESULT:      -7.1      3.401      7.523
  Name = 
  5 active torsions:
  status: ('A' for Active; 'I' for Inactive)
    1  A    between atoms: C_3  and  C_13
    2  A    between atoms: C_3  and  O_17
    3  A    between atoms: C_4  and  C_15
    4  A    between atoms: C_12  and  C_28
    5  A    between atoms: O_17  and  C_29
                            x       y       z     vdW  Elec       q    Type
                         _______ _______ _______ _____ _____    ______ ____

>  <TORSDO>
F 5

$$$$
=
 OpenBabel11052413593D

 34 38  0  0  1  0  0  0  0  0999 V2000
  180.7430  178.3220  137.2280 C   0  0  2  0  0  3  0  0  0  0  0  0
  180.9310  179.9450  139.0930 N   0  0  2  0  0  0  0  0  0  0  0  0
  179.7680  177.8680  139.5540 C   0  0  0  0  0  2  0  0  0  0  0  0
  180.7490  179.8080  140.5300 C   0  0  0  0  0  2  0  0  0  0  0  0
  181.2090  179.3690  136.1980 C   0  0  0  0  0  2  0  0  0  0  0  0
  178.9320  180.5050  136.0360 C   0  0  0  0  0  1  0  0  0  0  0  0
  180.3550  181.2230  138.7020 C   0  0  0  0  0  2  0  0  0  0  0  0
  180.8600  181.6360  137.3150 C   0  0  1  0  0  3  0  0  0  0  0  0
  180.4520  178.3500  140.8090 C   0  0  2  0  0  3  0  0  0  0  0  0
  180.0970  178.9100  138.4960 C   0  0  2  0  0  3  0  0  0  0  0  0
  180.4390  180.6950  136.1720 C   0  0  1  0  0  3  0  0  0  0  0  0
  183.0430  177.7620  137.7810 N   0  0  0  0  0  0  0  0  0  0  0  0
  181.7270  175.9070  137.4620 C   0  0  0  0  0  0  0  0  0  0  0  0
  184.0450  176.7200  137.9920 C   0  0  1  0  0  3  0  0  0  0  0  0
  183.2580  175.0730  137.7840 S   0  0  0  0  0  0  0  0  0  0  0  0
  181.8500  177.3490  137.5240 C   0  0  0  0  0  0  0  0  0  0  0  0
  185.1620  176.8780  136.9800 C   0  0  0  0  0  1  0  0  0  0  0  0
  180.6570  175.2990  137.2010 O   0  0  0  0  0  0  0  0  0  0  0  0
  179.6860  185.1530  137.7620 C   0  0  0  0  0  0  0  0  0  0  0  0
  179.9650  185.7410  136.5270 C   0  0  0  0  0  3  0  0  0  0  0  0
  180.5450  183.0680  137.0110 C   0  0  0  0  0  0  0  0  0  0  0  0
  180.5490  184.9700  135.5220 C   0  0  0  0  0  3  0  0  0  0  0  0
  179.9820  183.8420  137.9760 N   0  0  0  0  0  0  0  0  0  0  0  0
  180.8430  183.6270  135.7590 C   0  0  0  0  0  3  0  0  0  0  0  0
  178.9570  186.1030  139.0380 Cl  0  0  0  0  0  0  0  0  0  0  0  0
  181.6560  177.6600  140.9630 O   0  0  0  0  0  0  0  0  0  0  0  0
  182.6040  178.6460  141.2570 C   0  0  0  0  0  2  0  0  0  0  0  0
  185.5010  178.1910  141.7480 O   0  0  0  0  0  0  0  0  0  0  0  0
  183.2890  178.3560  142.5880 C   0  0  1  0  0  3  0  0  0  0  0  0
  184.7520  178.7220  142.5510 C   0  0  0  0  0  0  0  0  0  0  0  0
  184.7850  179.4960  144.9340 C   0  0  0  0  0  2  0  0  0  0  0  0
  183.3540  178.9380  145.0290 C   0  0  0  0  0  2  0  0  0  0  0  0
  182.5680  179.0800  143.7270 C   0  0  0  0  0  2  0  0  0  0  0  0
  185.2860  179.7480  143.5050 C   0  0  0  0  0  2  0  0  0  0  0  0
  1 16  1  1  0  0  0
  1 10  1  0  0  0  0
  2  7  1  6  0  0  0
  2  4  1  0  0  0  0
  3  9  1  0  0  0  0
  4  9  1  0  0  0  0
  5  1  1  0  0  0  0
  8 21  1  6  0  0  0
  8  7  1  0  0  0  0
  9 26  1  6  0  0  0
 10  2  1  0  0  0  0
 10  3  1  1  0  0  0
 11  6  1  1  0  0  0
 11  5  1  0  0  0  0
 11  8  1  0  0  0  0
 12 14  1  0  0  0  0
 13 16  1  0  0  0  0
 13 15  1  0  0  0  0
 14 17  1  6  0  0  0
 15 14  1  0  0  0  0
 16 12  2  0  0  0  0
 18 13  2  0  0  0  0
 19 23  1  0  0  0  0
 19 25  1  0  0  0  0
 20 19  2  0  0  0  0
 21 23  2  0  0  0  0
 22 24  2  0  0  0  0
 22 20  1  0  0  0  0
 24 21  1  0  0  0  0
 26 27  1  0  0  0  0
 28 30  2  0  0  0  0
 29 27  1  6  0  0  0
 29 33  1  0  0  0  0
 30 29  1  0  0  0  0
 30 34  1  0  0  0  0
 31 32  1  0  0  0  0
 33 32  1  0  0  0  0
 34 31  1  0  0  0  0
M  END
>  <MODEL>
4

>  <REMARK>
 VINA RESULT:      -6.8      7.256     10.971
  Name = 
  5 active torsions:
  status: ('A' for Active; 'I' for Inactive)
    1  A    between atoms: C_3  and  C_13
    2  A    between atoms: C_3  and  O_17
    3  A    between atoms: C_4  and  C_15
    4  A    between atoms: C_12  and  C_28
    5  A    between atoms: O_17  and  C_29
                            x       y       z     vdW  Elec       q    Type
                         _______ _______ _______ _____ _____    ______ ____

>  <TORSDO>
F 5

$$$$
=
 OpenBabel11052413593D

 34 38  0  0  1  0  0  0  0  0999 V2000
  190.4670  176.8200  138.1510 C   0  0  2  0  0  3  0  0  0  0  0  0
  188.2710  177.4700  139.1020 N   0  0  2  0  0  0  0  0  0  0  0  0
  189.0370  178.7000  137.1580 C   0  0  0  0  0  2  0  0  0  0  0  0
  187.1680  178.2540  138.5670 C   0  0  0  0  0  2  0  0  0  0  0  0
  190.8090  175.9640  139.3850 C   0  0  0  0  0  2  0  0  0  0  0  0
  191.5100  177.9560  140.8130 C   0  0  0  0  0  1  0  0  0  0  0  0
  188.4220  177.8320  140.5030 C   0  0  0  0  0  2  0  0  0  0  0  0
  189.2590  176.7800  141.2400 C   0  0  1  0  0  3  0  0  0  0  0  0
  187.5300  178.6300  137.1460 C   0  0  2  0  0  3  0  0  0  0  0  0
  189.4600  177.9560  138.4150 C   0  0  2  0  0  3  0  0  0  0  0  0
  190.7130  176.6580  140.7490 C   0  0  1  0  0  3  0  0  0  0  0  0
  189.0280  175.1980  137.0510 N   0  0  0  0  0  0  0  0  0  0  0  0
  190.8570  175.7670  135.7850 C   0  0  0  0  0  0  0  0  0  0  0  0
  188.7890  174.3440  135.8910 C   0  0  1  0  0  3  0  0  0  0  0  0
  190.1430  174.5860  134.6730 S   0  0  0  0  0  0  0  0  0  0  0  0
  190.0790  175.9410  136.9950 C   0  0  0  0  0  0  0  0  0  0  0  0
  188.7550  172.8930  136.3270 C   0  0  0  0  0  1  0  0  0  0  0  0
  191.9300  176.3780  135.5420 O   0  0  0  0  0  0  0  0  0  0  0  0
  190.2560  176.7850  144.8390 C   0  0  0  0  0  0  0  0  0  0  0  0
  189.1120  177.2580  145.4860 C   0  0  0  0  0  3  0  0  0  0  0  0
  189.1790  176.9450  142.7270 C   0  0  0  0  0  0  0  0  0  0  0  0
  187.9860  177.5800  144.7280 C   0  0  0  0  0  3  0  0  0  0  0  0
  190.2650  176.6430  143.4870 N   0  0  0  0  0  0  0  0  0  0  0  0
  188.0140  177.4260  143.3420 C   0  0  0  0  0  3  0  0  0  0  0  0
  191.6800  176.3780  145.7700 Cl  0  0  0  0  0  0  0  0  0  0  0  0
  187.1300  177.6050  136.2870 O   0  0  0  0  0  0  0  0  0  0  0  0
  185.7460  177.5050  136.4610 C   0  0  0  0  0  2  0  0  0  0  0  0
  183.7370  176.3700  138.3370 O   0  0  0  0  0  0  0  0  0  0  0  0
  185.3250  176.0460  136.6060 C   0  0  1  0  0  3  0  0  0  0  0  0
  183.9550  175.9230  137.2240 C   0  0  0  0  0  0  0  0  0  0  0  0
  183.3320  173.9290  135.8390 C   0  0  0  0  0  2  0  0  0  0  0  0
  184.7940  173.9330  135.3570 C   0  0  0  0  0  2  0  0  0  0  0  0
  185.3850  175.3390  135.2500 C   0  0  0  0  0  2  0  0  0  0  0  0
  182.8540  175.2470  136.4620 C   0  0  0  0  0  2  0  0  0  0  0  0
  1 16  1  6  0  0  0
  1 10  1  0  0  0  0
  1  5  1  0  0  0  0
  2  4  1  6  0  0  0
  2  7  1  0  0  0  0
  5 11  1  0  0  0  0
  7  8  1  0  0  0  0
  8 21  1  1  0  0  0
  9 26  1  6  0  0  0
  9  3  1  0  0  0  0
  9  4  1  0  0  0  0
 10  3  1  6  0  0  0
 10  2  1  0  0  0  0
 11  6  1  6  0  0  0
 11  8  1  0  0  0  0
 13 16  1  0  0  0  0
 14 17  1  1  0  0  0
 14 12  1  0  0  0  0
 15 13  1  0  0  0  0
 15 14  1  0  0  0  0
 16 12  2  0  0  0  0
 18 13  2  0  0  0  0
 19 20  1  0  0  0  0
 19 25  1  0  0  0  0
 21 24  2  0  0  0  0
 21 23  1  0  0  0  0
 22 20  2  0  0  0  0
 23 19  2  0  0  0  0
 24 22  1  0  0  0  0
 26 27  1  0  0  0  0
 29 27  1  6  0  0  0
 29 30  1  0  0  0  0
 30 28  2  0  0  0  0
 31 34  1  0  0  0  0
 32 31  1  0  0  0  0
 33 32  1  0  0  0  0
 33 29  1  0  0  0  0
 34 30  1  0  0  0  0
M  END
>  <MODEL>
5

>  <REMARK>
 VINA RESULT:      -6.6      3.320      7.053
  Name = 
  5 active torsions:
  status: ('A' for Active; 'I' for Inactive)
    1  A    between atoms: C_3  and  C_13
    2  A    between atoms: C_3  and  O_17
    3  A    between atoms: C_4  and  C_15
    4  A    between atoms: C_12  and  C_28
    5  A    between atoms: O_17  and  C_29
                            x       y       z     vdW  Elec       q    Type
                         _______ _______ _______ _____ _____    ______ ____

>  <TORSDO>
F 5

$$$$
=
 OpenBabel11052413593D

 34 38  0  0  1  0  0  0  0  0999 V2000
  190.2320  176.7630  137.8460 C   0  0  2  0  0  3  0  0  0  0  0  0
  188.5190  177.4510  139.5020 N   0  0  2  0  0  0  0  0  0  0  0  0
  188.5790  178.6710  137.4070 C   0  0  0  0  0  2  0  0  0  0  0  0
  187.3130  178.2560  139.3830 C   0  0  0  0  0  2  0  0  0  0  0  0
  190.9690  175.8990  138.8870 C   0  0  0  0  0  2  0  0  0  0  0  0
  192.1600  177.8760  139.9710 C   0  0  0  0  0  1  0  0  0  0  0  0
  189.1570  177.8070  140.7600 C   0  0  0  0  0  2  0  0  0  0  0  0
  190.1800  176.7390  141.1630 C   0  0  1  0  0  3  0  0  0  0  0  0
  187.1620  178.6270  137.9230 C   0  0  2  0  0  3  0  0  0  0  0  0
  189.4020  177.9160  138.4400 C   0  0  2  0  0  3  0  0  0  0  0  0
  191.3680  176.5920  140.1960 C   0  0  1  0  0  3  0  0  0  0  0  0
  188.6370  174.9980  137.3470 N   0  0  0  0  0  0  0  0  0  0  0  0
  189.5860  175.9000  135.4600 C   0  0  0  0  0  0  0  0  0  0  0  0
  187.9810  174.1760  136.3340 C   0  0  1  0  0  3  0  0  0  0  0  0
  188.5720  174.6800  134.6690 S   0  0  0  0  0  0  0  0  0  0  0  0
  189.4500  175.8940  136.9020 C   0  0  0  0  0  0  0  0  0  0  0  0
  188.3170  172.7170  136.5690 C   0  0  0  0  0  1  0  0  0  0  0  0
  190.3460  176.6770  134.8260 O   0  0  0  0  0  0  0  0  0  0  0  0
  191.6670  175.9510  144.4970 C   0  0  0  0  0  0  0  0  0  0  0  0
  191.5110  177.1450  145.2050 C   0  0  0  0  0  3  0  0  0  0  0  0
  190.6270  176.9030  142.5830 C   0  0  0  0  0  0  0  0  0  0  0  0
  190.9030  178.2330  144.5800 C   0  0  0  0  0  3  0  0  0  0  0  0
  191.2280  175.8580  143.2130 N   0  0  0  0  0  0  0  0  0  0  0  0
  190.4570  178.1180  143.2630 C   0  0  0  0  0  3  0  0  0  0  0  0
  192.4300  174.5750  145.2620 Cl  0  0  0  0  0  0  0  0  0  0  0  0
  186.4690  177.6110  137.2620 O   0  0  0  0  0  0  0  0  0  0  0  0
  185.1560  178.0800  137.1520 C   0  0  0  0  0  2  0  0  0  0  0  0
  184.2240  180.1280  139.0970 O   0  0  0  0  0  0  0  0  0  0  0  0
  184.3920  177.8530  138.4520 C   0  0  1  0  0  3  0  0  0  0  0  0
  183.6330  179.0850  138.8730 C   0  0  0  0  0  0  0  0  0  0  0  0
  181.7030  177.7790  139.7950 C   0  0  0  0  0  2  0  0  0  0  0  0
  182.5630  176.5270  139.5480 C   0  0  0  0  0  2  0  0  0  0  0  0
  183.4570  176.6480  138.3150 C   0  0  0  0  0  2  0  0  0  0  0  0
  182.1410  179.0270  139.0170 C   0  0  0  0  0  2  0  0  0  0  0  0
  1 16  1  1  0  0  0
  1 10  1  0  0  0  0
  1  5  1  0  0  0  0
  2  4  1  6  0  0  0
  2  7  1  0  0  0  0
  3  9  1  0  0  0  0
  5 11  1  0  0  0  0
  7  8  1  0  0  0  0
  8 21  1  1  0  0  0
  9 26  1  6  0  0  0
  9  4  1  0  0  0  0
 10  3  1  6  0  0  0
 10  2  1  0  0  0  0
 11  6  1  6  0  0  0
 11  8  1  0  0  0  0
 13 16  1  0  0  0  0
 14 17  1  1  0  0  0
 14 12  1  0  0  0  0
 15 13  1  0  0  0  0
 15 14  1  0  0  0  0
 16 12  2  0  0  0  0
 18 13  2  0  0  0  0
 19 20  1  0  0  0  0
 19 25  1  0  0  0  0
 21 23  1  0  0  0  0
 21 24  2  0  0  0  0
 22 20  2  0  0  0  0
 23 19  2  0  0  0  0
 24 22  1  0  0  0  0
 27 26  1  0  0  0  0
 29 27  1  6  0  0  0
 29 30  1  0  0  0  0
 30 34  1  0  0  0  0
 30 28  2  0  0  0  0
 32 31  1  0  0  0  0
 33 29  1  0  0  0  0
 33 32  1  0  0  0  0
 34 31  1  0  0  0  0
M  END
>  <MODEL>
6

>  <REMARK>
 VINA RESULT:      -6.6      3.473      6.121
  Name = 
  5 active torsions:
  status: ('A' for Active; 'I' for Inactive)
    1  A    between atoms: C_3  and  C_13
    2  A    between atoms: C_3  and  O_17
    3  A    between atoms: C_4  and  C_15
    4  A    between atoms: C_12  and  C_28
    5  A    between atoms: O_17  and  C_29
                            x       y       z     vdW  Elec       q    Type
                         _______ _______ _______ _____ _____    ______ ____

>  <TORSDO>
F 5

$$$$
=
 OpenBabel11052413593D

 34 38  0  0  1  0  0  0  0  0999 V2000
  189.7480  178.3630  140.6990 C   0  0  2  0  0  3  0  0  0  0  0  0
  188.0620  177.6320  142.3640 N   0  0  2  0  0  0  0  0  0  0  0  0
  187.4620  179.4970  140.9350 C   0  0  0  0  0  2  0  0  0  0  0  0
  186.6350  177.8890  142.4870 C   0  0  0  0  0  2  0  0  0  0  0  0
  190.8500  177.5150  141.3610 C   0  0  0  0  0  2  0  0  0  0  0  0
  191.2970  179.1990  143.2230 C   0  0  0  0  0  1  0  0  0  0  0  0
  188.6300  177.6800  143.7030 C   0  0  0  0  0  2  0  0  0  0  0  0
  190.0140  177.0220  143.7210 C   0  0  1  0  0  3  0  0  0  0  0  0
  186.2210  178.7150  141.2880 C   0  0  2  0  0  3  0  0  0  0  0  0
  188.6000  178.7760  141.6400 C   0  0  2  0  0  3  0  0  0  0  0  0
  191.0750  177.7340  142.8620 C   0  0  1  0  0  3  0  0  0  0  0  0
  189.1600  176.4260  139.3540 N   0  0  0  0  0  0  0  0  0  0  0  0
  188.9850  178.4000  138.1940 C   0  0  0  0  0  0  0  0  0  0  0  0
  188.7440  175.9030  138.0550 C   0  0  1  0  0  3  0  0  0  0  0  0
  188.5290  177.2990  136.8810 S   0  0  0  0  0  0  0  0  0  0  0  0
  189.2700  177.7070  139.4340 C   0  0  0  0  0  0  0  0  0  0  0  0
  189.8030  174.9560  137.5270 C   0  0  0  0  0  1  0  0  0  0  0  0
  189.0580  179.6480  138.0490 O   0  0  0  0  0  0  0  0  0  0  0  0
  190.1840  177.1020  147.4510 C   0  0  0  0  0  0  0  0  0  0  0  0
  191.3080  176.3240  147.7350 C   0  0  0  0  0  3  0  0  0  0  0  0
  190.4940  176.7730  145.1170 C   0  0  0  0  0  0  0  0  0  0  0  0
  192.0300  175.7610  146.6820 C   0  0  0  0  0  3  0  0  0  0  0  0
  189.8040  177.3060  146.1610 N   0  0  0  0  0  0  0  0  0  0  0  0
  191.6260  175.9820  145.3660 C   0  0  0  0  0  3  0  0  0  0  0  0
  189.2620  177.8150  148.7560 Cl  0  0  0  0  0  0  0  0  0  0  0  0
  185.9070  177.8590  140.2300 O   0  0  0  0  0  0  0  0  0  0  0  0
  185.1490  178.6360  139.3490 C   0  0  0  0  0  2  0  0  0  0  0  0
  183.3920  180.9570  138.7390 O   0  0  0  0  0  0  0  0  0  0  0  0
  183.7840  178.9570  139.9500 C   0  0  1  0  0  3  0  0  0  0  0  0
  182.9760  179.8530  139.0460 C   0  0  0  0  0  0  0  0  0  0  0  0
  180.8010  178.7560  139.6350 C   0  0  0  0  0  2  0  0  0  0  0  0
  181.5960  177.9810  140.7010 C   0  0  0  0  0  2  0  0  0  0  0  0
  183.0270  177.6650  140.2680 C   0  0  0  0  0  2  0  0  0  0  0  0
  181.6520  179.3810  138.5220 C   0  0  0  0  0  2  0  0  0  0  0  0
  1 16  1  6  0  0  0
  1  5  1  0  0  0  0
  1 10  1  0  0  0  0
  2  4  1  1  0  0  0
  2  7  1  0  0  0  0
  3  9  1  0  0  0  0
  5 11  1  0  0  0  0
  7  8  1  0  0  0  0
  8 21  1  1  0  0  0
  9 26  1  6  0  0  0
  9  4  1  0  0  0  0
 10  3  1  6  0  0  0
 10  2  1  0  0  0  0
 11  6  1  6  0  0  0
 11  8  1  0  0  0  0
 12 16  2  0  0  0  0
 13 16  1  0  0  0  0
 14 17  1  6  0  0  0
 14 12  1  0  0  0  0
 15 14  1  0  0  0  0
 15 13  1  0  0  0  0
 18 13  2  0  0  0  0
 19 20  1  0  0  0  0
 19 25  1  0  0  0  0
 21 24  2  0  0  0  0
 21 23  1  0  0  0  0
 22 20  2  0  0  0  0
 23 19  2  0  0  0  0
 24 22  1  0  0  0  0
 27 26  1  0  0  0  0
 28 30  2  0  0  0  0
 29 27  1  6  0  0  0
 29 33  1  0  0  0  0
 30 29  1  0  0  0  0
 31 32  1  0  0  0  0
 33 32  1  0  0  0  0
 34 30  1  0  0  0  0
 34 31  1  0  0  0  0
M  END
>  <MODEL>
7

>  <REMARK>
 VINA RESULT:      -6.4      4.100      7.450
  Name = 
  5 active torsions:
  status: ('A' for Active; 'I' for Inactive)
    1  A    between atoms: C_3  and  C_13
    2  A    between atoms: C_3  and  O_17
    3  A    between atoms: C_4  and  C_15
    4  A    between atoms: C_12  and  C_28
    5  A    between atoms: O_17  and  C_29
                            x       y       z     vdW  Elec       q    Type
                         _______ _______ _______ _____ _____    ______ ____

>  <TORSDO>
F 5

$$$$
=
 OpenBabel11052413593D

 34 38  0  0  1  0  0  0  0  0999 V2000
  189.2800  176.0450  135.7930 C   0  0  2  0  0  3  0  0  0  0  0  0
  190.4790  175.6230  137.9220 N   0  0  2  0  0  0  0  0  0  0  0  0
  189.5890  177.8530  137.5810 C   0  0  0  0  0  2  0  0  0  0  0  0
  190.5210  176.3510  139.1810 C   0  0  0  0  0  2  0  0  0  0  0  0
  189.7830  174.7220  135.1840 C   0  0  0  0  0  2  0  0  0  0  0  0
  192.0850  175.6450  134.5940 C   0  0  0  0  0  1  0  0  0  0  0  0
  191.8270  175.1490  137.6490 C   0  0  0  0  0  2  0  0  0  0  0  0
  191.8010  174.0420  136.5890 C   0  0  1  0  0  3  0  0  0  0  0  0
  189.5720  177.5240  139.0540 C   0  0  2  0  0  3  0  0  0  0  0  0
  190.1740  176.6220  136.9060 C   0  0  2  0  0  3  0  0  0  0  0  0
  191.2990  174.4900  135.2050 C   0  0  1  0  0  3  0  0  0  0  0  0
  186.9990  176.8700  135.9540 N   0  0  0  0  0  0  0  0  0  0  0  0
  187.2750  174.8190  136.9480 C   0  0  0  0  0  0  0  0  0  0  0  0
  185.6400  176.6600  136.4470 C   0  0  1  0  0  3  0  0  0  0  0  0
  185.5580  175.0480  137.3240 S   0  0  0  0  0  0  0  0  0  0  0  0
  187.8370  175.9210  136.1950 C   0  0  0  0  0  0  0  0  0  0  0  0
  185.2690  177.7750  137.4030 C   0  0  0  0  0  1  0  0  0  0  0  0
  187.9270  173.8050  137.3100 O   0  0  0  0  0  0  0  0  0  0  0  0
  194.3670  171.5110  135.6100 C   0  0  0  0  0  0  0  0  0  0  0  0
  195.5140  171.9450  136.2790 C   0  0  0  0  0  3  0  0  0  0  0  0
  193.1100  173.3190  136.5060 C   0  0  0  0  0  0  0  0  0  0  0  0
  195.4470  173.0910  137.0710 C   0  0  0  0  0  3  0  0  0  0  0  0
  193.2020  172.2020  135.7350 N   0  0  0  0  0  0  0  0  0  0  0  0
  194.2430  173.7850  137.1890 C   0  0  0  0  0  3  0  0  0  0  0  0
  194.4300  170.0780  134.6080 Cl  0  0  0  0  0  0  0  0  0  0  0  0
  188.2860  177.1130  139.4110 O   0  0  0  0  0  0  0  0  0  0  0  0
  187.6190  178.2860  139.7780 C   0  0  0  0  0  2  0  0  0  0  0  0
  185.7920  179.8920  141.4890 O   0  0  0  0  0  0  0  0  0  0  0  0
  187.7060  178.5070  141.2850 C   0  0  1  0  0  3  0  0  0  0  0  0
  186.3680  178.8860  141.8680 C   0  0  0  0  0  0  0  0  0  0  0  0
  186.7610  177.6310  144.0020 C   0  0  0  0  0  2  0  0  0  0  0  0
  188.1960  177.4130  143.4910 C   0  0  0  0  0  2  0  0  0  0  0  0
  188.2750  177.2640  141.9720 C   0  0  0  0  0  2  0  0  0  0  0  0
  185.7430  178.0200  142.9210 C   0  0  0  0  0  2  0  0  0  0  0  0
  1 16  1  1  0  0  0
  1 10  1  0  0  0  0
  2  7  1  6  0  0  0
  2  4  1  0  0  0  0
  3  9  1  0  0  0  0
  5 11  1  0  0  0  0
  5  1  1  0  0  0  0
  8 21  1  6  0  0  0
  8  7  1  0  0  0  0
  9  4  1  0  0  0  0
  9 26  1  6  0  0  0
 10  3  1  1  0  0  0
 10  2  1  0  0  0  0
 11  6  1  1  0  0  0
 11  8  1  0  0  0  0
 12 16  2  0  0  0  0
 12 14  1  0  0  0  0
 13 18  2  0  0  0  0
 13 15  1  0  0  0  0
 14 15  1  0  0  0  0
 14 17  1  1  0  0  0
 16 13  1  0  0  0  0
 19 23  2  0  0  0  0
 19 20  1  0  0  0  0
 20 22  2  0  0  0  0
 21 24  2  0  0  0  0
 22 24  1  0  0  0  0
 23 21  1  0  0  0  0
 25 19  1  0  0  0  0
 26 27  1  0  0  0  0
 28 30  2  0  0  0  0
 29 27  1  6  0  0  0
 29 30  1  0  0  0  0
 29 33  1  0  0  0  0
 30 34  1  0  0  0  0
 32 31  1  0  0  0  0
 33 32  1  0  0  0  0
 34 31  1  0  0  0  0
M  END
>  <MODEL>
8

>  <REMARK>
 VINA RESULT:      -6.0      1.746      2.390
  Name = 
  5 active torsions:
  status: ('A' for Active; 'I' for Inactive)
    1  A    between atoms: C_3  and  C_13
    2  A    between atoms: C_3  and  O_17
    3  A    between atoms: C_4  and  C_15
    4  A    between atoms: C_12  and  C_28
    5  A    between atoms: O_17  and  C_29
                            x       y       z     vdW  Elec       q    Type
                         _______ _______ _______ _____ _____    ______ ____

>  <TORSDO>
F 5

$$$$
=
 OpenBabel11052413593D

 34 38  0  0  1  0  0  0  0  0999 V2000
  182.3290  177.4240  137.6920 C   0  0  2  0  0  3  0  0  0  0  0  0
  182.7460  179.5000  138.9830 N   0  0  2  0  0  0  0  0  0  0  0  0
  182.6420  177.4260  140.2350 C   0  0  0  0  0  2  0  0  0  0  0  0
  183.2470  179.7290  140.3300 C   0  0  0  0  0  2  0  0  0  0  0  0
  181.9420  178.2210  136.4320 C   0  0  0  0  0  2  0  0  0  0  0  0
  179.5790  178.7280  137.2440 C   0  0  0  0  0  1  0  0  0  0  0  0
  181.6750  180.4560  138.7490 C   0  0  0  0  0  2  0  0  0  0  0  0
  181.3780  180.5710  137.2510 C   0  0  1  0  0  3  0  0  0  0  0  0
  183.5940  178.3770  140.9170 C   0  0  2  0  0  3  0  0  0  0  0  0
  182.1290  178.1800  139.0190 C   0  0  2  0  0  3  0  0  0  0  0  0
  180.8460  179.2810  136.6010 C   0  0  1  0  0  3  0  0  0  0  0  0
  184.7350  177.6090  137.3950 N   0  0  0  0  0  0  0  0  0  0  0  0
  184.0110  175.4310  137.4560 C   0  0  0  0  0  0  0  0  0  0  0  0
  186.0120  176.9290  137.1980 C   0  0  1  0  0  3  0  0  0  0  0  0
  185.7350  175.1130  137.1920 S   0  0  0  0  0  0  0  0  0  0  0  0
  183.7080  176.8450  137.5420 C   0  0  0  0  0  0  0  0  0  0  0  0
  186.6150  177.3520  135.8740 C   0  0  0  0  0  1  0  0  0  0  0  0
  183.1510  174.5180  137.5480 O   0  0  0  0  0  0  0  0  0  0  0  0
  179.4830  183.7580  137.7020 C   0  0  0  0  0  0  0  0  0  0  0  0
  178.9440  183.9900  136.4350 C   0  0  0  0  0  3  0  0  0  0  0  0
  180.5130  181.7540  136.9430 C   0  0  0  0  0  0  0  0  0  0  0  0
  179.2020  183.0820  135.4080 C   0  0  0  0  0  3  0  0  0  0  0  0
  180.2500  182.6570  137.9260 N   0  0  0  0  0  0  0  0  0  0  0  0
  179.9900  181.9580  135.6570 C   0  0  0  0  0  3  0  0  0  0  0  0
  179.1740  184.8860  139.0030 Cl  0  0  0  0  0  0  0  0  0  0  0  0
  184.9020  178.0450  140.5590 O   0  0  0  0  0  0  0  0  0  0  0  0
  185.7120  178.7290  141.4700 C   0  0  0  0  0  2  0  0  0  0  0  0
  188.3920  177.7140  140.6780 O   0  0  0  0  0  0  0  0  0  0  0  0
  186.6040  177.7580  142.2350 C   0  0  1  0  0  3  0  0  0  0  0  0
  188.0510  177.8990  141.8340 C   0  0  0  0  0  0  0  0  0  0  0  0
  188.9050  177.4460  144.1460 C   0  0  0  0  0  2  0  0  0  0  0  0
  187.4480  177.1060  144.5080 C   0  0  0  0  0  2  0  0  0  0  0  0
  186.4290  177.9490  143.7430 C   0  0  0  0  0  2  0  0  0  0  0  0
  189.0760  178.2720  142.8640 C   0  0  0  0  0  2  0  0  0  0  0  0
  1 16  1  6  0  0  0
  1 10  1  0  0  0  0
  2  7  1  1  0  0  0
  2 10  1  0  0  0  0
  2  4  1  0  0  0  0
  3  9  1  0  0  0  0
  4  9  1  0  0  0  0
  5 11  1  0  0  0  0
  5  1  1  0  0  0  0
  8 21  1  1  0  0  0
  8  7  1  0  0  0  0
  9 26  1  6  0  0  0
 10  3  1  1  0  0  0
 11  6  1  1  0  0  0
 11  8  1  0  0  0  0
 12 16  2  0  0  0  0
 13 16  1  0  0  0  0
 13 18  2  0  0  0  0
 14 17  1  6  0  0  0
 14 12  1  0  0  0  0
 15 14  1  0  0  0  0
 15 13  1  0  0  0  0
 19 23  1  0  0  0  0
 19 25  1  0  0  0  0
 20 19  2  0  0  0  0
 21 23  2  0  0  0  0
 22 24  2  0  0  0  0
 22 20  1  0  0  0  0
 24 21  1  0  0  0  0
 26 27  1  0  0  0  0
 28 30  2  0  0  0  0
 29 27  1  6  0  0  0
 29 33  1  0  0  0  0
 30 29  1  0  0  0  0
 30 34  1  0  0  0  0
 31 32  1  0  0  0  0
 33 32  1  0  0  0  0
 34 31  1  0  0  0  0
M  END
>  <MODEL>
9

>  <REMARK>
 VINA RESULT:      -6.0      6.166      9.896
  Name = 
  5 active torsions:
  status: ('A' for Active; 'I' for Inactive)
    1  A    between atoms: C_3  and  C_13
    2  A    between atoms: C_3  and  O_17
    3  A    between atoms: C_4  and  C_15
    4  A    between atoms: C_12  and  C_28
    5  A    between atoms: O_17  and  C_29
                            x       y       z     vdW  Elec       q    Type
                         _______ _______ _______ _____ _____    ______ ____

>  <TORSDO>
F 5

$$$$
