=
 OpenBabel11052415223D

 37 42  0  0  1  0  0  0  0  0999 V2000
  179.4760  174.0430  136.9040 C   0  0  0  0  0  2  0  0  0  0  0  0
  183.8090  175.5570  137.8670 C   0  0  1  0  0  3  0  0  0  0  0  0
  184.5600  178.8080  139.5480 O   0  0  0  0  0  0  0  0  0  0  0  0
  181.8260  174.0150  137.0540 C   0  0  2  0  0  3  0  0  0  0  0  0
  183.5670  177.0100  138.2060 C   0  0  2  0  0  3  0  0  0  0  0  0
  182.4880  174.8400  138.1940 C   0  0  2  0  0  3  0  0  0  0  0  0
  184.8370  177.7340  138.6660 C   0  0  1  0  0  3  0  0  0  0  0  0
  182.7590  173.4820  135.9520 C   0  0  0  0  0  2  0  0  0  0  0  0
  181.5620  175.9010  138.7960 C   0  0  1  0  0  3  0  0  0  0  0  0
  179.7400  174.2370  139.3930 C   0  0  0  0  0  2  0  0  0  0  0  0
  185.6720  175.9360  136.2440 C   0  0  0  0  0  2  0  0  0  0  0  0
  184.2110  173.9350  136.0660 C   0  0  0  0  0  2  0  0  0  0  0  0
  180.6770  175.3340  139.8990 C   0  0  0  0  0  2  0  0  0  0  0  0
  183.7860  179.8000  138.8980 C   0  0  0  0  0  2  0  0  0  0  0  0
  184.2570  175.4050  136.4200 C   0  0  1  0  0  3  0  0  0  0  0  0
  182.4900  176.9940  139.2860 C   0  0  2  0  0  3  0  0  0  0  0  0
  180.6930  174.7110  136.4540 N   0  0  0  0  0  2  0  0  0  0  0  0
  185.8160  178.1460  137.5430 C   0  0  2  0  0  3  0  0  0  0  0  0
  178.9310  174.6830  138.1780 C   0  0  0  0  0  2  0  0  0  0  0  0
  182.3240  179.3650  138.6180 C   0  0  1  0  0  3  0  0  0  0  0  0
  181.7890  178.2840  139.4840 N   0  0  0  0  0  0  0  0  0  0  0  0
  185.6510  177.4600  136.1770 C   0  0  0  0  0  2  0  0  0  0  0  0
  188.2680  178.3000  137.0870 C   0  0  0  0  0  3  0  0  0  0  0  0
  187.2360  178.1330  138.0150 C   0  0  0  0  0  0  0  0  0  0  0  0
  187.5450  177.9510  139.3710 C   0  0  0  0  0  3  0  0  0  0  0  0
  189.2600  177.7120  141.4840 Cl  0  0  0  0  0  0  0  0  0  0  0  0
  189.9060  178.1080  138.8590 C   0  0  0  0  0  3  0  0  0  0  0  0
  188.8790  177.9400  139.7910 C   0  0  0  0  0  0  0  0  0  0  0  0
  189.6010  178.2890  137.5070 C   0  0  0  0  0  3  0  0  0  0  0  0
  182.0870  181.7510  138.5260 O   0  0  0  0  0  1  0  0  0  0  0  0
  181.3740  180.5540  138.4560 C   0  0  1  0  0  3  0  0  0  0  0  0
  180.6780  180.4830  137.2470 O   0  0  0  0  0  0  0  0  0  0  0  0
  180.7140  181.7820  136.7380 C   0  0  0  0  0  1  0  0  0  0  0  0
  181.9400  178.6610  140.8930 C   0  0  0  0  0  2  0  0  0  0  0  0
  180.6010  178.9270  141.5780 C   0  0  2  0  0  3  0  0  0  0  0  0
  179.4470  178.4590  140.7180 C   0  0  0  0  0  1  0  0  0  0  0  0
  180.4440  180.2760  141.9010 O   0  0  0  0  0  1  0  0  0  0  0  0
  1 19  1  0  0  0  0
  2  6  1  0  0  0  0
  2  5  1  0  0  0  0
  4  6  1  0  0  0  0
  5  7  1  0  0  0  0
  5 16  1  0  0  0  0
  6  9  1  0  0  0  0
  7  3  1  0  0  0  0
  8 12  1  0  0  0  0
  8  4  1  0  0  0  0
  9 16  1  0  0  0  0
  9 13  1  0  0  0  0
 10 13  1  0  0  0  0
 11 15  1  0  0  0  0
 12 15  1  0  0  0  0
 14  3  1  0  0  0  0
 15  2  1  0  0  0  0
 16 21  1  0  0  0  0
 17  1  1  0  0  0  0
 17  4  1  0  0  0  0
 18 24  1  0  0  0  0
 18  7  1  0  0  0  0
 19 10  1  0  0  0  0
 20 14  1  0  0  0  0
 20 21  1  0  0  0  0
 21 34  1  0  0  0  0
 22 11  1  0  0  0  0
 22 18  1  0  0  0  0
 23 29  2  0  0  0  0
 23 24  1  0  0  0  0
 24 25  2  0  0  0  0
 25 28  1  0  0  0  0
 27 28  2  0  0  0  0
 28 26  1  0  0  0  0
 29 27  1  0  0  0  0
 31 30  1  0  0  0  0
 31 20  1  0  0  0  0
 32 31  1  0  0  0  0
 33 32  1  0  0  0  0
 34 35  1  0  0  0  0
 35 37  1  0  0  0  0
 36 35  1  0  0  0  0
M  END
>  <MODEL>
1

>  <REMARK>
 VINA RESULT:      -6.1      0.000      0.000
  Name = 
  5 active torsions:
  status: ('A' for Active; 'I' for Inactive)
    1  A    between atoms: C_1  and  C_5
    2  A    between atoms: C_1  and  N_36
    3  A    between atoms: C_6  and  C_31
    4  A    between atoms: O_11  and  C_26
    5  A    between atoms: C_26  and  C_33
                            x       y       z     vdW  Elec       q    Type
                         _______ _______ _______ _____ _____    ______ ____

>  <TORSDO>
F 5

$$$$
=
 OpenBabel11052415223D

 37 42  0  0  1  0  0  0  0  0999 V2000
  181.8800  178.2820  139.7410 C   0  0  0  0  0  2  0  0  0  0  0  0
  186.0320  178.5980  141.9000 C   0  0  1  0  0  3  0  0  0  0  0  0
  189.3090  177.9360  140.2320 O   0  0  0  0  0  0  0  0  0  0  0  0
  183.4300  178.7020  141.4640 C   0  0  2  0  0  3  0  0  0  0  0  0
  186.9530  177.9140  140.9150 C   0  0  2  0  0  3  0  0  0  0  0  0
  184.8650  179.1390  141.0560 C   0  0  2  0  0  3  0  0  0  0  0  0
  188.4240  177.9670  141.3390 C   0  0  1  0  0  3  0  0  0  0  0  0
  183.2190  178.3040  142.9360 C   0  0  0  0  0  2  0  0  0  0  0  0
  185.2080  178.8210  139.5970 C   0  0  1  0  0  3  0  0  0  0  0  0
  183.2280  180.1030  138.6590 C   0  0  0  0  0  2  0  0  0  0  0  0
  186.7800  177.3400  143.9270 C   0  0  0  0  0  2  0  0  0  0  0  0
  184.4860  178.2850  143.7840 C   0  0  0  0  0  2  0  0  0  0  0  0
  184.7450  179.9160  138.6450 C   0  0  0  0  0  2  0  0  0  0  0  0
  189.1750  176.7180  139.5210 C   0  0  0  0  0  2  0  0  0  0  0  0
  185.6090  177.6380  143.0030 C   0  0  1  0  0  3  0  0  0  0  0  0
  186.7100  178.6230  139.5850 C   0  0  2  0  0  3  0  0  0  0  0  0
  182.8970  177.6660  140.5870 N   0  0  0  0  0  2  0  0  0  0  0  0
  188.8390  176.9660  142.4400 C   0  0  2  0  0  3  0  0  0  0  0  0
  182.4820  178.7920  138.4340 C   0  0  0  0  0  2  0  0  0  0  0  0
  187.8410  176.5980  138.7380 C   0  0  1  0  0  3  0  0  0  0  0  0
  187.1720  177.8780  138.3920 N   0  0  0  0  0  0  0  0  0  0  0  0
  187.7160  176.3280  143.2740 C   0  0  0  0  0  2  0  0  0  0  0  0
  190.4760  178.7670  143.0050 C   0  0  0  0  0  3  0  0  0  0  0  0
  189.9400  177.5090  143.2960 C   0  0  0  0  0  0  0  0  0  0  0  0
  190.4430  176.7740  144.3800 C   0  0  0  0  0  3  0  0  0  0  0  0
  192.0980  176.3780  146.5160 Cl  0  0  0  0  0  0  0  0  0  0  0  0
  192.0050  178.5570  144.8710 C   0  0  0  0  0  3  0  0  0  0  0  0
  191.4730  177.2990  145.1660 C   0  0  0  0  0  0  0  0  0  0  0  0
  191.5060  179.2920  143.7910 C   0  0  0  0  0  3  0  0  0  0  0  0
  189.1350  174.9130  137.6220 O   0  0  0  0  0  1  0  0  0  0  0  0
  187.9270  175.6100  137.5730 C   0  0  1  0  0  3  0  0  0  0  0  0
  186.8580  174.7120  137.5920 O   0  0  0  0  0  0  0  0  0  0  0  0
  186.6410  174.3870  136.2530 C   0  0  0  0  0  1  0  0  0  0  0  0
  188.1080  178.7410  137.6630 C   0  0  0  0  0  2  0  0  0  0  0  0
  187.8720  178.7230  136.1540 C   0  0  2  0  0  3  0  0  0  0  0  0
  186.5030  178.1710  135.8230 C   0  0  0  0  0  1  0  0  0  0  0  0
  188.8580  177.9950  135.4840 O   0  0  0  0  0  1  0  0  0  0  0  0
  1 17  1  0  0  0  0
  2 15  1  0  0  0  0
  3  7  1  0  0  0  0
  4  8  1  0  0  0  0
  5  7  1  0  0  0  0
  5  2  1  0  0  0  0
  6  4  1  0  0  0  0
  6  2  1  0  0  0  0
  7 18  1  0  0  0  0
  8 12  1  0  0  0  0
  9  6  1  0  0  0  0
 13 10  1  0  0  0  0
 13  9  1  0  0  0  0
 14  3  1  0  0  0  0
 15 12  1  0  0  0  0
 15 11  1  0  0  0  0
 16  9  1  0  0  0  0
 16  5  1  0  0  0  0
 17  4  1  0  0  0  0
 18 22  1  0  0  0  0
 18 24  1  0  0  0  0
 19 10  1  0  0  0  0
 19  1  1  0  0  0  0
 20 14  1  0  0  0  0
 21 20  1  0  0  0  0
 21 16  1  0  0  0  0
 22 11  1  0  0  0  0
 23 24  2  0  0  0  0
 23 29  1  0  0  0  0
 24 25  1  0  0  0  0
 25 28  2  0  0  0  0
 27 28  1  0  0  0  0
 28 26  1  0  0  0  0
 29 27  2  0  0  0  0
 31 32  1  0  0  0  0
 31 30  1  0  0  0  0
 31 20  1  0  0  0  0
 33 32  1  0  0  0  0
 34 21  1  0  0  0  0
 35 34  1  0  0  0  0
 36 35  1  0  0  0  0
 37 35  1  0  0  0  0
M  END
>  <MODEL>
2

>  <REMARK>
 VINA RESULT:      -5.9      3.861      6.913
  Name = 
  5 active torsions:
  status: ('A' for Active; 'I' for Inactive)
    1  A    between atoms: C_1  and  C_5
    2  A    between atoms: C_1  and  N_36
    3  A    between atoms: C_6  and  C_31
    4  A    between atoms: O_11  and  C_26
    5  A    between atoms: C_26  and  C_33
                            x       y       z     vdW  Elec       q    Type
                         _______ _______ _______ _____ _____    ______ ____

>  <TORSDO>
F 5

$$$$
=
 OpenBabel11052415223D

 37 42  0  0  1  0  0  0  0  0999 V2000
  187.5500  172.1330  136.7630 C   0  0  0  0  0  2  0  0  0  0  0  0
  184.0610  175.2630  136.9230 C   0  0  1  0  0  3  0  0  0  0  0  0
  184.5090  178.8420  137.8940 O   0  0  0  0  0  0  0  0  0  0  0  0
  185.3740  173.0050  136.5380 C   0  0  2  0  0  3  0  0  0  0  0  0
  184.6970  176.4060  137.6810 C   0  0  2  0  0  3  0  0  0  0  0  0
  185.2300  174.5250  136.2470 C   0  0  2  0  0  3  0  0  0  0  0  0
  183.7820  177.6300  137.7910 C   0  0  1  0  0  3  0  0  0  0  0  0
  184.0930  172.2510  136.9380 C   0  0  0  0  0  2  0  0  0  0  0  0
  186.4910  175.3310  136.5730 C   0  0  1  0  0  3  0  0  0  0  0  0
  187.9920  173.9380  135.0740 C   0  0  0  0  0  2  0  0  0  0  0  0
  181.9710  175.1270  138.2880 C   0  0  0  0  0  2  0  0  0  0  0  0
  182.8570  173.1290  137.1050 C   0  0  0  0  0  2  0  0  0  0  0  0
  187.4840  175.3380  135.4190 C   0  0  0  0  0  2  0  0  0  0  0  0
  185.2860  178.8570  139.0790 C   0  0  0  0  0  2  0  0  0  0  0  0
  183.2300  174.3910  137.8530 C   0  0  1  0  0  3  0  0  0  0  0  0
  185.9870  176.7160  136.9280 C   0  0  2  0  0  3  0  0  0  0  0  0
  186.4360  172.7240  137.4970 N   0  0  0  0  0  2  0  0  0  0  0  0
  182.6610  177.5350  138.8490 C   0  0  2  0  0  3  0  0  0  0  0  0
  188.5350  173.2020  136.2960 C   0  0  0  0  0  2  0  0  0  0  0  0
  186.4920  177.8820  139.0440 C   0  0  1  0  0  3  0  0  0  0  0  0
  186.9810  177.4990  137.6950 N   0  0  0  0  0  0  0  0  0  0  0  0
  182.3090  176.1360  139.3800 C   0  0  0  0  0  2  0  0  0  0  0  0
  180.4040  178.4820  139.3560 C   0  0  0  0  0  3  0  0  0  0  0  0
  181.4460  178.3060  138.4390 C   0  0  0  0  0  0  0  0  0  0  0  0
  181.3350  178.8500  137.1500 C   0  0  0  0  0  3  0  0  0  0  0  0
  180.0560  180.2400  135.1780 Cl  0  0  0  0  0  0  0  0  0  0  0  0
  179.1530  179.7380  137.7070 C   0  0  0  0  0  3  0  0  0  0  0  0
  180.1900  179.5650  136.7870 C   0  0  0  0  0  0  0  0  0  0  0  0
  179.2600  179.1970  138.9920 C   0  0  0  0  0  3  0  0  0  0  0  0
  187.0580  178.6590  141.2430 O   0  0  0  0  0  1  0  0  0  0  0  0
  187.6040  178.2830  140.0150 C   0  0  1  0  0  3  0  0  0  0  0  0
  188.5160  177.2410  140.1980 O   0  0  0  0  0  0  0  0  0  0  0  0
  188.8060  177.2560  141.5620 C   0  0  0  0  0  1  0  0  0  0  0  0
  187.2890  178.7070  136.9220 C   0  0  0  0  0  2  0  0  0  0  0  0
  188.7900  178.9640  136.8040 C   0  0  2  0  0  3  0  0  0  0  0  0
  189.5780  177.6850  136.9880 C   0  0  0  0  0  1  0  0  0  0  0  0
  189.2230  179.9310  137.7140 O   0  0  0  0  0  1  0  0  0  0  0  0
  1 17  1  0  0  0  0
  2  5  1  0  0  0  0
  2 15  1  0  0  0  0
  3 14  1  0  0  0  0
  4  8  1  0  0  0  0
  4 17  1  0  0  0  0
  5  7  1  0  0  0  0
  6  4  1  0  0  0  0
  6  9  1  0  0  0  0
  6  2  1  0  0  0  0
  7  3  1  0  0  0  0
  7 18  1  0  0  0  0
  8 12  1  0  0  0  0
  9 16  1  0  0  0  0
 10 13  1  0  0  0  0
 10 19  1  0  0  0  0
 11 22  1  0  0  0  0
 12 15  1  0  0  0  0
 13  9  1  0  0  0  0
 15 11  1  0  0  0  0
 16  5  1  0  0  0  0
 16 21  1  0  0  0  0
 18 22  1  0  0  0  0
 19  1  1  0  0  0  0
 20 14  1  0  0  0  0
 20 31  1  0  0  0  0
 21 20  1  0  0  0  0
 24 18  1  0  0  0  0
 24 23  2  0  0  0  0
 25 24  1  0  0  0  0
 26 28  1  0  0  0  0
 27 29  2  0  0  0  0
 28 25  2  0  0  0  0
 28 27  1  0  0  0  0
 29 23  1  0  0  0  0
 31 32  1  0  0  0  0
 31 30  1  0  0  0  0
 32 33  1  0  0  0  0
 34 21  1  0  0  0  0
 35 34  1  0  0  0  0
 35 36  1  0  0  0  0
 35 37  1  0  0  0  0
M  END
>  <MODEL>
3

>  <REMARK>
 VINA RESULT:      -5.5      3.079      6.925
  Name = 
  5 active torsions:
  status: ('A' for Active; 'I' for Inactive)
    1  A    between atoms: C_1  and  C_5
    2  A    between atoms: C_1  and  N_36
    3  A    between atoms: C_6  and  C_31
    4  A    between atoms: O_11  and  C_26
    5  A    between atoms: C_26  and  C_33
                            x       y       z     vdW  Elec       q    Type
                         _______ _______ _______ _____ _____    ______ ____

>  <TORSDO>
F 5

$$$$
=
 OpenBabel11052415223D

 37 42  0  0  1  0  0  0  0  0999 V2000
  179.5830  173.5380  136.7140 C   0  0  0  0  0  2  0  0  0  0  0  0
  183.7650  175.3890  137.7550 C   0  0  1  0  0  3  0  0  0  0  0  0
  184.2280  178.7280  139.3670 O   0  0  0  0  0  0  0  0  0  0  0  0
  181.9240  173.6860  136.9310 C   0  0  2  0  0  3  0  0  0  0  0  0
  183.4090  176.8290  138.0470 C   0  0  2  0  0  3  0  0  0  0  0  0
  182.4900  174.5860  138.0650 C   0  0  2  0  0  3  0  0  0  0  0  0
  184.6080  177.6550  138.5220 C   0  0  1  0  0  3  0  0  0  0  0  0
  182.9250  173.1950  135.8700 C   0  0  0  0  0  2  0  0  0  0  0  0
  181.4720  175.5910  138.6120 C   0  0  1  0  0  3  0  0  0  0  0  0
  179.7580  173.8150  139.2040 C   0  0  0  0  0  2  0  0  0  0  0  0
  185.6430  175.8620  136.1750 C   0  0  0  0  0  2  0  0  0  0  0  0
  184.3360  173.7550  136.0120 C   0  0  0  0  0  2  0  0  0  0  0  0
  180.5980  174.9890  139.7050 C   0  0  0  0  0  2  0  0  0  0  0  0
  183.4040  179.6440  138.6680 C   0  0  0  0  0  2  0  0  0  0  0  0
  184.2660  175.2330  136.3270 C   0  0  1  0  0  3  0  0  0  0  0  0
  182.3030  176.7610  139.0970 C   0  0  2  0  0  3  0  0  0  0  0  0
  180.7610  174.2810  136.2810 N   0  0  0  0  0  2  0  0  0  0  0  0
  185.5880  178.1080  137.4170 C   0  0  2  0  0  3  0  0  0  0  0  0
  178.9560  174.1690  137.9550 C   0  0  0  0  0  2  0  0  0  0  0  0
  181.9860  179.0960  138.3590 C   0  0  1  0  0  3  0  0  0  0  0  0
  181.5060  178.0010  139.2400 N   0  0  0  0  0  0  0  0  0  0  0  0
  185.5140  177.3780  136.0660 C   0  0  0  0  0  2  0  0  0  0  0  0
  188.0370  178.4110  137.0220 C   0  0  0  0  0  3  0  0  0  0  0  0
  186.9910  178.2120  137.9280 C   0  0  0  0  0  0  0  0  0  0  0  0
  187.2700  178.1060  139.2990 C   0  0  0  0  0  3  0  0  0  0  0  0
  188.9310  178.0700  141.4660 Cl  0  0  0  0  0  0  0  0  0  0  0  0
  189.6290  178.4030  138.8460 C   0  0  0  0  0  3  0  0  0  0  0  0
  188.5870  178.2030  139.7560 C   0  0  0  0  0  0  0  0  0  0  0  0
  189.3540  178.5070  137.4790 C   0  0  0  0  0  3  0  0  0  0  0  0
  179.6680  179.6770  138.1440 O   0  0  0  0  0  1  0  0  0  0  0  0
  180.9590  180.2080  138.1380 C   0  0  1  0  0  3  0  0  0  0  0  0
  181.0690  181.2000  139.1150 O   0  0  0  0  0  0  0  0  0  0  0  0
  179.9410  182.0020  138.9380 C   0  0  0  0  0  1  0  0  0  0  0  0
  181.5870  178.4240  140.6420 C   0  0  0  0  0  2  0  0  0  0  0  0
  180.2140  178.6930  141.2560 C   0  0  2  0  0  3  0  0  0  0  0  0
  180.3130  178.8690  142.7550 C   0  0  0  0  0  1  0  0  0  0  0  0
  179.3030  177.6810  140.9490 O   0  0  0  0  0  1  0  0  0  0  0  0
  1 19  1  0  0  0  0
  2  5  1  0  0  0  0
  2  6  1  0  0  0  0
  4  6  1  0  0  0  0
  5  7  1  0  0  0  0
  5 16  1  0  0  0  0
  6  9  1  0  0  0  0
  7  3  1  0  0  0  0
  8 12  1  0  0  0  0
  8  4  1  0  0  0  0
  9 16  1  0  0  0  0
  9 13  1  0  0  0  0
 10 13  1  0  0  0  0
 11 15  1  0  0  0  0
 12 15  1  0  0  0  0
 14  3  1  0  0  0  0
 15  2  1  0  0  0  0
 16 21  1  0  0  0  0
 17  1  1  0  0  0  0
 17  4  1  0  0  0  0
 18 24  1  0  0  0  0
 18  7  1  0  0  0  0
 19 10  1  0  0  0  0
 20 14  1  0  0  0  0
 20 21  1  0  0  0  0
 21 34  1  0  0  0  0
 22 11  1  0  0  0  0
 22 18  1  0  0  0  0
 23 29  2  0  0  0  0
 23 24  1  0  0  0  0
 24 25  2  0  0  0  0
 25 28  1  0  0  0  0
 27 28  2  0  0  0  0
 28 26  1  0  0  0  0
 29 27  1  0  0  0  0
 31 30  1  0  0  0  0
 31 20  1  0  0  0  0
 31 32  1  0  0  0  0
 33 32  1  0  0  0  0
 34 35  1  0  0  0  0
 35 36  1  0  0  0  0
 37 35  1  0  0  0  0
M  END
>  <MODEL>
4

>  <REMARK>
 VINA RESULT:      -5.4      0.803      1.025
  Name = 
  5 active torsions:
  status: ('A' for Active; 'I' for Inactive)
    1  A    between atoms: C_1  and  C_5
    2  A    between atoms: C_1  and  N_36
    3  A    between atoms: C_6  and  C_31
    4  A    between atoms: O_11  and  C_26
    5  A    between atoms: C_26  and  C_33
                            x       y       z     vdW  Elec       q    Type
                         _______ _______ _______ _____ _____    ______ ____

>  <TORSDO>
F 5

$$$$
=
 OpenBabel11052415223D

 37 42  0  0  1  0  0  0  0  0999 V2000
  184.3220  176.7900  134.5940 C   0  0  0  0  0  2  0  0  0  0  0  0
  184.8480  177.1210  139.2440 C   0  0  1  0  0  3  0  0  0  0  0  0
  182.0840  177.9950  141.6000 O   0  0  0  0  0  0  0  0  0  0  0  0
  185.3850  176.6930  136.6940 C   0  0  2  0  0  3  0  0  0  0  0  0
  183.5700  177.8150  139.6570 C   0  0  2  0  0  3  0  0  0  0  0  0
  184.5040  176.3840  137.9370 C   0  0  2  0  0  3  0  0  0  0  0  0
  183.4360  177.9610  141.1760 C   0  0  1  0  0  3  0  0  0  0  0  0
  186.8170  177.1900  136.9640 C   0  0  0  0  0  2  0  0  0  0  0  0
  183.0090  176.6120  137.6970 C   0  0  1  0  0  3  0  0  0  0  0  0
  182.9010  175.0430  135.7040 C   0  0  0  0  0  2  0  0  0  0  0  0
  186.4160  178.6220  140.4830 C   0  0  0  0  0  2  0  0  0  0  0  0
  187.1480  177.4210  138.4350 C   0  0  0  0  0  2  0  0  0  0  0  0
  182.3330  175.3940  137.0790 C   0  0  0  0  0  2  0  0  0  0  0  0
  181.4210  179.1250  141.0620 C   0  0  0  0  0  2  0  0  0  0  0  0
  185.9890  178.1190  139.1120 C   0  0  1  0  0  3  0  0  0  0  0  0
  182.4470  176.9730  139.0580 C   0  0  2  0  0  3  0  0  0  0  0  0
  184.7190  177.5850  135.7520 N   0  0  0  0  0  2  0  0  0  0  0  0
  184.2720  179.0930  141.8150 C   0  0  2  0  0  3  0  0  0  0  0  0
  182.9080  176.2400  134.7580 C   0  0  0  0  0  2  0  0  0  0  0  0
  181.1680  179.0300  139.5350 C   0  0  1  0  0  3  0  0  0  0  0  0
  181.1380  177.6590  138.9640 N   0  0  0  0  0  0  0  0  0  0  0  0
  185.4280  179.6720  140.9830 C   0  0  0  0  0  2  0  0  0  0  0  0
  183.7980  178.9460  144.2640 C   0  0  0  0  0  3  0  0  0  0  0  0
  184.6940  178.7490  143.2090 C   0  0  0  0  0  0  0  0  0  0  0  0
  185.9750  178.2400  143.4720 C   0  0  0  0  0  3  0  0  0  0  0  0
  187.9480  177.2930  145.1040 Cl  0  0  0  0  0  0  0  0  0  0  0  0
  185.4500  178.1250  145.8320 C   0  0  0  0  0  3  0  0  0  0  0  0
  186.3500  177.9280  144.7810 C   0  0  0  0  0  0  0  0  0  0  0  0
  184.1740  178.6340  145.5740 C   0  0  0  0  0  3  0  0  0  0  0  0
  179.8270  180.9730  139.9650 O   0  0  0  0  0  1  0  0  0  0  0  0
  180.0120  179.9180  139.0710 C   0  0  1  0  0  3  0  0  0  0  0  0
  180.2410  180.4160  137.7860 O   0  0  0  0  0  0  0  0  0  0  0  0
  181.0510  181.5360  137.9780 C   0  0  0  0  0  1  0  0  0  0  0  0
  180.1560  176.8450  139.6890 C   0  0  0  0  0  2  0  0  0  0  0  0
  179.0370  176.3300  138.7850 C   0  0  2  0  0  3  0  0  0  0  0  0
  179.0690  174.8210  138.6840 C   0  0  0  0  0  1  0  0  0  0  0  0
  179.0980  176.8990  137.5110 O   0  0  0  0  0  1  0  0  0  0  0  0
  1 19  1  0  0  0  0
  1 17  1  0  0  0  0
  2  5  1  0  0  0  0
  4  8  1  0  0  0  0
  4  6  1  0  0  0  0
  5  7  1  0  0  0  0
  6  2  1  0  0  0  0
  7  3  1  0  0  0  0
  7 18  1  0  0  0  0
  8 12  1  0  0  0  0
  9  6  1  0  0  0  0
  9 16  1  0  0  0  0
 10 13  1  0  0  0  0
 11 22  1  0  0  0  0
 12 15  1  0  0  0  0
 13  9  1  0  0  0  0
 14  3  1  0  0  0  0
 15  2  1  0  0  0  0
 15 11  1  0  0  0  0
 16  5  1  0  0  0  0
 17  4  1  0  0  0  0
 18 24  1  0  0  0  0
 19 10  1  0  0  0  0
 20 14  1  0  0  0  0
 21 16  1  0  0  0  0
 21 20  1  0  0  0  0
 21 34  1  0  0  0  0
 22 18  1  0  0  0  0
 23 29  1  0  0  0  0
 24 25  1  0  0  0  0
 24 23  2  0  0  0  0
 25 28  2  0  0  0  0
 28 26  1  0  0  0  0
 28 27  1  0  0  0  0
 29 27  2  0  0  0  0
 31 20  1  0  0  0  0
 31 30  1  0  0  0  0
 32 33  1  0  0  0  0
 32 31  1  0  0  0  0
 35 34  1  0  0  0  0
 36 35  1  0  0  0  0
 37 35  1  0  0  0  0
M  END
>  <MODEL>
5

>  <REMARK>
 VINA RESULT:      -4.7      2.678      4.564
  Name = 
  5 active torsions:
  status: ('A' for Active; 'I' for Inactive)
    1  A    between atoms: C_1  and  C_5
    2  A    between atoms: C_1  and  N_36
    3  A    between atoms: C_6  and  C_31
    4  A    between atoms: O_11  and  C_26
    5  A    between atoms: C_26  and  C_33
                            x       y       z     vdW  Elec       q    Type
                         _______ _______ _______ _____ _____    ______ ____

>  <TORSDO>
F 5

$$$$
=
 OpenBabel11052415223D

 37 42  0  0  1  0  0  0  0  0999 V2000
  184.5570  179.9930  144.6960 C   0  0  0  0  0  2  0  0  0  0  0  0
  187.0370  177.5640  141.5420 C   0  0  1  0  0  3  0  0  0  0  0  0
  190.5590  176.4370  142.0750 O   0  0  0  0  0  0  0  0  0  0  0  0
  185.0310  178.8260  142.7060 C   0  0  2  0  0  3  0  0  0  0  0  0
  188.4410  177.6740  142.0930 C   0  0  2  0  0  3  0  0  0  0  0  0
  186.1110  177.7090  142.7630 C   0  0  2  0  0  3  0  0  0  0  0  0
  189.4620  176.8650  141.2870 C   0  0  1  0  0  3  0  0  0  0  0  0
  184.5660  179.2710  141.3080 C   0  0  0  0  0  2  0  0  0  0  0  0
  187.0280  177.8080  143.9860 C   0  0  1  0  0  3  0  0  0  0  0  0
  185.1140  177.7410  145.6540 C   0  0  0  0  0  2  0  0  0  0  0  0
  187.5820  178.2460  139.2000 C   0  0  0  0  0  2  0  0  0  0  0  0
  185.3170  178.6280  140.1470 C   0  0  0  0  0  2  0  0  0  0  0  0
  186.4350  177.1140  145.2060 C   0  0  0  0  0  2  0  0  0  0  0  0
  191.2810  177.5500  142.5710 C   0  0  0  0  0  2  0  0  0  0  0  0
  186.7980  178.6020  140.4550 C   0  0  1  0  0  3  0  0  0  0  0  0
  188.3410  177.1980  143.5390 C   0  0  2  0  0  3  0  0  0  0  0  0
  185.3980  179.9910  143.5040 N   0  0  0  0  0  2  0  0  0  0  0  0
  189.9200  177.5030  139.9560 C   0  0  2  0  0  3  0  0  0  0  0  0
  185.2270  179.2500  145.8480 C   0  0  0  0  0  2  0  0  0  0  0  0
  190.5230  178.3460  143.6660 C   0  0  1  0  0  3  0  0  0  0  0  0
  189.4730  177.5990  144.4050 N   0  0  0  0  0  0  0  0  0  0  0  0
  189.0480  178.6280  139.3760 C   0  0  0  0  0  2  0  0  0  0  0  0
  189.2340  175.8870  138.1780 C   0  0  0  0  0  3  0  0  0  0  0  0
  190.2590  176.4650  138.9320 C   0  0  0  0  0  0  0  0  0  0  0  0
  191.5860  176.0610  138.7240 C   0  0  0  0  0  3  0  0  0  0  0  0
  193.5380  174.5870  137.5100 Cl  0  0  0  0  0  0  0  0  0  0  0  0
  190.8530  174.5140  137.0130 C   0  0  0  0  0  3  0  0  0  0  0  0
  191.8810  175.0880  137.7650 C   0  0  0  0  0  0  0  0  0  0  0  0
  189.5290  174.9140  137.2190 C   0  0  0  0  0  3  0  0  0  0  0  0
  192.7860  178.7710  144.3430 O   0  0  0  0  0  1  0  0  0  0  0  0
  191.4610  179.1500  144.5680 C   0  0  1  0  0  3  0  0  0  0  0  0
  191.3160  180.5220  144.3540 O   0  0  0  0  0  0  0  0  0  0  0  0
  190.3150  180.6290  143.3870 C   0  0  0  0  0  1  0  0  0  0  0  0
  190.0490  176.3780  144.9790 C   0  0  0  0  0  2  0  0  0  0  0  0
  190.2530  176.4780  146.4890 C   0  0  2  0  0  3  0  0  0  0  0  0
  189.3550  177.5360  147.0920 C   0  0  0  0  0  1  0  0  0  0  0  0
  191.5860  176.7350  146.8160 O   0  0  0  0  0  1  0  0  0  0  0  0
  1 19  1  0  0  0  0
  2  5  1  0  0  0  0
  2  6  1  0  0  0  0
  3 14  1  0  0  0  0
  4  6  1  0  0  0  0
  4 17  1  0  0  0  0
  5 16  1  0  0  0  0
  6  9  1  0  0  0  0
  7  3  1  0  0  0  0
  7  5  1  0  0  0  0
  8  4  1  0  0  0  0
  9 13  1  0  0  0  0
 10 19  1  0  0  0  0
 11 22  1  0  0  0  0
 11 15  1  0  0  0  0
 12 15  1  0  0  0  0
 12  8  1  0  0  0  0
 13 10  1  0  0  0  0
 14 20  1  0  0  0  0
 15  2  1  0  0  0  0
 16  9  1  0  0  0  0
 16 21  1  0  0  0  0
 17  1  1  0  0  0  0
 18  7  1  0  0  0  0
 20 21  1  0  0  0  0
 20 31  1  0  0  0  0
 21 34  1  0  0  0  0
 22 18  1  0  0  0  0
 23 24  1  0  0  0  0
 24 18  1  0  0  0  0
 25 24  2  0  0  0  0
 26 28  1  0  0  0  0
 27 29  1  0  0  0  0
 27 28  2  0  0  0  0
 28 25  1  0  0  0  0
 29 23  2  0  0  0  0
 30 31  1  0  0  0  0
 32 31  1  0  0  0  0
 33 32  1  0  0  0  0
 34 35  1  0  0  0  0
 35 37  1  0  0  0  0
 35 36  1  0  0  0  0
M  END
>  <MODEL>
6

>  <REMARK>
 VINA RESULT:      -4.1      5.735      8.303
  Name = 
  5 active torsions:
  status: ('A' for Active; 'I' for Inactive)
    1  A    between atoms: C_1  and  C_5
    2  A    between atoms: C_1  and  N_36
    3  A    between atoms: C_6  and  C_31
    4  A    between atoms: O_11  and  C_26
    5  A    between atoms: C_26  and  C_33
                            x       y       z     vdW  Elec       q    Type
                         _______ _______ _______ _____ _____    ______ ____

>  <TORSDO>
F 5

$$$$
=
 OpenBabel11052415223D

 37 42  0  0  1  0  0  0  0  0999 V2000
  189.9230  174.7430  137.1540 C   0  0  0  0  0  2  0  0  0  0  0  0
  186.3170  177.6570  137.8680 C   0  0  1  0  0  3  0  0  0  0  0  0
  185.5800  179.3030  141.1400 O   0  0  0  0  0  0  0  0  0  0  0  0
  188.0270  176.0500  136.6580 C   0  0  2  0  0  3  0  0  0  0  0  0
  186.2790  177.7480  139.3770 C   0  0  2  0  0  3  0  0  0  0  0  0
  187.7770  177.3190  137.5190 C   0  0  2  0  0  3  0  0  0  0  0  0
  185.2290  178.7390  139.8880 C   0  0  1  0  0  3  0  0  0  0  0  0
  186.8740  175.5920  135.7460 C   0  0  0  0  0  2  0  0  0  0  0  0
  188.5450  177.3180  138.8450 C   0  0  1  0  0  3  0  0  0  0  0  0
  190.8120  177.0160  137.7430 C   0  0  0  0  0  2  0  0  0  0  0  0
  183.8890  177.1630  137.5390 C   0  0  0  0  0  2  0  0  0  0  0  0
  185.5840  176.3920  135.8940 C   0  0  0  0  0  2  0  0  0  0  0  0
  189.9600  177.8600  138.6910 C   0  0  0  0  0  2  0  0  0  0  0  0
  185.6530  178.2990  142.1360 C   0  0  0  0  0  2  0  0  0  0  0  0
  185.3060  176.6390  137.3610 C   0  0  1  0  0  3  0  0  0  0  0  0
  187.6950  178.1440  139.7880 C   0  0  2  0  0  3  0  0  0  0  0  0
  188.5070  174.9260  137.4540 N   0  0  0  0  0  2  0  0  0  0  0  0
  183.7690  178.2350  139.8690 C   0  0  2  0  0  3  0  0  0  0  0  0
  190.8010  175.5370  138.1180 C   0  0  0  0  0  2  0  0  0  0  0  0
  186.8690  177.3510  141.9760 C   0  0  1  0  0  3  0  0  0  0  0  0
  188.0210  177.8920  141.2110 N   0  0  0  0  0  0  0  0  0  0  0  0
  183.4560  177.0100  138.9940 C   0  0  0  0  0  2  0  0  0  0  0  0
  183.1550  180.4060  138.7940 C   0  0  0  0  0  3  0  0  0  0  0  0
  182.8000  179.3540  139.6440 C   0  0  0  0  0  0  0  0  0  0  0  0
  181.5480  179.3640  140.2760 C   0  0  0  0  0  3  0  0  0  0  0  0
  179.0980  180.4270  140.8450 Cl  0  0  0  0  0  0  0  0  0  0  0  0
  181.0170  181.4680  139.2020 C   0  0  0  0  0  3  0  0  0  0  0  0
  180.6580  180.4190  140.0540 C   0  0  0  0  0  0  0  0  0  0  0  0
  182.2650  181.4610  138.5720 C   0  0  0  0  0  3  0  0  0  0  0  0
  188.4690  175.9830  143.1290 O   0  0  0  0  0  1  0  0  0  0  0  0
  187.2650  176.6690  143.2880 C   0  0  1  0  0  3  0  0  0  0  0  0
  187.3790  177.5980  144.3250 O   0  0  0  0  0  0  0  0  0  0  0  0
  188.3010  177.0350  145.2080 C   0  0  0  0  0  1  0  0  0  0  0  0
  188.4500  179.1650  141.8000 C   0  0  0  0  0  2  0  0  0  0  0  0
  189.8940  179.1260  142.2970 C   0  0  2  0  0  3  0  0  0  0  0  0
  190.5520  177.8070  141.9580 C   0  0  0  0  0  1  0  0  0  0  0  0
  189.9760  179.3660  143.6700 O   0  0  0  0  0  1  0  0  0  0  0  0
  1 17  1  0  0  0  0
  1 19  1  0  0  0  0
  2  5  1  0  0  0  0
  3 14  1  0  0  0  0
  4 17  1  0  0  0  0
  4  6  1  0  0  0  0
  5 16  1  0  0  0  0
  5  7  1  0  0  0  0
  6  2  1  0  0  0  0
  6  9  1  0  0  0  0
  7  3  1  0  0  0  0
  8 12  1  0  0  0  0
  8  4  1  0  0  0  0
  9 16  1  0  0  0  0
 10 19  1  0  0  0  0
 10 13  1  0  0  0  0
 11 22  1  0  0  0  0
 12 15  1  0  0  0  0
 13  9  1  0  0  0  0
 15 11  1  0  0  0  0
 15  2  1  0  0  0  0
 16 21  1  0  0  0  0
 18  7  1  0  0  0  0
 20 14  1  0  0  0  0
 20 31  1  0  0  0  0
 21 34  1  0  0  0  0
 21 20  1  0  0  0  0
 22 18  1  0  0  0  0
 23 24  1  0  0  0  0
 24 18  1  0  0  0  0
 24 25  2  0  0  0  0
 27 28  2  0  0  0  0
 28 25  1  0  0  0  0
 28 26  1  0  0  0  0
 29 23  2  0  0  0  0
 29 27  1  0  0  0  0
 30 31  1  0  0  0  0
 31 32  1  0  0  0  0
 32 33  1  0  0  0  0
 34 35  1  0  0  0  0
 35 37  1  0  0  0  0
 36 35  1  0  0  0  0
M  END
>  <MODEL>
7

>  <REMARK>
 VINA RESULT:      -4.0      3.630      7.516
  Name = 
  5 active torsions:
  status: ('A' for Active; 'I' for Inactive)
    1  A    between atoms: C_1  and  C_5
    2  A    between atoms: C_1  and  N_36
    3  A    between atoms: C_6  and  C_31
    4  A    between atoms: O_11  and  C_26
    5  A    between atoms: C_26  and  C_33
                            x       y       z     vdW  Elec       q    Type
                         _______ _______ _______ _____ _____    ______ ____

>  <TORSDO>
F 5

$$$$
=
 OpenBabel11052415223D

 37 42  0  0  1  0  0  0  0  0999 V2000
  182.8640  178.6570  141.5110 C   0  0  0  0  0  2  0  0  0  0  0  0
  186.4930  178.0350  138.6060 C   0  0  1  0  0  3  0  0  0  0  0  0
  186.3780  175.8850  135.5530 O   0  0  0  0  0  0  0  0  0  0  0  0
  185.0240  178.9250  140.6110 C   0  0  2  0  0  3  0  0  0  0  0  0
  186.0370  176.8530  137.7800 C   0  0  2  0  0  3  0  0  0  0  0  0
  185.2000  178.7200  139.0800 C   0  0  2  0  0  3  0  0  0  0  0  0
  187.0180  176.4940  136.6600 C   0  0  1  0  0  3  0  0  0  0  0  0
  186.3100  179.0030  141.4530 C   0  0  0  0  0  2  0  0  0  0  0  0
  184.0440  177.9530  138.4300 C   0  0  1  0  0  3  0  0  0  0  0  0
  182.2660  179.5680  139.2500 C   0  0  0  0  0  2  0  0  0  0  0  0
  188.7540  177.1390  139.1840 C   0  0  0  0  0  2  0  0  0  0  0  0
  187.6000  178.7550  140.6780 C   0  0  0  0  0  2  0  0  0  0  0  0
  182.8910  178.8690  138.0420 C   0  0  0  0  0  2  0  0  0  0  0  0
  185.7890  174.6540  135.9330 C   0  0  0  0  0  2  0  0  0  0  0  0
  187.4080  177.5860  139.7360 C   0  0  1  0  0  3  0  0  0  0  0  0
  184.6660  177.2490  137.2410 C   0  0  2  0  0  3  0  0  0  0  0  0
  184.1040  177.9560  141.1960 N   0  0  0  0  0  2  0  0  0  0  0  0
  188.2800  175.7180  137.0990 C   0  0  2  0  0  3  0  0  0  0  0  0
  181.8760  178.5860  140.3500 C   0  0  0  0  0  2  0  0  0  0  0  0
  184.5440  174.8150  136.8430 C   0  0  1  0  0  3  0  0  0  0  0  0
  183.8390  176.1190  136.7580 N   0  0  0  0  0  0  0  0  0  0  0  0
  188.6360  175.7370  138.5950 C   0  0  0  0  0  2  0  0  0  0  0  0
  189.4160  177.1700  135.4130 C   0  0  0  0  0  3  0  0  0  0  0  0
  189.4570  176.0390  136.2330 C   0  0  0  0  0  0  0  0  0  0  0  0
  190.5960  175.2190  136.2290 C   0  0  0  0  0  3  0  0  0  0  0  0
  193.1020  174.5110  135.4080 Cl  0  0  0  0  0  0  0  0  0  0  0  0
  191.6390  176.6690  134.5940 C   0  0  0  0  0  3  0  0  0  0  0  0
  191.6850  175.5360  135.4100 C   0  0  0  0  0  0  0  0  0  0  0  0
  190.5050  177.4870  134.5950 C   0  0  0  0  0  3  0  0  0  0  0  0
  183.3310  173.2720  135.4620 O   0  0  0  0  0  1  0  0  0  0  0  0
  183.6120  173.6030  136.7890 C   0  0  1  0  0  3  0  0  0  0  0  0
  184.1710  172.5050  137.4460 O   0  0  0  0  0  0  0  0  0  0  0  0
  183.5260  171.3950  136.8980 C   0  0  0  0  0  1  0  0  0  0  0  0
  183.4810  176.3950  135.3620 C   0  0  0  0  0  2  0  0  0  0  0  0
  181.9740  176.5470  135.1600 C   0  0  2  0  0  3  0  0  0  0  0  0
  181.6230  177.9460  134.7040 C   0  0  0  0  0  1  0  0  0  0  0  0
  181.2620  176.2260  136.3180 O   0  0  0  0  0  1  0  0  0  0  0  0
  2  6  1  0  0  0  0
  2 15  1  0  0  0  0
  3 14  1  0  0  0  0
  3  7  1  0  0  0  0
  4 17  1  0  0  0  0
  4  8  1  0  0  0  0
  5  2  1  0  0  0  0
  6  4  1  0  0  0  0
  7 18  1  0  0  0  0
  7  5  1  0  0  0  0
  9  6  1  0  0  0  0
 10 19  1  0  0  0  0
 11 15  1  0  0  0  0
 12  8  1  0  0  0  0
 13  9  1  0  0  0  0
 13 10  1  0  0  0  0
 14 20  1  0  0  0  0
 15 12  1  0  0  0  0
 16  5  1  0  0  0  0
 16  9  1  0  0  0  0
 17  1  1  0  0  0  0
 18 22  1  0  0  0  0
 19  1  1  0  0  0  0
 21 20  1  0  0  0  0
 21 16  1  0  0  0  0
 22 11  1  0  0  0  0
 23 24  1  0  0  0  0
 24 18  1  0  0  0  0
 25 24  2  0  0  0  0
 26 28  1  0  0  0  0
 27 29  1  0  0  0  0
 27 28  2  0  0  0  0
 28 25  1  0  0  0  0
 29 23  2  0  0  0  0
 30 31  1  0  0  0  0
 31 20  1  0  0  0  0
 31 32  1  0  0  0  0
 33 32  1  0  0  0  0
 34 21  1  0  0  0  0
 35 34  1  0  0  0  0
 35 37  1  0  0  0  0
 36 35  1  0  0  0  0
M  END
>  <MODEL>
8

>  <REMARK>
 VINA RESULT:      -3.8      3.143      5.926
  Name = 
  5 active torsions:
  status: ('A' for Active; 'I' for Inactive)
    1  A    between atoms: C_1  and  C_5
    2  A    between atoms: C_1  and  N_36
    3  A    between atoms: C_6  and  C_31
    4  A    between atoms: O_11  and  C_26
    5  A    between atoms: C_26  and  C_33
                            x       y       z     vdW  Elec       q    Type
                         _______ _______ _______ _____ _____    ______ ____

>  <TORSDO>
F 5

$$$$
=
 OpenBabel11052415223D

 37 42  0  0  1  0  0  0  0  0999 V2000
  187.5590  178.7270  148.8120 C   0  0  0  0  0  2  0  0  0  0  0  0
  185.9340  177.8370  144.5040 C   0  0  1  0  0  3  0  0  0  0  0  0
  188.1160  177.1600  141.5480 O   0  0  0  0  0  0  0  0  0  0  0  0
  185.9940  178.3370  147.0950 C   0  0  2  0  0  3  0  0  0  0  0  0
  187.1800  177.9840  143.6600 C   0  0  2  0  0  3  0  0  0  0  0  0
  186.4360  177.4430  145.9030 C   0  0  2  0  0  3  0  0  0  0  0  0
  186.9450  177.6400  142.1860 C   0  0  1  0  0  3  0  0  0  0  0  0
  184.6830  179.1240  146.9230 C   0  0  0  0  0  2  0  0  0  0  0  0
  187.9560  177.2900  145.7850 C   0  0  1  0  0  3  0  0  0  0  0  0
  188.2350  176.4020  148.1470 C   0  0  0  0  0  2  0  0  0  0  0  0
  184.4590  179.3000  143.1140 C   0  0  0  0  0  2  0  0  0  0  0  0
  184.0400  179.0060  145.5450 C   0  0  0  0  0  2  0  0  0  0  0  0
  188.4910  176.1630  146.6590 C   0  0  0  0  0  2  0  0  0  0  0  0
  189.1220  178.1570  141.5370 C   0  0  0  0  0  2  0  0  0  0  0  0
  185.1070  179.1140  144.4780 C   0  0  1  0  0  3  0  0  0  0  0  0
  188.2110  177.0650  144.3090 C   0  0  2  0  0  3  0  0  0  0  0  0
  187.0570  179.2320  147.5390 N   0  0  0  0  0  2  0  0  0  0  0  0
  186.2350  178.7290  141.3500 C   0  0  2  0  0  3  0  0  0  0  0  0
  188.7310  177.7700  148.6060 C   0  0  0  0  0  2  0  0  0  0  0  0
  189.7340  178.4380  142.9340 C   0  0  1  0  0  3  0  0  0  0  0  0
  189.6150  177.3430  143.9290 N   0  0  0  0  0  0  0  0  0  0  0  0
  185.4850  179.8300  142.1170 C   0  0  0  0  0  2  0  0  0  0  0  0
  185.9000  178.1180  138.9500 C   0  0  0  0  0  3  0  0  0  0  0  0
  185.4040  178.1340  140.2570 C   0  0  0  0  0  0  0  0  0  0  0  0
  184.1350  177.5990  140.5250 C   0  0  0  0  0  3  0  0  0  0  0  0
  181.7900  176.3840  139.8270 Cl  0  0  0  0  0  0  0  0  0  0  0  0
  183.8740  177.0350  138.1840 C   0  0  0  0  0  3  0  0  0  0  0  0
  183.3730  177.0500  139.4890 C   0  0  0  0  0  0  0  0  0  0  0  0
  185.1380  177.5690  137.9150 C   0  0  0  0  0  3  0  0  0  0  0  0
  191.4170  179.7570  144.0230 O   0  0  0  0  0  1  0  0  0  0  0  0
  191.1340  179.0510  142.8530 C   0  0  1  0  0  3  0  0  0  0  0  0
  192.1040  178.0690  142.6430 O   0  0  0  0  0  0  0  0  0  0  0  0
  192.1400  177.8930  141.2590 C   0  0  0  0  0  1  0  0  0  0  0  0
  190.1780  176.1080  143.3730 C   0  0  0  0  0  2  0  0  0  0  0  0
  191.1430  175.4160  144.3340 C   0  0  2  0  0  3  0  0  0  0  0  0
  191.6140  176.3660  145.4130 C   0  0  0  0  0  1  0  0  0  0  0  0
  192.2390  174.8690  143.6630 O   0  0  0  0  0  1  0  0  0  0  0  0
  2  6  1  0  0  0  0
  3  7  1  0  0  0  0
  4 17  1  0  0  0  0
  5 16  1  0  0  0  0
  5  2  1  0  0  0  0
  6  4  1  0  0  0  0
  7  5  1  0  0  0  0
  8  4  1  0  0  0  0
  9  6  1  0  0  0  0
  9 13  1  0  0  0  0
 10 19  1  0  0  0  0
 11 15  1  0  0  0  0
 12  8  1  0  0  0  0
 13 10  1  0  0  0  0
 14  3  1  0  0  0  0
 14 20  1  0  0  0  0
 15  2  1  0  0  0  0
 15 12  1  0  0  0  0
 16  9  1  0  0  0  0
 17  1  1  0  0  0  0
 18 22  1  0  0  0  0
 18  7  1  0  0  0  0
 19  1  1  0  0  0  0
 20 21  1  0  0  0  0
 21 16  1  0  0  0  0
 22 11  1  0  0  0  0
 23 24  1  0  0  0  0
 24 25  2  0  0  0  0
 24 18  1  0  0  0  0
 27 28  2  0  0  0  0
 28 26  1  0  0  0  0
 28 25  1  0  0  0  0
 29 27  1  0  0  0  0
 29 23  2  0  0  0  0
 31 20  1  0  0  0  0
 31 30  1  0  0  0  0
 32 31  1  0  0  0  0
 33 32  1  0  0  0  0
 34 21  1  0  0  0  0
 34 35  1  0  0  0  0
 35 36  1  0  0  0  0
 37 35  1  0  0  0  0
M  END
>  <MODEL>
9

>  <REMARK>
 VINA RESULT:      -3.7      5.801      9.529
  Name = 
  5 active torsions:
  status: ('A' for Active; 'I' for Inactive)
    1  A    between atoms: C_1  and  C_5
    2  A    between atoms: C_1  and  N_36
    3  A    between atoms: C_6  and  C_31
    4  A    between atoms: O_11  and  C_26
    5  A    between atoms: C_26  and  C_33
                            x       y       z     vdW  Elec       q    Type
                         _______ _______ _______ _____ _____    ______ ____

>  <TORSDO>
F 5

$$$$
