=
 OpenBabel11052414113D

 34 39  0  0  1  0  0  0  0  0999 V2000
  188.0370  177.3750  145.4700 C   0  0  0  0  0  0  0  0  0  0  0  0
  185.9240  178.4870  146.0050 C   0  0  0  0  0  0  0  0  0  0  0  0
  186.3920  177.7060  143.7430 C   0  0  0  0  0  0  0  0  0  0  0  0
  184.4800  178.2150  142.0530 C   0  0  2  0  0  3  0  0  0  0  0  0
  187.5990  178.1460  147.7260 C   0  0  0  0  0  3  0  0  0  0  0  0
  186.3420  178.6280  147.3310 C   0  0  0  0  0  3  0  0  0  0  0  0
  184.2440  178.8130  144.2840 C   0  0  0  0  0  0  0  0  0  0  0  0
  186.7820  177.8590  145.0770 C   0  0  0  0  0  0  0  0  0  0  0  0
  183.1570  178.8530  142.2120 N   0  0  0  0  0  2  0  0  0  0  0  0
  188.4450  177.5210  146.7990 C   0  0  0  0  0  3  0  0  0  0  0  0
  188.4400  176.6330  143.2580 C   0  0  0  0  0  3  0  0  0  0  0  0
  188.8400  176.7730  144.5540 N   0  0  0  0  0  0  0  0  0  0  0  0
  184.5970  178.9810  145.5660 C   0  0  0  0  0  3  0  0  0  0  0  0
  182.9890  179.2270  143.6280 C   0  0  1  0  0  3  0  0  0  0  0  0
  185.1110  178.2160  143.3550 N   0  0  0  0  0  0  0  0  0  0  0  0
  187.2240  177.0970  142.8570 N   0  0  0  0  0  0  0  0  0  0  0  0
  181.7960  178.4780  144.2010 C   0  0  0  0  0  2  0  0  0  0  0  0
  180.5000  179.0470  143.6580 C   0  0  0  0  0  2  0  0  0  0  0  0
  179.7330  177.9570  142.9410 C   0  0  0  0  0  2  0  0  0  0  0  0
  179.7010  178.2450  141.5170 N   0  0  0  0  0  2  0  0  0  0  0  0
  180.9000  176.7200  140.1930 O   0  0  0  0  0  1  0  0  0  0  0  0
  179.6720  176.9650  140.8180 C   0  0  1  0  0  3  0  0  0  0  0  0
  179.3060  175.9050  141.6770 O   0  0  0  0  0  0  0  0  0  0  0  0
  179.3080  173.5290  141.8730 C   0  0  0  0  0  1  0  0  0  0  0  0
  179.2690  174.7150  140.9330 C   0  0  0  0  0  2  0  0  0  0  0  0
  185.3200  179.0160  141.0680 C   0  0  0  0  0  2  0  0  0  0  0  0
  186.0780  176.9030  136.8320 C   0  0  0  0  0  3  0  0  0  0  0  0
  186.9670  177.5590  137.6190 C   0  0  0  0  0  3  0  0  0  0  0  0
  184.4630  178.0420  138.9900 C   0  0  1  0  0  3  0  0  0  0  0  0
  186.6060  178.4450  138.6930 N   0  0  0  0  0  2  0  0  0  0  0  0
  183.7410  177.8200  137.7020 C   0  0  0  0  0  2  0  0  0  0  0  0
  185.3830  179.1090  138.5840 N   0  0  2  0  0  0  0  0  0  0  0  0
  184.5390  179.2620  139.7830 C   0  0  2  0  0  3  0  0  0  0  0  0
  184.5560  176.7510  136.9500 C   0  0  0  0  0  2  0  0  0  0  0  0
  1 10  2  0  0  0  0
  2  6  1  0  0  0  0
  3  8  1  0  0  0  0
  4 26  1  6  0  0  0
  4  9  1  0  0  0  0
  4 15  1  0  0  0  0
  6  5  2  0  0  0  0
  7 13  2  0  0  0  0
  8  1  1  0  0  0  0
  8  2  2  0  0  0  0
  9 14  1  0  0  0  0
 10  5  1  0  0  0  0
 11 12  2  0  0  0  0
 12  1  1  0  0  0  0
 13  2  1  0  0  0  0
 14 17  1  1  0  0  0
 14  7  1  0  0  0  0
 15  3  1  0  0  0  0
 15  7  1  0  0  0  0
 16 11  1  0  0  0  0
 16  3  2  0  0  0  0
 18 17  1  0  0  0  0
 19 18  1  0  0  0  0
 20 19  1  0  0  0  0
 22 21  1  1  0  0  0
 22 20  1  0  0  0  0
 22 23  1  0  0  0  0
 25 23  1  0  0  0  0
 25 24  1  0  0  0  0
 27 34  1  0  0  0  0
 27 28  2  0  0  0  0
 28 30  1  0  0  0  0
 29 31  1  6  0  0  0
 29 33  1  0  0  0  0
 32 30  1  1  0  0  0
 32 29  1  0  0  0  0
 32 33  1  0  0  0  0
 33 26  1  1  0  0  0
 34 31  1  0  0  0  0
M  END
>  <MODEL>
1

>  <REMARK>
 VINA RESULT:      -8.8      0.000      0.000
  Name = 
  9 active torsions:
  status: ('A' for Active; 'I' for Inactive)
    1  A    between atoms: C_3  and  C_13
    2  A    between atoms: C_3  and  C_17
    3  A    between atoms: C_5  and  C_26
    4  A    between atoms: C_13  and  N_33
    5  A    between atoms: C_14  and  O_20
    6  A    between atoms: C_17  and  C_29
    7  A    between atoms: O_20  and  C_34
    8  A    between atoms: C_26  and  C_28
    9  A    between atoms: N_33  and  C_34
                            x       y       z     vdW  Elec       q    Type
                         _______ _______ _______ _____ _____    ______ ____

>  <TORSDO>
F 9

$$$$
=
 OpenBabel11052414113D

 34 39  0  0  1  0  0  0  0  0999 V2000
  188.4540  177.1680  145.3370 C   0  0  0  0  0  0  0  0  0  0  0  0
  186.4190  178.3380  146.0300 C   0  0  0  0  0  0  0  0  0  0  0  0
  186.7220  177.6060  143.7240 C   0  0  0  0  0  0  0  0  0  0  0  0
  184.7320  178.2290  142.1670 C   0  0  2  0  0  3  0  0  0  0  0  0
  188.1800  177.8890  147.6360 C   0  0  0  0  0  3  0  0  0  0  0  0
  186.9210  178.4260  147.3310 C   0  0  0  0  0  3  0  0  0  0  0  0
  184.6520  178.7710  144.4240 C   0  0  0  0  0  0  0  0  0  0  0  0
  187.1960  177.7060  145.0350 C   0  0  0  0  0  0  0  0  0  0  0  0
  183.4450  178.9090  142.4230 N   0  0  0  0  0  2  0  0  0  0  0  0
  188.9460  177.2610  146.6420 C   0  0  0  0  0  3  0  0  0  0  0  0
  188.6950  176.4750  143.0860 C   0  0  0  0  0  3  0  0  0  0  0  0
  189.1780  176.5640  144.3580 N   0  0  0  0  0  0  0  0  0  0  0  0
  185.0870  178.8910  145.6860 C   0  0  0  0  0  3  0  0  0  0  0  0
  183.3760  179.2480  143.8560 C   0  0  1  0  0  3  0  0  0  0  0  0
  185.4390  178.1710  143.4280 N   0  0  0  0  0  0  0  0  0  0  0  0
  187.4760  176.9930  142.7720 N   0  0  0  0  0  0  0  0  0  0  0  0
  182.1930  178.5250  144.4820 C   0  0  0  0  0  2  0  0  0  0  0  0
  180.8890  179.1550  144.0340 C   0  0  0  0  0  2  0  0  0  0  0  0
  179.8000  178.1040  144.0190 C   0  0  0  0  0  2  0  0  0  0  0  0
  178.9490  178.3040  142.8590 N   0  0  0  0  0  2  0  0  0  0  0  0
  179.3270  176.4610  141.4540 O   0  0  0  0  0  1  0  0  0  0  0  0
  179.6730  177.7940  141.6990 C   0  0  1  0  0  3  0  0  0  0  0  0
  179.4710  178.6020  140.5580 O   0  0  0  0  0  0  0  0  0  0  0  0
  181.0330  179.9510  139.3660 C   0  0  0  0  0  1  0  0  0  0  0  0
  180.2830  179.7410  140.6640 C   0  0  0  0  0  2  0  0  0  0  0  0
  185.5390  179.0280  141.1550 C   0  0  0  0  0  2  0  0  0  0  0  0
  186.0240  176.8550  136.9090 C   0  0  0  0  0  3  0  0  0  0  0  0
  186.9720  177.4840  137.6480 C   0  0  0  0  0  3  0  0  0  0  0  0
  184.5520  178.0700  139.1280 C   0  0  1  0  0  3  0  0  0  0  0  0
  186.6930  178.3910  138.7280 N   0  0  0  0  0  2  0  0  0  0  0  0
  183.7640  177.8640  137.8760 C   0  0  0  0  0  2  0  0  0  0  0  0
  185.4910  179.0990  138.6690 N   0  0  2  0  0  0  0  0  0  0  0  0
  184.7090  179.2920  139.9050 C   0  0  2  0  0  3  0  0  0  0  0  0
  184.5040  176.7610  137.0980 C   0  0  0  0  0  2  0  0  0  0  0  0
  1 10  2  0  0  0  0
  2  6  1  0  0  0  0
  3  8  1  0  0  0  0
  4 26  1  6  0  0  0
  4  9  1  0  0  0  0
  4 15  1  0  0  0  0
  6  5  2  0  0  0  0
  7 13  2  0  0  0  0
  8  1  1  0  0  0  0
  8  2  2  0  0  0  0
  9 14  1  0  0  0  0
 10  5  1  0  0  0  0
 11 12  2  0  0  0  0
 12  1  1  0  0  0  0
 13  2  1  0  0  0  0
 14  7  1  0  0  0  0
 14 17  1  1  0  0  0
 15  3  1  0  0  0  0
 15  7  1  0  0  0  0
 16 11  1  0  0  0  0
 16  3  2  0  0  0  0
 18 17  1  0  0  0  0
 19 18  1  0  0  0  0
 20 19  1  0  0  0  0
 22 21  1  6  0  0  0
 22 20  1  0  0  0  0
 23 25  1  0  0  0  0
 23 22  1  0  0  0  0
 24 25  1  0  0  0  0
 27 34  1  0  0  0  0
 27 28  2  0  0  0  0
 28 30  1  0  0  0  0
 29 31  1  6  0  0  0
 29 33  1  0  0  0  0
 32 30  1  1  0  0  0
 32 29  1  0  0  0  0
 32 33  1  0  0  0  0
 33 26  1  1  0  0  0
 34 31  1  0  0  0  0
M  END
>  <MODEL>
2

>  <REMARK>
 VINA RESULT:      -8.7      1.114      1.704
  Name = 
  9 active torsions:
  status: ('A' for Active; 'I' for Inactive)
    1  A    between atoms: C_3  and  C_13
    2  A    between atoms: C_3  and  C_17
    3  A    between atoms: C_5  and  C_26
    4  A    between atoms: C_13  and  N_33
    5  A    between atoms: C_14  and  O_20
    6  A    between atoms: C_17  and  C_29
    7  A    between atoms: O_20  and  C_34
    8  A    between atoms: C_26  and  C_28
    9  A    between atoms: N_33  and  C_34
                            x       y       z     vdW  Elec       q    Type
                         _______ _______ _______ _____ _____    ______ ____

>  <TORSDO>
F 9

$$$$
=
 OpenBabel11052414113D

 34 39  0  0  1  0  0  0  0  0999 V2000
  184.2840  178.8220  142.5610 C   0  0  0  0  0  0  0  0  0  0  0  0
  186.1600  178.2090  144.0060 C   0  0  0  0  0  0  0  0  0  0  0  0
  186.4790  178.5420  141.6120 C   0  0  0  0  0  0  0  0  0  0  0  0
  188.9270  178.1450  140.8250 C   0  0  2  0  0  3  0  0  0  0  0  0
  183.9390  178.4910  144.9380 C   0  0  0  0  0  3  0  0  0  0  0  0
  185.2990  178.1940  145.1070 C   0  0  0  0  0  3  0  0  0  0  0  0
  188.3850  177.9420  143.0750 C   0  0  0  0  0  0  0  0  0  0  0  0
  185.6420  178.5230  142.7320 C   0  0  0  0  0  0  0  0  0  0  0  0
  190.1610  177.7910  141.5570 N   0  0  0  0  0  2  0  0  0  0  0  0
  183.4310  178.8050  143.6690 C   0  0  0  0  0  3  0  0  0  0  0  0
  184.6480  179.1380  140.2430 C   0  0  0  0  0  3  0  0  0  0  0  0
  183.8140  179.1220  141.3220 N   0  0  0  0  0  0  0  0  0  0  0  0
  187.6040  177.9060  144.1630 C   0  0  0  0  0  3  0  0  0  0  0  0
  189.8340  177.6710  142.9890 C   0  0  1  0  0  3  0  0  0  0  0  0
  187.8630  178.2240  141.8020 N   0  0  0  0  0  0  0  0  0  0  0  0
  185.9710  178.8490  140.3890 N   0  0  0  0  0  0  0  0  0  0  0  0
  190.6320  178.7030  143.7700 C   0  0  0  0  0  2  0  0  0  0  0  0
  191.7550  178.0360  144.5390 C   0  0  0  0  0  2  0  0  0  0  0  0
  191.2820  176.6950  145.0580 C   0  0  0  0  0  2  0  0  0  0  0  0
  192.0830  176.3120  146.2090 N   0  0  0  0  0  2  0  0  0  0  0  0
  191.7380  177.3260  148.2980 O   0  0  0  0  0  1  0  0  0  0  0  0
  191.2230  176.4020  147.3830 C   0  0  1  0  0  3  0  0  0  0  0  0
  189.8880  176.7060  147.0340 O   0  0  0  0  0  0  0  0  0  0  0  0
  187.9030  177.6960  147.9080 C   0  0  0  0  0  1  0  0  0  0  0  0
  189.4170  177.7120  147.8930 C   0  0  0  0  0  2  0  0  0  0  0  0
  188.6130  177.0650  139.8000 C   0  0  0  0  0  2  0  0  0  0  0  0
  190.6660  174.4640  136.3360 C   0  0  0  0  0  3  0  0  0  0  0  0
  191.0890  174.6560  137.6100 C   0  0  0  0  0  3  0  0  0  0  0  0
  188.8310  176.4610  137.4360 C   0  0  1  0  0  3  0  0  0  0  0  0
  190.6160  175.7020  138.4770 N   0  0  0  0  0  2  0  0  0  0  0  0
  189.0130  176.5090  135.9550 C   0  0  0  0  0  2  0  0  0  0  0  0
  190.1690  176.8770  137.8690 N   0  0  2  0  0  0  0  0  0  0  0  0
  188.9660  177.5470  138.3980 C   0  0  2  0  0  3  0  0  0  0  0  0
  189.5140  175.1100  135.5540 C   0  0  0  0  0  2  0  0  0  0  0  0
  1  8  1  0  0  0  0
  1 10  2  0  0  0  0
  2 13  1  0  0  0  0
  2  6  1  0  0  0  0
  3 15  1  0  0  0  0
  3  8  1  0  0  0  0
  4 26  1  6  0  0  0
  4  9  1  0  0  0  0
  4 15  1  0  0  0  0
  5  6  2  0  0  0  0
  7 13  2  0  0  0  0
  8  2  2  0  0  0  0
  9 14  1  0  0  0  0
 10  5  1  0  0  0  0
 11 16  1  0  0  0  0
 11 12  2  0  0  0  0
 12  1  1  0  0  0  0
 14  7  1  0  0  0  0
 14 17  1  1  0  0  0
 15  7  1  0  0  0  0
 16  3  2  0  0  0  0
 17 18  1  0  0  0  0
 18 19  1  0  0  0  0
 19 20  1  0  0  0  0
 20 22  1  0  0  0  0
 22 21  1  1  0  0  0
 23 22  1  0  0  0  0
 23 25  1  0  0  0  0
 25 24  1  0  0  0  0
 27 28  2  0  0  0  0
 28 30  1  0  0  0  0
 29 31  1  6  0  0  0
 29 32  1  0  0  0  0
 29 33  1  0  0  0  0
 32 33  1  0  0  0  0
 32 30  1  1  0  0  0
 33 26  1  1  0  0  0
 34 31  1  0  0  0  0
 34 27  1  0  0  0  0
M  END
>  <MODEL>
3

>  <REMARK>
 VINA RESULT:      -8.7      3.998      7.468
  Name = 
  9 active torsions:
  status: ('A' for Active; 'I' for Inactive)
    1  A    between atoms: C_3  and  C_13
    2  A    between atoms: C_3  and  C_17
    3  A    between atoms: C_5  and  C_26
    4  A    between atoms: C_13  and  N_33
    5  A    between atoms: C_14  and  O_20
    6  A    between atoms: C_17  and  C_29
    7  A    between atoms: O_20  and  C_34
    8  A    between atoms: C_26  and  C_28
    9  A    between atoms: N_33  and  C_34
                            x       y       z     vdW  Elec       q    Type
                         _______ _______ _______ _____ _____    ______ ____

>  <TORSDO>
F 9

$$$$
=
 OpenBabel11052414113D

 34 39  0  0  1  0  0  0  0  0999 V2000
  184.1910  178.8370  142.4020 C   0  0  0  0  0  0  0  0  0  0  0  0
  186.0660  178.1630  143.8220 C   0  0  0  0  0  0  0  0  0  0  0  0
  186.3830  178.5740  141.4400 C   0  0  0  0  0  0  0  0  0  0  0  0
  188.8260  178.1860  140.6350 C   0  0  2  0  0  3  0  0  0  0  0  0
  183.8480  178.4290  144.7670 C   0  0  0  0  0  3  0  0  0  0  0  0
  185.2070  178.1180  144.9240 C   0  0  0  0  0  3  0  0  0  0  0  0
  188.2880  177.9120  142.8780 C   0  0  0  0  0  0  0  0  0  0  0  0
  185.5480  178.5230  142.5600 C   0  0  0  0  0  0  0  0  0  0  0  0
  190.0590  177.7990  141.3520 N   0  0  0  0  0  2  0  0  0  0  0  0
  183.3400  178.7890  143.5100 C   0  0  0  0  0  3  0  0  0  0  0  0
  184.5540  179.2270  140.0950 C   0  0  0  0  0  3  0  0  0  0  0  0
  183.7210  179.1810  141.1740 N   0  0  0  0  0  0  0  0  0  0  0  0
  187.5070  177.8450  143.9660 C   0  0  0  0  0  3  0  0  0  0  0  0
  189.7340  177.6340  142.7810 C   0  0  1  0  0  3  0  0  0  0  0  0
  187.7650  178.2390  141.6160 N   0  0  0  0  0  0  0  0  0  0  0  0
  185.8750  178.9240  140.2290 N   0  0  0  0  0  0  0  0  0  0  0  0
  190.5410  178.6340  143.5930 C   0  0  0  0  0  2  0  0  0  0  0  0
  191.6730  177.9370  144.3210 C   0  0  0  0  0  2  0  0  0  0  0  0
  191.1870  176.6040  144.8480 C   0  0  0  0  0  2  0  0  0  0  0  0
  191.9710  176.2290  146.0120 N   0  0  0  0  0  2  0  0  0  0  0  0
  191.6920  177.2710  148.0980 O   0  0  0  0  0  1  0  0  0  0  0  0
  191.1130  176.3870  147.1810 C   0  0  1  0  0  3  0  0  0  0  0  0
  189.8080  176.7920  146.8230 O   0  0  0  0  0  0  0  0  0  0  0  0
  187.8470  177.7760  147.7550 C   0  0  0  0  0  1  0  0  0  0  0  0
  189.3610  177.7420  147.7540 C   0  0  0  0  0  2  0  0  0  0  0  0
  188.5030  177.1430  139.5750 C   0  0  0  0  0  2  0  0  0  0  0  0
  186.2700  175.7720  135.5610 C   0  0  0  0  0  3  0  0  0  0  0  0
  186.9450  175.0070  136.4540 C   0  0  0  0  0  3  0  0  0  0  0  0
  187.4740  177.6850  137.4190 C   0  0  1  0  0  3  0  0  0  0  0  0
  187.8620  175.5180  137.4370 N   0  0  0  0  0  2  0  0  0  0  0  0
  187.2180  178.2060  136.0430 C   0  0  0  0  0  2  0  0  0  0  0  0
  188.5270  176.7070  137.1270 N   0  0  2  0  0  0  0  0  0  0  0  0
  188.7160  177.7210  138.1810 C   0  0  2  0  0  3  0  0  0  0  0  0
  186.1270  177.2960  135.4520 C   0  0  0  0  0  2  0  0  0  0  0  0
  1  8  1  0  0  0  0
  1 10  2  0  0  0  0
  2 13  1  0  0  0  0
  2  6  1  0  0  0  0
  3 15  1  0  0  0  0
  3  8  1  0  0  0  0
  4 26  1  6  0  0  0
  4  9  1  0  0  0  0
  4 15  1  0  0  0  0
  5  6  2  0  0  0  0
  7 13  2  0  0  0  0
  8  2  2  0  0  0  0
  9 14  1  0  0  0  0
 10  5  1  0  0  0  0
 11 16  1  0  0  0  0
 11 12  2  0  0  0  0
 12  1  1  0  0  0  0
 14  7  1  0  0  0  0
 14 17  1  1  0  0  0
 15  7  1  0  0  0  0
 16  3  2  0  0  0  0
 17 18  1  0  0  0  0
 18 19  1  0  0  0  0
 19 20  1  0  0  0  0
 20 22  1  0  0  0  0
 22 21  1  1  0  0  0
 23 22  1  0  0  0  0
 23 25  1  0  0  0  0
 25 24  1  0  0  0  0
 27 28  2  0  0  0  0
 28 30  1  0  0  0  0
 29 31  1  6  0  0  0
 29 33  1  0  0  0  0
 32 29  1  0  0  0  0
 32 30  1  1  0  0  0
 32 33  1  0  0  0  0
 33 26  1  1  0  0  0
 34 27  1  0  0  0  0
 34 31  1  0  0  0  0
M  END
>  <MODEL>
4

>  <REMARK>
 VINA RESULT:      -8.6      3.757      7.193
  Name = 
  9 active torsions:
  status: ('A' for Active; 'I' for Inactive)
    1  A    between atoms: C_3  and  C_13
    2  A    between atoms: C_3  and  C_17
    3  A    between atoms: C_5  and  C_26
    4  A    between atoms: C_13  and  N_33
    5  A    between atoms: C_14  and  O_20
    6  A    between atoms: C_17  and  C_29
    7  A    between atoms: O_20  and  C_34
    8  A    between atoms: C_26  and  C_28
    9  A    between atoms: N_33  and  C_34
                            x       y       z     vdW  Elec       q    Type
                         _______ _______ _______ _____ _____    ______ ____

>  <TORSDO>
F 9

$$$$
=
 OpenBabel11052414113D

 34 39  0  0  1  0  0  0  0  0999 V2000
  185.5080  178.4490  145.8750 C   0  0  0  0  0  0  0  0  0  0  0  0
  187.3170  177.7720  144.3730 C   0  0  0  0  0  0  0  0  0  0  0  0
  185.2520  178.7280  143.4970 C   0  0  0  0  0  0  0  0  0  0  0  0
  185.2010  178.8890  140.9010 C   0  0  2  0  0  3  0  0  0  0  0  0
  187.5490  177.4970  146.7710 C   0  0  0  0  0  3  0  0  0  0  0  0
  188.0710  177.3640  145.4770 C   0  0  0  0  0  3  0  0  0  0  0  0
  187.0880  178.0630  141.9740 C   0  0  0  0  0  0  0  0  0  0  0  0
  186.0310  178.3140  144.5820 C   0  0  0  0  0  0  0  0  0  0  0  0
  186.1970  178.5450  139.8640 N   0  0  0  0  0  2  0  0  0  0  0  0
  186.2710  178.0390  146.9720 C   0  0  0  0  0  3  0  0  0  0  0  0
  183.5250  179.3760  144.9730 C   0  0  0  0  0  3  0  0  0  0  0  0
  184.2670  178.9760  146.0450 N   0  0  0  0  0  0  0  0  0  0  0  0
  187.8510  177.6480  142.9950 C   0  0  0  0  0  3  0  0  0  0  0  0
  187.4050  178.0300  140.5330 C   0  0  1  0  0  3  0  0  0  0  0  0
  185.7960  178.5720  142.1810 N   0  0  0  0  0  0  0  0  0  0  0  0
  184.0150  179.2510  143.7090 N   0  0  0  0  0  0  0  0  0  0  0  0
  188.5790  178.9410  140.2090 C   0  0  0  0  0  2  0  0  0  0  0  0
  189.5360  178.2540  139.2540 C   0  0  0  0  0  2  0  0  0  0  0  0
  190.1540  177.0530  139.9360 C   0  0  0  0  0  2  0  0  0  0  0  0
  191.2580  177.4880  140.7750 N   0  0  0  0  0  2  0  0  0  0  0  0
  190.5610  175.7160  142.1490 O   0  0  0  0  0  1  0  0  0  0  0  0
  190.9620  177.0560  142.1370 C   0  0  1  0  0  3  0  0  0  0  0  0
  192.0530  177.2790  143.0070 O   0  0  0  0  0  0  0  0  0  0  0  0
  191.0280  179.2040  143.9700 C   0  0  0  0  0  1  0  0  0  0  0  0
  191.5650  177.8090  144.2120 C   0  0  0  0  0  2  0  0  0  0  0  0
  183.9410  178.0630  140.6940 C   0  0  0  0  0  2  0  0  0  0  0  0
  179.2980  176.8720  140.6410 C   0  0  0  0  0  3  0  0  0  0  0  0
  180.3410  176.2240  140.0660 C   0  0  0  0  0  3  0  0  0  0  0  0
  181.5880  178.6480  141.0440 C   0  0  1  0  0  3  0  0  0  0  0  0
  181.6360  176.8070  139.8370 N   0  0  0  0  0  2  0  0  0  0  0  0
  180.2560  179.3230  140.9990 C   0  0  0  0  0  2  0  0  0  0  0  0
  181.6850  178.1910  139.6540 N   0  0  2  0  0  0  0  0  0  0  0  0
  182.7830  178.9590  140.2700 C   0  0  2  0  0  3  0  0  0  0  0  0
  179.2280  178.2320  141.3480 C   0  0  0  0  0  2  0  0  0  0  0  0
  1 12  1  0  0  0  0
  1 10  2  0  0  0  0
  2  8  2  0  0  0  0
  2  6  1  0  0  0  0
  3 16  2  0  0  0  0
  3  8  1  0  0  0  0
  4 26  1  6  0  0  0
  4 15  1  0  0  0  0
  5 10  1  0  0  0  0
  6  5  2  0  0  0  0
  7 15  1  0  0  0  0
  7 13  2  0  0  0  0
  8  1  1  0  0  0  0
  9 14  1  0  0  0  0
  9  4  1  0  0  0  0
 11 12  2  0  0  0  0
 13  2  1  0  0  0  0
 14 17  1  1  0  0  0
 14  7  1  0  0  0  0
 15  3  1  0  0  0  0
 16 11  1  0  0  0  0
 18 19  1  0  0  0  0
 18 17  1  0  0  0  0
 19 20  1  0  0  0  0
 20 22  1  0  0  0  0
 22 21  1  6  0  0  0
 22 23  1  0  0  0  0
 23 25  1  0  0  0  0
 24 25  1  0  0  0  0
 27 34  1  0  0  0  0
 28 27  2  0  0  0  0
 29 31  1  6  0  0  0
 30 28  1  0  0  0  0
 31 34  1  0  0  0  0
 32 30  1  1  0  0  0
 32 33  1  0  0  0  0
 32 29  1  0  0  0  0
 33 26  1  1  0  0  0
 33 29  1  0  0  0  0
M  END
>  <MODEL>
5

>  <REMARK>
 VINA RESULT:      -8.4      3.385      6.856
  Name = 
  9 active torsions:
  status: ('A' for Active; 'I' for Inactive)
    1  A    between atoms: C_3  and  C_13
    2  A    between atoms: C_3  and  C_17
    3  A    between atoms: C_5  and  C_26
    4  A    between atoms: C_13  and  N_33
    5  A    between atoms: C_14  and  O_20
    6  A    between atoms: C_17  and  C_29
    7  A    between atoms: O_20  and  C_34
    8  A    between atoms: C_26  and  C_28
    9  A    between atoms: N_33  and  C_34
                            x       y       z     vdW  Elec       q    Type
                         _______ _______ _______ _____ _____    ______ ____

>  <TORSDO>
F 9

$$$$
=
 OpenBabel11052414113D

 34 39  0  0  1  0  0  0  0  0999 V2000
  185.3990  178.4540  145.7110 C   0  0  0  0  0  0  0  0  0  0  0  0
  187.2290  177.7170  144.2640 C   0  0  0  0  0  0  0  0  0  0  0  0
  185.2460  178.7870  143.3320 C   0  0  0  0  0  0  0  0  0  0  0  0
  185.3010  178.9970  140.7390 C   0  0  2  0  0  3  0  0  0  0  0  0
  187.3570  177.3880  146.6630 C   0  0  0  0  0  3  0  0  0  0  0  0
  187.9210  177.2530  145.3860 C   0  0  0  0  0  3  0  0  0  0  0  0
  187.1040  178.0610  141.8640 C   0  0  0  0  0  0  0  0  0  0  0  0
  185.9630  178.3160  144.4360 C   0  0  0  0  0  0  0  0  0  0  0  0
  186.3180  178.6240  139.7330 N   0  0  0  0  0  2  0  0  0  0  0  0
  186.1000  177.9870  146.8270 C   0  0  0  0  0  3  0  0  0  0  0  0
  183.4970  179.4910  144.7550 C   0  0  0  0  0  3  0  0  0  0  0  0
  184.1790  179.0370  145.8460 N   0  0  0  0  0  0  0  0  0  0  0  0
  187.8080  177.5920  142.9040 C   0  0  0  0  0  3  0  0  0  0  0  0
  187.4740  178.0390  140.4360 C   0  0  1  0  0  3  0  0  0  0  0  0
  185.8310  178.6290  142.0330 N   0  0  0  0  0  0  0  0  0  0  0  0
  184.0280  179.3660  143.5080 N   0  0  0  0  0  0  0  0  0  0  0  0
  188.7010  178.8970  140.1730 C   0  0  0  0  0  2  0  0  0  0  0  0
  189.7120  178.1370  139.3380 C   0  0  0  0  0  2  0  0  0  0  0  0
  190.8500  177.6750  140.2220 C   0  0  0  0  0  2  0  0  0  0  0  0
  190.5270  176.3760  140.7870 N   0  0  0  0  0  2  0  0  0  0  0  0
  190.6030  175.2590  142.8510 O   0  0  0  0  0  1  0  0  0  0  0  0
  190.5560  176.5160  142.2380 C   0  0  1  0  0  3  0  0  0  0  0  0
  191.6190  177.3430  142.6650 O   0  0  0  0  0  0  0  0  0  0  0  0
  191.1660  179.2920  143.9600 C   0  0  0  0  0  1  0  0  0  0  0  0
  191.3460  177.7890  143.9680 C   0  0  0  0  0  2  0  0  0  0  0  0
  184.0110  178.2360  140.4700 C   0  0  0  0  0  2  0  0  0  0  0  0
  180.1420  176.7060  138.0890 C   0  0  0  0  0  3  0  0  0  0  0  0
  180.6190  176.2820  139.2860 C   0  0  0  0  0  3  0  0  0  0  0  0
  182.6960  178.0970  138.4070 C   0  0  1  0  0  3  0  0  0  0  0  0
  181.9470  176.5410  139.7720 N   0  0  0  0  0  2  0  0  0  0  0  0
  182.2620  177.8740  136.9960 C   0  0  0  0  0  2  0  0  0  0  0  0
  182.9500  176.7120  138.8150 N   0  0  2  0  0  0  0  0  0  0  0  0
  183.9710  177.7560  139.0240 C   0  0  2  0  0  3  0  0  0  0  0  0
  180.7370  177.6740  137.0590 C   0  0  0  0  0  2  0  0  0  0  0  0
  1 12  1  0  0  0  0
  1 10  2  0  0  0  0
  2  8  2  0  0  0  0
  2  6  1  0  0  0  0
  3 16  2  0  0  0  0
  3  8  1  0  0  0  0
  4 26  1  6  0  0  0
  4 15  1  0  0  0  0
  5 10  1  0  0  0  0
  6  5  2  0  0  0  0
  7 15  1  0  0  0  0
  7 13  2  0  0  0  0
  8  1  1  0  0  0  0
  9 14  1  0  0  0  0
  9  4  1  0  0  0  0
 11 12  2  0  0  0  0
 13  2  1  0  0  0  0
 14 17  1  1  0  0  0
 14  7  1  0  0  0  0
 15  3  1  0  0  0  0
 16 11  1  0  0  0  0
 18 17  1  0  0  0  0
 18 19  1  0  0  0  0
 19 20  1  0  0  0  0
 20 22  1  0  0  0  0
 22 23  1  0  0  0  0
 22 21  1  1  0  0  0
 23 25  1  0  0  0  0
 24 25  1  0  0  0  0
 27 28  2  0  0  0  0
 28 30  1  0  0  0  0
 29 31  1  6  0  0  0
 29 32  1  0  0  0  0
 29 33  1  0  0  0  0
 31 34  1  0  0  0  0
 32 33  1  0  0  0  0
 32 30  1  1  0  0  0
 33 26  1  1  0  0  0
 34 27  1  0  0  0  0
M  END
>  <MODEL>
6

>  <REMARK>
 VINA RESULT:      -7.9      3.398      6.617
  Name = 
  9 active torsions:
  status: ('A' for Active; 'I' for Inactive)
    1  A    between atoms: C_3  and  C_13
    2  A    between atoms: C_3  and  C_17
    3  A    between atoms: C_5  and  C_26
    4  A    between atoms: C_13  and  N_33
    5  A    between atoms: C_14  and  O_20
    6  A    between atoms: C_17  and  C_29
    7  A    between atoms: O_20  and  C_34
    8  A    between atoms: C_26  and  C_28
    9  A    between atoms: N_33  and  C_34
                            x       y       z     vdW  Elec       q    Type
                         _______ _______ _______ _____ _____    ______ ____

>  <TORSDO>
F 9

$$$$
=
 OpenBabel11052414113D

 34 39  0  0  1  0  0  0  0  0999 V2000
  189.3160  177.1350  146.3000 C   0  0  0  0  0  0  0  0  0  0  0  0
  187.1390  178.2500  146.2830 C   0  0  0  0  0  0  0  0  0  0  0  0
  188.1650  177.4730  144.2130 C   0  0  0  0  0  0  0  0  0  0  0  0
  186.7460  177.9870  142.0930 C   0  0  2  0  0  3  0  0  0  0  0  0
  188.3200  177.9040  148.3720 C   0  0  0  0  0  3  0  0  0  0  0  0
  187.2060  178.3880  147.6720 C   0  0  0  0  0  3  0  0  0  0  0  0
  185.9510  178.5820  144.1920 C   0  0  0  0  0  0  0  0  0  0  0  0
  188.2030  177.6220  145.6020 C   0  0  0  0  0  0  0  0  0  0  0  0
  185.4270  178.6270  141.9120 N   0  0  0  0  0  2  0  0  0  0  0  0
  189.3740  177.2780  147.6890 C   0  0  0  0  0  3  0  0  0  0  0  0
  190.2670  176.3960  144.2610 C   0  0  0  0  0  3  0  0  0  0  0  0
  190.3260  176.5340  145.6170 N   0  0  0  0  0  0  0  0  0  0  0  0
  185.9670  178.7480  145.5220 C   0  0  0  0  0  3  0  0  0  0  0  0
  184.9050  179.0000  143.2390 C   0  0  1  0  0  3  0  0  0  0  0  0
  187.0250  177.9850  143.5120 N   0  0  0  0  0  0  0  0  0  0  0  0
  189.1940  176.8630  143.5660 N   0  0  0  0  0  0  0  0  0  0  0  0
  183.6040  178.2510  143.4890 C   0  0  0  0  0  2  0  0  0  0  0  0
  182.5890  179.1590  144.1550 C   0  0  0  0  0  2  0  0  0  0  0  0
  181.2260  178.9270  143.5410 C   0  0  0  0  0  2  0  0  0  0  0  0
  180.7970  180.1290  142.8470 N   0  0  0  0  0  2  0  0  0  0  0  0
  179.7100  180.8030  140.8770 O   0  0  0  0  0  1  0  0  0  0  0  0
  180.0160  179.7060  141.6900 C   0  0  1  0  0  3  0  0  0  0  0  0
  180.6680  178.6850  140.9620 O   0  0  0  0  0  0  0  0  0  0  0  0
  182.6670  178.9990  139.7030 C   0  0  0  0  0  1  0  0  0  0  0  0
  181.1740  179.2350  139.7730 C   0  0  0  0  0  2  0  0  0  0  0  0
  187.8090  178.7880  141.3560 C   0  0  0  0  0  2  0  0  0  0  0  0
  187.7140  178.6330  136.5650 C   0  0  0  0  0  3  0  0  0  0  0  0
  186.6770  178.5340  137.4330 C   0  0  0  0  0  3  0  0  0  0  0  0
  188.9640  178.5380  139.2100 C   0  0  1  0  0  3  0  0  0  0  0  0
  186.8130  178.2520  138.8370 N   0  0  0  0  0  2  0  0  0  0  0  0
  189.8080  178.0330  138.0860 C   0  0  0  0  0  2  0  0  0  0  0  0
  187.9250  177.5030  139.2290 N   0  0  2  0  0  0  0  0  0  0  0  0
  188.6400  177.8720  140.4650 C   0  0  2  0  0  3  0  0  0  0  0  0
  189.2280  178.6740  136.8120 C   0  0  0  0  0  2  0  0  0  0  0  0
  1 10  2  0  0  0  0
  2  6  1  0  0  0  0
  3  8  1  0  0  0  0
  4 26  1  6  0  0  0
  4 15  1  0  0  0  0
  6  5  2  0  0  0  0
  7 13  2  0  0  0  0
  8  2  2  0  0  0  0
  8  1  1  0  0  0  0
  9  4  1  0  0  0  0
  9 14  1  0  0  0  0
 10  5  1  0  0  0  0
 11 12  2  0  0  0  0
 12  1  1  0  0  0  0
 13  2  1  0  0  0  0
 14 17  1  1  0  0  0
 14  7  1  0  0  0  0
 15  7  1  0  0  0  0
 15  3  1  0  0  0  0
 16  3  2  0  0  0  0
 16 11  1  0  0  0  0
 17 18  1  0  0  0  0
 19 18  1  0  0  0  0
 20 19  1  0  0  0  0
 22 21  1  6  0  0  0
 22 20  1  0  0  0  0
 23 22  1  0  0  0  0
 24 25  1  0  0  0  0
 25 23  1  0  0  0  0
 27 34  1  0  0  0  0
 27 28  2  0  0  0  0
 28 30  1  0  0  0  0
 29 31  1  6  0  0  0
 29 32  1  0  0  0  0
 29 33  1  0  0  0  0
 32 30  1  1  0  0  0
 32 33  1  0  0  0  0
 33 26  1  1  0  0  0
 34 31  1  0  0  0  0
M  END
>  <MODEL>
7

>  <REMARK>
 VINA RESULT:      -7.9      2.121      2.973
  Name = 
  9 active torsions:
  status: ('A' for Active; 'I' for Inactive)
    1  A    between atoms: C_3  and  C_13
    2  A    between atoms: C_3  and  C_17
    3  A    between atoms: C_5  and  C_26
    4  A    between atoms: C_13  and  N_33
    5  A    between atoms: C_14  and  O_20
    6  A    between atoms: C_17  and  C_29
    7  A    between atoms: O_20  and  C_34
    8  A    between atoms: C_26  and  C_28
    9  A    between atoms: N_33  and  C_34
                            x       y       z     vdW  Elec       q    Type
                         _______ _______ _______ _____ _____    ______ ____

>  <TORSDO>
F 9

$$$$
=
 OpenBabel11052414113D

 34 39  0  0  1  0  0  0  0  0999 V2000
  189.1370  177.1140  146.3010 C   0  0  0  0  0  0  0  0  0  0  0  0
  186.9810  178.2510  146.0880 C   0  0  0  0  0  0  0  0  0  0  0  0
  188.1700  177.4400  144.1200 C   0  0  0  0  0  0  0  0  0  0  0  0
  186.9410  177.9460  141.8830 C   0  0  2  0  0  3  0  0  0  0  0  0
  187.9780  177.9150  148.2740 C   0  0  0  0  0  3  0  0  0  0  0  0
  186.9320  178.4030  147.4770 C   0  0  0  0  0  3  0  0  0  0  0  0
  185.9780  178.5720  143.9020 C   0  0  0  0  0  0  0  0  0  0  0  0
  188.0920  177.6040  145.5070 C   0  0  0  0  0  0  0  0  0  0  0  0
  185.6490  178.5980  141.5840 N   0  0  0  0  0  2  0  0  0  0  0  0
  189.0780  177.2710  147.6890 C   0  0  0  0  0  3  0  0  0  0  0  0
  190.2480  176.3420  144.3570 C   0  0  0  0  0  3  0  0  0  0  0  0
  190.1930  176.4940  145.7120 N   0  0  0  0  0  0  0  0  0  0  0  0
  185.8830  178.7520  145.2270 C   0  0  0  0  0  3  0  0  0  0  0  0
  185.0210  178.9900  142.8590 C   0  0  1  0  0  3  0  0  0  0  0  0
  187.0990  177.9570  143.3210 N   0  0  0  0  0  0  0  0  0  0  0  0
  189.2430  176.8130  143.5690 N   0  0  0  0  0  0  0  0  0  0  0  0
  183.6960  178.2580  143.0060 C   0  0  0  0  0  2  0  0  0  0  0  0
  182.7770  179.0070  143.9510 C   0  0  0  0  0  2  0  0  0  0  0  0
  181.3440  178.8520  143.4890 C   0  0  0  0  0  2  0  0  0  0  0  0
  181.3050  178.8160  142.0370 N   0  0  0  0  0  2  0  0  0  0  0  0
  180.0450  180.7300  142.5500 O   0  0  0  0  0  1  0  0  0  0  0  0
  180.2330  179.7100  141.6120 C   0  0  1  0  0  3  0  0  0  0  0  0
  180.4640  180.2290  140.3190 O   0  0  0  0  0  0  0  0  0  0  0  0
  182.1490  180.4890  138.6530 C   0  0  0  0  0  1  0  0  0  0  0  0
  181.6370  179.6520  139.8060 C   0  0  0  0  0  2  0  0  0  0  0  0
  188.0720  178.7280  141.2310 C   0  0  0  0  0  2  0  0  0  0  0  0
  190.7640  175.9600  138.3900 C   0  0  0  0  0  3  0  0  0  0  0  0
  191.1690  176.8570  139.3240 C   0  0  0  0  0  3  0  0  0  0  0  0
  188.3050  177.2810  139.2670 C   0  0  1  0  0  3  0  0  0  0  0  0
  190.3310  177.8790  139.8890 N   0  0  0  0  0  2  0  0  0  0  0  0
  188.2750  176.7330  137.8790 C   0  0  0  0  0  2  0  0  0  0  0  0
  189.2870  178.3570  139.0930 N   0  0  2  0  0  0  0  0  0  0  0  0
  187.9770  178.6300  139.7130 C   0  0  2  0  0  3  0  0  0  0  0  0
  189.3670  175.6490  137.8380 C   0  0  0  0  0  2  0  0  0  0  0  0
  1 10  2  0  0  0  0
  2  6  1  0  0  0  0
  3  8  1  0  0  0  0
  4 26  1  6  0  0  0
  4 15  1  0  0  0  0
  6  5  2  0  0  0  0
  7 13  2  0  0  0  0
  8  2  2  0  0  0  0
  8  1  1  0  0  0  0
  9  4  1  0  0  0  0
  9 14  1  0  0  0  0
 10  5  1  0  0  0  0
 11 12  2  0  0  0  0
 12  1  1  0  0  0  0
 13  2  1  0  0  0  0
 14 17  1  1  0  0  0
 14  7  1  0  0  0  0
 15  7  1  0  0  0  0
 15  3  1  0  0  0  0
 16  3  2  0  0  0  0
 16 11  1  0  0  0  0
 17 18  1  0  0  0  0
 19 18  1  0  0  0  0
 20 19  1  0  0  0  0
 22 20  1  0  0  0  0
 22 21  1  1  0  0  0
 23 22  1  0  0  0  0
 24 25  1  0  0  0  0
 25 23  1  0  0  0  0
 27 28  2  0  0  0  0
 28 30  1  0  0  0  0
 29 31  1  6  0  0  0
 29 33  1  0  0  0  0
 32 29  1  0  0  0  0
 32 33  1  0  0  0  0
 32 30  1  1  0  0  0
 33 26  1  1  0  0  0
 34 31  1  0  0  0  0
 34 27  1  0  0  0  0
M  END
>  <MODEL>
8

>  <REMARK>
 VINA RESULT:      -7.9      2.469      3.335
  Name = 
  9 active torsions:
  status: ('A' for Active; 'I' for Inactive)
    1  A    between atoms: C_3  and  C_13
    2  A    between atoms: C_3  and  C_17
    3  A    between atoms: C_5  and  C_26
    4  A    between atoms: C_13  and  N_33
    5  A    between atoms: C_14  and  O_20
    6  A    between atoms: C_17  and  C_29
    7  A    between atoms: O_20  and  C_34
    8  A    between atoms: C_26  and  C_28
    9  A    between atoms: N_33  and  C_34
                            x       y       z     vdW  Elec       q    Type
                         _______ _______ _______ _____ _____    ______ ____

>  <TORSDO>
F 9

$$$$
=
 OpenBabel11052414113D

 34 39  0  0  1  0  0  0  0  0999 V2000
  190.8420  176.1160  137.2940 C   0  0  0  0  0  0  0  0  0  0  0  0
  191.9310  176.9070  139.3380 C   0  0  0  0  0  0  0  0  0  0  0  0
  189.5040  176.7150  139.2040 C   0  0  0  0  0  0  0  0  0  0  0  0
  188.2820  177.4570  141.3780 C   0  0  2  0  0  3  0  0  0  0  0  0
  193.2570  176.3020  137.3990 C   0  0  0  0  0  3  0  0  0  0  0  0
  193.1770  176.7650  138.7200 C   0  0  0  0  0  3  0  0  0  0  0  0
  190.6020  177.4960  141.2810 C   0  0  0  0  0  0  0  0  0  0  0  0
  190.7640  176.5800  138.6140 C   0  0  0  0  0  0  0  0  0  0  0  0
  188.7810  177.9360  142.6840 N   0  0  0  0  0  2  0  0  0  0  0  0
  192.0930  175.9780  136.6860 C   0  0  0  0  0  3  0  0  0  0  0  0
  188.4820  175.9450  137.2180 C   0  0  0  0  0  3  0  0  0  0  0  0
  189.7010  175.8090  136.6230 N   0  0  0  0  0  0  0  0  0  0  0  0
  191.8220  177.3870  140.7360 C   0  0  0  0  0  3  0  0  0  0  0  0
  190.2540  177.9550  142.6400 C   0  0  1  0  0  3  0  0  0  0  0  0
  189.4400  177.2020  140.5500 N   0  0  0  0  0  0  0  0  0  0  0  0
  188.3860  176.3960  138.4990 N   0  0  0  0  0  0  0  0  0  0  0  0
  190.7950  177.0030  143.6960 C   0  0  0  0  0  2  0  0  0  0  0  0
  191.2950  177.7750  144.9010 C   0  0  0  0  0  2  0  0  0  0  0  0
  190.7850  177.1200  146.1660 C   0  0  0  0  0  2  0  0  0  0  0  0
  189.3980  176.7270  145.9820 N   0  0  0  0  0  2  0  0  0  0  0  0
  189.4990  177.6750  148.1280 O   0  0  0  0  0  1  0  0  0  0  0  0
  188.6390  177.2870  147.0950 C   0  0  1  0  0  3  0  0  0  0  0  0
  187.8110  178.3540  146.6810 O   0  0  0  0  0  0  0  0  0  0  0  0
  185.5790  178.6490  145.8980 C   0  0  0  0  0  1  0  0  0  0  0  0
  186.8650  177.8610  145.7680 C   0  0  0  0  0  2  0  0  0  0  0  0
  187.4110  178.5280  140.7380 C   0  0  0  0  0  2  0  0  0  0  0  0
  182.6960  178.9590  139.9850 C   0  0  0  0  0  3  0  0  0  0  0  0
  183.7180  179.4520  139.2410 C   0  0  0  0  0  3  0  0  0  0  0  0
  185.1020  178.3650  141.5410 C   0  0  1  0  0  3  0  0  0  0  0  0
  185.0750  179.5720  139.7010 N   0  0  0  0  0  2  0  0  0  0  0  0
  183.8480  178.5140  142.3380 C   0  0  0  0  0  2  0  0  0  0  0  0
  185.2680  179.7450  141.0730 N   0  0  2  0  0  0  0  0  0  0  0  0
  186.3800  179.0390  141.7370 C   0  0  2  0  0  3  0  0  0  0  0  0
  182.6970  178.2540  141.3480 C   0  0  0  0  0  2  0  0  0  0  0  0
  1  8  1  0  0  0  0
  2 13  1  0  0  0  0
  3 15  1  0  0  0  0
  4 26  1  6  0  0  0
  4  9  1  0  0  0  0
  5  6  2  0  0  0  0
  6  2  1  0  0  0  0
  7 14  1  0  0  0  0
  8  3  1  0  0  0  0
  8  2  2  0  0  0  0
 10  1  2  0  0  0  0
 10  5  1  0  0  0  0
 11 16  1  0  0  0  0
 12 11  2  0  0  0  0
 12  1  1  0  0  0  0
 13  7  2  0  0  0  0
 14  9  1  0  0  0  0
 14 17  1  1  0  0  0
 15  7  1  0  0  0  0
 15  4  1  0  0  0  0
 16  3  2  0  0  0  0
 17 18  1  0  0  0  0
 18 19  1  0  0  0  0
 20 19  1  0  0  0  0
 20 22  1  0  0  0  0
 22 21  1  1  0  0  0
 23 22  1  0  0  0  0
 25 24  1  0  0  0  0
 25 23  1  0  0  0  0
 27 34  1  0  0  0  0
 28 30  1  0  0  0  0
 28 27  2  0  0  0  0
 29 33  1  0  0  0  0
 29 31  1  1  0  0  0
 32 30  1  6  0  0  0
 32 29  1  0  0  0  0
 32 33  1  0  0  0  0
 33 26  1  6  0  0  0
 34 31  1  0  0  0  0
M  END
>  <MODEL>
9

>  <REMARK>
 VINA RESULT:      -7.8      4.009      7.902
  Name = 
  9 active torsions:
  status: ('A' for Active; 'I' for Inactive)
    1  A    between atoms: C_3  and  C_13
    2  A    between atoms: C_3  and  C_17
    3  A    between atoms: C_5  and  C_26
    4  A    between atoms: C_13  and  N_33
    5  A    between atoms: C_14  and  O_20
    6  A    between atoms: C_17  and  C_29
    7  A    between atoms: O_20  and  C_34
    8  A    between atoms: C_26  and  C_28
    9  A    between atoms: N_33  and  C_34
                            x       y       z     vdW  Elec       q    Type
                         _______ _______ _______ _____ _____    ______ ____

>  <TORSDO>
F 9

$$$$
