=
 OpenBabel11052413463D

 27 31  0  0  1  0  0  0  0  0999 V2000
  187.4480  178.4960  142.0030 N   0  0  0  0  0  2  0  0  0  0  0  0
  187.8700  177.5670  144.1970 C   0  0  0  0  0  0  0  0  0  0  0  0
  189.5400  176.3970  142.7350 N   0  0  0  0  0  0  0  0  0  0  0  0
  190.4710  177.1630  147.4350 N   0  0  0  0  0  2  0  0  0  0  0  0
  192.4260  176.4270  148.3160 O   0  0  0  0  0  0  0  0  0  0  0  0
  187.5370  178.0760  145.4650 C   0  0  0  0  0  3  0  0  0  0  0  0
  191.2240  176.1400  144.9810 C   0  0  0  0  0  3  0  0  0  0  0  0
  190.1400  176.7200  139.2830 C   0  0  0  0  0  0  0  0  0  0  0  0
  192.0700  176.0120  146.0840 C   0  0  0  0  0  3  0  0  0  0  0  0
  190.7940  176.0050  138.2420 N   0  0  0  0  0  1  0  0  0  0  0  0
  189.9860  176.7850  145.1110 C   0  0  0  0  0  0  0  0  0  0  0  0
  186.8960  177.6650  143.0560 C   0  0  1  0  0  3  0  0  0  0  0  0
  191.6720  176.5360  147.3150 C   0  0  0  0  0  0  0  0  0  0  0  0
  189.6270  177.3000  146.3770 C   0  0  0  0  0  0  0  0  0  0  0  0
  188.5440  178.0580  141.2070 C   0  0  0  0  0  0  0  0  0  0  0  0
  189.1230  176.9380  144.0060 C   0  0  0  0  0  0  0  0  0  0  0  0
  189.9610  176.1510  140.4380 N   0  0  0  0  0  0  0  0  0  0  0  0
  188.4080  177.9480  146.5440 C   0  0  0  0  0  3  0  0  0  0  0  0
  189.8180  178.1780  139.0840 C   0  0  0  0  0  2  0  0  0  0  0  0
  188.7500  178.6500  140.0300 C   0  0  0  0  0  3  0  0  0  0  0  0
  189.3180  176.8290  141.5240 C   0  0  0  0  0  0  0  0  0  0  0  0
  182.9150  178.9310  144.0920 C   0  0  0  0  0  3  0  0  0  0  0  0
  185.5160  178.1240  143.4320 C   0  0  0  0  0  0  0  0  0  0  0  0
  184.5380  178.2340  142.4360 C   0  0  0  0  0  3  0  0  0  0  0  0
  183.2420  178.6380  142.7640 C   0  0  0  0  0  3  0  0  0  0  0  0
  183.8850  178.8170  145.0920 C   0  0  0  0  0  3  0  0  0  0  0  0
  185.1820  178.4120  144.7650 C   0  0  0  0  0  3  0  0  0  0  0  0
  1 12  1  0  0  0  0
  2  6  1  0  0  0  0
  3 16  1  0  0  0  0
  6 18  2  0  0  0  0
  7 11  1  0  0  0  0
  7  9  2  0  0  0  0
  8 17  2  0  0  0  0
  9 13  1  0  0  0  0
 10  8  1  0  0  0  0
 11 14  2  0  0  0  0
 12 23  1  1  0  0  0
 12  2  1  0  0  0  0
 13  4  1  0  0  0  0
 13  5  2  0  0  0  0
 14 18  1  0  0  0  0
 14  4  1  0  0  0  0
 15 21  1  0  0  0  0
 15  1  1  0  0  0  0
 16  2  2  0  0  0  0
 16 11  1  0  0  0  0
 17 21  1  0  0  0  0
 19  8  1  0  0  0  0
 19 20  1  0  0  0  0
 20 15  2  0  0  0  0
 21  3  2  0  0  0  0
 22 26  1  0  0  0  0
 23 27  1  0  0  0  0
 24 25  1  0  0  0  0
 24 23  2  0  0  0  0
 25 22  2  0  0  0  0
 27 26  2  0  0  0  0
M  END
>  <MODEL>
1

>  <REMARK>
 VINA RESULT:     -11.5      0.000      0.000
  Name = 
  1 active torsions:
  status: ('A' for Active; 'I' for Inactive)
    1  A    between atoms: C_9  and  C_15
                            x       y       z     vdW  Elec       q    Type
                         _______ _______ _______ _____ _____    ______ ____

>  <TORSDO>
F 1

$$$$
=
 OpenBabel11052413463D

 27 31  0  0  1  0  0  0  0  0999 V2000
  186.2700  178.7410  141.6830 N   0  0  0  0  0  2  0  0  0  0  0  0
  186.0080  178.1840  144.0230 C   0  0  0  0  0  0  0  0  0  0  0  0
  188.1280  177.0090  143.3750 N   0  0  0  0  0  0  0  0  0  0  0  0
  187.4310  178.5280  147.9310 N   0  0  0  0  0  2  0  0  0  0  0  0
  189.0320  178.1430  149.4890 O   0  0  0  0  0  0  0  0  0  0  0  0
  185.2510  178.8280  145.0180 C   0  0  0  0  0  3  0  0  0  0  0  0
  189.0000  177.2570  146.0440 C   0  0  0  0  0  3  0  0  0  0  0  0
  189.8000  176.9050  140.2810 C   0  0  0  0  0  0  0  0  0  0  0  0
  189.4470  177.3810  147.3610 C   0  0  0  0  0  3  0  0  0  0  0  0
  190.7980  176.1250  139.6330 N   0  0  0  0  0  1  0  0  0  0  0  0
  187.7520  177.7760  145.6700 C   0  0  0  0  0  0  0  0  0  0  0  0
  185.4550  178.0130  142.6360 C   0  0  1  0  0  3  0  0  0  0  0  0
  188.6400  178.0260  148.2990 C   0  0  0  0  0  0  0  0  0  0  0  0
  186.9710  178.4210  146.6540 C   0  0  0  0  0  0  0  0  0  0  0  0
  187.5900  178.3180  141.3560 C   0  0  0  0  0  0  0  0  0  0  0  0
  187.2890  177.6750  144.3420 C   0  0  0  0  0  0  0  0  0  0  0  0
  189.2880  176.4880  141.4010 N   0  0  0  0  0  0  0  0  0  0  0  0
  185.7280  178.9490  146.3200 C   0  0  0  0  0  3  0  0  0  0  0  0
  189.4760  178.2760  139.7480 C   0  0  0  0  0  2  0  0  0  0  0  0
  188.1320  178.7570  140.2190 C   0  0  0  0  0  3  0  0  0  0  0  0
  188.2870  177.2380  142.1010 C   0  0  0  0  0  0  0  0  0  0  0  0
  181.2880  178.9710  142.1420 C   0  0  0  0  0  3  0  0  0  0  0  0
  184.0030  178.3660  142.4780 C   0  0  0  0  0  0  0  0  0  0  0  0
  183.4220  178.3140  141.2060 C   0  0  0  0  0  3  0  0  0  0  0  0
  182.0680  178.6190  141.0380 C   0  0  0  0  0  3  0  0  0  0  0  0
  181.8610  179.0190  143.4170 C   0  0  0  0  0  3  0  0  0  0  0  0
  183.2140  178.7150  143.5860 C   0  0  0  0  0  3  0  0  0  0  0  0
  1 12  1  0  0  0  0
  2 16  2  0  0  0  0
  2  6  1  0  0  0  0
  3 16  1  0  0  0  0
  4 13  1  0  0  0  0
  6 18  2  0  0  0  0
  7  9  2  0  0  0  0
  8 17  2  0  0  0  0
  9 13  1  0  0  0  0
 10  8  1  0  0  0  0
 11  7  1  0  0  0  0
 11 14  2  0  0  0  0
 12 23  1  1  0  0  0
 12  2  1  0  0  0  0
 13  5  2  0  0  0  0
 14  4  1  0  0  0  0
 15  1  1  0  0  0  0
 15 21  1  0  0  0  0
 16 11  1  0  0  0  0
 17 21  1  0  0  0  0
 18 14  1  0  0  0  0
 19 20  1  0  0  0  0
 19  8  1  0  0  0  0
 20 15  2  0  0  0  0
 21  3  2  0  0  0  0
 22 26  1  0  0  0  0
 23 27  1  0  0  0  0
 24 23  2  0  0  0  0
 25 24  1  0  0  0  0
 25 22  2  0  0  0  0
 26 27  2  0  0  0  0
M  END
>  <MODEL>
2

>  <REMARK>
 VINA RESULT:     -10.7      1.679      2.261
  Name = 
  1 active torsions:
  status: ('A' for Active; 'I' for Inactive)
    1  A    between atoms: C_9  and  C_15
                            x       y       z     vdW  Elec       q    Type
                         _______ _______ _______ _____ _____    ______ ____

>  <TORSDO>
F 1

$$$$
=
 OpenBabel11052413463D

 27 31  0  0  1  0  0  0  0  0999 V2000
  189.6690  176.5770  141.8800 N   0  0  0  0  0  2  0  0  0  0  0  0
  188.0590  177.6060  143.3640 C   0  0  0  0  0  0  0  0  0  0  0  0
  187.6420  178.7440  141.1670 N   0  0  0  0  0  0  0  0  0  0  0  0
  184.0590  178.1990  144.3940 N   0  0  0  0  0  2  0  0  0  0  0  0
  181.9970  179.0080  143.9140 O   0  0  0  0  0  0  0  0  0  0  0  0
  187.5490  177.1460  144.5900 C   0  0  0  0  0  3  0  0  0  0  0  0
  184.9630  179.1300  141.9540 C   0  0  0  0  0  3  0  0  0  0  0  0
  189.2080  178.2850  138.0490 C   0  0  0  0  0  0  0  0  0  0  0  0
  183.6320  179.3200  142.3290 C   0  0  0  0  0  3  0  0  0  0  0  0
  189.3340  178.9680  136.8080 N   0  0  0  0  0  1  0  0  0  0  0  0
  185.8500  178.4670  142.8130 C   0  0  0  0  0  0  0  0  0  0  0  0
  189.5170  177.4410  143.0340 C   0  0  1  0  0  3  0  0  0  0  0  0
  183.1940  178.8430  143.5650 C   0  0  0  0  0  0  0  0  0  0  0  0
  185.3620  178.0000  144.0530 C   0  0  0  0  0  0  0  0  0  0  0  0
  189.2830  177.0010  140.5760 C   0  0  0  0  0  0  0  0  0  0  0  0
  187.1950  178.2510  142.4470 C   0  0  0  0  0  0  0  0  0  0  0  0
  188.6850  178.9000  139.0680 N   0  0  0  0  0  0  0  0  0  0  0  0
  186.2130  177.3360  144.9310 C   0  0  0  0  0  3  0  0  0  0  0  0
  189.5250  176.8140  138.1150 C   0  0  0  0  0  2  0  0  0  0  0  0
  189.7970  176.3640  139.5240 C   0  0  0  0  0  3  0  0  0  0  0  0
  188.5250  178.2570  140.3400 C   0  0  0  0  0  0  0  0  0  0  0  0
  192.0420  176.0920  146.2470 C   0  0  0  0  0  3  0  0  0  0  0  0
  190.3800  176.9730  144.1710 C   0  0  0  0  0  0  0  0  0  0  0  0
  191.2310  175.8780  143.9760 C   0  0  0  0  0  3  0  0  0  0  0  0
  192.0580  175.4370  145.0120 C   0  0  0  0  0  3  0  0  0  0  0  0
  191.2000  177.1890  146.4460 C   0  0  0  0  0  3  0  0  0  0  0  0
  190.3720  177.6310  145.4110 C   0  0  0  0  0  3  0  0  0  0  0  0
  1 12  1  0  0  0  0
  2  6  1  0  0  0  0
  3 16  1  0  0  0  0
  6 18  2  0  0  0  0
  7  9  2  0  0  0  0
  7 11  1  0  0  0  0
  8 19  1  0  0  0  0
  8 17  2  0  0  0  0
  9 13  1  0  0  0  0
 10  8  1  0  0  0  0
 11 14  2  0  0  0  0
 12  2  1  0  0  0  0
 12 23  1  1  0  0  0
 13  5  2  0  0  0  0
 13  4  1  0  0  0  0
 14  4  1  0  0  0  0
 14 18  1  0  0  0  0
 15  1  1  0  0  0  0
 16 11  1  0  0  0  0
 16  2  2  0  0  0  0
 17 21  1  0  0  0  0
 19 20  1  0  0  0  0
 20 15  2  0  0  0  0
 21 15  1  0  0  0  0
 21  3  2  0  0  0  0
 22 26  1  0  0  0  0
 23 27  1  0  0  0  0
 24 23  2  0  0  0  0
 24 25  1  0  0  0  0
 25 22  2  0  0  0  0
 27 26  2  0  0  0  0
M  END
>  <MODEL>
3

>  <REMARK>
 VINA RESULT:     -10.3      2.776      5.847
  Name = 
  1 active torsions:
  status: ('A' for Active; 'I' for Inactive)
    1  A    between atoms: C_9  and  C_15
                            x       y       z     vdW  Elec       q    Type
                         _______ _______ _______ _____ _____    ______ ____

>  <TORSDO>
F 1

$$$$
=
 OpenBabel11052413463D

 27 31  0  0  1  0  0  0  0  0999 V2000
  189.5810  176.6760  142.3910 N   0  0  0  0  0  2  0  0  0  0  0  0
  187.8800  177.7200  143.7590 C   0  0  0  0  0  0  0  0  0  0  0  0
  187.5410  178.7650  141.5030 N   0  0  0  0  0  0  0  0  0  0  0  0
  183.8240  178.2530  144.5800 N   0  0  0  0  0  2  0  0  0  0  0  0
  181.7680  178.9940  143.9750 O   0  0  0  0  0  0  0  0  0  0  0  0
  187.3230  177.2930  144.9770 C   0  0  0  0  0  3  0  0  0  0  0  0
  184.8190  179.1140  142.1500 C   0  0  0  0  0  3  0  0  0  0  0  0
  189.2610  178.2280  138.4810 C   0  0  0  0  0  0  0  0  0  0  0  0
  183.4680  179.2860  142.4560 C   0  0  0  0  0  3  0  0  0  0  0  0
  189.4310  178.8670  137.2220 N   0  0  0  0  0  1  0  0  0  0  0  0
  185.6800  178.5050  143.0740 C   0  0  0  0  0  0  0  0  0  0  0  0
  189.3550  177.5780  143.5030 C   0  0  1  0  0  3  0  0  0  0  0  0
  182.9840  178.8440  143.6880 C   0  0  0  0  0  0  0  0  0  0  0  0
  185.1450  178.0740  144.3080 C   0  0  0  0  0  0  0  0  0  0  0  0
  189.2470  177.0410  141.0560 C   0  0  0  0  0  0  0  0  0  0  0  0
  187.0450  178.3090  142.7800 C   0  0  0  0  0  0  0  0  0  0  0  0
  188.6770  178.8680  139.4510 N   0  0  0  0  0  0  0  0  0  0  0  0
  185.9680  177.4640  145.2490 C   0  0  0  0  0  3  0  0  0  0  0  0
  189.6080  176.7690  138.6180 C   0  0  0  0  0  2  0  0  0  0  0  0
  189.8240  176.3780  140.0540 C   0  0  0  0  0  3  0  0  0  0  0  0
  188.4720  178.2690  140.7370 C   0  0  0  0  0  0  0  0  0  0  0  0
  191.6440  176.4050  146.9540 C   0  0  0  0  0  3  0  0  0  0  0  0
  190.1740  177.1740  144.6960 C   0  0  0  0  0  0  0  0  0  0  0  0
  189.7640  177.5740  145.9730 C   0  0  0  0  0  3  0  0  0  0  0  0
  190.4980  177.1930  147.0990 C   0  0  0  0  0  3  0  0  0  0  0  0
  192.0550  175.9970  145.6820 C   0  0  0  0  0  3  0  0  0  0  0  0
  191.3220  176.3780  144.5550 C   0  0  0  0  0  3  0  0  0  0  0  0
  1 12  1  0  0  0  0
  2  6  1  0  0  0  0
  3 16  1  0  0  0  0
  6 18  2  0  0  0  0
  7  9  2  0  0  0  0
  7 11  1  0  0  0  0
  8 19  1  0  0  0  0
  8 17  2  0  0  0  0
  9 13  1  0  0  0  0
 10  8  1  0  0  0  0
 11 14  2  0  0  0  0
 12  2  1  0  0  0  0
 12 23  1  1  0  0  0
 13  5  2  0  0  0  0
 13  4  1  0  0  0  0
 14  4  1  0  0  0  0
 14 18  1  0  0  0  0
 15  1  1  0  0  0  0
 16 11  1  0  0  0  0
 16  2  2  0  0  0  0
 17 21  1  0  0  0  0
 19 20  1  0  0  0  0
 20 15  2  0  0  0  0
 21 15  1  0  0  0  0
 21  3  2  0  0  0  0
 22 25  1  0  0  0  0
 23 24  1  0  0  0  0
 24 25  2  0  0  0  0
 26 22  2  0  0  0  0
 27 23  2  0  0  0  0
 27 26  1  0  0  0  0
M  END
>  <MODEL>
4

>  <REMARK>
 VINA RESULT:     -10.2      2.687      5.834
  Name = 
  1 active torsions:
  status: ('A' for Active; 'I' for Inactive)
    1  A    between atoms: C_9  and  C_15
                            x       y       z     vdW  Elec       q    Type
                         _______ _______ _______ _____ _____    ______ ____

>  <TORSDO>
F 1

$$$$
=
 OpenBabel11052413463D

 27 31  0  0  1  0  0  0  0  0999 V2000
  189.7920  178.3760  141.4950 N   0  0  0  0  0  2  0  0  0  0  0  0
  187.3960  178.0370  141.4570 C   0  0  0  0  0  0  0  0  0  0  0  0
  188.0570  177.2930  143.7610 N   0  0  0  0  0  0  0  0  0  0  0  0
  183.6400  179.1160  142.9190 N   0  0  0  0  0  2  0  0  0  0  0  0
  182.1550  179.2680  144.6250 O   0  0  0  0  0  0  0  0  0  0  0  0
  186.4240  178.6050  140.6150 C   0  0  0  0  0  3  0  0  0  0  0  0
  185.4860  178.0210  144.6590 C   0  0  0  0  0  3  0  0  0  0  0  0
  191.2250  177.2170  145.2900 C   0  0  0  0  0  0  0  0  0  0  0  0
  184.2190  178.3840  145.1180 C   0  0  0  0  0  3  0  0  0  0  0  0
  191.8540  176.6090  146.4120 N   0  0  0  0  0  1  0  0  0  0  0  0
  185.8300  178.2070  143.3130 C   0  0  0  0  0  0  0  0  0  0  0  0
  188.7220  177.5960  140.9030 C   0  0  1  0  0  3  0  0  0  0  0  0
  183.3000  178.9360  144.2240 C   0  0  0  0  0  0  0  0  0  0  0  0
  184.8670  178.7700  142.4450 C   0  0  0  0  0  0  0  0  0  0  0  0
  190.1580  178.2200  142.8620 C   0  0  0  0  0  0  0  0  0  0  0  0
  187.1100  177.8610  142.8320 C   0  0  0  0  0  0  0  0  0  0  0  0
  190.0390  176.8250  144.9300 N   0  0  0  0  0  0  0  0  0  0  0  0
  185.1730  178.9720  141.1030 C   0  0  0  0  0  3  0  0  0  0  0  0
  191.8700  178.4160  144.6450 C   0  0  0  0  0  2  0  0  0  0  0  0
  191.3640  178.6380  143.2470 C   0  0  0  0  0  3  0  0  0  0  0  0
  189.3550  177.4090  143.8140 C   0  0  0  0  0  0  0  0  0  0  0  0
  189.0610  177.6540  136.6130 C   0  0  0  0  0  3  0  0  0  0  0  0
  188.8220  177.6010  139.4040 C   0  0  0  0  0  0  0  0  0  0  0  0
  189.0690  178.8090  138.7410 C   0  0  0  0  0  3  0  0  0  0  0  0
  189.1860  178.8360  137.3490 C   0  0  0  0  0  3  0  0  0  0  0  0
  188.8210  176.4430  137.2700 C   0  0  0  0  0  3  0  0  0  0  0  0
  188.7030  176.4160  138.6620 C   0  0  0  0  0  3  0  0  0  0  0  0
  1 15  1  0  0  0  0
  2 16  1  0  0  0  0
  3 21  2  0  0  0  0
  4 13  1  0  0  0  0
  6 18  1  0  0  0  0
  6  2  2  0  0  0  0
  7  9  2  0  0  0  0
  8 10  1  0  0  0  0
 11  7  1  0  0  0  0
 12 23  1  6  0  0  0
 12  2  1  0  0  0  0
 12  1  1  0  0  0  0
 13  5  2  0  0  0  0
 13  9  1  0  0  0  0
 14  4  1  0  0  0  0
 14 11  1  0  0  0  0
 15 20  2  0  0  0  0
 15 21  1  0  0  0  0
 16 11  2  0  0  0  0
 16  3  1  0  0  0  0
 17  8  2  0  0  0  0
 18 14  2  0  0  0  0
 19  8  1  0  0  0  0
 20 19  1  0  0  0  0
 21 17  1  0  0  0  0
 22 26  2  0  0  0  0
 22 25  1  0  0  0  0
 24 23  1  0  0  0  0
 25 24  2  0  0  0  0
 26 27  1  0  0  0  0
 27 23  2  0  0  0  0
M  END
>  <MODEL>
5

>  <REMARK>
 VINA RESULT:     -10.0      2.812      6.400
  Name = 
  1 active torsions:
  status: ('A' for Active; 'I' for Inactive)
    1  A    between atoms: C_9  and  C_15
                            x       y       z     vdW  Elec       q    Type
                         _______ _______ _______ _____ _____    ______ ____

>  <TORSDO>
F 1

$$$$
=
 OpenBabel11052413463D

 27 31  0  0  1  0  0  0  0  0999 V2000
  189.5320  176.7740  140.4700 N   0  0  0  0  0  2  0  0  0  0  0  0
  187.7840  177.9960  141.6130 C   0  0  0  0  0  0  0  0  0  0  0  0
  187.4290  178.5840  139.2000 N   0  0  0  0  0  0  0  0  0  0  0  0
  183.7050  178.5280  142.3100 N   0  0  0  0  0  2  0  0  0  0  0  0
  181.6300  179.0680  141.5710 O   0  0  0  0  0  0  0  0  0  0  0  0
  187.2310  177.7860  142.8890 C   0  0  0  0  0  3  0  0  0  0  0  0
  184.6920  178.9520  139.7630 C   0  0  0  0  0  3  0  0  0  0  0  0
  189.1950  177.5510  136.3370 C   0  0  0  0  0  0  0  0  0  0  0  0
  183.3330  179.1300  140.0280 C   0  0  0  0  0  3  0  0  0  0  0  0
  189.3530  177.9470  134.9800 N   0  0  0  0  0  1  0  0  0  0  0  0
  185.5650  178.5590  140.7870 C   0  0  0  0  0  0  0  0  0  0  0  0
  189.2650  177.8610  141.3920 C   0  0  1  0  0  3  0  0  0  0  0  0
  182.8530  178.9110  141.3200 C   0  0  0  0  0  0  0  0  0  0  0  0
  185.0340  178.3480  142.0790 C   0  0  0  0  0  0  0  0  0  0  0  0
  189.1980  176.8700  139.0890 C   0  0  0  0  0  0  0  0  0  0  0  0
  186.9390  178.3590  140.5380 C   0  0  0  0  0  0  0  0  0  0  0  0
  188.5800  178.3410  137.1670 N   0  0  0  0  0  0  0  0  0  0  0  0
  185.8690  177.9560  143.1200 C   0  0  0  0  0  3  0  0  0  0  0  0
  189.5910  176.1570  136.7470 C   0  0  0  0  0  2  0  0  0  0  0  0
  189.8070  176.0510  138.2310 C   0  0  0  0  0  3  0  0  0  0  0  0
  188.3840  177.9870  138.5430 C   0  0  0  0  0  0  0  0  0  0  0  0
  191.6620  177.4080  144.9380 C   0  0  0  0  0  3  0  0  0  0  0  0
  190.0870  177.7170  142.6410 C   0  0  0  0  0  0  0  0  0  0  0  0
  190.5580  176.4510  143.0070 C   0  0  0  0  0  3  0  0  0  0  0  0
  191.3420  176.2960  144.1540 C   0  0  0  0  0  3  0  0  0  0  0  0
  191.2000  178.6760  144.5750 C   0  0  0  0  0  3  0  0  0  0  0  0
  190.4170  178.8320  143.4280 C   0  0  0  0  0  3  0  0  0  0  0  0
  1 12  1  0  0  0  0
  2  6  1  0  0  0  0
  3 16  1  0  0  0  0
  6 18  2  0  0  0  0
  7  9  2  0  0  0  0
  7 11  1  0  0  0  0
  8 19  1  0  0  0  0
  8 17  2  0  0  0  0
  9 13  1  0  0  0  0
 10  8  1  0  0  0  0
 11 14  2  0  0  0  0
 12  2  1  0  0  0  0
 12 23  1  1  0  0  0
 13  5  2  0  0  0  0
 13  4  1  0  0  0  0
 14  4  1  0  0  0  0
 14 18  1  0  0  0  0
 15  1  1  0  0  0  0
 16 11  1  0  0  0  0
 16  2  2  0  0  0  0
 17 21  1  0  0  0  0
 19 20  1  0  0  0  0
 20 15  2  0  0  0  0
 21 15  1  0  0  0  0
 21  3  2  0  0  0  0
 23 24  2  0  0  0  0
 23 27  1  0  0  0  0
 24 25  1  0  0  0  0
 25 22  2  0  0  0  0
 26 22  1  0  0  0  0
 27 26  2  0  0  0  0
M  END
>  <MODEL>
6

>  <REMARK>
 VINA RESULT:      -9.5      3.410      6.426
  Name = 
  1 active torsions:
  status: ('A' for Active; 'I' for Inactive)
    1  A    between atoms: C_9  and  C_15
                            x       y       z     vdW  Elec       q    Type
                         _______ _______ _______ _____ _____    ______ ____

>  <TORSDO>
F 1

$$$$
=
 OpenBabel11052413463D

 27 31  0  0  1  0  0  0  0  0999 V2000
  188.0880  177.1800  143.7510 N   0  0  0  0  0  2  0  0  0  0  0  0
  186.0080  178.3130  144.2430 C   0  0  0  0  0  0  0  0  0  0  0  0
  186.4420  178.9020  141.8430 N   0  0  0  0  0  0  0  0  0  0  0  0
  181.9070  178.6540  143.5510 N   0  0  0  0  0  2  0  0  0  0  0  0
  180.1700  179.1040  142.1650 O   0  0  0  0  0  0  0  0  0  0  0  0
  185.0750  178.0690  145.2660 C   0  0  0  0  0  3  0  0  0  0  0  0
  183.6580  179.1400  141.4690 C   0  0  0  0  0  3  0  0  0  0  0  0
  189.0980  177.9700  139.7310 C   0  0  0  0  0  0  0  0  0  0  0  0
  182.2820  179.2540  141.2690 C   0  0  0  0  0  3  0  0  0  0  0  0
  189.6770  178.3820  138.4990 N   0  0  0  0  0  1  0  0  0  0  0  0
  184.1620  178.7800  142.7270 C   0  0  0  0  0  0  0  0  0  0  0  0
  187.4830  178.2470  144.5240 C   0  0  1  0  0  3  0  0  0  0  0  0
  181.4130  179.0050  142.3320 C   0  0  0  0  0  0  0  0  0  0  0  0
  183.2440  178.5370  143.7730 C   0  0  0  0  0  0  0  0  0  0  0  0
  188.2240  177.2700  142.3360 C   0  0  0  0  0  0  0  0  0  0  0  0
  185.5480  178.6450  142.9460 C   0  0  0  0  0  0  0  0  0  0  0  0
  188.2090  178.7250  140.3060 N   0  0  0  0  0  0  0  0  0  0  0  0
  183.7070  178.1760  145.0340 C   0  0  0  0  0  3  0  0  0  0  0  0
  189.3990  176.5920  140.2610 C   0  0  0  0  0  2  0  0  0  0  0  0
  189.1180  176.4860  141.7340 C   0  0  0  0  0  3  0  0  0  0  0  0
  187.5860  178.3530  141.5420 C   0  0  0  0  0  0  0  0  0  0  0  0
  188.6060  177.9380  148.6670 C   0  0  0  0  0  3  0  0  0  0  0  0
  187.8530  178.1330  145.9750 C   0  0  0  0  0  0  0  0  0  0  0  0
  189.0690  177.5350  146.3250 C   0  0  0  0  0  3  0  0  0  0  0  0
  189.4440  177.4350  147.6670 C   0  0  0  0  0  3  0  0  0  0  0  0
  187.3930  178.5420  148.3240 C   0  0  0  0  0  3  0  0  0  0  0  0
  187.0170  178.6420  146.9820 C   0  0  0  0  0  3  0  0  0  0  0  0
  1 12  1  0  0  0  0
  2 12  1  0  0  0  0
  2  6  1  0  0  0  0
  3 16  1  0  0  0  0
  4 14  1  0  0  0  0
  5 13  2  0  0  0  0
  7 11  1  0  0  0  0
  8 19  1  0  0  0  0
  8 17  2  0  0  0  0
  9  7  2  0  0  0  0
  9 13  1  0  0  0  0
 10  8  1  0  0  0  0
 11 16  1  0  0  0  0
 11 14  2  0  0  0  0
 12 23  1  1  0  0  0
 13  4  1  0  0  0  0
 14 18  1  0  0  0  0
 15  1  1  0  0  0  0
 16  2  2  0  0  0  0
 17 21  1  0  0  0  0
 18  6  2  0  0  0  0
 19 20  1  0  0  0  0
 20 15  2  0  0  0  0
 21  3  2  0  0  0  0
 21 15  1  0  0  0  0
 23 24  2  0  0  0  0
 23 27  1  0  0  0  0
 24 25  1  0  0  0  0
 25 22  2  0  0  0  0
 26 22  1  0  0  0  0
 27 26  2  0  0  0  0
M  END
>  <MODEL>
7

>  <REMARK>
 VINA RESULT:      -9.1      3.218      6.191
  Name = 
  1 active torsions:
  status: ('A' for Active; 'I' for Inactive)
    1  A    between atoms: C_9  and  C_15
                            x       y       z     vdW  Elec       q    Type
                         _______ _______ _______ _____ _____    ______ ____

>  <TORSDO>
F 1

$$$$
=
 OpenBabel11052413463D

 27 31  0  0  1  0  0  0  0  0999 V2000
  184.0980  177.9540  140.9420 N   0  0  0  0  0  2  0  0  0  0  0  0
  185.9390  178.3340  142.4660 C   0  0  0  0  0  0  0  0  0  0  0  0
  183.9760  179.3490  143.6530 N   0  0  0  0  0  0  0  0  0  0  0  0
  187.7110  177.5240  146.1560 N   0  0  0  0  0  2  0  0  0  0  0  0
  187.6860  177.6190  148.4200 O   0  0  0  0  0  0  0  0  0  0  0  0
  187.1830  177.6840  142.5470 C   0  0  0  0  0  3  0  0  0  0  0  0
  185.2570  178.7920  146.1020 C   0  0  0  0  0  3  0  0  0  0  0  0
  180.6010  179.5530  142.6780 C   0  0  0  0  0  0  0  0  0  0  0  0
  185.8770  178.5160  147.3210 C   0  0  0  0  0  3  0  0  0  0  0  0
  179.4320  180.2850  143.0260 N   0  0  0  0  0  1  0  0  0  0  0  0
  185.8750  178.4310  144.8970 C   0  0  0  0  0  0  0  0  0  0  0  0
  185.3430  178.6750  141.1280 C   0  0  1  0  0  3  0  0  0  0  0  0
  187.1170  177.8740  147.3280 C   0  0  0  0  0  0  0  0  0  0  0  0
  187.1290  177.7820  144.9530 C   0  0  0  0  0  0  0  0  0  0  0  0
  182.9330  178.2740  141.6950 C   0  0  0  0  0  0  0  0  0  0  0  0
  185.2590  178.6880  143.6550 C   0  0  0  0  0  0  0  0  0  0  0  0
  181.7530  179.9210  143.1550 N   0  0  0  0  0  0  0  0  0  0  0  0
  187.7720  177.4070  143.7780 C   0  0  0  0  0  3  0  0  0  0  0  0
  180.4620  178.2700  141.9010 C   0  0  0  0  0  2  0  0  0  0  0  0
  181.7470  177.8830  141.2250 C   0  0  0  0  0  3  0  0  0  0  0  0
  182.9610  179.2140  142.8450 C   0  0  0  0  0  0  0  0  0  0  0  0
  187.9230  178.1550  137.7230 C   0  0  0  0  0  3  0  0  0  0  0  0
  186.2570  178.4780  139.9520 C   0  0  0  0  0  0  0  0  0  0  0  0
  185.7040  178.3310  138.6750 C   0  0  0  0  0  3  0  0  0  0  0  0
  186.5340  178.1680  137.5630 C   0  0  0  0  0  3  0  0  0  0  0  0
  188.4820  178.3060  138.9950 C   0  0  0  0  0  3  0  0  0  0  0  0
  187.6520  178.4700  140.1080 C   0  0  0  0  0  3  0  0  0  0  0  0
  1 12  1  0  0  0  0
  1 15  1  0  0  0  0
  2  6  2  0  0  0  0
  2 16  1  0  0  0  0
  3 16  1  0  0  0  0
  4 13  1  0  0  0  0
  6 18  1  0  0  0  0
  7  9  2  0  0  0  0
  8 10  1  0  0  0  0
  8 17  2  0  0  0  0
  9 13  1  0  0  0  0
 11 14  1  0  0  0  0
 11  7  1  0  0  0  0
 12 23  1  6  0  0  0
 12  2  1  0  0  0  0
 13  5  2  0  0  0  0
 14  4  1  0  0  0  0
 15 21  1  0  0  0  0
 16 11  2  0  0  0  0
 18 14  2  0  0  0  0
 19  8  1  0  0  0  0
 20 15  2  0  0  0  0
 20 19  1  0  0  0  0
 21 17  1  0  0  0  0
 21  3  2  0  0  0  0
 22 26  1  0  0  0  0
 23 27  1  0  0  0  0
 24 23  2  0  0  0  0
 25 22  2  0  0  0  0
 25 24  1  0  0  0  0
 26 27  2  0  0  0  0
M  END
>  <MODEL>
8

>  <REMARK>
 VINA RESULT:      -9.0      3.128      6.359
  Name = 
  1 active torsions:
  status: ('A' for Active; 'I' for Inactive)
    1  A    between atoms: C_9  and  C_15
                            x       y       z     vdW  Elec       q    Type
                         _______ _______ _______ _____ _____    ______ ____

>  <TORSDO>
F 1

$$$$
=
 OpenBabel11052413463D

 27 31  0  0  1  0  0  0  0  0999 V2000
  191.3220  177.4330  140.8110 N   0  0  0  0  0  2  0  0  0  0  0  0
  189.2290  177.2890  139.6070 C   0  0  0  0  0  0  0  0  0  0  0  0
  188.5240  177.2360  142.0150 N   0  0  0  0  0  0  0  0  0  0  0  0
  185.5810  179.0570  138.6130 N   0  0  0  0  0  2  0  0  0  0  0  0
  183.5400  179.8400  139.2110 O   0  0  0  0  0  0  0  0  0  0  0  0
  188.9320  177.6470  138.2800 C   0  0  0  0  0  3  0  0  0  0  0  0
  186.0750  178.4040  141.2530 C   0  0  0  0  0  3  0  0  0  0  0  0
  190.4690  177.3820  144.9430 C   0  0  0  0  0  0  0  0  0  0  0  0
  184.8610  178.9890  140.8890 C   0  0  0  0  0  3  0  0  0  0  0  0
  190.3320  177.1000  146.3310 N   0  0  0  0  0  1  0  0  0  0  0  0
  187.0510  178.1420  140.2810 C   0  0  0  0  0  0  0  0  0  0  0  0
  190.5210  176.5970  139.9400 C   0  0  1  0  0  3  0  0  0  0  0  0
  184.6300  179.3120  139.5510 C   0  0  0  0  0  0  0  0  0  0  0  0
  186.7730  178.4870  138.9400 C   0  0  0  0  0  0  0  0  0  0  0  0
  190.9460  177.6750  142.1640 C   0  0  0  0  0  0  0  0  0  0  0  0
  188.2900  177.5650  140.6290 C   0  0  0  0  0  0  0  0  0  0  0  0
  189.5450  176.9930  144.1160 N   0  0  0  0  0  0  0  0  0  0  0  0
  187.7180  178.2430  137.9490 C   0  0  0  0  0  3  0  0  0  0  0  0
  191.5940  178.2720  144.4810 C   0  0  0  0  0  2  0  0  0  0  0  0
  191.8820  178.0940  143.0160 C   0  0  0  0  0  3  0  0  0  0  0  0
  189.6280  177.2600  142.7100 C   0  0  0  0  0  0  0  0  0  0  0  0
  192.8720  175.2770  136.5850 C   0  0  0  0  0  3  0  0  0  0  0  0
  191.3220  176.1350  138.7560 C   0  0  0  0  0  0  0  0  0  0  0  0
  192.5540  176.7410  138.4880 C   0  0  0  0  0  3  0  0  0  0  0  0
  193.3270  176.3150  137.4040 C   0  0  0  0  0  3  0  0  0  0  0  0
  191.6450  174.6640  136.8510 C   0  0  0  0  0  3  0  0  0  0  0  0
  190.8710  175.0890  137.9350 C   0  0  0  0  0  3  0  0  0  0  0  0
  1 15  1  0  0  0  0
  2 12  1  0  0  0  0
  2 16  1  0  0  0  0
  3 21  2  0  0  0  0
  4 14  1  0  0  0  0
  4 13  1  0  0  0  0
  5 13  2  0  0  0  0
  6  2  2  0  0  0  0
  8 10  1  0  0  0  0
  9  7  2  0  0  0  0
 11 16  2  0  0  0  0
 11  7  1  0  0  0  0
 12 23  1  6  0  0  0
 12  1  1  0  0  0  0
 13  9  1  0  0  0  0
 14 11  1  0  0  0  0
 15 21  1  0  0  0  0
 15 20  2  0  0  0  0
 16  3  1  0  0  0  0
 17  8  2  0  0  0  0
 18  6  1  0  0  0  0
 18 14  2  0  0  0  0
 19  8  1  0  0  0  0
 20 19  1  0  0  0  0
 21 17  1  0  0  0  0
 22 26  2  0  0  0  0
 22 25  1  0  0  0  0
 24 23  1  0  0  0  0
 25 24  2  0  0  0  0
 26 27  1  0  0  0  0
 27 23  2  0  0  0  0
M  END
>  <MODEL>
9

>  <REMARK>
 VINA RESULT:      -8.9      3.379      7.915
  Name = 
  1 active torsions:
  status: ('A' for Active; 'I' for Inactive)
    1  A    between atoms: C_9  and  C_15
                            x       y       z     vdW  Elec       q    Type
                         _______ _______ _______ _____ _____    ______ ____

>  <TORSDO>
F 1

$$$$
