=
 OpenBabel11052413423D

 27 29  0  0  1  0  0  0  0  0999 V2000
  186.2510  178.7420  141.5280 C   0  0  2  0  0  3  0  0  0  0  0  0
  182.1990  177.4630  140.4020 N   0  0  0  0  0  2  0  0  0  0  0  0
  181.1660  177.9410  138.3220 N   0  0  0  0  0  1  0  0  0  0  0  0
  184.3620  178.8700  143.1570 C   0  0  0  0  0  0  0  0  0  0  0  0
  185.5750  179.0880  140.2130 C   0  0  0  0  0  2  0  0  0  0  0  0
  183.8480  177.8430  138.3580 S   0  0  0  0  0  0  0  0  0  0  0  0
  185.5930  179.5410  142.6390 C   0  0  0  0  0  2  0  0  0  0  0  0
  182.2460  177.2230  138.9720 C   0  0  1  0  0  3  0  0  0  0  0  0
  183.3510  178.0980  140.9290 C   0  0  0  0  0  0  0  0  0  0  0  0
  184.2880  178.3550  140.0140 C   0  0  0  0  0  0  0  0  0  0  0  0
  183.4160  178.3070  142.3950 C   0  0  0  0  0  3  0  0  0  0  0  0
  184.1490  178.8710  144.6350 C   0  0  0  0  0  2  0  0  0  0  0  0
  187.7040  177.6970  146.7290 C   0  0  0  0  0  3  0  0  0  0  0  0
  185.3940  178.4760  145.3560 C   0  0  0  0  0  0  0  0  0  0  0  0
  186.2820  177.5620  144.7750 C   0  0  0  0  0  3  0  0  0  0  0  0
  187.4370  177.1750  145.4610 C   0  0  0  0  0  3  0  0  0  0  0  0
  186.8170  178.6060  147.3140 C   0  0  0  0  0  3  0  0  0  0  0  0
  185.6610  178.9930  146.6280 C   0  0  0  0  0  3  0  0  0  0  0  0
  187.6570  178.9060  141.4850 O   0  0  0  0  0  0  0  0  0  0  0  0
  189.0570  177.8210  139.8670 C   0  0  0  0  0  1  0  0  0  0  0  0
  188.2800  177.6840  141.1640 C   0  0  1  0  0  3  0  0  0  0  0  0
  189.1860  177.2070  142.3010 C   0  0  0  0  0  2  0  0  0  0  0  0
  189.8830  178.3460  143.0360 C   0  0  0  0  0  2  0  0  0  0  0  0
  191.2090  177.8790  143.6150 C   0  0  0  0  0  2  0  0  0  0  0  0
  191.0250  176.6110  144.4320 C   0  0  2  0  0  3  0  0  0  0  0  0
  191.3700  176.8670  145.8870 C   0  0  0  0  0  1  0  0  0  0  0  0
  191.8570  175.6120  143.9310 O   0  0  0  0  0  1  0  0  0  0  0  0
  1 19  1  6  0  0  0
  1  7  1  0  0  0  0
  2  9  1  0  0  0  0
  4 12  1  0  0  0  0
  5  1  1  0  0  0  0
  6  8  1  0  0  0  0
  6 10  1  0  0  0  0
  7  4  1  0  0  0  0
  8  3  1  6  0  0  0
  8  2  1  0  0  0  0
  9 11  1  0  0  0  0
 10  5  1  0  0  0  0
 10  9  2  0  0  0  0
 11  4  2  0  0  0  0
 12 14  1  0  0  0  0
 13 17  1  0  0  0  0
 14 18  1  0  0  0  0
 15 14  2  0  0  0  0
 15 16  1  0  0  0  0
 16 13  2  0  0  0  0
 18 17  2  0  0  0  0
 21 20  1  6  0  0  0
 21 19  1  0  0  0  0
 21 22  1  0  0  0  0
 22 23  1  0  0  0  0
 23 24  1  0  0  0  0
 24 25  1  0  0  0  0
 25 26  1  1  0  0  0
 27 25  1  0  0  0  0
M  END
>  <MODEL>
1

>  <REMARK>
 VINA RESULT:      -7.6      0.000      0.000
  Name = 
  8 active torsions:
  status: ('A' for Active; 'I' for Inactive)
    1  A    between atoms: C_1  and  C_24
    2  A    between atoms: C_2  and  C_6
    3  A    between atoms: C_2  and  C_9
    4  A    between atoms: C_3  and  O_26
    5  A    between atoms: C_13  and  C_20
    6  A    between atoms: C_13  and  C_22
    7  A    between atoms: C_20  and  O_26
    8  A    between atoms: C_22  and  C_24
                            x       y       z     vdW  Elec       q    Type
                         _______ _______ _______ _____ _____    ______ ____

>  <TORSDO>
F 8

$$$$
=
 OpenBabel11052413423D

 27 29  0  0  1  0  0  0  0  0999 V2000
  189.3090  177.0510  142.6320 C   0  0  2  0  0  3  0  0  0  0  0  0
  185.6600  179.3880  141.8910 N   0  0  0  0  0  0  0  0  0  0  0  0
  183.5410  178.9130  142.8430 N   0  0  0  0  0  1  0  0  0  0  0  0
  188.7450  177.8640  140.3380 C   0  0  0  0  0  0  0  0  0  0  0  0
  187.9440  176.7180  143.2070 C   0  0  0  0  0  2  0  0  0  0  0  0
  185.7030  178.1100  144.2160 S   0  0  0  0  0  0  0  0  0  0  0  0
  189.3020  176.7370  141.1460 C   0  0  0  0  0  2  0  0  0  0  0  0
  184.9010  179.3320  143.1260 C   0  0  1  0  0  3  0  0  0  0  0  0
  186.7720  178.5110  141.8460 C   0  0  0  0  0  0  0  0  0  0  0  0
  186.9340  177.7910  142.9580 C   0  0  2  0  0  3  0  0  0  0  0  0
  187.6470  178.5640  140.6500 C   0  0  0  0  0  3  0  0  0  0  0  0
  189.4420  178.2050  139.0630 C   0  0  0  0  0  2  0  0  0  0  0  0
  187.1150  176.9220  135.6950 C   0  0  0  0  0  3  0  0  0  0  0  0
  188.6470  177.7570  137.8820 C   0  0  0  0  0  0  0  0  0  0  0  0
  188.1820  178.6950  136.9520 C   0  0  0  0  0  3  0  0  0  0  0  0
  187.4180  178.2770  135.8580 C   0  0  0  0  0  3  0  0  0  0  0  0
  187.5740  175.9840  136.6250 C   0  0  0  0  0  3  0  0  0  0  0  0
  188.3380  176.4020  137.7190 C   0  0  0  0  0  3  0  0  0  0  0  0
  190.3690  176.4200  143.3270 O   0  0  0  0  0  0  0  0  0  0  0  0
  190.6440  178.7730  143.7030 C   0  0  0  0  0  1  0  0  0  0  0  0
  191.1040  177.3700  144.0620 C   0  0  1  0  0  3  0  0  0  0  0  0
  190.9870  177.1210  145.5660 C   0  0  0  0  0  2  0  0  0  0  0  0
  189.7270  177.7190  146.1820 C   0  0  0  0  0  2  0  0  0  0  0  0
  189.1490  176.7870  147.2350 C   0  0  0  0  0  2  0  0  0  0  0  0
  188.3940  177.5710  148.2950 C   0  0  2  0  0  3  0  0  0  0  0  0
  187.1770  178.2430  147.6860 C   0  0  0  0  0  1  0  0  0  0  0  0
  189.2320  178.5430  148.8360 O   0  0  0  0  0  1  0  0  0  0  0  0
  1  5  1  0  0  0  0
  1 19  1  1  0  0  0
  2  8  1  0  0  0  0
  4 11  2  0  0  0  0
  4  7  1  0  0  0  0
  7  1  1  0  0  0  0
  8  3  1  6  0  0  0
  8  6  1  0  0  0  0
  9  2  2  0  0  0  0
  9 10  1  0  0  0  0
 10  5  1  6  0  0  0
 10  6  1  0  0  0  0
 11  9  1  0  0  0  0
 12  4  1  0  0  0  0
 13 16  2  0  0  0  0
 13 17  1  0  0  0  0
 14 12  1  0  0  0  0
 15 14  2  0  0  0  0
 16 15  1  0  0  0  0
 17 18  2  0  0  0  0
 18 14  1  0  0  0  0
 19 21  1  0  0  0  0
 21 20  1  1  0  0  0
 21 22  1  0  0  0  0
 22 23  1  0  0  0  0
 23 24  1  0  0  0  0
 24 25  1  0  0  0  0
 25 26  1  6  0  0  0
 25 27  1  0  0  0  0
M  END
>  <MODEL>
2

>  <REMARK>
 VINA RESULT:      -7.6      2.789      6.236
  Name = 
  8 active torsions:
  status: ('A' for Active; 'I' for Inactive)
    1  A    between atoms: C_1  and  C_24
    2  A    between atoms: C_2  and  C_6
    3  A    between atoms: C_2  and  C_9
    4  A    between atoms: C_3  and  O_26
    5  A    between atoms: C_13  and  C_20
    6  A    between atoms: C_13  and  C_22
    7  A    between atoms: C_20  and  O_26
    8  A    between atoms: C_22  and  C_24
                            x       y       z     vdW  Elec       q    Type
                         _______ _______ _______ _____ _____    ______ ____

>  <TORSDO>
F 8

$$$$
=
 OpenBabel11052413423D

 27 29  0  0  1  0  0  0  0  0999 V2000
  186.0210  177.7980  143.3380 C   0  0  2  0  0  3  0  0  0  0  0  0
  181.7950  178.8990  143.8460 N   0  0  0  0  0  2  0  0  0  0  0  0
  180.5190  180.1100  142.2560 N   0  0  0  0  0  1  0  0  0  0  0  0
  185.1640  178.6370  145.5290 C   0  0  0  0  0  0  0  0  0  0  0  0
  185.2180  178.6120  142.3380 C   0  0  0  0  0  2  0  0  0  0  0  0
  182.5840  178.6710  141.3230 S   0  0  0  0  0  0  0  0  0  0  0  0
  186.2980  178.6600  144.5570 C   0  0  0  0  0  2  0  0  0  0  0  0
  181.2180  178.8650  142.5160 C   0  0  1  0  0  3  0  0  0  0  0  0
  183.2080  178.7890  143.8760 C   0  0  0  0  0  0  0  0  0  0  0  0
  183.7620  178.6610  142.6690 C   0  0  0  0  0  0  0  0  0  0  0  0
  183.8690  178.7360  145.2010 C   0  0  0  0  0  3  0  0  0  0  0  0
  185.5040  178.5450  146.9800 C   0  0  0  0  0  2  0  0  0  0  0  0
  189.5980  177.4020  147.5610 C   0  0  0  0  0  3  0  0  0  0  0  0
  186.9330  178.1600  147.1710 C   0  0  0  0  0  0  0  0  0  0  0  0
  187.5320  177.2330  146.3100 C   0  0  0  0  0  3  0  0  0  0  0  0
  188.8650  176.8560  146.5040 C   0  0  0  0  0  3  0  0  0  0  0  0
  189.0010  178.3240  148.4260 C   0  0  0  0  0  3  0  0  0  0  0  0
  187.6680  178.7010  148.2320 C   0  0  0  0  0  3  0  0  0  0  0  0
  187.1930  177.2360  142.7770 O   0  0  0  0  0  0  0  0  0  0  0  0
  189.5100  177.7450  143.1360 C   0  0  0  0  0  1  0  0  0  0  0  0
  188.1740  178.2320  142.6020 C   0  0  1  0  0  3  0  0  0  0  0  0
  188.2860  178.6500  141.1360 C   0  0  0  0  0  2  0  0  0  0  0  0
  188.6900  177.5070  140.2110 C   0  0  0  0  0  2  0  0  0  0  0  0
  189.6280  178.0040  139.1210 C   0  0  0  0  0  2  0  0  0  0  0  0
  188.8610  178.3030  137.8440 C   0  0  2  0  0  3  0  0  0  0  0  0
  189.4440  177.5180  136.6840 C   0  0  0  0  0  1  0  0  0  0  0  0
  188.9410  179.6650  137.5640 O   0  0  0  0  0  1  0  0  0  0  0  0
  1 19  1  6  0  0  0
  1  7  1  0  0  0  0
  2  9  1  0  0  0  0
  4 12  1  0  0  0  0
  5 10  1  0  0  0  0
  5  1  1  0  0  0  0
  6  8  1  0  0  0  0
  6 10  1  0  0  0  0
  7  4  1  0  0  0  0
  8  3  1  6  0  0  0
  8  2  1  0  0  0  0
  9 11  1  0  0  0  0
 10  9  2  0  0  0  0
 11  4  2  0  0  0  0
 12 14  1  0  0  0  0
 13 17  1  0  0  0  0
 14 18  1  0  0  0  0
 15 16  1  0  0  0  0
 15 14  2  0  0  0  0
 16 13  2  0  0  0  0
 18 17  2  0  0  0  0
 21 19  1  0  0  0  0
 21 20  1  6  0  0  0
 22 21  1  0  0  0  0
 23 22  1  0  0  0  0
 24 23  1  0  0  0  0
 25 26  1  6  0  0  0
 25 24  1  0  0  0  0
 27 25  1  0  0  0  0
M  END
>  <MODEL>
3

>  <REMARK>
 VINA RESULT:      -7.5      2.204      3.874
  Name = 
  8 active torsions:
  status: ('A' for Active; 'I' for Inactive)
    1  A    between atoms: C_1  and  C_24
    2  A    between atoms: C_2  and  C_6
    3  A    between atoms: C_2  and  C_9
    4  A    between atoms: C_3  and  O_26
    5  A    between atoms: C_13  and  C_20
    6  A    between atoms: C_13  and  C_22
    7  A    between atoms: C_20  and  O_26
    8  A    between atoms: C_22  and  C_24
                            x       y       z     vdW  Elec       q    Type
                         _______ _______ _______ _____ _____    ______ ____

>  <TORSDO>
F 8

$$$$
=
 OpenBabel11052413423D

 27 29  0  0  1  0  0  0  0  0999 V2000
  189.7900  176.8810  142.7280 C   0  0  2  0  0  3  0  0  0  0  0  0
  186.1750  179.1080  141.5880 N   0  0  0  0  0  0  0  0  0  0  0  0
  183.9960  178.6450  142.4030 N   0  0  0  0  0  1  0  0  0  0  0  0
  189.3910  177.5610  140.3580 C   0  0  0  0  0  0  0  0  0  0  0  0
  188.3890  176.5540  143.2160 C   0  0  0  0  0  2  0  0  0  0  0  0
  186.0590  177.9560  143.9760 S   0  0  0  0  0  0  0  0  0  0  0  0
  189.9000  176.4880  141.2650 C   0  0  0  0  0  2  0  0  0  0  0  0
  185.3250  179.1040  142.7640 C   0  0  1  0  0  3  0  0  0  0  0  0
  187.3000  178.2500  141.6750 C   0  0  0  0  0  0  0  0  0  0  0  0
  187.3870  177.5940  142.8340 C   0  0  2  0  0  3  0  0  0  0  0  0
  188.2620  178.2550  140.5470 C   0  0  0  0  0  3  0  0  0  0  0  0
  190.1780  177.8460  139.1210 C   0  0  0  0  0  2  0  0  0  0  0  0
  191.2300  174.2390  137.0500 C   0  0  0  0  0  3  0  0  0  0  0  0
  190.5420  176.5820  138.4150 C   0  0  0  0  0  0  0  0  0  0  0  0
  191.8830  176.1860  138.3320 C   0  0  0  0  0  3  0  0  0  0  0  0
  192.2250  175.0140  137.6510 C   0  0  0  0  0  3  0  0  0  0  0  0
  189.8900  174.6360  137.1260 C   0  0  0  0  0  3  0  0  0  0  0  0
  189.5480  175.8080  137.8070 C   0  0  0  0  0  3  0  0  0  0  0  0
  190.8020  176.3070  143.5340 O   0  0  0  0  0  0  0  0  0  0  0  0
  191.0110  178.6800  143.8200 C   0  0  0  0  0  1  0  0  0  0  0  0
  191.4380  177.3030  144.3010 C   0  0  1  0  0  3  0  0  0  0  0  0
  191.1480  177.1260  145.7920 C   0  0  0  0  0  2  0  0  0  0  0  0
  189.9160  177.8910  146.2630 C   0  0  0  0  0  2  0  0  0  0  0  0
  188.8690  176.9350  146.8130 C   0  0  0  0  0  2  0  0  0  0  0  0
  188.1930  177.5230  148.0410 C   0  0  2  0  0  3  0  0  0  0  0  0
  186.9760  178.3330  147.6350 C   0  0  0  0  0  1  0  0  0  0  0  0
  189.0910  178.3490  148.7120 O   0  0  0  0  0  1  0  0  0  0  0  0
  1  5  1  0  0  0  0
  1 19  1  1  0  0  0
  2  9  2  0  0  0  0
  2  8  1  0  0  0  0
  4 11  2  0  0  0  0
  4  7  1  0  0  0  0
  7  1  1  0  0  0  0
  8  3  1  6  0  0  0
  8  6  1  0  0  0  0
  9 10  1  0  0  0  0
 10  5  1  6  0  0  0
 10  6  1  0  0  0  0
 11  9  1  0  0  0  0
 12  4  1  0  0  0  0
 13 17  2  0  0  0  0
 13 16  1  0  0  0  0
 14 12  1  0  0  0  0
 15 14  1  0  0  0  0
 16 15  2  0  0  0  0
 17 18  1  0  0  0  0
 18 14  2  0  0  0  0
 19 21  1  0  0  0  0
 21 20  1  6  0  0  0
 21 22  1  0  0  0  0
 22 23  1  0  0  0  0
 23 24  1  0  0  0  0
 24 25  1  0  0  0  0
 25 26  1  6  0  0  0
 25 27  1  0  0  0  0
M  END
>  <MODEL>
4

>  <REMARK>
 VINA RESULT:      -7.5      2.859      6.451
  Name = 
  8 active torsions:
  status: ('A' for Active; 'I' for Inactive)
    1  A    between atoms: C_1  and  C_24
    2  A    between atoms: C_2  and  C_6
    3  A    between atoms: C_2  and  C_9
    4  A    between atoms: C_3  and  O_26
    5  A    between atoms: C_13  and  C_20
    6  A    between atoms: C_13  and  C_22
    7  A    between atoms: C_20  and  O_26
    8  A    between atoms: C_22  and  C_24
                            x       y       z     vdW  Elec       q    Type
                         _______ _______ _______ _____ _____    ______ ____

>  <TORSDO>
F 8

$$$$
=
 OpenBabel11052413423D

 27 29  0  0  1  0  0  0  0  0999 V2000
  188.4040  178.2090  141.0230 C   0  0  2  0  0  3  0  0  0  0  0  0
  186.0740  177.5700  137.3500 N   0  0  0  0  0  0  0  0  0  0  0  0
  186.8060  178.1590  135.1720 N   0  0  0  0  0  1  0  0  0  0  0  0
  185.9510  178.6760  140.9570 C   0  0  0  0  0  0  0  0  0  0  0  0
  188.8550  178.6280  139.6350 C   0  0  0  0  0  2  0  0  0  0  0  0
  188.7030  177.6330  136.9970 S   0  0  0  0  0  0  0  0  0  0  0  0
  187.2800  179.1280  141.4680 C   0  0  0  0  0  2  0  0  0  0  0  0
  187.0480  177.2930  136.3110 C   0  0  1  0  0  3  0  0  0  0  0  0
  186.6320  178.0240  138.5710 C   0  0  0  0  0  0  0  0  0  0  0  0
  187.9640  178.1060  138.5550 C   0  0  2  0  0  3  0  0  0  0  0  0
  185.7110  178.2540  139.7090 C   0  0  0  0  0  3  0  0  0  0  0  0
  184.7930  178.7450  141.8970 C   0  0  0  0  0  2  0  0  0  0  0  0
  186.0730  177.9950  145.9230 C   0  0  0  0  0  3  0  0  0  0  0  0
  185.2250  178.4730  143.3000 C   0  0  0  0  0  0  0  0  0  0  0  0
  184.7180  179.2440  144.3530 C   0  0  0  0  0  3  0  0  0  0  0  0
  185.1400  179.0030  145.6640 C   0  0  0  0  0  3  0  0  0  0  0  0
  186.5870  177.2280  144.8720 C   0  0  0  0  0  3  0  0  0  0  0  0
  186.1640  177.4690  143.5610 C   0  0  0  0  0  3  0  0  0  0  0  0
  189.4690  178.1450  141.9530 O   0  0  0  0  0  0  0  0  0  0  0  0
  191.6550  177.2580  141.5180 C   0  0  0  0  0  1  0  0  0  0  0  0
  190.1920  176.9480  141.7830 C   0  0  1  0  0  3  0  0  0  0  0  0
  190.0350  176.0260  142.9940 C   0  0  0  0  0  2  0  0  0  0  0  0
  190.9250  176.4160  144.1690 C   0  0  0  0  0  2  0  0  0  0  0  0
  190.1520  177.2580  145.1720 C   0  0  0  0  0  2  0  0  0  0  0  0
  190.3800  176.7560  146.5870 C   0  0  2  0  0  3  0  0  0  0  0  0
  189.3990  177.4110  147.5430 C   0  0  0  0  0  1  0  0  0  0  0  0
  191.6800  177.0610  146.9830 O   0  0  0  0  0  1  0  0  0  0  0  0
  1  7  1  0  0  0  0
  1 19  1  1  0  0  0
  2  9  2  0  0  0  0
  4  7  1  0  0  0  0
  4 12  1  0  0  0  0
  5  1  1  0  0  0  0
  6 10  1  0  0  0  0
  8  3  1  6  0  0  0
  8  6  1  0  0  0  0
  8  2  1  0  0  0  0
  9 11  1  0  0  0  0
 10  9  1  0  0  0  0
 10  5  1  6  0  0  0
 11  4  2  0  0  0  0
 12 14  1  0  0  0  0
 14 18  2  0  0  0  0
 14 15  1  0  0  0  0
 15 16  2  0  0  0  0
 16 13  1  0  0  0  0
 17 13  2  0  0  0  0
 18 17  1  0  0  0  0
 21 20  1  1  0  0  0
 21 19  1  0  0  0  0
 21 22  1  0  0  0  0
 22 23  1  0  0  0  0
 23 24  1  0  0  0  0
 24 25  1  0  0  0  0
 25 27  1  0  0  0  0
 25 26  1  1  0  0  0
M  END
>  <MODEL>
5

>  <REMARK>
 VINA RESULT:      -7.3      2.419      3.326
  Name = 
  8 active torsions:
  status: ('A' for Active; 'I' for Inactive)
    1  A    between atoms: C_1  and  C_24
    2  A    between atoms: C_2  and  C_6
    3  A    between atoms: C_2  and  C_9
    4  A    between atoms: C_3  and  O_26
    5  A    between atoms: C_13  and  C_20
    6  A    between atoms: C_13  and  C_22
    7  A    between atoms: C_20  and  O_26
    8  A    between atoms: C_22  and  C_24
                            x       y       z     vdW  Elec       q    Type
                         _______ _______ _______ _____ _____    ______ ____

>  <TORSDO>
F 8

$$$$
=
 OpenBabel11052413423D

 27 29  0  0  1  0  0  0  0  0999 V2000
  188.4230  177.1700  143.4290 C   0  0  2  0  0  3  0  0  0  0  0  0
  191.9330  176.5910  146.0130 N   0  0  0  0  0  2  0  0  0  0  0  0
  192.0560  177.2560  148.2850 N   0  0  0  0  0  1  0  0  0  0  0  0
  190.7330  177.5910  142.5760 C   0  0  0  0  0  0  0  0  0  0  0  0
  188.5160  177.6370  144.8710 C   0  0  0  0  0  2  0  0  0  0  0  0
  189.6170  176.7150  147.3020 S   0  0  0  0  0  0  0  0  0  0  0  0
  189.3130  178.0540  142.5720 C   0  0  0  0  0  2  0  0  0  0  0  0
  191.4060  176.3630  147.3440 C   0  0  1  0  0  3  0  0  0  0  0  0
  190.9700  177.0210  145.0660 C   0  0  0  0  0  0  0  0  0  0  0  0
  189.7370  177.1290  145.5660 C   0  0  0  0  0  0  0  0  0  0  0  0
  191.4110  177.2000  143.6620 C   0  0  0  0  0  3  0  0  0  0  0  0
  191.4660  177.6110  141.2750 C   0  0  0  0  0  2  0  0  0  0  0  0
  188.8360  176.8420  137.9730 C   0  0  0  0  0  3  0  0  0  0  0  0
  190.5420  177.3320  140.1360 C   0  0  0  0  0  0  0  0  0  0  0  0
  190.8160  176.2830  139.2500 C   0  0  0  0  0  3  0  0  0  0  0  0
  189.9620  176.0370  138.1710 C   0  0  0  0  0  3  0  0  0  0  0  0
  188.5640  177.8950  138.8530 C   0  0  0  0  0  3  0  0  0  0  0  0
  189.4180  178.1410  139.9320 C   0  0  0  0  0  3  0  0  0  0  0  0
  187.0910  177.1000  142.9560 O   0  0  0  0  0  0  0  0  0  0  0  0
  185.9640  178.8570  141.7730 C   0  0  0  0  0  1  0  0  0  0  0  0
  186.4510  178.3450  143.1180 C   0  0  1  0  0  3  0  0  0  0  0  0
  185.3010  178.2520  144.1210 C   0  0  0  0  0  2  0  0  0  0  0  0
  184.2620  179.3560  143.9530 C   0  0  0  0  0  2  0  0  0  0  0  0
  182.8940  178.8810  144.4170 C   0  0  0  0  0  2  0  0  0  0  0  0
  181.8330  179.1890  143.3750 C   0  0  2  0  0  3  0  0  0  0  0  0
  180.5210  178.5240  143.7450 C   0  0  0  0  0  1  0  0  0  0  0  0
  182.2520  178.7170  142.1330 O   0  0  0  0  0  1  0  0  0  0  0  0
  1 19  1  6  0  0  0
  1  5  1  0  0  0  0
  2  8  1  0  0  0  0
  4 11  2  0  0  0  0
  5 10  1  0  0  0  0
  6  8  1  0  0  0  0
  7  4  1  0  0  0  0
  7  1  1  0  0  0  0
  8  3  1  1  0  0  0
  9 10  2  0  0  0  0
  9  2  1  0  0  0  0
 10  6  1  0  0  0  0
 11  9  1  0  0  0  0
 12  4  1  0  0  0  0
 13 16  2  0  0  0  0
 13 17  1  0  0  0  0
 14 12  1  0  0  0  0
 15 14  2  0  0  0  0
 16 15  1  0  0  0  0
 17 18  2  0  0  0  0
 18 14  1  0  0  0  0
 19 21  1  0  0  0  0
 21 20  1  6  0  0  0
 21 22  1  0  0  0  0
 23 22  1  0  0  0  0
 23 24  1  0  0  0  0
 25 26  1  1  0  0  0
 25 24  1  0  0  0  0
 27 25  1  0  0  0  0
M  END
>  <MODEL>
6

>  <REMARK>
 VINA RESULT:      -7.0      4.432      8.264
  Name = 
  8 active torsions:
  status: ('A' for Active; 'I' for Inactive)
    1  A    between atoms: C_1  and  C_24
    2  A    between atoms: C_2  and  C_6
    3  A    between atoms: C_2  and  C_9
    4  A    between atoms: C_3  and  O_26
    5  A    between atoms: C_13  and  C_20
    6  A    between atoms: C_13  and  C_22
    7  A    between atoms: C_20  and  O_26
    8  A    between atoms: C_22  and  C_24
                            x       y       z     vdW  Elec       q    Type
                         _______ _______ _______ _____ _____    ______ ____

>  <TORSDO>
F 8

$$$$
=
 OpenBabel11052413423D

 27 29  0  0  1  0  0  0  0  0999 V2000
  186.2280  177.8450  142.8950 C   0  0  2  0  0  3  0  0  0  0  0  0
  189.3650  177.3190  139.8610 N   0  0  0  0  0  0  0  0  0  0  0  0
  191.6910  177.5050  140.2830 N   0  0  0  0  0  1  0  0  0  0  0  0
  185.9770  178.8080  140.6040 C   0  0  0  0  0  0  0  0  0  0  0  0
  187.7150  178.0080  143.1590 C   0  0  0  0  0  2  0  0  0  0  0  0
  190.1290  176.7900  142.3460 S   0  0  0  0  0  0  0  0  0  0  0  0
  185.7480  179.0230  142.0650 C   0  0  0  0  0  2  0  0  0  0  0  0
  190.4930  176.7340  140.5600 C   0  0  1  0  0  3  0  0  0  0  0  0
  188.3230  177.7750  140.7060 C   0  0  0  0  0  0  0  0  0  0  0  0
  188.5580  177.5730  142.0040 C   0  0  2  0  0  3  0  0  0  0  0  0
  187.0990  178.3140  140.0670 C   0  0  0  0  0  3  0  0  0  0  0  0
  184.8870  179.2200  139.6710 C   0  0  0  0  0  2  0  0  0  0  0  0
  182.5080  175.8260  138.5610 C   0  0  0  0  0  3  0  0  0  0  0  0
  184.0460  178.0500  139.2790 C   0  0  0  0  0  0  0  0  0  0  0  0
  183.1550  177.4860  140.2010 C   0  0  0  0  0  3  0  0  0  0  0  0
  182.3850  176.3760  139.8400 C   0  0  0  0  0  3  0  0  0  0  0  0
  183.4020  176.3840  137.6410 C   0  0  0  0  0  3  0  0  0  0  0  0
  184.1720  177.4940  138.0010 C   0  0  0  0  0  3  0  0  0  0  0  0
  185.4760  177.6590  144.0800 O   0  0  0  0  0  0  0  0  0  0  0  0
  183.5710  179.0040  144.6430 C   0  0  0  0  0  1  0  0  0  0  0  0
  185.0860  178.9050  144.6100 C   0  0  1  0  0  3  0  0  0  0  0  0
  185.6830  179.1280  146.0010 C   0  0  0  0  0  2  0  0  0  0  0  0
  186.3260  177.8780  146.5900 C   0  0  0  0  0  2  0  0  0  0  0  0
  187.1870  178.2330  147.7920 C   0  0  0  0  0  2  0  0  0  0  0  0
  188.6550  178.2930  147.4050 C   0  0  2  0  0  3  0  0  0  0  0  0
  189.0110  177.1280  146.5010 C   0  0  0  0  0  1  0  0  0  0  0  0
  189.4400  178.2390  148.5550 O   0  0  0  0  0  1  0  0  0  0  0  0
  1  5  1  0  0  0  0
  1 19  1  1  0  0  0
  2  8  1  0  0  0  0
  2  9  2  0  0  0  0
  4  7  1  0  0  0  0
  7  1  1  0  0  0  0
  8  3  1  1  0  0  0
  8  6  1  0  0  0  0
  9 10  1  0  0  0  0
 10  6  1  0  0  0  0
 10  5  1  1  0  0  0
 11  4  2  0  0  0  0
 11  9  1  0  0  0  0
 12  4  1  0  0  0  0
 13 16  1  0  0  0  0
 14 12  1  0  0  0  0
 14 15  1  0  0  0  0
 16 15  2  0  0  0  0
 17 18  1  0  0  0  0
 17 13  2  0  0  0  0
 18 14  2  0  0  0  0
 19 21  1  0  0  0  0
 21 20  1  1  0  0  0
 21 22  1  0  0  0  0
 22 23  1  0  0  0  0
 23 24  1  0  0  0  0
 25 26  1  6  0  0  0
 25 24  1  0  0  0  0
 25 27  1  0  0  0  0
M  END
>  <MODEL>
7

>  <REMARK>
 VINA RESULT:      -6.9      3.232      6.276
  Name = 
  8 active torsions:
  status: ('A' for Active; 'I' for Inactive)
    1  A    between atoms: C_1  and  C_24
    2  A    between atoms: C_2  and  C_6
    3  A    between atoms: C_2  and  C_9
    4  A    between atoms: C_3  and  O_26
    5  A    between atoms: C_13  and  C_20
    6  A    between atoms: C_13  and  C_22
    7  A    between atoms: C_20  and  O_26
    8  A    between atoms: C_22  and  C_24
                            x       y       z     vdW  Elec       q    Type
                         _______ _______ _______ _____ _____    ______ ____

>  <TORSDO>
F 8

$$$$
=
 OpenBabel11052413423D

 27 29  0  0  1  0  0  0  0  0999 V2000
  185.5340  178.5550  141.1610 C   0  0  2  0  0  3  0  0  0  0  0  0
  186.0470  177.7070  145.4450 N   0  0  0  0  0  2  0  0  0  0  0  0
  185.1350  179.0220  147.1950 N   0  0  0  0  0  1  0  0  0  0  0  0
  187.7420  177.8250  142.0730 C   0  0  0  0  0  0  0  0  0  0  0  0
  184.9870  179.4240  142.2810 C   0  0  0  0  0  2  0  0  0  0  0  0
  183.8490  179.0650  144.8400 S   0  0  0  0  0  0  0  0  0  0  0  0
  187.0430  178.7240  141.1060 C   0  0  0  0  0  2  0  0  0  0  0  0
  184.8200  178.1470  146.0810 C   0  0  1  0  0  3  0  0  0  0  0  0
  186.1760  178.0950  144.0870 C   0  0  0  0  0  0  0  0  0  0  0  0
  185.1340  178.7920  143.6270 C   0  0  0  0  0  0  0  0  0  0  0  0
  187.3640  177.6180  143.3410 C   0  0  0  0  0  3  0  0  0  0  0  0
  188.9830  177.1410  141.6020 C   0  0  0  0  0  2  0  0  0  0  0  0
  191.9070  177.0130  144.7390 C   0  0  0  0  0  3  0  0  0  0  0  0
  190.0130  177.0980  142.6820 C   0  0  0  0  0  0  0  0  0  0  0  0
  190.5510  175.8710  143.0890 C   0  0  0  0  0  3  0  0  0  0  0  0
  191.4990  175.8300  144.1160 C   0  0  0  0  0  3  0  0  0  0  0  0
  191.3670  178.2390  144.3370 C   0  0  0  0  0  3  0  0  0  0  0  0
  190.4180  178.2800  143.3110 C   0  0  0  0  0  3  0  0  0  0  0  0
  184.9030  178.7980  139.9170 O   0  0  0  0  0  0  0  0  0  0  0  0
  182.9480  179.7850  138.9390 C   0  0  0  0  0  1  0  0  0  0  0  0
  183.5210  178.9960  140.1030 C   0  0  1  0  0  3  0  0  0  0  0  0
  182.7880  177.6660  140.2810 C   0  0  0  0  0  2  0  0  0  0  0  0
  181.3150  177.8310  140.6400 C   0  0  0  0  0  2  0  0  0  0  0  0
  181.1610  178.6710  141.8970 C   0  0  0  0  0  2  0  0  0  0  0  0
  179.8350  178.3820  142.5810 C   0  0  2  0  0  3  0  0  0  0  0  0
  180.0240  178.3010  144.0840 C   0  0  0  0  0  1  0  0  0  0  0  0
  179.3290  177.1700  142.1160 O   0  0  0  0  0  1  0  0  0  0  0  0
  1 19  1  6  0  0  0
  1  5  1  0  0  0  0
  2  8  1  0  0  0  0
  4 11  2  0  0  0  0
  5 10  1  0  0  0  0
  6  8  1  0  0  0  0
  7  1  1  0  0  0  0
  7  4  1  0  0  0  0
  8  3  1  1  0  0  0
  9  2  1  0  0  0  0
 10  9  2  0  0  0  0
 10  6  1  0  0  0  0
 11  9  1  0  0  0  0
 12  4  1  0  0  0  0
 12 14  1  0  0  0  0
 14 15  2  0  0  0  0
 14 18  1  0  0  0  0
 15 16  1  0  0  0  0
 16 13  2  0  0  0  0
 17 13  1  0  0  0  0
 18 17  2  0  0  0  0
 19 21  1  0  0  0  0
 21 20  1  6  0  0  0
 21 22  1  0  0  0  0
 22 23  1  0  0  0  0
 23 24  1  0  0  0  0
 24 25  1  0  0  0  0
 25 26  1  1  0  0  0
 27 25  1  0  0  0  0
M  END
>  <MODEL>
8

>  <REMARK>
 VINA RESULT:      -6.9      3.261      6.782
  Name = 
  8 active torsions:
  status: ('A' for Active; 'I' for Inactive)
    1  A    between atoms: C_1  and  C_24
    2  A    between atoms: C_2  and  C_6
    3  A    between atoms: C_2  and  C_9
    4  A    between atoms: C_3  and  O_26
    5  A    between atoms: C_13  and  C_20
    6  A    between atoms: C_13  and  C_22
    7  A    between atoms: C_20  and  O_26
    8  A    between atoms: C_22  and  C_24
                            x       y       z     vdW  Elec       q    Type
                         _______ _______ _______ _____ _____    ______ ____

>  <TORSDO>
F 8

$$$$
=
 OpenBabel11052413423D

 27 29  0  0  1  0  0  0  0  0999 V2000
  187.1300  177.1840  143.1580 C   0  0  2  0  0  3  0  0  0  0  0  0
  183.3240  178.7360  144.7170 N   0  0  0  0  0  2  0  0  0  0  0  0
  181.8380  180.1280  143.5000 N   0  0  0  0  0  1  0  0  0  0  0  0
  186.9540  178.0500  145.4940 C   0  0  0  0  0  0  0  0  0  0  0  0
  186.2020  178.1110  142.3930 C   0  0  0  0  0  2  0  0  0  0  0  0
  183.4230  178.4940  142.0770 S   0  0  0  0  0  0  0  0  0  0  0  0
  187.8030  177.9740  144.2670 C   0  0  0  0  0  2  0  0  0  0  0  0
  182.4320  178.8050  143.5750 C   0  0  1  0  0  3  0  0  0  0  0  0
  184.6770  178.4680  144.3890 C   0  0  0  0  0  0  0  0  0  0  0  0
  184.8910  178.3140  143.0810 C   0  0  0  0  0  0  0  0  0  0  0  0
  185.6390  178.3030  145.5040 C   0  0  0  0  0  3  0  0  0  0  0  0
  187.6340  177.8780  146.8120 C   0  0  0  0  0  2  0  0  0  0  0  0
  191.7390  176.7300  146.3270 C   0  0  0  0  0  3  0  0  0  0  0  0
  189.0570  177.4680  146.6310 C   0  0  0  0  0  0  0  0  0  0  0  0
  189.5700  176.3770  147.3440 C   0  0  0  0  0  3  0  0  0  0  0  0
  190.9100  176.0080  147.1900 C   0  0  0  0  0  3  0  0  0  0  0  0
  191.2310  177.8240  145.6180 C   0  0  0  0  0  3  0  0  0  0  0  0
  189.8910  178.1930  145.7720 C   0  0  0  0  0  3  0  0  0  0  0  0
  188.0510  176.5110  142.3200 O   0  0  0  0  0  0  0  0  0  0  0  0
  190.1710  175.6280  143.0160 C   0  0  0  0  0  1  0  0  0  0  0  0
  189.3710  176.8690  142.6600 C   0  0  1  0  0  3  0  0  0  0  0  0
  190.0420  177.6510  141.5300 C   0  0  0  0  0  2  0  0  0  0  0  0
  190.3670  176.7940  140.3110 C   0  0  0  0  0  2  0  0  0  0  0  0
  190.2700  177.6160  139.0360 C   0  0  0  0  0  2  0  0  0  0  0  0
  188.9740  178.4100  139.0020 C   0  0  2  0  0  3  0  0  0  0  0  0
  187.8030  177.4930  138.7040 C   0  0  0  0  0  1  0  0  0  0  0  0
  189.0560  179.3870  138.0120 O   0  0  0  0  0  1  0  0  0  0  0  0
  1 19  1  6  0  0  0
  1  7  1  0  0  0  0
  4 11  2  0  0  0  0
  4 12  1  0  0  0  0
  5 10  1  0  0  0  0
  5  1  1  0  0  0  0
  6 10  1  0  0  0  0
  6  8  1  0  0  0  0
  7  4  1  0  0  0  0
  8  3  1  6  0  0  0
  8  2  1  0  0  0  0
  9  2  1  0  0  0  0
  9 11  1  0  0  0  0
 10  9  2  0  0  0  0
 13 16  1  0  0  0  0
 14 12  1  0  0  0  0
 14 15  1  0  0  0  0
 16 15  2  0  0  0  0
 17 18  1  0  0  0  0
 17 13  2  0  0  0  0
 18 14  2  0  0  0  0
 19 21  1  0  0  0  0
 21 20  1  6  0  0  0
 22 21  1  0  0  0  0
 23 22  1  0  0  0  0
 24 23  1  0  0  0  0
 25 26  1  6  0  0  0
 25 24  1  0  0  0  0
 27 25  1  0  0  0  0
M  END
>  <MODEL>
9

>  <REMARK>
 VINA RESULT:      -6.8      2.443      4.357
  Name = 
  8 active torsions:
  status: ('A' for Active; 'I' for Inactive)
    1  A    between atoms: C_1  and  C_24
    2  A    between atoms: C_2  and  C_6
    3  A    between atoms: C_2  and  C_9
    4  A    between atoms: C_3  and  O_26
    5  A    between atoms: C_13  and  C_20
    6  A    between atoms: C_13  and  C_22
    7  A    between atoms: C_20  and  O_26
    8  A    between atoms: C_22  and  C_24
                            x       y       z     vdW  Elec       q    Type
                         _______ _______ _______ _____ _____    ______ ____

>  <TORSDO>
F 8

$$$$
