=
 OpenBabel11052412483D

 25 29  0  0  0  0  0  0  0  0999 V2000
  186.7390  178.0980  145.1970 C   0  0  0  0  0  0  0  0  0  0  0  0
  187.9950  177.7910  144.6720 C   0  0  0  0  0  0  0  0  0  0  0  0
  187.5100  177.8620  147.4740 C   0  0  0  0  0  3  0  0  0  0  0  0
  185.5940  178.3980  144.5720 N   0  0  0  0  0  0  0  0  0  0  0  0
  183.0270  179.0580  143.9180 C   0  0  0  0  0  3  0  0  0  0  0  0
  188.7890  177.5480  146.9780 C   0  0  0  0  0  3  0  0  0  0  0  0
  184.7000  178.6060  145.5640 C   0  0  0  0  0  0  0  0  0  0  0  0
  183.3810  178.9450  145.2720 C   0  0  0  0  0  3  0  0  0  0  0  0
  190.3290  177.1940  145.0500 N   0  0  0  0  0  0  0  0  0  0  0  0
  191.4600  176.8930  145.9120 C   0  0  0  0  0  1  0  0  0  0  0  0
  188.2420  177.7540  143.2610 N   0  0  0  0  0  0  0  0  0  0  0  0
  183.9780  178.8360  142.9040 C   0  0  0  0  0  3  0  0  0  0  0  0
  186.5050  178.1320  146.5490 C   0  0  0  0  0  0  0  0  0  0  0  0
  185.2160  178.4530  146.8110 N   0  0  0  0  0  0  0  0  0  0  0  0
  190.5070  177.1740  143.6560 N   0  0  0  0  0  2  0  0  0  0  0  0
  185.2930  178.4990  143.2530 C   0  0  0  0  0  3  0  0  0  0  0  0
  189.4140  177.4670  142.7700 C   0  0  0  0  0  0  0  0  0  0  0  0
  189.0350  177.5110  145.5830 C   0  0  0  0  0  0  0  0  0  0  0  0
  188.8690  178.0050  139.0690 C   0  0  0  0  0  0  0  0  0  0  0  0
  189.6210  177.4410  141.3110 C   0  0  0  0  0  0  0  0  0  0  0  0
  188.6780  178.0270  140.4540 C   0  0  0  0  0  3  0  0  0  0  0  0
  187.9070  178.6020  138.2100 N   0  0  0  0  0  1  0  0  0  0  0  0
  190.7600  176.8330  140.7610 C   0  0  0  0  0  3  0  0  0  0  0  0
  190.0070  177.3970  138.5300 C   0  0  0  0  0  3  0  0  0  0  0  0
  190.9520  176.8110  139.3760 C   0  0  0  0  0  3  0  0  0  0  0  0
  1 13  1  0  0  0  0
  2  1  2  0  0  0  0
  2 18  1  0  0  0  0
  4  1  1  0  0  0  0
  4  7  1  0  0  0  0
  5  8  2  0  0  0  0
  6  3  1  0  0  0  0
  7 14  2  0  0  0  0
  8  7  1  0  0  0  0
  9 18  1  0  0  0  0
  9 10  1  0  0  0  0
 11  2  1  0  0  0  0
 12 16  2  0  0  0  0
 12  5  1  0  0  0  0
 13 14  1  0  0  0  0
 13  3  2  0  0  0  0
 15  9  1  0  0  0  0
 16  4  1  0  0  0  0
 17 11  2  0  0  0  0
 17 15  1  0  0  0  0
 18  6  2  0  0  0  0
 19 21  1  0  0  0  0
 20 17  1  0  0  0  0
 21 20  2  0  0  0  0
 22 19  1  0  0  0  0
 23 20  1  0  0  0  0
 24 19  2  0  0  0  0
 24 25  1  0  0  0  0
 25 23  2  0  0  0  0
M  END
>  <MODEL>
1

>  <REMARK>
 VINA RESULT:     -10.7      0.000      0.000
  Name = 
  1 active torsions:
  status: ('A' for Active; 'I' for Inactive)
    1  A    between atoms: C_6  and  C_23
                            x       y       z     vdW  Elec       q    Type
                         _______ _______ _______ _____ _____    ______ ____

>  <TORSDO>
F 1

$$$$
=
 OpenBabel11052412483D

 25 29  0  0  0  0  0  0  0  0999 V2000
  189.8350  177.4100  143.5990 C   0  0  0  0  0  0  0  0  0  0  0  0
  188.7770  177.5760  144.4930 C   0  0  0  0  0  0  0  0  0  0  0  0
  191.4070  176.9470  145.3730 C   0  0  0  0  0  3  0  0  0  0  0  0
  189.8560  177.4990  142.2630 N   0  0  0  0  0  0  0  0  0  0  0  0
  190.5450  177.5350  139.6210 C   0  0  0  0  0  3  0  0  0  0  0  0
  190.3620  177.1080  146.3020 C   0  0  0  0  0  3  0  0  0  0  0  0
  191.1390  177.2460  141.9180 C   0  0  0  0  0  0  0  0  0  0  0  0
  191.5300  177.2540  140.5820 C   0  0  0  0  0  3  0  0  0  0  0  0
  187.9660  177.5910  146.7920 N   0  0  0  0  0  0  0  0  0  0  0  0
  188.1540  177.4510  148.2270 C   0  0  0  0  0  1  0  0  0  0  0  0
  187.4500  177.8930  144.0510 N   0  0  0  0  0  0  0  0  0  0  0  0
  189.2160  177.7950  140.0080 C   0  0  0  0  0  3  0  0  0  0  0  0
  191.1050  177.1070  144.0230 C   0  0  0  0  0  0  0  0  0  0  0  0
  191.9540  176.9960  142.9750 N   0  0  0  0  0  0  0  0  0  0  0  0
  186.6880  177.9020  146.2970 N   0  0  0  0  0  2  0  0  0  0  0  0
  188.8750  177.7730  141.3670 C   0  0  0  0  0  3  0  0  0  0  0  0
  186.4620  178.0480  144.8850 C   0  0  0  0  0  0  0  0  0  0  0  0
  189.0500  177.4220  145.8680 C   0  0  0  0  0  0  0  0  0  0  0  0
  183.5600  178.6220  142.5320 C   0  0  0  0  0  0  0  0  0  0  0  0
  185.1140  178.3750  144.3850 C   0  0  0  0  0  0  0  0  0  0  0  0
  184.8370  178.3140  143.0120 C   0  0  0  0  0  3  0  0  0  0  0  0
  183.2900  178.5570  141.1380 N   0  0  0  0  0  1  0  0  0  0  0  0
  184.0930  178.7490  145.2730 C   0  0  0  0  0  3  0  0  0  0  0  0
  182.5500  178.9940  143.4230 C   0  0  0  0  0  3  0  0  0  0  0  0
  182.8160  179.0570  144.7940 C   0  0  0  0  0  3  0  0  0  0  0  0
  1 13  2  0  0  0  0
  1  2  1  0  0  0  0
  2 18  2  0  0  0  0
  3  6  2  0  0  0  0
  4  1  1  0  0  0  0
  5 12  1  0  0  0  0
  5  8  2  0  0  0  0
  7  4  1  0  0  0  0
  7 14  2  0  0  0  0
  8  7  1  0  0  0  0
  9 10  1  0  0  0  0
 11  2  1  0  0  0  0
 11 17  2  0  0  0  0
 12 16  2  0  0  0  0
 13  3  1  0  0  0  0
 14 13  1  0  0  0  0
 15  9  1  0  0  0  0
 16  4  1  0  0  0  0
 17 15  1  0  0  0  0
 18  6  1  0  0  0  0
 18  9  1  0  0  0  0
 19 21  2  0  0  0  0
 19 24  1  0  0  0  0
 20 17  1  0  0  0  0
 20 23  2  0  0  0  0
 21 20  1  0  0  0  0
 22 19  1  0  0  0  0
 24 25  2  0  0  0  0
 25 23  1  0  0  0  0
M  END
>  <MODEL>
2

>  <REMARK>
 VINA RESULT:     -10.5      1.466      5.889
  Name = 
  1 active torsions:
  status: ('A' for Active; 'I' for Inactive)
    1  A    between atoms: C_6  and  C_23
                            x       y       z     vdW  Elec       q    Type
                         _______ _______ _______ _____ _____    ______ ____

>  <TORSDO>
F 1

$$$$
=
 OpenBabel11052412483D

 25 29  0  0  0  0  0  0  0  0999 V2000
  189.8110  177.2900  143.4410 C   0  0  0  0  0  0  0  0  0  0  0  0
  188.7330  177.6570  142.6350 C   0  0  0  0  0  0  0  0  0  0  0  0
  191.3160  177.1490  141.5570 C   0  0  0  0  0  3  0  0  0  0  0  0
  189.8740  177.1100  144.7670 N   0  0  0  0  0  0  0  0  0  0  0  0
  190.6400  176.6030  147.3380 C   0  0  0  0  0  3  0  0  0  0  0  0
  190.2490  177.5180  140.7150 C   0  0  0  0  0  3  0  0  0  0  0  0
  191.1580  176.7620  145.0090 C   0  0  0  0  0  0  0  0  0  0  0  0
  191.5870  176.4960  146.3070 C   0  0  0  0  0  3  0  0  0  0  0  0
  187.8560  178.1480  140.4130 N   0  0  0  0  0  0  0  0  0  0  0  0
  187.9980  178.2900  138.9730 C   0  0  0  0  0  1  0  0  0  0  0  0
  187.4310  177.9130  143.1760 N   0  0  0  0  0  0  0  0  0  0  0  0
  189.3090  176.9680  147.0560 C   0  0  0  0  0  3  0  0  0  0  0  0
  191.0580  177.0450  142.9210 C   0  0  0  0  0  0  0  0  0  0  0  0
  191.9330  176.7070  143.8960 N   0  0  0  0  0  0  0  0  0  0  0  0
  186.6040  178.3850  141.0040 N   0  0  0  0  0  2  0  0  0  0  0  0
  188.9280  177.2260  145.7320 C   0  0  0  0  0  3  0  0  0  0  0  0
  186.4240  178.2550  142.4240 C   0  0  0  0  0  0  0  0  0  0  0  0
  188.9610  177.7710  141.2480 C   0  0  0  0  0  0  0  0  0  0  0  0
  182.7050  178.8290  142.7780 C   0  0  0  0  0  0  0  0  0  0  0  0
  185.1020  178.5090  143.0250 C   0  0  0  0  0  0  0  0  0  0  0  0
  183.9610  178.5890  142.2130 C   0  0  0  0  0  3  0  0  0  0  0  0
  181.5550  178.9080  141.9450 N   0  0  0  0  0  1  0  0  0  0  0  0
  184.9660  178.6720  144.4130 C   0  0  0  0  0  3  0  0  0  0  0  0
  182.5790  178.9900  144.1600 C   0  0  0  0  0  3  0  0  0  0  0  0
  183.7100  178.9120  144.9780 C   0  0  0  0  0  3  0  0  0  0  0  0
  1  4  1  0  0  0  0
  2 11  1  0  0  0  0
  2  1  2  0  0  0  0
  3 13  2  0  0  0  0
  4  7  1  0  0  0  0
  4 16  1  0  0  0  0
  6 18  2  0  0  0  0
  6  3  1  0  0  0  0
  7  8  1  0  0  0  0
  8  5  2  0  0  0  0
  9 15  1  0  0  0  0
  9 18  1  0  0  0  0
 10  9  1  0  0  0  0
 12  5  1  0  0  0  0
 13  1  1  0  0  0  0
 13 14  1  0  0  0  0
 14  7  2  0  0  0  0
 15 17  1  0  0  0  0
 16 12  2  0  0  0  0
 17 20  1  0  0  0  0
 17 11  2  0  0  0  0
 18  2  1  0  0  0  0
 19 24  1  0  0  0  0
 20 23  2  0  0  0  0
 21 19  2  0  0  0  0
 21 20  1  0  0  0  0
 22 19  1  0  0  0  0
 23 25  1  0  0  0  0
 24 25  2  0  0  0  0
M  END
>  <MODEL>
3

>  <REMARK>
 VINA RESULT:     -10.2      1.601      6.372
  Name = 
  1 active torsions:
  status: ('A' for Active; 'I' for Inactive)
    1  A    between atoms: C_6  and  C_23
                            x       y       z     vdW  Elec       q    Type
                         _______ _______ _______ _____ _____    ______ ____

>  <TORSDO>
F 1

$$$$
=
 OpenBabel11052412483D

 25 29  0  0  0  0  0  0  0  0999 V2000
  185.2570  178.3890  144.3700 C   0  0  0  0  0  0  0  0  0  0  0  0
  186.6150  178.1260  144.1820 C   0  0  0  0  0  0  0  0  0  0  0  0
  185.4820  178.4250  146.7740 C   0  0  0  0  0  3  0  0  0  0  0  0
  184.2780  178.5460  143.4700 N   0  0  0  0  0  0  0  0  0  0  0  0
  181.9070  178.9550  142.1790 C   0  0  0  0  0  3  0  0  0  0  0  0
  186.8560  178.1590  146.6210 C   0  0  0  0  0  3  0  0  0  0  0  0
  183.1670  178.7810  144.2030 C   0  0  0  0  0  0  0  0  0  0  0  0
  181.9390  178.9950  143.5820 C   0  0  0  0  0  3  0  0  0  0  0  0
  188.8210  177.7370  145.1460 N   0  0  0  0  0  0  0  0  0  0  0  0
  189.7310  177.6010  146.2720 C   0  0  0  0  0  1  0  0  0  0  0  0
  187.1870  177.9740  142.8770 N   0  0  0  0  0  0  0  0  0  0  0  0
  183.0800  178.7080  141.4400 C   0  0  0  0  0  3  0  0  0  0  0  0
  184.7100  178.5340  145.6200 C   0  0  0  0  0  0  0  0  0  0  0  0
  183.3820  178.7840  145.5430 N   0  0  0  0  0  0  0  0  0  0  0  0
  189.3220  177.5990  143.8410 N   0  0  0  0  0  2  0  0  0  0  0  0
  184.2910  178.5000  142.1140 C   0  0  0  0  0  3  0  0  0  0  0  0
  188.4540  177.7280  142.7020 C   0  0  0  0  0  0  0  0  0  0  0  0
  187.4240  178.0090  145.3310 C   0  0  0  0  0  0  0  0  0  0  0  0
  188.9290  178.1340  138.9740 C   0  0  0  0  0  0  0  0  0  0  0  0
  189.0000  177.5800  141.3400 C   0  0  0  0  0  0  0  0  0  0  0  0
  188.4170  178.2700  140.2680 C   0  0  0  0  0  3  0  0  0  0  0  0
  188.3310  178.8380  137.8940 N   0  0  0  0  0  1  0  0  0  0  0  0
  190.1060  176.7500  141.0990 C   0  0  0  0  0  3  0  0  0  0  0  0
  190.0310  177.3050  138.7430 C   0  0  0  0  0  3  0  0  0  0  0  0
  190.6190  176.6130  139.8060 C   0  0  0  0  0  3  0  0  0  0  0  0
  1 13  1  0  0  0  0
  2  1  2  0  0  0  0
  2 18  1  0  0  0  0
  4  7  1  0  0  0  0
  4  1  1  0  0  0  0
  5  8  2  0  0  0  0
  6  3  1  0  0  0  0
  7 14  2  0  0  0  0
  8  7  1  0  0  0  0
  9 18  1  0  0  0  0
  9 10  1  0  0  0  0
 11  2  1  0  0  0  0
 12 16  2  0  0  0  0
 12  5  1  0  0  0  0
 13  3  2  0  0  0  0
 14 13  1  0  0  0  0
 15  9  1  0  0  0  0
 16  4  1  0  0  0  0
 17 11  2  0  0  0  0
 17 15  1  0  0  0  0
 18  6  2  0  0  0  0
 19 21  1  0  0  0  0
 20 17  1  0  0  0  0
 21 20  2  0  0  0  0
 22 19  1  0  0  0  0
 23 20  1  0  0  0  0
 24 19  2  0  0  0  0
 24 25  1  0  0  0  0
 25 23  2  0  0  0  0
M  END
>  <MODEL>
4

>  <REMARK>
 VINA RESULT:     -10.0      1.113      1.553
  Name = 
  1 active torsions:
  status: ('A' for Active; 'I' for Inactive)
    1  A    between atoms: C_6  and  C_23
                            x       y       z     vdW  Elec       q    Type
                         _______ _______ _______ _____ _____    ______ ____

>  <TORSDO>
F 1

$$$$
=
 OpenBabel11052412483D

 25 29  0  0  0  0  0  0  0  0999 V2000
  189.7800  177.4820  142.4910 C   0  0  0  0  0  0  0  0  0  0  0  0
  188.6650  177.7880  141.7100 C   0  0  0  0  0  0  0  0  0  0  0  0
  191.2280  177.3370  140.5640 C   0  0  0  0  0  3  0  0  0  0  0  0
  189.8900  177.3450  143.8180 N   0  0  0  0  0  0  0  0  0  0  0  0
  190.7540  176.9400  146.3770 C   0  0  0  0  0  3  0  0  0  0  0  0
  190.1240  177.6430  139.7470 C   0  0  0  0  0  3  0  0  0  0  0  0
  191.1920  177.0480  144.0290 C   0  0  0  0  0  0  0  0  0  0  0  0
  191.6720  176.8350  145.3200 C   0  0  0  0  0  3  0  0  0  0  0  0
  187.7020  178.1830  139.5050 N   0  0  0  0  0  0  0  0  0  0  0  0
  187.7940  178.2870  138.0570 C   0  0  0  0  0  1  0  0  0  0  0  0
  187.3720  178.0160  142.2860 N   0  0  0  0  0  0  0  0  0  0  0  0
  189.4030  177.2510  146.1280 C   0  0  0  0  0  3  0  0  0  0  0  0
  191.0170  177.2640  141.9380 C   0  0  0  0  0  0  0  0  0  0  0  0
  191.9340  176.9860  142.8940 N   0  0  0  0  0  0  0  0  0  0  0  0
  186.4620  178.3960  140.1290 N   0  0  0  0  0  2  0  0  0  0  0  0
  188.9720  177.4570  144.8110 C   0  0  0  0  0  3  0  0  0  0  0  0
  186.3310  178.3020  141.5570 C   0  0  0  0  0  0  0  0  0  0  0  0
  188.8450  177.8690  140.3140 C   0  0  0  0  0  0  0  0  0  0  0  0
  183.6890  178.9050  144.1920 C   0  0  0  0  0  0  0  0  0  0  0  0
  185.0200  178.5280  142.1930 C   0  0  0  0  0  0  0  0  0  0  0  0
  184.9290  178.6910  143.5830 C   0  0  0  0  0  3  0  0  0  0  0  0
  183.6080  179.0690  145.6010 N   0  0  0  0  0  1  0  0  0  0  0  0
  183.8500  178.5850  141.4200 C   0  0  0  0  0  3  0  0  0  0  0  0
  182.5290  178.9600  143.4140 C   0  0  0  0  0  3  0  0  0  0  0  0
  182.6100  178.8000  142.0280 C   0  0  0  0  0  3  0  0  0  0  0  0
  1  4  1  0  0  0  0
  2 11  1  0  0  0  0
  2  1  2  0  0  0  0
  3 13  2  0  0  0  0
  4  7  1  0  0  0  0
  4 16  1  0  0  0  0
  6 18  2  0  0  0  0
  6  3  1  0  0  0  0
  7  8  1  0  0  0  0
  8  5  2  0  0  0  0
  9 15  1  0  0  0  0
  9 18  1  0  0  0  0
 10  9  1  0  0  0  0
 12  5  1  0  0  0  0
 13  1  1  0  0  0  0
 13 14  1  0  0  0  0
 14  7  2  0  0  0  0
 15 17  1  0  0  0  0
 16 12  2  0  0  0  0
 17 20  1  0  0  0  0
 17 11  2  0  0  0  0
 18  2  1  0  0  0  0
 19 22  1  0  0  0  0
 20 21  2  0  0  0  0
 21 19  1  0  0  0  0
 23 25  2  0  0  0  0
 23 20  1  0  0  0  0
 24 19  2  0  0  0  0
 25 24  1  0  0  0  0
M  END
>  <MODEL>
5

>  <REMARK>
 VINA RESULT:     -10.0      1.451      6.612
  Name = 
  1 active torsions:
  status: ('A' for Active; 'I' for Inactive)
    1  A    between atoms: C_6  and  C_23
                            x       y       z     vdW  Elec       q    Type
                         _______ _______ _______ _____ _____    ______ ____

>  <TORSDO>
F 1

$$$$
=
 OpenBabel11052412483D

 25 29  0  0  0  0  0  0  0  0999 V2000
  188.2140  177.5020  145.3770 C   0  0  0  0  0  0  0  0  0  0  0  0
  187.6420  177.7760  144.1340 C   0  0  0  0  0  0  0  0  0  0  0  0
  186.1620  177.9930  146.5540 C   0  0  0  0  0  3  0  0  0  0  0  0
  189.4580  177.1150  145.6870 N   0  0  0  0  0  0  0  0  0  0  0  0
  191.7560  176.3390  146.9400 C   0  0  0  0  0  3  0  0  0  0  0  0
  185.5550  178.2780  145.3160 C   0  0  0  0  0  3  0  0  0  0  0  0
  189.4590  176.9960  147.0330 C   0  0  0  0  0  0  0  0  0  0  0  0
  190.6120  176.6030  147.7100 C   0  0  0  0  0  3  0  0  0  0  0  0
  185.6940  178.4540  142.8330 N   0  0  0  0  0  0  0  0  0  0  0  0
  184.3060  178.8680  142.7100 C   0  0  0  0  0  1  0  0  0  0  0  0
  188.3860  177.6670  142.9140 N   0  0  0  0  0  0  0  0  0  0  0  0
  191.7260  176.4700  145.5380 C   0  0  0  0  0  3  0  0  0  0  0  0
  187.5000  177.6070  146.5450 C   0  0  0  0  0  0  0  0  0  0  0  0
  188.2680  177.2910  147.6130 N   0  0  0  0  0  0  0  0  0  0  0  0
  186.4760  178.3300  141.6730 N   0  0  0  0  0  2  0  0  0  0  0  0
  190.5400  176.8690  144.9070 C   0  0  0  0  0  3  0  0  0  0  0  0
  187.8530  177.9230  141.7530 C   0  0  0  0  0  0  0  0  0  0  0  0
  186.2880  178.1710  144.1080 C   0  0  0  0  0  0  0  0  0  0  0  0
  189.1040  178.4550  138.2270 C   0  0  0  0  0  0  0  0  0  0  0  0
  188.6570  177.7980  140.5240 C   0  0  0  0  0  0  0  0  0  0  0  0
  188.3450  178.5690  139.3950 C   0  0  0  0  0  3  0  0  0  0  0  0
  188.7790  179.2410  137.0880 N   0  0  0  0  0  1  0  0  0  0  0  0
  189.7420  176.9090  140.4660 C   0  0  0  0  0  3  0  0  0  0  0  0
  190.1830  177.5670  138.1780 C   0  0  0  0  0  3  0  0  0  0  0  0
  190.5010  176.7940  139.2980 C   0  0  0  0  0  3  0  0  0  0  0  0
  1  4  1  0  0  0  0
  1 13  1  0  0  0  0
  2  1  2  0  0  0  0
  4  7  1  0  0  0  0
  5  8  2  0  0  0  0
  6  3  1  0  0  0  0
  7 14  2  0  0  0  0
  7  8  1  0  0  0  0
  9 18  1  0  0  0  0
 10  9  1  0  0  0  0
 11  2  1  0  0  0  0
 12  5  1  0  0  0  0
 13  3  2  0  0  0  0
 13 14  1  0  0  0  0
 15 17  1  0  0  0  0
 15  9  1  0  0  0  0
 16 12  2  0  0  0  0
 16  4  1  0  0  0  0
 17 11  2  0  0  0  0
 18  2  1  0  0  0  0
 18  6  2  0  0  0  0
 19 21  1  0  0  0  0
 20 17  1  0  0  0  0
 21 20  2  0  0  0  0
 22 19  1  0  0  0  0
 23 20  1  0  0  0  0
 24 19  2  0  0  0  0
 24 25  1  0  0  0  0
 25 23  2  0  0  0  0
M  END
>  <MODEL>
6

>  <REMARK>
 VINA RESULT:      -9.9      1.353      4.364
  Name = 
  1 active torsions:
  status: ('A' for Active; 'I' for Inactive)
    1  A    between atoms: C_6  and  C_23
                            x       y       z     vdW  Elec       q    Type
                         _______ _______ _______ _____ _____    ______ ____

>  <TORSDO>
F 1

$$$$
=
 OpenBabel11052412483D

 25 29  0  0  0  0  0  0  0  0999 V2000
  186.1820  178.3780  142.0870 C   0  0  0  0  0  0  0  0  0  0  0  0
  187.5320  178.0460  142.2020 C   0  0  0  0  0  0  0  0  0  0  0  0
  186.3090  178.5360  139.6800 C   0  0  0  0  0  3  0  0  0  0  0  0
  185.2480  178.5270  143.0360 N   0  0  0  0  0  0  0  0  0  0  0  0
  182.9520  178.9640  144.4470 C   0  0  0  0  0  3  0  0  0  0  0  0
  187.6750  178.2040  139.7600 C   0  0  0  0  0  3  0  0  0  0  0  0
  184.1190  178.8480  142.3640 C   0  0  0  0  0  0  0  0  0  0  0  0
  182.9280  179.0790  143.0480 C   0  0  0  0  0  3  0  0  0  0  0  0
  189.6780  177.6190  141.1240 N   0  0  0  0  0  0  0  0  0  0  0  0
  190.5340  177.5070  139.9550 C   0  0  0  0  0  1  0  0  0  0  0  0
  188.1500  177.8000  143.4710 N   0  0  0  0  0  0  0  0  0  0  0  0
  184.1420  178.6270  145.1210 C   0  0  0  0  0  3  0  0  0  0  0  0
  185.5910  178.6140  140.8710 C   0  0  0  0  0  0  0  0  0  0  0  0
  184.2800  178.9160  141.0180 N   0  0  0  0  0  0  0  0  0  0  0  0
  190.2250  177.3890  142.3970 N   0  0  0  0  0  2  0  0  0  0  0  0
  185.3140  178.4050  144.3850 C   0  0  0  0  0  3  0  0  0  0  0  0
  189.4110  177.4900  143.5780 C   0  0  0  0  0  0  0  0  0  0  0  0
  188.2880  177.9590  141.0140 C   0  0  0  0  0  0  0  0  0  0  0  0
  189.8930  177.4310  147.3260 C   0  0  0  0  0  0  0  0  0  0  0  0
  190.0050  177.2450  144.9050 C   0  0  0  0  0  0  0  0  0  0  0  0
  189.3350  177.6600  146.0650 C   0  0  0  0  0  3  0  0  0  0  0  0
  189.2050  177.8560  148.4950 N   0  0  0  0  0  1  0  0  0  0  0  0
  191.2430  176.5940  145.0260 C   0  0  0  0  0  3  0  0  0  0  0  0
  191.1260  176.7820  147.4370 C   0  0  0  0  0  3  0  0  0  0  0  0
  191.8010  176.3640  146.2870 C   0  0  0  0  0  3  0  0  0  0  0  0
  1  2  1  0  0  0  0
  1  4  1  0  0  0  0
  2 11  1  0  0  0  0
  3  6  2  0  0  0  0
  3 13  1  0  0  0  0
  4 16  1  0  0  0  0
  5 12  1  0  0  0  0
  6 18  1  0  0  0  0
  7  4  1  0  0  0  0
  7  8  1  0  0  0  0
  8  5  2  0  0  0  0
  9 15  1  0  0  0  0
 10  9  1  0  0  0  0
 11 17  2  0  0  0  0
 13 14  1  0  0  0  0
 13  1  2  0  0  0  0
 14  7  2  0  0  0  0
 15 17  1  0  0  0  0
 16 12  2  0  0  0  0
 17 20  1  0  0  0  0
 18  9  1  0  0  0  0
 18  2  2  0  0  0  0
 19 24  1  0  0  0  0
 19 22  1  0  0  0  0
 20 23  2  0  0  0  0
 20 21  1  0  0  0  0
 21 19  2  0  0  0  0
 23 25  1  0  0  0  0
 25 24  2  0  0  0  0
M  END
>  <MODEL>
7

>  <REMARK>
 VINA RESULT:      -9.9      1.692      5.190
  Name = 
  1 active torsions:
  status: ('A' for Active; 'I' for Inactive)
    1  A    between atoms: C_6  and  C_23
                            x       y       z     vdW  Elec       q    Type
                         _______ _______ _______ _____ _____    ______ ____

>  <TORSDO>
F 1

$$$$
=
 OpenBabel11052412483D

 25 29  0  0  0  0  0  0  0  0999 V2000
  186.0640  178.4070  144.8670 C   0  0  0  0  0  0  0  0  0  0  0  0
  186.0040  178.4660  143.4750 C   0  0  0  0  0  0  0  0  0  0  0  0
  183.7350  179.0030  145.1050 C   0  0  0  0  0  3  0  0  0  0  0  0
  187.0930  178.1160  145.6730 N   0  0  0  0  0  0  0  0  0  0  0  0
  188.7390  177.6230  147.7950 C   0  0  0  0  0  3  0  0  0  0  0  0
  183.6400  179.0710  143.7020 C   0  0  0  0  0  3  0  0  0  0  0  0
  186.5900  178.2070  146.9250 C   0  0  0  0  0  0  0  0  0  0  0  0
  187.3970  177.9630  148.0330 C   0  0  0  0  0  3  0  0  0  0  0  0
  184.6980  178.8680  141.4540 N   0  0  0  0  0  0  0  0  0  0  0  0
  183.4660  179.2090  140.7610 C   0  0  0  0  0  1  0  0  0  0  0  0
  187.1450  178.1970  142.6510 N   0  0  0  0  0  0  0  0  0  0  0  0
  189.2360  177.5360  146.4810 C   0  0  0  0  0  3  0  0  0  0  0  0
  184.9700  178.6660  145.6550 C   0  0  0  0  0  0  0  0  0  0  0  0
  185.2760  178.5460  146.9670 N   0  0  0  0  0  0  0  0  0  0  0  0
  185.8530  178.5930  140.7030 N   0  0  0  0  0  2  0  0  0  0  0  0
  188.3810  177.7900  145.4000 C   0  0  0  0  0  3  0  0  0  0  0  0
  187.0890  178.2520  141.3510 C   0  0  0  0  0  0  0  0  0  0  0  0
  184.7670  178.8050  142.8860 C   0  0  0  0  0  0  0  0  0  0  0  0
  189.4330  177.9740  138.3990 C   0  0  0  0  0  0  0  0  0  0  0  0
  188.2900  177.9670  140.5440 C   0  0  0  0  0  0  0  0  0  0  0  0
  188.2980  178.2420  139.1690 C   0  0  0  0  0  3  0  0  0  0  0  0
  189.4310  178.2570  137.0060 N   0  0  0  0  0  1  0  0  0  0  0  0
  189.4380  177.4180  141.1390 C   0  0  0  0  0  3  0  0  0  0  0  0
  190.5720  177.4270  139.0000 C   0  0  0  0  0  3  0  0  0  0  0  0
  190.5730  177.1500  140.3690 C   0  0  0  0  0  3  0  0  0  0  0  0
  1 13  1  0  0  0  0
  1  4  1  0  0  0  0
  2  1  2  0  0  0  0
  3 13  2  0  0  0  0
  4  7  1  0  0  0  0
  5  8  2  0  0  0  0
  6  3  1  0  0  0  0
  7 14  2  0  0  0  0
  7  8  1  0  0  0  0
  9 18  1  0  0  0  0
 10  9  1  0  0  0  0
 11  2  1  0  0  0  0
 12  5  1  0  0  0  0
 13 14  1  0  0  0  0
 15 17  1  0  0  0  0
 15  9  1  0  0  0  0
 16  4  1  0  0  0  0
 16 12  2  0  0  0  0
 17 11  2  0  0  0  0
 18  2  1  0  0  0  0
 18  6  2  0  0  0  0
 19 24  2  0  0  0  0
 19 21  1  0  0  0  0
 20 23  1  0  0  0  0
 20 17  1  0  0  0  0
 21 20  2  0  0  0  0
 22 19  1  0  0  0  0
 24 25  1  0  0  0  0
 25 23  2  0  0  0  0
M  END
>  <MODEL>
8

>  <REMARK>
 VINA RESULT:      -9.8      1.405      4.180
  Name = 
  1 active torsions:
  status: ('A' for Active; 'I' for Inactive)
    1  A    between atoms: C_6  and  C_23
                            x       y       z     vdW  Elec       q    Type
                         _______ _______ _______ _____ _____    ______ ____

>  <TORSDO>
F 1

$$$$
=
 OpenBabel11052412483D

 25 29  0  0  0  0  0  0  0  0999 V2000
  186.7610  178.3340  141.1110 C   0  0  0  0  0  0  0  0  0  0  0  0
  186.4180  178.3430  142.4630 C   0  0  0  0  0  0  0  0  0  0  0  0
  184.5290  178.9520  140.4260 C   0  0  0  0  0  3  0  0  0  0  0  0
  187.9330  178.0660  140.5210 N   0  0  0  0  0  0  0  0  0  0  0  0
  189.9770  177.6410  138.7620 C   0  0  0  0  0  3  0  0  0  0  0  0
  184.1500  178.9700  141.7820 C   0  0  0  0  0  3  0  0  0  0  0  0
  187.6960  178.2060  139.1970 C   0  0  0  0  0  0  0  0  0  0  0  0
  188.7120  177.9980  138.2680 C   0  0  0  0  0  3  0  0  0  0  0  0
  184.7280  178.6790  144.1890 N   0  0  0  0  0  0  0  0  0  0  0  0
  183.3800  179.0010  144.6290 C   0  0  0  0  0  1  0  0  0  0  0  0
  187.3690  178.0370  143.4910 N   0  0  0  0  0  0  0  0  0  0  0  0
  190.1970  177.5030  140.1460 C   0  0  0  0  0  3  0  0  0  0  0  0
  185.8500  178.6280  140.1270 C   0  0  0  0  0  0  0  0  0  0  0  0
  186.4170  178.5530  138.9010 N   0  0  0  0  0  0  0  0  0  0  0  0
  185.7050  178.3690  145.1490 N   0  0  0  0  0  2  0  0  0  0  0  0
  189.1400  177.7240  141.0390 C   0  0  0  0  0  3  0  0  0  0  0  0
  187.0490  178.0460  144.7540 C   0  0  0  0  0  0  0  0  0  0  0  0
  185.0880  178.6680  142.8000 C   0  0  0  0  0  0  0  0  0  0  0  0
  190.3430  177.1280  146.3650 C   0  0  0  0  0  0  0  0  0  0  0  0
  188.0610  177.7230  145.7770 C   0  0  0  0  0  0  0  0  0  0  0  0
  189.3800  177.4340  145.3990 C   0  0  0  0  0  3  0  0  0  0  0  0
  191.6770  176.8360  145.9710 N   0  0  0  0  0  1  0  0  0  0  0  0
  187.7190  177.7030  147.1390 C   0  0  0  0  0  3  0  0  0  0  0  0
  189.9940  177.1090  147.7190 C   0  0  0  0  0  3  0  0  0  0  0  0
  188.6820  177.3970  148.1050 C   0  0  0  0  0  3  0  0  0  0  0  0
  1  2  1  0  0  0  0
  2 18  2  0  0  0  0
  2 11  1  0  0  0  0
  3  6  2  0  0  0  0
  4 16  1  0  0  0  0
  4  1  1  0  0  0  0
  5 12  1  0  0  0  0
  6 18  1  0  0  0  0
  7  4  1  0  0  0  0
  8  5  2  0  0  0  0
  8  7  1  0  0  0  0
  9 10  1  0  0  0  0
  9 15  1  0  0  0  0
 11 17  2  0  0  0  0
 12 16  2  0  0  0  0
 13  3  1  0  0  0  0
 13  1  2  0  0  0  0
 14  7  2  0  0  0  0
 14 13  1  0  0  0  0
 17 15  1  0  0  0  0
 17 20  1  0  0  0  0
 18  9  1  0  0  0  0
 19 24  1  0  0  0  0
 20 23  2  0  0  0  0
 21 20  1  0  0  0  0
 21 19  2  0  0  0  0
 22 19  1  0  0  0  0
 23 25  1  0  0  0  0
 24 25  2  0  0  0  0
M  END
>  <MODEL>
9

>  <REMARK>
 VINA RESULT:      -9.8      1.368      6.640
  Name = 
  1 active torsions:
  status: ('A' for Active; 'I' for Inactive)
    1  A    between atoms: C_6  and  C_23
                            x       y       z     vdW  Elec       q    Type
                         _______ _______ _______ _____ _____    ______ ____

>  <TORSDO>
F 1

$$$$
