=
 OpenBabel11052415443D

 34 36  0  0  1  0  0  0  0  0999 V2000
  190.5280  177.4370  141.9820 N   0  0  0  0  0  2  0  0  0  0  0  0
  190.6640  175.3000  142.9170 O   0  0  0  0  0  0  0  0  0  0  0  0
  190.2120  176.4750  142.9960 C   0  0  0  0  0  0  0  0  0  0  0  0
  187.3650  176.5810  142.9190 O   0  0  0  0  0  1  0  0  0  0  0  0
  187.1570  178.4980  147.4840 C   0  0  0  0  0  2  0  0  0  0  0  0
  189.2930  177.7850  146.4380 C   0  0  0  0  0  3  0  0  0  0  0  0
  188.0160  176.9610  144.0900 C   0  0  0  0  0  0  0  0  0  0  0  0
  190.0590  177.2710  145.3900 C   0  0  0  0  0  0  0  0  0  0  0  0
  189.4230  176.8790  144.1830 C   0  0  0  0  0  0  0  0  0  0  0  0
  185.6670  178.1620  147.4640 C   0  0  0  0  0  2  0  0  0  0  0  0
  185.0740  178.3840  146.0740 C   0  0  2  0  0  3  0  0  0  0  0  0
  187.9060  177.8670  146.3460 C   0  0  0  0  0  0  0  0  0  0  0  0
  185.7520  177.4630  145.0600 C   0  0  0  0  0  2  0  0  0  0  0  0
  187.2580  177.4560  145.1640 C   0  0  0  0  0  0  0  0  0  0  0  0
  191.4370  177.1640  145.6010 O   0  0  0  0  0  0  0  0  0  0  0  0
  192.0140  176.1550  146.4170 C   0  0  0  0  0  1  0  0  0  0  0  0
  185.2110  179.7740  145.6630 N   0  0  0  0  0  2  0  0  0  0  0  0
  184.4030  179.9520  144.4670 C   0  0  0  0  0  2  0  0  0  0  0  0
  182.4670  178.9770  143.2410 C   0  0  0  0  0  1  0  0  0  0  0  0
  183.0990  179.1870  144.6030 C   0  0  0  0  0  2  0  0  0  0  0  0
  188.9760  176.8090  139.6610 F   0  0  0  0  0  0  0  0  0  0  0  0
  193.1050  177.0330  139.3370 C   0  0  0  0  0  3  0  0  0  0  0  0
  190.9380  176.5900  138.3340 C   0  0  0  0  0  0  0  0  0  0  0  0
  191.1100  177.1540  140.7030 C   0  0  0  0  0  0  0  0  0  0  0  0
  192.3510  176.6550  138.2240 C   0  0  0  0  0  0  0  0  0  0  0  0
  192.4910  177.2930  140.5610 C   0  0  0  0  0  3  0  0  0  0  0  0
  190.3300  176.8180  139.5800 C   0  0  0  0  0  0  0  0  0  0  0  0
  193.1070  176.2800  137.0180 C   0  0  0  0  0  3  0  0  0  0  0  0
  194.1620  176.8740  136.6730 O   0  0  0  0  0  0  0  0  0  0  0  0
  190.0880  176.3530  137.2060 N   0  0  0  0  0  2  0  0  0  0  0  0
  189.7390  177.3960  136.2530 C   0  0  0  0  0  2  0  0  0  0  0  0
  187.4740  177.8310  136.8350 O   0  0  0  0  0  0  0  0  0  0  0  0
  188.6610  178.2480  136.8190 C   0  0  0  0  0  0  0  0  0  0  0  0
  188.9570  179.5180  137.2950 O   0  0  0  0  0  1  0  0  0  0  0  0
  1  3  1  0  0  0  0
  2  3  2  0  0  0  0
  3  9  1  0  0  0  0
  4  7  1  0  0  0  0
  7  9  2  0  0  0  0
  7 14  1  0  0  0  0
  8 15  1  0  0  0  0
  8  6  2  0  0  0  0
  9  8  1  0  0  0  0
 10  5  1  0  0  0  0
 11 17  1  6  0  0  0
 11 10  1  0  0  0  0
 12  6  1  0  0  0  0
 12  5  1  0  0  0  0
 13 14  1  0  0  0  0
 13 11  1  0  0  0  0
 14 12  2  0  0  0  0
 15 16  1  0  0  0  0
 18 20  1  0  0  0  0
 18 17  1  0  0  0  0
 19 20  1  0  0  0  0
 22 26  1  0  0  0  0
 23 27  2  0  0  0  0
 24  1  1  0  0  0  0
 25 23  1  0  0  0  0
 25 22  2  0  0  0  0
 26 24  2  0  0  0  0
 27 21  1  0  0  0  0
 27 24  1  0  0  0  0
 28 25  1  0  0  0  0
 29 28  2  0  0  0  0
 30 23  1  0  0  0  0
 31 33  1  0  0  0  0
 31 30  1  0  0  0  0
 33 32  2  0  0  0  0
 33 34  1  0  0  0  0
M  END
>  <MODEL>
1

>  <REMARK>
 VINA RESULT:      -8.3      0.000      0.000
  Name = 
  10 active torsions:
  status: ('A' for Active; 'I' for Inactive)
    1  A    between atoms: C_7  and  N_14
    2  A    between atoms: C_7  and  C_15
    3  A    between atoms: N_8  and  C_18
    4  A    between atoms: O_12  and  C_19
    5  A    between atoms: C_13  and  C_24
    6  A    between atoms: N_14  and  C_16
    7  A    between atoms: C_17  and  C_20
    8  A    between atoms: C_24  and  N_25
    9  A    between atoms: N_25  and  C_27
   10  A    between atoms: C_26  and  C_28
                            x       y       z     vdW  Elec       q    Type
                         _______ _______ _______ _____ _____    ______ ____

>  <TORSDO>
F 10

$$$$
=
 OpenBabel11052415443D

 34 36  0  0  1  0  0  0  0  0999 V2000
  186.6090  177.7050  142.5520 N   0  0  0  0  0  2  0  0  0  0  0  0
  186.1980  179.6900  141.3880 O   0  0  0  0  0  0  0  0  0  0  0  0
  185.7580  178.7850  142.1490 C   0  0  0  0  0  0  0  0  0  0  0  0
  183.6820  178.1360  140.3060 O   0  0  0  0  0  1  0  0  0  0  0  0
  180.1740  179.2930  143.6100 C   0  0  0  0  0  2  0  0  0  0  0  0
  182.5920  179.3240  144.1730 C   0  0  0  0  0  3  0  0  0  0  0  0
  183.3320  178.5150  141.6000 C   0  0  0  0  0  0  0  0  0  0  0  0
  183.9460  179.1800  143.8670 C   0  0  0  0  0  0  0  0  0  0  0  0
  184.3330  178.7990  142.5560 C   0  0  0  0  0  0  0  0  0  0  0  0
  179.1900  178.5770  142.6860 C   0  0  0  0  0  2  0  0  0  0  0  0
  179.5410  178.8190  141.2190 C   0  0  2  0  0  3  0  0  0  0  0  0
  181.6050  179.0450  143.2300 C   0  0  0  0  0  0  0  0  0  0  0  0
  180.9290  178.2580  140.9110 C   0  0  0  0  0  2  0  0  0  0  0  0
  181.9730  178.6390  141.9320 C   0  0  0  0  0  0  0  0  0  0  0  0
  184.8610  179.4170  144.8980 O   0  0  0  0  0  0  0  0  0  0  0  0
  184.9840  178.5660  146.0290 C   0  0  0  0  0  1  0  0  0  0  0  0
  179.4870  180.2370  140.8950 N   0  0  0  0  0  2  0  0  0  0  0  0
  179.5890  180.3540  139.4490 C   0  0  0  0  0  2  0  0  0  0  0  0
  181.8300  180.8680  138.4950 C   0  0  0  0  0  1  0  0  0  0  0  0
  180.5640  181.4580  139.0850 C   0  0  0  0  0  2  0  0  0  0  0  0
  188.4290  177.9160  144.7500 F   0  0  0  0  0  0  0  0  0  0  0  0
  189.9280  177.3150  140.9290 C   0  0  0  0  0  3  0  0  0  0  0  0
  190.3020  177.6860  143.3010 C   0  0  0  0  0  0  0  0  0  0  0  0
  188.0330  177.6510  142.3980 C   0  0  0  0  0  0  0  0  0  0  0  0
  190.8160  177.4920  141.9930 C   0  0  0  0  0  0  0  0  0  0  0  0
  188.5510  177.3810  141.1310 C   0  0  0  0  0  3  0  0  0  0  0  0
  188.9130  177.7870  143.4890 C   0  0  0  0  0  0  0  0  0  0  0  0
  192.2480  177.5310  141.6510 C   0  0  0  0  0  3  0  0  0  0  0  0
  192.6560  177.5100  140.4600 O   0  0  0  0  0  0  0  0  0  0  0  0
  191.1410  177.7290  144.4600 N   0  0  0  0  0  2  0  0  0  0  0  0
  191.5400  176.5330  145.1850 C   0  0  0  0  0  2  0  0  0  0  0  0
  192.2140  176.5830  147.4670 O   0  0  0  0  0  1  0  0  0  0  0  0
  191.2780  176.7190  146.6370 C   0  0  0  0  0  0  0  0  0  0  0  0
  189.9930  177.0040  147.0790 O   0  0  0  0  0  0  0  0  0  0  0  0
  2  3  2  0  0  0  0
  3  1  1  0  0  0  0
  3  9  1  0  0  0  0
  4  7  1  0  0  0  0
  7 14  2  0  0  0  0
  7  9  1  0  0  0  0
  8  6  1  0  0  0  0
  8 15  1  0  0  0  0
  9  8  2  0  0  0  0
 10  5  1  0  0  0  0
 11 17  1  1  0  0  0
 11 10  1  0  0  0  0
 12  5  1  0  0  0  0
 12  6  2  0  0  0  0
 13 11  1  0  0  0  0
 13 14  1  0  0  0  0
 14 12  1  0  0  0  0
 15 16  1  0  0  0  0
 18 17  1  0  0  0  0
 19 20  1  0  0  0  0
 20 18  1  0  0  0  0
 22 26  2  0  0  0  0
 22 25  1  0  0  0  0
 23 27  1  0  0  0  0
 23 30  1  0  0  0  0
 24  1  1  0  0  0  0
 24 27  2  0  0  0  0
 25 23  2  0  0  0  0
 26 24  1  0  0  0  0
 27 21  1  0  0  0  0
 28 25  1  0  0  0  0
 29 28  2  0  0  0  0
 30 31  1  0  0  0  0
 31 33  1  0  0  0  0
 33 34  2  0  0  0  0
 33 32  1  0  0  0  0
M  END
>  <MODEL>
2

>  <REMARK>
 VINA RESULT:      -7.7      3.161      6.671
  Name = 
  10 active torsions:
  status: ('A' for Active; 'I' for Inactive)
    1  A    between atoms: C_7  and  N_14
    2  A    between atoms: C_7  and  C_15
    3  A    between atoms: N_8  and  C_18
    4  A    between atoms: O_12  and  C_19
    5  A    between atoms: C_13  and  C_24
    6  A    between atoms: N_14  and  C_16
    7  A    between atoms: C_17  and  C_20
    8  A    between atoms: C_24  and  N_25
    9  A    between atoms: N_25  and  C_27
   10  A    between atoms: C_26  and  C_28
                            x       y       z     vdW  Elec       q    Type
                         _______ _______ _______ _____ _____    ______ ____

>  <TORSDO>
F 10

$$$$
=
 OpenBabel11052415443D

 34 36  0  0  1  0  0  0  0  0999 V2000
  188.1160  177.0730  141.9850 N   0  0  0  0  0  2  0  0  0  0  0  0
  188.7430  179.1980  141.2390 O   0  0  0  0  0  0  0  0  0  0  0  0
  188.4810  177.9980  140.9520 C   0  0  0  0  0  0  0  0  0  0  0  0
  186.4310  178.4060  139.0150 O   0  0  0  0  0  1  0  0  0  0  0  0
  188.8880  175.7540  135.6250 C   0  0  0  0  0  2  0  0  0  0  0  0
  189.8400  176.2630  137.8620 C   0  0  0  0  0  3  0  0  0  0  0  0
  187.5770  177.7100  138.6370 C   0  0  0  0  0  0  0  0  0  0  0  0
  189.7920  176.8180  139.1410 C   0  0  0  0  0  0  0  0  0  0  0  0
  188.6360  177.5280  139.5550 C   0  0  0  0  0  0  0  0  0  0  0  0
  187.9270  176.3440  134.5940 C   0  0  0  0  0  2  0  0  0  0  0  0
  186.5210  176.4850  135.1740 C   0  0  2  0  0  3  0  0  0  0  0  0
  188.7960  176.4410  136.9570 C   0  0  0  0  0  0  0  0  0  0  0  0
  186.5380  177.4430  136.3640 C   0  0  0  0  0  2  0  0  0  0  0  0
  187.6520  177.1680  137.3440 C   0  0  0  0  0  0  0  0  0  0  0  0
  190.9170  176.6420  139.9540 O   0  0  0  0  0  0  0  0  0  0  0  0
  192.1890  177.1890  139.6370 C   0  0  0  0  0  1  0  0  0  0  0  0
  185.9870  175.1910  135.5750 N   0  0  0  0  0  2  0  0  0  0  0  0
  184.7850  175.4430  136.3530 C   0  0  0  0  0  2  0  0  0  0  0  0
  185.6110  173.4090  137.5280 C   0  0  0  0  0  1  0  0  0  0  0  0
  184.3800  174.1870  137.1030 C   0  0  0  0  0  2  0  0  0  0  0  0
  189.9800  177.1130  144.1560 F   0  0  0  0  0  0  0  0  0  0  0  0
  186.0340  178.1860  144.8530 C   0  0  0  0  0  3  0  0  0  0  0  0
  188.2800  177.7770  145.6820 C   0  0  0  0  0  0  0  0  0  0  0  0
  187.7480  177.4120  143.3280 C   0  0  0  0  0  0  0  0  0  0  0  0
  186.9290  178.1330  145.9240 C   0  0  0  0  0  0  0  0  0  0  0  0
  186.4420  177.8420  143.5650 C   0  0  0  0  0  3  0  0  0  0  0  0
  188.6740  177.3960  144.3880 C   0  0  0  0  0  0  0  0  0  0  0  0
  186.3660  178.3920  147.2600 C   0  0  0  0  0  3  0  0  0  0  0  0
  185.7270  179.4440  147.5290 O   0  0  0  0  0  0  0  0  0  0  0  0
  189.2880  177.8410  146.6980 N   0  0  0  0  0  2  0  0  0  0  0  0
  189.7980  176.6570  147.3730 C   0  0  0  0  0  2  0  0  0  0  0  0
  191.9790  177.1810  148.1700 O   0  0  0  0  0  1  0  0  0  0  0  0
  191.2820  176.6310  147.2780 C   0  0  0  0  0  0  0  0  0  0  0  0
  191.8970  176.0340  146.1860 O   0  0  0  0  0  0  0  0  0  0  0  0
  1 24  1  0  0  0  0
  3  2  2  0  0  0  0
  3  1  1  0  0  0  0
  5 12  1  0  0  0  0
  6  8  1  0  0  0  0
  7  4  1  0  0  0  0
  7  9  1  0  0  0  0
  8  9  2  0  0  0  0
  8 15  1  0  0  0  0
  9  3  1  0  0  0  0
 10 11  1  0  0  0  0
 10  5  1  0  0  0  0
 11 17  1  1  0  0  0
 11 13  1  0  0  0  0
 12 14  1  0  0  0  0
 12  6  2  0  0  0  0
 13 14  1  0  0  0  0
 14  7  2  0  0  0  0
 16 15  1  0  0  0  0
 17 18  1  0  0  0  0
 18 20  1  0  0  0  0
 20 19  1  0  0  0  0
 21 27  1  0  0  0  0
 22 25  1  0  0  0  0
 23 25  2  0  0  0  0
 23 30  1  0  0  0  0
 24 26  1  0  0  0  0
 24 27  2  0  0  0  0
 25 28  1  0  0  0  0
 26 22  2  0  0  0  0
 27 23  1  0  0  0  0
 28 29  2  0  0  0  0
 30 31  1  0  0  0  0
 33 31  1  0  0  0  0
 33 32  1  0  0  0  0
 34 33  2  0  0  0  0
M  END
>  <MODEL>
3

>  <REMARK>
 VINA RESULT:      -7.7      2.923      8.797
  Name = 
  10 active torsions:
  status: ('A' for Active; 'I' for Inactive)
    1  A    between atoms: C_7  and  N_14
    2  A    between atoms: C_7  and  C_15
    3  A    between atoms: N_8  and  C_18
    4  A    between atoms: O_12  and  C_19
    5  A    between atoms: C_13  and  C_24
    6  A    between atoms: N_14  and  C_16
    7  A    between atoms: C_17  and  C_20
    8  A    between atoms: C_24  and  N_25
    9  A    between atoms: N_25  and  C_27
   10  A    between atoms: C_26  and  C_28
                            x       y       z     vdW  Elec       q    Type
                         _______ _______ _______ _____ _____    ______ ____

>  <TORSDO>
F 10

$$$$
=
 OpenBabel11052415443D

 34 36  0  0  1  0  0  0  0  0999 V2000
  185.9000  177.7200  142.7440 N   0  0  0  0  0  2  0  0  0  0  0  0
  185.7000  180.0250  142.4100 O   0  0  0  0  0  0  0  0  0  0  0  0
  185.3480  178.8610  142.0740 C   0  0  0  0  0  0  0  0  0  0  0  0
  182.5300  178.6610  142.4530 O   0  0  0  0  0  1  0  0  0  0  0  0
  181.7970  177.6730  137.6530 C   0  0  0  0  0  2  0  0  0  0  0  0
  184.0380  178.2280  138.5690 C   0  0  0  0  0  3  0  0  0  0  0  0
  183.0410  178.5370  141.1640 C   0  0  0  0  0  0  0  0  0  0  0  0
  184.9180  178.5470  139.6030 C   0  0  0  0  0  0  0  0  0  0  0  0
  184.4280  178.6760  140.9280 C   0  0  0  0  0  0  0  0  0  0  0  0
  180.3180  177.9560  137.9090 C   0  0  0  0  0  2  0  0  0  0  0  0
  179.8950  177.4480  139.2860 C   0  0  2  0  0  3  0  0  0  0  0  0
  182.6720  178.0890  138.8000 C   0  0  0  0  0  0  0  0  0  0  0  0
  180.6820  178.1710  140.3780 C   0  0  0  0  0  2  0  0  0  0  0  0
  182.1650  178.2410  140.1070 C   0  0  0  0  0  0  0  0  0  0  0  0
  186.2620  178.7330  139.2610 O   0  0  0  0  0  0  0  0  0  0  0  0
  186.8900  178.0290  138.2000 C   0  0  0  0  0  1  0  0  0  0  0  0
  180.0860  176.0090  139.3950 N   0  0  0  0  0  2  0  0  0  0  0  0
  179.5040  175.5900  140.6600 C   0  0  0  0  0  2  0  0  0  0  0  0
  179.3470  173.5040  142.0110 C   0  0  0  0  0  1  0  0  0  0  0  0
  179.2010  174.1040  140.6250 C   0  0  0  0  0  2  0  0  0  0  0  0
  188.7580  177.8440  142.8430 F   0  0  0  0  0  0  0  0  0  0  0  0
  186.6060  177.8300  146.3890 C   0  0  0  0  0  3  0  0  0  0  0  0
  188.7360  177.8320  145.2220 C   0  0  0  0  0  0  0  0  0  0  0  0
  186.6420  177.7400  143.9700 C   0  0  0  0  0  0  0  0  0  0  0  0
  188.0020  177.8150  146.4350 C   0  0  0  0  0  0  0  0  0  0  0  0
  185.9320  177.8060  145.1700 C   0  0  0  0  0  3  0  0  0  0  0  0
  188.0490  177.7700  143.9980 C   0  0  0  0  0  0  0  0  0  0  0  0
  188.6110  177.7140  147.7720 C   0  0  0  0  0  3  0  0  0  0  0  0
  188.0960  178.2470  148.7900 O   0  0  0  0  0  0  0  0  0  0  0  0
  190.1620  177.9650  145.1850 N   0  0  0  0  0  2  0  0  0  0  0  0
  191.0600  176.8540  145.4580 C   0  0  0  0  0  2  0  0  0  0  0  0
  191.7500  177.1420  143.1990 O   0  0  0  0  0  0  0  0  0  0  0  0
  191.6510  176.3660  144.1840 C   0  0  0  0  0  0  0  0  0  0  0  0
  192.0560  175.0430  144.0690 O   0  0  0  0  0  1  0  0  0  0  0  0
  1 24  1  0  0  0  0
  3  2  2  0  0  0  0
  3  1  1  0  0  0  0
  5 10  1  0  0  0  0
  5 12  1  0  0  0  0
  6 12  2  0  0  0  0
  6  8  1  0  0  0  0
  7  4  1  0  0  0  0
  8  9  2  0  0  0  0
  9  7  1  0  0  0  0
  9  3  1  0  0  0  0
 10 11  1  0  0  0  0
 11 17  1  6  0  0  0
 11 13  1  0  0  0  0
 12 14  1  0  0  0  0
 14 13  1  0  0  0  0
 14  7  2  0  0  0  0
 15  8  1  0  0  0  0
 16 15  1  0  0  0  0
 17 18  1  0  0  0  0
 20 18  1  0  0  0  0
 20 19  1  0  0  0  0
 21 27  1  0  0  0  0
 22 25  1  0  0  0  0
 23 25  2  0  0  0  0
 24 27  2  0  0  0  0
 24 26  1  0  0  0  0
 25 28  1  0  0  0  0
 26 22  2  0  0  0  0
 27 23  1  0  0  0  0
 28 29  2  0  0  0  0
 30 23  1  0  0  0  0
 30 31  1  0  0  0  0
 32 33  2  0  0  0  0
 33 31  1  0  0  0  0
 34 33  1  0  0  0  0
M  END
>  <MODEL>
4

>  <REMARK>
 VINA RESULT:      -7.7      3.929      8.232
  Name = 
  10 active torsions:
  status: ('A' for Active; 'I' for Inactive)
    1  A    between atoms: C_7  and  N_14
    2  A    between atoms: C_7  and  C_15
    3  A    between atoms: N_8  and  C_18
    4  A    between atoms: O_12  and  C_19
    5  A    between atoms: C_13  and  C_24
    6  A    between atoms: N_14  and  C_16
    7  A    between atoms: C_17  and  C_20
    8  A    between atoms: C_24  and  N_25
    9  A    between atoms: N_25  and  C_27
   10  A    between atoms: C_26  and  C_28
                            x       y       z     vdW  Elec       q    Type
                         _______ _______ _______ _____ _____    ______ ____

>  <TORSDO>
F 10

$$$$
=
 OpenBabel11052415443D

 34 36  0  0  1  0  0  0  0  0999 V2000
  188.2460  176.9410  141.8800 N   0  0  0  0  0  2  0  0  0  0  0  0
  188.7990  179.0670  141.0830 O   0  0  0  0  0  0  0  0  0  0  0  0
  188.5830  177.8520  140.8260 C   0  0  0  0  0  0  0  0  0  0  0  0
  190.6520  176.0050  140.1700 O   0  0  0  0  0  1  0  0  0  0  0  0
  189.5670  176.2630  135.3410 C   0  0  0  0  0  2  0  0  0  0  0  0
  188.2220  177.4320  137.0710 C   0  0  0  0  0  3  0  0  0  0  0  0
  189.8270  176.4720  139.1500 C   0  0  0  0  0  0  0  0  0  0  0  0
  187.9340  177.8090  138.3830 C   0  0  0  0  0  0  0  0  0  0  0  0
  188.7600  177.3520  139.4420 C   0  0  0  0  0  0  0  0  0  0  0  0
  190.4340  175.0170  135.1690 C   0  0  0  0  0  2  0  0  0  0  0  0
  191.6440  175.0590  136.1000 C   0  0  2  0  0  3  0  0  0  0  0  0
  189.2740  176.5650  136.7830 C   0  0  0  0  0  0  0  0  0  0  0  0
  191.1860  175.0830  137.5570 C   0  0  0  0  0  2  0  0  0  0  0  0
  190.0870  176.0810  137.8270 C   0  0  0  0  0  0  0  0  0  0  0  0
  186.8170  178.6280  138.5800 O   0  0  0  0  0  0  0  0  0  0  0  0
  185.5000  178.2310  138.2240 C   0  0  0  0  0  1  0  0  0  0  0  0
  192.4840  176.2140  135.8150 N   0  0  0  0  0  2  0  0  0  0  0  0
  193.6240  176.1520  136.7150 C   0  0  0  0  0  2  0  0  0  0  0  0
  195.1060  174.3080  137.4940 C   0  0  0  0  0  1  0  0  0  0  0  0
  194.5660  175.0440  136.2820 C   0  0  0  0  0  2  0  0  0  0  0  0
  190.0960  177.1000  144.0580 F   0  0  0  0  0  0  0  0  0  0  0  0
  186.1120  178.0530  144.7100 C   0  0  0  0  0  3  0  0  0  0  0  0
  188.3660  177.7430  145.5600 C   0  0  0  0  0  0  0  0  0  0  0  0
  187.8590  177.3010  143.2130 C   0  0  0  0  0  0  0  0  0  0  0  0
  187.0020  178.0580  145.7870 C   0  0  0  0  0  0  0  0  0  0  0  0
  186.5380  177.6910  143.4340 C   0  0  0  0  0  3  0  0  0  0  0  0
  188.7790  177.3440  144.2780 C   0  0  0  0  0  0  0  0  0  0  0  0
  186.4230  178.3310  147.1130 C   0  0  0  0  0  3  0  0  0  0  0  0
  185.6800  179.3230  147.3320 O   0  0  0  0  0  0  0  0  0  0  0  0
  189.3660  177.8670  146.5780 N   0  0  0  0  0  2  0  0  0  0  0  0
  189.7710  176.7520  147.4200 C   0  0  0  0  0  2  0  0  0  0  0  0
  191.8710  177.1280  146.3660 O   0  0  0  0  0  0  0  0  0  0  0  0
  191.1920  176.4110  147.1450 C   0  0  0  0  0  0  0  0  0  0  0  0
  191.7570  175.2800  147.7180 O   0  0  0  0  0  1  0  0  0  0  0  0
  1 24  1  0  0  0  0
  3  2  2  0  0  0  0
  3  1  1  0  0  0  0
  5 12  1  0  0  0  0
  6  8  1  0  0  0  0
  7  9  1  0  0  0  0
  7  4  1  0  0  0  0
  8 15  1  0  0  0  0
  8  9  2  0  0  0  0
  9  3  1  0  0  0  0
 10  5  1  0  0  0  0
 10 11  1  0  0  0  0
 11 17  1  6  0  0  0
 11 13  1  0  0  0  0
 12  6  2  0  0  0  0
 12 14  1  0  0  0  0
 13 14  1  0  0  0  0
 14  7  2  0  0  0  0
 16 15  1  0  0  0  0
 17 18  1  0  0  0  0
 20 18  1  0  0  0  0
 20 19  1  0  0  0  0
 21 27  1  0  0  0  0
 22 25  1  0  0  0  0
 23 25  2  0  0  0  0
 23 30  1  0  0  0  0
 24 26  1  0  0  0  0
 24 27  2  0  0  0  0
 25 28  1  0  0  0  0
 26 22  2  0  0  0  0
 27 23  1  0  0  0  0
 28 29  2  0  0  0  0
 30 31  1  0  0  0  0
 32 33  2  0  0  0  0
 33 31  1  0  0  0  0
 33 34  1  0  0  0  0
M  END
>  <MODEL>
5

>  <REMARK>
 VINA RESULT:      -7.6      2.392      9.684
  Name = 
  10 active torsions:
  status: ('A' for Active; 'I' for Inactive)
    1  A    between atoms: C_7  and  N_14
    2  A    between atoms: C_7  and  C_15
    3  A    between atoms: N_8  and  C_18
    4  A    between atoms: O_12  and  C_19
    5  A    between atoms: C_13  and  C_24
    6  A    between atoms: N_14  and  C_16
    7  A    between atoms: C_17  and  C_20
    8  A    between atoms: C_24  and  N_25
    9  A    between atoms: N_25  and  C_27
   10  A    between atoms: C_26  and  C_28
                            x       y       z     vdW  Elec       q    Type
                         _______ _______ _______ _____ _____    ______ ____

>  <TORSDO>
F 10

$$$$
=
 OpenBabel11052415443D

 34 36  0  0  1  0  0  0  0  0999 V2000
  188.7000  176.9760  142.2920 N   0  0  0  0  0  2  0  0  0  0  0  0
  188.6640  179.2100  141.6060 O   0  0  0  0  0  0  0  0  0  0  0  0
  188.6680  177.9910  141.2810 C   0  0  0  0  0  0  0  0  0  0  0  0
  186.5380  178.6230  139.4950 O   0  0  0  0  0  1  0  0  0  0  0  0
  188.6830  176.1140  135.7990 C   0  0  0  0  0  2  0  0  0  0  0  0
  189.7770  176.4220  138.0070 C   0  0  0  0  0  3  0  0  0  0  0  0
  187.6280  177.9070  139.0070 C   0  0  0  0  0  0  0  0  0  0  0  0
  189.8230  176.8870  139.3220 C   0  0  0  0  0  0  0  0  0  0  0  0
  188.7250  177.6150  139.8490 C   0  0  0  0  0  0  0  0  0  0  0  0
  187.6980  176.8160  134.8660 C   0  0  0  0  0  2  0  0  0  0  0  0
  186.3330  176.9760  135.5330 C   0  0  2  0  0  3  0  0  0  0  0  0
  188.6960  176.7090  137.1780 C   0  0  0  0  0  0  0  0  0  0  0  0
  186.4580  177.8460  136.7830 C   0  0  0  0  0  2  0  0  0  0  0  0
  187.6090  177.4550  137.6770 C   0  0  0  0  0  0  0  0  0  0  0  0
  190.9800  176.6060  140.0570 O   0  0  0  0  0  0  0  0  0  0  0  0
  192.0780  177.5040  140.1360 C   0  0  0  0  0  1  0  0  0  0  0  0
  185.7610  175.6810  135.8750 N   0  0  0  0  0  2  0  0  0  0  0  0
  184.6010  175.9300  136.7160 C   0  0  0  0  0  2  0  0  0  0  0  0
  185.1280  173.6600  137.5920 C   0  0  0  0  0  1  0  0  0  0  0  0
  184.0180  174.6140  137.1970 C   0  0  0  0  0  2  0  0  0  0  0  0
  186.0950  177.4240  143.3900 F   0  0  0  0  0  0  0  0  0  0  0  0
  189.3600  177.2140  145.9400 C   0  0  0  0  0  3  0  0  0  0  0  0
  186.9820  177.5660  145.5930 C   0  0  0  0  0  0  0  0  0  0  0  0
  188.4620  177.1720  143.6920 C   0  0  0  0  0  0  0  0  0  0  0  0
  188.0990  177.5060  146.4640 C   0  0  0  0  0  0  0  0  0  0  0  0
  189.5380  177.0360  144.5690 C   0  0  0  0  0  3  0  0  0  0  0  0
  187.1770  177.4220  144.2090 C   0  0  0  0  0  0  0  0  0  0  0  0
  188.0420  177.8000  147.9060 C   0  0  0  0  0  3  0  0  0  0  0  0
  189.0350  178.2400  148.5430 O   0  0  0  0  0  0  0  0  0  0  0  0
  185.6390  177.7140  146.0690 N   0  0  0  0  0  2  0  0  0  0  0  0
  184.9820  179.0080  146.1710 C   0  0  0  0  0  2  0  0  0  0  0  0
  183.0490  178.6290  144.8350 O   0  0  0  0  0  1  0  0  0  0  0  0
  184.1430  179.2370  144.9650 C   0  0  0  0  0  0  0  0  0  0  0  0
  184.5850  180.0910  143.9640 O   0  0  0  0  0  0  0  0  0  0  0  0
  1 24  1  0  0  0  0
  3  2  2  0  0  0  0
  3  1  1  0  0  0  0
  5 12  1  0  0  0  0
  6  8  1  0  0  0  0
  7  4  1  0  0  0  0
  7  9  1  0  0  0  0
  8  9  2  0  0  0  0
  8 15  1  0  0  0  0
  9  3  1  0  0  0  0
 10 11  1  0  0  0  0
 10  5  1  0  0  0  0
 11 17  1  1  0  0  0
 11 13  1  0  0  0  0
 12 14  1  0  0  0  0
 12  6  2  0  0  0  0
 13 14  1  0  0  0  0
 14  7  2  0  0  0  0
 15 16  1  0  0  0  0
 17 18  1  0  0  0  0
 18 20  1  0  0  0  0
 20 19  1  0  0  0  0
 21 27  1  0  0  0  0
 22 25  1  0  0  0  0
 23 30  1  0  0  0  0
 23 25  2  0  0  0  0
 24 27  2  0  0  0  0
 24 26  1  0  0  0  0
 25 28  1  0  0  0  0
 26 22  2  0  0  0  0
 27 23  1  0  0  0  0
 28 29  2  0  0  0  0
 30 31  1  0  0  0  0
 32 33  1  0  0  0  0
 33 31  1  0  0  0  0
 34 33  2  0  0  0  0
M  END
>  <MODEL>
6

>  <REMARK>
 VINA RESULT:      -7.5      2.902      8.279
  Name = 
  10 active torsions:
  status: ('A' for Active; 'I' for Inactive)
    1  A    between atoms: C_7  and  N_14
    2  A    between atoms: C_7  and  C_15
    3  A    between atoms: N_8  and  C_18
    4  A    between atoms: O_12  and  C_19
    5  A    between atoms: C_13  and  C_24
    6  A    between atoms: N_14  and  C_16
    7  A    between atoms: C_17  and  C_20
    8  A    between atoms: C_24  and  N_25
    9  A    between atoms: N_25  and  C_27
   10  A    between atoms: C_26  and  C_28
                            x       y       z     vdW  Elec       q    Type
                         _______ _______ _______ _____ _____    ______ ____

>  <TORSDO>
F 10

$$$$
=
 OpenBabel11052415443D

 34 36  0  0  1  0  0  0  0  0999 V2000
  190.3110  176.3590  142.0800 N   0  0  0  0  0  2  0  0  0  0  0  0
  191.9190  177.8780  141.3270 O   0  0  0  0  0  0  0  0  0  0  0  0
  190.8980  177.1850  141.0670 C   0  0  0  0  0  0  0  0  0  0  0  0
  188.1980  177.9160  140.5190 O   0  0  0  0  0  1  0  0  0  0  0  0
  188.6610  176.6580  135.7480 C   0  0  0  0  0  2  0  0  0  0  0  0
  190.5720  176.5900  137.3320 C   0  0  0  0  0  3  0  0  0  0  0  0
  189.0010  177.4910  139.4640 C   0  0  0  0  0  0  0  0  0  0  0  0
  191.1540  176.7370  138.5920 C   0  0  0  0  0  0  0  0  0  0  0  0
  190.3580  177.1640  139.6870 C   0  0  0  0  0  0  0  0  0  0  0  0
  187.3550  177.4150  135.5110 C   0  0  0  0  0  2  0  0  0  0  0  0
  186.3930  177.2260  136.6830 C   0  0  2  0  0  3  0  0  0  0  0  0
  189.2340  176.9110  137.1120 C   0  0  0  0  0  0  0  0  0  0  0  0
  187.0070  177.7890  137.9640 C   0  0  0  0  0  2  0  0  0  0  0  0
  188.4380  177.3630  138.1840 C   0  0  0  0  0  0  0  0  0  0  0  0
  192.5190  176.4550  138.7000 O   0  0  0  0  0  0  0  0  0  0  0  0
  193.1930  175.5670  137.8200 C   0  0  0  0  0  1  0  0  0  0  0  0
  186.0540  175.8210  136.8610 N   0  0  0  0  0  2  0  0  0  0  0  0
  184.6070  175.7360  136.9730 C   0  0  0  0  0  2  0  0  0  0  0  0
  185.3890  173.4530  137.5820 C   0  0  0  0  0  1  0  0  0  0  0  0
  184.2100  174.4070  137.5870 C   0  0  0  0  0  2  0  0  0  0  0  0
  188.7260  177.8450  143.9440 F   0  0  0  0  0  0  0  0  0  0  0  0
  191.9520  175.6380  145.3340 C   0  0  0  0  0  3  0  0  0  0  0  0
  190.1120  177.1670  145.7550 C   0  0  0  0  0  0  0  0  0  0  0  0
  190.5970  176.4140  143.4840 C   0  0  0  0  0  0  0  0  0  0  0  0
  191.2220  176.4220  146.2300 C   0  0  0  0  0  0  0  0  0  0  0  0
  191.6350  175.6230  143.9770 C   0  0  0  0  0  3  0  0  0  0  0  0
  189.8230  177.1750  144.3800 C   0  0  0  0  0  0  0  0  0  0  0  0
  191.7170  176.4650  147.6160 C   0  0  0  0  0  3  0  0  0  0  0  0
  192.8390  175.9990  147.9450 O   0  0  0  0  0  0  0  0  0  0  0  0
  189.2290  177.8770  146.6300 N   0  0  0  0  0  2  0  0  0  0  0  0
  188.0720  177.2530  147.2530 C   0  0  0  0  0  2  0  0  0  0  0  0
  186.3100  178.8510  147.3400 O   0  0  0  0  0  1  0  0  0  0  0  0
  186.8270  177.8780  146.7320 C   0  0  0  0  0  0  0  0  0  0  0  0
  186.2150  177.3630  145.5980 O   0  0  0  0  0  0  0  0  0  0  0  0
  1 24  1  0  0  0  0
  3  2  2  0  0  0  0
  3  1  1  0  0  0  0
  5 12  1  0  0  0  0
  6  8  1  0  0  0  0
  7  9  1  0  0  0  0
  7  4  1  0  0  0  0
  8 15  1  0  0  0  0
  8  9  2  0  0  0  0
  9  3  1  0  0  0  0
 10  5  1  0  0  0  0
 10 11  1  0  0  0  0
 11 17  1  1  0  0  0
 11 13  1  0  0  0  0
 12  6  2  0  0  0  0
 12 14  1  0  0  0  0
 13 14  1  0  0  0  0
 14  7  2  0  0  0  0
 16 15  1  0  0  0  0
 17 18  1  0  0  0  0
 18 20  1  0  0  0  0
 19 20  1  0  0  0  0
 21 27  1  0  0  0  0
 22 25  1  0  0  0  0
 23 25  2  0  0  0  0
 23 30  1  0  0  0  0
 24 26  1  0  0  0  0
 24 27  2  0  0  0  0
 25 28  1  0  0  0  0
 26 22  2  0  0  0  0
 27 23  1  0  0  0  0
 28 29  2  0  0  0  0
 30 31  1  0  0  0  0
 33 31  1  0  0  0  0
 33 32  1  0  0  0  0
 34 33  2  0  0  0  0
M  END
>  <MODEL>
7

>  <REMARK>
 VINA RESULT:      -7.5      2.744      8.031
  Name = 
  10 active torsions:
  status: ('A' for Active; 'I' for Inactive)
    1  A    between atoms: C_7  and  N_14
    2  A    between atoms: C_7  and  C_15
    3  A    between atoms: N_8  and  C_18
    4  A    between atoms: O_12  and  C_19
    5  A    between atoms: C_13  and  C_24
    6  A    between atoms: N_14  and  C_16
    7  A    between atoms: C_17  and  C_20
    8  A    between atoms: C_24  and  N_25
    9  A    between atoms: N_25  and  C_27
   10  A    between atoms: C_26  and  C_28
                            x       y       z     vdW  Elec       q    Type
                         _______ _______ _______ _____ _____    ______ ____

>  <TORSDO>
F 10

$$$$
=
 OpenBabel11052415443D

 34 36  0  0  1  0  0  0  0  0999 V2000
  185.2160  177.9530  143.4080 N   0  0  0  0  0  2  0  0  0  0  0  0
  184.5470  180.1730  143.7010 O   0  0  0  0  0  0  0  0  0  0  0  0
  184.3390  179.0570  143.1520 C   0  0  0  0  0  0  0  0  0  0  0  0
  184.8230  179.1230  140.3430 O   0  0  0  0  0  1  0  0  0  0  0  0
  179.9720  178.9710  139.3450 C   0  0  0  0  0  2  0  0  0  0  0  0
  180.8590  178.8020  141.6580 C   0  0  0  0  0  3  0  0  0  0  0  0
  183.5110  178.9980  140.7920 C   0  0  0  0  0  0  0  0  0  0  0  0
  181.8860  178.7850  142.6020 C   0  0  0  0  0  0  0  0  0  0  0  0
  183.2340  178.9150  142.1750 C   0  0  0  0  0  0  0  0  0  0  0  0
  180.3660  178.6400  137.9060 C   0  0  0  0  0  2  0  0  0  0  0  0
  181.6220  179.4060  137.4940 C   0  0  2  0  0  3  0  0  0  0  0  0
  181.1310  178.8850  140.2950 C   0  0  0  0  0  0  0  0  0  0  0  0
  182.7990  179.0030  138.3810 C   0  0  0  0  0  2  0  0  0  0  0  0
  182.4660  178.9860  139.8530 C   0  0  0  0  0  0  0  0  0  0  0  0
  181.5180  178.6300  143.9420 O   0  0  0  0  0  0  0  0  0  0  0  0
  180.1860  178.3480  144.3460 C   0  0  0  0  0  1  0  0  0  0  0  0
  181.4050  180.8440  137.5650 N   0  0  0  0  0  2  0  0  0  0  0  0
  180.7690  181.2470  136.3210 C   0  0  0  0  0  2  0  0  0  0  0  0
  181.1960  183.4620  137.3750 C   0  0  0  0  0  1  0  0  0  0  0  0
  180.3090  182.6900  136.4170 C   0  0  0  0  0  2  0  0  0  0  0  0
  188.0350  177.9730  142.9120 F   0  0  0  0  0  0  0  0  0  0  0  0
  186.6680  177.8410  146.8260 C   0  0  0  0  0  3  0  0  0  0  0  0
  188.5070  177.8330  145.2390 C   0  0  0  0  0  0  0  0  0  0  0  0
  186.1970  177.8810  144.4520 C   0  0  0  0  0  0  0  0  0  0  0  0
  188.0410  177.7760  146.5780 C   0  0  0  0  0  0  0  0  0  0  0  0
  185.7550  177.9060  145.7750 C   0  0  0  0  0  3  0  0  0  0  0  0
  187.5790  177.8610  144.1850 C   0  0  0  0  0  0  0  0  0  0  0  0
  188.9100  177.5820  147.7510 C   0  0  0  0  0  3  0  0  0  0  0  0
  188.7110  178.1780  148.8420 O   0  0  0  0  0  0  0  0  0  0  0  0
  189.8990  177.9180  144.9110 N   0  0  0  0  0  2  0  0  0  0  0  0
  190.7360  176.7430  144.7320 C   0  0  0  0  0  2  0  0  0  0  0  0
  191.8700  177.1740  142.6840 O   0  0  0  0  0  1  0  0  0  0  0  0
  190.9770  176.5180  143.2820 C   0  0  0  0  0  0  0  0  0  0  0  0
  190.1920  175.6140  142.5800 O   0  0  0  0  0  0  0  0  0  0  0  0
  1 24  1  0  0  0  0
  3  1  1  0  0  0  0
  3  2  2  0  0  0  0
  4  7  1  0  0  0  0
  5 12  1  0  0  0  0
  6  8  1  0  0  0  0
  7  9  1  0  0  0  0
  8 15  1  0  0  0  0
  9  8  2  0  0  0  0
  9  3  1  0  0  0  0
 10  5  1  0  0  0  0
 11 17  1  1  0  0  0
 11 10  1  0  0  0  0
 11 13  1  0  0  0  0
 12  6  2  0  0  0  0
 13 14  1  0  0  0  0
 14 12  1  0  0  0  0
 14  7  2  0  0  0  0
 15 16  1  0  0  0  0
 18 20  1  0  0  0  0
 18 17  1  0  0  0  0
 20 19  1  0  0  0  0
 21 27  1  0  0  0  0
 23 25  2  0  0  0  0
 24 26  1  0  0  0  0
 25 22  1  0  0  0  0
 25 28  1  0  0  0  0
 26 22  2  0  0  0  0
 27 24  2  0  0  0  0
 27 23  1  0  0  0  0
 28 29  2  0  0  0  0
 30 23  1  0  0  0  0
 31 30  1  0  0  0  0
 32 33  1  0  0  0  0
 33 31  1  0  0  0  0
 34 33  2  0  0  0  0
M  END
>  <MODEL>
8

>  <REMARK>
 VINA RESULT:      -7.4      4.060      8.535
  Name = 
  10 active torsions:
  status: ('A' for Active; 'I' for Inactive)
    1  A    between atoms: C_7  and  N_14
    2  A    between atoms: C_7  and  C_15
    3  A    between atoms: N_8  and  C_18
    4  A    between atoms: O_12  and  C_19
    5  A    between atoms: C_13  and  C_24
    6  A    between atoms: N_14  and  C_16
    7  A    between atoms: C_17  and  C_20
    8  A    between atoms: C_24  and  N_25
    9  A    between atoms: N_25  and  C_27
   10  A    between atoms: C_26  and  C_28
                            x       y       z     vdW  Elec       q    Type
                         _______ _______ _______ _____ _____    ______ ____

>  <TORSDO>
F 10

$$$$
=
 OpenBabel11052415443D

 34 36  0  0  1  0  0  0  0  0999 V2000
  187.7410  177.1700  141.8930 N   0  0  0  0  0  2  0  0  0  0  0  0
  188.7920  179.1960  141.3910 O   0  0  0  0  0  0  0  0  0  0  0  0
  188.4740  178.0340  141.0160 C   0  0  0  0  0  0  0  0  0  0  0  0
  190.7760  176.3690  140.7800 O   0  0  0  0  0  1  0  0  0  0  0  0
  190.5420  176.4810  135.8310 C   0  0  0  0  0  2  0  0  0  0  0  0
  188.8190  177.5460  137.2680 C   0  0  0  0  0  3  0  0  0  0  0  0
  190.1070  176.7520  139.6200 C   0  0  0  0  0  0  0  0  0  0  0  0
  188.2730  177.9100  138.4990 C   0  0  0  0  0  0  0  0  0  0  0  0
  188.9350  177.5380  139.6980 C   0  0  0  0  0  0  0  0  0  0  0  0
  191.5280  175.3140  135.8450 C   0  0  0  0  0  2  0  0  0  0  0  0
  192.5470  175.4710  136.9720 C   0  0  2  0  0  3  0  0  0  0  0  0
  189.9740  176.7720  137.1900 C   0  0  0  0  0  0  0  0  0  0  0  0
  191.8380  175.4700  138.3250 C   0  0  0  0  0  2  0  0  0  0  0  0
  190.6280  176.3710  138.3730 C   0  0  0  0  0  0  0  0  0  0  0  0
  187.0740  178.6300  138.4770 O   0  0  0  0  0  0  0  0  0  0  0  0
  185.8170  178.0230  138.2160 C   0  0  0  0  0  1  0  0  0  0  0  0
  193.3230  176.6930  136.8090 N   0  0  0  0  0  2  0  0  0  0  0  0
  194.4390  176.3820  135.9290 C   0  0  0  0  0  2  0  0  0  0  0  0
  196.6220  175.1860  135.9780 C   0  0  0  0  0  1  0  0  0  0  0  0
  195.1780  175.1600  136.4410 C   0  0  0  0  0  2  0  0  0  0  0  0
  185.3020  178.6680  141.9170 F   0  0  0  0  0  0  0  0  0  0  0  0
  186.9700  177.4510  145.5160 C   0  0  0  0  0  3  0  0  0  0  0  0
  185.2450  178.6500  144.2960 C   0  0  0  0  0  0  0  0  0  0  0  0
  187.0740  177.5610  143.0990 C   0  0  0  0  0  0  0  0  0  0  0  0
  185.8210  178.2450  145.5270 C   0  0  0  0  0  0  0  0  0  0  0  0
  187.5830  177.1020  144.3140 C   0  0  0  0  0  3  0  0  0  0  0  0
  185.8910  178.3240  143.0910 C   0  0  0  0  0  0  0  0  0  0  0  0
  185.3270  178.6620  146.8500 C   0  0  0  0  0  3  0  0  0  0  0  0
  185.6860  179.7390  147.3950 O   0  0  0  0  0  0  0  0  0  0  0  0
  183.9920  179.3390  144.2200 N   0  0  0  0  0  2  0  0  0  0  0  0
  182.7130  178.6460  144.2440 C   0  0  0  0  0  2  0  0  0  0  0  0
  180.8640  179.6680  143.1480 O   0  0  0  0  0  1  0  0  0  0  0  0
  181.9280  179.0060  143.0340 C   0  0  0  0  0  0  0  0  0  0  0  0
  182.3490  178.5790  141.7810 O   0  0  0  0  0  0  0  0  0  0  0  0
  1 24  1  0  0  0  0
  3  2  2  0  0  0  0
  3  1  1  0  0  0  0
  5 10  1  0  0  0  0
  5 12  1  0  0  0  0
  6  8  1  0  0  0  0
  7  9  1  0  0  0  0
  7  4  1  0  0  0  0
  8  9  2  0  0  0  0
  9  3  1  0  0  0  0
 10 11  1  0  0  0  0
 11 17  1  6  0  0  0
 11 13  1  0  0  0  0
 12  6  2  0  0  0  0
 12 14  1  0  0  0  0
 13 14  1  0  0  0  0
 14  7  2  0  0  0  0
 15  8  1  0  0  0  0
 16 15  1  0  0  0  0
 18 20  1  0  0  0  0
 18 17  1  0  0  0  0
 19 20  1  0  0  0  0
 21 27  1  0  0  0  0
 22 25  1  0  0  0  0
 23 25  2  0  0  0  0
 24 26  1  0  0  0  0
 25 28  1  0  0  0  0
 26 22  2  0  0  0  0
 27 24  2  0  0  0  0
 27 23  1  0  0  0  0
 28 29  2  0  0  0  0
 30 31  1  0  0  0  0
 30 23  1  0  0  0  0
 33 32  1  0  0  0  0
 33 31  1  0  0  0  0
 34 33  2  0  0  0  0
M  END
>  <MODEL>
9

>  <REMARK>
 VINA RESULT:      -7.2      2.709      9.595
  Name = 
  10 active torsions:
  status: ('A' for Active; 'I' for Inactive)
    1  A    between atoms: C_7  and  N_14
    2  A    between atoms: C_7  and  C_15
    3  A    between atoms: N_8  and  C_18
    4  A    between atoms: O_12  and  C_19
    5  A    between atoms: C_13  and  C_24
    6  A    between atoms: N_14  and  C_16
    7  A    between atoms: C_17  and  C_20
    8  A    between atoms: C_24  and  N_25
    9  A    between atoms: N_25  and  C_27
   10  A    between atoms: C_26  and  C_28
                            x       y       z     vdW  Elec       q    Type
                         _______ _______ _______ _____ _____    ______ ____

>  <TORSDO>
F 10

$$$$
