=
 OpenBabel11052413023D

 31 34  0  0  1  0  0  0  0  0999 V2000
  193.3120  175.5600  135.9140 C   0  0  0  0  0  0  0  0  0  0  0  0
  190.3020  177.1030  137.6420 C   0  0  2  0  0  3  0  0  0  0  0  0
  189.1510  176.1330  137.4400 C   0  0  0  0  0  0  0  0  0  0  0  0
  188.8130  174.2180  135.9080 C   0  0  0  0  0  3  0  0  0  0  0  0
  191.6730  176.5060  137.4330 C   0  0  0  0  0  0  0  0  0  0  0  0
  194.1630  175.2980  136.9890 C   0  0  0  0  0  3  0  0  0  0  0  0
  189.4100  174.6760  137.1950 C   0  0  0  0  0  2  0  0  0  0  0  0
  190.7330  177.0040  140.1280 C   0  0  2  0  0  3  0  0  0  0  0  0
  193.7070  175.2100  134.5940 N   0  0  0  0  0  1  0  0  0  0  0  0
  187.7350  178.0010  138.1440 C   0  0  0  0  0  2  0  0  0  0  0  0
  187.5020  174.2380  135.6760 C   0  0  0  0  0  3  0  0  0  0  0  0
  192.2160  176.6970  139.9140 C   0  0  0  0  0  2  0  0  0  0  0  0
  190.1680  177.8600  138.9840 C   0  0  2  0  0  3  0  0  0  0  0  0
  192.0720  176.1630  136.1350 C   0  0  0  0  0  3  0  0  0  0  0  0
  186.4930  174.7850  136.6030 C   0  0  0  0  0  3  0  0  0  0  0  0
  192.5330  176.2390  138.5200 C   0  0  0  0  0  0  0  0  0  0  0  0
  193.7780  175.6450  138.2860 C   0  0  0  0  0  3  0  0  0  0  0  0
  188.7130  178.2840  139.2880 C   0  0  0  0  0  2  0  0  0  0  0  0
  187.9030  176.5950  137.6510 C   0  0  0  0  0  0  0  0  0  0  0  0
  186.6720  175.7970  137.4600 C   0  0  0  0  0  3  0  0  0  0  0  0
  190.4310  178.9940  143.9350 C   0  0  0  0  0  1  0  0  0  0  0  0
  187.6050  176.7310  144.4330 O   0  0  0  0  0  0  0  0  0  0  0  0
  188.8590  176.2090  142.1810 O   0  0  0  0  0  0  0  0  0  0  0  0
  189.5930  177.2060  142.4180 C   0  0  0  0  0  0  0  0  0  0  0  0
  188.5180  177.5650  144.6780 C   0  0  0  0  0  0  0  0  0  0  0  0
  189.4990  177.9030  143.6750 N   0  0  0  0  0  0  0  0  0  0  0  0
  190.5390  177.6420  141.4300 N   0  0  0  0  0  2  0  0  0  0  0  0
  188.5650  178.1900  146.0390 C   0  0  0  0  0  2  0  0  0  0  0  0
  188.7480  177.1320  147.1170 C   0  0  0  0  0  3  0  0  0  0  0  0
  188.2650  177.6830  148.4430 C   0  0  0  0  0  1  0  0  0  0  0  0
  190.2110  176.7510  147.2420 C   0  0  0  0  0  1  0  0  0  0  0  0
  1 14  2  0  0  0  0
  1  6  1  0  0  0  0
  2  5  1  1  0  0  0
  2 13  1  0  0  0  0
  3  2  1  0  0  0  0
  3 19  2  0  0  0  0
  4  7  1  0  0  0  0
  5 16  2  0  0  0  0
  6 17  2  0  0  0  0
  7  3  1  0  0  0  0
  8 27  1  1  0  0  0
  9  1  1  0  0  0  0
 10 18  1  0  0  0  0
 11  4  2  0  0  0  0
 11 15  1  0  0  0  0
 12  8  1  0  0  0  0
 13 18  1  1  0  0  0
 13  8  1  0  0  0  0
 14  5  1  0  0  0  0
 15 20  2  0  0  0  0
 16 12  1  0  0  0  0
 17 16  1  0  0  0  0
 19 10  1  0  0  0  0
 20 19  1  0  0  0  0
 22 25  2  0  0  0  0
 23 24  2  0  0  0  0
 24 26  1  0  0  0  0
 25 28  1  0  0  0  0
 26 21  1  0  0  0  0
 26 25  1  0  0  0  0
 27 24  1  0  0  0  0
 28 29  1  0  0  0  0
 29 31  1  0  0  0  0
 29 30  1  0  0  0  0
M  END
>  <MODEL>
1

>  <REMARK>
 VINA RESULT:      -7.6      0.000      0.000
  Name = 
  3 active torsions:
  status: ('A' for Active; 'I' for Inactive)
    1  A    between atoms: C_1  and  C_24
    2  A    between atoms: C_15  and  N_23
    3  A    between atoms: C_19  and  C_24
                            x       y       z     vdW  Elec       q    Type
                         _______ _______ _______ _____ _____    ______ ____

>  <TORSDO>
F 3

$$$$
=
 OpenBabel11052413023D

 31 34  0  0  1  0  0  0  0  0999 V2000
  193.1800  175.8770  135.8130 C   0  0  0  0  0  0  0  0  0  0  0  0
  189.6000  176.3420  136.9930 C   0  0  2  0  0  3  0  0  0  0  0  0
  188.8990  175.0150  136.7590 C   0  0  0  0  0  0  0  0  0  0  0  0
  189.4760  173.0210  135.4110 C   0  0  0  0  0  3  0  0  0  0  0  0
  191.1070  176.2610  137.0150 C   0  0  0  0  0  0  0  0  0  0  0  0
  193.8980  175.9980  137.0040 C   0  0  0  0  0  3  0  0  0  0  0  0
  189.6780  173.7340  136.7040 C   0  0  0  0  0  2  0  0  0  0  0  0
  189.6610  176.5460  139.5090 C   0  0  2  0  0  3  0  0  0  0  0  0
  193.8650  175.6150  134.5940 N   0  0  0  0  0  1  0  0  0  0  0  0
  186.8360  176.2920  137.0840 C   0  0  0  0  0  2  0  0  0  0  0  0
  188.2890  172.5580  135.0230 C   0  0  0  0  0  3  0  0  0  0  0  0
  191.1730  176.7760  139.5080 C   0  0  0  0  0  2  0  0  0  0  0  0
  189.0140  177.0770  138.2200 C   0  0  2  0  0  3  0  0  0  0  0  0
  191.7900  176.0090  135.8180 C   0  0  0  0  0  3  0  0  0  0  0  0
  187.0270  172.7610  135.7580 C   0  0  0  0  0  3  0  0  0  0  0  0
  191.8330  176.3820  138.2190 C   0  0  0  0  0  0  0  0  0  0  0  0
  193.2270  176.2590  138.2010 C   0  0  0  0  0  3  0  0  0  0  0  0
  187.4730  176.9710  138.3010 C   0  0  0  0  0  2  0  0  0  0  0  0
  187.5510  175.0130  136.7680 C   0  0  0  0  0  0  0  0  0  0  0  0
  186.7150  173.8190  136.5170 C   0  0  0  0  0  3  0  0  0  0  0  0
  187.7910  178.5180  142.8490 C   0  0  0  0  0  1  0  0  0  0  0  0
  190.1270  176.5120  144.8160 O   0  0  0  0  0  0  0  0  0  0  0  0
  190.5560  176.2190  142.2390 O   0  0  0  0  0  0  0  0  0  0  0  0
  189.5510  176.9540  142.0400 C   0  0  0  0  0  0  0  0  0  0  0  0
  189.2820  177.3970  144.5150 C   0  0  0  0  0  0  0  0  0  0  0  0
  188.8940  177.6100  143.1410 N   0  0  0  0  0  0  0  0  0  0  0  0
  189.0660  177.1470  140.7020 N   0  0  0  0  0  2  0  0  0  0  0  0
  188.6960  178.2280  145.6150 C   0  0  0  0  0  2  0  0  0  0  0  0
  187.7470  177.4040  146.4730 C   0  0  0  0  0  3  0  0  0  0  0  0
  186.3250  177.8640  146.2260 C   0  0  0  0  0  1  0  0  0  0  0  0
  188.0760  177.5770  147.9430 C   0  0  0  0  0  1  0  0  0  0  0  0
  1 14  2  0  0  0  0
  1  6  1  0  0  0  0
  2  3  1  1  0  0  0
  2  5  1  0  0  0  0
  2 13  1  0  0  0  0
  3 19  2  0  0  0  0
  4  7  1  0  0  0  0
  5 16  2  0  0  0  0
  6 17  2  0  0  0  0
  7  3  1  0  0  0  0
  8 27  1  1  0  0  0
  9  1  1  0  0  0  0
 10 18  1  0  0  0  0
 11  4  2  0  0  0  0
 11 15  1  0  0  0  0
 12  8  1  0  0  0  0
 13 18  1  1  0  0  0
 13  8  1  0  0  0  0
 14  5  1  0  0  0  0
 15 20  2  0  0  0  0
 16 12  1  0  0  0  0
 17 16  1  0  0  0  0
 19 10  1  0  0  0  0
 20 19  1  0  0  0  0
 21 26  1  0  0  0  0
 24 23  2  0  0  0  0
 24 26  1  0  0  0  0
 25 22  2  0  0  0  0
 25 28  1  0  0  0  0
 26 25  1  0  0  0  0
 27 24  1  0  0  0  0
 28 29  1  0  0  0  0
 29 31  1  0  0  0  0
 30 29  1  0  0  0  0
M  END
>  <MODEL>
2

>  <REMARK>
 VINA RESULT:      -6.8      1.225      1.604
  Name = 
  3 active torsions:
  status: ('A' for Active; 'I' for Inactive)
    1  A    between atoms: C_1  and  C_24
    2  A    between atoms: C_15  and  N_23
    3  A    between atoms: C_19  and  C_24
                            x       y       z     vdW  Elec       q    Type
                         _______ _______ _______ _____ _____    ______ ____

>  <TORSDO>
F 3

$$$$
=
 OpenBabel11052413023D

 31 34  0  0  1  0  0  0  0  0999 V2000
  186.0080  178.7030  139.4510 C   0  0  0  0  0  0  0  0  0  0  0  0
  189.5220  178.1000  140.7610 C   0  0  2  0  0  3  0  0  0  0  0  0
  189.3630  177.4210  142.1100 C   0  0  0  0  0  0  0  0  0  0  0  0
  187.4400  177.1610  143.6480 C   0  0  0  0  0  3  0  0  0  0  0  0
  188.3020  178.0320  139.8750 C   0  0  0  0  0  0  0  0  0  0  0  0
  185.9680  177.8730  138.3290 C   0  0  0  0  0  3  0  0  0  0  0  0
  188.1260  176.6350  142.4330 C   0  0  0  0  0  2  0  0  0  0  0  0
  190.5640  176.3120  139.3140 C   0  0  2  0  0  3  0  0  0  0  0  0
  184.8630  179.4650  139.8120 N   0  0  0  0  0  1  0  0  0  0  0  0
  191.7200  177.9960  142.4380 C   0  0  0  0  0  2  0  0  0  0  0  0
  188.0090  177.1570  144.8520 C   0  0  0  0  0  3  0  0  0  0  0  0
  189.4760  176.4620  138.2500 C   0  0  0  0  0  2  0  0  0  0  0  0
  190.8150  177.6380  140.0490 C   0  0  2  0  0  3  0  0  0  0  0  0
  187.1710  178.7830  140.2210 C   0  0  0  0  0  3  0  0  0  0  0  0
  189.3920  176.7260  145.1270 C   0  0  0  0  0  3  0  0  0  0  0  0
  188.2600  177.1920  138.7420 C   0  0  0  0  0  0  0  0  0  0  0  0
  187.0940  177.1280  137.9720 C   0  0  0  0  0  3  0  0  0  0  0  0
  192.0140  177.5060  141.0160 C   0  0  0  0  0  2  0  0  0  0  0  0
  190.4300  177.4100  142.9320 C   0  0  0  0  0  0  0  0  0  0  0  0
  190.4340  176.8300  144.2930 C   0  0  0  0  0  3  0  0  0  0  0  0
  194.2890  175.0310  137.5760 C   0  0  0  0  0  1  0  0  0  0  0  0
  192.2500  172.3290  136.2030 O   0  0  0  0  0  0  0  0  0  0  0  0
  190.7680  174.0860  137.4800 O   0  0  0  0  0  0  0  0  0  0  0  0
  191.8350  174.6790  137.7980 C   0  0  0  0  0  0  0  0  0  0  0  0
  193.2250  173.1040  136.3900 C   0  0  0  0  0  0  0  0  0  0  0  0
  193.0980  174.2580  137.2460 N   0  0  0  0  0  0  0  0  0  0  0  0
  191.7880  175.7890  138.7070 N   0  0  0  0  0  2  0  0  0  0  0  0
  194.5180  172.8030  135.6950 C   0  0  0  0  0  2  0  0  0  0  0  0
  195.0580  171.4440  136.1160 C   0  0  0  0  0  3  0  0  0  0  0  0
  195.3690  171.4690  137.5980 C   0  0  0  0  0  1  0  0  0  0  0  0
  196.3250  171.1160  135.3490 C   0  0  0  0  0  1  0  0  0  0  0  0
  1  9  1  0  0  0  0
  1 14  1  0  0  0  0
  2  5  1  6  0  0  0
  2  3  1  0  0  0  0
  3  7  1  0  0  0  0
  3 19  2  0  0  0  0
  4 11  2  0  0  0  0
  5 14  2  0  0  0  0
  6  1  2  0  0  0  0
  7  4  1  0  0  0  0
  8 27  1  6  0  0  0
  8 13  1  0  0  0  0
 10 19  1  0  0  0  0
 11 15  1  0  0  0  0
 12 16  1  0  0  0  0
 12  8  1  0  0  0  0
 13  2  1  0  0  0  0
 13 18  1  1  0  0  0
 16  5  1  0  0  0  0
 17  6  1  0  0  0  0
 17 16  2  0  0  0  0
 18 10  1  0  0  0  0
 19 20  1  0  0  0  0
 20 15  2  0  0  0  0
 22 25  2  0  0  0  0
 23 24  2  0  0  0  0
 24 27  1  0  0  0  0
 25 26  1  0  0  0  0
 26 21  1  0  0  0  0
 26 24  1  0  0  0  0
 28 29  1  0  0  0  0
 28 25  1  0  0  0  0
 29 30  1  0  0  0  0
 31 29  1  0  0  0  0
M  END
>  <MODEL>
3

>  <REMARK>
 VINA RESULT:      -6.8      2.932      8.228
  Name = 
  3 active torsions:
  status: ('A' for Active; 'I' for Inactive)
    1  A    between atoms: C_1  and  C_24
    2  A    between atoms: C_15  and  N_23
    3  A    between atoms: C_19  and  C_24
                            x       y       z     vdW  Elec       q    Type
                         _______ _______ _______ _____ _____    ______ ____

>  <TORSDO>
F 3

$$$$
=
 OpenBabel11052413023D

 31 34  0  0  1  0  0  0  0  0999 V2000
  185.7770  178.8860  146.1040 C   0  0  0  0  0  0  0  0  0  0  0  0
  189.1050  178.3790  144.3450 C   0  0  2  0  0  3  0  0  0  0  0  0
  189.8730  177.3630  145.1730 C   0  0  0  0  0  0  0  0  0  0  0  0
  189.5790  176.4970  147.4730 C   0  0  0  0  0  3  0  0  0  0  0  0
  187.6170  178.4000  144.5980 C   0  0  0  0  0  0  0  0  0  0  0  0
  184.8730  178.3720  145.1720 C   0  0  0  0  0  3  0  0  0  0  0  0
  189.1500  176.3840  146.0500 C   0  0  0  0  0  2  0  0  0  0  0  0
  188.6330  177.1540  142.1880 C   0  0  2  0  0  3  0  0  0  0  0  0
  185.3050  179.3920  147.3460 N   0  0  0  0  0  1  0  0  0  0  0  0
  191.8180  178.1040  143.8850 C   0  0  0  0  0  2  0  0  0  0  0  0
  190.8260  176.2510  147.8700 C   0  0  0  0  0  3  0  0  0  0  0  0
  187.1350  177.4450  142.2870 C   0  0  0  0  0  2  0  0  0  0  0  0
  189.4640  178.2670  142.8450 C   0  0  2  0  0  3  0  0  0  0  0  0
  187.1440  178.9010  145.8180 C   0  0  0  0  0  3  0  0  0  0  0  0
  191.9470  175.9270  146.9680 C   0  0  0  0  0  3  0  0  0  0  0  0
  186.7030  177.8790  143.6570 C   0  0  0  0  0  0  0  0  0  0  0  0
  185.3350  177.8790  143.9500 C   0  0  0  0  0  3  0  0  0  0  0  0
  190.9740  178.0330  142.6080 C   0  0  0  0  0  2  0  0  0  0  0  0
  191.2010  177.2660  144.9650 C   0  0  0  0  0  0  0  0  0  0  0  0
  192.1020  176.3610  145.7110 C   0  0  0  0  0  3  0  0  0  0  0  0
  189.9870  176.4210  138.1670 C   0  0  0  0  0  1  0  0  0  0  0  0
  187.4490  178.9010  137.2960 O   0  0  0  0  0  0  0  0  0  0  0  0
  187.6750  178.6450  139.9030 O   0  0  0  0  0  0  0  0  0  0  0  0
  188.5060  177.7200  139.6890 C   0  0  0  0  0  0  0  0  0  0  0  0
  188.4360  178.1240  137.1930 C   0  0  0  0  0  0  0  0  0  0  0  0
  188.9610  177.4400  138.3510 N   0  0  0  0  0  0  0  0  0  0  0  0
  189.0110  176.9490  140.7900 N   0  0  0  0  0  2  0  0  0  0  0  0
  189.0570  177.9340  135.8430 C   0  0  0  0  0  2  0  0  0  0  0  0
  188.1300  177.1510  134.9250 C   0  0  0  0  0  3  0  0  0  0  0  0
  186.9210  178.0010  134.5930 C   0  0  0  0  0  1  0  0  0  0  0  0
  187.6690  175.8740  135.6020 C   0  0  0  0  0  1  0  0  0  0  0  0
  1  9  1  0  0  0  0
  2  5  1  6  0  0  0
  2  3  1  0  0  0  0
  3  7  1  0  0  0  0
  4 11  2  0  0  0  0
  5 14  2  0  0  0  0
  6  1  2  0  0  0  0
  7  4  1  0  0  0  0
  8 27  1  6  0  0  0
  8 12  1  0  0  0  0
  8 13  1  0  0  0  0
 10 19  1  0  0  0  0
 12 16  1  0  0  0  0
 13 18  1  1  0  0  0
 13  2  1  0  0  0  0
 14  1  1  0  0  0  0
 15 11  1  0  0  0  0
 16 17  2  0  0  0  0
 16  5  1  0  0  0  0
 17  6  1  0  0  0  0
 18 10  1  0  0  0  0
 19  3  2  0  0  0  0
 19 20  1  0  0  0  0
 20 15  2  0  0  0  0
 21 26  1  0  0  0  0
 24 23  2  0  0  0  0
 24 27  1  0  0  0  0
 25 22  2  0  0  0  0
 25 26  1  0  0  0  0
 26 24  1  0  0  0  0
 28 25  1  0  0  0  0
 29 31  1  0  0  0  0
 29 28  1  0  0  0  0
 30 29  1  0  0  0  0
M  END
>  <MODEL>
4

>  <REMARK>
 VINA RESULT:      -6.5      2.640      9.275
  Name = 
  3 active torsions:
  status: ('A' for Active; 'I' for Inactive)
    1  A    between atoms: C_1  and  C_24
    2  A    between atoms: C_15  and  N_23
    3  A    between atoms: C_19  and  C_24
                            x       y       z     vdW  Elec       q    Type
                         _______ _______ _______ _____ _____    ______ ____

>  <TORSDO>
F 3

$$$$
=
 OpenBabel11052413023D

 31 34  0  0  1  0  0  0  0  0999 V2000
  190.4430  177.1500  139.5510 C   0  0  0  0  0  0  0  0  0  0  0  0
  188.2470  177.0090  142.6470 C   0  0  2  0  0  3  0  0  0  0  0  0
  189.0570  177.6260  143.7730 C   0  0  0  0  0  0  0  0  0  0  0  0
  191.4640  178.1500  144.0230 C   0  0  0  0  0  3  0  0  0  0  0  0
  188.7310  177.3540  141.2600 C   0  0  0  0  0  0  0  0  0  0  0  0
  189.7390  178.0360  138.7340 C   0  0  0  0  0  3  0  0  0  0  0  0
  190.1530  178.6080  143.4800 C   0  0  0  0  0  2  0  0  0  0  0  0
  186.3600  178.6510  142.3020 C   0  0  2  0  0  3  0  0  0  0  0  0
  191.6740  176.5960  139.1040 N   0  0  0  0  0  1  0  0  0  0  0  0
  187.3910  176.6020  145.2460 C   0  0  0  0  0  2  0  0  0  0  0  0
  191.6810  177.9780  145.3260 C   0  0  0  0  0  3  0  0  0  0  0  0
  186.6630  178.7690  140.8080 C   0  0  0  0  0  2  0  0  0  0  0  0
  186.7330  177.2610  142.8410 C   0  0  2  0  0  3  0  0  0  0  0  0
  189.9400  176.8090  140.8090 C   0  0  0  0  0  3  0  0  0  0  0  0
  190.6570  178.1260  146.3760 C   0  0  0  0  0  3  0  0  0  0  0  0
  188.0210  178.2520  140.4340 C   0  0  0  0  0  0  0  0  0  0  0  0
  188.5280  178.5780  139.1710 C   0  0  0  0  0  3  0  0  0  0  0  0
  186.2860  177.1100  144.3140 C   0  0  0  0  0  2  0  0  0  0  0  0
  188.6510  177.3880  145.0350 C   0  0  0  0  0  0  0  0  0  0  0  0
  189.3480  177.8780  146.2450 C   0  0  0  0  0  3  0  0  0  0  0  0
  182.3000  179.6720  143.3110 C   0  0  0  0  0  1  0  0  0  0  0  0
  181.5000  177.7240  140.3250 O   0  0  0  0  0  0  0  0  0  0  0  0
  184.0690  177.6170  140.8720 O   0  0  0  0  0  0  0  0  0  0  0  0
  183.8510  178.4270  141.8140 C   0  0  0  0  0  0  0  0  0  0  0  0
  181.3560  178.3530  141.4080 C   0  0  0  0  0  0  0  0  0  0  0  0
  182.5040  178.8020  142.1590 N   0  0  0  0  0  0  0  0  0  0  0  0
  184.9550  178.9710  142.5530 N   0  0  0  0  0  2  0  0  0  0  0  0
  179.9660  178.6160  141.9000 C   0  0  0  0  0  2  0  0  0  0  0  0
  179.3290  179.7690  141.1390 C   0  0  0  0  0  3  0  0  0  0  0  0
  180.3240  180.3130  140.1350 C   0  0  0  0  0  1  0  0  0  0  0  0
  178.9310  180.8790  142.0940 C   0  0  0  0  0  1  0  0  0  0  0  0
  1 14  1  0  0  0  0
  2  5  1  6  0  0  0
  2 13  1  0  0  0  0
  2  3  1  0  0  0  0
  3 19  2  0  0  0  0
  4 11  2  0  0  0  0
  6 17  1  0  0  0  0
  6  1  2  0  0  0  0
  7  3  1  0  0  0  0
  7  4  1  0  0  0  0
  8 27  1  6  0  0  0
  8 13  1  0  0  0  0
  9  1  1  0  0  0  0
 11 15  1  0  0  0  0
 12  8  1  0  0  0  0
 13 18  1  1  0  0  0
 14  5  2  0  0  0  0
 16 12  1  0  0  0  0
 16  5  1  0  0  0  0
 17 16  2  0  0  0  0
 18 10  1  0  0  0  0
 19 10  1  0  0  0  0
 19 20  1  0  0  0  0
 20 15  2  0  0  0  0
 22 25  2  0  0  0  0
 23 24  2  0  0  0  0
 24 26  1  0  0  0  0
 24 27  1  0  0  0  0
 25 28  1  0  0  0  0
 25 26  1  0  0  0  0
 26 21  1  0  0  0  0
 29 28  1  0  0  0  0
 29 31  1  0  0  0  0
 30 29  1  0  0  0  0
M  END
>  <MODEL>
5

>  <REMARK>
 VINA RESULT:      -6.5      4.618      7.713
  Name = 
  3 active torsions:
  status: ('A' for Active; 'I' for Inactive)
    1  A    between atoms: C_1  and  C_24
    2  A    between atoms: C_15  and  N_23
    3  A    between atoms: C_19  and  C_24
                            x       y       z     vdW  Elec       q    Type
                         _______ _______ _______ _____ _____    ______ ____

>  <TORSDO>
F 3

$$$$
=
 OpenBabel11052413023D

 31 34  0  0  1  0  0  0  0  0999 V2000
  180.0770  180.6940  139.1440 C   0  0  0  0  0  0  0  0  0  0  0  0
  183.6250  179.4140  139.5890 C   0  0  2  0  0  3  0  0  0  0  0  0
  183.7070  178.8700  141.0050 C   0  0  0  0  0  0  0  0  0  0  0  0
  182.2610  179.1330  142.9960 C   0  0  0  0  0  3  0  0  0  0  0  0
  182.2230  179.5620  139.0520 C   0  0  0  0  0  0  0  0  0  0  0  0
  179.5740  179.8260  138.1730 C   0  0  0  0  0  3  0  0  0  0  0  0
  182.4750  178.3970  141.7170 C   0  0  0  0  0  2  0  0  0  0  0  0
  183.8660  177.3560  138.1460 C   0  0  2  0  0  3  0  0  0  0  0  0
  179.2450  181.7100  139.6900 N   0  0  0  0  0  1  0  0  0  0  0  0
  186.1300  178.9310  140.6590 C   0  0  0  0  0  2  0  0  0  0  0  0
  183.1220  179.0770  144.0100 C   0  0  0  0  0  3  0  0  0  0  0  0
  182.5820  177.6770  137.3790 C   0  0  0  0  0  2  0  0  0  0  0  0
  184.5610  178.6360  138.6340 C   0  0  2  0  0  3  0  0  0  0  0  0
  181.3970  180.5640  139.5810 C   0  0  0  0  0  3  0  0  0  0  0  0
  184.4150  178.3700  143.9770 C   0  0  0  0  0  3  0  0  0  0  0  0
  181.7120  178.6850  138.0720 C   0  0  0  0  0  0  0  0  0  0  0  0
  180.3920  178.8310  137.6330 C   0  0  0  0  0  3  0  0  0  0  0  0
  185.9280  178.3040  139.2760 C   0  0  0  0  0  2  0  0  0  0  0  0
  184.9340  178.6750  141.5270 C   0  0  0  0  0  0  0  0  0  0  0  0
  185.1920  178.1920  142.9010 C   0  0  0  0  0  3  0  0  0  0  0  0
  186.5200  175.1920  135.5360 C   0  0  0  0  0  1  0  0  0  0  0  0
  185.0250  172.2580  137.1190 O   0  0  0  0  0  0  0  0  0  0  0  0
  183.8590  174.4730  137.9240 O   0  0  0  0  0  0  0  0  0  0  0  0
  184.7070  175.1080  137.2390 C   0  0  0  0  0  0  0  0  0  0  0  0
  185.6790  172.9670  136.3080 C   0  0  0  0  0  0  0  0  0  0  0  0
  185.6210  174.4080  136.3730 N   0  0  0  0  0  0  0  0  0  0  0  0
  184.7520  176.5410  137.3150 N   0  0  0  0  0  2  0  0  0  0  0  0
  186.5130  172.2790  135.2710 C   0  0  0  0  0  2  0  0  0  0  0  0
  187.7190  171.6020  135.9050 C   0  0  0  0  0  3  0  0  0  0  0  0
  188.9610  172.4190  135.6130 C   0  0  0  0  0  1  0  0  0  0  0  0
  187.9010  170.2060  135.3390 C   0  0  0  0  0  1  0  0  0  0  0  0
  1 14  1  0  0  0  0
  1  9  1  0  0  0  0
  2  5  1  6  0  0  0
  2  3  1  0  0  0  0
  3 19  2  0  0  0  0
  3  7  1  0  0  0  0
  4 11  2  0  0  0  0
  5 14  2  0  0  0  0
  6  1  2  0  0  0  0
  7  4  1  0  0  0  0
  8 27  1  6  0  0  0
  8 13  1  0  0  0  0
 10 19  1  0  0  0  0
 12 16  1  0  0  0  0
 12  8  1  0  0  0  0
 13 18  1  1  0  0  0
 13  2  1  0  0  0  0
 15 11  1  0  0  0  0
 16  5  1  0  0  0  0
 17 16  2  0  0  0  0
 17  6  1  0  0  0  0
 18 10  1  0  0  0  0
 19 20  1  0  0  0  0
 20 15  2  0  0  0  0
 21 26  1  0  0  0  0
 24 27  1  0  0  0  0
 24 23  2  0  0  0  0
 25 26  1  0  0  0  0
 25 22  2  0  0  0  0
 26 24  1  0  0  0  0
 28 29  1  0  0  0  0
 28 25  1  0  0  0  0
 30 29  1  0  0  0  0
 31 29  1  0  0  0  0
M  END
>  <MODEL>
6

>  <REMARK>
 VINA RESULT:      -6.3      5.563     10.232
  Name = 
  3 active torsions:
  status: ('A' for Active; 'I' for Inactive)
    1  A    between atoms: C_1  and  C_24
    2  A    between atoms: C_15  and  N_23
    3  A    between atoms: C_19  and  C_24
                            x       y       z     vdW  Elec       q    Type
                         _______ _______ _______ _____ _____    ______ ____

>  <TORSDO>
F 3

$$$$
=
 OpenBabel11052413023D

 31 34  0  0  1  0  0  0  0  0999 V2000
  185.1700  179.3610  145.9000 C   0  0  0  0  0  0  0  0  0  0  0  0
  186.4550  178.9350  142.3510 C   0  0  2  0  0  3  0  0  0  0  0  0
  187.4840  177.8190  142.4020 C   0  0  0  0  0  0  0  0  0  0  0  0
  188.7010  176.7350  144.2650 C   0  0  0  0  0  3  0  0  0  0  0  0
  185.5110  178.9740  143.5280 C   0  0  0  0  0  0  0  0  0  0  0  0
  183.8350  178.9710  145.7750 C   0  0  0  0  0  3  0  0  0  0  0  0
  187.4340  176.7770  143.4810 C   0  0  0  0  0  2  0  0  0  0  0  0
  184.5740  177.9480  140.9860 C   0  0  2  0  0  3  0  0  0  0  0  0
  185.6800  179.7530  147.1670 N   0  0  0  0  0  1  0  0  0  0  0  0
  188.1560  178.6280  140.1910 C   0  0  0  0  0  2  0  0  0  0  0  0
  189.8730  176.4130  143.7190 C   0  0  0  0  0  3  0  0  0  0  0  0
  183.5450  178.2720  142.0700 C   0  0  0  0  0  2  0  0  0  0  0  0
  185.7270  178.9650  140.9870 C   0  0  2  0  0  3  0  0  0  0  0  0
  186.0050  179.3640  144.7800 C   0  0  0  0  0  3  0  0  0  0  0  0
  190.0880  176.1480  142.2850 C   0  0  0  0  0  3  0  0  0  0  0  0
  184.1620  178.5780  143.4030 C   0  0  0  0  0  0  0  0  0  0  0  0
  183.3320  178.5890  144.5290 C   0  0  0  0  0  3  0  0  0  0  0  0
  186.6790  178.7100  139.7950 C   0  0  0  0  0  2  0  0  0  0  0  0
  188.3310  177.7040  141.3600 C   0  0  0  0  0  0  0  0  0  0  0  0
  189.4150  176.7020  141.2690 C   0  0  0  0  0  3  0  0  0  0  0  0
  182.6940  178.0160  137.1120 C   0  0  0  0  0  1  0  0  0  0  0  0
  181.3170  174.8040  138.1770 O   0  0  0  0  0  0  0  0  0  0  0  0
  182.6800  175.9450  140.1140 O   0  0  0  0  0  0  0  0  0  0  0  0
  182.9800  176.8570  139.2970 C   0  0  0  0  0  0  0  0  0  0  0  0
  181.4940  175.8590  137.5110 C   0  0  0  0  0  0  0  0  0  0  0  0
  182.3820  176.8920  137.9870 N   0  0  0  0  0  0  0  0  0  0  0  0
  183.9170  177.8750  139.6810 N   0  0  0  0  0  2  0  0  0  0  0  0
  180.7530  176.0190  136.2180 C   0  0  0  0  0  2  0  0  0  0  0  0
  181.2810  175.0530  135.1670 C   0  0  0  0  0  3  0  0  0  0  0  0
  180.5420  173.7360  135.2860 C   0  0  0  0  0  1  0  0  0  0  0  0
  182.7640  174.8100  135.3690 C   0  0  0  0  0  1  0  0  0  0  0  0
  1  9  1  0  0  0  0
  2  3  1  1  0  0  0
  2  5  1  0  0  0  0
  3  7  1  0  0  0  0
  5 14  1  0  0  0  0
  6  1  1  0  0  0  0
  7  4  1  0  0  0  0
  8 27  1  6  0  0  0
  8 13  1  0  0  0  0
  8 12  1  0  0  0  0
 10 19  1  0  0  0  0
 11  4  2  0  0  0  0
 12 16  1  0  0  0  0
 13 18  1  6  0  0  0
 13  2  1  0  0  0  0
 14  1  2  0  0  0  0
 15 11  1  0  0  0  0
 16  5  2  0  0  0  0
 16 17  1  0  0  0  0
 17  6  2  0  0  0  0
 18 10  1  0  0  0  0
 19  3  2  0  0  0  0
 20 19  1  0  0  0  0
 20 15  2  0  0  0  0
 21 26  1  0  0  0  0
 24 27  1  0  0  0  0
 24 23  2  0  0  0  0
 25 26  1  0  0  0  0
 25 22  2  0  0  0  0
 26 24  1  0  0  0  0
 28 25  1  0  0  0  0
 29 30  1  0  0  0  0
 29 31  1  0  0  0  0
 29 28  1  0  0  0  0
M  END
>  <MODEL>
7

>  <REMARK>
 VINA RESULT:      -6.3      4.766      9.714
  Name = 
  3 active torsions:
  status: ('A' for Active; 'I' for Inactive)
    1  A    between atoms: C_1  and  C_24
    2  A    between atoms: C_15  and  N_23
    3  A    between atoms: C_19  and  C_24
                            x       y       z     vdW  Elec       q    Type
                         _______ _______ _______ _____ _____    ______ ____

>  <TORSDO>
F 3

$$$$
=
 OpenBabel11052413023D

 31 34  0  0  1  0  0  0  0  0999 V2000
  185.2120  179.1780  146.0740 C   0  0  0  0  0  0  0  0  0  0  0  0
  186.4380  178.8830  142.4910 C   0  0  2  0  0  3  0  0  0  0  0  0
  187.4860  177.7840  142.4890 C   0  0  0  0  0  0  0  0  0  0  0  0
  188.7560  176.6650  144.2950 C   0  0  0  0  0  3  0  0  0  0  0  0
  185.5150  178.8700  143.6850 C   0  0  0  0  0  0  0  0  0  0  0  0
  183.8820  178.7680  145.9620 C   0  0  0  0  0  3  0  0  0  0  0  0
  187.4740  176.7100  143.5360 C   0  0  0  0  0  2  0  0  0  0  0  0
  184.5480  177.9070  141.1300 C   0  0  2  0  0  3  0  0  0  0  0  0
  185.7390  179.5390  147.3440 N   0  0  0  0  0  1  0  0  0  0  0  0
  188.1030  178.6730  140.2930 C   0  0  0  0  0  2  0  0  0  0  0  0
  189.9230  176.3810  143.7190 C   0  0  0  0  0  3  0  0  0  0  0  0
  183.5350  178.1790  142.2420 C   0  0  0  0  0  2  0  0  0  0  0  0
  185.6840  178.9420  141.1420 C   0  0  2  0  0  3  0  0  0  0  0  0
  186.0250  179.2300  144.9400 C   0  0  0  0  0  3  0  0  0  0  0  0
  190.1160  176.1640  142.2730 C   0  0  0  0  0  3  0  0  0  0  0  0
  184.1710  178.4540  143.5730 C   0  0  0  0  0  0  0  0  0  0  0  0
  183.3620  178.4160  144.7140 C   0  0  0  0  0  3  0  0  0  0  0  0
  186.6170  178.7420  139.9260 C   0  0  0  0  0  2  0  0  0  0  0  0
  188.3150  177.7170  141.4290 C   0  0  0  0  0  0  0  0  0  0  0  0
  189.4150  176.7370  141.2870 C   0  0  0  0  0  3  0  0  0  0  0  0
  182.8090  177.7310  137.1950 C   0  0  0  0  0  1  0  0  0  0  0  0
  179.9200  179.2350  138.8500 O   0  0  0  0  0  0  0  0  0  0  0  0
  181.9600  179.0280  140.4960 O   0  0  0  0  0  0  0  0  0  0  0  0
  182.5810  178.4370  139.5710 C   0  0  0  0  0  0  0  0  0  0  0  0
  180.6910  178.8340  137.9380 C   0  0  0  0  0  0  0  0  0  0  0  0
  182.0130  178.3460  138.2500 N   0  0  0  0  0  0  0  0  0  0  0  0
  183.8690  177.8610  139.8350 N   0  0  0  0  0  2  0  0  0  0  0  0
  180.2070  178.8830  136.5210 C   0  0  0  0  0  2  0  0  0  0  0  0
  179.8070  180.2990  136.1320 C   0  0  0  0  0  3  0  0  0  0  0  0
  179.7730  180.4100  134.6220 C   0  0  0  0  0  1  0  0  0  0  0  0
  180.8060  181.3000  136.6810 C   0  0  0  0  0  1  0  0  0  0  0  0
  1  9  1  0  0  0  0
  2  3  1  6  0  0  0
  2  5  1  0  0  0  0
  3  7  1  0  0  0  0
  5 14  1  0  0  0  0
  6  1  1  0  0  0  0
  7  4  1  0  0  0  0
  8 27  1  6  0  0  0
  8 13  1  0  0  0  0
  8 12  1  0  0  0  0
 10 19  1  0  0  0  0
 11  4  2  0  0  0  0
 12 16  1  0  0  0  0
 13 18  1  6  0  0  0
 13  2  1  0  0  0  0
 14  1  2  0  0  0  0
 15 11  1  0  0  0  0
 16  5  2  0  0  0  0
 16 17  1  0  0  0  0
 17  6  2  0  0  0  0
 18 10  1  0  0  0  0
 19  3  2  0  0  0  0
 20 19  1  0  0  0  0
 20 15  2  0  0  0  0
 21 26  1  0  0  0  0
 24 27  1  0  0  0  0
 24 23  2  0  0  0  0
 25 26  1  0  0  0  0
 25 22  2  0  0  0  0
 26 24  1  0  0  0  0
 28 25  1  0  0  0  0
 29 28  1  0  0  0  0
 29 31  1  0  0  0  0
 30 29  1  0  0  0  0
M  END
>  <MODEL>
8

>  <REMARK>
 VINA RESULT:      -6.3      5.272      9.885
  Name = 
  3 active torsions:
  status: ('A' for Active; 'I' for Inactive)
    1  A    between atoms: C_1  and  C_24
    2  A    between atoms: C_15  and  N_23
    3  A    between atoms: C_19  and  C_24
                            x       y       z     vdW  Elec       q    Type
                         _______ _______ _______ _____ _____    ______ ____

>  <TORSDO>
F 3

$$$$
=
 OpenBabel11052413023D

 31 34  0  0  1  0  0  0  0  0999 V2000
  185.5300  178.5750  146.0710 C   0  0  0  0  0  0  0  0  0  0  0  0
  188.9270  178.6210  144.3720 C   0  0  2  0  0  3  0  0  0  0  0  0
  189.7610  177.5540  145.0580 C   0  0  0  0  0  0  0  0  0  0  0  0
  189.4930  176.3170  147.1860 C   0  0  0  0  0  3  0  0  0  0  0  0
  187.4380  178.4810  144.5730 C   0  0  0  0  0  0  0  0  0  0  0  0
  184.6940  178.1410  145.0400 C   0  0  0  0  0  3  0  0  0  0  0  0
  189.1060  176.3940  145.7480 C   0  0  0  0  0  2  0  0  0  0  0  0
  188.6090  177.7160  142.0360 C   0  0  2  0  0  3  0  0  0  0  0  0
  184.9900  178.8390  147.3590 N   0  0  0  0  0  1  0  0  0  0  0  0
  191.6630  178.6440  143.9690 C   0  0  0  0  0  2  0  0  0  0  0  0
  190.7480  176.1140  147.5830 C   0  0  0  0  0  3  0  0  0  0  0  0
  187.0900  177.8660  142.1260 C   0  0  0  0  0  2  0  0  0  0  0  0
  189.3270  178.7760  142.8860 C   0  0  2  0  0  3  0  0  0  0  0  0
  186.8970  178.7450  145.8380 C   0  0  0  0  0  3  0  0  0  0  0  0
  191.9110  176.0280  146.6810 C   0  0  0  0  0  3  0  0  0  0  0  0
  186.5920  178.0420  143.5310 C   0  0  0  0  0  0  0  0  0  0  0  0
  185.2230  177.8850  143.7730 C   0  0  0  0  0  3  0  0  0  0  0  0
  190.8560  178.7050  142.6680 C   0  0  0  0  0  2  0  0  0  0  0  0
  191.0970  177.6000  144.8840 C   0  0  0  0  0  0  0  0  0  0  0  0
  192.0550  176.6650  145.5130 C   0  0  0  0  0  3  0  0  0  0  0  0
  189.6060  177.9960  137.8560 C   0  0  0  0  0  1  0  0  0  0  0  0
  192.1050  175.4690  138.7020 O   0  0  0  0  0  0  0  0  0  0  0  0
  190.5550  176.0010  140.7580 O   0  0  0  0  0  0  0  0  0  0  0  0
  190.0040  176.8870  140.0490 C   0  0  0  0  0  0  0  0  0  0  0  0
  191.3570  176.2180  138.0190 C   0  0  0  0  0  0  0  0  0  0  0  0
  190.3340  177.0160  138.6530 N   0  0  0  0  0  0  0  0  0  0  0  0
  189.0330  177.7650  140.6370 N   0  0  0  0  0  2  0  0  0  0  0  0
  191.5480  176.2540  136.5340 C   0  0  0  0  0  2  0  0  0  0  0  0
  192.6480  175.2950  136.1040 C   0  0  0  0  0  3  0  0  0  0  0  0
  193.6380  176.0340  135.2270 C   0  0  0  0  0  1  0  0  0  0  0  0
  192.0640  174.1340  135.3230 C   0  0  0  0  0  1  0  0  0  0  0  0
  1  9  1  0  0  0  0
  2  5  1  6  0  0  0
  2  3  1  0  0  0  0
  3  7  1  0  0  0  0
  4 11  2  0  0  0  0
  5 14  2  0  0  0  0
  6  1  2  0  0  0  0
  7  4  1  0  0  0  0
  8 27  1  6  0  0  0
  8 12  1  0  0  0  0
  8 13  1  0  0  0  0
 10 19  1  0  0  0  0
 12 16  1  0  0  0  0
 13 18  1  1  0  0  0
 13  2  1  0  0  0  0
 14  1  1  0  0  0  0
 15 11  1  0  0  0  0
 16 17  2  0  0  0  0
 16  5  1  0  0  0  0
 17  6  1  0  0  0  0
 18 10  1  0  0  0  0
 19  3  2  0  0  0  0
 19 20  1  0  0  0  0
 20 15  2  0  0  0  0
 21 26  1  0  0  0  0
 24 27  1  0  0  0  0
 24 23  2  0  0  0  0
 25 26  1  0  0  0  0
 25 22  2  0  0  0  0
 26 24  1  0  0  0  0
 28 25  1  0  0  0  0
 29 28  1  0  0  0  0
 30 29  1  0  0  0  0
 31 29  1  0  0  0  0
M  END
>  <MODEL>
9

>  <REMARK>
 VINA RESULT:      -6.3      2.507      9.225
  Name = 
  3 active torsions:
  status: ('A' for Active; 'I' for Inactive)
    1  A    between atoms: C_1  and  C_24
    2  A    between atoms: C_15  and  N_23
    3  A    between atoms: C_19  and  C_24
                            x       y       z     vdW  Elec       q    Type
                         _______ _______ _______ _____ _____    ______ ____

>  <TORSDO>
F 3

$$$$
