=
 OpenBabel11052414283D

 32 35  0  0  1  0  0  0  0  0999 V2000
  189.0550  176.5910  142.6260 C   0  0  1  0  0  3  0  0  0  0  0  0
  187.2520  177.6850  144.0890 C   0  0  0  0  0  0  0  0  0  0  0  0
  190.2730  175.6690  142.7970 C   0  0  0  0  0  2  0  0  0  0  0  0
  188.7340  177.4270  143.8880 C   0  0  1  0  0  3  0  0  0  0  0  0
  186.7870  178.0470  145.3710 C   0  0  0  0  0  0  0  0  0  0  0  0
  185.0140  178.0210  143.1910 C   0  0  0  0  0  0  0  0  0  0  0  0
  184.5390  178.3600  144.4770 C   0  0  0  0  0  0  0  0  0  0  0  0
  189.3390  176.7900  145.1530 C   0  0  2  0  0  3  0  0  0  0  0  0
  185.4380  178.3790  145.5490 C   0  0  0  0  0  3  0  0  0  0  0  0
  188.9450  177.5310  146.3970 C   0  0  0  0  0  3  0  0  0  0  0  0
  190.8620  176.6640  145.0580 C   0  0  0  0  0  2  0  0  0  0  0  0
  186.3600  177.6950  143.0110 C   0  0  0  0  0  3  0  0  0  0  0  0
  187.7320  178.0800  146.5150 C   0  0  0  0  0  0  0  0  0  0  0  0
  191.3570  176.3370  143.6420 C   0  0  0  0  0  2  0  0  0  0  0  0
  184.1800  178.0240  142.0800 O   0  0  0  0  0  1  0  0  0  0  0  0
  188.2070  178.1800  148.9360 C   0  0  0  0  0  1  0  0  0  0  0  0
  187.3640  178.7370  147.8050 C   0  0  0  0  0  2  0  0  0  0  0  0
  189.7340  178.5930  141.5590 O   0  0  0  0  0  0  0  0  0  0  0  0
  189.2380  177.4820  141.4320 C   0  0  0  0  0  0  0  0  0  0  0  0
  188.6150  178.8400  137.3320 S   0  0  0  0  0  0  0  0  0  0  0  0
  190.0530  178.4340  138.4000 C   0  0  0  0  0  2  0  0  0  0  0  0
  187.3670  177.7570  138.1340 C   0  0  1  0  0  3  0  0  0  0  0  0
  188.8050  176.9940  140.0760 C   0  0  1  0  0  3  0  0  0  0  0  0
  187.5370  177.7410  139.6480 C   0  0  0  0  0  2  0  0  0  0  0  0
  189.9230  177.0470  139.0130 C   0  0  2  0  0  3  0  0  0  0  0  0
  191.2640  176.5460  139.5200 C   0  0  0  0  0  1  0  0  0  0  0  0
  185.3440  177.6140  136.6900 O   0  0  0  0  0  0  0  0  0  0  0  0
  185.4050  179.0950  138.4360 O   0  0  0  0  0  1  0  0  0  0  0  0
  185.9890  178.1990  137.7710 C   0  0  0  0  0  0  0  0  0  0  0  0
  183.2040  178.6960  144.7490 O   0  0  0  0  0  0  0  0  0  0  0  0
  182.3090  179.2910  143.8180 C   0  0  0  0  0  2  0  0  0  0  0  0
  180.9510  178.6180  143.8970 C   0  0  0  0  0  1  0  0  0  0  0  0
  1 19  1  6  0  0  0
  1  3  1  0  0  0  0
  1  4  1  0  0  0  0
  2  5  1  0  0  0  0
  3 14  1  0  0  0  0
  4  2  1  1  0  0  0
  4  8  1  0  0  0  0
  5  9  2  0  0  0  0
  5 13  1  0  0  0  0
  6  7  2  0  0  0  0
  7 30  1  0  0  0  0
  7  9  1  0  0  0  0
  8 11  1  6  0  0  0
  8 10  1  0  0  0  0
 10 13  2  0  0  0  0
 12  6  1  0  0  0  0
 12  2  2  0  0  0  0
 13 17  1  0  0  0  0
 14 11  1  0  0  0  0
 15  6  1  0  0  0  0
 17 16  1  0  0  0  0
 19 18  2  0  0  0  0
 20 22  1  0  0  0  0
 20 21  1  0  0  0  0
 21 25  1  0  0  0  0
 22 29  1  1  0  0  0
 22 24  1  0  0  0  0
 23 19  1  1  0  0  0
 24 23  1  0  0  0  0
 25 26  1  1  0  0  0
 25 23  1  0  0  0  0
 27 29  2  0  0  0  0
 29 28  1  0  0  0  0
 31 32  1  0  0  0  0
 31 30  1  0  0  0  0
M  END
>  <MODEL>
1

>  <REMARK>
 VINA RESULT:      -9.1      0.000      0.000
  Name = 
  6 active torsions:
  status: ('A' for Active; 'I' for Inactive)
    1  A    between atoms: C_1  and  C_27
    2  A    between atoms: C_9  and  O_11
    3  A    between atoms: O_11  and  C_12
    4  A    between atoms: C_15  and  C_26
    5  A    between atoms: C_16  and  C_27
    6  A    between atoms: C_25  and  C_29
                            x       y       z     vdW  Elec       q    Type
                         _______ _______ _______ _____ _____    ______ ____

>  <TORSDO>
F 6

$$$$
=
 OpenBabel11052414283D

 32 35  0  0  1  0  0  0  0  0999 V2000
  184.9880  179.1820  142.9330 C   0  0  1  0  0  3  0  0  0  0  0  0
  187.1010  178.0390  143.8360 C   0  0  0  0  0  0  0  0  0  0  0  0
  183.8490  180.0750  143.4530 C   0  0  0  0  0  2  0  0  0  0  0  0
  185.6150  178.2840  144.0260 C   0  0  1  0  0  3  0  0  0  0  0  0
  187.8720  177.6150  144.9380 C   0  0  0  0  0  0  0  0  0  0  0  0
  189.0440  177.7880  142.3910 C   0  0  0  0  0  0  0  0  0  0  0  0
  189.8260  177.3870  143.4970 C   0  0  0  0  0  0  0  0  0  0  0  0
  185.3440  178.8430  145.4350 C   0  0  2  0  0  3  0  0  0  0  0  0
  189.2230  177.2950  144.7560 C   0  0  0  0  0  3  0  0  0  0  0  0
  186.0370  178.0410  146.4980 C   0  0  0  0  0  3  0  0  0  0  0  0
  183.8450  178.9500  145.7300 C   0  0  0  0  0  2  0  0  0  0  0  0
  187.6950  178.1020  142.5700 C   0  0  0  0  0  3  0  0  0  0  0  0
  187.2420  177.5050  146.2790 C   0  0  0  0  0  0  0  0  0  0  0  0
  183.0120  179.3450  144.5030 C   0  0  0  0  0  2  0  0  0  0  0  0
  189.5740  177.8580  141.1080 O   0  0  0  0  0  1  0  0  0  0  0  0
  188.3610  177.7700  148.4640 C   0  0  0  0  0  1  0  0  0  0  0  0
  187.9220  176.7860  147.3970 C   0  0  0  0  0  2  0  0  0  0  0  0
  184.1060  177.2160  141.9520 O   0  0  0  0  0  0  0  0  0  0  0  0
  184.5140  178.3550  141.7730 C   0  0  0  0  0  0  0  0  0  0  0  0
  184.2910  177.2320  137.5630 S   0  0  0  0  0  0  0  0  0  0  0  0
  183.1140  177.4070  138.9620 C   0  0  0  0  0  2  0  0  0  0  0  0
  185.5550  178.4430  138.1180 C   0  0  1  0  0  3  0  0  0  0  0  0
  184.5450  178.9420  140.3890 C   0  0  1  0  0  3  0  0  0  0  0  0
  185.7540  178.3850  139.6270 C   0  0  0  0  0  2  0  0  0  0  0  0
  183.2200  178.7770  139.6150 C   0  0  2  0  0  3  0  0  0  0  0  0
  181.9890  179.0780  140.4540 C   0  0  0  0  0  1  0  0  0  0  0  0
  187.5780  179.2770  136.9300 O   0  0  0  0  0  0  0  0  0  0  0  0
  187.2850  177.0290  137.2580 O   0  0  0  0  0  1  0  0  0  0  0  0
  186.8480  178.2000  137.4150 C   0  0  0  0  0  0  0  0  0  0  0  0
  191.1870  177.0570  143.4080 O   0  0  0  0  0  0  0  0  0  0  0  0
  191.7760  175.8810  143.9490 C   0  0  0  0  0  2  0  0  0  0  0  0
  191.9350  176.0210  145.4510 C   0  0  0  0  0  1  0  0  0  0  0  0
  1 19  1  6  0  0  0
  1  3  1  0  0  0  0
  1  4  1  0  0  0  0
  2  5  1  0  0  0  0
  3 14  1  0  0  0  0
  4  2  1  6  0  0  0
  4  8  1  0  0  0  0
  5 13  1  0  0  0  0
  6 12  1  0  0  0  0
  6  7  2  0  0  0  0
  7  9  1  0  0  0  0
  8 11  1  1  0  0  0
  8 10  1  0  0  0  0
  9  5  2  0  0  0  0
 12  2  2  0  0  0  0
 13 10  2  0  0  0  0
 13 17  1  0  0  0  0
 14 11  1  0  0  0  0
 15  6  1  0  0  0  0
 17 16  1  0  0  0  0
 19 18  2  0  0  0  0
 20 22  1  0  0  0  0
 20 21  1  0  0  0  0
 21 25  1  0  0  0  0
 22 29  1  6  0  0  0
 22 24  1  0  0  0  0
 23 19  1  1  0  0  0
 24 23  1  0  0  0  0
 25 23  1  0  0  0  0
 25 26  1  1  0  0  0
 27 29  2  0  0  0  0
 28 29  1  0  0  0  0
 30  7  1  0  0  0  0
 30 31  1  0  0  0  0
 31 32  1  0  0  0  0
M  END
>  <MODEL>
2

>  <REMARK>
 VINA RESULT:      -8.4      1.955      5.524
  Name = 
  6 active torsions:
  status: ('A' for Active; 'I' for Inactive)
    1  A    between atoms: C_1  and  C_27
    2  A    between atoms: C_9  and  O_11
    3  A    between atoms: O_11  and  C_12
    4  A    between atoms: C_15  and  C_26
    5  A    between atoms: C_16  and  C_27
    6  A    between atoms: C_25  and  C_29
                            x       y       z     vdW  Elec       q    Type
                         _______ _______ _______ _____ _____    ______ ____

>  <TORSDO>
F 6

$$$$
=
 OpenBabel11052414283D

 32 35  0  0  1  0  0  0  0  0999 V2000
  184.3780  179.2080  142.6980 C   0  0  1  0  0  3  0  0  0  0  0  0
  186.7050  178.2320  142.2270 C   0  0  0  0  0  0  0  0  0  0  0  0
  183.6250  179.8810  143.8560 C   0  0  0  0  0  2  0  0  0  0  0  0
  185.5140  178.2660  143.1660 C   0  0  1  0  0  3  0  0  0  0  0  0
  187.9480  177.7740  142.7130 C   0  0  0  0  0  0  0  0  0  0  0  0
  187.6520  178.4040  139.9910 C   0  0  0  0  0  0  0  0  0  0  0  0
  188.9050  177.9690  140.4780 C   0  0  0  0  0  0  0  0  0  0  0  0
  185.9720  178.6090  144.5960 C   0  0  2  0  0  3  0  0  0  0  0  0
  189.0300  177.6480  141.8340 C   0  0  0  0  0  3  0  0  0  0  0  0
  187.1440  177.7740  145.0220 C   0  0  0  0  0  3  0  0  0  0  0  0
  184.8290  178.4920  145.6070 C   0  0  0  0  0  2  0  0  0  0  0  0
  186.5700  178.5240  140.8650 C   0  0  0  0  0  3  0  0  0  0  0  0
  188.0930  177.4220  144.1490 C   0  0  0  0  0  0  0  0  0  0  0  0
  183.4700  178.9300  145.0420 C   0  0  0  0  0  2  0  0  0  0  0  0
  187.4530  178.6970  138.6470 O   0  0  0  0  0  1  0  0  0  0  0  0
  190.0660  177.4980  145.6300 C   0  0  0  0  0  1  0  0  0  0  0  0
  189.2780  176.6600  144.6430 C   0  0  0  0  0  2  0  0  0  0  0  0
  183.5570  177.2820  141.5920 O   0  0  0  0  0  0  0  0  0  0  0  0
  183.4180  178.4780  141.8040 C   0  0  0  0  0  0  0  0  0  0  0  0
  180.0560  177.9670  139.0700 S   0  0  0  0  0  0  0  0  0  0  0  0
  180.4410  177.5220  140.8100 C   0  0  0  0  0  2  0  0  0  0  0  0
  181.1350  179.4450  138.9220 C   0  0  1  0  0  3  0  0  0  0  0  0
  182.2800  179.2340  141.1740 C   0  0  1  0  0  3  0  0  0  0  0  0
  182.4570  179.2430  139.6510 C   0  0  0  0  0  2  0  0  0  0  0  0
  180.8860  178.7350  141.6130 C   0  0  2  0  0  3  0  0  0  0  0  0
  180.7830  178.4700  143.1060 C   0  0  0  0  0  1  0  0  0  0  0  0
  181.1600  181.0590  137.0260 O   0  0  0  0  0  1  0  0  0  0  0  0
  181.7810  178.8800  136.6880 O   0  0  0  0  0  0  0  0  0  0  0  0
  181.3780  179.7670  137.4860 C   0  0  0  0  0  0  0  0  0  0  0  0
  190.0440  177.8230  139.6720 O   0  0  0  0  0  0  0  0  0  0  0  0
  190.3900  176.6430  138.9580 C   0  0  0  0  0  2  0  0  0  0  0  0
  190.4200  176.9270  137.4670 C   0  0  0  0  0  1  0  0  0  0  0  0
  1 19  1  1  0  0  0
  1  4  1  0  0  0  0
  1  3  1  0  0  0  0
  2  5  1  0  0  0  0
  3 14  1  0  0  0  0
  4  2  1  6  0  0  0
  4  8  1  0  0  0  0
  5 13  1  0  0  0  0
  6  7  2  0  0  0  0
  6 12  1  0  0  0  0
  7  9  1  0  0  0  0
  8 10  1  1  0  0  0
  8 11  1  0  0  0  0
  9  5  2  0  0  0  0
 12  2  2  0  0  0  0
 13 17  1  0  0  0  0
 13 10  2  0  0  0  0
 14 11  1  0  0  0  0
 15  6  1  0  0  0  0
 17 16  1  0  0  0  0
 18 19  2  0  0  0  0
 20 21  1  0  0  0  0
 21 25  1  0  0  0  0
 22 29  1  6  0  0  0
 22 20  1  0  0  0  0
 22 24  1  0  0  0  0
 23 25  1  0  0  0  0
 23 19  1  1  0  0  0
 24 23  1  0  0  0  0
 25 26  1  1  0  0  0
 27 29  1  0  0  0  0
 28 29  2  0  0  0  0
 30  7  1  0  0  0  0
 31 30  1  0  0  0  0
 32 31  1  0  0  0  0
M  END
>  <MODEL>
3

>  <REMARK>
 VINA RESULT:      -8.2      2.745      6.506
  Name = 
  6 active torsions:
  status: ('A' for Active; 'I' for Inactive)
    1  A    between atoms: C_1  and  C_27
    2  A    between atoms: C_9  and  O_11
    3  A    between atoms: O_11  and  C_12
    4  A    between atoms: C_15  and  C_26
    5  A    between atoms: C_16  and  C_27
    6  A    between atoms: C_25  and  C_29
                            x       y       z     vdW  Elec       q    Type
                         _______ _______ _______ _____ _____    ______ ____

>  <TORSDO>
F 6

$$$$
=
 OpenBabel11052414283D

 32 35  0  0  1  0  0  0  0  0999 V2000
  183.5400  178.8640  140.7490 C   0  0  1  0  0  3  0  0  0  0  0  0
  185.6270  178.3070  142.1350 C   0  0  0  0  0  0  0  0  0  0  0  0
  182.1890  179.5730  140.9350 C   0  0  0  0  0  2  0  0  0  0  0  0
  184.1120  178.2740  142.0600 C   0  0  1  0  0  3  0  0  0  0  0  0
  186.2540  178.2070  143.3950 C   0  0  0  0  0  0  0  0  0  0  0  0
  187.8090  178.2510  141.0550 C   0  0  0  0  0  0  0  0  0  0  0  0
  188.4410  178.1760  142.3160 C   0  0  0  0  0  0  0  0  0  0  0  0
  183.5020  178.9590  143.2970 C   0  0  2  0  0  3  0  0  0  0  0  0
  187.6510  178.1430  143.4700 C   0  0  0  0  0  3  0  0  0  0  0  0
  184.1270  178.4710  144.5710 C   0  0  0  0  0  3  0  0  0  0  0  0
  181.9800  178.8030  143.3460 C   0  0  0  0  0  2  0  0  0  0  0  0
  186.4160  178.3090  140.9780 C   0  0  0  0  0  3  0  0  0  0  0  0
  185.4260  178.1640  144.6270 C   0  0  0  0  0  0  0  0  0  0  0  0
  181.3200  178.8460  141.9600 C   0  0  0  0  0  2  0  0  0  0  0  0
  188.5370  178.2450  139.8710 O   0  0  0  0  0  1  0  0  0  0  0  0
  185.8590  178.8810  146.9500 C   0  0  0  0  0  1  0  0  0  0  0  0
  186.0140  177.7600  145.9400 C   0  0  0  0  0  2  0  0  0  0  0  0
  183.0840  176.6680  139.9890 O   0  0  0  0  0  0  0  0  0  0  0  0
  183.4310  177.8030  139.6920 C   0  0  0  0  0  0  0  0  0  0  0  0
  183.9540  175.9980  135.7550 S   0  0  0  0  0  0  0  0  0  0  0  0
  182.5440  176.4220  136.8520 C   0  0  0  0  0  2  0  0  0  0  0  0
  185.1460  177.2650  136.3430 C   0  0  1  0  0  3  0  0  0  0  0  0
  183.7510  178.1510  138.2640 C   0  0  1  0  0  3  0  0  0  0  0  0
  185.0530  177.4560  137.8510 C   0  0  0  0  0  2  0  0  0  0  0  0
  182.5880  177.8790  137.2850 C   0  0  2  0  0  3  0  0  0  0  0  0
  181.2370  178.3360  137.8100 C   0  0  0  0  0  1  0  0  0  0  0  0
  187.4750  176.6120  136.9360 O   0  0  0  0  0  1  0  0  0  0  0  0
  186.8640  176.8150  134.7380 O   0  0  0  0  0  0  0  0  0  0  0  0
  186.5350  176.8880  135.9510 C   0  0  0  0  0  0  0  0  0  0  0  0
  189.8330  178.1170  142.4850 O   0  0  0  0  0  0  0  0  0  0  0  0
  190.4980  178.0440  143.7410 C   0  0  0  0  0  2  0  0  0  0  0  0
  191.3450  179.2840  143.9540 C   0  0  0  0  0  1  0  0  0  0  0  0
  1 19  1  6  0  0  0
  1  3  1  0  0  0  0
  1  4  1  0  0  0  0
  2  5  1  0  0  0  0
  3 14  1  0  0  0  0
  4  2  1  6  0  0  0
  4  8  1  0  0  0  0
  5  9  2  0  0  0  0
  5 13  1  0  0  0  0
  6  7  2  0  0  0  0
  7 30  1  0  0  0  0
  7  9  1  0  0  0  0
  8 11  1  1  0  0  0
  8 10  1  0  0  0  0
 10 13  2  0  0  0  0
 12  6  1  0  0  0  0
 12  2  2  0  0  0  0
 13 17  1  0  0  0  0
 14 11  1  0  0  0  0
 15  6  1  0  0  0  0
 17 16  1  0  0  0  0
 19 18  2  0  0  0  0
 20 22  1  0  0  0  0
 20 21  1  0  0  0  0
 21 25  1  0  0  0  0
 22 29  1  1  0  0  0
 22 24  1  0  0  0  0
 23 19  1  1  0  0  0
 24 23  1  0  0  0  0
 25 26  1  1  0  0  0
 25 23  1  0  0  0  0
 28 29  2  0  0  0  0
 29 27  1  0  0  0  0
 30 31  1  0  0  0  0
 31 32  1  0  0  0  0
M  END
>  <MODEL>
4

>  <REMARK>
 VINA RESULT:      -7.9      2.473      6.056
  Name = 
  6 active torsions:
  status: ('A' for Active; 'I' for Inactive)
    1  A    between atoms: C_1  and  C_27
    2  A    between atoms: C_9  and  O_11
    3  A    between atoms: O_11  and  C_12
    4  A    between atoms: C_15  and  C_26
    5  A    between atoms: C_16  and  C_27
    6  A    between atoms: C_25  and  C_29
                            x       y       z     vdW  Elec       q    Type
                         _______ _______ _______ _____ _____    ______ ____

>  <TORSDO>
F 6

$$$$
=
 OpenBabel11052414283D

 32 35  0  0  1  0  0  0  0  0999 V2000
  187.7180  178.6290  141.7990 C   0  0  1  0  0  3  0  0  0  0  0  0
  185.1720  178.4050  142.0360 C   0  0  0  0  0  0  0  0  0  0  0  0
  188.7460  179.0030  140.7190 C   0  0  0  0  0  2  0  0  0  0  0  0
  186.4030  178.0490  141.2240 C   0  0  1  0  0  3  0  0  0  0  0  0
  183.9020  178.3170  141.4290 C   0  0  0  0  0  0  0  0  0  0  0  0
  184.1100  178.9370  144.1620 C   0  0  0  0  0  0  0  0  0  0  0  0
  182.8370  178.8740  143.5520 C   0  0  0  0  0  0  0  0  0  0  0  0
  186.2070  178.4560  139.7520 C   0  0  2  0  0  3  0  0  0  0  0  0
  182.7520  178.5530  142.1930 C   0  0  0  0  0  3  0  0  0  0  0  0
  184.8860  177.9890  139.2140 C   0  0  0  0  0  3  0  0  0  0  0  0
  187.3550  177.9660  138.8650 C   0  0  0  0  0  2  0  0  0  0  0  0
  185.2570  178.6960  143.4020 C   0  0  0  0  0  3  0  0  0  0  0  0
  183.7960  177.9700  139.9890 C   0  0  0  0  0  0  0  0  0  0  0  0
  188.7210  178.0040  139.5630 C   0  0  0  0  0  2  0  0  0  0  0  0
  184.2580  179.2090  145.5160 O   0  0  0  0  0  1  0  0  0  0  0  0
  182.3130  176.0690  139.4540 C   0  0  0  0  0  1  0  0  0  0  0  0
  182.4900  177.5740  139.3820 C   0  0  0  0  0  2  0  0  0  0  0  0
  188.2620  176.4730  142.6150 O   0  0  0  0  0  0  0  0  0  0  0  0
  188.3260  177.6820  142.7930 C   0  0  0  0  0  0  0  0  0  0  0  0
  190.1870  176.4490  146.5410 S   0  0  0  0  0  0  0  0  0  0  0  0
  190.6320  176.4270  144.7600 C   0  0  0  0  0  2  0  0  0  0  0  0
  189.0480  177.8890  146.5190 C   0  0  1  0  0  3  0  0  0  0  0  0
  189.0180  178.2350  144.0080 C   0  0  1  0  0  3  0  0  0  0  0  0
  188.1940  177.9020  145.2580 C   0  0  0  0  0  2  0  0  0  0  0  0
  190.4950  177.8050  144.1310 C   0  0  2  0  0  3  0  0  0  0  0  0
  191.2580  177.8850  142.8190 C   0  0  0  0  0  1  0  0  0  0  0  0
  186.8000  177.8780  147.5900 O   0  0  0  0  0  0  0  0  0  0  0  0
  188.6890  177.8760  148.8860 O   0  0  0  0  0  1  0  0  0  0  0  0
  188.1810  177.8820  147.7330 C   0  0  0  0  0  0  0  0  0  0  0  0
  181.6350  179.1040  144.2370 O   0  0  0  0  0  0  0  0  0  0  0  0
  180.4090  178.4300  143.9800 C   0  0  0  0  0  2  0  0  0  0  0  0
  179.2620  179.4220  143.9640 C   0  0  0  0  0  1  0  0  0  0  0  0
  1 19  1  1  0  0  0
  2 12  1  0  0  0  0
  3  1  1  0  0  0  0
  4  1  1  0  0  0  0
  4  2  1  1  0  0  0
  5  2  2  0  0  0  0
  5  9  1  0  0  0  0
  6 15  1  0  0  0  0
  7  6  1  0  0  0  0
  7 30  1  0  0  0  0
  8 11  1  6  0  0  0
  8  4  1  0  0  0  0
  9  7  2  0  0  0  0
 10  8  1  0  0  0  0
 10 13  2  0  0  0  0
 11 14  1  0  0  0  0
 12  6  2  0  0  0  0
 13  5  1  0  0  0  0
 14  3  1  0  0  0  0
 17 16  1  0  0  0  0
 17 13  1  0  0  0  0
 18 19  2  0  0  0  0
 21 20  1  0  0  0  0
 22 20  1  0  0  0  0
 22 29  1  1  0  0  0
 23 19  1  6  0  0  0
 23 25  1  0  0  0  0
 23 24  1  0  0  0  0
 24 22  1  0  0  0  0
 25 26  1  6  0  0  0
 25 21  1  0  0  0  0
 27 29  2  0  0  0  0
 29 28  1  0  0  0  0
 31 30  1  0  0  0  0
 32 31  1  0  0  0  0
M  END
>  <MODEL>
5

>  <REMARK>
 VINA RESULT:      -7.8      2.876      6.251
  Name = 
  6 active torsions:
  status: ('A' for Active; 'I' for Inactive)
    1  A    between atoms: C_1  and  C_27
    2  A    between atoms: C_9  and  O_11
    3  A    between atoms: O_11  and  C_12
    4  A    between atoms: C_15  and  C_26
    5  A    between atoms: C_16  and  C_27
    6  A    between atoms: C_25  and  C_29
                            x       y       z     vdW  Elec       q    Type
                         _______ _______ _______ _____ _____    ______ ____

>  <TORSDO>
F 6

$$$$
=
 OpenBabel11052414283D

 32 35  0  0  1  0  0  0  0  0999 V2000
  181.9780  178.8610  141.2830 C   0  0  1  0  0  3  0  0  0  0  0  0
  184.4200  178.5180  141.9950 C   0  0  0  0  0  0  0  0  0  0  0  0
  180.6850  179.4630  141.8570 C   0  0  0  0  0  2  0  0  0  0  0  0
  182.9580  178.3580  142.3690 C   0  0  1  0  0  3  0  0  0  0  0  0
  185.3940  178.5060  143.0150 C   0  0  0  0  0  0  0  0  0  0  0  0
  186.1850  178.6100  140.3200 C   0  0  0  0  0  0  0  0  0  0  0  0
  187.1630  178.6220  141.3400 C   0  0  0  0  0  0  0  0  0  0  0  0
  182.6810  179.0270  143.7290 C   0  0  2  0  0  3  0  0  0  0  0  0
  186.7520  178.5580  142.6750 C   0  0  0  0  0  3  0  0  0  0  0  0
  183.6910  178.6280  144.7650 C   0  0  0  0  0  3  0  0  0  0  0  0
  181.2590  178.7480  144.2250 C   0  0  0  0  0  2  0  0  0  0  0  0
  184.8310  178.5510  140.6570 C   0  0  0  0  0  3  0  0  0  0  0  0
  184.9720  178.4300  144.4360 C   0  0  0  0  0  0  0  0  0  0  0  0
  180.2210  178.6970  143.0950 C   0  0  0  0  0  2  0  0  0  0  0  0
  186.5320  178.6290  138.9750 O   0  0  0  0  0  1  0  0  0  0  0  0
  185.6800  178.9750  146.7380 C   0  0  0  0  0  1  0  0  0  0  0  0
  185.9510  178.1140  145.5190 C   0  0  0  0  0  2  0  0  0  0  0  0
  180.6700  177.0600  140.4750 O   0  0  0  0  0  0  0  0  0  0  0  0
  181.6560  177.7650  140.3090 C   0  0  0  0  0  0  0  0  0  0  0  0
  181.6990  176.0460  136.2990 S   0  0  0  0  0  0  0  0  0  0  0  0
  181.0400  177.5650  137.0930 C   0  0  0  0  0  2  0  0  0  0  0  0
  183.1000  175.7280  137.4430 C   0  0  1  0  0  3  0  0  0  0  0  0
  182.5590  177.5440  139.1260 C   0  0  1  0  0  3  0  0  0  0  0  0
  182.7210  176.0380  138.8850 C   0  0  0  0  0  2  0  0  0  0  0  0
  182.1210  178.3110  137.8610 C   0  0  2  0  0  3  0  0  0  0  0  0
  181.7040  179.7460  138.1380 C   0  0  0  0  0  1  0  0  0  0  0  0
  182.8760  173.4430  136.4770 O   0  0  0  0  0  0  0  0  0  0  0  0
  184.5540  173.9000  137.9680 O   0  0  0  0  0  1  0  0  0  0  0  0
  183.5570  174.3130  137.3190 C   0  0  0  0  0  0  0  0  0  0  0  0
  188.5430  178.6830  141.0920 O   0  0  0  0  0  0  0  0  0  0  0  0
  189.3940  177.5520  140.9430 C   0  0  0  0  0  2  0  0  0  0  0  0
  189.8640  177.4400  139.5050 C   0  0  0  0  0  1  0  0  0  0  0  0
  1 19  1  6  0  0  0
  1  3  1  0  0  0  0
  1  4  1  0  0  0  0
  2  5  1  0  0  0  0
  3 14  1  0  0  0  0
  4  2  1  6  0  0  0
  4  8  1  0  0  0  0
  5 13  1  0  0  0  0
  6 12  1  0  0  0  0
  6  7  2  0  0  0  0
  7  9  1  0  0  0  0
  8 11  1  1  0  0  0
  8 10  1  0  0  0  0
  9  5  2  0  0  0  0
 12  2  2  0  0  0  0
 13 10  2  0  0  0  0
 13 17  1  0  0  0  0
 14 11  1  0  0  0  0
 15  6  1  0  0  0  0
 17 16  1  0  0  0  0
 19 18  2  0  0  0  0
 20 21  1  0  0  0  0
 20 22  1  0  0  0  0
 21 25  1  0  0  0  0
 22 29  1  1  0  0  0
 22 24  1  0  0  0  0
 23 19  1  1  0  0  0
 24 23  1  0  0  0  0
 25 26  1  1  0  0  0
 25 23  1  0  0  0  0
 27 29  2  0  0  0  0
 29 28  1  0  0  0  0
 30  7  1  0  0  0  0
 31 30  1  0  0  0  0
 32 31  1  0  0  0  0
M  END
>  <MODEL>
6

>  <REMARK>
 VINA RESULT:      -7.8      3.035      6.713
  Name = 
  6 active torsions:
  status: ('A' for Active; 'I' for Inactive)
    1  A    between atoms: C_1  and  C_27
    2  A    between atoms: C_9  and  O_11
    3  A    between atoms: O_11  and  C_12
    4  A    between atoms: C_15  and  C_26
    5  A    between atoms: C_16  and  C_27
    6  A    between atoms: C_25  and  C_29
                            x       y       z     vdW  Elec       q    Type
                         _______ _______ _______ _____ _____    ______ ____

>  <TORSDO>
F 6

$$$$
=
 OpenBabel11052414283D

 32 35  0  0  1  0  0  0  0  0999 V2000
  184.4860  179.1520  142.7060 C   0  0  1  0  0  3  0  0  0  0  0  0
  186.8470  178.1920  142.3960 C   0  0  0  0  0  0  0  0  0  0  0  0
  183.6700  179.8750  143.7900 C   0  0  0  0  0  2  0  0  0  0  0  0
  185.6130  178.2570  143.2770 C   0  0  1  0  0  3  0  0  0  0  0  0
  188.0720  177.7830  142.9620 C   0  0  0  0  0  0  0  0  0  0  0  0
  187.8930  178.2580  140.1990 C   0  0  0  0  0  0  0  0  0  0  0  0
  189.1280  177.8720  140.7660 C   0  0  0  0  0  0  0  0  0  0  0  0
  186.0000  178.6850  144.7050 C   0  0  2  0  0  3  0  0  0  0  0  0
  189.1960  177.6280  142.1410 C   0  0  0  0  0  3  0  0  0  0  0  0
  187.1630  177.8950  145.2290 C   0  0  0  0  0  3  0  0  0  0  0  0
  184.8120  178.6040  145.6680 C   0  0  0  0  0  2  0  0  0  0  0  0
  186.7700  178.4060  141.0150 C   0  0  0  0  0  3  0  0  0  0  0  0
  188.1560  177.5130  144.4200 C   0  0  0  0  0  0  0  0  0  0  0  0
  183.4750  178.9870  145.0180 C   0  0  0  0  0  2  0  0  0  0  0  0
  187.7520  178.4730  138.8330 O   0  0  0  0  0  1  0  0  0  0  0  0
  189.4480  177.1180  146.4870 C   0  0  0  0  0  1  0  0  0  0  0  0
  189.3280  176.7990  145.0090 C   0  0  0  0  0  2  0  0  0  0  0  0
  183.1500  177.2710  142.1740 O   0  0  0  0  0  0  0  0  0  0  0  0
  183.5790  178.3580  141.8120 C   0  0  0  0  0  0  0  0  0  0  0  0
  181.4340  177.3310  138.1540 S   0  0  0  0  0  0  0  0  0  0  0  0
  180.9920  177.8170  139.8690 C   0  0  0  0  0  2  0  0  0  0  0  0
  183.0700  178.1580  138.0500 C   0  0  1  0  0  3  0  0  0  0  0  0
  183.2010  178.9140  140.4660 C   0  0  1  0  0  3  0  0  0  0  0  0
  183.8300  178.0510  139.3650 C   0  0  0  0  0  2  0  0  0  0  0  0
  181.6810  179.1090  140.2810 C   0  0  2  0  0  3  0  0  0  0  0  0
  181.0010  179.7310  141.4880 C   0  0  0  0  0  1  0  0  0  0  0  0
  185.1750  177.1570  137.1760 O   0  0  0  0  0  1  0  0  0  0  0  0
  183.3830  177.4590  135.7820 O   0  0  0  0  0  0  0  0  0  0  0  0
  183.8730  177.5770  136.9360 C   0  0  0  0  0  0  0  0  0  0  0  0
  190.3060  177.7020  140.0220 O   0  0  0  0  0  0  0  0  0  0  0  0
  190.6290  176.5440  139.2620 C   0  0  0  0  0  2  0  0  0  0  0  0
  192.0150  176.6840  138.6630 C   0  0  0  0  0  1  0  0  0  0  0  0
  1 19  1  1  0  0  0
  1  4  1  0  0  0  0
  1  3  1  0  0  0  0
  2  5  1  0  0  0  0
  3 14  1  0  0  0  0
  4  2  1  6  0  0  0
  4  8  1  0  0  0  0
  5 13  1  0  0  0  0
  6  7  2  0  0  0  0
  6 12  1  0  0  0  0
  7  9  1  0  0  0  0
  8 10  1  1  0  0  0
  8 11  1  0  0  0  0
  9  5  2  0  0  0  0
 12  2  2  0  0  0  0
 13 17  1  0  0  0  0
 13 10  2  0  0  0  0
 14 11  1  0  0  0  0
 15  6  1  0  0  0  0
 17 16  1  0  0  0  0
 19 18  2  0  0  0  0
 20 21  1  0  0  0  0
 21 25  1  0  0  0  0
 22 29  1  6  0  0  0
 22 20  1  0  0  0  0
 22 24  1  0  0  0  0
 23 19  1  1  0  0  0
 24 23  1  0  0  0  0
 25 23  1  0  0  0  0
 25 26  1  1  0  0  0
 28 29  2  0  0  0  0
 29 27  1  0  0  0  0
 30  7  1  0  0  0  0
 31 30  1  0  0  0  0
 32 31  1  0  0  0  0
M  END
>  <MODEL>
7

>  <REMARK>
 VINA RESULT:      -7.8      2.254      6.128
  Name = 
  6 active torsions:
  status: ('A' for Active; 'I' for Inactive)
    1  A    between atoms: C_1  and  C_27
    2  A    between atoms: C_9  and  O_11
    3  A    between atoms: O_11  and  C_12
    4  A    between atoms: C_15  and  C_26
    5  A    between atoms: C_16  and  C_27
    6  A    between atoms: C_25  and  C_29
                            x       y       z     vdW  Elec       q    Type
                         _______ _______ _______ _____ _____    ______ ____

>  <TORSDO>
F 6

$$$$
=
 OpenBabel11052414283D

 32 35  0  0  1  0  0  0  0  0999 V2000
  189.7630  178.1780  142.4250 C   0  0  1  0  0  3  0  0  0  0  0  0
  187.7430  178.1250  140.8420 C   0  0  0  0  0  0  0  0  0  0  0  0
  191.2940  178.2900  142.3360 C   0  0  0  0  0  2  0  0  0  0  0  0
  189.1160  177.5630  141.1620 C   0  0  1  0  0  3  0  0  0  0  0  0
  187.2320  177.9840  139.5350 C   0  0  0  0  0  0  0  0  0  0  0  0
  185.6300  179.1030  141.5550 C   0  0  0  0  0  0  0  0  0  0  0  0
  185.1230  178.9860  140.2420 C   0  0  0  0  0  0  0  0  0  0  0  0
  190.0420  177.6900  139.9380 C   0  0  2  0  0  3  0  0  0  0  0  0
  185.9300  178.4160  139.2520 C   0  0  0  0  0  3  0  0  0  0  0  0
  189.3830  177.1940  138.6840 C   0  0  0  0  0  3  0  0  0  0  0  0
  191.3830  176.9870  140.1590 C   0  0  0  0  0  2  0  0  0  0  0  0
  186.9260  178.6670  141.8410 C   0  0  0  0  0  3  0  0  0  0  0  0
  188.0750  177.3740  138.4760 C   0  0  0  0  0  0  0  0  0  0  0  0
  191.8930  177.0920  141.6030 C   0  0  0  0  0  2  0  0  0  0  0  0
  184.8630  179.6210  142.5910 O   0  0  0  0  0  1  0  0  0  0  0  0
  187.3990  175.4190  137.1280 C   0  0  0  0  0  1  0  0  0  0  0  0
  187.4860  176.9320  137.1770 C   0  0  0  0  0  2  0  0  0  0  0  0
  189.1770  176.2040  143.5930 O   0  0  0  0  0  0  0  0  0  0  0  0
  189.3670  177.4100  143.6530 C   0  0  0  0  0  0  0  0  0  0  0  0
  187.9780  176.8510  147.7510 S   0  0  0  0  0  0  0  0  0  0  0  0
  189.4520  176.3760  146.7650 C   0  0  0  0  0  2  0  0  0  0  0  0
  187.5120  178.3700  146.8290 C   0  0  1  0  0  3  0  0  0  0  0  0
  189.2060  178.1410  144.9580 C   0  0  1  0  0  3  0  0  0  0  0  0
  187.7200  178.1950  145.3310 C   0  0  0  0  0  2  0  0  0  0  0  0
  190.0910  177.5830  146.0930 C   0  0  2  0  0  3  0  0  0  0  0  0
  191.5130  177.2770  145.6560 C   0  0  0  0  0  1  0  0  0  0  0  0
  185.0710  177.8980  146.6990 O   0  0  0  0  0  0  0  0  0  0  0  0
  185.8190  179.7950  147.7420 O   0  0  0  0  0  1  0  0  0  0  0  0
  186.0950  178.7360  147.1190 C   0  0  0  0  0  0  0  0  0  0  0  0
  183.8350  179.3990  139.8660 O   0  0  0  0  0  0  0  0  0  0  0  0
  182.7130  178.5370  139.7220 C   0  0  0  0  0  2  0  0  0  0  0  0
  181.9070  178.5120  141.0060 C   0  0  0  0  0  1  0  0  0  0  0  0
  1 19  1  1  0  0  0
  2 12  1  0  0  0  0
  3  1  1  0  0  0  0
  4  2  1  6  0  0  0
  4  1  1  0  0  0  0
  5  2  2  0  0  0  0
  6 12  2  0  0  0  0
  6 15  1  0  0  0  0
  7  6  1  0  0  0  0
  8 10  1  6  0  0  0
  8 11  1  0  0  0  0
  8  4  1  0  0  0  0
  9  5  1  0  0  0  0
  9  7  2  0  0  0  0
 11 14  1  0  0  0  0
 13 10  2  0  0  0  0
 13  5  1  0  0  0  0
 14  3  1  0  0  0  0
 16 17  1  0  0  0  0
 17 13  1  0  0  0  0
 18 19  2  0  0  0  0
 21 20  1  0  0  0  0
 22 29  1  6  0  0  0
 22 20  1  0  0  0  0
 23 19  1  6  0  0  0
 23 24  1  0  0  0  0
 23 25  1  0  0  0  0
 24 22  1  0  0  0  0
 25 26  1  6  0  0  0
 25 21  1  0  0  0  0
 27 29  2  0  0  0  0
 29 28  1  0  0  0  0
 30  7  1  0  0  0  0
 31 30  1  0  0  0  0
 31 32  1  0  0  0  0
M  END
>  <MODEL>
8

>  <REMARK>
 VINA RESULT:      -7.7      2.686      6.451
  Name = 
  6 active torsions:
  status: ('A' for Active; 'I' for Inactive)
    1  A    between atoms: C_1  and  C_27
    2  A    between atoms: C_9  and  O_11
    3  A    between atoms: O_11  and  C_12
    4  A    between atoms: C_15  and  C_26
    5  A    between atoms: C_16  and  C_27
    6  A    between atoms: C_25  and  C_29
                            x       y       z     vdW  Elec       q    Type
                         _______ _______ _______ _____ _____    ______ ____

>  <TORSDO>
F 6

$$$$
=
 OpenBabel11052414283D

 32 35  0  0  1  0  0  0  0  0999 V2000
  188.5040  177.3940  141.1880 C   0  0  1  0  0  3  0  0  0  0  0  0
  186.4080  178.1020  142.4900 C   0  0  0  0  0  0  0  0  0  0  0  0
  189.7200  176.4740  141.3770 C   0  0  0  0  0  2  0  0  0  0  0  0
  187.9140  177.9160  142.5200 C   0  0  1  0  0  3  0  0  0  0  0  0
  185.7000  178.1570  143.7090 C   0  0  0  0  0  0  0  0  0  0  0  0
  184.3540  178.6030  141.2830 C   0  0  0  0  0  0  0  0  0  0  0  0
  183.6360  178.6340  142.5000 C   0  0  0  0  0  0  0  0  0  0  0  0
  188.3150  177.0160  143.7030 C   0  0  2  0  0  3  0  0  0  0  0  0
  184.3250  178.4220  143.6980 C   0  0  0  0  0  3  0  0  0  0  0  0
  187.6630  177.4490  144.9830 C   0  0  0  0  0  3  0  0  0  0  0  0
  189.8350  176.9350  143.8710 C   0  0  0  0  0  2  0  0  0  0  0  0
  185.7260  178.3450  141.2920 C   0  0  0  0  0  3  0  0  0  0  0  0
  186.4200  177.9410  144.9900 C   0  0  0  0  0  0  0  0  0  0  0  0
  190.5950  176.9450  142.5370 C   0  0  0  0  0  2  0  0  0  0  0  0
  183.7350  178.8480  140.0630 O   0  0  0  0  0  1  0  0  0  0  0  0
  186.8260  178.2500  147.4050 C   0  0  0  0  0  1  0  0  0  0  0  0
  185.7890  178.2810  146.2990 C   0  0  0  0  0  2  0  0  0  0  0  0
  188.6670  179.6910  140.6360 O   0  0  0  0  0  0  0  0  0  0  0  0
  188.8490  178.5360  140.2770 C   0  0  0  0  0  0  0  0  0  0  0  0
  189.7760  175.2340  137.5790 S   0  0  0  0  0  0  0  0  0  0  0  0
  188.2680  176.1270  138.1270 C   0  0  0  0  0  2  0  0  0  0  0  0
  190.9940  176.5870  137.8170 C   0  0  1  0  0  3  0  0  0  0  0  0
  189.4230  178.2440  138.9170 C   0  0  1  0  0  3  0  0  0  0  0  0
  190.6900  177.3940  139.0720 C   0  0  0  0  0  2  0  0  0  0  0  0
  188.4050  177.6300  137.9330 C   0  0  2  0  0  3  0  0  0  0  0  0
  187.0470  178.3120  137.9660 C   0  0  0  0  0  1  0  0  0  0  0  0
  192.5810  174.6730  137.6810 O   0  0  0  0  0  0  0  0  0  0  0  0
  193.3620  176.7840  138.1040 O   0  0  0  0  0  1  0  0  0  0  0  0
  192.3780  176.0320  137.8780 C   0  0  0  0  0  0  0  0  0  0  0  0
  182.2570  178.8830  142.5820 O   0  0  0  0  0  0  0  0  0  0  0  0
  181.5190  178.9770  143.7940 C   0  0  0  0  0  2  0  0  0  0  0  0
  180.1520  178.3420  143.6220 C   0  0  0  0  0  1  0  0  0  0  0  0
  1 19  1  6  0  0  0
  1  3  1  0  0  0  0
  1  4  1  0  0  0  0
  2  5  1  0  0  0  0
  3 14  1  0  0  0  0
  4  2  1  6  0  0  0
  4  8  1  0  0  0  0
  5 13  1  0  0  0  0
  6 12  1  0  0  0  0
  6  7  2  0  0  0  0
  7 30  1  0  0  0  0
  7  9  1  0  0  0  0
  8 11  1  1  0  0  0
  8 10  1  0  0  0  0
  9  5  2  0  0  0  0
 10 13  2  0  0  0  0
 12  2  2  0  0  0  0
 13 17  1  0  0  0  0
 14 11  1  0  0  0  0
 15  6  1  0  0  0  0
 17 16  1  0  0  0  0
 19 18  2  0  0  0  0
 20 22  1  0  0  0  0
 20 21  1  0  0  0  0
 22 29  1  1  0  0  0
 22 24  1  0  0  0  0
 23 24  1  0  0  0  0
 23 19  1  1  0  0  0
 25 26  1  1  0  0  0
 25 21  1  0  0  0  0
 25 23  1  0  0  0  0
 27 29  2  0  0  0  0
 29 28  1  0  0  0  0
 30 31  1  0  0  0  0
 32 31  1  0  0  0  0
M  END
>  <MODEL>
9

>  <REMARK>
 VINA RESULT:      -7.7      2.053      3.218
  Name = 
  6 active torsions:
  status: ('A' for Active; 'I' for Inactive)
    1  A    between atoms: C_1  and  C_27
    2  A    between atoms: C_9  and  O_11
    3  A    between atoms: O_11  and  C_12
    4  A    between atoms: C_15  and  C_26
    5  A    between atoms: C_16  and  C_27
    6  A    between atoms: C_25  and  C_29
                            x       y       z     vdW  Elec       q    Type
                         _______ _______ _______ _____ _____    ______ ____

>  <TORSDO>
F 6

$$$$
