=
 OpenBabel11052412363D

 30 32  0  0  1  0  0  0  0  0999 V2000
  188.7210  177.1700  136.8880 C   0  0  1  0  0  3  0  0  0  0  0  0
  189.5100  176.3660  135.8930 C   0  0  0  0  0  0  0  0  0  0  0  0
  193.5560  174.2190  136.0730 O   0  0  0  0  0  0  0  0  0  0  0  0
  189.4150  174.8670  135.8830 C   0  0  1  0  0  3  0  0  0  0  0  0
  191.5010  176.4450  138.9620 C   0  0  0  0  0  2  0  0  0  0  0  0
  190.2540  176.9230  135.1010 O   0  0  0  0  0  0  0  0  0  0  0  0
  189.9630  174.2540  137.1760 C   0  0  0  0  0  2  0  0  0  0  0  0
  191.9640  175.7620  137.7050 C   0  0  0  0  0  0  0  0  0  0  0  0
  193.5340  175.6050  135.8270 C   0  0  0  0  0  2  0  0  0  0  0  0
  189.6350  177.7800  137.9370 C   0  0  0  0  0  2  0  0  0  0  0  0
  190.0030  176.7190  138.9630 C   0  0  2  0  0  3  0  0  0  0  0  0
  192.9740  176.3200  137.0250 C   0  0  0  0  0  3  0  0  0  0  0  0
  192.2110  173.8070  136.0940 C   0  0  0  0  0  2  0  0  0  0  0  0
  191.4860  174.3620  137.3350 C   0  0  2  0  0  3  0  0  0  0  0  0
  187.9060  178.2530  136.2040 C   0  0  0  0  0  2  0  0  0  0  0  0
  187.1130  178.9330  137.1610 O   0  0  0  0  0  0  0  0  0  0  0  0
  186.0950  178.2630  137.8260 C   0  0  0  0  0  3  0  0  0  0  0  0
  185.4200  178.8600  138.7040 O   0  0  0  0  0  0  0  0  0  0  0  0
  188.0610  174.4620  135.7130 O   0  0  0  0  0  0  0  0  0  0  0  0
  186.5840  174.4320  137.4670 O   0  0  0  0  0  0  0  0  0  0  0  0
  187.4740  172.3750  136.8660 N   0  0  0  0  0  1  0  0  0  0  0  0
  187.3480  173.7850  136.7040 C   0  0  0  0  0  0  0  0  0  0  0  0
  189.5540  177.1580  140.3430 C   0  0  0  0  0  2  0  0  0  0  0  0
  190.9890  177.2540  141.4570 S   0  0  0  0  0  0  0  0  0  0  0  0
  190.2610  176.1030  142.6610 C   0  0  0  0  0  2  0  0  0  0  0  0
  190.1790  176.7620  144.0230 C   0  0  1  0  0  3  0  0  0  0  0  0
  191.5160  176.7520  144.6350 N   0  0  0  0  0  0  0  0  0  0  0  0
  190.9760  177.9820  144.0360 C   0  0  0  0  0  2  0  0  0  0  0  0
  192.1310  175.8030  146.7760 C   0  0  0  0  0  1  0  0  0  0  0  0
  191.3180  176.8660  146.0680 C   0  0  0  0  0  2  0  0  0  0  0  0
  1 15  1  6  0  0  0
  1 10  1  0  0  0  0
  2  1  1  0  0  0  0
  3 13  1  0  0  0  0
  4 19  1  1  0  0  0
  4  2  1  0  0  0  0
  4  7  1  0  0  0  0
  5 11  1  0  0  0  0
  6  2  2  0  0  0  0
  7 14  1  0  0  0  0
  8  5  1  0  0  0  0
  9  3  1  0  0  0  0
  9 12  1  0  0  0  0
 10 11  1  0  0  0  0
 11 23  1  1  0  0  0
 12  8  2  0  0  0  0
 14 13  1  6  0  0  0
 14  8  1  0  0  0  0
 15 16  1  0  0  0  0
 16 17  1  0  0  0  0
 17 18  2  0  0  0  0
 19 22  1  0  0  0  0
 22 21  1  0  0  0  0
 22 20  2  0  0  0  0
 23 24  1  0  0  0  0
 24 25  1  0  0  0  0
 26 25  1  6  0  0  0
 26 28  1  0  0  0  0
 26 27  1  0  0  0  0
 27 30  1  0  0  0  0
 28 27  1  0  0  0  0
 30 29  1  0  0  0  0
M  END
>  <MODEL>
1

>  <REMARK>
 VINA RESULT:      -5.8      0.000      0.000
  Name = 
  10 active torsions:
  status: ('A' for Active; 'I' for Inactive)
    1  A    between atoms: C_1  and  C_4
    2  A    between atoms: C_1  and  O_22
    3  A    between atoms: C_2  and  O_22
    4  A    between atoms: C_3  and  S_11
    5  A    between atoms: C_3  and  C_19
    6  A    between atoms: O_6  and  C_8
    7  A    between atoms: O_6  and  C_21
    8  A    between atoms: S_11  and  C_24
    9  A    between atoms: C_20  and  N_28
   10  A    between atoms: C_24  and  C_25
                            x       y       z     vdW  Elec       q    Type
                         _______ _______ _______ _____ _____    ______ ____

>  <TORSDO>
F 10

$$$$
=
 OpenBabel11052412363D

 30 32  0  0  1  0  0  0  0  0999 V2000
  184.8030  177.9630  138.5420 C   0  0  1  0  0  3  0  0  0  0  0  0
  184.1990  179.0260  139.4150 C   0  0  0  0  0  0  0  0  0  0  0  0
  180.0050  180.8520  139.7200 O   0  0  0  0  0  0  0  0  0  0  0  0
  183.4510  178.6500  140.6620 C   0  0  1  0  0  3  0  0  0  0  0  0
  181.5260  177.8810  137.1940 C   0  0  0  0  0  2  0  0  0  0  0  0
  184.2900  180.2040  139.1040 O   0  0  0  0  0  0  0  0  0  0  0  0
  182.1820  177.8520  140.3440 C   0  0  0  0  0  2  0  0  0  0  0  0
  181.3350  178.9770  138.2050 C   0  0  0  0  0  0  0  0  0  0  0  0
  180.8820  181.3290  138.7290 C   0  0  0  0  0  2  0  0  0  0  0  0
  184.0390  177.8390  137.2340 C   0  0  0  0  0  2  0  0  0  0  0  0
  182.7660  177.0400  137.4680 C   0  0  2  0  0  3  0  0  0  0  0  0
  181.1870  180.2280  137.7520 C   0  0  0  0  0  3  0  0  0  0  0  0
  180.7490  179.9370  140.4890 C   0  0  0  0  0  2  0  0  0  0  0  0
  181.0680  178.6690  139.6750 C   0  0  2  0  0  3  0  0  0  0  0  0
  186.2720  178.2350  138.2700 C   0  0  0  0  0  2  0  0  0  0  0  0
  186.9310  178.5570  139.4820 O   0  0  0  0  0  0  0  0  0  0  0  0
  188.2740  178.2500  139.6480 C   0  0  0  0  0  3  0  0  0  0  0  0
  188.7120  177.1300  139.2780 O   0  0  0  0  0  0  0  0  0  0  0  0
  184.2840  177.8790  141.5200 O   0  0  0  0  0  0  0  0  0  0  0  0
  184.5470  179.3950  143.2210 O   0  0  0  0  0  0  0  0  0  0  0  0
  186.3440  177.9750  142.8530 N   0  0  0  0  0  1  0  0  0  0  0  0
  185.0350  178.4480  142.5510 C   0  0  0  0  0  0  0  0  0  0  0  0
  182.7630  175.8050  136.5890 C   0  0  0  0  0  2  0  0  0  0  0  0
  181.0520  175.2620  136.2930 S   0  0  0  0  0  0  0  0  0  0  0  0
  181.1090  174.0200  137.6200 C   0  0  0  0  0  2  0  0  0  0  0  0
  179.8090  174.0350  138.3990 C   0  0  1  0  0  3  0  0  0  0  0  0
  180.0590  174.6160  139.7270 N   0  0  0  0  0  0  0  0  0  0  0  0
  179.4070  175.4090  138.6740 C   0  0  0  0  0  2  0  0  0  0  0  0
  179.6120  173.3750  141.7570 C   0  0  0  0  0  1  0  0  0  0  0  0
  179.0030  174.1330  140.5970 C   0  0  0  0  0  2  0  0  0  0  0  0
  1 15  1  6  0  0  0
  1  2  1  0  0  0  0
  2  4  1  0  0  0  0
  3 13  1  0  0  0  0
  4 19  1  1  0  0  0
  5 11  1  0  0  0  0
  5  8  1  0  0  0  0
  6  2  2  0  0  0  0
  7  4  1  0  0  0  0
  8 14  1  0  0  0  0
  9  3  1  0  0  0  0
 10 11  1  0  0  0  0
 10  1  1  0  0  0  0
 11 23  1  6  0  0  0
 12  8  2  0  0  0  0
 12  9  1  0  0  0  0
 14  7  1  1  0  0  0
 14 13  1  0  0  0  0
 15 16  1  0  0  0  0
 16 17  1  0  0  0  0
 18 17  2  0  0  0  0
 19 22  1  0  0  0  0
 22 21  1  0  0  0  0
 22 20  2  0  0  0  0
 24 23  1  0  0  0  0
 24 25  1  0  0  0  0
 26 25  1  6  0  0  0
 26 28  1  0  0  0  0
 26 27  1  0  0  0  0
 27 30  1  0  0  0  0
 28 27  1  0  0  0  0
 30 29  1  0  0  0  0
M  END
>  <MODEL>
2

>  <REMARK>
 VINA RESULT:      -5.7      5.494      9.935
  Name = 
  10 active torsions:
  status: ('A' for Active; 'I' for Inactive)
    1  A    between atoms: C_1  and  C_4
    2  A    between atoms: C_1  and  O_22
    3  A    between atoms: C_2  and  O_22
    4  A    between atoms: C_3  and  S_11
    5  A    between atoms: C_3  and  C_19
    6  A    between atoms: O_6  and  C_8
    7  A    between atoms: O_6  and  C_21
    8  A    between atoms: S_11  and  C_24
    9  A    between atoms: C_20  and  N_28
   10  A    between atoms: C_24  and  C_25
                            x       y       z     vdW  Elec       q    Type
                         _______ _______ _______ _____ _____    ______ ____

>  <TORSDO>
F 10

$$$$
=
 OpenBabel11052412363D

 30 32  0  0  1  0  0  0  0  0999 V2000
  184.7360  177.9660  138.5340 C   0  0  1  0  0  3  0  0  0  0  0  0
  184.1520  179.0250  139.4260 C   0  0  0  0  0  0  0  0  0  0  0  0
  179.9530  180.8110  139.8670 O   0  0  0  0  0  0  0  0  0  0  0  0
  183.4480  178.6420  140.6970 C   0  0  1  0  0  3  0  0  0  0  0  0
  181.4190  177.8530  137.2930 C   0  0  0  0  0  2  0  0  0  0  0  0
  184.2210  180.2030  139.1130 O   0  0  0  0  0  0  0  0  0  0  0  0
  182.1770  177.8320  140.4210 C   0  0  0  0  0  2  0  0  0  0  0  0
  181.2500  178.9470  138.3100 C   0  0  0  0  0  0  0  0  0  0  0  0
  180.7930  181.2960  138.8480 C   0  0  0  0  0  2  0  0  0  0  0  0
  183.9320  177.8350  137.2520 C   0  0  0  0  0  2  0  0  0  0  0  0
  182.6740  177.0240  137.5270 C   0  0  2  0  0  3  0  0  0  0  0  0
  181.0750  180.1970  137.8620 C   0  0  0  0  0  3  0  0  0  0  0  0
  180.7300  179.9040  140.6120 C   0  0  0  0  0  2  0  0  0  0  0  0
  181.0340  178.6380  139.7880 C   0  0  2  0  0  3  0  0  0  0  0  0
  186.1930  178.2520  138.2150 C   0  0  0  0  0  2  0  0  0  0  0  0
  186.9410  178.3270  139.4160 O   0  0  0  0  0  0  0  0  0  0  0  0
  188.3160  178.1400  139.3940 C   0  0  0  0  0  3  0  0  0  0  0  0
  189.0580  178.9960  138.8490 O   0  0  0  0  0  0  0  0  0  0  0  0
  184.3160  177.8790  141.5280 O   0  0  0  0  0  0  0  0  0  0  0  0
  184.7430  179.5060  143.0880 O   0  0  0  0  0  0  0  0  0  0  0  0
  186.3920  177.8940  142.8380 N   0  0  0  0  0  1  0  0  0  0  0  0
  185.1300  178.4620  142.5010 C   0  0  0  0  0  0  0  0  0  0  0  0
  182.6540  175.7880  136.6490 C   0  0  0  0  0  2  0  0  0  0  0  0
  183.3690  174.3790  137.5500 S   0  0  0  0  0  0  0  0  0  0  0  0
  184.0260  173.6140  136.0380 C   0  0  0  0  0  2  0  0  0  0  0  0
  185.5410  173.6590  136.0520 C   0  0  1  0  0  3  0  0  0  0  0  0
  185.9800  174.5170  137.1630 N   0  0  0  0  0  0  0  0  0  0  0  0
  186.0480  173.0520  137.2760 C   0  0  0  0  0  2  0  0  0  0  0  0
  187.2500  175.9600  135.6910 C   0  0  0  0  0  1  0  0  0  0  0  0
  187.3180  174.9700  136.8340 C   0  0  0  0  0  2  0  0  0  0  0  0
  1 15  1  6  0  0  0
  1  2  1  0  0  0  0
  2  4  1  0  0  0  0
  3 13  1  0  0  0  0
  4 19  1  1  0  0  0
  5 11  1  0  0  0  0
  5  8  1  0  0  0  0
  6  2  2  0  0  0  0
  7  4  1  0  0  0  0
  8 14  1  0  0  0  0
  9  3  1  0  0  0  0
 10 11  1  0  0  0  0
 10  1  1  0  0  0  0
 11 23  1  6  0  0  0
 12  8  2  0  0  0  0
 12  9  1  0  0  0  0
 14  7  1  1  0  0  0
 14 13  1  0  0  0  0
 15 16  1  0  0  0  0
 17 16  1  0  0  0  0
 18 17  2  0  0  0  0
 19 22  1  0  0  0  0
 22 21  1  0  0  0  0
 22 20  2  0  0  0  0
 23 24  1  0  0  0  0
 25 24  1  0  0  0  0
 26 25  1  1  0  0  0
 26 27  1  0  0  0  0
 26 28  1  0  0  0  0
 27 28  1  0  0  0  0
 29 30  1  0  0  0  0
 30 27  1  0  0  0  0
M  END
>  <MODEL>
3

>  <REMARK>
 VINA RESULT:      -5.7      4.625      9.277
  Name = 
  10 active torsions:
  status: ('A' for Active; 'I' for Inactive)
    1  A    between atoms: C_1  and  C_4
    2  A    between atoms: C_1  and  O_22
    3  A    between atoms: C_2  and  O_22
    4  A    between atoms: C_3  and  S_11
    5  A    between atoms: C_3  and  C_19
    6  A    between atoms: O_6  and  C_8
    7  A    between atoms: O_6  and  C_21
    8  A    between atoms: S_11  and  C_24
    9  A    between atoms: C_20  and  N_28
   10  A    between atoms: C_24  and  C_25
                            x       y       z     vdW  Elec       q    Type
                         _______ _______ _______ _____ _____    ______ ____

>  <TORSDO>
F 10

$$$$
=
 OpenBabel11052412363D

 30 32  0  0  1  0  0  0  0  0999 V2000
  184.7350  178.0130  138.5930 C   0  0  1  0  0  3  0  0  0  0  0  0
  184.1120  179.0960  139.4280 C   0  0  0  0  0  0  0  0  0  0  0  0
  179.9140  180.9300  139.5940 O   0  0  0  0  0  0  0  0  0  0  0  0
  183.3350  178.7480  140.6650 C   0  0  1  0  0  3  0  0  0  0  0  0
  181.4910  177.9020  137.1710 C   0  0  0  0  0  2  0  0  0  0  0  0
  184.2110  180.2670  139.0930 O   0  0  0  0  0  0  0  0  0  0  0  0
  182.0730  177.9440  140.3360 C   0  0  0  0  0  2  0  0  0  0  0  0
  181.2770  179.0200  138.1530 C   0  0  0  0  0  0  0  0  0  0  0  0
  180.8140  181.3840  138.6130 C   0  0  0  0  0  2  0  0  0  0  0  0
  184.0020  177.8590  137.2710 C   0  0  0  0  0  2  0  0  0  0  0  0
  182.7220  177.0660  137.4930 C   0  0  2  0  0  3  0  0  0  0  0  0
  181.1400  180.2610  137.6680 C   0  0  0  0  0  3  0  0  0  0  0  0
  180.6390  180.0330  140.4000 C   0  0  0  0  0  2  0  0  0  0  0  0
  180.9750  178.7460  139.6220 C   0  0  2  0  0  3  0  0  0  0  0  0
  186.2100  178.2780  138.3500 C   0  0  0  0  0  2  0  0  0  0  0  0
  186.8620  178.5270  139.5830 O   0  0  0  0  0  0  0  0  0  0  0  0
  188.2230  178.2880  139.7130 C   0  0  0  0  0  3  0  0  0  0  0  0
  189.0440  178.9540  139.0330 O   0  0  0  0  0  0  0  0  0  0  0  0
  184.1470  177.9970  141.5600 O   0  0  0  0  0  0  0  0  0  0  0  0
  185.9120  179.0420  142.5850 O   0  0  0  0  0  0  0  0  0  0  0  0
  184.0780  178.6050  143.9380 N   0  0  0  0  0  1  0  0  0  0  0  0
  184.7530  178.5630  142.6830 C   0  0  0  0  0  0  0  0  0  0  0  0
  182.7380  175.8120  136.6420 C   0  0  0  0  0  2  0  0  0  0  0  0
  183.9110  176.0150  135.2670 S   0  0  0  0  0  0  0  0  0  0  0  0
  184.8940  174.5660  135.7560 C   0  0  0  0  0  2  0  0  0  0  0  0
  184.0720  173.6610  136.6520 C   0  0  1  0  0  3  0  0  0  0  0  0
  184.4570  172.2650  136.3980 N   0  0  0  0  0  0  0  0  0  0  0  0
  184.9400  172.9690  137.5960 C   0  0  0  0  0  2  0  0  0  0  0  0
  183.4350  170.0830  136.1620 C   0  0  0  0  0  1  0  0  0  0  0  0
  183.3400  171.4420  136.8230 C   0  0  0  0  0  2  0  0  0  0  0  0
  1 15  1  6  0  0  0
  1  2  1  0  0  0  0
  2  4  1  0  0  0  0
  3 13  1  0  0  0  0
  4 19  1  1  0  0  0
  5 11  1  0  0  0  0
  5  8  1  0  0  0  0
  6  2  2  0  0  0  0
  7  4  1  0  0  0  0
  8 14  1  0  0  0  0
  9  3  1  0  0  0  0
 10 11  1  0  0  0  0
 10  1  1  0  0  0  0
 11 23  1  6  0  0  0
 12  8  2  0  0  0  0
 12  9  1  0  0  0  0
 14  7  1  1  0  0  0
 14 13  1  0  0  0  0
 15 16  1  0  0  0  0
 16 17  1  0  0  0  0
 18 17  2  0  0  0  0
 19 22  1  0  0  0  0
 20 22  2  0  0  0  0
 22 21  1  0  0  0  0
 24 25  1  0  0  0  0
 24 23  1  0  0  0  0
 26 25  1  6  0  0  0
 26 28  1  0  0  0  0
 27 26  1  0  0  0  0
 27 30  1  0  0  0  0
 27 28  1  0  0  0  0
 29 30  1  0  0  0  0
M  END
>  <MODEL>
4

>  <REMARK>
 VINA RESULT:      -5.6      5.150      9.700
  Name = 
  10 active torsions:
  status: ('A' for Active; 'I' for Inactive)
    1  A    between atoms: C_1  and  C_4
    2  A    between atoms: C_1  and  O_22
    3  A    between atoms: C_2  and  O_22
    4  A    between atoms: C_3  and  S_11
    5  A    between atoms: C_3  and  C_19
    6  A    between atoms: O_6  and  C_8
    7  A    between atoms: O_6  and  C_21
    8  A    between atoms: S_11  and  C_24
    9  A    between atoms: C_20  and  N_28
   10  A    between atoms: C_24  and  C_25
                            x       y       z     vdW  Elec       q    Type
                         _______ _______ _______ _____ _____    ______ ____

>  <TORSDO>
F 10

$$$$
=
 OpenBabel11052412363D

 30 32  0  0  1  0  0  0  0  0999 V2000
  180.7990  180.5220  139.1820 C   0  0  1  0  0  3  0  0  0  0  0  0
  179.6960  179.5030  139.1540 C   0  0  0  0  0  0  0  0  0  0  0  0
  179.6310  174.9370  138.7530 O   0  0  0  0  0  0  0  0  0  0  0  0
  179.3000  178.7780  140.4090 C   0  0  1  0  0  3  0  0  0  0  0  0
  182.8260  177.6410  138.7960 C   0  0  0  0  0  2  0  0  0  0  0  0
  179.1290  179.2360  138.1050 O   0  0  0  0  0  0  0  0  0  0  0  0
  180.4330  177.8910  140.9330 C   0  0  0  0  0  2  0  0  0  0  0  0
  181.4750  176.9800  138.7790 C   0  0  0  0  0  0  0  0  0  0  0  0
  179.7420  175.7180  137.5880 C   0  0  0  0  0  2  0  0  0  0  0  0
  182.0340  180.0030  138.4640 C   0  0  0  0  0  2  0  0  0  0  0  0
  182.7840  179.0460  139.3800 C   0  0  2  0  0  3  0  0  0  0  0  0
  181.0360  176.4820  137.6160 C   0  0  0  0  0  3  0  0  0  0  0  0
  179.4450  175.8440  139.8130 C   0  0  0  0  0  2  0  0  0  0  0  0
  180.7290  176.6570  140.0690 C   0  0  2  0  0  3  0  0  0  0  0  0
  180.3520  181.8410  138.5740 C   0  0  0  0  0  2  0  0  0  0  0  0
  181.4840  182.5810  138.1500 O   0  0  0  0  0  0  0  0  0  0  0  0
  181.3230  183.7060  137.3550 C   0  0  0  0  0  3  0  0  0  0  0  0
  182.1310  184.6650  137.4530 O   0  0  0  0  0  0  0  0  0  0  0  0
  178.9320  179.7110  141.4180 O   0  0  0  0  0  0  0  0  0  0  0  0
  180.4440  180.4630  142.9700 O   0  0  0  0  0  0  0  0  0  0  0  0
  178.9910  178.8110  143.7020 N   0  0  0  0  0  1  0  0  0  0  0  0
  179.4880  179.6920  142.6990 C   0  0  0  0  0  0  0  0  0  0  0  0
  184.1920  179.5550  139.6160 C   0  0  0  0  0  2  0  0  0  0  0  0
  184.9800  178.5940  140.9440 S   0  0  0  0  0  0  0  0  0  0  0  0
  183.7440  179.0950  142.1800 C   0  0  0  0  0  2  0  0  0  0  0  0
  184.0080  178.3870  143.4930 C   0  0  1  0  0  3  0  0  0  0  0  0
  184.4500  179.3780  144.4850 N   0  0  0  0  0  0  0  0  0  0  0  0
  183.0760  178.8550  144.5100 C   0  0  0  0  0  2  0  0  0  0  0  0
  186.4150  178.0170  144.8750 C   0  0  0  0  0  1  0  0  0  0  0  0
  185.1890  178.6490  145.4990 C   0  0  0  0  0  2  0  0  0  0  0  0
  1 15  1  6  0  0  0
  2  1  1  0  0  0  0
  2  4  1  0  0  0  0
  3 13  1  0  0  0  0
  4  7  1  0  0  0  0
  4 19  1  1  0  0  0
  5 11  1  0  0  0  0
  6  2  2  0  0  0  0
  8  5  1  0  0  0  0
  8 14  1  0  0  0  0
  9 12  1  0  0  0  0
  9  3  1  0  0  0  0
 10  1  1  0  0  0  0
 10 11  1  0  0  0  0
 11 23  1  6  0  0  0
 12  8  2  0  0  0  0
 14 13  1  6  0  0  0
 14  7  1  0  0  0  0
 16 15  1  0  0  0  0
 17 18  2  0  0  0  0
 17 16  1  0  0  0  0
 19 22  1  0  0  0  0
 22 20  2  0  0  0  0
 22 21  1  0  0  0  0
 23 24  1  0  0  0  0
 24 25  1  0  0  0  0
 26 25  1  6  0  0  0
 26 27  1  0  0  0  0
 26 28  1  0  0  0  0
 27 28  1  0  0  0  0
 27 30  1  0  0  0  0
 29 30  1  0  0  0  0
M  END
>  <MODEL>
5

>  <REMARK>
 VINA RESULT:      -5.5      7.768      9.793
  Name = 
  10 active torsions:
  status: ('A' for Active; 'I' for Inactive)
    1  A    between atoms: C_1  and  C_4
    2  A    between atoms: C_1  and  O_22
    3  A    between atoms: C_2  and  O_22
    4  A    between atoms: C_3  and  S_11
    5  A    between atoms: C_3  and  C_19
    6  A    between atoms: O_6  and  C_8
    7  A    between atoms: O_6  and  C_21
    8  A    between atoms: S_11  and  C_24
    9  A    between atoms: C_20  and  N_28
   10  A    between atoms: C_24  and  C_25
                            x       y       z     vdW  Elec       q    Type
                         _______ _______ _______ _____ _____    ______ ____

>  <TORSDO>
F 10

$$$$
=
 OpenBabel11052412363D

 30 32  0  0  1  0  0  0  0  0999 V2000
  188.7860  178.1060  140.5780 C   0  0  1  0  0  3  0  0  0  0  0  0
  190.1650  177.8000  141.0910 C   0  0  0  0  0  0  0  0  0  0  0  0
  191.8550  176.9120  145.2580 O   0  0  0  0  0  0  0  0  0  0  0  0
  190.6030  176.3770  141.2890 C   0  0  1  0  0  3  0  0  0  0  0  0
  187.9530  177.7640  144.0060 C   0  0  0  0  0  2  0  0  0  0  0  0
  190.9320  178.7080  141.3750 O   0  0  0  0  0  0  0  0  0  0  0  0
  189.7820  175.6770  142.3770 C   0  0  0  0  0  2  0  0  0  0  0  0
  189.4360  177.5370  144.1020 C   0  0  0  0  0  0  0  0  0  0  0  0
  191.6490  178.2510  144.8820 C   0  0  0  0  0  2  0  0  0  0  0  0
  187.9210  178.7040  141.6750 C   0  0  0  0  0  2  0  0  0  0  0  0
  187.4250  177.5930  142.5880 C   0  0  2  0  0  3  0  0  0  0  0  0
  190.1810  178.4950  144.6690 C   0  0  0  0  0  3  0  0  0  0  0  0
  191.5640  176.1390  144.1190 C   0  0  0  0  0  2  0  0  0  0  0  0
  190.0560  176.1760  143.8020 C   0  0  2  0  0  3  0  0  0  0  0  0
  188.8330  179.0350  139.3780 C   0  0  0  0  0  2  0  0  0  0  0  0
  187.7570  178.7440  138.5040 O   0  0  0  0  0  0  0  0  0  0  0  0
  187.9930  178.5370  137.1520 C   0  0  0  0  0  3  0  0  0  0  0  0
  189.0990  178.8670  136.6510 O   0  0  0  0  0  0  0  0  0  0  0  0
  190.4790  175.6520  140.0710 O   0  0  0  0  0  0  0  0  0  0  0  0
  190.3400  176.0630  137.8190 O   0  0  0  0  0  0  0  0  0  0  0  0
  192.3670  176.5930  138.8150 N   0  0  0  0  0  1  0  0  0  0  0  0
  191.0320  176.0990  138.8690 C   0  0  0  0  0  0  0  0  0  0  0  0
  185.9090  177.5690  142.5960 C   0  0  0  0  0  2  0  0  0  0  0  0
  185.2650  179.0640  141.7840 S   0  0  0  0  0  0  0  0  0  0  0  0
  184.6420  179.7650  143.3420 C   0  0  0  0  0  2  0  0  0  0  0  0
  184.5060  178.6730  144.3830 C   0  0  1  0  0  3  0  0  0  0  0  0
  184.5570  179.2830  145.7200 N   0  0  0  0  0  0  0  0  0  0  0  0
  183.2750  178.8550  145.1410 C   0  0  0  0  0  2  0  0  0  0  0  0
  186.3320  178.5690  147.2030 C   0  0  0  0  0  1  0  0  0  0  0  0
  184.9670  178.2380  146.6390 C   0  0  0  0  0  2  0  0  0  0  0  0
  1 15  1  6  0  0  0
  1  2  1  0  0  0  0
  1 10  1  0  0  0  0
  2  4  1  0  0  0  0
  2  6  2  0  0  0  0
  4 19  1  6  0  0  0
  4  7  1  0  0  0  0
  5  8  1  0  0  0  0
  8 12  2  0  0  0  0
  9  3  1  0  0  0  0
 10 11  1  0  0  0  0
 11 23  1  1  0  0  0
 11  5  1  0  0  0  0
 12  9  1  0  0  0  0
 13  3  1  0  0  0  0
 14  7  1  6  0  0  0
 14  8  1  0  0  0  0
 14 13  1  0  0  0  0
 16 15  1  0  0  0  0
 17 16  1  0  0  0  0
 18 17  2  0  0  0  0
 20 22  2  0  0  0  0
 21 22  1  0  0  0  0
 22 19  1  0  0  0  0
 24 23  1  0  0  0  0
 24 25  1  0  0  0  0
 26 25  1  6  0  0  0
 26 28  1  0  0  0  0
 26 27  1  0  0  0  0
 27 30  1  0  0  0  0
 28 27  1  0  0  0  0
 30 29  1  0  0  0  0
M  END
>  <MODEL>
6

>  <REMARK>
 VINA RESULT:      -5.4      4.213      6.160
  Name = 
  10 active torsions:
  status: ('A' for Active; 'I' for Inactive)
    1  A    between atoms: C_1  and  C_4
    2  A    between atoms: C_1  and  O_22
    3  A    between atoms: C_2  and  O_22
    4  A    between atoms: C_3  and  S_11
    5  A    between atoms: C_3  and  C_19
    6  A    between atoms: O_6  and  C_8
    7  A    between atoms: O_6  and  C_21
    8  A    between atoms: S_11  and  C_24
    9  A    between atoms: C_20  and  N_28
   10  A    between atoms: C_24  and  C_25
                            x       y       z     vdW  Elec       q    Type
                         _______ _______ _______ _____ _____    ______ ____

>  <TORSDO>
F 10

$$$$
=
 OpenBabel11052412363D

 30 32  0  0  1  0  0  0  0  0999 V2000
  187.5250  178.2100  141.8670 C   0  0  1  0  0  3  0  0  0  0  0  0
  188.1470  178.1280  143.2330 C   0  0  0  0  0  0  0  0  0  0  0  0
  186.4480  178.2580  147.4880 O   0  0  0  0  0  0  0  0  0  0  0  0
  188.2070  176.8160  143.9620 C   0  0  1  0  0  3  0  0  0  0  0  0
  184.5490  178.5210  143.7670 C   0  0  0  0  0  2  0  0  0  0  0  0
  188.5880  179.1320  143.7710 O   0  0  0  0  0  0  0  0  0  0  0  0
  186.8080  176.2930  144.3040 C   0  0  0  0  0  2  0  0  0  0  0  0
  185.5380  178.4370  144.8960 C   0  0  0  0  0  0  0  0  0  0  0  0
  186.6710  179.4700  146.8100 C   0  0  0  0  0  2  0  0  0  0  0  0
  186.2000  178.9520  141.9210 C   0  0  0  0  0  2  0  0  0  0  0  0
  185.1200  178.0190  142.4480 C   0  0  2  0  0  3  0  0  0  0  0  0
  185.7740  179.5470  145.6060 C   0  0  0  0  0  3  0  0  0  0  0  0
  186.9490  177.2450  146.6490 C   0  0  0  0  0  2  0  0  0  0  0  0
  186.0760  177.0970  145.3880 C   0  0  2  0  0  3  0  0  0  0  0  0
  188.4590  178.8720  140.8700 C   0  0  0  0  0  2  0  0  0  0  0  0
  188.0160  178.6080  139.5500 O   0  0  0  0  0  0  0  0  0  0  0  0
  188.9310  178.5170  138.5120 C   0  0  0  0  0  3  0  0  0  0  0  0
  189.0040  179.4370  137.6570 O   0  0  0  0  0  0  0  0  0  0  0  0
  188.8870  175.8460  143.1730 O   0  0  0  0  0  0  0  0  0  0  0  0
  190.5530  176.0220  141.6070 O   0  0  0  0  0  0  0  0  0  0  0  0
  191.2470  176.0380  143.8200 N   0  0  0  0  0  1  0  0  0  0  0  0
  190.2330  175.9710  142.8220 C   0  0  0  0  0  0  0  0  0  0  0  0
  184.0140  177.8780  141.4210 C   0  0  0  0  0  2  0  0  0  0  0  0
  184.3130  179.0150  140.0330 S   0  0  0  0  0  0  0  0  0  0  0  0
  182.5410  179.2070  139.6750 C   0  0  0  0  0  2  0  0  0  0  0  0
  181.7270  178.3260  140.6020 C   0  0  1  0  0  3  0  0  0  0  0  0
  180.5480  179.0770  141.0560 N   0  0  0  0  0  0  0  0  0  0  0  0
  180.4230  178.0490  140.0120 C   0  0  0  0  0  2  0  0  0  0  0  0
  180.9780  178.9630  143.4360 C   0  0  0  0  0  1  0  0  0  0  0  0
  180.1160  178.4620  142.2970 C   0  0  0  0  0  2  0  0  0  0  0  0
  1 15  1  6  0  0  0
  1 10  1  0  0  0  0
  1  2  1  0  0  0  0
  2  6  2  0  0  0  0
  2  4  1  0  0  0  0
  4 19  1  6  0  0  0
  4  7  1  0  0  0  0
  5  8  1  0  0  0  0
  8 14  1  0  0  0  0
  8 12  2  0  0  0  0
  9  3  1  0  0  0  0
 10 11  1  0  0  0  0
 11 23  1  6  0  0  0
 11  5  1  0  0  0  0
 12  9  1  0  0  0  0
 13  3  1  0  0  0  0
 14  7  1  6  0  0  0
 14 13  1  0  0  0  0
 16 15  1  0  0  0  0
 17 16  1  0  0  0  0
 18 17  2  0  0  0  0
 20 22  2  0  0  0  0
 22 19  1  0  0  0  0
 22 21  1  0  0  0  0
 24 23  1  0  0  0  0
 25 24  1  0  0  0  0
 26 25  1  6  0  0  0
 26 27  1  0  0  0  0
 27 30  1  0  0  0  0
 28 26  1  0  0  0  0
 28 27  1  0  0  0  0
 30 29  1  0  0  0  0
M  END
>  <MODEL>
7

>  <REMARK>
 VINA RESULT:      -5.4      5.171      8.920
  Name = 
  10 active torsions:
  status: ('A' for Active; 'I' for Inactive)
    1  A    between atoms: C_1  and  C_4
    2  A    between atoms: C_1  and  O_22
    3  A    between atoms: C_2  and  O_22
    4  A    between atoms: C_3  and  S_11
    5  A    between atoms: C_3  and  C_19
    6  A    between atoms: O_6  and  C_8
    7  A    between atoms: O_6  and  C_21
    8  A    between atoms: S_11  and  C_24
    9  A    between atoms: C_20  and  N_28
   10  A    between atoms: C_24  and  C_25
                            x       y       z     vdW  Elec       q    Type
                         _______ _______ _______ _____ _____    ______ ____

>  <TORSDO>
F 10

$$$$
=
 OpenBabel11052412363D

 30 32  0  0  1  0  0  0  0  0999 V2000
  181.6010  178.6290  140.0120 C   0  0  1  0  0  3  0  0  0  0  0  0
  181.0820  177.6290  139.0170 C   0  0  0  0  0  0  0  0  0  0  0  0
  183.0670  175.1380  135.7200 O   0  0  0  0  0  0  0  0  0  0  0  0
  181.1530  176.1580  139.3120 C   0  0  1  0  0  3  0  0  0  0  0  0
  184.6800  177.9110  138.4090 C   0  0  0  0  0  2  0  0  0  0  0  0
  180.6220  178.0030  137.9490 O   0  0  0  0  0  0  0  0  0  0  0  0
  182.6010  175.6680  139.4120 C   0  0  0  0  0  2  0  0  0  0  0  0
  183.7790  177.0290  137.5900 C   0  0  0  0  0  0  0  0  0  0  0  0
  182.7240  176.4750  135.4460 C   0  0  0  0  0  2  0  0  0  0  0  0
  182.8800  179.2780  139.5090 C   0  0  0  0  0  2  0  0  0  0  0  0
  184.0480  178.3280  139.7300 C   0  0  2  0  0  3  0  0  0  0  0  0
  183.5280  177.3910  136.3250 C   0  0  0  0  0  3  0  0  0  0  0  0
  182.5690  174.8650  137.0080 C   0  0  0  0  0  2  0  0  0  0  0  0
  183.3590  175.6460  138.0770 C   0  0  2  0  0  3  0  0  0  0  0  0
  180.5610  179.6890  140.3270 C   0  0  0  0  0  2  0  0  0  0  0  0
  179.4040  179.0780  140.8720 O   0  0  0  0  0  0  0  0  0  0  0  0
  179.1470  179.1610  142.2330 C   0  0  0  0  0  3  0  0  0  0  0  0
  179.7770  178.4260  143.0360 O   0  0  0  0  0  0  0  0  0  0  0  0
  180.4780  175.8690  140.5310 O   0  0  0  0  0  0  0  0  0  0  0  0
  178.9340  174.6780  141.7390 O   0  0  0  0  0  0  0  0  0  0  0  0
  179.2020  174.0270  139.5280 N   0  0  0  0  0  1  0  0  0  0  0  0
  179.5210  174.8580  140.6400 C   0  0  0  0  0  0  0  0  0  0  0  0
  185.0850  178.9850  140.6200 C   0  0  0  0  0  2  0  0  0  0  0  0
  184.7080  178.6390  142.3650 S   0  0  0  0  0  0  0  0  0  0  0  0
  186.3250  177.8650  142.6680 C   0  0  0  0  0  2  0  0  0  0  0  0
  186.8130  178.2120  144.0600 C   0  0  1  0  0  3  0  0  0  0  0  0
  186.4650  177.1120  144.9720 N   0  0  0  0  0  0  0  0  0  0  0  0
  187.8410  177.2680  144.4790 C   0  0  0  0  0  2  0  0  0  0  0  0
  185.2620  178.6200  146.4340 C   0  0  0  0  0  1  0  0  0  0  0  0
  186.4370  177.6740  146.3090 C   0  0  0  0  0  2  0  0  0  0  0  0
  1 15  1  6  0  0  0
  2  4  1  0  0  0  0
  2  1  1  0  0  0  0
  3 13  1  0  0  0  0
  4  7  1  0  0  0  0
  4 19  1  1  0  0  0
  5 11  1  0  0  0  0
  6  2  2  0  0  0  0
  8 14  1  0  0  0  0
  8  5  1  0  0  0  0
  9  3  1  0  0  0  0
  9 12  1  0  0  0  0
 10 11  1  0  0  0  0
 10  1  1  0  0  0  0
 11 23  1  1  0  0  0
 12  8  2  0  0  0  0
 14 13  1  6  0  0  0
 14  7  1  0  0  0  0
 15 16  1  0  0  0  0
 16 17  1  0  0  0  0
 17 18  2  0  0  0  0
 19 22  1  0  0  0  0
 21 22  1  0  0  0  0
 22 20  2  0  0  0  0
 23 24  1  0  0  0  0
 24 25  1  0  0  0  0
 26 25  1  6  0  0  0
 26 28  1  0  0  0  0
 26 27  1  0  0  0  0
 27 30  1  0  0  0  0
 28 27  1  0  0  0  0
 30 29  1  0  0  0  0
M  END
>  <MODEL>
8

>  <REMARK>
 VINA RESULT:      -5.2      6.118      7.904
  Name = 
  10 active torsions:
  status: ('A' for Active; 'I' for Inactive)
    1  A    between atoms: C_1  and  C_4
    2  A    between atoms: C_1  and  O_22
    3  A    between atoms: C_2  and  O_22
    4  A    between atoms: C_3  and  S_11
    5  A    between atoms: C_3  and  C_19
    6  A    between atoms: O_6  and  C_8
    7  A    between atoms: O_6  and  C_21
    8  A    between atoms: S_11  and  C_24
    9  A    between atoms: C_20  and  N_28
   10  A    between atoms: C_24  and  C_25
                            x       y       z     vdW  Elec       q    Type
                         _______ _______ _______ _____ _____    ______ ____

>  <TORSDO>
F 10

$$$$
=
 OpenBabel11052412363D

 30 32  0  0  1  0  0  0  0  0999 V2000
  190.1160  176.7460  138.0890 C   0  0  1  0  0  3  0  0  0  0  0  0
  190.5680  175.4640  137.4470 C   0  0  0  0  0  0  0  0  0  0  0  0
  188.4610  172.3130  134.8690 O   0  0  0  0  0  0  0  0  0  0  0  0
  191.0070  175.4480  136.0110 C   0  0  1  0  0  3  0  0  0  0  0  0
  187.0290  175.8460  136.5990 C   0  0  0  0  0  2  0  0  0  0  0  0
  190.5580  174.4200  138.0820 O   0  0  0  0  0  0  0  0  0  0  0  0
  189.8560  175.7980  135.0620 C   0  0  0  0  0  2  0  0  0  0  0  0
  187.8480  174.6600  136.1720 C   0  0  0  0  0  0  0  0  0  0  0  0
  188.3140  172.2540  136.2670 C   0  0  0  0  0  2  0  0  0  0  0  0
  188.6170  176.7280  138.3360 C   0  0  0  0  0  2  0  0  0  0  0  0
  187.8870  177.0250  137.0340 C   0  0  2  0  0  3  0  0  0  0  0  0
  187.5910  173.4800  136.7500 C   0  0  0  0  0  3  0  0  0  0  0  0
  189.3820  173.3480  134.6190 C   0  0  0  0  0  2  0  0  0  0  0  0
  188.7670  174.7210  134.9560 C   0  0  2  0  0  3  0  0  0  0  0  0
  190.8610  177.0110  139.3850 C   0  0  0  0  0  2  0  0  0  0  0  0
  189.9860  176.8330  140.4850 O   0  0  0  0  0  0  0  0  0  0  0  0
  190.4940  176.7420  141.7730 C   0  0  0  0  0  3  0  0  0  0  0  0
  190.4980  175.6340  142.3690 O   0  0  0  0  0  0  0  0  0  0  0  0
  192.0720  176.3700  135.8130 O   0  0  0  0  0  0  0  0  0  0  0  0
  193.8600  176.9030  137.1460 O   0  0  0  0  0  0  0  0  0  0  0  0
  194.1370  175.0430  135.7890 N   0  0  0  0  0  1  0  0  0  0  0  0
  193.3670  176.1360  136.2800 C   0  0  0  0  0  0  0  0  0  0  0  0
  187.0280  178.2640  137.1960 C   0  0  0  0  0  2  0  0  0  0  0  0
  185.2920  177.7820  137.4420 S   0  0  0  0  0  0  0  0  0  0  0  0
  185.0310  179.0100  138.7580 C   0  0  0  0  0  2  0  0  0  0  0  0
  185.1030  178.3380  140.1140 C   0  0  1  0  0  3  0  0  0  0  0  0
  185.1220  179.3750  141.1560 N   0  0  0  0  0  0  0  0  0  0  0  0
  183.8920  178.6180  140.8750 C   0  0  0  0  0  2  0  0  0  0  0  0
  187.1350  178.3380  142.0120 C   0  0  0  0  0  1  0  0  0  0  0  0
  185.7210  178.7710  142.3320 C   0  0  0  0  0  2  0  0  0  0  0  0
  1 10  1  0  0  0  0
  1 15  1  1  0  0  0
  2  6  2  0  0  0  0
  2  1  1  0  0  0  0
  3  9  1  0  0  0  0
  4 19  1  1  0  0  0
  4  2  1  0  0  0  0
  5 11  1  0  0  0  0
  7  4  1  0  0  0  0
  8  5  1  0  0  0  0
  8 12  2  0  0  0  0
  9 12  1  0  0  0  0
 11 23  1  1  0  0  0
 11 10  1  0  0  0  0
 13  3  1  0  0  0  0
 14 13  1  1  0  0  0
 14  7  1  0  0  0  0
 14  8  1  0  0  0  0
 15 16  1  0  0  0  0
 16 17  1  0  0  0  0
 17 18  2  0  0  0  0
 19 22  1  0  0  0  0
 21 22  1  0  0  0  0
 22 20  2  0  0  0  0
 23 24  1  0  0  0  0
 24 25  1  0  0  0  0
 26 25  1  6  0  0  0
 26 28  1  0  0  0  0
 26 27  1  0  0  0  0
 27 30  1  0  0  0  0
 28 27  1  0  0  0  0
 29 30  1  0  0  0  0
M  END
>  <MODEL>
9

>  <REMARK>
 VINA RESULT:      -5.2      3.356      5.505
  Name = 
  10 active torsions:
  status: ('A' for Active; 'I' for Inactive)
    1  A    between atoms: C_1  and  C_4
    2  A    between atoms: C_1  and  O_22
    3  A    between atoms: C_2  and  O_22
    4  A    between atoms: C_3  and  S_11
    5  A    between atoms: C_3  and  C_19
    6  A    between atoms: O_6  and  C_8
    7  A    between atoms: O_6  and  C_21
    8  A    between atoms: S_11  and  C_24
    9  A    between atoms: C_20  and  N_28
   10  A    between atoms: C_24  and  C_25
                            x       y       z     vdW  Elec       q    Type
                         _______ _______ _______ _____ _____    ______ ____

>  <TORSDO>
F 10

$$$$
