=
 OpenBabel11052416243D

 43 47  0  0  1  0  0  0  0  0999 V2000
  181.1370  178.6140  141.0070 C   0  0  2  0  0  3  0  0  0  0  0  0
  185.9540  178.2570  142.5410 C   0  0  2  0  0  3  0  0  0  0  0  0
  187.5350  177.9850  140.2630 C   0  0  2  0  0  3  0  0  0  0  0  0
  183.1690  179.2920  142.4390 C   0  0  1  0  0  3  0  0  0  0  0  0
  181.9260  177.4420  140.4030 C   0  0  0  0  0  2  0  0  0  0  0  0
  181.1810  179.7130  140.1480 O   0  0  0  0  0  1  0  0  0  0  0  0
  183.8960  178.8530  141.1490 C   0  0  2  0  0  3  0  0  0  0  0  0
  181.6580  179.0080  142.3930 C   0  0  0  0  0  2  0  0  0  0  0  0
  183.4290  177.4600  140.7220 C   0  0  0  0  0  2  0  0  0  0  0  0
  186.1280  178.5250  140.0020 C   0  0  0  0  0  2  0  0  0  0  0  0
  185.4210  178.9750  141.2840 C   0  0  2  0  0  3  0  0  0  0  0  0
  185.2500  178.8200  143.7720 C   0  0  0  0  0  2  0  0  0  0  0  0
  187.4160  178.3830  142.7150 N   0  0  0  0  0  0  0  0  0  0  0  0
  188.1540  178.6760  141.4760 C   0  0  0  0  0  2  0  0  0  0  0  0
  183.7470  178.5970  143.6720 C   0  0  0  0  0  2  0  0  0  0  0  0
  188.4260  178.1410  139.0360 C   0  0  2  0  0  3  0  0  0  0  0  0
  189.0520  179.3780  139.0430 F   0  0  0  0  0  0  0  0  0  0  0  0
  187.6270  177.9960  137.8290 N   0  0  0  0  0  2  0  0  0  0  0  0
  188.1930  177.6920  136.5550 C   0  0  0  0  0  0  0  0  0  0  0  0
  189.4220  177.4470  136.4380 O   0  0  0  0  0  0  0  0  0  0  0  0
  187.1350  177.6570  135.1100 S   0  0  0  0  0  0  0  0  0  0  0  0
  186.0980  176.2630  135.6870 C   0  0  1  0  0  3  0  0  0  0  0  0
  184.6900  176.3020  135.1010 C   0  0  0  0  0  2  0  0  0  0  0  0
  183.9240  177.5040  137.1430 C   0  0  0  0  0  1  0  0  0  0  0  0
  183.6390  176.3550  136.1950 C   0  0  0  0  0  2  0  0  0  0  0  0
  186.7120  175.0480  135.3730 O   0  0  0  0  0  0  0  0  0  0  0  0
  186.6970  174.3160  136.5640 C   0  0  2  0  0  3  0  0  0  0  0  0
  187.9800  173.8390  136.8400 O   0  0  0  0  0  1  0  0  0  0  0  0
  185.7380  173.1770  136.4570 C   0  0  0  0  0  0  0  0  0  0  0  0
  185.0550  171.1200  135.3720 C   0  0  0  0  0  3  0  0  0  0  0  0
  183.7570  172.0000  137.2180 C   0  0  0  0  0  3  0  0  0  0  0  0
  183.9640  171.0220  136.2400 C   0  0  0  0  0  3  0  0  0  0  0  0
  184.6430  173.0760  137.3280 C   0  0  0  0  0  3  0  0  0  0  0  0
  185.9420  172.1960  135.4820 C   0  0  0  0  0  3  0  0  0  0  0  0
  187.8860  177.1450  143.1840 N   0  0  0  0  0  2  0  0  0  0  0  0
  191.2940  176.6260  144.6330 C   0  0  0  0  0  3  0  0  0  0  0  0
  191.0410  176.8450  145.9960 C   0  0  0  0  0  0  0  0  0  0  0  0
  188.7060  177.2560  145.4790 C   0  0  0  0  0  3  0  0  0  0  0  0
  190.2580  176.7240  143.7000 C   0  0  0  0  0  3  0  0  0  0  0  0
  188.9590  177.0440  144.1210 C   0  0  0  0  0  0  0  0  0  0  0  0
  189.7420  177.1590  146.4120 C   0  0  0  0  0  3  0  0  0  0  0  0
  192.0550  176.7570  146.9540 O   0  0  0  0  0  0  0  0  0  0  0  0
  192.2930  175.5810  147.7140 C   0  0  0  0  0  1  0  0  0  0  0  0
  1  6  1  6  0  0  0
  1  8  1  0  0  0  0
  2 13  1  0  0  0  0
  2 12  1  1  0  0  0
  3 16  1  6  0  0  0
  3 14  1  0  0  0  0
  4  8  1  6  0  0  0
  4 15  1  0  0  0  0
  5  9  1  0  0  0  0
  5  1  1  0  0  0  0
  7  9  1  1  0  0  0
  7 11  1  0  0  0  0
  7  4  1  0  0  0  0
 10  3  1  0  0  0  0
 11 10  1  6  0  0  0
 11  2  1  0  0  0  0
 13 35  1  0  0  0  0
 14 13  1  0  0  0  0
 15 12  1  0  0  0  0
 16 17  1  6  0  0  0
 18 16  1  0  0  0  0
 19 18  1  0  0  0  0
 20 19  2  0  0  0  0
 21 22  1  0  0  0  0
 21 19  1  0  0  0  0
 22 23  1  6  0  0  0
 23 25  1  0  0  0  0
 25 24  1  0  0  0  0
 26 22  1  0  0  0  0
 26 27  1  0  0  0  0
 27 28  1  6  0  0  0
 29 27  1  0  0  0  0
 29 33  1  0  0  0  0
 30 34  1  0  0  0  0
 30 32  2  0  0  0  0
 31 33  2  0  0  0  0
 32 31  1  0  0  0  0
 34 29  2  0  0  0  0
 35 40  1  0  0  0  0
 36 37  1  0  0  0  0
 37 41  2  0  0  0  0
 37 42  1  0  0  0  0
 38 41  1  0  0  0  0
 39 40  1  0  0  0  0
 39 36  2  0  0  0  0
 40 38  2  0  0  0  0
 42 43  1  0  0  0  0
M  END
>  <MODEL>
1

>  <REMARK>
 VINA RESULT:      -7.9      0.000      0.000
  Name = 
  12 active torsions:
  status: ('A' for Active; 'I' for Inactive)
    1  A    between atoms: N_1  and  N_34
    2  A    between atoms: N_1  and  C_35
    3  A    between atoms: C_2  and  N_6
    4  A    between atoms: C_2  and  C_13
    5  A    between atoms: S_3  and  C_4
    6  A    between atoms: S_3  and  C_12
    7  A    between atoms: C_4  and  C_15
    8  A    between atoms: C_4  and  O_22
    9  A    between atoms: C_11  and  C_14
   10  A    between atoms: C_14  and  O_22
   11  A    between atoms: C_15  and  C_42
   12  A    between atoms: C_19  and  O_25
                            x       y       z     vdW  Elec       q    Type
                         _______ _______ _______ _____ _____    ______ ____

>  <TORSDO>
F 12

$$$$
=
 OpenBabel11052416243D

 43 47  0  0  1  0  0  0  0  0999 V2000
  189.5670  177.3800  144.5960 C   0  0  2  0  0  3  0  0  0  0  0  0
  190.7830  177.0250  139.6890 C   0  0  2  0  0  3  0  0  0  0  0  0
  188.4160  177.2190  138.2290 C   0  0  2  0  0  3  0  0  0  0  0  0
  190.9920  177.9160  142.5180 C   0  0  1  0  0  3  0  0  0  0  0  0
  188.7360  176.3680  143.7920 C   0  0  0  0  0  2  0  0  0  0  0  0
  188.9050  178.6070  144.6490 O   0  0  0  0  0  1  0  0  0  0  0  0
  189.6130  177.7360  141.8470 C   0  0  2  0  0  3  0  0  0  0  0  0
  190.9730  177.5640  144.0150 C   0  0  0  0  0  2  0  0  0  0  0  0
  188.9800  176.4110  142.2760 C   0  0  0  0  0  2  0  0  0  0  0  0
  188.3190  177.7210  139.6720 C   0  0  0  0  0  2  0  0  0  0  0  0
  189.6910  177.9130  140.3230 C   0  0  2  0  0  3  0  0  0  0  0  0
  192.1230  177.3380  140.3450 C   0  0  0  0  0  2  0  0  0  0  0  0
  190.9040  177.1960  138.2270 N   0  0  0  0  0  0  0  0  0  0  0  0
  189.6970  177.7300  137.5740 C   0  0  0  0  0  2  0  0  0  0  0  0
  192.0610  177.0560  141.8410 C   0  0  0  0  0  2  0  0  0  0  0  0
  187.1920  177.6230  137.4170 C   0  0  2  0  0  3  0  0  0  0  0  0
  187.1460  178.9990  137.2560 F   0  0  0  0  0  0  0  0  0  0  0  0
  185.9860  177.1630  138.0880 N   0  0  0  0  0  2  0  0  0  0  0  0
  184.7330  177.0140  137.4200 C   0  0  0  0  0  0  0  0  0  0  0  0
  184.6410  177.1980  136.1770 O   0  0  0  0  0  0  0  0  0  0  0  0
  183.2810  176.5590  138.3650 S   0  0  0  0  0  0  0  0  0  0  0  0
  183.2940  178.0480  139.4300 C   0  0  1  0  0  3  0  0  0  0  0  0
  181.9130  178.6810  139.5640 C   0  0  0  0  0  2  0  0  0  0  0  0
  180.4050  178.1060  141.4610 C   0  0  0  0  0  1  0  0  0  0  0  0
  180.8980  177.6830  140.0910 C   0  0  0  0  0  2  0  0  0  0  0  0
  183.7970  177.7290  140.6940 O   0  0  0  0  0  0  0  0  0  0  0  0
  184.1650  178.9540  141.2570 C   0  0  2  0  0  3  0  0  0  0  0  0
  185.3510  179.4050  140.6720 O   0  0  0  0  0  1  0  0  0  0  0  0
  184.3440  178.8100  142.7330 C   0  0  0  0  0  0  0  0  0  0  0  0
  183.4260  178.9710  144.9700 C   0  0  0  0  0  3  0  0  0  0  0  0
  185.7130  178.2380  144.6530 C   0  0  0  0  0  3  0  0  0  0  0  0
  184.6430  178.5370  145.5030 C   0  0  0  0  0  3  0  0  0  0  0  0
  185.5630  178.3730  143.2690 C   0  0  0  0  0  3  0  0  0  0  0  0
  183.2760  179.1070  143.5860 C   0  0  0  0  0  3  0  0  0  0  0  0
  191.1330  175.9240  137.6770 N   0  0  0  0  0  2  0  0  0  0  0  0
  194.2000  173.8400  137.1950 C   0  0  0  0  0  3  0  0  0  0  0  0
  194.9920  174.7050  136.4220 C   0  0  0  0  0  0  0  0  0  0  0  0
  193.2210  176.3620  136.4940 C   0  0  0  0  0  3  0  0  0  0  0  0
  192.9270  174.2360  137.6120 C   0  0  0  0  0  3  0  0  0  0  0  0
  192.4310  175.4990  137.2580 C   0  0  0  0  0  0  0  0  0  0  0  0
  194.4950  175.9660  136.0770 C   0  0  0  0  0  3  0  0  0  0  0  0
  196.2690  174.3380  135.9880 O   0  0  0  0  0  0  0  0  0  0  0  0
  197.3700  174.1980  136.8740 C   0  0  0  0  0  1  0  0  0  0  0  0
  1  6  1  6  0  0  0
  2 11  1  0  0  0  0
  2 12  1  1  0  0  0
  3 16  1  6  0  0  0
  3 10  1  0  0  0  0
  4 15  1  6  0  0  0
  4  8  1  0  0  0  0
  5  1  1  0  0  0  0
  7  9  1  6  0  0  0
  7  4  1  0  0  0  0
  8  1  1  0  0  0  0
  9  5  1  0  0  0  0
 11 10  1  6  0  0  0
 11  7  1  0  0  0  0
 12 15  1  0  0  0  0
 13  2  1  0  0  0  0
 14 13  1  0  0  0  0
 14  3  1  0  0  0  0
 16 17  1  1  0  0  0
 16 18  1  0  0  0  0
 19 18  1  0  0  0  0
 19 21  1  0  0  0  0
 20 19  2  0  0  0  0
 21 22  1  0  0  0  0
 22 23  1  1  0  0  0
 22 26  1  0  0  0  0
 23 25  1  0  0  0  0
 25 24  1  0  0  0  0
 26 27  1  0  0  0  0
 27 28  1  6  0  0  0
 27 29  1  0  0  0  0
 29 33  2  0  0  0  0
 29 34  1  0  0  0  0
 30 32  1  0  0  0  0
 31 32  2  0  0  0  0
 33 31  1  0  0  0  0
 34 30  2  0  0  0  0
 35 13  1  0  0  0  0
 36 39  1  0  0  0  0
 37 36  2  0  0  0  0
 38 40  1  0  0  0  0
 40 39  2  0  0  0  0
 40 35  1  0  0  0  0
 41 37  1  0  0  0  0
 41 38  2  0  0  0  0
 42 37  1  0  0  0  0
 42 43  1  0  0  0  0
M  END
>  <MODEL>
2

>  <REMARK>
 VINA RESULT:      -7.9      3.672      7.707
  Name = 
  12 active torsions:
  status: ('A' for Active; 'I' for Inactive)
    1  A    between atoms: N_1  and  N_34
    2  A    between atoms: N_1  and  C_35
    3  A    between atoms: C_2  and  N_6
    4  A    between atoms: C_2  and  C_13
    5  A    between atoms: S_3  and  C_4
    6  A    between atoms: S_3  and  C_12
    7  A    between atoms: C_4  and  C_15
    8  A    between atoms: C_4  and  O_22
    9  A    between atoms: C_11  and  C_14
   10  A    between atoms: C_14  and  O_22
   11  A    between atoms: C_15  and  C_42
   12  A    between atoms: C_19  and  O_25
                            x       y       z     vdW  Elec       q    Type
                         _______ _______ _______ _____ _____    ______ ____

>  <TORSDO>
F 12

$$$$
=
 OpenBabel11052416243D

 43 47  0  0  1  0  0  0  0  0999 V2000
  179.0890  178.0900  139.6830 C   0  0  2  0  0  3  0  0  0  0  0  0
  183.6180  178.6120  141.8970 C   0  0  2  0  0  3  0  0  0  0  0  0
  185.5480  178.4430  139.8930 C   0  0  2  0  0  3  0  0  0  0  0  0
  180.7580  179.1790  141.3160 C   0  0  1  0  0  3  0  0  0  0  0  0
  180.1260  177.0210  139.3020 C   0  0  0  0  0  2  0  0  0  0  0  0
  179.0990  179.1210  138.7440 O   0  0  0  0  0  1  0  0  0  0  0  0
  181.7290  178.7760  140.1850 C   0  0  2  0  0  3  0  0  0  0  0  0
  179.3310  178.6540  141.0880 C   0  0  0  0  0  2  0  0  0  0  0  0
  181.5440  177.3010  139.8240 C   0  0  0  0  0  2  0  0  0  0  0  0
  184.1320  178.7330  139.3920 C   0  0  0  0  0  2  0  0  0  0  0  0
  183.1810  179.1490  140.5180 C   0  0  2  0  0  3  0  0  0  0  0  0
  182.6610  179.1360  142.9630 C   0  0  0  0  0  2  0  0  0  0  0  0
  185.0020  178.9810  142.2600 N   0  0  0  0  0  0  0  0  0  0  0  0
  185.8670  179.3040  141.1140 C   0  0  0  0  0  2  0  0  0  0  0  0
  181.2400  178.6690  142.6760 C   0  0  0  0  0  2  0  0  0  0  0  0
  186.5810  178.6570  138.7930 C   0  0  2  0  0  3  0  0  0  0  0  0
  185.9570  178.8700  137.5740 F   0  0  0  0  0  0  0  0  0  0  0  0
  187.4530  177.4960  138.7080 N   0  0  0  0  0  2  0  0  0  0  0  0
  188.7840  177.5590  138.1950 C   0  0  0  0  0  0  0  0  0  0  0  0
  189.2950  178.6620  137.8670 O   0  0  0  0  0  0  0  0  0  0  0  0
  189.7300  176.0490  138.0180 S   0  0  0  0  0  0  0  0  0  0  0  0
  190.8200  176.3590  139.4570 C   0  0  1  0  0  3  0  0  0  0  0  0
  192.2170  176.8120  139.0430 C   0  0  0  0  0  2  0  0  0  0  0  0
  193.3490  176.6140  136.8340 C   0  0  0  0  0  1  0  0  0  0  0  0
  192.8320  175.8530  138.0400 C   0  0  0  0  0  2  0  0  0  0  0  0
  190.2410  177.3100  140.3000 O   0  0  0  0  0  0  0  0  0  0  0  0
  189.7880  176.5860  141.4060 C   0  0  2  0  0  3  0  0  0  0  0  0
  188.4060  176.7430  141.5390 O   0  0  0  0  0  1  0  0  0  0  0  0
  190.4790  177.0530  142.6460 C   0  0  0  0  0  0  0  0  0  0  0  0
  191.4300  176.5510  144.8170 C   0  0  0  0  0  3  0  0  0  0  0  0
  191.4870  178.8190  143.9690 C   0  0  0  0  0  3  0  0  0  0  0  0
  191.7840  177.8930  144.9750 C   0  0  0  0  0  3  0  0  0  0  0  0
  190.8360  178.3990  142.8060 C   0  0  0  0  0  3  0  0  0  0  0  0
  190.7790  176.1310  143.6530 C   0  0  0  0  0  3  0  0  0  0  0  0
  185.5740  177.8680  142.8990 N   0  0  0  0  0  2  0  0  0  0  0  0
  187.7750  177.3660  145.8800 C   0  0  0  0  0  3  0  0  0  0  0  0
  187.0720  178.0890  146.8570 C   0  0  0  0  0  0  0  0  0  0  0  0
  185.3900  178.6540  145.2010 C   0  0  0  0  0  3  0  0  0  0  0  0
  187.2870  177.2890  144.5730 C   0  0  0  0  0  3  0  0  0  0  0  0
  186.0920  177.9370  144.2280 C   0  0  0  0  0  0  0  0  0  0  0  0
  185.8780  178.7300  146.5080 C   0  0  0  0  0  3  0  0  0  0  0  0
  187.5340  178.1870  148.1710 O   0  0  0  0  0  0  0  0  0  0  0  0
  188.9160  178.1600  148.5030 C   0  0  0  0  0  1  0  0  0  0  0  0
  1  6  1  6  0  0  0
  1  8  1  0  0  0  0
  2 13  1  0  0  0  0
  2 12  1  1  0  0  0
  3 16  1  6  0  0  0
  3 14  1  0  0  0  0
  4  8  1  6  0  0  0
  4 15  1  0  0  0  0
  5  1  1  0  0  0  0
  5  9  1  0  0  0  0
  7  9  1  1  0  0  0
  7 11  1  0  0  0  0
  7  4  1  0  0  0  0
 10  3  1  0  0  0  0
 11 10  1  6  0  0  0
 11  2  1  0  0  0  0
 13 35  1  0  0  0  0
 14 13  1  0  0  0  0
 15 12  1  0  0  0  0
 16 17  1  6  0  0  0
 18 16  1  0  0  0  0
 19 18  1  0  0  0  0
 20 19  2  0  0  0  0
 21 19  1  0  0  0  0
 21 22  1  0  0  0  0
 22 23  1  6  0  0  0
 22 26  1  0  0  0  0
 24 25  1  0  0  0  0
 25 23  1  0  0  0  0
 26 27  1  0  0  0  0
 27 28  1  1  0  0  0
 27 29  1  0  0  0  0
 29 33  2  0  0  0  0
 29 34  1  0  0  0  0
 30 32  1  0  0  0  0
 31 32  2  0  0  0  0
 33 31  1  0  0  0  0
 34 30  2  0  0  0  0
 35 40  1  0  0  0  0
 36 37  1  0  0  0  0
 37 42  1  0  0  0  0
 38 41  1  0  0  0  0
 39 36  2  0  0  0  0
 40 39  1  0  0  0  0
 40 38  2  0  0  0  0
 41 37  2  0  0  0  0
 42 43  1  0  0  0  0
M  END
>  <MODEL>
3

>  <REMARK>
 VINA RESULT:      -7.8      3.485      5.771
  Name = 
  12 active torsions:
  status: ('A' for Active; 'I' for Inactive)
    1  A    between atoms: N_1  and  N_34
    2  A    between atoms: N_1  and  C_35
    3  A    between atoms: C_2  and  N_6
    4  A    between atoms: C_2  and  C_13
    5  A    between atoms: S_3  and  C_4
    6  A    between atoms: S_3  and  C_12
    7  A    between atoms: C_4  and  C_15
    8  A    between atoms: C_4  and  O_22
    9  A    between atoms: C_11  and  C_14
   10  A    between atoms: C_14  and  O_22
   11  A    between atoms: C_15  and  C_42
   12  A    between atoms: C_19  and  O_25
                            x       y       z     vdW  Elec       q    Type
                         _______ _______ _______ _____ _____    ______ ____

>  <TORSDO>
F 12

$$$$
=
 OpenBabel11052416243D

 43 47  0  0  1  0  0  0  0  0999 V2000
  188.1420  177.4090  145.5490 C   0  0  2  0  0  3  0  0  0  0  0  0
  190.2670  176.9850  140.9680 C   0  0  2  0  0  3  0  0  0  0  0  0
  188.2880  177.5190  139.0800 C   0  0  2  0  0  3  0  0  0  0  0  0
  190.0130  177.7870  143.8200 C   0  0  1  0  0  3  0  0  0  0  0  0
  187.3680  176.5320  144.5530 C   0  0  0  0  0  2  0  0  0  0  0  0
  187.6450  178.7130  145.5250 O   0  0  0  0  0  1  0  0  0  0  0  0
  188.7870  177.8060  142.8820 C   0  0  2  0  0  3  0  0  0  0  0  0
  189.6480  177.4140  145.2660 C   0  0  0  0  0  2  0  0  0  0  0  0
  187.9160  176.5700  143.1180 C   0  0  0  0  0  2  0  0  0  0  0  0
  187.9670  178.0030  140.4950 C   0  0  0  0  0  2  0  0  0  0  0  0
  189.1930  177.9990  141.4130 C   0  0  2  0  0  3  0  0  0  0  0  0
  191.4770  177.1030  141.8900 C   0  0  0  0  0  2  0  0  0  0  0  0
  190.7020  177.1650  139.5670 N   0  0  0  0  0  0  0  0  0  0  0  0
  189.7300  177.8670  138.7140 C   0  0  0  0  0  2  0  0  0  0  0  0
  191.0780  176.8050  143.3290 C   0  0  0  0  0  2  0  0  0  0  0  0
  187.3150  178.0990  138.0600 C   0  0  2  0  0  3  0  0  0  0  0  0
  187.9590  179.0010  137.2280 F   0  0  0  0  0  0  0  0  0  0  0  0
  186.2180  178.7590  138.7520 N   0  0  0  0  0  2  0  0  0  0  0  0
  184.8490  178.4080  138.5510 C   0  0  0  0  0  0  0  0  0  0  0  0
  184.5350  177.4360  137.8150 O   0  0  0  0  0  0  0  0  0  0  0  0
  183.5690  179.3660  139.3580 S   0  0  0  0  0  0  0  0  0  0  0  0
  183.2800  178.1640  140.7090 C   0  0  1  0  0  3  0  0  0  0  0  0
  184.3150  178.2800  141.8240 C   0  0  0  0  0  2  0  0  0  0  0  0
  184.6520  179.5480  143.9400 C   0  0  0  0  0  1  0  0  0  0  0  0
  183.6750  178.7210  143.1270 C   0  0  0  0  0  2  0  0  0  0  0  0
  181.9960  178.3310  141.2330 O   0  0  0  0  0  0  0  0  0  0  0  0
  181.1430  178.2680  140.1280 C   0  0  2  0  0  3  0  0  0  0  0  0
  180.0680  179.1410  140.3110 O   0  0  0  0  0  1  0  0  0  0  0  0
  180.6440  176.8730  139.9410 C   0  0  0  0  0  0  0  0  0  0  0  0
  179.2760  175.0260  140.7100 C   0  0  0  0  0  3  0  0  0  0  0  0
  180.5690  174.8040  138.6740 C   0  0  0  0  0  3  0  0  0  0  0  0
  179.6820  174.2640  139.6110 C   0  0  0  0  0  3  0  0  0  0  0  0
  181.0490  176.1070  138.8380 C   0  0  0  0  0  3  0  0  0  0  0  0
  179.7560  176.3300  140.8740 C   0  0  0  0  0  3  0  0  0  0  0  0
  190.8730  175.8830  139.0180 N   0  0  0  0  0  2  0  0  0  0  0  0
  193.8020  176.2680  136.7250 C   0  0  0  0  0  3  0  0  0  0  0  0
  193.7950  175.0250  136.0710 C   0  0  0  0  0  0  0  0  0  0  0  0
  191.8550  174.3710  137.3750 C   0  0  0  0  0  3  0  0  0  0  0  0
  192.8420  176.5570  137.6980 C   0  0  0  0  0  3  0  0  0  0  0  0
  191.8660  175.6060  138.0290 C   0  0  0  0  0  0  0  0  0  0  0  0
  192.8160  174.0820  136.4020 C   0  0  0  0  0  3  0  0  0  0  0  0
  194.7430  174.7040  135.0960 O   0  0  0  0  0  0  0  0  0  0  0  0
  196.1360  174.9080  135.2830 C   0  0  0  0  0  1  0  0  0  0  0  0
  1  6  1  6  0  0  0
  2 11  1  0  0  0  0
  2 12  1  1  0  0  0
  3 16  1  6  0  0  0
  3 10  1  0  0  0  0
  4 15  1  6  0  0  0
  4  8  1  0  0  0  0
  5  1  1  0  0  0  0
  7  9  1  6  0  0  0
  7  4  1  0  0  0  0
  8  1  1  0  0  0  0
  9  5  1  0  0  0  0
 11 10  1  6  0  0  0
 11  7  1  0  0  0  0
 12 15  1  0  0  0  0
 13  2  1  0  0  0  0
 14  3  1  0  0  0  0
 14 13  1  0  0  0  0
 16 17  1  6  0  0  0
 16 18  1  0  0  0  0
 19 18  1  0  0  0  0
 19 21  1  0  0  0  0
 20 19  2  0  0  0  0
 21 22  1  0  0  0  0
 22 26  1  0  0  0  0
 22 23  1  1  0  0  0
 23 25  1  0  0  0  0
 25 24  1  0  0  0  0
 27 28  1  1  0  0  0
 27 26  1  0  0  0  0
 29 27  1  0  0  0  0
 29 34  1  0  0  0  0
 30 34  2  0  0  0  0
 31 33  1  0  0  0  0
 31 32  2  0  0  0  0
 32 30  1  0  0  0  0
 33 29  2  0  0  0  0
 35 13  1  0  0  0  0
 36 39  1  0  0  0  0
 37 41  1  0  0  0  0
 37 36  2  0  0  0  0
 38 40  1  0  0  0  0
 39 40  2  0  0  0  0
 40 35  1  0  0  0  0
 41 38  2  0  0  0  0
 42 43  1  0  0  0  0
 42 37  1  0  0  0  0
M  END
>  <MODEL>
4

>  <REMARK>
 VINA RESULT:      -7.7      3.389      7.112
  Name = 
  12 active torsions:
  status: ('A' for Active; 'I' for Inactive)
    1  A    between atoms: N_1  and  N_34
    2  A    between atoms: N_1  and  C_35
    3  A    between atoms: C_2  and  N_6
    4  A    between atoms: C_2  and  C_13
    5  A    between atoms: S_3  and  C_4
    6  A    between atoms: S_3  and  C_12
    7  A    between atoms: C_4  and  C_15
    8  A    between atoms: C_4  and  O_22
    9  A    between atoms: C_11  and  C_14
   10  A    between atoms: C_14  and  O_22
   11  A    between atoms: C_15  and  C_42
   12  A    between atoms: C_19  and  O_25
                            x       y       z     vdW  Elec       q    Type
                         _______ _______ _______ _____ _____    ______ ____

>  <TORSDO>
F 12

$$$$
=
 OpenBabel11052416243D

 43 47  0  0  1  0  0  0  0  0999 V2000
  191.3020  177.5020  145.6470 C   0  0  2  0  0  3  0  0  0  0  0  0
  187.7150  177.8810  142.0880 C   0  0  2  0  0  3  0  0  0  0  0  0
  189.0040  178.2040  139.6380 C   0  0  2  0  0  3  0  0  0  0  0  0
  189.1010  176.8210  144.4950 C   0  0  1  0  0  3  0  0  0  0  0  0
  191.4630  178.6900  144.6870 C   0  0  0  0  0  2  0  0  0  0  0  0
  192.0540  176.4170  145.1950 O   0  0  0  0  0  1  0  0  0  0  0  0
  189.9050  177.2870  143.2620 C   0  0  2  0  0  3  0  0  0  0  0  0
  189.8350  177.0920  145.8190 C   0  0  0  0  0  2  0  0  0  0  0  0
  190.4870  178.6820  143.5010 C   0  0  0  0  0  2  0  0  0  0  0  0
  189.8900  177.6540  140.7580 C   0  0  0  0  0  2  0  0  0  0  0  0
  189.0830  177.1780  141.9690 C   0  0  2  0  0  3  0  0  0  0  0  0
  186.9530  177.2930  143.2710 C   0  0  0  0  0  2  0  0  0  0  0  0
  186.8870  177.7670  140.8690 N   0  0  0  0  0  0  0  0  0  0  0  0
  187.6490  177.5010  139.6380 C   0  0  0  0  0  2  0  0  0  0  0  0
  187.7330  177.5030  144.5620 C   0  0  0  0  0  2  0  0  0  0  0  0
  189.6820  178.0760  138.2790 C   0  0  2  0  0  3  0  0  0  0  0  0
  189.1960  179.0300  137.4000 F   0  0  0  0  0  0  0  0  0  0  0  0
  189.4520  176.7440  137.7420 N   0  0  0  0  0  2  0  0  0  0  0  0
  189.2920  176.4850  136.3470 C   0  0  0  0  0  0  0  0  0  0  0  0
  189.4320  177.4080  135.5020 O   0  0  0  0  0  0  0  0  0  0  0  0
  188.8900  174.8280  135.8010 S   0  0  0  0  0  0  0  0  0  0  0  0
  187.0860  175.1180  135.6820 C   0  0  1  0  0  3  0  0  0  0  0  0
  186.2870  173.8190  135.6590 C   0  0  0  0  0  2  0  0  0  0  0  0
  184.9310  172.6430  137.3850 C   0  0  0  0  0  1  0  0  0  0  0  0
  186.3170  173.1290  137.0110 C   0  0  0  0  0  2  0  0  0  0  0  0
  186.6590  175.9210  136.7430 O   0  0  0  0  0  0  0  0  0  0  0  0
  185.8090  176.8670  136.1620 C   0  0  2  0  0  3  0  0  0  0  0  0
  186.2850  178.1530  136.4240 O   0  0  0  0  0  1  0  0  0  0  0  0
  184.4240  176.7130  136.7000 C   0  0  0  0  0  0  0  0  0  0  0  0
  182.9480  176.0150  138.4900 C   0  0  0  0  0  3  0  0  0  0  0  0
  182.0230  176.9760  136.4680 C   0  0  0  0  0  3  0  0  0  0  0  0
  181.8410  176.4220  137.7400 C   0  0  0  0  0  3  0  0  0  0  0  0
  183.3130  177.1220  135.9490 C   0  0  0  0  0  3  0  0  0  0  0  0
  184.2380  176.1610  137.9710 C   0  0  0  0  0  3  0  0  0  0  0  0
  186.2430  179.0020  140.6880 N   0  0  0  0  0  2  0  0  0  0  0  0
  182.9780  179.7650  139.0320 C   0  0  0  0  0  3  0  0  0  0  0  0
  182.0730  179.2790  139.9890 C   0  0  0  0  0  0  0  0  0  0  0  0
  183.9390  178.6200  141.3930 C   0  0  0  0  0  3  0  0  0  0  0  0
  184.3550  179.6770  139.2560 C   0  0  0  0  0  3  0  0  0  0  0  0
  184.8400  179.0990  140.4380 C   0  0  0  0  0  0  0  0  0  0  0  0
  182.5620  178.7080  141.1690 C   0  0  0  0  0  3  0  0  0  0  0  0
  180.6910  179.3510  139.7940 O   0  0  0  0  0  0  0  0  0  0  0  0
  179.7670  179.4340  140.8700 C   0  0  0  0  0  1  0  0  0  0  0  0
  1  6  1  6  0  0  0
  1  8  1  0  0  0  0
  2 12  1  1  0  0  0
  3 16  1  6  0  0  0
  3 10  1  0  0  0  0
  4 15  1  1  0  0  0
  4  8  1  0  0  0  0
  5  1  1  0  0  0  0
  7  9  1  1  0  0  0
  7  4  1  0  0  0  0
  9  5  1  0  0  0  0
 11 10  1  6  0  0  0
 11  2  1  0  0  0  0
 11  7  1  0  0  0  0
 12 15  1  0  0  0  0
 13  2  1  0  0  0  0
 14  3  1  0  0  0  0
 14 13  1  0  0  0  0
 16 17  1  6  0  0  0
 18 16  1  0  0  0  0
 19 18  1  0  0  0  0
 20 19  2  0  0  0  0
 21 19  1  0  0  0  0
 22 23  1  1  0  0  0
 22 21  1  0  0  0  0
 22 26  1  0  0  0  0
 23 25  1  0  0  0  0
 25 24  1  0  0  0  0
 27 28  1  1  0  0  0
 27 29  1  0  0  0  0
 27 26  1  0  0  0  0
 29 34  1  0  0  0  0
 31 32  2  0  0  0  0
 32 30  1  0  0  0  0
 33 31  1  0  0  0  0
 33 29  2  0  0  0  0
 34 30  2  0  0  0  0
 35 13  1  0  0  0  0
 36 39  2  0  0  0  0
 36 37  1  0  0  0  0
 37 41  2  0  0  0  0
 39 40  1  0  0  0  0
 40 35  1  0  0  0  0
 40 38  2  0  0  0  0
 41 38  1  0  0  0  0
 42 37  1  0  0  0  0
 42 43  1  0  0  0  0
M  END
>  <MODEL>
5

>  <REMARK>
 VINA RESULT:      -7.4      1.653      6.536
  Name = 
  12 active torsions:
  status: ('A' for Active; 'I' for Inactive)
    1  A    between atoms: N_1  and  N_34
    2  A    between atoms: N_1  and  C_35
    3  A    between atoms: C_2  and  N_6
    4  A    between atoms: C_2  and  C_13
    5  A    between atoms: S_3  and  C_4
    6  A    between atoms: S_3  and  C_12
    7  A    between atoms: C_4  and  C_15
    8  A    between atoms: C_4  and  O_22
    9  A    between atoms: C_11  and  C_14
   10  A    between atoms: C_14  and  O_22
   11  A    between atoms: C_15  and  C_42
   12  A    between atoms: C_19  and  O_25
                            x       y       z     vdW  Elec       q    Type
                         _______ _______ _______ _____ _____    ______ ____

>  <TORSDO>
F 12

$$$$
=
 OpenBabel11052416243D

 43 47  0  0  1  0  0  0  0  0999 V2000
  181.5420  178.5950  140.9200 C   0  0  2  0  0  3  0  0  0  0  0  0
  186.1260  178.2530  143.0520 C   0  0  2  0  0  3  0  0  0  0  0  0
  187.9760  177.9000  140.9960 C   0  0  2  0  0  3  0  0  0  0  0  0
  183.3860  179.3020  142.5730 C   0  0  1  0  0  3  0  0  0  0  0  0
  182.3880  177.4000  140.4540 C   0  0  0  0  0  2  0  0  0  0  0  0
  181.7030  179.6670  140.0420 O   0  0  0  0  0  1  0  0  0  0  0  0
  184.2640  178.8200  141.3980 C   0  0  2  0  0  3  0  0  0  0  0  0
  181.8900  179.0270  142.3490 C   0  0  0  0  0  2  0  0  0  0  0  0
  183.8390  177.4170  140.9560 C   0  0  0  0  0  2  0  0  0  0  0  0
  186.6170  178.4420  140.5470 C   0  0  0  0  0  2  0  0  0  0  0  0
  185.7620  178.9350  141.7170 C   0  0  2  0  0  3  0  0  0  0  0  0
  185.2820  178.8570  144.1680 C   0  0  0  0  0  2  0  0  0  0  0  0
  187.5570  178.3730  143.4020 N   0  0  0  0  0  0  0  0  0  0  0  0
  188.4460  178.6240  142.2560 C   0  0  0  0  0  2  0  0  0  0  0  0
  183.8000  178.6410  143.8890 C   0  0  0  0  0  2  0  0  0  0  0  0
  189.0140  178.0130  139.8860 C   0  0  2  0  0  3  0  0  0  0  0  0
  188.7080  179.0660  139.0380 F   0  0  0  0  0  0  0  0  0  0  0  0
  189.0620  176.7690  139.1330 N   0  0  0  0  0  2  0  0  0  0  0  0
  189.9990  176.5330  138.0820 C   0  0  0  0  0  0  0  0  0  0  0  0
  190.8950  177.3780  137.8160 O   0  0  0  0  0  0  0  0  0  0  0  0
  189.8940  175.0160  137.1360 S   0  0  0  0  0  0  0  0  0  0  0  0
  188.3970  175.5000  136.1990 C   0  0  1  0  0  3  0  0  0  0  0  0
  188.1030  174.5520  135.0410 C   0  0  0  0  0  2  0  0  0  0  0  0
  188.4260  172.0830  135.0750 C   0  0  0  0  0  1  0  0  0  0  0  0
  187.5480  173.2290  135.5370 C   0  0  0  0  0  2  0  0  0  0  0  0
  187.2950  175.5610  137.0560 O   0  0  0  0  0  0  0  0  0  0  0  0
  186.4360  176.4980  136.4750 C   0  0  2  0  0  3  0  0  0  0  0  0
  186.7280  177.7730  136.9660 O   0  0  0  0  0  1  0  0  0  0  0  0
  185.0150  176.1480  136.7710 C   0  0  0  0  0  0  0  0  0  0  0  0
  183.3860  174.5420  137.5710 C   0  0  0  0  0  3  0  0  0  0  0  0
  182.6610  176.7320  136.8360 C   0  0  0  0  0  3  0  0  0  0  0  0
  182.3620  175.4650  137.3480 C   0  0  0  0  0  3  0  0  0  0  0  0
  183.9850  177.0730  136.5490 C   0  0  0  0  0  3  0  0  0  0  0  0
  184.7120  174.8830  137.2840 C   0  0  0  0  0  3  0  0  0  0  0  0
  187.9520  177.1470  143.9620 N   0  0  0  0  0  2  0  0  0  0  0  0
  191.3180  176.7140  145.5330 C   0  0  0  0  0  3  0  0  0  0  0  0
  191.0020  176.8750  146.8910 C   0  0  0  0  0  0  0  0  0  0  0  0
  188.6750  177.2110  146.2910 C   0  0  0  0  0  3  0  0  0  0  0  0
  190.3170  176.8030  144.5620 C   0  0  0  0  0  3  0  0  0  0  0  0
  188.9910  177.0560  144.9390 C   0  0  0  0  0  0  0  0  0  0  0  0
  189.6760  177.1220  147.2620 C   0  0  0  0  0  3  0  0  0  0  0  0
  191.9800  176.7940  147.8860 O   0  0  0  0  0  0  0  0  0  0  0  0
  192.7690  175.6310  148.0930 C   0  0  0  0  0  1  0  0  0  0  0  0
  1  6  1  6  0  0  0
  1  8  1  0  0  0  0
  2 13  1  0  0  0  0
  2 12  1  1  0  0  0
  3 16  1  6  0  0  0
  3 14  1  0  0  0  0
  4  8  1  6  0  0  0
  4 15  1  0  0  0  0
  5  1  1  0  0  0  0
  5  9  1  0  0  0  0
  7  9  1  1  0  0  0
  7 11  1  0  0  0  0
  7  4  1  0  0  0  0
 10  3  1  0  0  0  0
 11 10  1  6  0  0  0
 11  2  1  0  0  0  0
 13 35  1  0  0  0  0
 14 13  1  0  0  0  0
 15 12  1  0  0  0  0
 16 17  1  6  0  0  0
 18 16  1  0  0  0  0
 19 18  1  0  0  0  0
 20 19  2  0  0  0  0
 21 19  1  0  0  0  0
 22 23  1  6  0  0  0
 22 26  1  0  0  0  0
 22 21  1  0  0  0  0
 23 25  1  0  0  0  0
 24 25  1  0  0  0  0
 27 29  1  0  0  0  0
 27 28  1  1  0  0  0
 27 26  1  0  0  0  0
 29 34  1  0  0  0  0
 31 32  2  0  0  0  0
 32 30  1  0  0  0  0
 33 29  2  0  0  0  0
 33 31  1  0  0  0  0
 34 30  2  0  0  0  0
 35 40  1  0  0  0  0
 36 37  1  0  0  0  0
 37 41  2  0  0  0  0
 37 42  1  0  0  0  0
 38 41  1  0  0  0  0
 39 40  1  0  0  0  0
 39 36  2  0  0  0  0
 40 38  2  0  0  0  0
 42 43  1  0  0  0  0
M  END
>  <MODEL>
6

>  <REMARK>
 VINA RESULT:      -7.3      1.538      2.541
  Name = 
  12 active torsions:
  status: ('A' for Active; 'I' for Inactive)
    1  A    between atoms: N_1  and  N_34
    2  A    between atoms: N_1  and  C_35
    3  A    between atoms: C_2  and  N_6
    4  A    between atoms: C_2  and  C_13
    5  A    between atoms: S_3  and  C_4
    6  A    between atoms: S_3  and  C_12
    7  A    between atoms: C_4  and  C_15
    8  A    between atoms: C_4  and  O_22
    9  A    between atoms: C_11  and  C_14
   10  A    between atoms: C_14  and  O_22
   11  A    between atoms: C_15  and  C_42
   12  A    between atoms: C_19  and  O_25
                            x       y       z     vdW  Elec       q    Type
                         _______ _______ _______ _____ _____    ______ ____

>  <TORSDO>
F 12

$$$$
=
 OpenBabel11052416243D

 43 47  0  0  1  0  0  0  0  0999 V2000
  179.0060  178.5470  140.9930 C   0  0  2  0  0  3  0  0  0  0  0  0
  183.7250  178.4810  142.8390 C   0  0  2  0  0  3  0  0  0  0  0  0
  185.4680  178.3930  140.6660 C   0  0  2  0  0  3  0  0  0  0  0  0
  180.8850  179.3200  142.5760 C   0  0  1  0  0  3  0  0  0  0  0  0
  179.9160  177.4540  140.4120 C   0  0  0  0  0  2  0  0  0  0  0  0
  179.0260  179.6740  140.1690 O   0  0  0  0  0  1  0  0  0  0  0  0
  181.7250  178.9750  141.3280 C   0  0  2  0  0  3  0  0  0  0  0  0
  179.4050  178.9320  142.4210 C   0  0  0  0  0  2  0  0  0  0  0  0
  181.3890  177.5670  140.8320 C   0  0  0  0  0  2  0  0  0  0  0  0
  184.0450  178.8410  140.3250 C   0  0  0  0  0  2  0  0  0  0  0  0
  183.2260  179.1990  141.5680 C   0  0  2  0  0  3  0  0  0  0  0  0
  182.9030  178.9520  144.0340 C   0  0  0  0  0  2  0  0  0  0  0  0
  185.1590  178.7030  143.1150 N   0  0  0  0  0  0  0  0  0  0  0  0
  185.9540  179.0860  141.9370 C   0  0  0  0  0  2  0  0  0  0  0  0
  181.4300  178.6280  143.8270 C   0  0  0  0  0  2  0  0  0  0  0  0
  186.4240  178.6510  139.5070 C   0  0  2  0  0  3  0  0  0  0  0  0
  185.8820  178.1910  138.3170 F   0  0  0  0  0  0  0  0  0  0  0  0
  187.6930  177.9870  139.7640 N   0  0  0  0  0  2  0  0  0  0  0  0
  188.9130  178.3720  139.1300 C   0  0  0  0  0  0  0  0  0  0  0  0
  188.9550  179.3770  138.3720 O   0  0  0  0  0  0  0  0  0  0  0  0
  190.3960  177.4110  139.4210 S   0  0  0  0  0  0  0  0  0  0  0  0
  190.2440  176.3960  137.9040 C   0  0  1  0  0  3  0  0  0  0  0  0
  191.2440  175.2440  137.8710 C   0  0  0  0  0  2  0  0  0  0  0  0
  193.5640  176.1340  137.7110 C   0  0  0  0  0  1  0  0  0  0  0  0
  192.4010  175.5460  136.9360 C   0  0  0  0  0  2  0  0  0  0  0  0
  188.9430  175.9000  137.7880 O   0  0  0  0  0  0  0  0  0  0  0  0
  188.6420  175.9870  136.4260 C   0  0  2  0  0  3  0  0  0  0  0  0
  189.2160  177.1420  135.8890 O   0  0  0  0  0  1  0  0  0  0  0  0
  187.1620  176.0080  136.2250 C   0  0  0  0  0  0  0  0  0  0  0  0
  185.2280  176.8920  135.0630 C   0  0  0  0  0  3  0  0  0  0  0  0
  184.9400  175.2040  136.7760 C   0  0  0  0  0  3  0  0  0  0  0  0
  184.3930  176.0630  135.8170 C   0  0  0  0  0  3  0  0  0  0  0  0
  186.3230  175.1760  136.9800 C   0  0  0  0  0  3  0  0  0  0  0  0
  186.6110  176.8640  135.2660 C   0  0  0  0  0  3  0  0  0  0  0  0
  185.6860  177.4860  143.5800 N   0  0  0  0  0  2  0  0  0  0  0  0
  188.3400  177.7950  146.1960 C   0  0  0  0  0  3  0  0  0  0  0  0
  189.4440  177.2460  145.5240 C   0  0  0  0  0  0  0  0  0  0  0  0
  188.0450  176.8660  143.5770 C   0  0  0  0  0  3  0  0  0  0  0  0
  187.0980  177.8770  145.5610 C   0  0  0  0  0  3  0  0  0  0  0  0
  186.9460  177.4080  144.2490 C   0  0  0  0  0  0  0  0  0  0  0  0
  189.2870  176.7840  144.2120 C   0  0  0  0  0  3  0  0  0  0  0  0
  190.6980  177.1480  146.1310 O   0  0  0  0  0  0  0  0  0  0  0  0
  190.9120  176.4270  147.3370 C   0  0  0  0  0  1  0  0  0  0  0  0
  1  6  1  6  0  0  0
  1  8  1  0  0  0  0
  2 13  1  0  0  0  0
  2 12  1  1  0  0  0
  3 16  1  6  0  0  0
  3 14  1  0  0  0  0
  4  8  1  6  0  0  0
  4 15  1  0  0  0  0
  5  9  1  0  0  0  0
  5  1  1  0  0  0  0
  7  9  1  1  0  0  0
  7 11  1  0  0  0  0
  7  4  1  0  0  0  0
 10  3  1  0  0  0  0
 11 10  1  6  0  0  0
 11  2  1  0  0  0  0
 13 35  1  0  0  0  0
 14 13  1  0  0  0  0
 15 12  1  0  0  0  0
 16 17  1  6  0  0  0
 16 18  1  0  0  0  0
 19 21  1  0  0  0  0
 19 18  1  0  0  0  0
 20 19  2  0  0  0  0
 22 23  1  1  0  0  0
 22 21  1  0  0  0  0
 25 24  1  0  0  0  0
 25 23  1  0  0  0  0
 26 22  1  0  0  0  0
 27 28  1  1  0  0  0
 27 26  1  0  0  0  0
 29 27  1  0  0  0  0
 29 33  1  0  0  0  0
 30 34  1  0  0  0  0
 30 32  2  0  0  0  0
 31 33  2  0  0  0  0
 32 31  1  0  0  0  0
 34 29  2  0  0  0  0
 35 40  1  0  0  0  0
 37 42  1  0  0  0  0
 37 36  2  0  0  0  0
 38 41  2  0  0  0  0
 38 40  1  0  0  0  0
 39 36  1  0  0  0  0
 40 39  2  0  0  0  0
 41 37  1  0  0  0  0
 42 43  1  0  0  0  0
M  END
>  <MODEL>
7

>  <REMARK>
 VINA RESULT:      -7.3      2.153      3.678
  Name = 
  12 active torsions:
  status: ('A' for Active; 'I' for Inactive)
    1  A    between atoms: N_1  and  N_34
    2  A    between atoms: N_1  and  C_35
    3  A    between atoms: C_2  and  N_6
    4  A    between atoms: C_2  and  C_13
    5  A    between atoms: S_3  and  C_4
    6  A    between atoms: S_3  and  C_12
    7  A    between atoms: C_4  and  C_15
    8  A    between atoms: C_4  and  O_22
    9  A    between atoms: C_11  and  C_14
   10  A    between atoms: C_14  and  O_22
   11  A    between atoms: C_15  and  C_42
   12  A    between atoms: C_19  and  O_25
                            x       y       z     vdW  Elec       q    Type
                         _______ _______ _______ _____ _____    ______ ____

>  <TORSDO>
F 12

$$$$
=
 OpenBabel11052416243D

 43 47  0  0  1  0  0  0  0  0999 V2000
  195.7380  174.5580  136.5060 C   0  0  2  0  0  3  0  0  0  0  0  0
  190.6790  174.3680  136.2850 C   0  0  2  0  0  3  0  0  0  0  0  0
  189.6970  176.3960  137.9260 C   0  0  2  0  0  3  0  0  0  0  0  0
  193.4790  174.3340  135.2880 C   0  0  1  0  0  3  0  0  0  0  0  0
  195.0280  174.5630  137.8680 C   0  0  0  0  0  2  0  0  0  0  0  0
  196.0030  175.8660  136.0990 O   0  0  0  0  0  1  0  0  0  0  0  0
  193.0610  175.2780  136.4360 C   0  0  2  0  0  3  0  0  0  0  0  0
  194.9240  173.8270  135.4330 C   0  0  0  0  0  2  0  0  0  0  0  0
  193.5000  174.7030  137.7850 C   0  0  0  0  0  2  0  0  0  0  0  0
  191.1660  176.5520  137.5270 C   0  0  0  0  0  2  0  0  0  0  0  0
  191.5670  175.6260  136.3750 C   0  0  2  0  0  3  0  0  0  0  0  0
  191.0990  173.5460  135.0710 C   0  0  0  0  0  2  0  0  0  0  0  0
  189.2360  174.6710  136.1940 N   0  0  0  0  0  0  0  0  0  0  0  0
  188.8570  175.9940  136.7160 C   0  0  0  0  0  2  0  0  0  0  0  0
  192.5550  173.1190  135.1970 C   0  0  0  0  0  2  0  0  0  0  0  0
  189.1560  177.6700  138.5640 C   0  0  2  0  0  3  0  0  0  0  0  0
  189.0840  178.6900  137.6290 F   0  0  0  0  0  0  0  0  0  0  0  0
  190.0180  178.0680  139.6660 N   0  0  0  0  0  2  0  0  0  0  0  0
  190.3410  177.2010  140.7530 C   0  0  0  0  0  0  0  0  0  0  0  0
  189.9530  176.0020  140.7570 O   0  0  0  0  0  0  0  0  0  0  0  0
  191.3090  177.8290  142.1220 S   0  0  0  0  0  0  0  0  0  0  0  0
  190.4600  176.8370  143.4050 C   0  0  1  0  0  3  0  0  0  0  0  0
  191.4370  176.0770  144.2970 C   0  0  0  0  0  2  0  0  0  0  0  0
  191.7090  175.8420  146.7610 C   0  0  0  0  0  1  0  0  0  0  0  0
  191.6830  176.8170  145.6000 C   0  0  0  0  0  2  0  0  0  0  0  0
  189.6440  177.6610  144.1860 O   0  0  0  0  0  0  0  0  0  0  0  0
  188.4700  176.9290  144.3800 C   0  0  2  0  0  3  0  0  0  0  0  0
  187.7820  176.8100  143.1700 O   0  0  0  0  0  1  0  0  0  0  0  0
  187.6070  177.6000  145.3980 C   0  0  0  0  0  0  0  0  0  0  0  0
  185.5610  178.7760  145.9470 C   0  0  0  0  0  3  0  0  0  0  0  0
  187.1850  178.3050  147.6810 C   0  0  0  0  0  3  0  0  0  0  0  0
  185.9610  178.8540  147.2840 C   0  0  0  0  0  3  0  0  0  0  0  0
  188.0070  177.6780  146.7400 C   0  0  0  0  0  3  0  0  0  0  0  0
  186.3830  178.1490  145.0050 C   0  0  0  0  0  3  0  0  0  0  0  0
  188.5610  173.7190  136.9750 N   0  0  0  0  0  2  0  0  0  0  0  0
  185.7230  172.3890  134.9340 C   0  0  0  0  0  3  0  0  0  0  0  0
  184.7470  172.1990  135.9250 C   0  0  0  0  0  0  0  0  0  0  0  0
  186.3070  173.0180  137.5940 C   0  0  0  0  0  3  0  0  0  0  0  0
  186.9830  172.8900  135.2730 C   0  0  0  0  0  3  0  0  0  0  0  0
  187.2800  173.2030  136.6070 C   0  0  0  0  0  0  0  0  0  0  0  0
  185.0470  172.5170  137.2540 C   0  0  0  0  0  3  0  0  0  0  0  0
  183.4790  171.6980  135.6190 O   0  0  0  0  0  0  0  0  0  0  0  0
  182.9840  170.4800  136.1580 C   0  0  0  0  0  1  0  0  0  0  0  0
  1  6  1  6  0  0  0
  1  5  1  0  0  0  0
  2 12  1  6  0  0  0
  2 11  1  0  0  0  0
  3 16  1  6  0  0  0
  4 15  1  1  0  0  0
  4  8  1  0  0  0  0
  4  7  1  0  0  0  0
  7  9  1  1  0  0  0
  8  1  1  0  0  0  0
  9  5  1  0  0  0  0
 10  3  1  0  0  0  0
 11  7  1  0  0  0  0
 11 10  1  1  0  0  0
 12 15  1  0  0  0  0
 13  2  1  0  0  0  0
 13 14  1  0  0  0  0
 13 35  1  0  0  0  0
 14  3  1  0  0  0  0
 16 17  1  6  0  0  0
 16 18  1  0  0  0  0
 18 19  1  0  0  0  0
 19 20  2  0  0  0  0
 19 21  1  0  0  0  0
 21 22  1  0  0  0  0
 22 26  1  0  0  0  0
 22 23  1  1  0  0  0
 23 25  1  0  0  0  0
 25 24  1  0  0  0  0
 26 27  1  0  0  0  0
 27 28  1  6  0  0  0
 27 29  1  0  0  0  0
 29 33  1  0  0  0  0
 30 32  2  0  0  0  0
 32 31  1  0  0  0  0
 33 31  2  0  0  0  0
 34 29  2  0  0  0  0
 34 30  1  0  0  0  0
 36 39  2  0  0  0  0
 36 37  1  0  0  0  0
 37 41  2  0  0  0  0
 39 40  1  0  0  0  0
 40 35  1  0  0  0  0
 40 38  2  0  0  0  0
 41 38  1  0  0  0  0
 42 37  1  0  0  0  0
 42 43  1  0  0  0  0
M  END
>  <MODEL>
8

>  <REMARK>
 VINA RESULT:      -7.2      4.061     10.674
  Name = 
  12 active torsions:
  status: ('A' for Active; 'I' for Inactive)
    1  A    between atoms: N_1  and  N_34
    2  A    between atoms: N_1  and  C_35
    3  A    between atoms: C_2  and  N_6
    4  A    between atoms: C_2  and  C_13
    5  A    between atoms: S_3  and  C_4
    6  A    between atoms: S_3  and  C_12
    7  A    between atoms: C_4  and  C_15
    8  A    between atoms: C_4  and  O_22
    9  A    between atoms: C_11  and  C_14
   10  A    between atoms: C_14  and  O_22
   11  A    between atoms: C_15  and  C_42
   12  A    between atoms: C_19  and  O_25
                            x       y       z     vdW  Elec       q    Type
                         _______ _______ _______ _____ _____    ______ ____

>  <TORSDO>
F 12

$$$$
=
 OpenBabel11052416243D

 43 47  0  0  1  0  0  0  0  0999 V2000
  189.2160  177.2000  147.2750 C   0  0  2  0  0  3  0  0  0  0  0  0
  190.2540  177.1400  142.3150 C   0  0  2  0  0  3  0  0  0  0  0  0
  188.0550  178.2260  140.9910 C   0  0  2  0  0  3  0  0  0  0  0  0
  190.7310  177.5480  145.2210 C   0  0  1  0  0  3  0  0  0  0  0  0
  188.1140  176.6000  146.3880 C   0  0  0  0  0  2  0  0  0  0  0  0
  188.9590  178.5520  147.5070 O   0  0  0  0  0  1  0  0  0  0  0  0
  189.3610  177.8820  144.5910 C   0  0  2  0  0  3  0  0  0  0  0  0
  190.6100  177.0260  146.6620 C   0  0  0  0  0  2  0  0  0  0  0  0
  188.3550  176.7650  144.8790 C   0  0  0  0  0  2  0  0  0  0  0  0
  188.1190  178.5410  142.4870 C   0  0  0  0  0  2  0  0  0  0  0  0
  189.4860  178.2250  143.0990 C   0  0  2  0  0  3  0  0  0  0  0  0
  191.6270  176.9450  142.9480 C   0  0  0  0  0  2  0  0  0  0  0  0
  190.4170  177.4560  140.8810 N   0  0  0  0  0  0  0  0  0  0  0  0
  189.4290  178.4090  140.3500 C   0  0  0  0  0  2  0  0  0  0  0  0
  191.4860  176.5030  144.3980 C   0  0  0  0  0  2  0  0  0  0  0  0
  187.0100  179.0840  140.2870 C   0  0  2  0  0  3  0  0  0  0  0  0
  186.2260  179.7540  141.2130 F   0  0  0  0  0  0  0  0  0  0  0  0
  186.1730  178.2420  139.4460 N   0  0  0  0  0  2  0  0  0  0  0  0
  184.9460  178.6930  138.8710 C   0  0  0  0  0  0  0  0  0  0  0  0
  184.5750  179.8900  139.0030 O   0  0  0  0  0  0  0  0  0  0  0  0
  183.9290  177.5400  137.9530 S   0  0  0  0  0  0  0  0  0  0  0  0
  182.4860  177.6520  139.0740 C   0  0  1  0  0  3  0  0  0  0  0  0
  181.3260  176.7700  138.6210 C   0  0  0  0  0  2  0  0  0  0  0  0
  180.5390  174.4420  138.2190 C   0  0  0  0  0  1  0  0  0  0  0  0
  181.6620  175.2970  138.7720 C   0  0  0  0  0  2  0  0  0  0  0  0
  182.8630  177.3120  140.3760 O   0  0  0  0  0  0  0  0  0  0  0  0
  182.1450  178.1830  141.2000 C   0  0  2  0  0  3  0  0  0  0  0  0
  181.9170  179.3870  140.5290 O   0  0  0  0  0  1  0  0  0  0  0  0
  182.9000  178.4350  142.4640 C   0  0  0  0  0  0  0  0  0  0  0  0
  182.9400  179.2760  144.7360 C   0  0  0  0  0  3  0  0  0  0  0  0
  184.9390  178.3050  143.7730 C   0  0  0  0  0  3  0  0  0  0  0  0
  184.2840  178.9100  144.8510 C   0  0  0  0  0  3  0  0  0  0  0  0
  184.2480  178.0670  142.5810 C   0  0  0  0  0  3  0  0  0  0  0  0
  182.2480  179.0380  143.5440 C   0  0  0  0  0  3  0  0  0  0  0  0
  190.2470  176.2560  140.1690 N   0  0  0  0  0  2  0  0  0  0  0  0
  192.7270  176.3040  137.3700 C   0  0  0  0  0  3  0  0  0  0  0  0
  192.0380  175.5710  136.3900 C   0  0  0  0  0  0  0  0  0  0  0  0
  190.1760  175.3040  137.9240 C   0  0  0  0  0  3  0  0  0  0  0  0
  192.1420  176.5340  138.6180 C   0  0  0  0  0  3  0  0  0  0  0  0
  190.8640  176.0300  138.9010 C   0  0  0  0  0  0  0  0  0  0  0  0
  190.7610  175.0750  136.6760 C   0  0  0  0  0  3  0  0  0  0  0  0
  192.5960  175.3220  135.1340 O   0  0  0  0  0  0  0  0  0  0  0  0
  193.7690  175.9770  134.6710 C   0  0  0  0  0  1  0  0  0  0  0  0
  1  6  1  6  0  0  0
  2 12  1  1  0  0  0
  2 11  1  0  0  0  0
  3 16  1  6  0  0  0
  3 10  1  0  0  0  0
  4 15  1  6  0  0  0
  4  8  1  0  0  0  0
  5  1  1  0  0  0  0
  7  9  1  6  0  0  0
  7  4  1  0  0  0  0
  8  1  1  0  0  0  0
  9  5  1  0  0  0  0
 11 10  1  6  0  0  0
 11  7  1  0  0  0  0
 12 15  1  0  0  0  0
 13  2  1  0  0  0  0
 14 13  1  0  0  0  0
 14  3  1  0  0  0  0
 16 17  1  1  0  0  0
 18 16  1  0  0  0  0
 19 20  2  0  0  0  0
 19 18  1  0  0  0  0
 21 19  1  0  0  0  0
 21 22  1  0  0  0  0
 22 23  1  6  0  0  0
 22 26  1  0  0  0  0
 23 25  1  0  0  0  0
 24 25  1  0  0  0  0
 26 27  1  0  0  0  0
 27 28  1  6  0  0  0
 27 29  1  0  0  0  0
 29 33  2  0  0  0  0
 29 34  1  0  0  0  0
 30 32  1  0  0  0  0
 31 32  2  0  0  0  0
 33 31  1  0  0  0  0
 34 30  2  0  0  0  0
 35 13  1  0  0  0  0
 36 39  1  0  0  0  0
 37 41  1  0  0  0  0
 37 36  2  0  0  0  0
 38 40  1  0  0  0  0
 39 40  2  0  0  0  0
 40 35  1  0  0  0  0
 41 38  2  0  0  0  0
 42 37  1  0  0  0  0
 43 42  1  0  0  0  0
M  END
>  <MODEL>
9

>  <REMARK>
 VINA RESULT:      -7.0      3.148      7.507
  Name = 
  12 active torsions:
  status: ('A' for Active; 'I' for Inactive)
    1  A    between atoms: N_1  and  N_34
    2  A    between atoms: N_1  and  C_35
    3  A    between atoms: C_2  and  N_6
    4  A    between atoms: C_2  and  C_13
    5  A    between atoms: S_3  and  C_4
    6  A    between atoms: S_3  and  C_12
    7  A    between atoms: C_4  and  C_15
    8  A    between atoms: C_4  and  O_22
    9  A    between atoms: C_11  and  C_14
   10  A    between atoms: C_14  and  O_22
   11  A    between atoms: C_15  and  C_42
   12  A    between atoms: C_19  and  O_25
                            x       y       z     vdW  Elec       q    Type
                         _______ _______ _______ _____ _____    ______ ____

>  <TORSDO>
F 12

$$$$
