=
 OpenBabel11052413253D

 28 31  0  0  1  0  0  0  0  0999 V2000
  188.1820  177.9030  139.6610 C   0  0  1  0  0  3  0  0  0  0  0  0
  184.7890  178.9960  139.6290 C   0  0  0  0  0  3  0  0  0  0  0  0
  186.7780  178.2050  139.4020 N   0  0  0  0  0  0  0  0  0  0  0  0
  184.8290  178.3690  138.3930 C   0  0  0  0  0  3  0  0  0  0  0  0
  185.9930  178.8840  140.2190 N   0  0  0  0  0  0  0  0  0  0  0  0
  186.1180  177.8810  138.2800 C   0  0  0  0  0  3  0  0  0  0  0  0
  189.0330  179.6990  138.3280 O   0  0  0  0  0  0  0  0  0  0  0  0
  189.9860  177.6290  137.8840 N   0  0  0  0  0  2  0  0  0  0  0  0
  189.0650  178.4660  138.5880 C   0  0  0  0  0  0  0  0  0  0  0  0
  190.1260  176.2040  138.1480 C   0  0  2  0  0  3  0  0  0  0  0  0
  191.6960  173.9700  137.3110 C   0  0  0  0  0  2  0  0  0  0  0  0
  191.5990  175.8930  138.4550 C   0  0  0  0  0  2  0  0  0  0  0  0
  188.1010  175.2830  136.9730 C   0  0  0  0  0  1  0  0  0  0  0  0
  189.6130  175.3880  136.9510 C   0  0  2  0  0  3  0  0  0  0  0  0
  190.2170  173.9810  136.8960 C   0  0  0  0  0  2  0  0  0  0  0  0
  192.2260  175.2720  137.3620 O   0  0  0  0  0  0  0  0  0  0  0  0
  188.6130  178.4050  141.0400 C   0  0  0  0  0  2  0  0  0  0  0  0
  186.3440  177.6180  143.1650 C   0  0  0  0  0  3  0  0  0  0  0  0
  188.3790  177.8700  144.4380 C   0  0  0  0  0  0  0  0  0  0  0  0
  188.6430  177.3010  142.1040 C   0  0  2  0  0  3  0  0  0  0  0  0
  186.2500  178.1770  145.5270 C   0  0  0  0  0  0  0  0  0  0  0  0
  187.7400  177.6100  143.2440 C   0  0  0  0  0  0  0  0  0  0  0  0
  190.3710  175.6110  142.7100 C   0  0  0  0  0  1  0  0  0  0  0  0
  187.6490  178.1530  145.5940 C   0  0  0  0  0  3  0  0  0  0  0  0
  190.1500  177.7750  144.3810 S   0  0  0  0  0  0  0  0  0  0  0  0
  185.4540  178.4850  146.7440 C   0  0  0  0  0  1  0  0  0  0  0  0
  185.5980  177.9060  144.3140 C   0  0  0  0  0  3  0  0  0  0  0  0
  190.0510  177.0920  142.6770 C   0  0  2  0  0  3  0  0  0  0  0  0
  1 17  1  1  0  0  0
  2  5  2  0  0  0  0
  3  1  1  0  0  0  0
  3  5  1  0  0  0  0
  4  2  1  0  0  0  0
  6  4  2  0  0  0  0
  6  3  1  0  0  0  0
  7  9  2  0  0  0  0
  8  9  1  0  0  0  0
  9  1  1  0  0  0  0
 10  8  1  6  0  0  0
 10 12  1  0  0  0  0
 11 16  1  0  0  0  0
 14 13  1  1  0  0  0
 14 10  1  0  0  0  0
 15 14  1  0  0  0  0
 15 11  1  0  0  0  0
 16 12  1  0  0  0  0
 18 22  2  0  0  0  0
 18 27  1  0  0  0  0
 19 24  2  0  0  0  0
 20 17  1  6  0  0  0
 20 28  1  0  0  0  0
 20 22  1  0  0  0  0
 21 24  1  0  0  0  0
 21 26  1  0  0  0  0
 22 19  1  0  0  0  0
 25 19  1  0  0  0  0
 27 21  2  0  0  0  0
 28 23  1  1  0  0  0
 28 25  1  0  0  0  0
M  END
>  <MODEL>
1

>  <REMARK>
 VINA RESULT:      -8.0      0.000      0.000
  Name = 
  5 active torsions:
  status: ('A' for Active; 'I' for Inactive)
    1  A    between atoms: N_2  and  C_3
    2  A    between atoms: C_10  and  C_17
    3  A    between atoms: N_16  and  C_27
    4  A    between atoms: C_17  and  C_27
    5  A    between atoms: C_26  and  C_27
                            x       y       z     vdW  Elec       q    Type
                         _______ _______ _______ _____ _____    ______ ____

>  <TORSDO>
F 5

$$$$
=
 OpenBabel11052413253D

 28 31  0  0  1  0  0  0  0  0999 V2000
  186.0020  178.3570  141.0560 C   0  0  1  0  0  3  0  0  0  0  0  0
  183.0780  178.4100  143.0950 C   0  0  0  0  0  3  0  0  0  0  0  0
  184.9370  178.5930  142.0260 N   0  0  0  0  0  0  0  0  0  0  0  0
  183.8300  179.3610  143.7670 C   0  0  0  0  0  3  0  0  0  0  0  0
  183.7800  177.9560  142.0410 N   0  0  0  0  0  0  0  0  0  0  0  0
  185.0150  179.4480  143.0580 C   0  0  0  0  0  3  0  0  0  0  0  0
  184.8120  179.9180  139.6870 O   0  0  0  0  0  0  0  0  0  0  0  0
  186.4510  178.7080  138.5740 N   0  0  0  0  0  2  0  0  0  0  0  0
  185.7020  179.0290  139.7490 C   0  0  0  0  0  0  0  0  0  0  0  0
  187.5280  177.7280  138.5600 C   0  0  2  0  0  3  0  0  0  0  0  0
  189.9290  177.1390  137.1310 C   0  0  0  0  0  2  0  0  0  0  0  0
  188.8760  178.4640  138.5990 C   0  0  0  0  0  2  0  0  0  0  0  0
  186.3740  175.7410  137.5370 C   0  0  0  0  0  1  0  0  0  0  0  0
  187.4100  176.8250  137.3220 C   0  0  2  0  0  3  0  0  0  0  0  0
  188.7460  176.1800  136.9360 C   0  0  0  0  0  2  0  0  0  0  0  0
  189.4930  178.4600  137.3360 O   0  0  0  0  0  0  0  0  0  0  0  0
  187.3580  178.8070  141.6000 C   0  0  0  0  0  2  0  0  0  0  0  0
  186.9360  177.2590  144.3760 C   0  0  0  0  0  3  0  0  0  0  0  0
  189.2560  177.9210  144.3390 C   0  0  0  0  0  0  0  0  0  0  0  0
  188.1860  177.6570  142.1890 C   0  0  2  0  0  3  0  0  0  0  0  0
  188.1600  177.5550  146.4540 C   0  0  0  0  0  0  0  0  0  0  0  0
  188.0900  177.6120  143.6710 C   0  0  0  0  0  0  0  0  0  0  0  0
  190.1850  176.4340  141.3410 C   0  0  0  0  0  1  0  0  0  0  0  0
  189.3120  177.8940  145.7340 C   0  0  0  0  0  3  0  0  0  0  0  0
  190.6420  178.3020  143.2980 S   0  0  0  0  0  0  0  0  0  0  0  0
  188.1940  177.5300  147.9400 C   0  0  0  0  0  1  0  0  0  0  0  0
  186.9740  177.2340  145.7760 C   0  0  0  0  0  3  0  0  0  0  0  0
  189.6730  177.7750  141.8280 C   0  0  2  0  0  3  0  0  0  0  0  0
  1 17  1  1  0  0  0
  1  3  1  0  0  0  0
  2  4  1  0  0  0  0
  3  5  1  0  0  0  0
  3  6  1  0  0  0  0
  5  2  2  0  0  0  0
  6  4  2  0  0  0  0
  7  9  2  0  0  0  0
  8  9  1  0  0  0  0
  9  1  1  0  0  0  0
 10  8  1  6  0  0  0
 10 12  1  0  0  0  0
 11 16  1  0  0  0  0
 14 13  1  1  0  0  0
 14 10  1  0  0  0  0
 15 11  1  0  0  0  0
 15 14  1  0  0  0  0
 16 12  1  0  0  0  0
 18 27  1  0  0  0  0
 19 24  2  0  0  0  0
 20 17  1  1  0  0  0
 20 22  1  0  0  0  0
 21 26  1  0  0  0  0
 22 19  1  0  0  0  0
 22 18  2  0  0  0  0
 24 21  1  0  0  0  0
 25 19  1  0  0  0  0
 27 21  2  0  0  0  0
 28 23  1  1  0  0  0
 28 20  1  0  0  0  0
 28 25  1  0  0  0  0
M  END
>  <MODEL>
2

>  <REMARK>
 VINA RESULT:      -7.5      1.869      2.992
  Name = 
  5 active torsions:
  status: ('A' for Active; 'I' for Inactive)
    1  A    between atoms: N_2  and  C_3
    2  A    between atoms: C_10  and  C_17
    3  A    between atoms: N_16  and  C_27
    4  A    between atoms: C_17  and  C_27
    5  A    between atoms: C_26  and  C_27
                            x       y       z     vdW  Elec       q    Type
                         _______ _______ _______ _____ _____    ______ ____

>  <TORSDO>
F 5

$$$$
=
 OpenBabel11052413253D

 28 31  0  0  1  0  0  0  0  0999 V2000
  189.4500  177.9390  143.2990 C   0  0  1  0  0  3  0  0  0  0  0  0
  190.8790  177.1230  140.1370 C   0  0  0  0  0  3  0  0  0  0  0  0
  189.7680  177.6340  141.9070 N   0  0  0  0  0  0  0  0  0  0  0  0
  189.5440  177.1700  139.7670 C   0  0  0  0  0  3  0  0  0  0  0  0
  190.9840  177.4050  141.4480 N   0  0  0  0  0  0  0  0  0  0  0  0
  188.8620  177.4940  140.9270 C   0  0  0  0  0  3  0  0  0  0  0  0
  190.7810  179.9210  143.4610 O   0  0  0  0  0  0  0  0  0  0  0  0
  191.2220  178.3250  145.0880 N   0  0  0  0  0  2  0  0  0  0  0  0
  190.5210  178.7800  143.9280 C   0  0  0  0  0  0  0  0  0  0  0  0
  190.9560  177.0420  145.7250 C   0  0  2  0  0  3  0  0  0  0  0  0
  191.9660  175.3950  147.8270 C   0  0  0  0  0  2  0  0  0  0  0  0
  190.8520  177.2480  147.2430 C   0  0  0  0  0  2  0  0  0  0  0  0
  191.8220  175.4410  143.9880 C   0  0  0  0  0  1  0  0  0  0  0  0
  192.0570  176.0320  145.3640 C   0  0  2  0  0  3  0  0  0  0  0  0
  192.1720  174.8980  146.3890 C   0  0  0  0  0  2  0  0  0  0  0  0
  192.0110  176.7990  147.8980 O   0  0  0  0  0  0  0  0  0  0  0  0
  188.0840  178.6160  143.4220 C   0  0  0  0  0  2  0  0  0  0  0  0
  185.0530  177.8580  142.7000 C   0  0  0  0  0  3  0  0  0  0  0  0
  184.9840  178.8070  144.9180 C   0  0  0  0  0  0  0  0  0  0  0  0
  187.0790  177.8060  144.2490 C   0  0  2  0  0  3  0  0  0  0  0  0
  183.0160  178.8930  143.5280 C   0  0  0  0  0  0  0  0  0  0  0  0
  185.6750  178.1610  143.9150 C   0  0  0  0  0  0  0  0  0  0  0  0
  187.2580  176.6920  146.4720 C   0  0  0  0  0  1  0  0  0  0  0  0
  183.6500  179.1780  144.7450 C   0  0  0  0  0  3  0  0  0  0  0  0
  185.9030  179.0760  146.4130 S   0  0  0  0  0  0  0  0  0  0  0  0
  181.5990  179.2880  143.3190 C   0  0  0  0  0  1  0  0  0  0  0  0
  183.7170  178.2300  142.5080 C   0  0  0  0  0  3  0  0  0  0  0  0
  187.2630  178.0290  145.7570 C   0  0  2  0  0  3  0  0  0  0  0  0
  1 17  1  6  0  0  0
  1  9  1  0  0  0  0
  2  5  2  0  0  0  0
  3  1  1  0  0  0  0
  4  2  1  0  0  0  0
  4  6  2  0  0  0  0
  5  3  1  0  0  0  0
  6  3  1  0  0  0  0
  7  9  2  0  0  0  0
  9  8  1  0  0  0  0
 10  8  1  6  0  0  0
 10 12  1  0  0  0  0
 11 16  1  0  0  0  0
 12 16  1  0  0  0  0
 14 13  1  6  0  0  0
 14 10  1  0  0  0  0
 14 15  1  0  0  0  0
 15 11  1  0  0  0  0
 18 22  1  0  0  0  0
 19 25  1  0  0  0  0
 20 17  1  6  0  0  0
 20 28  1  0  0  0  0
 21 24  2  0  0  0  0
 22 20  1  0  0  0  0
 22 19  2  0  0  0  0
 24 19  1  0  0  0  0
 26 21  1  0  0  0  0
 27 18  2  0  0  0  0
 27 21  1  0  0  0  0
 28 25  1  0  0  0  0
 28 23  1  1  0  0  0
M  END
>  <MODEL>
3

>  <REMARK>
 VINA RESULT:      -7.4      3.727      6.037
  Name = 
  5 active torsions:
  status: ('A' for Active; 'I' for Inactive)
    1  A    between atoms: N_2  and  C_3
    2  A    between atoms: C_10  and  C_17
    3  A    between atoms: N_16  and  C_27
    4  A    between atoms: C_17  and  C_27
    5  A    between atoms: C_26  and  C_27
                            x       y       z     vdW  Elec       q    Type
                         _______ _______ _______ _____ _____    ______ ____

>  <TORSDO>
F 5

$$$$
=
 OpenBabel11052413253D

 28 31  0  0  1  0  0  0  0  0999 V2000
  187.4430  178.0990  139.7480 C   0  0  1  0  0  3  0  0  0  0  0  0
  184.2320  179.4210  138.9430 C   0  0  0  0  0  3  0  0  0  0  0  0
  186.0750  178.6060  139.6970 N   0  0  0  0  0  0  0  0  0  0  0  0
  184.0160  179.1210  140.2790 C   0  0  0  0  0  3  0  0  0  0  0  0
  185.4940  179.0920  138.6150 N   0  0  0  0  0  0  0  0  0  0  0  0
  185.2150  178.5960  140.7270 C   0  0  0  0  0  3  0  0  0  0  0  0
  188.8820  179.4740  138.4190 O   0  0  0  0  0  0  0  0  0  0  0  0
  188.1650  177.5290  137.3730 N   0  0  0  0  0  2  0  0  0  0  0  0
  188.1890  178.4240  138.4880 C   0  0  0  0  0  0  0  0  0  0  0  0
  187.4310  176.2720  137.3780 C   0  0  2  0  0  3  0  0  0  0  0  0
  187.4690  173.7130  136.1110 C   0  0  0  0  0  2  0  0  0  0  0  0
  188.4200  175.1140  137.5770 C   0  0  0  0  0  2  0  0  0  0  0  0
  185.3440  176.9140  136.1280 C   0  0  0  0  0  1  0  0  0  0  0  0
  186.6320  176.1170  136.0740 C   0  0  2  0  0  3  0  0  0  0  0  0
  186.3080  174.6540  135.7530 C   0  0  0  0  0  2  0  0  0  0  0  0
  188.6500  174.4300  136.3720 O   0  0  0  0  0  0  0  0  0  0  0  0
  188.1880  178.6310  140.9730 C   0  0  0  0  0  2  0  0  0  0  0  0
  187.0550  177.2950  143.6590 C   0  0  0  0  0  3  0  0  0  0  0  0
  189.3280  177.9380  144.1520 C   0  0  0  0  0  0  0  0  0  0  0  0
  188.8160  177.5230  141.8280 C   0  0  2  0  0  3  0  0  0  0  0  0
  187.7340  177.7360  145.9500 C   0  0  0  0  0  0  0  0  0  0  0  0
  188.3560  177.5870  143.2400 C   0  0  0  0  0  0  0  0  0  0  0  0
  190.9320  176.2280  141.5910 C   0  0  0  0  0  1  0  0  0  0  0  0
  189.0370  178.0140  145.5160 C   0  0  0  0  0  3  0  0  0  0  0  0
  190.9370  178.2330  143.4640 S   0  0  0  0  0  0  0  0  0  0  0  0
  187.4000  177.8210  147.3950 C   0  0  0  0  0  1  0  0  0  0  0  0
  186.7450  177.3730  145.0230 C   0  0  0  0  0  3  0  0  0  0  0  0
  190.3480  177.6050  141.8400 C   0  0  2  0  0  3  0  0  0  0  0  0
  1 17  1  1  0  0  0
  2  4  1  0  0  0  0
  3  1  1  0  0  0  0
  3  6  1  0  0  0  0
  4  6  2  0  0  0  0
  5  2  2  0  0  0  0
  5  3  1  0  0  0  0
  7  9  2  0  0  0  0
  8  9  1  0  0  0  0
  9  1  1  0  0  0  0
 10  8  1  6  0  0  0
 10 12  1  0  0  0  0
 11 16  1  0  0  0  0
 14 13  1  1  0  0  0
 14 10  1  0  0  0  0
 15 14  1  0  0  0  0
 15 11  1  0  0  0  0
 16 12  1  0  0  0  0
 18 27  1  0  0  0  0
 19 24  2  0  0  0  0
 20 17  1  6  0  0  0
 20 28  1  0  0  0  0
 20 22  1  0  0  0  0
 21 26  1  0  0  0  0
 22 18  2  0  0  0  0
 22 19  1  0  0  0  0
 24 21  1  0  0  0  0
 25 19  1  0  0  0  0
 27 21  2  0  0  0  0
 28 23  1  1  0  0  0
 28 25  1  0  0  0  0
M  END
>  <MODEL>
4

>  <REMARK>
 VINA RESULT:      -7.1      1.659      2.169
  Name = 
  5 active torsions:
  status: ('A' for Active; 'I' for Inactive)
    1  A    between atoms: N_2  and  C_3
    2  A    between atoms: C_10  and  C_17
    3  A    between atoms: N_16  and  C_27
    4  A    between atoms: C_17  and  C_27
    5  A    between atoms: C_26  and  C_27
                            x       y       z     vdW  Elec       q    Type
                         _______ _______ _______ _____ _____    ______ ____

>  <TORSDO>
F 5

$$$$
=
 OpenBabel11052413253D

 28 31  0  0  1  0  0  0  0  0999 V2000
  187.5830  177.9960  138.8060 C   0  0  1  0  0  3  0  0  0  0  0  0
  184.3470  179.2640  139.6000 C   0  0  0  0  0  3  0  0  0  0  0  0
  186.3540  178.5130  139.4010 N   0  0  0  0  0  0  0  0  0  0  0  0
  184.8450  179.1160  140.8850 C   0  0  0  0  0  3  0  0  0  0  0  0
  185.2880  178.8840  138.7160 N   0  0  0  0  0  0  0  0  0  0  0  0
  186.1280  178.6270  140.7190 C   0  0  0  0  0  3  0  0  0  0  0  0
  188.2900  179.6400  137.2180 O   0  0  0  0  0  0  0  0  0  0  0  0
  187.4020  177.7090  136.2820 N   0  0  0  0  0  2  0  0  0  0  0  0
  187.7670  178.5090  137.4090 C   0  0  0  0  0  0  0  0  0  0  0  0
  186.8360  176.3740  136.4050 C   0  0  2  0  0  3  0  0  0  0  0  0
  186.7550  173.8950  134.9900 C   0  0  0  0  0  2  0  0  0  0  0  0
  187.9520  175.3360  136.2170 C   0  0  0  0  0  2  0  0  0  0  0  0
  184.4170  176.8130  135.8720 C   0  0  0  0  0  1  0  0  0  0  0  0
  185.7040  176.1800  135.3830 C   0  0  2  0  0  3  0  0  0  0  0  0
  185.4510  174.7030  135.0600 C   0  0  0  0  0  2  0  0  0  0  0  0
  187.8800  174.7360  134.9490 O   0  0  0  0  0  0  0  0  0  0  0  0
  188.8000  178.3240  139.6720 C   0  0  0  0  0  2  0  0  0  0  0  0
  188.9820  176.7360  142.4520 C   0  0  0  0  0  3  0  0  0  0  0  0
  191.2610  177.2060  141.8110 C   0  0  0  0  0  0  0  0  0  0  0  0
  189.6490  177.0940  140.0160 C   0  0  2  0  0  3  0  0  0  0  0  0
  190.7270  176.8700  144.1380 C   0  0  0  0  0  0  0  0  0  0  0  0
  189.9390  177.0130  141.4710 C   0  0  0  0  0  0  0  0  0  0  0  0
  191.2440  175.7370  138.6660 C   0  0  0  0  0  1  0  0  0  0  0  0
  191.6760  177.1350  143.1430 C   0  0  0  0  0  3  0  0  0  0  0  0
  192.3560  177.5030  140.4460 S   0  0  0  0  0  0  0  0  0  0  0  0
  191.1450  176.7990  145.5620 C   0  0  0  0  0  1  0  0  0  0  0  0
  189.3820  176.6680  143.7930 C   0  0  0  0  0  3  0  0  0  0  0  0
  190.9950  177.1010  139.2780 C   0  0  2  0  0  3  0  0  0  0  0  0
  1  3  1  0  0  0  0
  1 17  1  1  0  0  0
  2  4  1  0  0  0  0
  3  6  1  0  0  0  0
  5  3  1  0  0  0  0
  5  2  2  0  0  0  0
  6  4  2  0  0  0  0
  7  9  2  0  0  0  0
  8  9  1  0  0  0  0
  9  1  1  0  0  0  0
 10  8  1  6  0  0  0
 11 15  1  0  0  0  0
 12 10  1  0  0  0  0
 14 13  1  1  0  0  0
 14 10  1  0  0  0  0
 15 14  1  0  0  0  0
 16 11  1  0  0  0  0
 16 12  1  0  0  0  0
 18 27  1  0  0  0  0
 19 24  2  0  0  0  0
 20 17  1  1  0  0  0
 20 22  1  0  0  0  0
 21 26  1  0  0  0  0
 22 19  1  0  0  0  0
 22 18  2  0  0  0  0
 24 21  1  0  0  0  0
 25 19  1  0  0  0  0
 27 21  2  0  0  0  0
 28 23  1  1  0  0  0
 28 20  1  0  0  0  0
 28 25  1  0  0  0  0
M  END
>  <MODEL>
5

>  <REMARK>
 VINA RESULT:      -6.8      2.446      3.637
  Name = 
  5 active torsions:
  status: ('A' for Active; 'I' for Inactive)
    1  A    between atoms: N_2  and  C_3
    2  A    between atoms: C_10  and  C_17
    3  A    between atoms: N_16  and  C_27
    4  A    between atoms: C_17  and  C_27
    5  A    between atoms: C_26  and  C_27
                            x       y       z     vdW  Elec       q    Type
                         _______ _______ _______ _____ _____    ______ ____

>  <TORSDO>
F 5

$$$$
=
 OpenBabel11052413253D

 28 31  0  0  1  0  0  0  0  0999 V2000
  189.4930  177.6260  143.3040 C   0  0  1  0  0  3  0  0  0  0  0  0
  191.5450  176.9090  146.1290 C   0  0  0  0  0  3  0  0  0  0  0  0
  190.4570  177.1410  144.2870 N   0  0  0  0  0  0  0  0  0  0  0  0
  192.0140  175.9320  145.2650 C   0  0  0  0  0  3  0  0  0  0  0  0
  190.5930  177.6280  145.5070 N   0  0  0  0  0  0  0  0  0  0  0  0
  191.2910  176.1070  144.0990 C   0  0  0  0  0  3  0  0  0  0  0  0
  188.2990  175.5530  143.2340 O   0  0  0  0  0  0  0  0  0  0  0  0
  188.7700  176.4680  141.1530 N   0  0  0  0  0  2  0  0  0  0  0  0
  188.8370  176.4860  142.5810 C   0  0  0  0  0  0  0  0  0  0  0  0
  189.3220  177.5250  140.3180 C   0  0  2  0  0  3  0  0  0  0  0  0
  188.7450  178.9250  137.8970 C   0  0  0  0  0  2  0  0  0  0  0  0
  188.2330  178.5730  140.0480 C   0  0  0  0  0  2  0  0  0  0  0  0
  191.2510  176.3340  139.2260 C   0  0  0  0  0  1  0  0  0  0  0  0
  189.8770  176.9350  139.0110 C   0  0  2  0  0  3  0  0  0  0  0  0
  189.9480  177.9700  137.8830 C   0  0  0  0  0  2  0  0  0  0  0  0
  187.7250  178.4550  138.7440 O   0  0  0  0  0  0  0  0  0  0  0  0
  188.4460  178.5330  143.9510 C   0  0  0  0  0  2  0  0  0  0  0  0
  185.4750  177.7800  143.0090 C   0  0  0  0  0  3  0  0  0  0  0  0
  185.2370  178.8030  145.1820 C   0  0  0  0  0  0  0  0  0  0  0  0
  187.3670  177.7600  144.7200 C   0  0  2  0  0  3  0  0  0  0  0  0
  183.3910  178.8610  143.6330 C   0  0  0  0  0  0  0  0  0  0  0  0
  186.0000  178.1180  144.2600 C   0  0  0  0  0  0  0  0  0  0  0  0
  187.3510  176.7200  146.9850 C   0  0  0  0  0  1  0  0  0  0  0  0
  183.9260  179.1810  144.8880 C   0  0  0  0  0  3  0  0  0  0  0  0
  186.0340  179.1130  146.7380 S   0  0  0  0  0  0  0  0  0  0  0  0
  182.0000  179.2620  143.2960 C   0  0  0  0  0  1  0  0  0  0  0  0
  184.1630  178.1580  142.6960 C   0  0  0  0  0  3  0  0  0  0  0  0
  187.4300  178.0320  146.2290 C   0  0  2  0  0  3  0  0  0  0  0  0
  1 17  1  1  0  0  0
  1  3  1  0  0  0  0
  3  5  1  0  0  0  0
  4  2  1  0  0  0  0
  5  2  2  0  0  0  0
  6  3  1  0  0  0  0
  6  4  2  0  0  0  0
  8  9  1  0  0  0  0
  9  7  2  0  0  0  0
  9  1  1  0  0  0  0
 10  8  1  1  0  0  0
 11 16  1  0  0  0  0
 12 10  1  0  0  0  0
 14 13  1  1  0  0  0
 14 10  1  0  0  0  0
 15 11  1  0  0  0  0
 15 14  1  0  0  0  0
 16 12  1  0  0  0  0
 18 22  1  0  0  0  0
 19 25  1  0  0  0  0
 20 17  1  6  0  0  0
 20 28  1  0  0  0  0
 21 24  2  0  0  0  0
 22 20  1  0  0  0  0
 22 19  2  0  0  0  0
 24 19  1  0  0  0  0
 26 21  1  0  0  0  0
 27 18  2  0  0  0  0
 27 21  1  0  0  0  0
 28 25  1  0  0  0  0
 28 23  1  1  0  0  0
M  END
>  <MODEL>
6

>  <REMARK>
 VINA RESULT:      -6.7      2.953      5.133
  Name = 
  5 active torsions:
  status: ('A' for Active; 'I' for Inactive)
    1  A    between atoms: N_2  and  C_3
    2  A    between atoms: C_10  and  C_17
    3  A    between atoms: N_16  and  C_27
    4  A    between atoms: C_17  and  C_27
    5  A    between atoms: C_26  and  C_27
                            x       y       z     vdW  Elec       q    Type
                         _______ _______ _______ _____ _____    ______ ____

>  <TORSDO>
F 5

$$$$
=
 OpenBabel11052413253D

 28 31  0  0  1  0  0  0  0  0999 V2000
  187.0850  178.1730  143.3360 C   0  0  1  0  0  3  0  0  0  0  0  0
  183.9250  179.4960  144.3260 C   0  0  0  0  0  3  0  0  0  0  0  0
  185.6870  178.5450  143.5360 N   0  0  0  0  0  0  0  0  0  0  0  0
  183.5140  178.7350  143.2420 C   0  0  0  0  0  3  0  0  0  0  0  0
  185.2550  179.3640  144.4770 N   0  0  0  0  0  0  0  0  0  0  0  0
  184.6690  178.1460  142.7580 C   0  0  0  0  0  3  0  0  0  0  0  0
  187.2090  175.7880  143.1990 O   0  0  0  0  0  0  0  0  0  0  0  0
  187.8790  176.6750  145.2370 N   0  0  0  0  0  2  0  0  0  0  0  0
  187.3720  176.8170  143.9080 C   0  0  0  0  0  0  0  0  0  0  0  0
  188.1430  177.8090  146.1110 C   0  0  2  0  0  3  0  0  0  0  0  0
  189.4360  178.4060  148.5870 C   0  0  0  0  0  2  0  0  0  0  0  0
  189.6460  177.8630  146.4240 C   0  0  0  0  0  2  0  0  0  0  0  0
  185.8810  178.1670  147.1510 C   0  0  0  0  0  1  0  0  0  0  0  0
  187.3010  177.6990  147.3930 C   0  0  2  0  0  3  0  0  0  0  0  0
  187.9030  178.4900  148.5600 C   0  0  0  0  0  2  0  0  0  0  0  0
  189.9110  177.4020  147.7240 O   0  0  0  0  0  0  0  0  0  0  0  0
  187.4700  178.2340  141.8570 C   0  0  0  0  0  2  0  0  0  0  0  0
  189.0470  178.5300  139.0810 C   0  0  0  0  0  3  0  0  0  0  0  0
  190.3420  176.9890  140.4130 C   0  0  0  0  0  0  0  0  0  0  0  0
  188.9540  178.5470  141.6300 C   0  0  2  0  0  3  0  0  0  0  0  0
  190.5020  176.9060  138.0090 C   0  0  0  0  0  0  0  0  0  0  0  0
  189.4350  178.0230  140.3260 C   0  0  0  0  0  0  0  0  0  0  0  0
  190.8290  178.9840  143.2130 C   0  0  0  0  0  1  0  0  0  0  0  0
  190.8910  176.4180  139.2630 C   0  0  0  0  0  3  0  0  0  0  0  0
  190.7640  176.4930  142.0640 S   0  0  0  0  0  0  0  0  0  0  0  0
  191.0670  176.3070  136.7720 C   0  0  0  0  0  1  0  0  0  0  0  0
  189.5840  177.9630  137.9180 C   0  0  0  0  0  3  0  0  0  0  0  0
  189.8430  177.9410  142.7250 C   0  0  2  0  0  3  0  0  0  0  0  0
  1 17  1  6  0  0  0
  1  3  1  0  0  0  0
  1  9  1  0  0  0  0
  2  5  2  0  0  0  0
  3  5  1  0  0  0  0
  4  2  1  0  0  0  0
  6  4  2  0  0  0  0
  6  3  1  0  0  0  0
  7  9  2  0  0  0  0
  9  8  1  0  0  0  0
 10  8  1  6  0  0  0
 10 12  1  0  0  0  0
 10 14  1  0  0  0  0
 12 16  1  0  0  0  0
 14 13  1  6  0  0  0
 14 15  1  0  0  0  0
 15 11  1  0  0  0  0
 16 11  1  0  0  0  0
 18 22  1  0  0  0  0
 19 25  1  0  0  0  0
 20 17  1  1  0  0  0
 20 28  1  0  0  0  0
 21 24  2  0  0  0  0
 22 19  2  0  0  0  0
 22 20  1  0  0  0  0
 24 19  1  0  0  0  0
 25 28  1  0  0  0  0
 26 21  1  0  0  0  0
 27 21  1  0  0  0  0
 27 18  2  0  0  0  0
 28 23  1  6  0  0  0
M  END
>  <MODEL>
7

>  <REMARK>
 VINA RESULT:      -6.6      3.146      7.246
  Name = 
  5 active torsions:
  status: ('A' for Active; 'I' for Inactive)
    1  A    between atoms: N_2  and  C_3
    2  A    between atoms: C_10  and  C_17
    3  A    between atoms: N_16  and  C_27
    4  A    between atoms: C_17  and  C_27
    5  A    between atoms: C_26  and  C_27
                            x       y       z     vdW  Elec       q    Type
                         _______ _______ _______ _____ _____    ______ ____

>  <TORSDO>
F 5

$$$$
=
 OpenBabel11052413253D

 28 31  0  0  1  0  0  0  0  0999 V2000
  184.8440  178.4620  140.7360 C   0  0  1  0  0  3  0  0  0  0  0  0
  182.5530  179.1010  143.3920 C   0  0  0  0  0  3  0  0  0  0  0  0
  183.7060  178.6540  141.6310 N   0  0  0  0  0  0  0  0  0  0  0  0
  181.6450  178.8610  142.3720 C   0  0  0  0  0  3  0  0  0  0  0  0
  183.8020  178.9720  142.9090 N   0  0  0  0  0  0  0  0  0  0  0  0
  182.4190  178.5840  141.2590 C   0  0  0  0  0  3  0  0  0  0  0  0
  184.3120  180.3300  139.3380 O   0  0  0  0  0  0  0  0  0  0  0  0
  184.7380  178.3550  138.1930 N   0  0  0  0  0  2  0  0  0  0  0  0
  184.6000  179.1040  139.4030 C   0  0  0  0  0  0  0  0  0  0  0  0
  185.1120  176.9480  138.1680 C   0  0  2  0  0  3  0  0  0  0  0  0
  185.6950  174.8740  136.2940 C   0  0  0  0  0  2  0  0  0  0  0  0
  186.3530  176.7750  137.2800 C   0  0  0  0  0  2  0  0  0  0  0  0
  182.9350  175.8480  138.7830 C   0  0  0  0  0  1  0  0  0  0  0  0
  183.9350  176.0940  137.6720 C   0  0  2  0  0  3  0  0  0  0  0  0
  184.3890  174.7490  137.0920 C   0  0  0  0  0  2  0  0  0  0  0  0
  186.0130  176.2190  136.0350 O   0  0  0  0  0  0  0  0  0  0  0  0
  186.1380  178.9830  141.3630 C   0  0  0  0  0  2  0  0  0  0  0  0
  186.4960  177.2090  144.0100 C   0  0  0  0  0  3  0  0  0  0  0  0
  188.6860  178.0880  143.5050 C   0  0  0  0  0  0  0  0  0  0  0  0
  187.1640  177.8780  141.6410 C   0  0  2  0  0  3  0  0  0  0  0  0
  188.1480  177.4710  145.7730 C   0  0  0  0  0  0  0  0  0  0  0  0
  187.4230  177.7180  143.0950 C   0  0  0  0  0  0  0  0  0  0  0  0
  188.9950  176.9120  140.2530 C   0  0  0  0  0  1  0  0  0  0  0  0
  189.0700  177.9680  144.8420 C   0  0  0  0  0  3  0  0  0  0  0  0
  189.7570  178.6710  142.2150 S   0  0  0  0  0  0  0  0  0  0  0  0
  188.5310  177.3440  147.2030 C   0  0  0  0  0  1  0  0  0  0  0  0
  186.8630  177.0880  145.3560 C   0  0  0  0  0  3  0  0  0  0  0  0
  188.5120  178.1610  140.9630 C   0  0  2  0  0  3  0  0  0  0  0  0
  1 17  1  1  0  0  0
  1  3  1  0  0  0  0
  3  5  1  0  0  0  0
  4  2  1  0  0  0  0
  5  2  2  0  0  0  0
  6  3  1  0  0  0  0
  6  4  2  0  0  0  0
  7  9  2  0  0  0  0
  8  9  1  0  0  0  0
  9  1  1  0  0  0  0
 10  8  1  6  0  0  0
 11 15  1  0  0  0  0
 12 10  1  0  0  0  0
 14 10  1  0  0  0  0
 14 13  1  1  0  0  0
 15 14  1  0  0  0  0
 16 11  1  0  0  0  0
 16 12  1  0  0  0  0
 18 27  1  0  0  0  0
 19 24  2  0  0  0  0
 20 17  1  1  0  0  0
 20 22  1  0  0  0  0
 21 26  1  0  0  0  0
 22 19  1  0  0  0  0
 22 18  2  0  0  0  0
 24 21  1  0  0  0  0
 25 19  1  0  0  0  0
 27 21  2  0  0  0  0
 28 23  1  1  0  0  0
 28 20  1  0  0  0  0
 28 25  1  0  0  0  0
M  END
>  <MODEL>
8

>  <REMARK>
 VINA RESULT:      -6.6      2.859      4.086
  Name = 
  5 active torsions:
  status: ('A' for Active; 'I' for Inactive)
    1  A    between atoms: N_2  and  C_3
    2  A    between atoms: C_10  and  C_17
    3  A    between atoms: N_16  and  C_27
    4  A    between atoms: C_17  and  C_27
    5  A    between atoms: C_26  and  C_27
                            x       y       z     vdW  Elec       q    Type
                         _______ _______ _______ _____ _____    ______ ____

>  <TORSDO>
F 5

$$$$
=
 OpenBabel11052413253D

 28 31  0  0  1  0  0  0  0  0999 V2000
  181.8540  176.4140  139.0520 C   0  0  1  0  0  3  0  0  0  0  0  0
  180.7880  173.4260  137.4250 C   0  0  0  0  0  3  0  0  0  0  0  0
  181.1860  175.2160  138.5520 N   0  0  0  0  0  0  0  0  0  0  0  0
  179.7540  173.5580  138.3390 C   0  0  0  0  0  3  0  0  0  0  0  0
  181.6480  174.4480  137.5820 N   0  0  0  0  0  0  0  0  0  0  0  0
  180.0450  174.7110  139.0470 C   0  0  0  0  0  3  0  0  0  0  0  0
  180.8970  177.9980  137.5360 O   0  0  0  0  0  0  0  0  0  0  0  0
  183.2170  177.9180  137.5130 N   0  0  0  0  0  2  0  0  0  0  0  0
  181.9460  177.4670  137.9890 C   0  0  0  0  0  0  0  0  0  0  0  0
  184.4820  177.3960  138.0120 C   0  0  2  0  0  3  0  0  0  0  0  0
  187.2740  177.9900  137.9330 C   0  0  0  0  0  2  0  0  0  0  0  0
  185.2460  178.5250  138.7190 C   0  0  0  0  0  2  0  0  0  0  0  0
  184.8150  175.3990  136.5180 C   0  0  0  0  0  1  0  0  0  0  0  0
  185.3000  176.7940  136.8580 C   0  0  2  0  0  3  0  0  0  0  0  0
  186.8010  176.7470  137.1650 C   0  0  0  0  0  2  0  0  0  0  0  0
  186.2990  179.0030  137.9220 O   0  0  0  0  0  0  0  0  0  0  0  0
  181.1570  176.9580  140.2990 C   0  0  0  0  0  2  0  0  0  0  0  0
  183.7940  178.0890  141.7310 C   0  0  0  0  0  3  0  0  0  0  0  0
  181.9320  179.0910  142.8950 C   0  0  0  0  0  0  0  0  0  0  0  0
  181.5250  178.4140  140.6120 C   0  0  2  0  0  3  0  0  0  0  0  0
  184.0430  178.8340  144.0300 C   0  0  0  0  0  0  0  0  0  0  0  0
  182.4620  178.5120  141.7610 C   0  0  0  0  0  0  0  0  0  0  0  0
  180.3410  180.5650  140.1840 C   0  0  0  0  0  1  0  0  0  0  0  0
  182.7100  179.2650  144.0410 C   0  0  0  0  0  3  0  0  0  0  0  0
  180.2420  179.6150  142.7550 S   0  0  0  0  0  0  0  0  0  0  0  0
  184.8870  179.0010  145.2420 C   0  0  0  0  0  1  0  0  0  0  0  0
  184.5860  178.2500  142.8750 C   0  0  0  0  0  3  0  0  0  0  0  0
  180.2900  179.2590  140.9520 C   0  0  2  0  0  3  0  0  0  0  0  0
  1 17  1  1  0  0  0
  2  5  2  0  0  0  0
  2  4  1  0  0  0  0
  3  6  1  0  0  0  0
  3  1  1  0  0  0  0
  4  6  2  0  0  0  0
  5  3  1  0  0  0  0
  7  9  2  0  0  0  0
  8  9  1  0  0  0  0
  9  1  1  0  0  0  0
 10  8  1  6  0  0  0
 10 12  1  0  0  0  0
 14 13  1  1  0  0  0
 14 15  1  0  0  0  0
 14 10  1  0  0  0  0
 15 11  1  0  0  0  0
 16 11  1  0  0  0  0
 16 12  1  0  0  0  0
 18 22  2  0  0  0  0
 18 27  1  0  0  0  0
 19 24  2  0  0  0  0
 20 17  1  1  0  0  0
 20 28  1  0  0  0  0
 20 22  1  0  0  0  0
 21 24  1  0  0  0  0
 21 26  1  0  0  0  0
 22 19  1  0  0  0  0
 25 19  1  0  0  0  0
 27 21  2  0  0  0  0
 28 23  1  6  0  0  0
 28 25  1  0  0  0  0
M  END
>  <MODEL>
9

>  <REMARK>
 VINA RESULT:      -6.4      4.546      6.655
  Name = 
  5 active torsions:
  status: ('A' for Active; 'I' for Inactive)
    1  A    between atoms: N_2  and  C_3
    2  A    between atoms: C_10  and  C_17
    3  A    between atoms: N_16  and  C_27
    4  A    between atoms: C_17  and  C_27
    5  A    between atoms: C_26  and  C_27
                            x       y       z     vdW  Elec       q    Type
                         _______ _______ _______ _____ _____    ______ ____

>  <TORSDO>
F 5

$$$$
