=
 OpenBabel11052413473D

 27 31  0  0  1  0  0  0  0  0999 V2000
  189.9980  177.8230  141.2430 N   0  0  0  0  0  2  0  0  0  0  0  0
  187.5590  177.8700  141.4060 C   0  0  0  0  0  0  0  0  0  0  0  0
  188.2690  176.3790  143.2860 C   0  0  0  0  0  2  0  0  0  0  0  0
  184.2590  179.4490  143.6460 C   0  0  0  0  0  2  0  0  0  0  0  0
  183.1860  179.2880  145.7700 O   0  0  0  0  0  0  0  0  0  0  0  0
  186.7110  178.8580  140.8880 C   0  0  0  0  0  3  0  0  0  0  0  0
  186.0220  177.4240  144.7910 N   0  0  0  0  0  0  0  0  0  0  0  0
  191.3210  177.3950  145.2570 C   0  0  0  0  0  0  0  0  0  0  0  0
  185.0480  177.8610  145.5280 C   0  0  0  0  0  3  0  0  0  0  0  0
  191.7740  177.2750  146.5630 O   0  0  0  0  0  1  0  0  0  0  0  0
  186.2600  177.8980  143.4570 C   0  0  0  0  0  0  0  0  0  0  0  0
  188.7540  177.3490  140.6440 C   0  0  1  0  0  3  0  0  0  0  0  0
  184.1180  178.8820  145.0280 C   0  0  0  0  0  0  0  0  0  0  0  0
  185.4250  178.8790  142.8870 C   0  0  0  0  0  0  0  0  0  0  0  0
  190.4070  177.6360  142.6090 C   0  0  0  0  0  0  0  0  0  0  0  0
  187.3320  177.3950  142.7050 C   0  0  0  0  0  0  0  0  0  0  0  0
  190.0770  176.8730  144.8990 C   0  0  0  0  0  3  0  0  0  0  0  0
  185.6730  179.3290  141.6280 N   0  0  0  0  0  0  0  0  0  0  0  0
  192.1080  178.0350  144.3000 C   0  0  0  0  0  3  0  0  0  0  0  0
  191.6510  178.1550  142.9870 C   0  0  0  0  0  3  0  0  0  0  0  0
  189.6050  176.9870  143.5870 C   0  0  0  0  0  0  0  0  0  0  0  0
  188.5980  178.1220  136.4150 C   0  0  0  0  0  3  0  0  0  0  0  0
  188.7220  177.6260  139.1700 C   0  0  0  0  0  0  0  0  0  0  0  0
  188.1710  176.6720  138.3080 C   0  0  0  0  0  3  0  0  0  0  0  0
  188.1110  176.9180  136.9320 C   0  0  0  0  0  3  0  0  0  0  0  0
  189.1430  179.0820  137.2730 C   0  0  0  0  0  3  0  0  0  0  0  0
  189.2030  178.8370  138.6470 C   0  0  0  0  0  3  0  0  0  0  0  0
  1 15  1  0  0  0  0
  2 16  1  0  0  0  0
  3 21  1  0  0  0  0
  4 13  1  0  0  0  0
  6  2  2  0  0  0  0
  6 18  1  0  0  0  0
  7  9  2  0  0  0  0
  8 10  1  0  0  0  0
 11  7  1  0  0  0  0
 12 23  1  6  0  0  0
 12  1  1  0  0  0  0
 12  2  1  0  0  0  0
 13  9  1  0  0  0  0
 13  5  2  0  0  0  0
 14 11  1  0  0  0  0
 14  4  1  0  0  0  0
 15 20  2  0  0  0  0
 15 21  1  0  0  0  0
 16  3  1  0  0  0  0
 16 11  2  0  0  0  0
 17  8  1  0  0  0  0
 18 14  2  0  0  0  0
 19  8  2  0  0  0  0
 20 19  1  0  0  0  0
 21 17  2  0  0  0  0
 22 25  2  0  0  0  0
 22 26  1  0  0  0  0
 24 23  2  0  0  0  0
 25 24  1  0  0  0  0
 26 27  2  0  0  0  0
 27 23  1  0  0  0  0
M  END
>  <MODEL>
1

>  <REMARK>
 VINA RESULT:      -9.1      0.000      0.000
  Name = 
  1 active torsions:
  status: ('A' for Active; 'I' for Inactive)
    1  A    between atoms: C_9  and  C_15
                            x       y       z     vdW  Elec       q    Type
                         _______ _______ _______ _____ _____    ______ ____

>  <TORSDO>
F 1

$$$$
=
 OpenBabel11052413473D

 27 31  0  0  1  0  0  0  0  0999 V2000
  187.0710  178.1960  142.0500 N   0  0  0  0  0  2  0  0  0  0  0  0
  187.4750  177.5410  144.3710 C   0  0  0  0  0  0  0  0  0  0  0  0
  188.8510  175.9340  143.0340 C   0  0  0  0  0  2  0  0  0  0  0  0
  190.3440  177.6450  147.5590 C   0  0  0  0  0  2  0  0  0  0  0  0
  192.4550  176.7470  148.2120 O   0  0  0  0  0  0  0  0  0  0  0  0
  187.3020  178.3470  145.5040 C   0  0  0  0  0  3  0  0  0  0  0  0
  190.7760  175.9810  145.2000 N   0  0  0  0  0  0  0  0  0  0  0  0
  190.7070  177.2970  140.0470 C   0  0  0  0  0  0  0  0  0  0  0  0
  191.6890  175.9680  146.1220 C   0  0  0  0  0  3  0  0  0  0  0  0
  191.8930  177.0300  139.3780 O   0  0  0  0  0  1  0  0  0  0  0  0
  189.5850  176.7750  145.2980 C   0  0  0  0  0  0  0  0  0  0  0  0
  186.4970  177.5400  143.2210 C   0  0  1  0  0  3  0  0  0  0  0  0
  191.5490  176.7790  147.3390 C   0  0  0  0  0  0  0  0  0  0  0  0
  189.3580  177.5900  146.4250 C   0  0  0  0  0  0  0  0  0  0  0  0
  188.3030  177.8410  141.3980 C   0  0  0  0  0  0  0  0  0  0  0  0
  188.6320  176.7560  144.2680 C   0  0  0  0  0  0  0  0  0  0  0  0
  190.3540  176.5450  141.1680 C   0  0  0  0  0  3  0  0  0  0  0  0
  188.2320  178.3480  146.4950 N   0  0  0  0  0  0  0  0  0  0  0  0
  189.8680  178.3170  139.5990 C   0  0  0  0  0  3  0  0  0  0  0  0
  188.6750  178.5860  140.2730 C   0  0  0  0  0  3  0  0  0  0  0  0
  189.1630  176.8050  141.8550 C   0  0  0  0  0  0  0  0  0  0  0  0
  182.5980  179.1170  144.1280 C   0  0  0  0  0  3  0  0  0  0  0  0
  185.1470  178.1070  143.5520 C   0  0  0  0  0  0  0  0  0  0  0  0
  184.2220  178.3100  142.5220 C   0  0  0  0  0  3  0  0  0  0  0  0
  182.9500  178.8170  142.8080 C   0  0  0  0  0  3  0  0  0  0  0  0
  183.5150  178.9080  145.1620 C   0  0  0  0  0  3  0  0  0  0  0  0
  184.7860  178.4020  144.8760 C   0  0  0  0  0  3  0  0  0  0  0  0
  1 12  1  0  0  0  0
  2  6  1  0  0  0  0
  3 16  1  0  0  0  0
  6 18  2  0  0  0  0
  7 11  1  0  0  0  0
  7  9  2  0  0  0  0
  8 17  1  0  0  0  0
  9 13  1  0  0  0  0
 10  8  1  0  0  0  0
 11 14  2  0  0  0  0
 12 23  1  1  0  0  0
 12  2  1  0  0  0  0
 13  4  1  0  0  0  0
 13  5  2  0  0  0  0
 14 18  1  0  0  0  0
 14  4  1  0  0  0  0
 15 21  1  0  0  0  0
 15  1  1  0  0  0  0
 16  2  2  0  0  0  0
 16 11  1  0  0  0  0
 17 21  2  0  0  0  0
 19  8  2  0  0  0  0
 19 20  1  0  0  0  0
 20 15  2  0  0  0  0
 21  3  1  0  0  0  0
 22 26  1  0  0  0  0
 23 27  1  0  0  0  0
 24 25  1  0  0  0  0
 24 23  2  0  0  0  0
 25 22  2  0  0  0  0
 27 26  2  0  0  0  0
M  END
>  <MODEL>
2

>  <REMARK>
 VINA RESULT:      -8.9      2.719      5.942
  Name = 
  1 active torsions:
  status: ('A' for Active; 'I' for Inactive)
    1  A    between atoms: C_9  and  C_15
                            x       y       z     vdW  Elec       q    Type
                         _______ _______ _______ _____ _____    ______ ____

>  <TORSDO>
F 1

$$$$
=
 OpenBabel11052413473D

 27 31  0  0  1  0  0  0  0  0999 V2000
  185.9730  178.3810  141.7970 N   0  0  0  0  0  2  0  0  0  0  0  0
  185.6670  178.1130  144.2080 C   0  0  0  0  0  0  0  0  0  0  0  0
  187.4340  176.4400  143.6270 C   0  0  0  0  0  2  0  0  0  0  0  0
  187.4150  178.9200  148.0400 C   0  0  0  0  0  2  0  0  0  0  0  0
  189.2510  178.3020  149.4320 O   0  0  0  0  0  0  0  0  0  0  0  0
  185.1300  179.0630  145.0870 C   0  0  0  0  0  3  0  0  0  0  0  0
  188.6010  176.9640  146.2290 N   0  0  0  0  0  0  0  0  0  0  0  0
  190.0740  177.4870  141.1440 C   0  0  0  0  0  0  0  0  0  0  0  0
  189.1870  177.1610  147.3690 C   0  0  0  0  0  3  0  0  0  0  0  0
  191.4160  177.2180  140.9130 O   0  0  0  0  0  1  0  0  0  0  0  0
  187.4130  177.6660  145.8340 C   0  0  0  0  0  0  0  0  0  0  0  0
  185.0880  177.8630  142.8360 C   0  0  1  0  0  3  0  0  0  0  0  0
  188.6560  178.1310  148.3360 C   0  0  0  0  0  0  0  0  0  0  0  0
  186.8270  178.6190  146.6900 C   0  0  0  0  0  0  0  0  0  0  0  0
  187.3560  178.0320  141.6090 C   0  0  0  0  0  0  0  0  0  0  0  0
  186.8220  177.4170  144.5850 C   0  0  0  0  0  0  0  0  0  0  0  0
  189.4170  176.8850  142.2180 C   0  0  0  0  0  3  0  0  0  0  0  0
  185.7110  179.2860  146.2950 N   0  0  0  0  0  0  0  0  0  0  0  0
  189.3810  178.3580  140.3040 C   0  0  0  0  0  3  0  0  0  0  0  0
  188.0320  178.6280  140.5380 C   0  0  0  0  0  3  0  0  0  0  0  0
  188.0660  177.1470  142.4660 C   0  0  0  0  0  0  0  0  0  0  0  0
  181.0550  179.2460  142.2580 C   0  0  0  0  0  3  0  0  0  0  0  0
  183.6850  178.3630  142.6500 C   0  0  0  0  0  0  0  0  0  0  0  0
  183.1740  178.4950  141.3550 C   0  0  0  0  0  3  0  0  0  0  0  0
  181.8620  178.9380  141.1580 C   0  0  0  0  0  3  0  0  0  0  0  0
  181.5590  179.1080  143.5550 C   0  0  0  0  0  3  0  0  0  0  0  0
  182.8690  178.6650  143.7520 C   0  0  0  0  0  3  0  0  0  0  0  0
  1 12  1  0  0  0  0
  2 16  2  0  0  0  0
  2  6  1  0  0  0  0
  3 16  1  0  0  0  0
  4 13  1  0  0  0  0
  6 18  2  0  0  0  0
  7  9  2  0  0  0  0
  8 17  1  0  0  0  0
  9 13  1  0  0  0  0
 10  8  1  0  0  0  0
 11  7  1  0  0  0  0
 11 14  2  0  0  0  0
 12 23  1  1  0  0  0
 12  2  1  0  0  0  0
 13  5  2  0  0  0  0
 14  4  1  0  0  0  0
 15  1  1  0  0  0  0
 15 21  1  0  0  0  0
 16 11  1  0  0  0  0
 17 21  2  0  0  0  0
 18 14  1  0  0  0  0
 19 20  1  0  0  0  0
 19  8  2  0  0  0  0
 20 15  2  0  0  0  0
 21  3  1  0  0  0  0
 22 26  1  0  0  0  0
 23 27  1  0  0  0  0
 24 23  2  0  0  0  0
 25 24  1  0  0  0  0
 25 22  2  0  0  0  0
 26 27  2  0  0  0  0
M  END
>  <MODEL>
3

>  <REMARK>
 VINA RESULT:      -8.8      2.692      5.329
  Name = 
  1 active torsions:
  status: ('A' for Active; 'I' for Inactive)
    1  A    between atoms: C_9  and  C_15
                            x       y       z     vdW  Elec       q    Type
                         _______ _______ _______ _____ _____    ______ ____

>  <TORSDO>
F 1

$$$$
=
 OpenBabel11052413473D

 27 31  0  0  1  0  0  0  0  0999 V2000
  190.1250  177.0160  141.9460 N   0  0  0  0  0  2  0  0  0  0  0  0
  188.0450  177.9490  142.8320 C   0  0  0  0  0  0  0  0  0  0  0  0
  188.4380  179.2300  140.7190 C   0  0  0  0  0  2  0  0  0  0  0  0
  183.7880  178.0390  142.3240 C   0  0  0  0  0  2  0  0  0  0  0  0
  182.0910  178.8320  140.8470 O   0  0  0  0  0  0  0  0  0  0  0  0
  187.1730  177.3250  143.7350 C   0  0  0  0  0  3  0  0  0  0  0  0
  185.5600  179.3160  140.3900 N   0  0  0  0  0  0  0  0  0  0  0  0
  189.7070  177.3120  137.7300 C   0  0  0  0  0  0  0  0  0  0  0  0
  184.2820  179.3780  140.1690 C   0  0  0  0  0  3  0  0  0  0  0  0
  189.5810  177.3810  136.3490 O   0  0  0  0  0  1  0  0  0  0  0  0
  186.1200  178.6500  141.5310 C   0  0  0  0  0  0  0  0  0  0  0  0
  189.5470  177.8750  142.9760 C   0  0  1  0  0  3  0  0  0  0  0  0
  183.3230  178.7580  141.0920 C   0  0  0  0  0  0  0  0  0  0  0  0
  185.2830  178.0210  142.4740 C   0  0  0  0  0  0  0  0  0  0  0  0
  189.9650  177.1700  140.5250 C   0  0  0  0  0  0  0  0  0  0  0  0
  187.5100  178.6090  141.7190 C   0  0  0  0  0  0  0  0  0  0  0  0
  189.0470  178.2390  138.5370 C   0  0  0  0  0  3  0  0  0  0  0  0
  185.8300  177.3800  143.5410 N   0  0  0  0  0  0  0  0  0  0  0  0
  190.4920  176.3170  138.3100 C   0  0  0  0  0  3  0  0  0  0  0  0
  190.6180  176.2480  139.6990 C   0  0  0  0  0  3  0  0  0  0  0  0
  189.1620  178.1820  139.9300 C   0  0  0  0  0  0  0  0  0  0  0  0
  190.9780  176.7580  146.8760 C   0  0  0  0  0  3  0  0  0  0  0  0
  190.0240  177.4790  144.3420 C   0  0  0  0  0  0  0  0  0  0  0  0
  191.2050  176.7400  144.4640 C   0  0  0  0  0  3  0  0  0  0  0  0
  191.6800  176.3770  145.7290 C   0  0  0  0  0  3  0  0  0  0  0  0
  189.8000  177.5030  146.7600 C   0  0  0  0  0  3  0  0  0  0  0  0
  189.3250  177.8660  145.4970 C   0  0  0  0  0  3  0  0  0  0  0  0
  1 12  1  0  0  0  0
  2 12  1  0  0  0  0
  2  6  1  0  0  0  0
  3 16  1  0  0  0  0
  4 14  1  0  0  0  0
  5 13  2  0  0  0  0
  7 11  1  0  0  0  0
  8 19  2  0  0  0  0
  8 17  1  0  0  0  0
  9  7  2  0  0  0  0
  9 13  1  0  0  0  0
 10  8  1  0  0  0  0
 11 16  1  0  0  0  0
 11 14  2  0  0  0  0
 12 23  1  1  0  0  0
 13  4  1  0  0  0  0
 14 18  1  0  0  0  0
 15  1  1  0  0  0  0
 16  2  2  0  0  0  0
 17 21  2  0  0  0  0
 18  6  2  0  0  0  0
 19 20  1  0  0  0  0
 20 15  2  0  0  0  0
 21 15  1  0  0  0  0
 21  3  1  0  0  0  0
 23 24  2  0  0  0  0
 23 27  1  0  0  0  0
 24 25  1  0  0  0  0
 25 22  2  0  0  0  0
 26 22  1  0  0  0  0
 27 26  2  0  0  0  0
M  END
>  <MODEL>
4

>  <REMARK>
 VINA RESULT:      -8.4      2.686      5.654
  Name = 
  1 active torsions:
  status: ('A' for Active; 'I' for Inactive)
    1  A    between atoms: C_9  and  C_15
                            x       y       z     vdW  Elec       q    Type
                         _______ _______ _______ _____ _____    ______ ____

>  <TORSDO>
F 1

$$$$
=
 OpenBabel11052413473D

 27 31  0  0  1  0  0  0  0  0999 V2000
  187.9180  177.3560  145.8420 N   0  0  0  0  0  2  0  0  0  0  0  0
  188.2180  177.9740  143.4950 C   0  0  0  0  0  0  0  0  0  0  0  0
  190.3970  178.5750  144.5690 C   0  0  0  0  0  2  0  0  0  0  0  0
  190.1190  176.8370  139.8220 C   0  0  0  0  0  2  0  0  0  0  0  0
  192.2650  176.6730  138.7930 O   0  0  0  0  0  0  0  0  0  0  0  0
  187.4950  177.4720  142.4050 C   0  0  0  0  0  3  0  0  0  0  0  0
  191.6800  177.8340  142.0770 N   0  0  0  0  0  0  0  0  0  0  0  0
  191.7920  176.1860  147.1330 C   0  0  0  0  0  0  0  0  0  0  0  0
  192.3220  177.5030  140.9990 C   0  0  0  0  0  3  0  0  0  0  0  0
  193.0460  175.7810  147.5690 O   0  0  0  0  0  1  0  0  0  0  0  0
  190.2540  177.7240  142.1970 C   0  0  0  0  0  0  0  0  0  0  0  0
  187.5630  178.3250  144.8090 C   0  0  1  0  0  3  0  0  0  0  0  0
  191.6110  176.9900  139.8210 C   0  0  0  0  0  0  0  0  0  0  0  0
  189.4810  177.2400  141.1220 C   0  0  0  0  0  0  0  0  0  0  0  0
  189.2510  177.0070  146.2540 C   0  0  0  0  0  0  0  0  0  0  0  0
  189.6100  178.0920  143.3880 C   0  0  0  0  0  0  0  0  0  0  0  0
  191.6800  177.1270  146.1090 C   0  0  0  0  0  3  0  0  0  0  0  0
  188.1330  177.1280  141.2570 N   0  0  0  0  0  0  0  0  0  0  0  0
  190.6440  175.6550  147.7180 C   0  0  0  0  0  3  0  0  0  0  0  0
  189.3830  176.0630  147.2790 C   0  0  0  0  0  3  0  0  0  0  0  0
  190.4240  177.5450  145.6570 C   0  0  0  0  0  0  0  0  0  0  0  0
  183.3030  178.9080  144.6460 C   0  0  0  0  0  3  0  0  0  0  0  0
  186.0760  178.5140  144.7330 C   0  0  0  0  0  0  0  0  0  0  0  0
  185.3170  178.4340  145.9060 C   0  0  0  0  0  3  0  0  0  0  0  0
  183.9330  178.6280  145.8620 C   0  0  0  0  0  3  0  0  0  0  0  0
  184.0580  178.9960  143.4720 C   0  0  0  0  0  3  0  0  0  0  0  0
  185.4410  178.8030  143.5150 C   0  0  0  0  0  3  0  0  0  0  0  0
  1 15  1  0  0  0  0
  2 12  1  0  0  0  0
  3 21  1  0  0  0  0
  4 14  1  0  0  0  0
  5 13  2  0  0  0  0
  6  2  2  0  0  0  0
  7 11  1  0  0  0  0
  8 10  1  0  0  0  0
  8 19  1  0  0  0  0
  9  7  2  0  0  0  0
 11 16  2  0  0  0  0
 12 23  1  6  0  0  0
 12  1  1  0  0  0  0
 13  4  1  0  0  0  0
 13  9  1  0  0  0  0
 14 18  2  0  0  0  0
 14 11  1  0  0  0  0
 15 20  1  0  0  0  0
 16  2  1  0  0  0  0
 16  3  1  0  0  0  0
 17  8  2  0  0  0  0
 18  6  1  0  0  0  0
 20 19  2  0  0  0  0
 21 17  1  0  0  0  0
 21 15  2  0  0  0  0
 22 25  1  0  0  0  0
 23 24  1  0  0  0  0
 25 24  2  0  0  0  0
 26 27  1  0  0  0  0
 26 22  2  0  0  0  0
 27 23  2  0  0  0  0
M  END
>  <MODEL>
5

>  <REMARK>
 VINA RESULT:      -8.3      2.823      6.101
  Name = 
  1 active torsions:
  status: ('A' for Active; 'I' for Inactive)
    1  A    between atoms: C_9  and  C_15
                            x       y       z     vdW  Elec       q    Type
                         _______ _______ _______ _____ _____    ______ ____

>  <TORSDO>
F 1

$$$$
=
 OpenBabel11052413473D

 27 31  0  0  1  0  0  0  0  0999 V2000
  188.6430  177.7460  146.4990 N   0  0  0  0  0  2  0  0  0  0  0  0
  190.0720  177.0140  144.6540 C   0  0  0  0  0  0  0  0  0  0  0  0
  187.7710  176.3260  143.9540 C   0  0  0  0  0  2  0  0  0  0  0  0
  191.2510  177.8780  140.6220 C   0  0  0  0  0  2  0  0  0  0  0  0
  190.4270  177.8670  138.3830 O   0  0  0  0  0  0  0  0  0  0  0  0
  191.3440  177.5130  144.3390 C   0  0  0  0  0  3  0  0  0  0  0  0
  188.5750  176.8820  141.2250 N   0  0  0  0  0  0  0  0  0  0  0  0
  184.9480  178.7290  144.6490 C   0  0  0  0  0  0  0  0  0  0  0  0
  188.8610  177.1280  139.9840 C   0  0  0  0  0  3  0  0  0  0  0  0
  183.7390  179.0750  144.0620 O   0  0  0  0  0  1  0  0  0  0  0  0
  189.5140  177.0840  142.2930 C   0  0  0  0  0  0  0  0  0  0  0  0
  189.6330  176.7590  146.0760 C   0  0  1  0  0  3  0  0  0  0  0  0
  190.1840  177.6340  139.5960 C   0  0  0  0  0  0  0  0  0  0  0  0
  190.8090  177.5690  142.0250 C   0  0  0  0  0  0  0  0  0  0  0  0
  187.3950  178.0300  145.8430 C   0  0  0  0  0  0  0  0  0  0  0  0
  189.1510  176.8060  143.6200 C   0  0  0  0  0  0  0  0  0  0  0  0
  185.7560  177.7550  144.0610 C   0  0  0  0  0  3  0  0  0  0  0  0
  191.6800  177.7700  143.0490 N   0  0  0  0  0  0  0  0  0  0  0  0
  185.3560  179.3540  145.8270 C   0  0  0  0  0  3  0  0  0  0  0  0
  186.5720  179.0060  146.4170 C   0  0  0  0  0  3  0  0  0  0  0  0
  186.9780  177.3970  144.6400 C   0  0  0  0  0  0  0  0  0  0  0  0
  192.8940  176.4600  148.8660 C   0  0  0  0  0  3  0  0  0  0  0  0
  190.7550  176.6580  147.0670 C   0  0  0  0  0  0  0  0  0  0  0  0
  191.6860  175.6220  146.9410 C   0  0  0  0  0  3  0  0  0  0  0  0
  192.7520  175.5210  147.8400 C   0  0  0  0  0  3  0  0  0  0  0  0
  191.9710  177.5030  148.9920 C   0  0  0  0  0  3  0  0  0  0  0  0
  190.9050  177.6040  148.0940 C   0  0  0  0  0  3  0  0  0  0  0  0
  2 12  1  0  0  0  0
  3 21  1  0  0  0  0
  4 14  1  0  0  0  0
  5 13  2  0  0  0  0
  6  2  1  0  0  0  0
  7 11  1  0  0  0  0
  8 19  1  0  0  0  0
  9  7  2  0  0  0  0
 10  8  1  0  0  0  0
 11 16  1  0  0  0  0
 12  1  1  0  0  0  0
 12 23  1  1  0  0  0
 13  9  1  0  0  0  0
 13  4  1  0  0  0  0
 14 11  2  0  0  0  0
 14 18  1  0  0  0  0
 15 20  1  0  0  0  0
 15  1  1  0  0  0  0
 16  3  1  0  0  0  0
 16  2  2  0  0  0  0
 17 21  1  0  0  0  0
 17  8  2  0  0  0  0
 18  6  2  0  0  0  0
 19 20  2  0  0  0  0
 21 15  2  0  0  0  0
 22 26  1  0  0  0  0
 23 27  1  0  0  0  0
 24 23  2  0  0  0  0
 24 25  1  0  0  0  0
 25 22  2  0  0  0  0
 27 26  2  0  0  0  0
M  END
>  <MODEL>
6

>  <REMARK>
 VINA RESULT:      -8.0      2.593      7.388
  Name = 
  1 active torsions:
  status: ('A' for Active; 'I' for Inactive)
    1  A    between atoms: C_9  and  C_15
                            x       y       z     vdW  Elec       q    Type
                         _______ _______ _______ _____ _____    ______ ____

>  <TORSDO>
F 1

$$$$
=
 OpenBabel11052413473D

 27 31  0  0  1  0  0  0  0  0999 V2000
  190.6420  177.1250  142.0070 N   0  0  0  0  0  2  0  0  0  0  0  0
  188.2890  177.4260  141.4120 C   0  0  0  0  0  0  0  0  0  0  0  0
  188.2150  176.1810  143.5800 C   0  0  0  0  0  2  0  0  0  0  0  0
  184.7290  179.6330  142.3350 C   0  0  0  0  0  2  0  0  0  0  0  0
  183.0760  179.9010  144.0330 O   0  0  0  0  0  0  0  0  0  0  0  0
  187.7690  178.3990  140.5470 C   0  0  0  0  0  3  0  0  0  0  0  0
  185.7940  177.6510  144.1930 N   0  0  0  0  0  0  0  0  0  0  0  0
  190.6760  177.1940  146.2540 C   0  0  0  0  0  0  0  0  0  0  0  0
  184.7160  178.2850  144.5410 C   0  0  0  0  0  3  0  0  0  0  0  0
  190.7110  177.2330  147.6410 O   0  0  0  0  0  1  0  0  0  0  0  0
  186.4690  177.8900  142.9490 C   0  0  0  0  0  0  0  0  0  0  0  0
  189.5710  176.6840  141.1180 C   0  0  1  0  0  3  0  0  0  0  0  0
  184.1180  179.3010  143.6640 C   0  0  0  0  0  0  0  0  0  0  0  0
  185.9760  178.8470  142.0400 C   0  0  0  0  0  0  0  0  0  0  0  0
  190.6080  177.1120  143.4450 C   0  0  0  0  0  0  0  0  0  0  0  0
  187.6340  177.1790  142.6250 C   0  0  0  0  0  0  0  0  0  0  0  0
  189.5290  176.7430  145.5980 C   0  0  0  0  0  3  0  0  0  0  0  0
  186.6360  179.0730  140.8730 N   0  0  0  0  0  0  0  0  0  0  0  0
  191.7850  177.6030  145.5160 C   0  0  0  0  0  3  0  0  0  0  0  0
  191.7490  177.5630  144.1210 C   0  0  0  0  0  3  0  0  0  0  0  0
  189.4770  176.6990  144.2010 C   0  0  0  0  0  0  0  0  0  0  0  0
  190.8640  176.7800  137.0160 C   0  0  0  0  0  3  0  0  0  0  0  0
  190.0050  176.7340  139.6820 C   0  0  0  0  0  0  0  0  0  0  0  0
  191.3710  176.7880  139.3840 C   0  0  0  0  0  3  0  0  0  0  0  0
  191.8000  176.8140  138.0530 C   0  0  0  0  0  3  0  0  0  0  0  0
  189.4980  176.7190  137.3080 C   0  0  0  0  0  3  0  0  0  0  0  0
  189.0680  176.6930  138.6370 C   0  0  0  0  0  3  0  0  0  0  0  0
  1 15  1  0  0  0  0
  2 16  1  0  0  0  0
  3 21  1  0  0  0  0
  4 13  1  0  0  0  0
  6 18  1  0  0  0  0
  6  2  2  0  0  0  0
  7  9  2  0  0  0  0
  8 10  1  0  0  0  0
 11  7  1  0  0  0  0
 12 23  1  6  0  0  0
 12  2  1  0  0  0  0
 12  1  1  0  0  0  0
 13  5  2  0  0  0  0
 13  9  1  0  0  0  0
 14  4  1  0  0  0  0
 14 11  1  0  0  0  0
 15 20  2  0  0  0  0
 15 21  1  0  0  0  0
 16 11  2  0  0  0  0
 16  3  1  0  0  0  0
 17  8  1  0  0  0  0
 18 14  2  0  0  0  0
 19  8  2  0  0  0  0
 20 19  1  0  0  0  0
 21 17  2  0  0  0  0
 22 26  2  0  0  0  0
 22 25  1  0  0  0  0
 24 23  1  0  0  0  0
 25 24  2  0  0  0  0
 26 27  1  0  0  0  0
 27 23  2  0  0  0  0
M  END
>  <MODEL>
7

>  <REMARK>
 VINA RESULT:      -7.6      1.397      1.648
  Name = 
  1 active torsions:
  status: ('A' for Active; 'I' for Inactive)
    1  A    between atoms: C_9  and  C_15
                            x       y       z     vdW  Elec       q    Type
                         _______ _______ _______ _____ _____    ______ ____

>  <TORSDO>
F 1

$$$$
=
 OpenBabel11052413473D

 27 31  0  0  1  0  0  0  0  0999 V2000
  187.7840  177.7200  143.7560 N   0  0  0  0  0  2  0  0  0  0  0  0
  188.6460  177.9410  141.4780 C   0  0  0  0  0  0  0  0  0  0  0  0
  190.4870  178.8340  142.9170 C   0  0  0  0  0  2  0  0  0  0  0  0
  191.4030  176.2940  138.6350 C   0  0  0  0  0  2  0  0  0  0  0  0
  193.7370  176.0720  138.1980 O   0  0  0  0  0  0  0  0  0  0  0  0
  188.2170  177.2200  140.3550 C   0  0  0  0  0  3  0  0  0  0  0  0
  192.3510  177.7470  140.9810 N   0  0  0  0  0  0  0  0  0  0  0  0
  191.2340  177.0010  146.1280 C   0  0  0  0  0  0  0  0  0  0  0  0
  193.2420  177.2710  140.1670 C   0  0  0  0  0  3  0  0  0  0  0  0
  192.3460  176.7460  146.9180 O   0  0  0  0  0  1  0  0  0  0  0  0
  190.9400  177.5820  140.7730 C   0  0  0  0  0  0  0  0  0  0  0  0
  187.6830  178.4760  142.5110 C   0  0  1  0  0  3  0  0  0  0  0  0
  192.8480  176.5250  138.9650 C   0  0  0  0  0  0  0  0  0  0  0  0
  190.4610  176.8800  139.6500 C   0  0  0  0  0  0  0  0  0  0  0  0
  188.9790  177.5200  144.5320 C   0  0  0  0  0  0  0  0  0  0  0  0
  190.0200  178.1140  141.6890 C   0  0  0  0  0  0  0  0  0  0  0  0
  191.3680  177.7450  144.9550 C   0  0  0  0  0  3  0  0  0  0  0  0
  189.1220  176.7190  139.4750 N   0  0  0  0  0  0  0  0  0  0  0  0
  189.9820  176.5170  146.5060 C   0  0  0  0  0  3  0  0  0  0  0  0
  188.8640  176.7740  145.7110 C   0  0  0  0  0  3  0  0  0  0  0  0
  190.2570  178.0090  144.1470 C   0  0  0  0  0  0  0  0  0  0  0  0
  183.5840  178.7730  141.2410 C   0  0  0  0  0  3  0  0  0  0  0  0
  186.2590  178.5680  142.0480 C   0  0  0  0  0  0  0  0  0  0  0  0
  185.2290  178.2750  142.9470 C   0  0  0  0  0  3  0  0  0  0  0  0
  183.8930  178.3740  142.5440 C   0  0  0  0  0  3  0  0  0  0  0  0
  184.6090  179.0750  140.3400 C   0  0  0  0  0  3  0  0  0  0  0  0
  185.9440  178.9760  140.7420 C   0  0  0  0  0  3  0  0  0  0  0  0
  1 15  1  0  0  0  0
  2 16  1  0  0  0  0
  2 12  1  0  0  0  0
  3 21  1  0  0  0  0
  4 13  1  0  0  0  0
  4 14  1  0  0  0  0
  5 13  2  0  0  0  0
  6  2  2  0  0  0  0
  8 19  1  0  0  0  0
  8 10  1  0  0  0  0
  9  7  2  0  0  0  0
 11  7  1  0  0  0  0
 11 16  2  0  0  0  0
 12 23  1  6  0  0  0
 12  1  1  0  0  0  0
 13  9  1  0  0  0  0
 14 11  1  0  0  0  0
 15 20  1  0  0  0  0
 16  3  1  0  0  0  0
 17  8  2  0  0  0  0
 18 14  2  0  0  0  0
 18  6  1  0  0  0  0
 20 19  2  0  0  0  0
 21 15  2  0  0  0  0
 21 17  1  0  0  0  0
 22 25  1  0  0  0  0
 23 24  1  0  0  0  0
 25 24  2  0  0  0  0
 26 27  1  0  0  0  0
 26 22  2  0  0  0  0
 27 23  2  0  0  0  0
M  END
>  <MODEL>
8

>  <REMARK>
 VINA RESULT:      -7.5      2.704      5.786
  Name = 
  1 active torsions:
  status: ('A' for Active; 'I' for Inactive)
    1  A    between atoms: C_9  and  C_15
                            x       y       z     vdW  Elec       q    Type
                         _______ _______ _______ _____ _____    ______ ____

>  <TORSDO>
F 1

$$$$
=
 OpenBabel11052413473D

 27 31  0  0  1  0  0  0  0  0999 V2000
  183.8130  178.4050  142.9940 N   0  0  0  0  0  2  0  0  0  0  0  0
  182.9800  178.2460  140.7010 C   0  0  0  0  0  0  0  0  0  0  0  0
  185.2530  179.2610  140.4550 C   0  0  0  0  0  2  0  0  0  0  0  0
  183.3380  176.0740  137.0200 C   0  0  0  0  0  2  0  0  0  0  0  0
  184.8430  175.6860  135.2090 O   0  0  0  0  0  0  0  0  0  0  0  0
  181.9730  177.3860  140.2410 C   0  0  0  0  0  3  0  0  0  0  0  0
  185.4850  177.8160  137.9520 N   0  0  0  0  0  0  0  0  0  0  0  0
  188.0150  177.8950  142.6310 C   0  0  0  0  0  0  0  0  0  0  0  0
  185.6650  177.1850  136.8330 C   0  0  0  0  0  3  0  0  0  0  0  0
  189.3870  177.7100  142.5360 O   0  0  0  0  0  1  0  0  0  0  0  0
  184.2890  177.6850  138.7350 C   0  0  0  0  0  0  0  0  0  0  0  0
  182.8830  178.9710  142.0210 C   0  0  1  0  0  3  0  0  0  0  0  0
  184.6350  176.2870  136.2960 C   0  0  0  0  0  0  0  0  0  0  0  0
  183.2420  176.8450  138.3060 C   0  0  0  0  0  0  0  0  0  0  0  0
  185.2360  178.2700  142.8270 C   0  0  0  0  0  0  0  0  0  0  0  0
  184.1490  178.3870  139.9420 C   0  0  0  0  0  0  0  0  0  0  0  0
  187.3100  178.4490  141.5620 C   0  0  0  0  0  3  0  0  0  0  0  0
  182.1230  176.7190  139.0670 N   0  0  0  0  0  0  0  0  0  0  0  0
  187.3400  177.5280  143.7940 C   0  0  0  0  0  3  0  0  0  0  0  0
  185.9590  177.7140  143.8890 C   0  0  0  0  0  3  0  0  0  0  0  0
  185.9260  178.6390  141.6410 C   0  0  0  0  0  0  0  0  0  0  0  0
  178.9310  179.2310  143.7010 C   0  0  0  0  0  3  0  0  0  0  0  0
  181.4950  179.0560  142.5860 C   0  0  0  0  0  0  0  0  0  0  0  0
  181.2260  178.4690  143.8270 C   0  0  0  0  0  3  0  0  0  0  0  0
  179.9460  178.5540  144.3830 C   0  0  0  0  0  3  0  0  0  0  0  0
  179.1960  179.8270  142.4640 C   0  0  0  0  0  3  0  0  0  0  0  0
  180.4750  179.7420  141.9080 C   0  0  0  0  0  3  0  0  0  0  0  0
  2 12  1  0  0  0  0
  3 21  1  0  0  0  0
  4 14  1  0  0  0  0
  5 13  2  0  0  0  0
  6  2  1  0  0  0  0
  7 11  1  0  0  0  0
  8 19  1  0  0  0  0
  9  7  2  0  0  0  0
 10  8  1  0  0  0  0
 11 16  1  0  0  0  0
 12 23  1  1  0  0  0
 12  1  1  0  0  0  0
 13  9  1  0  0  0  0
 13  4  1  0  0  0  0
 14 11  2  0  0  0  0
 14 18  1  0  0  0  0
 15  1  1  0  0  0  0
 15 20  1  0  0  0  0
 16  3  1  0  0  0  0
 16  2  2  0  0  0  0
 17 21  1  0  0  0  0
 17  8  2  0  0  0  0
 18  6  2  0  0  0  0
 19 20  2  0  0  0  0
 21 15  2  0  0  0  0
 22 25  1  0  0  0  0
 23 24  1  0  0  0  0
 24 25  2  0  0  0  0
 26 22  2  0  0  0  0
 27 26  1  0  0  0  0
 27 23  2  0  0  0  0
M  END
>  <MODEL>
9

>  <REMARK>
 VINA RESULT:      -7.2      4.017      7.313
  Name = 
  1 active torsions:
  status: ('A' for Active; 'I' for Inactive)
    1  A    between atoms: C_9  and  C_15
                            x       y       z     vdW  Elec       q    Type
                         _______ _______ _______ _____ _____    ______ ____

>  <TORSDO>
F 1

$$$$
