=
 OpenBabel11052415473D

 34 38  0  0  1  0  0  0  0  0999 V2000
  184.3480  178.6190  141.8010 C   0  0  0  0  0  0  0  0  0  0  0  0
  185.3440  178.0570  138.3000 C   0  0  0  0  0  3  0  0  0  0  0  0
  183.3860  178.7730  139.2210 N   0  0  0  0  0  2  0  0  0  0  0  0
  183.9550  178.6750  144.2200 C   0  0  0  0  0  0  0  0  0  0  0  0
  184.8140  178.5340  143.1280 C   0  0  0  0  0  3  0  0  0  0  0  0
  182.1030  179.0290  142.6900 C   0  0  0  0  0  0  0  0  0  0  0  0
  180.7090  179.2840  142.5320 N   0  0  0  0  0  1  0  0  0  0  0  0
  182.6050  178.9260  143.9880 C   0  0  0  0  0  3  0  0  0  0  0  0
  182.5250  178.9970  140.2430 C   0  0  0  0  0  0  0  0  0  0  0  0
  182.9690  178.8770  141.5750 C   0  0  0  0  0  0  0  0  0  0  0  0
  181.3310  179.2880  139.9720 O   0  0  0  0  0  0  0  0  0  0  0  0
  186.6740  177.3860  138.2690 C   0  0  0  0  0  2  0  0  0  0  0  0
  187.7630  178.2480  138.8020 C   0  0  0  0  0  0  0  0  0  0  0  0
  187.7170  178.6840  140.0580 C   0  0  0  0  0  3  0  0  0  0  0  0
  184.6960  178.4690  139.3950 C   0  0  0  0  0  0  0  0  0  0  0  0
  186.5710  178.5750  140.9790 C   0  0  0  0  0  3  0  0  0  0  0  0
  185.2470  178.4940  140.7090 C   0  0  0  0  0  0  0  0  0  0  0  0
  188.9680  178.4750  137.9790 C   0  0  0  0  0  0  0  0  0  0  0  0
  189.0910  179.5460  137.3270 O   0  0  0  0  0  0  0  0  0  0  0  0
  190.0620  177.4630  137.9050 C   0  0  0  0  0  1  0  0  0  0  0  0
  184.3990  178.6020  145.5510 O   0  0  0  0  0  0  0  0  0  0  0  0
  187.3910  178.0970  147.7340 C   0  0  0  0  0  3  0  0  0  0  0  0
  186.6160  177.8070  145.0570 C   0  0  0  0  0  3  0  0  0  0  0  0
  190.5260  176.8260  146.2340 C   0  0  0  0  0  0  0  0  0  0  0  0
  189.6100  177.2960  147.1810 C   0  0  0  0  0  3  0  0  0  0  0  0
  188.3080  177.6250  146.7930 C   0  0  0  0  0  0  0  0  0  0  0  0
  188.8340  177.0070  144.5010 C   0  0  0  0  0  3  0  0  0  0  0  0
  187.9170  177.4780  145.4430 C   0  0  0  0  0  0  0  0  0  0  0  0
  190.1350  176.6810  144.8950 C   0  0  0  0  0  3  0  0  0  0  0  0
  185.6910  178.2750  145.9990 C   0  0  0  0  0  0  0  0  0  0  0  0
  186.0910  178.4230  147.3370 C   0  0  0  0  0  3  0  0  0  0  0  0
  191.9100  176.4740  146.6650 C   0  0  2  0  0  3  0  0  0  0  0  0
  192.1070  175.1080  146.5790 F   0  0  0  0  0  0  0  0  0  0  0  0
  192.1260  176.8990  147.9770 O   0  0  0  0  0  1  0  0  0  0  0  0
  1  5  1  0  0  0  0
  2 15  2  0  0  0  0
  3 15  1  0  0  0  0
  3  9  1  0  0  0  0
  4 21  1  0  0  0  0
  5  4  2  0  0  0  0
  6  8  2  0  0  0  0
  7  6  1  0  0  0  0
  8  4  1  0  0  0  0
  9 10  1  0  0  0  0
 10  1  2  0  0  0  0
 10  6  1  0  0  0  0
 11  9  2  0  0  0  0
 12  2  1  0  0  0  0
 12 13  1  0  0  0  0
 13 14  2  0  0  0  0
 14 16  1  0  0  0  0
 15 17  1  0  0  0  0
 17 16  2  0  0  0  0
 17  1  1  0  0  0  0
 18 13  1  0  0  0  0
 19 18  2  0  0  0  0
 20 18  1  0  0  0  0
 21 30  1  0  0  0  0
 23 28  2  0  0  0  0
 23 30  1  0  0  0  0
 24 32  1  0  0  0  0
 24 25  2  0  0  0  0
 26 25  1  0  0  0  0
 26 22  2  0  0  0  0
 27 29  2  0  0  0  0
 27 28  1  0  0  0  0
 28 26  1  0  0  0  0
 29 24  1  0  0  0  0
 30 31  2  0  0  0  0
 31 22  1  0  0  0  0
 32 33  1  1  0  0  0
 32 34  1  0  0  0  0
M  END
>  <MODEL>
1

>  <REMARK>
 VINA RESULT:     -11.5      0.000      0.000
  Name = 
  4 active torsions:
  status: ('A' for Active; 'I' for Inactive)
    1  A    between atoms: C_3  and  C_25
    2  A    between atoms: C_7  and  C_11
    3  A    between atoms: C_8  and  O_18
    4  A    between atoms: O_18  and  C_30
                            x       y       z     vdW  Elec       q    Type
                         _______ _______ _______ _____ _____    ______ ____

>  <TORSDO>
F 4

$$$$
=
 OpenBabel11052415473D

 34 38  0  0  1  0  0  0  0  0999 V2000
  183.0000  178.6260  141.7330 C   0  0  0  0  0  0  0  0  0  0  0  0
  183.0620  177.7740  138.1500 C   0  0  0  0  0  3  0  0  0  0  0  0
  181.3840  178.5210  139.5000 N   0  0  0  0  0  2  0  0  0  0  0  0
  183.2570  178.8910  144.1560 C   0  0  0  0  0  0  0  0  0  0  0  0
  183.8030  178.6740  142.8890 C   0  0  0  0  0  3  0  0  0  0  0  0
  181.0520  179.0580  143.1530 C   0  0  0  0  0  0  0  0  0  0  0  0
  179.6550  179.2630  143.3530 N   0  0  0  0  0  1  0  0  0  0  0  0
  181.8830  179.0860  144.2730 C   0  0  0  0  0  3  0  0  0  0  0  0
  180.8140  178.8140  140.6940 C   0  0  0  0  0  0  0  0  0  0  0  0
  181.5990  178.8280  141.8640 C   0  0  0  0  0  0  0  0  0  0  0  0
  179.5770  179.0490  140.7280 O   0  0  0  0  0  0  0  0  0  0  0  0
  184.3680  177.1360  137.8200 C   0  0  0  0  0  2  0  0  0  0  0  0
  185.5150  178.0700  137.9700 C   0  0  0  0  0  0  0  0  0  0  0  0
  185.7820  178.6180  139.1540 C   0  0  0  0  0  3  0  0  0  0  0  0
  182.7070  178.2670  139.3420 C   0  0  0  0  0  0  0  0  0  0  0  0
  184.9260  178.5640  140.3530 C   0  0  0  0  0  3  0  0  0  0  0  0
  183.5830  178.4250  140.4540 C   0  0  0  0  0  0  0  0  0  0  0  0
  186.4480  178.2520  136.8400 C   0  0  0  0  0  0  0  0  0  0  0  0
  187.4030  179.0690  136.9380 O   0  0  0  0  0  0  0  0  0  0  0  0
  186.2960  177.4810  135.5720 C   0  0  0  0  0  1  0  0  0  0  0  0
  184.0400  178.9520  145.3210 O   0  0  0  0  0  0  0  0  0  0  0  0
  187.3780  177.4050  144.6650 C   0  0  0  0  0  3  0  0  0  0  0  0
  185.9520  178.6250  146.7450 C   0  0  0  0  0  3  0  0  0  0  0  0
  189.8620  177.2410  147.4030 C   0  0  0  0  0  0  0  0  0  0  0  0
  189.2730  177.0940  146.1430 C   0  0  0  0  0  3  0  0  0  0  0  0
  187.9710  177.5520  145.9200 C   0  0  0  0  0  0  0  0  0  0  0  0
  187.8440  178.3140  148.2260 C   0  0  0  0  0  3  0  0  0  0  0  0
  187.2520  178.1670  146.9690 C   0  0  0  0  0  0  0  0  0  0  0  0
  189.1460  177.8530  148.4420 C   0  0  0  0  0  3  0  0  0  0  0  0
  185.3550  178.4840  145.4860 C   0  0  0  0  0  0  0  0  0  0  0  0
  186.0760  177.8660  144.4510 C   0  0  0  0  0  3  0  0  0  0  0  0
  191.2540  176.7520  147.6230 C   0  0  2  0  0  3  0  0  0  0  0  0
  191.8810  177.5100  148.5950 F   0  0  0  0  0  0  0  0  0  0  0  0
  191.9790  176.8200  146.4320 O   0  0  0  0  0  1  0  0  0  0  0  0
  1 10  2  0  0  0  0
  1  5  1  0  0  0  0
  2 15  2  0  0  0  0
  3  9  1  0  0  0  0
  4  8  1  0  0  0  0
  4 21  1  0  0  0  0
  5  4  2  0  0  0  0
  6  7  1  0  0  0  0
  6  8  2  0  0  0  0
  9 11  2  0  0  0  0
  9 10  1  0  0  0  0
 10  6  1  0  0  0  0
 12 13  1  0  0  0  0
 12  2  1  0  0  0  0
 13 14  2  0  0  0  0
 14 16  1  0  0  0  0
 15  3  1  0  0  0  0
 15 17  1  0  0  0  0
 16 17  2  0  0  0  0
 17  1  1  0  0  0  0
 18 19  2  0  0  0  0
 18 13  1  0  0  0  0
 20 18  1  0  0  0  0
 21 30  1  0  0  0  0
 22 26  1  0  0  0  0
 23 28  1  0  0  0  0
 24 32  1  0  0  0  0
 24 29  1  0  0  0  0
 25 24  2  0  0  0  0
 26 25  1  0  0  0  0
 26 28  2  0  0  0  0
 27 29  2  0  0  0  0
 28 27  1  0  0  0  0
 30 23  2  0  0  0  0
 31 22  2  0  0  0  0
 31 30  1  0  0  0  0
 32 34  1  6  0  0  0
 32 33  1  0  0  0  0
M  END
>  <MODEL>
2

>  <REMARK>
 VINA RESULT:     -11.3      1.536      2.153
  Name = 
  4 active torsions:
  status: ('A' for Active; 'I' for Inactive)
    1  A    between atoms: C_3  and  C_25
    2  A    between atoms: C_7  and  C_11
    3  A    between atoms: C_8  and  O_18
    4  A    between atoms: O_18  and  C_30
                            x       y       z     vdW  Elec       q    Type
                         _______ _______ _______ _____ _____    ______ ____

>  <TORSDO>
F 4

$$$$
=
 OpenBabel11052415473D

 34 38  0  0  1  0  0  0  0  0999 V2000
  187.0110  178.1330  144.1710 C   0  0  0  0  0  0  0  0  0  0  0  0
  188.8190  177.6130  147.3370 C   0  0  0  0  0  3  0  0  0  0  0  0
  186.6020  177.8900  146.8870 N   0  0  0  0  0  2  0  0  0  0  0  0
  186.1620  178.6780  141.9370 C   0  0  0  0  0  0  0  0  0  0  0  0
  187.1990  178.2730  142.7820 C   0  0  0  0  0  3  0  0  0  0  0  0
  184.6740  178.7900  143.8520 C   0  0  0  0  0  0  0  0  0  0  0  0
  183.3620  179.0680  144.3370 N   0  0  0  0  0  1  0  0  0  0  0  0
  184.9060  178.9280  142.4830 C   0  0  0  0  0  3  0  0  0  0  0  0
  185.5440  178.2070  146.1030 C   0  0  0  0  0  0  0  0  0  0  0  0
  185.7250  178.3890  144.7170 C   0  0  0  0  0  0  0  0  0  0  0  0
  184.4160  178.3540  146.6440 O   0  0  0  0  0  0  0  0  0  0  0  0
  190.2850  177.7020  147.0860 C   0  0  0  0  0  2  0  0  0  0  0  0
  190.7860  176.6010  146.2210 C   0  0  0  0  0  0  0  0  0  0  0  0
  190.3150  176.4550  144.9850 C   0  0  0  0  0  3  0  0  0  0  0  0
  187.8560  177.6920  146.4120 C   0  0  0  0  0  0  0  0  0  0  0  0
  189.1630  177.1650  144.4000 C   0  0  0  0  0  3  0  0  0  0  0  0
  188.0760  177.6990  145.0040 C   0  0  0  0  0  0  0  0  0  0  0  0
  191.9220  175.7800  146.6860 C   0  0  0  0  0  0  0  0  0  0  0  0
  192.4350  174.9240  145.9160 O   0  0  0  0  0  0  0  0  0  0  0  0
  192.4920  175.9430  148.0550 C   0  0  0  0  0  1  0  0  0  0  0  0
  186.3250  178.8170  140.5480 O   0  0  0  0  0  0  0  0  0  0  0  0
  188.2220  177.3690  137.6720 C   0  0  0  0  0  3  0  0  0  0  0  0
  188.6160  178.1110  140.3450 C   0  0  0  0  0  3  0  0  0  0  0  0
  191.7910  176.4980  138.1190 C   0  0  0  0  0  0  0  0  0  0  0  0
  190.5370  176.6660  137.5230 C   0  0  0  0  0  3  0  0  0  0  0  0
  189.4760  177.2020  138.2610 C   0  0  0  0  0  0  0  0  0  0  0  0
  190.9300  177.4070  140.2000 C   0  0  0  0  0  3  0  0  0  0  0  0
  189.6750  177.5760  139.6090 C   0  0  0  0  0  0  0  0  0  0  0  0
  191.9860  176.8700  139.4570 C   0  0  0  0  0  3  0  0  0  0  0  0
  187.3570  178.2860  139.7560 C   0  0  0  0  0  0  0  0  0  0  0  0
  187.1690  177.9050  138.4170 C   0  0  0  0  0  3  0  0  0  0  0  0
  192.9130  175.9310  137.3160 C   0  0  2  0  0  3  0  0  0  0  0  0
  193.4000  174.7830  137.9150 F   0  0  0  0  0  0  0  0  0  0  0  0
  193.9380  176.8700  137.1950 O   0  0  0  0  0  1  0  0  0  0  0  0
  1 10  1  0  0  0  0
  1 17  1  0  0  0  0
  4  8  2  0  0  0  0
  4  5  1  0  0  0  0
  5  1  2  0  0  0  0
  6  7  1  0  0  0  0
  6 10  2  0  0  0  0
  8  6  1  0  0  0  0
  9 11  2  0  0  0  0
  9  3  1  0  0  0  0
 10  9  1  0  0  0  0
 12  2  1  0  0  0  0
 13 18  1  0  0  0  0
 13 12  1  0  0  0  0
 14 13  2  0  0  0  0
 15  3  1  0  0  0  0
 15  2  2  0  0  0  0
 16 14  1  0  0  0  0
 16 17  2  0  0  0  0
 17 15  1  0  0  0  0
 18 20  1  0  0  0  0
 19 18  2  0  0  0  0
 21  4  1  0  0  0  0
 22 26  2  0  0  0  0
 22 31  1  0  0  0  0
 24 29  1  0  0  0  0
 25 24  2  0  0  0  0
 25 26  1  0  0  0  0
 26 28  1  0  0  0  0
 28 27  1  0  0  0  0
 28 23  2  0  0  0  0
 29 27  2  0  0  0  0
 30 23  1  0  0  0  0
 30 21  1  0  0  0  0
 31 30  2  0  0  0  0
 32 34  1  1  0  0  0
 32 33  1  0  0  0  0
 32 24  1  0  0  0  0
M  END
>  <MODEL>
3

>  <REMARK>
 VINA RESULT:     -11.3      2.717      7.358
  Name = 
  4 active torsions:
  status: ('A' for Active; 'I' for Inactive)
    1  A    between atoms: C_3  and  C_25
    2  A    between atoms: C_7  and  C_11
    3  A    between atoms: C_8  and  O_18
    4  A    between atoms: O_18  and  C_30
                            x       y       z     vdW  Elec       q    Type
                         _______ _______ _______ _____ _____    ______ ____

>  <TORSDO>
F 4

$$$$
=
 OpenBabel11052415473D

 34 38  0  0  1  0  0  0  0  0999 V2000
  185.0170  178.6010  142.8710 C   0  0  0  0  0  0  0  0  0  0  0  0
  185.1720  178.7320  146.5490 C   0  0  0  0  0  3  0  0  0  0  0  0
  183.4070  178.6250  145.1100 N   0  0  0  0  0  2  0  0  0  0  0  0
  185.2710  178.7480  140.4370 C   0  0  0  0  0  0  0  0  0  0  0  0
  185.8200  178.6020  141.7130 C   0  0  0  0  0  3  0  0  0  0  0  0
  183.0570  178.8660  141.4270 C   0  0  0  0  0  0  0  0  0  0  0  0
  181.6540  179.0030  141.2150 N   0  0  0  0  0  1  0  0  0  0  0  0
  183.8900  178.8740  140.3080 C   0  0  0  0  0  3  0  0  0  0  0  0
  182.8170  178.6880  143.8920 C   0  0  0  0  0  0  0  0  0  0  0  0
  183.6090  178.7280  142.7280 C   0  0  0  0  0  0  0  0  0  0  0  0
  181.5600  178.7310  143.8340 O   0  0  0  0  0  0  0  0  0  0  0  0
  186.5740  179.0050  146.9720 C   0  0  0  0  0  2  0  0  0  0  0  0
  187.5020  177.8950  146.6290 C   0  0  0  0  0  0  0  0  0  0  0  0
  187.6760  177.5360  145.3590 C   0  0  0  0  0  3  0  0  0  0  0  0
  184.7490  178.5580  145.2910 C   0  0  0  0  0  0  0  0  0  0  0  0
  186.8800  177.9940  144.2060 C   0  0  0  0  0  3  0  0  0  0  0  0
  185.5990  178.4310  144.1550 C   0  0  0  0  0  0  0  0  0  0  0  0
  188.3480  177.3100  147.6890 C   0  0  0  0  0  0  0  0  0  0  0  0
  187.9310  177.2710  148.8760 O   0  0  0  0  0  0  0  0  0  0  0  0
  189.6980  176.7510  147.3870 C   0  0  0  0  0  1  0  0  0  0  0  0
  186.0510  178.7430  139.2690 O   0  0  0  0  0  0  0  0  0  0  0  0
  189.5850  177.7490  139.9720 C   0  0  0  0  0  3  0  0  0  0  0  0
  187.7360  177.7510  137.8670 C   0  0  0  0  0  3  0  0  0  0  0  0
  191.6170  176.2620  137.2600 C   0  0  0  0  0  0  0  0  0  0  0  0
  191.2470  176.7550  138.5160 C   0  0  0  0  0  3  0  0  0  0  0  0
  189.9570  177.2530  138.7220 C   0  0  0  0  0  0  0  0  0  0  0  0
  189.3970  176.7590  136.4080 C   0  0  0  0  0  3  0  0  0  0  0  0
  189.0250  177.2540  137.6600 C   0  0  0  0  0  0  0  0  0  0  0  0
  190.6890  176.2630  136.2080 C   0  0  0  0  0  3  0  0  0  0  0  0
  187.3570  178.2440  139.1210 C   0  0  0  0  0  0  0  0  0  0  0  0
  188.2930  178.2440  140.1690 C   0  0  0  0  0  3  0  0  0  0  0  0
  192.9950  175.7290  137.0580 C   0  0  2  0  0  3  0  0  0  0  0  0
  193.2560  174.7180  137.9650 F   0  0  0  0  0  0  0  0  0  0  0  0
  193.9310  176.7520  137.2110 O   0  0  0  0  0  1  0  0  0  0  0  0
  1 17  1  0  0  0  0
  2 12  1  0  0  0  0
  3 15  1  0  0  0  0
  4  5  1  0  0  0  0
  5  1  2  0  0  0  0
  6 10  2  0  0  0  0
  7  6  1  0  0  0  0
  8  4  2  0  0  0  0
  8  6  1  0  0  0  0
  9  3  1  0  0  0  0
 10  1  1  0  0  0  0
 10  9  1  0  0  0  0
 11  9  2  0  0  0  0
 13 12  1  0  0  0  0
 13 18  1  0  0  0  0
 14 13  2  0  0  0  0
 15  2  2  0  0  0  0
 16 14  1  0  0  0  0
 17 16  2  0  0  0  0
 17 15  1  0  0  0  0
 18 19  2  0  0  0  0
 20 18  1  0  0  0  0
 21  4  1  0  0  0  0
 22 31  1  0  0  0  0
 23 30  1  0  0  0  0
 24 25  2  0  0  0  0
 25 26  1  0  0  0  0
 26 22  2  0  0  0  0
 27 28  1  0  0  0  0
 28 23  2  0  0  0  0
 28 26  1  0  0  0  0
 29 27  2  0  0  0  0
 29 24  1  0  0  0  0
 30 21  1  0  0  0  0
 30 31  2  0  0  0  0
 32 34  1  1  0  0  0
 32 24  1  0  0  0  0
 32 33  1  0  0  0  0
M  END
>  <MODEL>
4

>  <REMARK>
 VINA RESULT:     -11.1      2.510      7.103
  Name = 
  4 active torsions:
  status: ('A' for Active; 'I' for Inactive)
    1  A    between atoms: C_3  and  C_25
    2  A    between atoms: C_7  and  C_11
    3  A    between atoms: C_8  and  O_18
    4  A    between atoms: O_18  and  C_30
                            x       y       z     vdW  Elec       q    Type
                         _______ _______ _______ _____ _____    ______ ____

>  <TORSDO>
F 4

$$$$
=
 OpenBabel11052415473D

 34 38  0  0  1  0  0  0  0  0999 V2000
  188.3540  177.8250  145.0710 C   0  0  0  0  0  0  0  0  0  0  0  0
  191.5650  177.3190  143.3390 C   0  0  0  0  0  3  0  0  0  0  0  0
  190.9500  177.0040  145.5120 N   0  0  0  0  0  2  0  0  0  0  0  0
  186.1570  178.4760  145.9430 C   0  0  0  0  0  0  0  0  0  0  0  0
  187.0270  178.2530  144.8720 C   0  0  0  0  0  3  0  0  0  0  0  0
  187.9140  177.8100  147.4800 C   0  0  0  0  0  0  0  0  0  0  0  0
  188.3070  177.6000  148.8350 N   0  0  0  0  0  1  0  0  0  0  0  0
  186.6110  178.2460  147.2390 C   0  0  0  0  0  3  0  0  0  0  0  0
  190.1240  177.1270  146.5780 C   0  0  0  0  0  0  0  0  0  0  0  0
  188.8060  177.5920  146.3980 C   0  0  0  0  0  0  0  0  0  0  0  0
  190.5700  176.8390  147.7210 O   0  0  0  0  0  0  0  0  0  0  0  0
  191.4730  177.8780  141.9610 C   0  0  0  0  0  2  0  0  0  0  0  0
  190.5030  177.1410  141.1080 C   0  0  0  0  0  0  0  0  0  0  0  0
  189.2200  177.0800  141.4540 C   0  0  0  0  0  3  0  0  0  0  0  0
  190.5740  177.2700  144.2360 C   0  0  0  0  0  0  0  0  0  0  0  0
  188.6410  177.5090  142.7390 C   0  0  0  0  0  3  0  0  0  0  0  0
  189.2110  177.5860  143.9650 C   0  0  0  0  0  0  0  0  0  0  0  0
  190.9460  176.6230  139.7980 C   0  0  0  0  0  0  0  0  0  0  0  0
  190.1420  175.9780  139.0730 O   0  0  0  0  0  0  0  0  0  0  0  0
  192.3320  176.8520  139.2980 C   0  0  0  0  0  1  0  0  0  0  0  0
  184.8280  178.8950  145.7670 O   0  0  0  0  0  0  0  0  0  0  0  0
  182.0180  179.0020  143.3050 C   0  0  0  0  0  3  0  0  0  0  0  0
  184.8170  178.9050  143.3610 C   0  0  0  0  0  3  0  0  0  0  0  0
  182.7860  178.9760  139.6850 C   0  0  0  0  0  0  0  0  0  0  0  0
  182.0630  179.0030  140.8820 C   0  0  0  0  0  3  0  0  0  0  0  0
  182.7350  178.9780  142.1080 C   0  0  0  0  0  0  0  0  0  0  0  0
  184.8660  178.9040  140.9380 C   0  0  0  0  0  3  0  0  0  0  0  0
  184.1470  178.9290  142.1360 C   0  0  0  0  0  0  0  0  0  0  0  0
  184.1880  178.9280  139.7160 C   0  0  0  0  0  3  0  0  0  0  0  0
  184.1020  178.9350  144.5640 C   0  0  0  0  0  0  0  0  0  0  0  0
  182.6980  178.9770  144.5250 C   0  0  0  0  0  3  0  0  0  0  0  0
  182.0540  179.0090  138.3860 C   0  0  2  0  0  3  0  0  0  0  0  0
  182.7630  178.3220  137.4180 F   0  0  0  0  0  0  0  0  0  0  0  0
  181.8610  180.3300  137.9790 O   0  0  0  0  0  1  0  0  0  0  0  0
  1 10  1  0  0  0  0
  2 15  2  0  0  0  0
  3  9  1  0  0  0  0
  4  8  2  0  0  0  0
  5  1  2  0  0  0  0
  5  4  1  0  0  0  0
  6  7  1  0  0  0  0
  8  6  1  0  0  0  0
  9 11  2  0  0  0  0
 10  9  1  0  0  0  0
 10  6  2  0  0  0  0
 12  2  1  0  0  0  0
 13 14  2  0  0  0  0
 13 12  1  0  0  0  0
 14 16  1  0  0  0  0
 15  3  1  0  0  0  0
 16 17  2  0  0  0  0
 17 15  1  0  0  0  0
 17  1  1  0  0  0  0
 18 13  1  0  0  0  0
 19 18  2  0  0  0  0
 20 18  1  0  0  0  0
 21  4  1  0  0  0  0
 22 31  1  0  0  0  0
 23 30  1  0  0  0  0
 24 29  1  0  0  0  0
 24 25  2  0  0  0  0
 25 26  1  0  0  0  0
 26 28  1  0  0  0  0
 26 22  2  0  0  0  0
 27 28  1  0  0  0  0
 28 23  2  0  0  0  0
 29 27  2  0  0  0  0
 30 21  1  0  0  0  0
 31 30  2  0  0  0  0
 32 33  1  6  0  0  0
 32 24  1  0  0  0  0
 34 32  1  0  0  0  0
M  END
>  <MODEL>
5

>  <REMARK>
 VINA RESULT:     -11.0      3.715      7.542
  Name = 
  4 active torsions:
  status: ('A' for Active; 'I' for Inactive)
    1  A    between atoms: C_3  and  C_25
    2  A    between atoms: C_7  and  C_11
    3  A    between atoms: C_8  and  O_18
    4  A    between atoms: O_18  and  C_30
                            x       y       z     vdW  Elec       q    Type
                         _______ _______ _______ _____ _____    ______ ____

>  <TORSDO>
F 4

$$$$
=
 OpenBabel11052415473D

 34 38  0  0  1  0  0  0  0  0999 V2000
  189.0210  177.5170  144.4180 C   0  0  0  0  0  0  0  0  0  0  0  0
  191.7800  177.1280  142.0090 C   0  0  0  0  0  3  0  0  0  0  0  0
  191.6810  176.8040  144.2640 N   0  0  0  0  0  2  0  0  0  0  0  0
  187.0500  178.0860  145.7600 C   0  0  0  0  0  0  0  0  0  0  0  0
  187.6670  177.8910  144.5210 C   0  0  0  0  0  3  0  0  0  0  0  0
  189.1320  177.5020  146.8640 C   0  0  0  0  0  0  0  0  0  0  0  0
  189.8260  177.3170  148.0960 N   0  0  0  0  0  1  0  0  0  0  0  0
  187.7910  177.8830  146.9210 C   0  0  0  0  0  3  0  0  0  0  0  0
  191.1100  176.9010  145.4890 C   0  0  0  0  0  0  0  0  0  0  0  0
  189.7670  177.3110  145.6090 C   0  0  0  0  0  0  0  0  0  0  0  0
  191.8120  176.6400  146.5010 O   0  0  0  0  0  0  0  0  0  0  0  0
  191.3600  177.6730  140.6880 C   0  0  0  0  0  2  0  0  0  0  0  0
  190.2550  176.8920  140.0720 C   0  0  0  0  0  0  0  0  0  0  0  0
  189.0840  176.7820  140.6960 C   0  0  0  0  0  3  0  0  0  0  0  0
  191.0180  177.0460  143.1060 C   0  0  0  0  0  0  0  0  0  0  0  0
  188.7910  177.1960  142.0800 C   0  0  0  0  0  3  0  0  0  0  0  0
  189.6170  177.3050  143.1470 C   0  0  0  0  0  0  0  0  0  0  0  0
  190.4130  176.3830  138.6950 C   0  0  0  0  0  0  0  0  0  0  0  0
  190.9350  175.2530  138.4990 O   0  0  0  0  0  0  0  0  0  0  0  0
  189.9600  177.1750  137.5150 C   0  0  0  0  0  1  0  0  0  0  0  0
  185.6990  178.4500  145.8870 O   0  0  0  0  0  0  0  0  0  0  0  0
  182.4880  178.9190  144.0320 C   0  0  0  0  0  3  0  0  0  0  0  0
  185.2190  178.5470  143.5310 C   0  0  0  0  0  3  0  0  0  0  0  0
  182.5270  178.9480  140.3320 C   0  0  0  0  0  0  0  0  0  0  0  0
  182.0590  179.0030  141.6490 C   0  0  0  0  0  3  0  0  0  0  0  0
  182.9510  178.8680  142.7170 C   0  0  0  0  0  0  0  0  0  0  0  0
  184.7930  178.6280  141.1470 C   0  0  0  0  0  3  0  0  0  0  0  0
  184.3280  178.6810  142.4640 C   0  0  0  0  0  0  0  0  0  0  0  0
  183.8950  178.7620  140.0840 C   0  0  0  0  0  3  0  0  0  0  0  0
  184.7600  178.6030  144.8530 C   0  0  0  0  0  0  0  0  0  0  0  0
  183.3880  178.7840  145.0930 C   0  0  0  0  0  3  0  0  0  0  0  0
  181.5630  179.0990  139.2040 C   0  0  2  0  0  3  0  0  0  0  0  0
  180.3100  178.6530  139.5810 F   0  0  0  0  0  0  0  0  0  0  0  0
  182.0060  178.3770  138.0960 O   0  0  0  0  0  1  0  0  0  0  0  0
  1  5  2  0  0  0  0
  1 10  1  0  0  0  0
  2 15  2  0  0  0  0
  3  9  1  0  0  0  0
  4 21  1  0  0  0  0
  4  8  2  0  0  0  0
  5  4  1  0  0  0  0
  6  8  1  0  0  0  0
  6  7  1  0  0  0  0
  9 10  1  0  0  0  0
  9 11  2  0  0  0  0
 10  6  2  0  0  0  0
 12  2  1  0  0  0  0
 13 12  1  0  0  0  0
 13 14  2  0  0  0  0
 14 16  1  0  0  0  0
 15 17  1  0  0  0  0
 15  3  1  0  0  0  0
 16 17  2  0  0  0  0
 17  1  1  0  0  0  0
 18 13  1  0  0  0  0
 19 18  2  0  0  0  0
 20 18  1  0  0  0  0
 22 31  1  0  0  0  0
 23 30  1  0  0  0  0
 24 25  2  0  0  0  0
 25 26  1  0  0  0  0
 26 22  2  0  0  0  0
 27 28  1  0  0  0  0
 28 26  1  0  0  0  0
 28 23  2  0  0  0  0
 29 24  1  0  0  0  0
 29 27  2  0  0  0  0
 30 31  2  0  0  0  0
 30 21  1  0  0  0  0
 32 34  1  6  0  0  0
 32 33  1  0  0  0  0
 32 24  1  0  0  0  0
M  END
>  <MODEL>
6

>  <REMARK>
 VINA RESULT:     -10.9      3.867      7.510
  Name = 
  4 active torsions:
  status: ('A' for Active; 'I' for Inactive)
    1  A    between atoms: C_3  and  C_25
    2  A    between atoms: C_7  and  C_11
    3  A    between atoms: C_8  and  O_18
    4  A    between atoms: O_18  and  C_30
                            x       y       z     vdW  Elec       q    Type
                         _______ _______ _______ _____ _____    ______ ____

>  <TORSDO>
F 4

$$$$
=
 OpenBabel11052415473D

 34 38  0  0  1  0  0  0  0  0999 V2000
  189.2390  177.7620  141.9870 C   0  0  0  0  0  0  0  0  0  0  0  0
  190.8760  176.6800  145.1040 C   0  0  0  0  0  3  0  0  0  0  0  0
  191.6990  177.0510  143.0110 N   0  0  0  0  0  2  0  0  0  0  0  0
  187.8090  178.2760  140.0640 C   0  0  0  0  0  0  0  0  0  0  0  0
  187.9900  178.1150  141.4400 C   0  0  0  0  0  3  0  0  0  0  0  0
  190.1560  177.7640  139.7170 C   0  0  0  0  0  0  0  0  0  0  0  0
  191.2230  177.5990  138.7850 N   0  0  0  0  0  1  0  0  0  0  0  0
  188.8990  178.1020  139.2160 C   0  0  0  0  0  3  0  0  0  0  0  0
  191.5960  177.2730  141.6790 C   0  0  0  0  0  0  0  0  0  0  0  0
  190.3450  177.5890  141.1130 C   0  0  0  0  0  0  0  0  0  0  0  0
  192.6320  177.1680  140.9690 O   0  0  0  0  0  0  0  0  0  0  0  0
  189.8360  176.3940  146.1320 C   0  0  0  0  0  2  0  0  0  0  0  0
  189.0870  177.6110  146.5420 C   0  0  0  0  0  0  0  0  0  0  0  0
  188.3870  178.3010  145.6440 C   0  0  0  0  0  3  0  0  0  0  0  0
  190.6560  177.1510  143.8710 C   0  0  0  0  0  0  0  0  0  0  0  0
  188.4170  178.1130  144.1830 C   0  0  0  0  0  3  0  0  0  0  0  0
  189.4010  177.6260  143.3910 C   0  0  0  0  0  0  0  0  0  0  0  0
  188.9920  177.9490  147.9770 C   0  0  0  0  0  0  0  0  0  0  0  0
  190.0420  178.1210  148.6520 O   0  0  0  0  0  0  0  0  0  0  0  0
  187.6730  178.1010  148.6560 C   0  0  0  0  0  1  0  0  0  0  0  0
  186.5740  178.6360  139.4970 O   0  0  0  0  0  0  0  0  0  0  0  0
  182.8820  178.5200  140.0690 C   0  0  0  0  0  3  0  0  0  0  0  0
  185.2710  178.7330  141.5170 C   0  0  0  0  0  3  0  0  0  0  0  0
  181.5820  178.7400  143.5260 C   0  0  0  0  0  0  0  0  0  0  0  0
  181.6170  178.6290  142.1320 C   0  0  0  0  0  3  0  0  0  0  0  0
  182.8430  178.6270  141.4590 C   0  0  0  0  0  0  0  0  0  0  0  0
  184.0080  178.8440  143.5830 C   0  0  0  0  0  3  0  0  0  0  0  0
  184.0470  178.7350  142.1900 C   0  0  0  0  0  0  0  0  0  0  0  0
  182.7800  178.8460  144.2490 C   0  0  0  0  0  3  0  0  0  0  0  0
  185.3160  178.6190  140.1220 C   0  0  0  0  0  0  0  0  0  0  0  0
  184.1120  178.5190  139.4050 C   0  0  0  0  0  3  0  0  0  0  0  0
  180.2670  178.7330  144.2290 C   0  0  2  0  0  3  0  0  0  0  0  0
  179.8840  177.4370  144.5200 F   0  0  0  0  0  0  0  0  0  0  0  0
  179.2960  179.3450  143.4350 O   0  0  0  0  0  1  0  0  0  0  0  0
  1 17  1  0  0  0  0
  2 12  1  0  0  0  0
  3 15  1  0  0  0  0
  4  5  2  0  0  0  0
  5  1  1  0  0  0  0
  6 10  1  0  0  0  0
  7  6  1  0  0  0  0
  8  6  2  0  0  0  0
  8  4  1  0  0  0  0
  9  3  1  0  0  0  0
 10  9  1  0  0  0  0
 10  1  2  0  0  0  0
 11  9  2  0  0  0  0
 12 13  1  0  0  0  0
 13 18  1  0  0  0  0
 14 13  2  0  0  0  0
 15  2  2  0  0  0  0
 16 14  1  0  0  0  0
 17 15  1  0  0  0  0
 17 16  2  0  0  0  0
 18 19  2  0  0  0  0
 18 20  1  0  0  0  0
 21  4  1  0  0  0  0
 21 30  1  0  0  0  0
 22 26  1  0  0  0  0
 23 28  1  0  0  0  0
 24 32  1  0  0  0  0
 24 29  1  0  0  0  0
 25 24  2  0  0  0  0
 26 25  1  0  0  0  0
 26 28  2  0  0  0  0
 27 29  2  0  0  0  0
 28 27  1  0  0  0  0
 30 23  2  0  0  0  0
 31 22  2  0  0  0  0
 31 30  1  0  0  0  0
 32 34  1  6  0  0  0
 32 33  1  0  0  0  0
M  END
>  <MODEL>
7

>  <REMARK>
 VINA RESULT:     -10.2      3.675      8.547
  Name = 
  4 active torsions:
  status: ('A' for Active; 'I' for Inactive)
    1  A    between atoms: C_3  and  C_25
    2  A    between atoms: C_7  and  C_11
    3  A    between atoms: C_8  and  O_18
    4  A    between atoms: O_18  and  C_30
                            x       y       z     vdW  Elec       q    Type
                         _______ _______ _______ _____ _____    ______ ____

>  <TORSDO>
F 4

$$$$
=
 OpenBabel11052415473D

 34 38  0  0  1  0  0  0  0  0999 V2000
  185.9600  178.1020  143.9740 C   0  0  0  0  0  0  0  0  0  0  0  0
  182.3370  178.7270  143.7530 C   0  0  0  0  0  3  0  0  0  0  0  0
  183.8060  178.9300  145.4840 N   0  0  0  0  0  2  0  0  0  0  0  0
  188.3000  177.3860  143.8280 C   0  0  0  0  0  0  0  0  0  0  0  0
  187.0720  177.6690  143.2250 C   0  0  0  0  0  3  0  0  0  0  0  0
  187.3590  177.9960  145.9810 C   0  0  0  0  0  0  0  0  0  0  0  0
  187.5690  178.1450  147.3830 N   0  0  0  0  0  1  0  0  0  0  0  0
  188.4310  177.5580  145.2030 C   0  0  0  0  0  3  0  0  0  0  0  0
  184.9950  178.7470  146.1060 C   0  0  0  0  0  0  0  0  0  0  0  0
  186.1050  178.2760  145.3760 C   0  0  0  0  0  0  0  0  0  0  0  0
  185.0720  178.9840  147.3400 O   0  0  0  0  0  0  0  0  0  0  0  0
  181.8330  178.2340  142.4400 C   0  0  0  0  0  2  0  0  0  0  0  0
  182.3840  179.0000  141.2910 C   0  0  0  0  0  0  0  0  0  0  0  0
  183.6970  179.0300  141.0740 C   0  0  0  0  0  3  0  0  0  0  0  0
  183.6120  178.7220  144.1580 C   0  0  0  0  0  0  0  0  0  0  0  0
  184.7430  178.5330  141.9850 C   0  0  0  0  0  3  0  0  0  0  0  0
  184.7290  178.4040  143.3330 C   0  0  0  0  0  0  0  0  0  0  0  0
  181.4540  179.5860  140.3040 C   0  0  0  0  0  0  0  0  0  0  0  0
  180.3350  180.0270  140.6790 O   0  0  0  0  0  0  0  0  0  0  0  0
  181.8100  179.6780  138.8580 C   0  0  0  0  0  1  0  0  0  0  0  0
  189.4240  176.9610  143.1000 O   0  0  0  0  0  0  0  0  0  0  0  0
  190.9540  176.7520  139.6960 C   0  0  0  0  0  3  0  0  0  0  0  0
  188.5490  177.4990  140.9240 C   0  0  0  0  0  3  0  0  0  0  0  0
  188.9620  177.7870  136.7540 C   0  0  0  0  0  0  0  0  0  0  0  0
  190.0260  177.3160  137.5290 C   0  0  0  0  0  3  0  0  0  0  0  0
  189.8940  177.2190  138.9180 C   0  0  0  0  0  0  0  0  0  0  0  0
  187.6190  178.0640  138.7590 C   0  0  0  0  0  3  0  0  0  0  0  0
  188.6810  177.5950  139.5370 C   0  0  0  0  0  0  0  0  0  0  0  0
  187.7580  178.1590  137.3710 C   0  0  0  0  0  3  0  0  0  0  0  0
  189.6080  177.0250  141.7080 C   0  0  0  0  0  0  0  0  0  0  0  0
  190.8120  176.6590  141.0830 C   0  0  0  0  0  3  0  0  0  0  0  0
  189.1180  177.8780  135.2730 C   0  0  2  0  0  3  0  0  0  0  0  0
  187.8900  177.7380  134.6520 F   0  0  0  0  0  0  0  0  0  0  0  0
  189.9900  176.8870  134.8220 O   0  0  0  0  0  1  0  0  0  0  0  0
  1 10  1  0  0  0  0
  2 15  2  0  0  0  0
  3  9  1  0  0  0  0
  4  8  2  0  0  0  0
  5  4  1  0  0  0  0
  5  1  2  0  0  0  0
  6  7  1  0  0  0  0
  8  6  1  0  0  0  0
  9 11  2  0  0  0  0
 10  6  2  0  0  0  0
 10  9  1  0  0  0  0
 12  2  1  0  0  0  0
 13 12  1  0  0  0  0
 14 13  2  0  0  0  0
 14 16  1  0  0  0  0
 15  3  1  0  0  0  0
 16 17  2  0  0  0  0
 17  1  1  0  0  0  0
 17 15  1  0  0  0  0
 18 19  2  0  0  0  0
 18 13  1  0  0  0  0
 20 18  1  0  0  0  0
 21  4  1  0  0  0  0
 22 31  1  0  0  0  0
 23 30  1  0  0  0  0
 24 29  1  0  0  0  0
 24 25  2  0  0  0  0
 25 26  1  0  0  0  0
 26 28  1  0  0  0  0
 26 22  2  0  0  0  0
 27 28  1  0  0  0  0
 28 23  2  0  0  0  0
 29 27  2  0  0  0  0
 30 21  1  0  0  0  0
 31 30  2  0  0  0  0
 32 33  1  6  0  0  0
 32 24  1  0  0  0  0
 34 32  1  0  0  0  0
M  END
>  <MODEL>
8

>  <REMARK>
 VINA RESULT:     -10.1      3.280      7.386
  Name = 
  4 active torsions:
  status: ('A' for Active; 'I' for Inactive)
    1  A    between atoms: C_3  and  C_25
    2  A    between atoms: C_7  and  C_11
    3  A    between atoms: C_8  and  O_18
    4  A    between atoms: O_18  and  C_30
                            x       y       z     vdW  Elec       q    Type
                         _______ _______ _______ _____ _____    ______ ____

>  <TORSDO>
F 4

$$$$
=
 OpenBabel11052415473D

 34 38  0  0  1  0  0  0  0  0999 V2000
  188.8660  177.8730  141.1880 C   0  0  0  0  0  0  0  0  0  0  0  0
  189.5910  178.2630  137.5980 C   0  0  0  0  0  3  0  0  0  0  0  0
  190.8900  177.5700  139.3390 N   0  0  0  0  0  2  0  0  0  0  0  0
  188.1150  177.9400  143.5200 C   0  0  0  0  0  0  0  0  0  0  0  0
  187.8520  178.0340  142.1510 C   0  0  0  0  0  3  0  0  0  0  0  0
  190.4450  177.4810  143.0180 C   0  0  0  0  0  0  0  0  0  0  0  0
  191.7480  177.1980  143.5230 N   0  0  0  0  0  1  0  0  0  0  0  0
  189.4130  177.6590  143.9390 C   0  0  0  0  0  3  0  0  0  0  0  0
  191.1830  177.3890  140.6490 C   0  0  0  0  0  0  0  0  0  0  0  0
  190.1870  177.5850  141.6260 C   0  0  0  0  0  0  0  0  0  0  0  0
  192.3590  177.0680  140.9640 O   0  0  0  0  0  0  0  0  0  0  0  0
  188.4460  178.9500  136.9370 C   0  0  0  0  0  2  0  0  0  0  0  0
  187.2040  178.1320  136.9490 C   0  0  0  0  0  0  0  0  0  0  0  0
  186.6580  177.7620  138.1050 C   0  0  0  0  0  3  0  0  0  0  0  0
  189.6560  177.9010  138.8840 C   0  0  0  0  0  0  0  0  0  0  0  0
  187.2630  177.9040  139.4410 C   0  0  0  0  0  3  0  0  0  0  0  0
  188.5670  177.9530  139.8020 C   0  0  0  0  0  0  0  0  0  0  0  0
  186.4970  177.8780  135.6780 C   0  0  0  0  0  0  0  0  0  0  0  0
  186.9840  178.2950  134.5940 O   0  0  0  0  0  0  0  0  0  0  0  0
  185.2090  177.1260  135.6400 C   0  0  0  0  0  1  0  0  0  0  0  0
  187.1170  178.0890  144.4980 O   0  0  0  0  0  0  0  0  0  0  0  0
  183.5330  178.9850  145.0670 C   0  0  0  0  0  3  0  0  0  0  0  0
  185.2480  178.2170  142.9890 C   0  0  0  0  0  3  0  0  0  0  0  0
  181.1870  178.9500  142.2060 C   0  0  0  0  0  0  0  0  0  0  0  0
  181.6830  179.0920  143.5060 C   0  0  0  0  0  3  0  0  0  0  0  0
  183.0340  178.8480  143.7710 C   0  0  0  0  0  0  0  0  0  0  0  0
  183.3990  178.3210  141.4250 C   0  0  0  0  0  3  0  0  0  0  0  0
  183.8980  178.4600  142.7230 C   0  0  0  0  0  0  0  0  0  0  0  0
  182.0470  178.5660  141.1670 C   0  0  0  0  0  3  0  0  0  0  0  0
  185.7540  178.3590  144.2870 C   0  0  0  0  0  0  0  0  0  0  0  0
  184.8850  178.7390  145.3230 C   0  0  0  0  0  3  0  0  0  0  0  0
  179.7440  179.2210  141.9390 C   0  0  2  0  0  3  0  0  0  0  0  0
  179.4550  180.5530  142.1700 F   0  0  0  0  0  0  0  0  0  0  0  0
  178.9470  178.4170  142.7550 O   0  0  0  0  0  1  0  0  0  0  0  0
  1 10  2  0  0  0  0
  1  5  1  0  0  0  0
  2 15  2  0  0  0  0
  3  9  1  0  0  0  0
  4  8  1  0  0  0  0
  4 21  1  0  0  0  0
  5  4  2  0  0  0  0
  6  7  1  0  0  0  0
  6  8  2  0  0  0  0
  9 11  2  0  0  0  0
  9 10  1  0  0  0  0
 10  6  1  0  0  0  0
 12 13  1  0  0  0  0
 12  2  1  0  0  0  0
 13 14  2  0  0  0  0
 14 16  1  0  0  0  0
 15  3  1  0  0  0  0
 15 17  1  0  0  0  0
 16 17  2  0  0  0  0
 17  1  1  0  0  0  0
 18 13  1  0  0  0  0
 19 18  2  0  0  0  0
 20 18  1  0  0  0  0
 22 31  1  0  0  0  0
 23 30  1  0  0  0  0
 24 25  2  0  0  0  0
 25 26  1  0  0  0  0
 26 22  2  0  0  0  0
 27 28  1  0  0  0  0
 28 23  2  0  0  0  0
 28 26  1  0  0  0  0
 29 27  2  0  0  0  0
 29 24  1  0  0  0  0
 30 21  1  0  0  0  0
 30 31  2  0  0  0  0
 32 33  1  1  0  0  0
 32 24  1  0  0  0  0
 32 34  1  0  0  0  0
M  END
>  <MODEL>
9

>  <REMARK>
 VINA RESULT:     -10.1      4.034      7.185
  Name = 
  4 active torsions:
  status: ('A' for Active; 'I' for Inactive)
    1  A    between atoms: C_3  and  C_25
    2  A    between atoms: C_7  and  C_11
    3  A    between atoms: C_8  and  O_18
    4  A    between atoms: O_18  and  C_30
                            x       y       z     vdW  Elec       q    Type
                         _______ _______ _______ _____ _____    ______ ____

>  <TORSDO>
F 4

$$$$
