=
 OpenBabel11052416513D

 32 36  0  0  1  0  0  0  0  0999 V2000
  184.2870  179.1060  139.7830 C   0  0  1  0  0  3  0  0  0  0  0  0
  186.6630  177.8920  143.4360 C   0  0  0  0  0  2  0  0  0  0  0  0
  189.4950  177.3440  138.4410 C   0  0  0  0  0  2  0  0  0  0  0  0
  190.3850  176.5250  139.3890 C   0  0  0  0  0  2  0  0  0  0  0  0
  184.7050  178.2390  142.0410 N   0  0  2  0  0  0  0  0  0  0  0  0
  186.3620  179.6620  140.9240 O   0  0  0  0  0  0  0  0  0  0  0  0
  184.5630  180.1470  138.8930 O   0  0  0  0  0  1  0  0  0  0  0  0
  188.1640  177.7310  139.0820 C   0  0  0  0  0  2  0  0  0  0  0  0
  187.1700  178.5500  141.2150 C   0  0  1  0  0  3  0  0  0  0  0  0
  188.4090  178.5480  140.3540 C   0  0  1  0  0  3  0  0  0  0  0  0
  188.8950  177.9480  142.6510 C   0  0  2  0  0  3  0  0  0  0  0  0
  182.5830  177.9390  140.8410 C   0  0  1  0  0  3  0  0  0  0  0  0
  184.9820  179.3650  141.1240 C   0  0  1  0  0  3  0  0  0  0  0  0
  183.2590  178.1250  142.2060 C   0  0  0  0  0  2  0  0  0  0  0  0
  182.8880  179.0070  139.9600 O   0  0  0  0  0  0  0  0  0  0  0  0
  189.9270  176.5620  140.8500 C   0  0  0  0  0  2  0  0  0  0  0  0
  189.5030  177.9740  141.2560 C   0  0  1  0  0  3  0  0  0  0  0  0
  185.2700  178.5140  143.3570 C   0  0  0  0  0  2  0  0  0  0  0  0
  187.6080  178.6330  142.6040 N   0  0  2  0  0  0  0  0  0  0  0  0
  182.8850  176.5680  140.2360 C   0  0  0  0  0  2  0  0  0  0  0  0
  181.7000  176.0500  139.4970 C   0  0  0  0  0  0  0  0  0  0  0  0
  180.4240  176.4730  139.8450 O   0  0  0  0  0  1  0  0  0  0  0  0
  181.8560  175.2510  138.5380 O   0  0  0  0  0  0  0  0  0  0  0  0
  189.8270  178.5890  143.6840 C   0  0  0  0  0  2  0  0  0  0  0  0
  191.0220  177.0950  145.3090 C   0  0  0  0  0  3  0  0  0  0  0  0
  191.0630  176.3670  146.5020 C   0  0  0  0  0  0  0  0  0  0  0  0
  188.8230  177.1210  147.0360 C   0  0  0  0  0  3  0  0  0  0  0  0
  189.9640  176.3850  147.3690 C   0  0  0  0  0  3  0  0  0  0  0  0
  188.7800  177.8430  145.8400 C   0  0  0  0  0  3  0  0  0  0  0  0
  189.8810  177.8340  144.9750 C   0  0  0  0  0  0  0  0  0  0  0  0
  192.2840  175.5970  146.8640 C   0  0  0  0  0  2  0  0  0  0  0  0
  192.7740  176.0350  148.1600 N   0  0  0  0  0  1  0  0  0  0  0  0
  1  7  1  6  0  0  0
  1 15  1  0  0  0  0
  1 13  1  0  0  0  0
  3  8  1  0  0  0  0
  3  4  1  0  0  0  0
  4 16  1  0  0  0  0
  5 14  1  1  0  0  0
  5 18  1  0  0  0  0
  9  6  1  6  0  0  0
  9 19  1  0  0  0  0
 10  8  1  6  0  0  0
 10  9  1  0  0  0  0
 10 17  1  0  0  0  0
 11 24  1  1  0  0  0
 12 20  1  6  0  0  0
 12 14  1  0  0  0  0
 13  6  1  6  0  0  0
 13  5  1  0  0  0  0
 15 12  1  0  0  0  0
 17 16  1  6  0  0  0
 17 11  1  0  0  0  0
 18  2  1  0  0  0  0
 19 11  1  0  0  0  0
 19  2  1  1  0  0  0
 21 22  1  0  0  0  0
 21 20  1  0  0  0  0
 23 21  2  0  0  0  0
 24 30  1  0  0  0  0
 25 26  1  0  0  0  0
 26 31  1  0  0  0  0
 26 28  2  0  0  0  0
 27 28  1  0  0  0  0
 29 27  2  0  0  0  0
 30 25  2  0  0  0  0
 30 29  1  0  0  0  0
 31 32  1  0  0  0  0
M  END
>  <MODEL>
1

>  <REMARK>
 VINA RESULT:      -8.7      0.000      0.000
  Name = 
  5 active torsions:
  status: ('A' for Active; 'I' for Inactive)
    1  A    between atoms: C_1  and  C_17
    2  A    between atoms: C_7  and  C_22
    3  A    between atoms: C_16  and  C_27
    4  A    between atoms: C_17  and  C_19
    5  A    between atoms: C_27  and  C_32
                            x       y       z     vdW  Elec       q    Type
                         _______ _______ _______ _____ _____    ______ ____

>  <TORSDO>
F 5

$$$$
=
 OpenBabel11052416513D

 32 36  0  0  1  0  0  0  0  0999 V2000
  188.8280  177.0450  136.5590 C   0  0  1  0  0  3  0  0  0  0  0  0
  185.4060  177.9630  139.3720 C   0  0  0  0  0  2  0  0  0  0  0  0
  190.4060  176.7640  141.9860 C   0  0  0  0  0  2  0  0  0  0  0  0
  189.4140  176.6470  143.1540 C   0  0  0  0  0  2  0  0  0  0  0  0
  186.5110  177.1620  137.3630 N   0  0  2  0  0  0  0  0  0  0  0  0
  188.2440  178.5990  138.3370 O   0  0  0  0  0  0  0  0  0  0  0  0
  190.0150  177.7620  136.3970 O   0  0  0  0  0  1  0  0  0  0  0  0
  189.7030  176.8780  140.6350 C   0  0  0  0  0  2  0  0  0  0  0  0
  187.7740  177.9780  139.5070 C   0  0  1  0  0  3  0  0  0  0  0  0
  188.7820  178.1010  140.6220 C   0  0  1  0  0  3  0  0  0  0  0  0
  186.5180  178.4900  141.3950 C   0  0  2  0  0  3  0  0  0  0  0  0
  187.2170  175.8000  135.4450 C   0  0  1  0  0  3  0  0  0  0  0  0
  187.7500  177.9470  137.1700 C   0  0  1  0  0  3  0  0  0  0  0  0
  186.0920  176.6390  136.0660 C   0  0  0  0  0  2  0  0  0  0  0  0
  188.4090  176.5540  135.3020 O   0  0  0  0  0  0  0  0  0  0  0  0
  187.9740  177.0110  142.7790 C   0  0  0  0  0  2  0  0  0  0  0  0
  187.9380  178.2530  141.8880 C   0  0  1  0  0  3  0  0  0  0  0  0
  185.4410  178.0270  137.8460 C   0  0  0  0  0  2  0  0  0  0  0  0
  186.5580  178.6550  139.9450 N   0  0  2  0  0  0  0  0  0  0  0  0
  187.4340  174.4870  136.1980 C   0  0  0  0  0  2  0  0  0  0  0  0
  186.1560  173.7310  136.3110 C   0  0  0  0  0  0  0  0  0  0  0  0
  185.5790  173.5260  137.5570 O   0  0  0  0  0  1  0  0  0  0  0  0
  185.5830  173.3040  135.2760 O   0  0  0  0  0  0  0  0  0  0  0  0
  185.8800  179.7070  142.0730 C   0  0  0  0  0  2  0  0  0  0  0  0
  185.4090  179.0520  144.4510 C   0  0  0  0  0  3  0  0  0  0  0  0
  184.5240  178.6800  145.4660 C   0  0  0  0  0  0  0  0  0  0  0  0
  182.6690  178.8810  143.9200 C   0  0  0  0  0  3  0  0  0  0  0  0
  183.1520  178.6000  145.2020 C   0  0  0  0  0  3  0  0  0  0  0  0
  183.5560  179.2460  142.9030 C   0  0  0  0  0  3  0  0  0  0  0  0
  184.9280  179.3360  143.1670 C   0  0  0  0  0  0  0  0  0  0  0  0
  185.0360  178.3980  146.8350 C   0  0  0  0  0  2  0  0  0  0  0  0
  185.7610  179.5520  147.3360 N   0  0  0  0  0  1  0  0  0  0  0  0
  1  7  1  6  0  0  0
  1 13  1  0  0  0  0
  3  4  1  0  0  0  0
  5 14  1  6  0  0  0
  5 18  1  0  0  0  0
  8  3  1  0  0  0  0
  9  6  1  6  0  0  0
  9 19  1  0  0  0  0
  9 10  1  0  0  0  0
 10  8  1  1  0  0  0
 10 17  1  0  0  0  0
 11 17  1  0  0  0  0
 11 24  1  1  0  0  0
 12 14  1  0  0  0  0
 12 20  1  1  0  0  0
 13  5  1  0  0  0  0
 13  6  1  1  0  0  0
 15 12  1  0  0  0  0
 15  1  1  0  0  0  0
 16  4  1  0  0  0  0
 17 16  1  1  0  0  0
 18  2  1  0  0  0  0
 19  2  1  6  0  0  0
 19 11  1  0  0  0  0
 20 21  1  0  0  0  0
 21 22  1  0  0  0  0
 23 21  2  0  0  0  0
 24 30  1  0  0  0  0
 25 26  1  0  0  0  0
 26 31  1  0  0  0  0
 27 28  1  0  0  0  0
 28 26  2  0  0  0  0
 29 30  1  0  0  0  0
 29 27  2  0  0  0  0
 30 25  2  0  0  0  0
 31 32  1  0  0  0  0
M  END
>  <MODEL>
2

>  <REMARK>
 VINA RESULT:      -8.1      3.288      5.483
  Name = 
  5 active torsions:
  status: ('A' for Active; 'I' for Inactive)
    1  A    between atoms: C_1  and  C_17
    2  A    between atoms: C_7  and  C_22
    3  A    between atoms: C_16  and  C_27
    4  A    between atoms: C_17  and  C_19
    5  A    between atoms: C_27  and  C_32
                            x       y       z     vdW  Elec       q    Type
                         _______ _______ _______ _____ _____    ______ ____

>  <TORSDO>
F 5

$$$$
=
 OpenBabel11052416513D

 32 36  0  0  1  0  0  0  0  0999 V2000
  191.0530  176.4170  137.7580 C   0  0  1  0  0  3  0  0  0  0  0  0
  186.8590  177.5710  139.0020 C   0  0  0  0  0  2  0  0  0  0  0  0
  190.4210  176.3940  143.3820 C   0  0  0  0  0  2  0  0  0  0  0  0
  189.0550  176.3650  144.0840 C   0  0  0  0  0  2  0  0  0  0  0  0
  188.6120  176.6350  137.6050 N   0  0  2  0  0  0  0  0  0  0  0  0
  189.9020  178.0790  139.1110 O   0  0  0  0  0  0  0  0  0  0  0  0
  192.2410  177.0950  138.0360 O   0  0  0  0  0  1  0  0  0  0  0  0
  190.2950  176.4520  141.8620 C   0  0  0  0  0  2  0  0  0  0  0  0
  188.9930  177.5360  140.0350 C   0  0  1  0  0  3  0  0  0  0  0  0
  189.5030  177.6950  141.4460 C   0  0  1  0  0  3  0  0  0  0  0  0
  187.1350  178.1810  141.2730 C   0  0  2  0  0  3  0  0  0  0  0  0
  189.9370  175.1540  136.1640 C   0  0  1  0  0  3  0  0  0  0  0  0
  189.8630  177.3770  137.8720 C   0  0  1  0  0  3  0  0  0  0  0  0
  188.6980  176.0520  136.2700 C   0  0  0  0  0  2  0  0  0  0  0  0
  191.1260  175.8680  136.4580 O   0  0  0  0  0  0  0  0  0  0  0  0
  187.8850  176.7440  143.1700 C   0  0  0  0  0  2  0  0  0  0  0  0
  188.2460  177.9360  142.2830 C   0  0  1  0  0  3  0  0  0  0  0  0
  187.4780  177.5510  137.6050 C   0  0  0  0  0  2  0  0  0  0  0  0
  187.7330  178.2650  139.9440 N   0  0  2  0  0  0  0  0  0  0  0  0
  189.7920  173.8780  136.9950 C   0  0  0  0  0  2  0  0  0  0  0  0
  188.7380  172.9970  136.4220 C   0  0  0  0  0  0  0  0  0  0  0  0
  188.7520  172.6860  135.0690 O   0  0  0  0  0  0  0  0  0  0  0  0
  187.8510  172.5080  137.1690 O   0  0  0  0  0  1  0  0  0  0  0  0
  186.3390  179.4480  141.6040 C   0  0  0  0  0  2  0  0  0  0  0  0
  185.3330  179.0420  143.8670 C   0  0  0  0  0  3  0  0  0  0  0  0
  184.2350  178.7710  144.6890 C   0  0  0  0  0  0  0  0  0  0  0  0
  182.7810  178.7940  142.7500 C   0  0  0  0  0  3  0  0  0  0  0  0
  182.9570  178.6530  144.1300 C   0  0  0  0  0  3  0  0  0  0  0  0
  183.8810  179.0590  141.9280 C   0  0  0  0  0  3  0  0  0  0  0  0
  185.1590  179.1860  142.4860 C   0  0  0  0  0  0  0  0  0  0  0  0
  184.4190  178.6370  146.1600 C   0  0  0  0  0  2  0  0  0  0  0  0
  185.5780  179.4040  146.5810 N   0  0  0  0  0  1  0  0  0  0  0  0
  1 13  1  0  0  0  0
  1  7  1  6  0  0  0
  3  4  1  0  0  0  0
  5 14  1  6  0  0  0
  5 18  1  0  0  0  0
  5 13  1  0  0  0  0
  8  3  1  0  0  0  0
  9  6  1  6  0  0  0
  9 10  1  0  0  0  0
 10  8  1  1  0  0  0
 10 17  1  0  0  0  0
 11 24  1  1  0  0  0
 11 17  1  0  0  0  0
 12 14  1  0  0  0  0
 12 15  1  0  0  0  0
 12 20  1  1  0  0  0
 13  6  1  1  0  0  0
 15  1  1  0  0  0  0
 16  4  1  0  0  0  0
 17 16  1  6  0  0  0
 18  2  1  0  0  0  0
 19  2  1  6  0  0  0
 19  9  1  0  0  0  0
 19 11  1  0  0  0  0
 21 20  1  0  0  0  0
 21 23  1  0  0  0  0
 22 21  2  0  0  0  0
 24 30  1  0  0  0  0
 25 26  1  0  0  0  0
 26 31  1  0  0  0  0
 27 28  1  0  0  0  0
 28 26  2  0  0  0  0
 29 30  1  0  0  0  0
 29 27  2  0  0  0  0
 30 25  2  0  0  0  0
 31 32  1  0  0  0  0
M  END
>  <MODEL>
3

>  <REMARK>
 VINA RESULT:      -8.1      3.668      6.487
  Name = 
  5 active torsions:
  status: ('A' for Active; 'I' for Inactive)
    1  A    between atoms: C_1  and  C_17
    2  A    between atoms: C_7  and  C_22
    3  A    between atoms: C_16  and  C_27
    4  A    between atoms: C_17  and  C_19
    5  A    between atoms: C_27  and  C_32
                            x       y       z     vdW  Elec       q    Type
                         _______ _______ _______ _____ _____    ______ ____

>  <TORSDO>
F 5

$$$$
=
 OpenBabel11052416513D

 32 36  0  0  1  0  0  0  0  0999 V2000
  189.3120  176.9360  136.9410 C   0  0  1  0  0  3  0  0  0  0  0  0
  185.7010  178.0280  139.4390 C   0  0  0  0  0  2  0  0  0  0  0  0
  190.3310  176.4300  142.4850 C   0  0  0  0  0  2  0  0  0  0  0  0
  189.2250  176.3570  143.5490 C   0  0  0  0  0  2  0  0  0  0  0  0
  186.9410  177.1960  137.5230 N   0  0  2  0  0  0  0  0  0  0  0  0
  188.6630  178.4880  138.6990 O   0  0  0  0  0  0  0  0  0  0  0  0
  190.5540  177.5730  136.9150 O   0  0  0  0  0  1  0  0  0  0  0  0
  189.7730  176.6220  141.0770 C   0  0  0  0  0  2  0  0  0  0  0  0
  188.0400  177.8770  139.8000 C   0  0  1  0  0  3  0  0  0  0  0  0
  188.9410  177.9060  141.0100 C   0  0  1  0  0  3  0  0  0  0  0  0
  186.6430  178.4340  141.5720 C   0  0  2  0  0  3  0  0  0  0  0  0
  187.7380  175.8300  135.6440 C   0  0  1  0  0  3  0  0  0  0  0  0
  188.2420  177.8970  137.4720 C   0  0  1  0  0  3  0  0  0  0  0  0
  186.6160  176.7300  136.1780 C   0  0  0  0  0  2  0  0  0  0  0  0
  188.9860  176.5020  135.6370 O   0  0  0  0  0  0  0  0  0  0  0  0
  187.8560  176.8280  143.0480 C   0  0  0  0  0  2  0  0  0  0  0  0
  187.9890  178.0890  142.1930 C   0  0  1  0  0  3  0  0  0  0  0  0
  185.8890  178.1220  137.9260 C   0  0  0  0  0  2  0  0  0  0  0  0
  186.8350  178.6270  140.1380 N   0  0  2  0  0  0  0  0  0  0  0  0
  187.7920  174.4890  136.3770 C   0  0  0  0  0  2  0  0  0  0  0  0
  186.8140  173.5310  135.7910 C   0  0  0  0  0  0  0  0  0  0  0  0
  187.1640  172.7730  134.6820 O   0  0  0  0  0  0  0  0  0  0  0  0
  185.6800  173.3870  136.3180 O   0  0  0  0  0  1  0  0  0  0  0  0
  186.0240  179.6770  142.2210 C   0  0  0  0  0  2  0  0  0  0  0  0
  183.5720  179.2600  142.5550 C   0  0  0  0  0  3  0  0  0  0  0  0
  182.4770  178.9910  143.3820 C   0  0  0  0  0  0  0  0  0  0  0  0
  183.9500  178.9090  145.3040 C   0  0  0  0  0  3  0  0  0  0  0  0
  182.6680  178.8090  144.7560 C   0  0  0  0  0  3  0  0  0  0  0  0
  185.0440  179.1860  144.4780 C   0  0  0  0  0  3  0  0  0  0  0  0
  184.8570  179.3590  143.1010 C   0  0  0  0  0  0  0  0  0  0  0  0
  181.1140  178.8670  142.7960 C   0  0  0  0  0  2  0  0  0  0  0  0
  180.4380  180.1510  142.8500 N   0  0  0  0  0  1  0  0  0  0  0  0
  1  7  1  6  0  0  0
  1 13  1  0  0  0  0
  3  4  1  0  0  0  0
  5 14  1  6  0  0  0
  5 18  1  0  0  0  0
  8  3  1  0  0  0  0
  9  6  1  6  0  0  0
  9 19  1  0  0  0  0
  9 10  1  0  0  0  0
 10  8  1  1  0  0  0
 10 17  1  0  0  0  0
 11 17  1  0  0  0  0
 11 24  1  1  0  0  0
 12 14  1  0  0  0  0
 12 20  1  1  0  0  0
 13  5  1  0  0  0  0
 13  6  1  1  0  0  0
 15 12  1  0  0  0  0
 15  1  1  0  0  0  0
 16  4  1  0  0  0  0
 17 16  1  6  0  0  0
 18  2  1  0  0  0  0
 19  2  1  6  0  0  0
 19 11  1  0  0  0  0
 21 23  1  0  0  0  0
 21 20  1  0  0  0  0
 22 21  2  0  0  0  0
 24 30  1  0  0  0  0
 25 30  2  0  0  0  0
 25 26  1  0  0  0  0
 26 28  2  0  0  0  0
 28 27  1  0  0  0  0
 29 27  2  0  0  0  0
 30 29  1  0  0  0  0
 31 32  1  0  0  0  0
 31 26  1  0  0  0  0
M  END
>  <MODEL>
4

>  <REMARK>
 VINA RESULT:      -7.6      3.542      6.393
  Name = 
  5 active torsions:
  status: ('A' for Active; 'I' for Inactive)
    1  A    between atoms: C_1  and  C_17
    2  A    between atoms: C_7  and  C_22
    3  A    between atoms: C_16  and  C_27
    4  A    between atoms: C_17  and  C_19
    5  A    between atoms: C_27  and  C_32
                            x       y       z     vdW  Elec       q    Type
                         _______ _______ _______ _____ _____    ______ ____

>  <TORSDO>
F 5

$$$$
=
 OpenBabel11052416513D

 32 36  0  0  1  0  0  0  0  0999 V2000
  188.5260  178.4240  137.5320 C   0  0  1  0  0  3  0  0  0  0  0  0
  184.5230  176.3300  137.2960 C   0  0  0  0  0  2  0  0  0  0  0  0
  185.3540  179.3790  142.1210 C   0  0  0  0  0  2  0  0  0  0  0  0
  184.1380  178.5230  142.5060 C   0  0  0  0  0  2  0  0  0  0  0  0
  186.8920  176.7010  136.9080 N   0  0  2  0  0  0  0  0  0  0  0  0
  186.1490  178.9370  137.5900 O   0  0  0  0  0  0  0  0  0  0  0  0
  188.7670  179.7980  137.5870 O   0  0  0  0  0  1  0  0  0  0  0  0
  185.9890  178.9310  140.8060 C   0  0  0  0  0  2  0  0  0  0  0  0
  185.4180  178.1620  138.5060 C   0  0  1  0  0  3  0  0  0  0  0  0
  184.9610  179.0010  139.6740 C   0  0  1  0  0  3  0  0  0  0  0  0
  183.2280  177.4920  138.9010 C   0  0  2  0  0  3  0  0  0  0  0  0
  189.3210  176.4060  136.7070 C   0  0  1  0  0  3  0  0  0  0  0  0
  187.1430  178.1580  136.9290 C   0  0  1  0  0  3  0  0  0  0  0  0
  187.9450  176.0640  136.1230 C   0  0  0  0  0  2  0  0  0  0  0  0
  189.5330  177.8070  136.7560 O   0  0  0  0  0  0  0  0  0  0  0  0
  183.6110  177.6510  141.3620 C   0  0  0  0  0  2  0  0  0  0  0  0
  183.5920  178.4280  140.0450 C   0  0  1  0  0  3  0  0  0  0  0  0
  185.6250  176.4210  136.2420 C   0  0  0  0  0  2  0  0  0  0  0  0
  184.2230  177.6500  137.8450 N   0  0  2  0  0  0  0  0  0  0  0  0
  189.5550  175.7250  138.0560 C   0  0  0  0  0  2  0  0  0  0  0  0
  191.0130  175.6230  138.3460 C   0  0  0  0  0  0  0  0  0  0  0  0
  191.6460  176.6160  139.0820 O   0  0  0  0  0  1  0  0  0  0  0  0
  191.6650  174.6240  137.9490 O   0  0  0  0  0  0  0  0  0  0  0  0
  181.8150  177.7650  138.3760 C   0  0  0  0  0  2  0  0  0  0  0  0
  180.5210  179.2620  139.9200 C   0  0  0  0  0  3  0  0  0  0  0  0
  180.0130  180.5170  140.2690 C   0  0  0  0  0  0  0  0  0  0  0  0
  181.0610  181.4840  138.3090 C   0  0  0  0  0  3  0  0  0  0  0  0
  180.2880  181.6300  139.4650 C   0  0  0  0  0  3  0  0  0  0  0  0
  181.5620  180.2270  137.9570 C   0  0  0  0  0  3  0  0  0  0  0  0
  181.2960  179.1140  138.7640 C   0  0  0  0  0  0  0  0  0  0  0  0
  179.2050  180.6770  141.5090 C   0  0  0  0  0  2  0  0  0  0  0  0
  180.0550  180.5050  142.6740 N   0  0  0  0  0  1  0  0  0  0  0  0
  1  7  1  6  0  0  0
  3  4  1  0  0  0  0
  5 14  1  6  0  0  0
  5 13  1  0  0  0  0
  8  3  1  0  0  0  0
  9  6  1  6  0  0  0
  9 10  1  0  0  0  0
 10 17  1  0  0  0  0
 10  8  1  1  0  0  0
 11 24  1  6  0  0  0
 11 17  1  0  0  0  0
 12 15  1  0  0  0  0
 12 20  1  1  0  0  0
 13  1  1  0  0  0  0
 13  6  1  1  0  0  0
 14 12  1  0  0  0  0
 15  1  1  0  0  0  0
 16  4  1  0  0  0  0
 17 16  1  1  0  0  0
 18  5  1  0  0  0  0
 18  2  1  0  0  0  0
 19  2  1  1  0  0  0
 19  9  1  0  0  0  0
 19 11  1  0  0  0  0
 20 21  1  0  0  0  0
 21 22  1  0  0  0  0
 23 21  2  0  0  0  0
 24 30  1  0  0  0  0
 25 26  1  0  0  0  0
 26 31  1  0  0  0  0
 27 28  1  0  0  0  0
 28 26  2  0  0  0  0
 29 27  2  0  0  0  0
 29 30  1  0  0  0  0
 30 25  2  0  0  0  0
 31 32  1  0  0  0  0
M  END
>  <MODEL>
5

>  <REMARK>
 VINA RESULT:      -7.3      4.868      8.772
  Name = 
  5 active torsions:
  status: ('A' for Active; 'I' for Inactive)
    1  A    between atoms: C_1  and  C_17
    2  A    between atoms: C_7  and  C_22
    3  A    between atoms: C_16  and  C_27
    4  A    between atoms: C_17  and  C_19
    5  A    between atoms: C_27  and  C_32
                            x       y       z     vdW  Elec       q    Type
                         _______ _______ _______ _____ _____    ______ ____

>  <TORSDO>
F 5

$$$$
=
 OpenBabel11052416513D

 32 36  0  0  1  0  0  0  0  0999 V2000
  185.3170  178.3880  138.3800 C   0  0  1  0  0  3  0  0  0  0  0  0
  184.4330  177.9110  142.7910 C   0  0  0  0  0  2  0  0  0  0  0  0
  189.8750  176.7250  141.2930 C   0  0  0  0  0  2  0  0  0  0  0  0
  189.8080  176.1200  142.7040 C   0  0  0  0  0  2  0  0  0  0  0  0
  184.0030  177.9200  140.4000 N   0  0  2  0  0  0  0  0  0  0  0  0
  186.0700  179.2340  140.5330 O   0  0  0  0  0  0  0  0  0  0  0  0
  186.2030  179.2860  137.7800 O   0  0  0  0  0  1  0  0  0  0  0  0
  188.5010  177.1360  140.7690 C   0  0  0  0  0  2  0  0  0  0  0  0
  186.3750  178.2300  141.4670 C   0  0  1  0  0  3  0  0  0  0  0  0
  187.8620  178.1590  141.7120 C   0  0  1  0  0  3  0  0  0  0  0  0
  186.5900  177.9630  143.7660 C   0  0  2  0  0  3  0  0  0  0  0  0
  183.2750  177.3140  138.1350 C   0  0  1  0  0  3  0  0  0  0  0  0
  184.9150  178.8970  139.7690 C   0  0  1  0  0  3  0  0  0  0  0  0
  182.8380  177.7540  139.5380 C   0  0  0  0  0  2  0  0  0  0  0  0
  184.1790  178.2410  137.5570 O   0  0  0  0  0  0  0  0  0  0  0  0
  188.4740  176.3660  143.4170 C   0  0  0  0  0  2  0  0  0  0  0  0
  187.9900  177.7990  143.1930 C   0  0  1  0  0  3  0  0  0  0  0  0
  183.5260  178.4340  141.6780 C   0  0  0  0  0  2  0  0  0  0  0  0
  185.7410  178.5600  142.7400 N   0  0  2  0  0  0  0  0  0  0  0  0
  183.8110  175.8810  138.1260 C   0  0  0  0  0  2  0  0  0  0  0  0
  182.9460  175.0040  137.2900 C   0  0  0  0  0  0  0  0  0  0  0  0
  183.2150  173.6450  137.2010 O   0  0  0  0  0  1  0  0  0  0  0  0
  181.9530  175.4880  136.6880 O   0  0  0  0  0  0  0  0  0  0  0  0
  186.5970  178.8140  145.0410 C   0  0  0  0  0  2  0  0  0  0  0  0
  188.8040  177.8840  145.7940 C   0  0  0  0  0  3  0  0  0  0  0  0
  189.6330  177.3470  146.7830 C   0  0  0  0  0  0  0  0  0  0  0  0
  187.8470  177.5770  148.4040 C   0  0  0  0  0  3  0  0  0  0  0  0
  189.1560  177.1990  148.0900 C   0  0  0  0  0  3  0  0  0  0  0  0
  187.0160  178.1080  147.4130 C   0  0  0  0  0  3  0  0  0  0  0  0
  187.4940  178.2650  146.1060 C   0  0  0  0  0  0  0  0  0  0  0  0
  191.0320  176.9600  146.4530 C   0  0  0  0  0  2  0  0  0  0  0  0
  191.7860  176.7520  147.6770 N   0  0  0  0  0  1  0  0  0  0  0  0
  1  7  1  6  0  0  0
  1 13  1  0  0  0  0
  3  4  1  0  0  0  0
  4 16  1  0  0  0  0
  5 14  1  6  0  0  0
  5 18  1  0  0  0  0
  8  3  1  0  0  0  0
  9  6  1  6  0  0  0
  9 10  1  0  0  0  0
  9 19  1  0  0  0  0
 10  8  1  6  0  0  0
 10 17  1  0  0  0  0
 11 24  1  1  0  0  0
 12 20  1  1  0  0  0
 12 14  1  0  0  0  0
 13  5  1  0  0  0  0
 13  6  1  1  0  0  0
 15 12  1  0  0  0  0
 15  1  1  0  0  0  0
 17 16  1  6  0  0  0
 17 11  1  0  0  0  0
 18  2  1  0  0  0  0
 19  2  1  6  0  0  0
 19 11  1  0  0  0  0
 21 20  1  0  0  0  0
 22 21  1  0  0  0  0
 23 21  2  0  0  0  0
 24 30  1  0  0  0  0
 25 30  2  0  0  0  0
 25 26  1  0  0  0  0
 26 28  2  0  0  0  0
 28 27  1  0  0  0  0
 29 27  2  0  0  0  0
 30 29  1  0  0  0  0
 31 26  1  0  0  0  0
 31 32  1  0  0  0  0
M  END
>  <MODEL>
6

>  <REMARK>
 VINA RESULT:      -7.2      1.604      2.398
  Name = 
  5 active torsions:
  status: ('A' for Active; 'I' for Inactive)
    1  A    between atoms: C_1  and  C_17
    2  A    between atoms: C_7  and  C_22
    3  A    between atoms: C_16  and  C_27
    4  A    between atoms: C_17  and  C_19
    5  A    between atoms: C_27  and  C_32
                            x       y       z     vdW  Elec       q    Type
                         _______ _______ _______ _____ _____    ______ ____

>  <TORSDO>
F 5

$$$$
=
 OpenBabel11052416513D

 32 36  0  0  1  0  0  0  0  0999 V2000
  180.3530  178.5310  140.1940 C   0  0  1  0  0  3  0  0  0  0  0  0
  184.7130  179.4290  139.3880 C   0  0  0  0  0  2  0  0  0  0  0  0
  183.3450  179.0010  144.9750 C   0  0  0  0  0  2  0  0  0  0  0  0
  184.7290  179.6630  145.0490 C   0  0  0  0  0  2  0  0  0  0  0  0
  182.3110  179.4330  139.0210 N   0  0  2  0  0  0  0  0  0  0  0  0
  182.5580  177.6070  140.6400 O   0  0  0  0  0  0  0  0  0  0  0  0
  179.8150  177.3990  140.8080 O   0  0  0  0  0  1  0  0  0  0  0  0
  182.7930  178.9620  143.5510 C   0  0  0  0  0  2  0  0  0  0  0  0
  183.4640  178.5280  141.1920 C   0  0  1  0  0  3  0  0  0  0  0  0
  183.7530  178.1980  142.6350 C   0  0  1  0  0  3  0  0  0  0  0  0
  185.7570  178.8270  141.4250 C   0  0  2  0  0  3  0  0  0  0  0  0
  180.0030  180.1150  138.5340 C   0  0  1  0  0  3  0  0  0  0  0  0
  181.7450  178.2150  139.6390 C   0  0  1  0  0  3  0  0  0  0  0  0
  181.4070  179.8760  137.9640 C   0  0  0  0  0  2  0  0  0  0  0  0
  179.4880  178.9500  139.1570 O   0  0  0  0  0  0  0  0  0  0  0  0
  185.4080  179.8260  143.6850 C   0  0  0  0  0  2  0  0  0  0  0  0
  185.2230  178.5740  142.8280 C   0  0  1  0  0  3  0  0  0  0  0  0
  183.5920  179.1280  138.3940 C   0  0  0  0  0  2  0  0  0  0  0  0
  184.7260  178.4430  140.4660 N   0  0  2  0  0  0  0  0  0  0  0  0
  179.9580  181.3420  139.4460 C   0  0  0  0  0  2  0  0  0  0  0  0
  179.2930  182.4820  138.7560 C   0  0  0  0  0  0  0  0  0  0  0  0
  178.9790  182.3910  137.4070 O   0  0  0  0  0  0  0  0  0  0  0  0
  178.9870  183.5180  139.4030 O   0  0  0  0  0  1  0  0  0  0  0  0
  187.0620  178.0650  141.1720 C   0  0  0  0  0  2  0  0  0  0  0  0
  189.0830  178.5330  142.5850 C   0  0  0  0  0  3  0  0  0  0  0  0
  189.8510  178.3180  143.7330 C   0  0  0  0  0  0  0  0  0  0  0  0
  188.1910  176.7530  144.5490 C   0  0  0  0  0  3  0  0  0  0  0  0
  189.4020  177.4310  144.7180 C   0  0  0  0  0  3  0  0  0  0  0  0
  187.4260  176.9630  143.3970 C   0  0  0  0  0  3  0  0  0  0  0  0
  187.8700  177.8560  142.4140 C   0  0  0  0  0  0  0  0  0  0  0  0
  191.1320  179.0530  143.9210 C   0  0  0  0  0  2  0  0  0  0  0  0
  192.0490  178.2480  144.7090 N   0  0  0  0  0  1  0  0  0  0  0  0
  1  7  1  6  0  0  0
  3  4  1  0  0  0  0
  5 14  1  6  0  0  0
  5 13  1  0  0  0  0
  8  3  1  0  0  0  0
  9  6  1  6  0  0  0
  9 10  1  0  0  0  0
 10 17  1  0  0  0  0
 10  8  1  1  0  0  0
 11 24  1  6  0  0  0
 11 17  1  0  0  0  0
 12 15  1  0  0  0  0
 12 20  1  1  0  0  0
 13  1  1  0  0  0  0
 13  6  1  1  0  0  0
 14 12  1  0  0  0  0
 15  1  1  0  0  0  0
 16  4  1  0  0  0  0
 17 16  1  1  0  0  0
 18  5  1  0  0  0  0
 18  2  1  0  0  0  0
 19  2  1  6  0  0  0
 19  9  1  0  0  0  0
 19 11  1  0  0  0  0
 21 23  1  0  0  0  0
 21 20  1  0  0  0  0
 22 21  2  0  0  0  0
 24 30  1  0  0  0  0
 25 26  1  0  0  0  0
 26 31  1  0  0  0  0
 26 28  2  0  0  0  0
 27 28  1  0  0  0  0
 29 27  2  0  0  0  0
 30 25  2  0  0  0  0
 30 29  1  0  0  0  0
 31 32  1  0  0  0  0
M  END
>  <MODEL>
7

>  <REMARK>
 VINA RESULT:      -7.1      2.743      5.154
  Name = 
  5 active torsions:
  status: ('A' for Active; 'I' for Inactive)
    1  A    between atoms: C_1  and  C_17
    2  A    between atoms: C_7  and  C_22
    3  A    between atoms: C_16  and  C_27
    4  A    between atoms: C_17  and  C_19
    5  A    between atoms: C_27  and  C_32
                            x       y       z     vdW  Elec       q    Type
                         _______ _______ _______ _____ _____    ______ ____

>  <TORSDO>
F 5

$$$$
=
 OpenBabel11052416513D

 32 36  0  0  1  0  0  0  0  0999 V2000
  188.6410  178.3950  137.5580 C   0  0  1  0  0  3  0  0  0  0  0  0
  184.5580  176.4500  137.4400 C   0  0  0  0  0  2  0  0  0  0  0  0
  185.6850  179.3680  142.2860 C   0  0  0  0  0  2  0  0  0  0  0  0
  184.4540  178.5480  142.7020 C   0  0  0  0  0  2  0  0  0  0  0  0
  186.9230  176.7450  136.9670 N   0  0  2  0  0  0  0  0  0  0  0  0
  186.2880  178.9920  137.7200 O   0  0  0  0  0  0  0  0  0  0  0  0
  188.9340  179.7580  137.6300 O   0  0  0  0  0  1  0  0  0  0  0  0
  186.2520  178.9250  140.9390 C   0  0  0  0  0  2  0  0  0  0  0  0
  185.5660  178.2240  138.6490 C   0  0  1  0  0  3  0  0  0  0  0  0
  185.1840  179.0550  139.8490 C   0  0  1  0  0  3  0  0  0  0  0  0
  183.3690  177.6240  139.1170 C   0  0  2  0  0  3  0  0  0  0  0  0
  189.3300  176.3680  136.6650 C   0  0  1  0  0  3  0  0  0  0  0  0
  187.2260  178.1920  137.0050 C   0  0  1  0  0  3  0  0  0  0  0  0
  187.9200  176.0870  136.1290 C   0  0  0  0  0  2  0  0  0  0  0  0
  189.5940  177.7590  136.7320 O   0  0  0  0  0  0  0  0  0  0  0  0
  183.8520  177.7190  141.5630 C   0  0  0  0  0  2  0  0  0  0  0  0
  183.8110  178.5230  140.2630 C   0  0  1  0  0  3  0  0  0  0  0  0
  185.6220  176.5230  136.3460 C   0  0  0  0  0  2  0  0  0  0  0  0
  184.3280  177.7680  138.0250 N   0  0  2  0  0  0  0  0  0  0  0  0
  189.5910  175.6520  137.9900 C   0  0  0  0  0  2  0  0  0  0  0  0
  191.0540  175.5550  138.2540 C   0  0  0  0  0  0  0  0  0  0  0  0
  191.7100  176.5870  138.9110 O   0  0  0  0  0  1  0  0  0  0  0  0
  191.6890  174.5260  137.9090 O   0  0  0  0  0  0  0  0  0  0  0  0
  181.9480  177.9580  138.6530 C   0  0  0  0  0  2  0  0  0  0  0  0
  180.5500  175.8740  138.5970 C   0  0  0  0  0  3  0  0  0  0  0  0
  179.5620  175.0470  139.1390 C   0  0  0  0  0  0  0  0  0  0  0  0
  179.2940  176.5850  140.9930 C   0  0  0  0  0  3  0  0  0  0  0  0
  178.9380  175.4000  140.3410 C   0  0  0  0  0  3  0  0  0  0  0  0
  180.2780  177.4150  140.4460 C   0  0  0  0  0  3  0  0  0  0  0  0
  180.9100  177.0600  139.2490 C   0  0  0  0  0  0  0  0  0  0  0  0
  179.1950  173.7770  138.4550 C   0  0  0  0  0  2  0  0  0  0  0  0
  180.3920  173.1210  137.9600 N   0  0  0  0  0  1  0  0  0  0  0  0
  1  7  1  6  0  0  0
  3  4  1  0  0  0  0
  5 14  1  6  0  0  0
  5 13  1  0  0  0  0
  8  3  1  0  0  0  0
  9  6  1  6  0  0  0
  9 10  1  0  0  0  0
 10 17  1  0  0  0  0
 10  8  1  1  0  0  0
 11 24  1  6  0  0  0
 11 17  1  0  0  0  0
 12 15  1  0  0  0  0
 12 20  1  1  0  0  0
 13  1  1  0  0  0  0
 13  6  1  1  0  0  0
 14 12  1  0  0  0  0
 15  1  1  0  0  0  0
 16  4  1  0  0  0  0
 17 16  1  1  0  0  0
 18  5  1  0  0  0  0
 18  2  1  0  0  0  0
 19  2  1  1  0  0  0
 19  9  1  0  0  0  0
 19 11  1  0  0  0  0
 20 21  1  0  0  0  0
 21 22  1  0  0  0  0
 23 21  2  0  0  0  0
 24 30  1  0  0  0  0
 25 26  2  0  0  0  0
 25 30  1  0  0  0  0
 26 28  1  0  0  0  0
 28 27  2  0  0  0  0
 29 27  1  0  0  0  0
 30 29  2  0  0  0  0
 31 26  1  0  0  0  0
 32 31  1  0  0  0  0
M  END
>  <MODEL>
8

>  <REMARK>
 VINA RESULT:      -6.9      4.741      8.800
  Name = 
  5 active torsions:
  status: ('A' for Active; 'I' for Inactive)
    1  A    between atoms: C_1  and  C_17
    2  A    between atoms: C_7  and  C_22
    3  A    between atoms: C_16  and  C_27
    4  A    between atoms: C_17  and  C_19
    5  A    between atoms: C_27  and  C_32
                            x       y       z     vdW  Elec       q    Type
                         _______ _______ _______ _____ _____    ______ ____

>  <TORSDO>
F 5

$$$$
=
 OpenBabel11052416513D

 32 36  0  0  1  0  0  0  0  0999 V2000
  182.3750  179.0320  138.8040 C   0  0  1  0  0  3  0  0  0  0  0  0
  185.5630  178.2050  141.9060 C   0  0  0  0  0  2  0  0  0  0  0  0
  187.2170  177.2760  136.4590 C   0  0  0  0  0  2  0  0  0  0  0  0
  188.3320  176.5660  137.2420 C   0  0  0  0  0  2  0  0  0  0  0  0
  183.3280  178.3800  140.9710 N   0  0  2  0  0  0  0  0  0  0  0  0
  184.6280  179.7350  139.3920 O   0  0  0  0  0  0  0  0  0  0  0  0
  182.3980  179.9940  137.7930 O   0  0  0  0  0  1  0  0  0  0  0  0
  186.0490  177.6890  137.3520 C   0  0  0  0  0  2  0  0  0  0  0  0
  185.5280  178.6730  139.5810 C   0  0  1  0  0  3  0  0  0  0  0  0
  186.5400  178.6220  138.4630 C   0  0  1  0  0  3  0  0  0  0  0  0
  187.5570  178.2420  140.6300 C   0  0  2  0  0  3  0  0  0  0  0  0
  181.0060  177.9260  140.3160 C   0  0  1  0  0  3  0  0  0  0  0  0
  183.3430  179.4260  139.9250 C   0  0  1  0  0  3  0  0  0  0  0  0
  181.9630  178.2490  141.4710 C   0  0  0  0  0  2  0  0  0  0  0  0
  181.0580  178.9160  139.3030 O   0  0  0  0  0  0  0  0  0  0  0  0
  188.2140  176.7240  138.7610 C   0  0  0  0  0  2  0  0  0  0  0  0
  187.8320  178.1570  139.1360 C   0  0  1  0  0  3  0  0  0  0  0  0
  184.1630  178.7860  142.0960 C   0  0  0  0  0  2  0  0  0  0  0  0
  186.2640  178.8900  140.8220 N   0  0  2  0  0  0  0  0  0  0  0  0
  181.2210  176.5120  139.7730 C   0  0  0  0  0  2  0  0  0  0  0  0
  179.9500  175.7370  139.8120 C   0  0  0  0  0  0  0  0  0  0  0  0
  179.4640  175.2620  141.0220 O   0  0  0  0  0  1  0  0  0  0  0  0
  179.3010  175.5380  138.7530 O   0  0  0  0  0  0  0  0  0  0  0  0
  188.6690  178.9950  141.3670 C   0  0  0  0  0  2  0  0  0  0  0  0
  188.9190  177.9220  143.6220 C   0  0  0  0  0  3  0  0  0  0  0  0
  189.6340  177.1390  144.5340 C   0  0  0  0  0  0  0  0  0  0  0  0
  191.3520  176.7690  142.8660 C   0  0  0  0  0  3  0  0  0  0  0  0
  190.8490  176.5580  144.1530 C   0  0  0  0  0  3  0  0  0  0  0  0
  190.6410  177.5580  141.9570 C   0  0  0  0  0  3  0  0  0  0  0  0
  189.4210  178.1330  142.3320 C   0  0  0  0  0  0  0  0  0  0  0  0
  189.0900  176.9000  145.8980 C   0  0  0  0  0  2  0  0  0  0  0  0
  189.4360  178.0110  146.7670 N   0  0  0  0  0  1  0  0  0  0  0  0
  1  7  1  6  0  0  0
  1 15  1  0  0  0  0
  1 13  1  0  0  0  0
  2 18  1  0  0  0  0
  3  4  1  0  0  0  0
  3  8  1  0  0  0  0
  4 16  1  0  0  0  0
  5 14  1  1  0  0  0
  5 18  1  0  0  0  0
  9  6  1  6  0  0  0
  9 19  1  0  0  0  0
 10  8  1  6  0  0  0
 10 17  1  0  0  0  0
 10  9  1  0  0  0  0
 11 19  1  0  0  0  0
 11 24  1  1  0  0  0
 12 20  1  6  0  0  0
 12 14  1  0  0  0  0
 13  6  1  6  0  0  0
 13  5  1  0  0  0  0
 15 12  1  0  0  0  0
 17 16  1  6  0  0  0
 17 11  1  0  0  0  0
 19  2  1  1  0  0  0
 20 21  1  0  0  0  0
 21 22  1  0  0  0  0
 23 21  2  0  0  0  0
 24 30  1  0  0  0  0
 25 26  1  0  0  0  0
 26 31  1  0  0  0  0
 27 28  1  0  0  0  0
 28 26  2  0  0  0  0
 29 30  1  0  0  0  0
 29 27  2  0  0  0  0
 30 25  2  0  0  0  0
 31 32  1  0  0  0  0
M  END
>  <MODEL>
9

>  <REMARK>
 VINA RESULT:      -6.8      1.757      2.685
  Name = 
  5 active torsions:
  status: ('A' for Active; 'I' for Inactive)
    1  A    between atoms: C_1  and  C_17
    2  A    between atoms: C_7  and  C_22
    3  A    between atoms: C_16  and  C_27
    4  A    between atoms: C_17  and  C_19
    5  A    between atoms: C_27  and  C_32
                            x       y       z     vdW  Elec       q    Type
                         _______ _______ _______ _____ _____    ______ ____

>  <TORSDO>
F 5

$$$$
