=
 OpenBabel11052413433D

 27 31  0  0  1  0  0  0  0  0999 V2000
  178.9310  177.7370  138.5310 C   0  0  0  0  0  2  0  0  0  0  0  0
  180.3020  179.6510  139.4770 C   0  0  1  0  0  0  0  0  0  0  0  0
  182.6450  179.4660  138.5670 C   0  0  0  0  0  2  0  0  0  0  0  0
  180.8840  183.2840  137.2070 C   0  0  0  0  0  3  0  0  0  0  0  0
  180.6050  182.5820  134.8580 C   0  0  0  0  0  3  0  0  0  0  0  0
  180.1330  181.0010  139.9960 N   0  0  0  0  0  2  0  0  0  0  0  0
  180.8440  180.4150  136.0380 N   0  0  0  0  0  0  0  0  0  0  0  0
  180.3590  178.5190  140.4890 C   0  0  2  0  0  3  0  0  0  0  0  0
  183.1680  175.7060  138.5090 C   0  0  0  0  0  2  0  0  0  0  0  0
  180.5890  181.2520  134.9080 C   0  0  0  0  0  3  0  0  0  0  0  0
  181.8060  175.0270  138.5330 C   0  0  0  0  0  2  0  0  0  0  0  0
  180.8900  180.6790  137.3070 C   0  0  0  0  0  0  0  0  0  0  0  0
  179.0800  178.7520  139.6680 C   0  0  2  0  0  3  0  0  0  0  0  0
  180.8710  183.4880  135.9290 N   0  0  0  0  0  0  0  0  0  0  0  0
  180.6420  182.0200  137.9030 C   0  0  0  0  0  0  0  0  0  0  0  0
  179.1680  176.3050  139.0060 C   0  0  0  0  0  2  0  0  0  0  0  0
  181.1620  179.5220  138.2210 C   0  0  2  0  0  3  0  0  0  0  0  0
  183.0860  177.0830  139.1480 C   0  0  0  0  0  2  0  0  0  0  0  0
  180.3220  182.1170  139.1620 N   0  0  0  0  0  0  0  0  0  0  0  0
  180.8390  175.7480  137.6020 C   0  0  0  0  0  2  0  0  0  0  0  0
  179.5050  175.4630  137.9330 O   0  0  0  0  0  0  0  0  0  0  0  0
  183.2340  178.1530  138.0810 C   0  0  0  0  0  2  0  0  0  0  0  0
  181.2750  178.6460  143.9770 C   0  0  0  0  0  2  0  0  0  0  0  0
  180.1390  178.9770  141.9240 C   0  0  2  0  0  3  0  0  0  0  0  0
  181.4740  179.1970  142.5990 C   0  0  0  0  0  2  0  0  0  0  0  0
  179.8490  178.1540  143.9710 C   0  0  0  0  0  2  0  0  0  0  0  0
  179.4410  177.9940  142.6390 O   0  0  0  0  0  0  0  0  0  0  0  0
  1 16  1  0  0  0  0
  2 13  1  0  0  0  0
  2  6  1  1  0  0  0
  2  8  1  0  0  0  0
  4 15  1  0  0  0  0
  5 10  2  0  0  0  0
  5 14  1  0  0  0  0
  7 12  2  0  0  0  0
  8 24  1  1  0  0  0
  9 11  1  0  0  0  0
  9 18  1  0  0  0  0
 10  7  1  0  0  0  0
 12 15  1  0  0  0  0
 12 17  1  0  0  0  0
 13  1  1  6  0  0  0
 13  8  1  0  0  0  0
 14  4  2  0  0  0  0
 15 19  2  0  0  0  0
 17  3  1  1  0  0  0
 17  2  1  0  0  0  0
 19  6  1  0  0  0  0
 20 21  1  0  0  0  0
 20 11  1  0  0  0  0
 21 16  1  0  0  0  0
 22  3  1  0  0  0  0
 22 18  1  0  0  0  0
 24 25  1  1  0  0  0
 24 27  1  0  0  0  0
 25 23  1  0  0  0  0
 26 23  1  0  0  0  0
 27 26  1  0  0  0  0
M  END
>  <MODEL>
1

>  <REMARK>
 VINA RESULT:      -5.8      0.000      0.000
  Name = 
  1 active torsions:
  status: ('A' for Active; 'I' for Inactive)
    1  A    between atoms: C_9  and  C_11
                            x       y       z     vdW  Elec       q    Type
                         _______ _______ _______ _____ _____    ______ ____

>  <TORSDO>
F 1

$$$$
=
 OpenBabel11052413433D

 27 31  0  0  1  0  0  0  0  0999 V2000
  188.8810  178.7130  136.4990 C   0  0  0  0  0  2  0  0  0  0  0  0
  190.0390  177.2680  138.2330 C   0  0  1  0  0  0  0  0  0  0  0  0
  189.6200  174.8510  137.6510 C   0  0  0  0  0  2  0  0  0  0  0  0
  193.9670  175.6270  137.4730 C   0  0  0  0  0  3  0  0  0  0  0  0
  194.1140  175.5250  135.0120 C   0  0  0  0  0  3  0  0  0  0  0  0
  191.1610  177.3120  139.1610 N   0  0  0  0  0  2  0  0  0  0  0  0
  191.6930  175.9030  135.3860 N   0  0  0  0  0  0  0  0  0  0  0  0
  188.6670  177.6120  138.7860 C   0  0  2  0  0  3  0  0  0  0  0  0
  186.0500  174.9640  136.3630 C   0  0  0  0  0  2  0  0  0  0  0  0
  192.8760  175.7740  134.5940 C   0  0  0  0  0  3  0  0  0  0  0  0
  185.7260  176.3950  135.9590 C   0  0  0  0  0  2  0  0  0  0  0  0
  191.5310  176.0780  136.6610 C   0  0  0  0  0  0  0  0  0  0  0  0
  189.4290  178.6340  137.9270 C   0  0  2  0  0  3  0  0  0  0  0  0
  194.5560  175.3400  136.3570 N   0  0  0  0  0  0  0  0  0  0  0  0
  192.6380  176.2160  137.6450 C   0  0  0  0  0  0  0  0  0  0  0  0
  187.3570  178.8220  136.4750 C   0  0  0  0  0  2  0  0  0  0  0  0
  190.1160  176.1990  137.1440 C   0  0  2  0  0  3  0  0  0  0  0  0
  187.1400  174.9450  137.4230 C   0  0  0  0  0  2  0  0  0  0  0  0
  192.4080  176.7700  138.8010 N   0  0  0  0  0  0  0  0  0  0  0  0
  186.9020  177.0130  135.2120 C   0  0  0  0  0  2  0  0  0  0  0  0
  186.8390  178.4150  135.2340 O   0  0  0  0  0  0  0  0  0  0  0  0
  188.4260  174.4020  136.8270 C   0  0  0  0  0  2  0  0  0  0  0  0
  188.1590  177.0050  142.3070 C   0  0  0  0  0  2  0  0  0  0  0  0
  188.6910  178.0450  140.2450 C   0  0  2  0  0  3  0  0  0  0  0  0
  189.0620  176.8690  141.1200 C   0  0  0  0  0  2  0  0  0  0  0  0
  187.3470  178.2420  142.0080 C   0  0  0  0  0  2  0  0  0  0  0  0
  187.4230  178.4990  140.6320 O   0  0  0  0  0  0  0  0  0  0  0  0
  2  8  1  0  0  0  0
  2  6  1  1  0  0  0
  4 15  1  0  0  0  0
  5 14  1  0  0  0  0
  7 12  2  0  0  0  0
  8 24  1  1  0  0  0
  9 18  1  0  0  0  0
 10  5  2  0  0  0  0
 10  7  1  0  0  0  0
 11  9  1  0  0  0  0
 12 17  1  0  0  0  0
 12 15  1  0  0  0  0
 13  1  1  6  0  0  0
 13  2  1  0  0  0  0
 13  8  1  0  0  0  0
 14  4  2  0  0  0  0
 15 19  2  0  0  0  0
 16  1  1  0  0  0  0
 17  3  1  1  0  0  0
 17  2  1  0  0  0  0
 19  6  1  0  0  0  0
 20 21  1  0  0  0  0
 20 11  1  0  0  0  0
 21 16  1  0  0  0  0
 22 18  1  0  0  0  0
 22  3  1  0  0  0  0
 24 27  1  0  0  0  0
 24 25  1  1  0  0  0
 25 23  1  0  0  0  0
 26 23  1  0  0  0  0
 27 26  1  0  0  0  0
M  END
>  <MODEL>
2

>  <REMARK>
 VINA RESULT:      -5.6      8.153     10.241
  Name = 
  1 active torsions:
  status: ('A' for Active; 'I' for Inactive)
    1  A    between atoms: C_9  and  C_11
                            x       y       z     vdW  Elec       q    Type
                         _______ _______ _______ _____ _____    ______ ____

>  <TORSDO>
F 1

$$$$
=
 OpenBabel11052413433D

 27 31  0  0  1  0  0  0  0  0999 V2000
  181.3370  178.9350  136.6270 C   0  0  0  0  0  2  0  0  0  0  0  0
  182.5430  178.9740  138.8590 C   0  0  1  0  0  0  0  0  0  0  0  0
  182.7960  176.5980  139.6590 C   0  0  0  0  0  2  0  0  0  0  0  0
  186.8140  178.3380  139.0720 C   0  0  0  0  0  3  0  0  0  0  0  0
  187.3340  177.0320  137.0450 C   0  0  0  0  0  3  0  0  0  0  0  0
  183.4770  179.7980  139.6130 N   0  0  0  0  0  2  0  0  0  0  0  0
  184.8640  176.8600  137.1710 N   0  0  0  0  0  0  0  0  0  0  0  0
  181.0630  179.1580  139.1490 C   0  0  2  0  0  3  0  0  0  0  0  0
  179.5230  175.0390  138.5270 C   0  0  0  0  0  2  0  0  0  0  0  0
  186.1450  176.6750  136.5640 C   0  0  0  0  0  3  0  0  0  0  0  0
  178.9320  175.9030  137.4230 C   0  0  0  0  0  2  0  0  0  0  0  0
  184.4840  177.6130  138.1570 C   0  0  0  0  0  0  0  0  0  0  0  0
  181.6770  179.7580  137.8730 C   0  0  2  0  0  3  0  0  0  0  0  0
  187.6090  177.6950  138.2790 N   0  0  0  0  0  0  0  0  0  0  0  0
  185.3730  178.5370  138.9100 C   0  0  0  0  0  0  0  0  0  0  0  0
  179.8500  178.5890  136.5550 C   0  0  0  0  0  2  0  0  0  0  0  0
  183.0260  177.5680  138.5070 C   0  0  2  0  0  3  0  0  0  0  0  0
  180.4230  175.8700  139.4280 C   0  0  0  0  0  2  0  0  0  0  0  0
  184.8550  179.5180  139.5930 N   0  0  0  0  0  0  0  0  0  0  0  0
  180.0220  176.3460  136.4560 C   0  0  0  0  0  2  0  0  0  0  0  0
  179.6270  177.4780  135.7260 O   0  0  0  0  0  0  0  0  0  0  0  0
  181.8730  175.4780  139.2080 C   0  0  0  0  0  2  0  0  0  0  0  0
  179.4290  180.4570  142.0930 C   0  0  0  0  0  2  0  0  0  0  0  0
  180.7750  180.2670  140.1520 C   0  0  2  0  0  3  0  0  0  0  0  0
  180.5700  179.6710  141.5260 C   0  0  0  0  0  2  0  0  0  0  0  0
  179.0750  181.4300  140.9940 C   0  0  0  0  0  2  0  0  0  0  0  0
  179.6050  180.9490  139.7890 O   0  0  0  0  0  0  0  0  0  0  0  0
  2  8  1  0  0  0  0
  2  6  1  1  0  0  0
  5 14  1  0  0  0  0
  7 12  2  0  0  0  0
  8 24  1  1  0  0  0
  9 18  1  0  0  0  0
 10  5  2  0  0  0  0
 10  7  1  0  0  0  0
 11  9  1  0  0  0  0
 12 17  1  0  0  0  0
 12 15  1  0  0  0  0
 13  1  1  6  0  0  0
 13  2  1  0  0  0  0
 13  8  1  0  0  0  0
 14  4  2  0  0  0  0
 15  4  1  0  0  0  0
 15 19  2  0  0  0  0
 16  1  1  0  0  0  0
 17  2  1  0  0  0  0
 17  3  1  1  0  0  0
 19  6  1  0  0  0  0
 20 11  1  0  0  0  0
 21 20  1  0  0  0  0
 21 16  1  0  0  0  0
 22 18  1  0  0  0  0
 22  3  1  0  0  0  0
 24 25  1  1  0  0  0
 25 23  1  0  0  0  0
 26 23  1  0  0  0  0
 27 24  1  0  0  0  0
 27 26  1  0  0  0  0
M  END
>  <MODEL>
3

>  <REMARK>
 VINA RESULT:      -5.4      2.963      4.634
  Name = 
  1 active torsions:
  status: ('A' for Active; 'I' for Inactive)
    1  A    between atoms: C_9  and  C_11
                            x       y       z     vdW  Elec       q    Type
                         _______ _______ _______ _____ _____    ______ ____

>  <TORSDO>
F 1

$$$$
=
 OpenBabel11052413433D

 27 31  0  0  1  0  0  0  0  0999 V2000
  183.1280  178.9860  139.1780 C   0  0  0  0  0  2  0  0  0  0  0  0
  181.3160  178.8980  137.4030 C   0  0  1  0  0  0  0  0  0  0  0  0
  179.2020  179.8530  138.3890 C   0  0  0  0  0  2  0  0  0  0  0  0
  180.4400  182.3620  134.9690 C   0  0  0  0  0  3  0  0  0  0  0  0
  181.1800  184.2720  136.3440 C   0  0  0  0  0  3  0  0  0  0  0  0
  181.1660  178.8890  135.9550 N   0  0  0  0  0  2  0  0  0  0  0  0
  181.1580  182.4120  137.9830 N   0  0  0  0  0  0  0  0  0  0  0  0
  181.3120  177.5530  138.1110 C   0  0  2  0  0  3  0  0  0  0  0  0
  179.3660  178.5900  141.9660 C   0  0  0  0  0  2  0  0  0  0  0  0
  181.4240  183.7450  137.5420 C   0  0  0  0  0  3  0  0  0  0  0  0
  180.8080  178.2220  142.2840 C   0  0  0  0  0  2  0  0  0  0  0  0
  180.8800  181.3300  137.3220 C   0  0  0  0  0  0  0  0  0  0  0  0
  182.6360  178.3060  137.8970 C   0  0  2  0  0  3  0  0  0  0  0  0
  180.6040  183.6230  135.2110 N   0  0  0  0  0  0  0  0  0  0  0  0
  180.7970  181.2410  135.8390 C   0  0  0  0  0  0  0  0  0  0  0  0
  183.0800  178.0450  140.3810 C   0  0  0  0  0  2  0  0  0  0  0  0
  180.6860  180.0830  138.1320 C   0  0  2  0  0  3  0  0  0  0  0  0
  179.1090  178.4860  140.4710 C   0  0  0  0  0  2  0  0  0  0  0  0
  180.9070  180.0820  135.2560 N   0  0  0  0  0  0  0  0  0  0  0  0
  181.7580  179.2750  141.7270 C   0  0  0  0  0  2  0  0  0  0  0  0
  183.0590  178.7650  141.5870 O   0  0  0  0  0  0  0  0  0  0  0  0
  178.9310  179.8750  139.8830 C   0  0  0  0  0  2  0  0  0  0  0  0
  179.8690  174.4370  137.0020 C   0  0  0  0  0  2  0  0  0  0  0  0
  181.2340  176.3680  137.1590 C   0  0  2  0  0  3  0  0  0  0  0  0
  179.7950  175.9330  137.0030 C   0  0  0  0  0  2  0  0  0  0  0  0
  181.3420  174.1450  137.1630 C   0  0  0  0  0  2  0  0  0  0  0  0
  181.9670  175.2900  137.6760 O   0  0  0  0  0  0  0  0  0  0  0  0
  1 16  1  0  0  0  0
  2  6  1  6  0  0  0
  2 13  1  0  0  0  0
  2  8  1  0  0  0  0
  2 17  1  0  0  0  0
  3 22  1  0  0  0  0
  4 14  2  0  0  0  0
  4 15  1  0  0  0  0
  5 10  2  0  0  0  0
  8 24  1  6  0  0  0
  9 11  1  0  0  0  0
 10  7  1  0  0  0  0
 12  7  2  0  0  0  0
 12 17  1  0  0  0  0
 13  8  1  0  0  0  0
 13  1  1  1  0  0  0
 14  5  1  0  0  0  0
 15 12  1  0  0  0  0
 16 21  1  0  0  0  0
 17  3  1  6  0  0  0
 18  9  1  0  0  0  0
 19 15  2  0  0  0  0
 19  6  1  0  0  0  0
 20 11  1  0  0  0  0
 21 20  1  0  0  0  0
 22 18  1  0  0  0  0
 23 25  1  0  0  0  0
 23 26  1  0  0  0  0
 24 25  1  1  0  0  0
 24 27  1  0  0  0  0
 26 27  1  0  0  0  0
M  END
>  <MODEL>
4

>  <REMARK>
 VINA RESULT:      -4.8      1.613      4.638
  Name = 
  1 active torsions:
  status: ('A' for Active; 'I' for Inactive)
    1  A    between atoms: C_9  and  C_11
                            x       y       z     vdW  Elec       q    Type
                         _______ _______ _______ _____ _____    ______ ____

>  <TORSDO>
F 1

$$$$
=
 OpenBabel11052413433D

 27 31  0  0  1  0  0  0  0  0999 V2000
  181.1140  177.2210  140.4050 C   0  0  0  0  0  2  0  0  0  0  0  0
  182.4730  177.7920  138.3410 C   0  0  1  0  0  0  0  0  0  0  0  0
  182.9040  180.2760  138.3440 C   0  0  0  0  0  2  0  0  0  0  0  0
  186.7760  178.1570  138.5610 C   0  0  0  0  0  3  0  0  0  0  0  0
  187.2150  178.7280  140.9210 C   0  0  0  0  0  3  0  0  0  0  0  0
  183.4160  177.1800  137.4150 N   0  0  0  0  0  0  0  0  0  0  0  0
  184.7730  179.1060  140.7270 N   0  0  0  0  0  0  0  0  0  0  0  0
  181.0110  177.8140  137.9310 C   0  0  2  0  0  3  0  0  0  0  0  0
  179.6440  181.6340  139.7370 C   0  0  0  0  0  2  0  0  0  0  0  0
  186.0150  179.0010  141.4270 C   0  0  0  0  0  3  0  0  0  0  0  0
  178.9310  180.5140  140.4800 C   0  0  0  0  0  2  0  0  0  0  0  0
  184.4260  178.7260  139.5360 C   0  0  0  0  0  0  0  0  0  0  0  0
  181.5000  176.8050  138.9830 C   0  0  2  0  0  3  0  0  0  0  0  0
  187.5440  178.4640  139.5570 N   0  0  0  0  0  2  0  0  0  0  0  0
  185.3190  178.0210  138.5770 C   0  0  0  0  0  0  0  0  0  0  0  0
  179.6460  177.6320  140.5040 C   0  0  0  0  0  2  0  0  0  0  0  0
  183.0020  178.9810  139.1420 C   0  0  2  0  0  3  0  0  0  0  0  0
  180.5610  181.0620  138.6680 C   0  0  0  0  0  2  0  0  0  0  0  0
  184.8020  177.3410  137.5940 N   0  0  0  0  0  0  0  0  0  0  0  0
  179.9250  179.7150  141.3140 C   0  0  0  0  0  2  0  0  0  0  0  0
  179.4200  178.4430  141.6290 O   0  0  0  0  0  0  0  0  0  0  0  0
  182.0110  181.2620  139.0760 C   0  0  0  0  0  2  0  0  0  0  0  0
  179.6320  177.6620  134.5990 C   0  0  0  0  0  2  0  0  0  0  0  0
  180.7390  177.0950  136.6160 C   0  0  2  0  0  3  0  0  0  0  0  0
  180.7680  178.0880  135.4770 C   0  0  0  0  0  2  0  0  0  0  0  0
  179.0470  176.4680  135.3130 C   0  0  0  0  0  2  0  0  0  0  0  0
  179.4700  176.5000  136.6490 O   0  0  0  0  0  0  0  0  0  0  0  0
  1 16  1  0  0  0  0
  2  6  1  6  0  0  0
  2 13  1  0  0  0  0
  2 17  1  0  0  0  0
  3 22  1  0  0  0  0
  4 15  2  0  0  0  0
  4 14  1  0  0  0  0
  5 10  2  0  0  0  0
  6 19  2  0  0  0  0
  7 10  1  0  0  0  0
  8 24  1  6  0  0  0
  8  2  1  0  0  0  0
  8 13  1  0  0  0  0
  9 11  1  0  0  0  0
 11 20  1  0  0  0  0
 12  7  2  0  0  0  0
 13  1  1  1  0  0  0
 14  5  1  0  0  0  0
 15 12  1  0  0  0  0
 16 21  1  0  0  0  0
 17  3  1  6  0  0  0
 17 12  1  0  0  0  0
 18 22  1  0  0  0  0
 18  9  1  0  0  0  0
 19 15  1  0  0  0  0
 20 21  1  0  0  0  0
 23 26  1  0  0  0  0
 23 25  1  0  0  0  0
 24 25  1  6  0  0  0
 24 27  1  0  0  0  0
 26 27  1  0  0  0  0
M  END
>  <MODEL>
5

>  <REMARK>
 VINA RESULT:      -4.6      3.103      6.118
  Name = 
  1 active torsions:
  status: ('A' for Active; 'I' for Inactive)
    1  A    between atoms: C_9  and  C_11
                            x       y       z     vdW  Elec       q    Type
                         _______ _______ _______ _____ _____    ______ ____

>  <TORSDO>
F 1

$$$$
=
 OpenBabel11052413433D

 27 31  0  0  1  0  0  0  0  0999 V2000
  190.5970  174.2210  137.7190 C   0  0  0  0  0  2  0  0  0  0  0  0
  191.8150  176.3580  138.3390 C   0  0  1  0  0  0  0  0  0  0  0  0
  190.1610  178.2590  138.2570 C   0  0  0  0  0  2  0  0  0  0  0  0
  191.6900  177.8780  142.3850 C   0  0  0  0  0  3  0  0  0  0  0  0
  189.6010  176.9500  143.3150 C   0  0  0  0  0  3  0  0  0  0  0  0
  192.9700  176.8090  139.1020 N   0  0  0  0  0  0  0  0  0  0  0  0
  189.3270  176.5460  140.8850 N   0  0  0  0  0  0  0  0  0  0  0  0
  192.0050  176.1550  136.8460 C   0  0  2  0  0  3  0  0  0  0  0  0
  188.0060  177.2930  135.2840 C   0  0  0  0  0  2  0  0  0  0  0  0
  188.9660  176.4380  142.2640 C   0  0  0  0  0  3  0  0  0  0  0  0
  188.1710  175.8010  135.0300 C   0  0  0  0  0  2  0  0  0  0  0  0
  190.4350  176.9090  140.3150 C   0  0  0  0  0  0  0  0  0  0  0  0
  191.9470  174.9400  137.7860 C   0  0  2  0  0  3  0  0  0  0  0  0
  190.8020  177.7220  143.3140 N   0  0  0  0  0  2  0  0  0  0  0  0
  191.6740  177.2970  141.0410 C   0  0  0  0  0  0  0  0  0  0  0  0
  190.1490  173.9740  136.2790 C   0  0  0  0  0  2  0  0  0  0  0  0
  190.4580  176.8730  138.8160 C   0  0  2  0  0  3  0  0  0  0  0  0
  189.2370  177.8530  135.9770 C   0  0  0  0  0  2  0  0  0  0  0  0
  192.8210  177.2610  140.4250 N   0  0  0  0  0  0  0  0  0  0  0  0
  188.1650  175.0370  136.3470 C   0  0  0  0  0  2  0  0  0  0  0  0
  188.7610  173.7730  136.2060 O   0  0  0  0  0  0  0  0  0  0  0  0
  188.8980  178.2110  137.4140 C   0  0  0  0  0  2  0  0  0  0  0  0
  194.7620  175.5600  134.5940 C   0  0  0  0  0  2  0  0  0  0  0  0
  193.4370  176.3780  136.3800 C   0  0  2  0  0  3  0  0  0  0  0  0
  193.4990  176.3160  134.8710 C   0  0  0  0  0  2  0  0  0  0  0  0
  195.3110  175.2510  135.9650 C   0  0  0  0  0  2  0  0  0  0  0  0
  194.2700  175.3760  136.8970 O   0  0  0  0  0  0  0  0  0  0  0  0
  2 17  1  0  0  0  0
  2  6  1  1  0  0  0
  4 14  1  0  0  0  0
  6 19  2  0  0  0  0
  7 10  1  0  0  0  0
  8 24  1  1  0  0  0
  8 13  1  0  0  0  0
  8  2  1  0  0  0  0
  9 18  1  0  0  0  0
 10  5  2  0  0  0  0
 11  9  1  0  0  0  0
 11 20  1  0  0  0  0
 12  7  2  0  0  0  0
 12 15  1  0  0  0  0
 13  1  1  6  0  0  0
 13  2  1  0  0  0  0
 14  5  1  0  0  0  0
 15  4  2  0  0  0  0
 16  1  1  0  0  0  0
 17  3  1  6  0  0  0
 17 12  1  0  0  0  0
 18 22  1  0  0  0  0
 19 15  1  0  0  0  0
 21 16  1  0  0  0  0
 21 20  1  0  0  0  0
 22  3  1  0  0  0  0
 23 25  1  0  0  0  0
 23 26  1  0  0  0  0
 24 25  1  6  0  0  0
 24 27  1  0  0  0  0
 26 27  1  0  0  0  0
M  END
>  <MODEL>
6

>  <REMARK>
 VINA RESULT:      -4.4      9.373     12.091
  Name = 
  1 active torsions:
  status: ('A' for Active; 'I' for Inactive)
    1  A    between atoms: C_9  and  C_11
                            x       y       z     vdW  Elec       q    Type
                         _______ _______ _______ _____ _____    ______ ____

>  <TORSDO>
F 1

$$$$
=
 OpenBabel11052413433D

 27 31  0  0  1  0  0  0  0  0999 V2000
  182.8770  177.5600  139.7920 C   0  0  0  0  0  2  0  0  0  0  0  0
  183.1440  175.7170  138.0700 C   0  0  1  0  0  0  0  0  0  0  0  0
  183.2640  176.7830  135.7890 C   0  0  0  0  0  2  0  0  0  0  0  0
  187.0560  174.6510  136.5660 C   0  0  0  0  0  3  0  0  0  0  0  0
  188.4030  176.6940  136.8820 C   0  0  0  0  0  3  0  0  0  0  0  0
  183.6570  174.3590  137.9520 N   0  0  0  0  0  2  0  0  0  0  0  0
  186.0900  177.5270  137.2010 N   0  0  0  0  0  0  0  0  0  0  0  0
  181.6550  175.8790  138.3210 C   0  0  2  0  0  3  0  0  0  0  0  0
  180.7950  179.6470  136.1330 C   0  0  0  0  0  2  0  0  0  0  0  0
  187.5160  177.6320  137.2030 C   0  0  0  0  0  3  0  0  0  0  0  0
  180.5970  179.9400  137.6130 C   0  0  0  0  0  2  0  0  0  0  0  0
  185.3080  176.4930  137.1580 C   0  0  0  0  0  0  0  0  0  0  0  0
  182.6550  176.0800  139.4710 C   0  0  2  0  0  3  0  0  0  0  0  0
  188.1390  175.3530  136.4700 N   0  0  0  0  0  0  0  0  0  0  0  0
  185.7720  175.0790  137.1220 C   0  0  0  0  0  0  0  0  0  0  0  0
  181.5590  178.3250  139.9100 C   0  0  0  0  0  2  0  0  0  0  0  0
  183.8340  176.7680  137.2010 C   0  0  2  0  0  3  0  0  0  0  0  0
  181.2190  178.2010  135.9300 C   0  0  0  0  0  2  0  0  0  0  0  0
  184.9580  174.1250  137.4730 N   0  0  0  0  0  0  0  0  0  0  0  0
  181.9330  179.8990  138.3440 C   0  0  0  0  0  2  0  0  0  0  0  0
  181.7540  179.7040  139.7220 O   0  0  0  0  0  0  0  0  0  0  0  0
  182.6710  178.1490  135.4900 C   0  0  0  0  0  2  0  0  0  0  0  0
  178.9630  173.5920  137.5820 C   0  0  0  0  0  2  0  0  0  0  0  0
  180.9230  174.5560  138.5000 C   0  0  2  0  0  3  0  0  0  0  0  0
  180.3020  174.1350  137.1880 C   0  0  0  0  0  2  0  0  0  0  0  0
  178.9300  173.7530  139.0820 C   0  0  0  0  0  2  0  0  0  0  0  0
  179.8990  174.7000  139.4460 O   0  0  0  0  0  0  0  0  0  0  0  0
  1 16  1  0  0  0  0
  2  6  1  6  0  0  0
  2  8  1  0  0  0  0
  2 13  1  0  0  0  0
  4 15  1  0  0  0  0
  5 10  2  0  0  0  0
  7 10  1  0  0  0  0
  8 24  1  1  0  0  0
  8 13  1  0  0  0  0
  9 11  1  0  0  0  0
 11 20  1  0  0  0  0
 12  7  2  0  0  0  0
 12 17  1  0  0  0  0
 13  1  1  6  0  0  0
 14  4  2  0  0  0  0
 14  5  1  0  0  0  0
 15 12  1  0  0  0  0
 15 19  2  0  0  0  0
 17  3  1  6  0  0  0
 17  2  1  0  0  0  0
 18  9  1  0  0  0  0
 19  6  1  0  0  0  0
 20 21  1  0  0  0  0
 21 16  1  0  0  0  0
 22  3  1  0  0  0  0
 22 18  1  0  0  0  0
 23 26  1  0  0  0  0
 24 25  1  6  0  0  0
 24 27  1  0  0  0  0
 25 23  1  0  0  0  0
 26 27  1  0  0  0  0
M  END
>  <MODEL>
7

>  <REMARK>
 VINA RESULT:      -4.3      3.753      6.555
  Name = 
  1 active torsions:
  status: ('A' for Active; 'I' for Inactive)
    1  A    between atoms: C_9  and  C_11
                            x       y       z     vdW  Elec       q    Type
                         _______ _______ _______ _____ _____    ______ ____

>  <TORSDO>
F 1

$$$$
=
 OpenBabel11052413433D

 27 31  0  0  1  0  0  0  0  0999 V2000
  180.4120  178.1830  140.6780 C   0  0  0  0  0  2  0  0  0  0  0  0
  180.2440  178.3060  138.1490 C   0  0  1  0  0  0  0  0  0  0  0  0
  182.4060  177.4520  137.1740 C   0  0  0  0  0  2  0  0  0  0  0  0
  179.1080  174.8310  135.8400 C   0  0  0  0  0  3  0  0  0  0  0  0
  179.7440  172.9220  137.2670 C   0  0  0  0  0  3  0  0  0  0  0  0
  179.2450  178.2920  137.0910 N   0  0  0  0  0  2  0  0  0  0  0  0
  180.9260  174.8130  138.3500 N   0  0  0  0  0  0  0  0  0  0  0  0
  180.7290  179.6630  138.6300 C   0  0  2  0  0  3  0  0  0  0  0  0
  184.9590  178.7770  139.6530 C   0  0  0  0  0  2  0  0  0  0  0  0
  180.4720  173.4610  138.2410 C   0  0  0  0  0  3  0  0  0  0  0  0
  184.2460  179.0960  140.9590 C   0  0  0  0  0  2  0  0  0  0  0  0
  180.5640  175.8910  137.7260 C   0  0  0  0  0  0  0  0  0  0  0  0
  179.7350  178.8560  139.4810 C   0  0  2  0  0  3  0  0  0  0  0  0
  179.2350  173.5700  136.1020 N   0  0  0  0  0  0  0  0  0  0  0  0
  179.4910  175.9550  136.6970 C   0  0  0  0  0  0  0  0  0  0  0  0
  181.3170  179.1480  141.4420 C   0  0  0  0  0  2  0  0  0  0  0  0
  181.2540  177.1600  138.1280 C   0  0  2  0  0  3  0  0  0  0  0  0
  183.9900  178.8620  138.4850 C   0  0  0  0  0  2  0  0  0  0  0  0
  178.9310  177.0970  136.4180 N   0  0  0  0  0  0  0  0  0  0  0  0
  183.2470  177.9960  141.2990 C   0  0  0  0  0  2  0  0  0  0  0  0
  182.2740  178.4530  142.2010 O   0  0  0  0  0  0  0  0  0  0  0  0
  183.7160  177.4690  137.9440 C   0  0  0  0  0  2  0  0  0  0  0  0
  180.6990  182.7350  136.7370 C   0  0  0  0  0  2  0  0  0  0  0  0
  180.0110  180.8320  137.9690 C   0  0  2  0  0  3  0  0  0  0  0  0
  180.7480  181.2390  136.7140 C   0  0  0  0  0  2  0  0  0  0  0  0
  179.9460  183.0560  138.0050 C   0  0  0  0  0  2  0  0  0  0  0  0
  179.9850  181.9310  138.8400 O   0  0  0  0  0  0  0  0  0  0  0  0
  1 16  1  0  0  0  0
  2  6  1  6  0  0  0
  2  8  1  0  0  0  0
  2 13  1  0  0  0  0
  3 22  1  0  0  0  0
  4 14  2  0  0  0  0
  4 15  1  0  0  0  0
  5 10  2  0  0  0  0
  8 24  1  6  0  0  0
  8 13  1  0  0  0  0
  9 11  1  0  0  0  0
 10  7  1  0  0  0  0
 11 20  1  0  0  0  0
 12 17  1  0  0  0  0
 12  7  2  0  0  0  0
 13  1  1  1  0  0  0
 14  5  1  0  0  0  0
 15 12  1  0  0  0  0
 16 21  1  0  0  0  0
 17  3  1  6  0  0  0
 17  2  1  0  0  0  0
 18  9  1  0  0  0  0
 19 15  2  0  0  0  0
 19  6  1  0  0  0  0
 20 21  1  0  0  0  0
 22 18  1  0  0  0  0
 23 26  1  0  0  0  0
 24 25  1  6  0  0  0
 24 27  1  0  0  0  0
 25 23  1  0  0  0  0
 26 27  1  0  0  0  0
M  END
>  <MODEL>
8

>  <REMARK>
 VINA RESULT:      -4.3      2.762      5.679
  Name = 
  1 active torsions:
  status: ('A' for Active; 'I' for Inactive)
    1  A    between atoms: C_9  and  C_11
                            x       y       z     vdW  Elec       q    Type
                         _______ _______ _______ _____ _____    ______ ____

>  <TORSDO>
F 1

$$$$
=
 OpenBabel11052413433D

 27 31  0  0  1  0  0  0  0  0999 V2000
  183.7870  177.0330  138.5300 C   0  0  0  0  0  2  0  0  0  0  0  0
  182.3880  176.3950  136.5120 C   0  0  1  0  0  0  0  0  0  0  0  0
  183.9480  175.6710  134.6690 C   0  0  0  0  0  2  0  0  0  0  0  0
  181.3530  172.2650  135.7590 C   0  0  0  0  0  3  0  0  0  0  0  0
  183.1290  170.9790  136.8910 C   0  0  0  0  0  3  0  0  0  0  0  0
  181.0550  175.9110  136.1800 N   0  0  0  0  0  0  0  0  0  0  0  0
  184.0720  173.2710  136.8520 N   0  0  0  0  0  0  0  0  0  0  0  0
  182.6220  177.8940  136.4350 C   0  0  2  0  0  3  0  0  0  0  0  0
  186.8640  178.0590  135.1300 C   0  0  0  0  0  2  0  0  0  0  0  0
  184.0420  171.8900  137.2190 C   0  0  0  0  0  3  0  0  0  0  0  0
  186.8150  178.6150  136.5450 C   0  0  0  0  0  2  0  0  0  0  0  0
  183.1550  174.0490  136.3650 C   0  0  0  0  0  0  0  0  0  0  0  0
  182.4510  177.2110  137.8020 C   0  0  2  0  0  3  0  0  0  0  0  0
  181.9540  171.1710  136.1030 N   0  0  0  0  0  2  0  0  0  0  0  0
  181.7530  173.6340  136.0850 C   0  0  0  0  0  0  0  0  0  0  0  0
  184.6200  178.3140  138.5210 C   0  0  0  0  0  2  0  0  0  0  0  0
  183.5460  175.4760  136.1260 C   0  0  2  0  0  3  0  0  0  0  0  0
  185.4740  177.6410  134.6750 C   0  0  0  0  0  2  0  0  0  0  0  0
  180.8210  174.5380  135.9800 N   0  0  0  0  0  0  0  0  0  0  0  0
  186.4790  177.5090  137.5370 C   0  0  0  0  0  2  0  0  0  0  0  0
  185.9800  178.0360  138.7390 O   0  0  0  0  0  0  0  0  0  0  0  0
  185.3950  176.1270  134.5940 C   0  0  0  0  0  2  0  0  0  0  0  0
  180.8750  180.4970  134.6470 C   0  0  0  0  0  2  0  0  0  0  0  0
  181.3670  178.6870  136.0950 C   0  0  2  0  0  3  0  0  0  0  0  0
  181.4000  179.0950  134.6400 C   0  0  0  0  0  2  0  0  0  0  0  0
  180.5920  180.7730  136.1040 C   0  0  0  0  0  2  0  0  0  0  0  0
  181.3090  179.8490  136.8770 O   0  0  0  0  0  0  0  0  0  0  0  0
  2  6  1  6  0  0  0
  2 13  1  0  0  0  0
  4 15  2  0  0  0  0
  4 14  1  0  0  0  0
  5 10  2  0  0  0  0
  7 10  1  0  0  0  0
  8 24  1  6  0  0  0
  8  2  1  0  0  0  0
  8 13  1  0  0  0  0
  9 11  1  0  0  0  0
 11 20  1  0  0  0  0
 12  7  2  0  0  0  0
 13  1  1  1  0  0  0
 14  5  1  0  0  0  0
 15 12  1  0  0  0  0
 16  1  1  0  0  0  0
 16 21  1  0  0  0  0
 17  3  1  6  0  0  0
 17 12  1  0  0  0  0
 17  2  1  0  0  0  0
 18  9  1  0  0  0  0
 19 15  1  0  0  0  0
 19  6  2  0  0  0  0
 20 21  1  0  0  0  0
 22  3  1  0  0  0  0
 22 18  1  0  0  0  0
 23 26  1  0  0  0  0
 24 25  1  6  0  0  0
 24 27  1  0  0  0  0
 25 23  1  0  0  0  0
 26 27  1  0  0  0  0
M  END
>  <MODEL>
9

>  <REMARK>
 VINA RESULT:      -4.1      4.218      7.464
  Name = 
  1 active torsions:
  status: ('A' for Active; 'I' for Inactive)
    1  A    between atoms: C_9  and  C_11
                            x       y       z     vdW  Elec       q    Type
                         _______ _______ _______ _____ _____    ______ ____

>  <TORSDO>
F 1

$$$$
