=
 OpenBabel11052417003D

 32 38  0  0  1  0  0  0  0  0999 V2000
  180.9300  179.2830  143.2430 C   0  0  1  0  0  3  0  0  0  0  0  0
  186.0430  178.1750  143.0290 C   0  0  0  0  0  0  0  0  0  0  0  0
  187.4260  177.5420  147.7570 C   0  0  0  0  0  2  0  0  0  0  0  0
  188.8020  178.0590  147.3790 C   0  0  0  0  0  2  0  0  0  0  0  0
  187.8380  178.0200  141.2000 C   0  0  0  0  0  0  0  0  0  0  0  0
  189.0850  177.6450  140.8740 C   0  0  0  0  0  0  0  0  0  0  0  0
  183.5610  178.1800  142.5020 C   0  0  1  0  0  3  0  0  0  0  0  0
  184.2870  178.3510  144.8720 C   0  0  0  0  0  2  0  0  0  0  0  0
  191.8580  177.4130  140.3370 C   0  0  0  0  0  3  0  0  0  0  0  0
  181.9180  178.8060  144.3050 C   0  0  0  0  0  2  0  0  0  0  0  0
  186.3860  178.1790  146.8450 C   0  0  0  0  0  2  0  0  0  0  0  0
  185.7220  178.2230  144.4100 C   0  0  0  0  0  0  0  0  0  0  0  0
  186.7300  178.0490  145.3780 C   0  0  0  0  0  0  0  0  0  0  0  0
  188.3780  177.7750  143.6120 C   0  0  0  0  0  0  0  0  0  0  0  0
  190.8920  177.6280  139.2400 C   0  0  0  0  0  3  0  0  0  0  0  0
  181.0850  180.6450  143.0310 F   0  0  0  0  0  0  0  0  0  0  0  0
  183.3600  178.9350  143.8160 C   0  0  2  0  0  3  0  0  0  0  0  0
  189.5860  177.7520  139.4900 C   0  0  0  0  0  3  0  0  0  0  0  0
  182.5700  178.6610  141.4460 C   0  0  0  0  0  2  0  0  0  0  0  0
  181.1350  178.4980  141.9470 C   0  0  2  0  0  3  0  0  0  0  0  0
  189.1550  177.5660  145.9810 C   0  0  0  0  0  2  0  0  0  0  0  0
  188.0660  177.8460  144.9730 C   0  0  0  0  0  0  0  0  0  0  0  0
  189.6970  177.5150  143.2170 O   0  0  0  0  0  0  0  0  0  0  0  0
  184.9720  178.4360  141.9970 C   0  0  0  0  0  2  0  0  0  0  0  0
  186.9980  178.5050  140.2000 O   0  0  0  0  0  1  0  0  0  0  0  0
  191.4450  177.1760  141.5880 C   0  0  0  0  0  3  0  0  0  0  0  0
  187.3880  177.9750  142.6280 C   0  0  0  0  0  0  0  0  0  0  0  0
  189.9850  177.0200  141.9140 C   0  0  2  0  0  3  0  0  0  0  0  0
  180.1390  178.9480  140.8890 C   0  0  0  0  0  2  0  0  0  0  0  0
  180.8100  179.8620  139.8810 C   0  0  0  0  0  3  0  0  0  0  0  0
  179.9890  181.1280  139.7350 C   0  0  0  0  0  2  0  0  0  0  0  0
  179.8920  180.0390  138.6890 C   0  0  0  0  0  2  0  0  0  0  0  0
  1 16  1  6  0  0  0
  1 10  1  0  0  0  0
  2 12  1  0  0  0  0
  4  3  1  0  0  0  0
  5 27  1  0  0  0  0
  6  5  2  0  0  0  0
  6 28  1  0  0  0  0
  7 19  1  6  0  0  0
  7 17  1  0  0  0  0
  9 26  2  0  0  0  0
 11  3  1  0  0  0  0
 12  8  1  0  0  0  0
 12 13  2  0  0  0  0
 13 11  1  0  0  0  0
 14 22  2  0  0  0  0
 15 18  2  0  0  0  0
 15  9  1  0  0  0  0
 17 10  1  1  0  0  0
 17  8  1  0  0  0  0
 18  6  1  0  0  0  0
 19 20  1  0  0  0  0
 20 29  1  6  0  0  0
 20  1  1  0  0  0  0
 21  4  1  0  0  0  0
 22 13  1  0  0  0  0
 22 21  1  0  0  0  0
 23 14  1  0  0  0  0
 24  7  1  0  0  0  0
 24  2  1  0  0  0  0
 25  5  1  0  0  0  0
 27  2  2  0  0  0  0
 27 14  1  0  0  0  0
 28 26  1  6  0  0  0
 28 23  1  0  0  0  0
 30 29  1  0  0  0  0
 31 30  1  0  0  0  0
 32 31  1  0  0  0  0
 32 30  1  0  0  0  0
M  END
>  <MODEL>
1

>  <REMARK>
 VINA RESULT:     -11.1      0.000      0.000
  Name = 
  2 active torsions:
  status: ('A' for Active; 'I' for Inactive)
    1  A    between atoms: C_1  and  C_10
    2  A    between atoms: C_10  and  C_24
                            x       y       z     vdW  Elec       q    Type
                         _______ _______ _______ _____ _____    ______ ____

>  <TORSDO>
F 2

$$$$
=
 OpenBabel11052417003D

 32 38  0  0  1  0  0  0  0  0999 V2000
  188.8420  177.9150  137.2370 C   0  0  1  0  0  3  0  0  0  0  0  0
  187.5130  177.9580  142.3020 C   0  0  0  0  0  0  0  0  0  0  0  0
  182.6070  178.7310  142.3430 C   0  0  0  0  0  2  0  0  0  0  0  0
  182.7740  179.4430  143.6730 C   0  0  0  0  0  2  0  0  0  0  0  0
  188.7440  177.8010  144.5500 C   0  0  0  0  0  0  0  0  0  0  0  0
  188.6450  177.6500  145.8800 C   0  0  0  0  0  0  0  0  0  0  0  0
  188.5980  177.2900  140.1070 C   0  0  1  0  0  3  0  0  0  0  0  0
  186.2660  178.1470  140.0840 C   0  0  0  0  0  2  0  0  0  0  0  0
  188.4190  177.9290  148.6910 C   0  0  0  0  0  3  0  0  0  0  0  0
  187.4860  177.9220  137.9380 C   0  0  0  0  0  2  0  0  0  0  0  0
  183.8810  178.8970  141.5240 C   0  0  0  0  0  2  0  0  0  0  0  0
  186.3180  178.2430  141.5930 C   0  0  0  0  0  0  0  0  0  0  0  0
  185.1280  178.5200  142.2930 C   0  0  0  0  0  0  0  0  0  0  0  0
  186.3020  178.2310  144.4030 C   0  0  0  0  0  0  0  0  0  0  0  0
  189.7300  177.6700  148.0620 C   0  0  0  0  0  3  0  0  0  0  0  0
  189.3800  179.1930  137.2350 F   0  0  0  0  0  0  0  0  0  0  0  0
  187.6320  178.2570  139.4230 C   0  0  2  0  0  3  0  0  0  0  0  0
  189.8440  177.5520  146.7360 C   0  0  0  0  0  3  0  0  0  0  0  0
  189.9510  177.2870  139.4020 C   0  0  0  0  0  2  0  0  0  0  0  0
  189.7820  176.9240  137.9260 C   0  0  2  0  0  3  0  0  0  0  0  0
  183.8540  178.7400  144.4850 C   0  0  0  0  0  2  0  0  0  0  0  0
  185.1290  178.5350  143.7040 C   0  0  0  0  0  0  0  0  0  0  0  0
  186.2820  178.1910  145.8020 O   0  0  0  0  0  0  0  0  0  0  0  0
  188.8020  177.7340  141.5470 C   0  0  0  0  0  2  0  0  0  0  0  0
  190.0100  177.8470  143.9700 O   0  0  0  0  0  1  0  0  0  0  0  0
  187.2880  177.8930  147.9770 C   0  0  0  0  0  3  0  0  0  0  0  0
  187.5100  177.9780  143.7190 C   0  0  0  0  0  0  0  0  0  0  0  0
  187.2900  177.4920  146.5270 C   0  0  2  0  0  3  0  0  0  0  0  0
  191.1290  176.8910  137.2210 C   0  0  0  0  0  2  0  0  0  0  0  0
  192.1940  176.3110  138.1330 C   0  0  0  0  0  3  0  0  0  0  0  0
  193.4790  176.1360  137.3480 C   0  0  0  0  0  2  0  0  0  0  0  0
  192.5890  174.9420  137.6200 C   0  0  0  0  0  2  0  0  0  0  0  0
  1 16  1  1  0  0  0
  1 20  1  0  0  0  0
  1 10  1  0  0  0  0
  2 27  1  0  0  0  0
  3  4  1  0  0  0  0
  4 21  1  0  0  0  0
  5  6  2  0  0  0  0
  6 28  1  0  0  0  0
  6 18  1  0  0  0  0
  7 19  1  6  0  0  0
  7 24  1  0  0  0  0
  8 12  1  0  0  0  0
 11 13  1  0  0  0  0
 11  3  1  0  0  0  0
 12 13  1  0  0  0  0
 12  2  2  0  0  0  0
 13 22  2  0  0  0  0
 14 23  1  0  0  0  0
 15  9  1  0  0  0  0
 17 10  1  6  0  0  0
 17  8  1  0  0  0  0
 17  7  1  0  0  0  0
 18 15  2  0  0  0  0
 20 29  1  6  0  0  0
 20 19  1  0  0  0  0
 22 14  1  0  0  0  0
 22 21  1  0  0  0  0
 23 28  1  0  0  0  0
 24  2  1  0  0  0  0
 25  5  1  0  0  0  0
 26  9  2  0  0  0  0
 27 14  2  0  0  0  0
 27  5  1  0  0  0  0
 28 26  1  1  0  0  0
 29 30  1  0  0  0  0
 31 32  1  0  0  0  0
 31 30  1  0  0  0  0
 32 30  1  0  0  0  0
M  END
>  <MODEL>
2

>  <REMARK>
 VINA RESULT:     -10.8      2.651      7.546
  Name = 
  2 active torsions:
  status: ('A' for Active; 'I' for Inactive)
    1  A    between atoms: C_1  and  C_10
    2  A    between atoms: C_10  and  C_24
                            x       y       z     vdW  Elec       q    Type
                         _______ _______ _______ _____ _____    ______ ____

>  <TORSDO>
F 2

$$$$
=
 OpenBabel11052417003D

 32 38  0  0  1  0  0  0  0  0999 V2000
  183.0290  179.2990  144.5480 C   0  0  1  0  0  3  0  0  0  0  0  0
  187.5670  177.7930  142.4110 C   0  0  0  0  0  0  0  0  0  0  0  0
  190.5070  176.7000  146.2620 C   0  0  0  0  0  2  0  0  0  0  0  0
  191.6960  177.1280  145.4210 C   0  0  0  0  0  2  0  0  0  0  0  0
  188.5440  177.6290  140.0430 C   0  0  0  0  0  0  0  0  0  0  0  0
  189.5400  177.1770  139.2640 C   0  0  0  0  0  0  0  0  0  0  0  0
  185.0790  178.0420  142.8430 C   0  0  1  0  0  3  0  0  0  0  0  0
  186.6330  177.9750  144.7790 C   0  0  0  0  0  2  0  0  0  0  0  0
  191.8850  176.7600  137.7290 C   0  0  0  0  0  3  0  0  0  0  0  0
  184.2820  178.6640  145.1490 C   0  0  0  0  0  2  0  0  0  0  0  0
  189.2780  177.4860  145.8270 C   0  0  0  0  0  2  0  0  0  0  0  0
  187.7800  177.7650  143.8140 C   0  0  0  0  0  0  0  0  0  0  0  0
  189.0470  177.4370  144.3320 C   0  0  0  0  0  0  0  0  0  0  0  0
  189.8990  177.1610  142.0720 C   0  0  0  0  0  0  0  0  0  0  0  0
  190.6140  177.1340  137.0780 C   0  0  0  0  0  3  0  0  0  0  0  0
  183.2360  180.6550  144.3470 F   0  0  0  0  0  0  0  0  0  0  0  0
  185.4510  178.7110  144.1660 C   0  0  2  0  0  3  0  0  0  0  0  0
  189.5090  177.3460  137.7980 C   0  0  0  0  0  3  0  0  0  0  0  0
  183.8260  178.6800  142.2480 C   0  0  0  0  0  2  0  0  0  0  0  0
  182.6640  178.5980  143.2390 C   0  0  2  0  0  3  0  0  0  0  0  0
  191.4610  176.7140  143.9750 C   0  0  0  0  0  2  0  0  0  0  0  0
  190.1140  177.1560  143.4540 C   0  0  0  0  0  0  0  0  0  0  0  0
  190.9480  176.8240  141.2070 O   0  0  0  0  0  0  0  0  0  0  0  0
  186.2260  178.2180  141.8610 C   0  0  0  0  0  2  0  0  0  0  0  0
  187.4520  178.2540  139.4450 O   0  0  0  0  0  1  0  0  0  0  0  0
  191.9350  176.4650  139.0340 C   0  0  0  0  0  3  0  0  0  0  0  0
  188.6440  177.5140  141.5340 C   0  0  0  0  0  0  0  0  0  0  0  0
  190.6870  176.4050  139.8710 C   0  0  2  0  0  3  0  0  0  0  0  0
  181.4040  179.2060  142.6430 C   0  0  0  0  0  2  0  0  0  0  0  0
  180.1950  178.3460  142.9630 C   0  0  0  0  0  3  0  0  0  0  0  0
  178.9340  179.1230  142.6420 C   0  0  0  0  0  2  0  0  0  0  0  0
  179.4050  179.0030  144.0760 C   0  0  0  0  0  2  0  0  0  0  0  0
  1 16  1  6  0  0  0
  1 10  1  0  0  0  0
  2 12  1  0  0  0  0
  4  3  1  0  0  0  0
  5 27  1  0  0  0  0
  6 28  1  0  0  0  0
  6  5  2  0  0  0  0
  7 24  1  6  0  0  0
  7 17  1  0  0  0  0
  9 26  2  0  0  0  0
 11  3  1  0  0  0  0
 12 13  2  0  0  0  0
 12  8  1  0  0  0  0
 13 11  1  0  0  0  0
 14 22  2  0  0  0  0
 15  9  1  0  0  0  0
 15 18  2  0  0  0  0
 17  8  1  1  0  0  0
 17 10  1  0  0  0  0
 18  6  1  0  0  0  0
 19  7  1  0  0  0  0
 19 20  1  0  0  0  0
 20 29  1  6  0  0  0
 20  1  1  0  0  0  0
 21  4  1  0  0  0  0
 22 21  1  0  0  0  0
 22 13  1  0  0  0  0
 23 14  1  0  0  0  0
 24  2  1  0  0  0  0
 25  5  1  0  0  0  0
 27 14  1  0  0  0  0
 27  2  2  0  0  0  0
 28 26  1  6  0  0  0
 28 23  1  0  0  0  0
 29 30  1  0  0  0  0
 30 32  1  0  0  0  0
 31 30  1  0  0  0  0
 31 32  1  0  0  0  0
M  END
>  <MODEL>
3

>  <REMARK>
 VINA RESULT:     -10.8      1.699      2.590
  Name = 
  2 active torsions:
  status: ('A' for Active; 'I' for Inactive)
    1  A    between atoms: C_1  and  C_10
    2  A    between atoms: C_10  and  C_24
                            x       y       z     vdW  Elec       q    Type
                         _______ _______ _______ _____ _____    ______ ____

>  <TORSDO>
F 2

$$$$
=
 OpenBabel11052417003D

 32 38  0  0  1  0  0  0  0  0999 V2000
  188.3840  177.3400  148.0950 C   0  0  1  0  0  3  0  0  0  0  0  0
  187.1320  177.9940  143.0520 C   0  0  0  0  0  0  0  0  0  0  0  0
  182.3490  179.3310  143.0720 C   0  0  0  0  0  2  0  0  0  0  0  0
  182.1980  178.6520  141.7240 C   0  0  0  0  0  2  0  0  0  0  0  0
  188.3060  177.6880  140.7890 C   0  0  0  0  0  0  0  0  0  0  0  0
  188.2720  177.9030  139.4640 C   0  0  0  0  0  0  0  0  0  0  0  0
  188.4070  178.0900  145.2440 C   0  0  1  0  0  3  0  0  0  0  0  0
  185.9310  178.2790  145.2850 C   0  0  0  0  0  2  0  0  0  0  0  0
  187.9360  177.8220  136.6520 C   0  0  0  0  0  3  0  0  0  0  0  0
  187.1440  177.9170  147.4160 C   0  0  0  0  0  2  0  0  0  0  0  0
  183.4420  178.6280  143.8660 C   0  0  0  0  0  2  0  0  0  0  0  0
  185.9300  178.2120  143.7730 C   0  0  0  0  0  0  0  0  0  0  0  0
  184.7290  178.4740  143.0860 C   0  0  0  0  0  0  0  0  0  0  0  0
  185.9070  178.3070  140.9660 C   0  0  0  0  0  0  0  0  0  0  0  0
  189.2390  177.4940  137.2660 C   0  0  0  0  0  3  0  0  0  0  0  0
  188.3420  175.9540  148.0590 F   0  0  0  0  0  0  0  0  0  0  0  0
  187.1310  177.5930  145.9220 C   0  0  2  0  0  3  0  0  0  0  0  0
  189.3980  177.5180  138.5920 C   0  0  0  0  0  3  0  0  0  0  0  0
  189.6430  177.5100  145.9280 C   0  0  0  0  0  2  0  0  0  0  0  0
  189.6480  177.8690  147.4140 C   0  0  2  0  0  3  0  0  0  0  0  0
  183.4680  178.8640  140.9110 C   0  0  0  0  0  2  0  0  0  0  0  0
  184.7170  178.4980  141.6760 C   0  0  0  0  0  0  0  0  0  0  0  0
  185.8980  178.3910  139.5680 O   0  0  0  0  0  0  0  0  0  0  0  0
  188.4010  177.6410  143.7910 C   0  0  0  0  0  2  0  0  0  0  0  0
  189.4400  177.1030  141.3480 O   0  0  0  0  0  1  0  0  0  0  0  0
  186.9260  178.3040  137.3850 C   0  0  0  0  0  3  0  0  0  0  0  0
  187.1130  178.0160  141.6350 C   0  0  0  0  0  0  0  0  0  0  0  0
  187.1010  178.6280  138.8430 C   0  0  2  0  0  3  0  0  0  0  0  0
  190.8900  177.3200  148.0980 C   0  0  0  0  0  2  0  0  0  0  0  0
  191.6360  176.3780  147.1710 C   0  0  0  0  0  3  0  0  0  0  0  0
  191.5410  174.9670  147.7180 C   0  0  0  0  0  2  0  0  0  0  0  0
  192.8060  175.7740  147.9210 C   0  0  0  0  0  2  0  0  0  0  0  0
  1 16  1  6  0  0  0
  2 12  1  0  0  0  0
  2 24  1  0  0  0  0
  3 11  1  0  0  0  0
  4  3  1  0  0  0  0
  5 25  1  0  0  0  0
  5 27  1  0  0  0  0
  6  5  2  0  0  0  0
  7 24  1  6  0  0  0
  7 17  1  0  0  0  0
  7 19  1  0  0  0  0
  9 15  1  0  0  0  0
  9 26  2  0  0  0  0
 10  1  1  0  0  0  0
 12  8  1  0  0  0  0
 13 12  2  0  0  0  0
 13 11  1  0  0  0  0
 14 27  1  0  0  0  0
 14 22  2  0  0  0  0
 15 18  2  0  0  0  0
 17  8  1  6  0  0  0
 17 10  1  0  0  0  0
 18  6  1  0  0  0  0
 19 20  1  0  0  0  0
 20  1  1  0  0  0  0
 20 29  1  1  0  0  0
 21 22  1  0  0  0  0
 21  4  1  0  0  0  0
 22 13  1  0  0  0  0
 23 14  1  0  0  0  0
 27  2  2  0  0  0  0
 28 26  1  6  0  0  0
 28  6  1  0  0  0  0
 28 23  1  0  0  0  0
 30 31  1  0  0  0  0
 30 32  1  0  0  0  0
 30 29  1  0  0  0  0
 31 32  1  0  0  0  0
M  END
>  <MODEL>
4

>  <REMARK>
 VINA RESULT:     -10.7      2.530      7.315
  Name = 
  2 active torsions:
  status: ('A' for Active; 'I' for Inactive)
    1  A    between atoms: C_1  and  C_10
    2  A    between atoms: C_10  and  C_24
                            x       y       z     vdW  Elec       q    Type
                         _______ _______ _______ _____ _____    ______ ____

>  <TORSDO>
F 2

$$$$
=
 OpenBabel11052417003D

 32 38  0  0  1  0  0  0  0  0999 V2000
  181.8670  178.8980  140.5450 C   0  0  1  0  0  3  0  0  0  0  0  0
  186.6750  178.1020  142.4620 C   0  0  0  0  0  0  0  0  0  0  0  0
  189.6830  178.2660  138.5130 C   0  0  0  0  0  2  0  0  0  0  0  0
  190.5980  177.2860  139.2240 C   0  0  0  0  0  2  0  0  0  0  0  0
  187.6990  177.5780  144.7570 C   0  0  0  0  0  0  0  0  0  0  0  0
  188.8150  177.4780  145.4960 C   0  0  0  0  0  0  0  0  0  0  0  0
  184.3070  178.9770  142.1960 C   0  0  1  0  0  3  0  0  0  0  0  0
  185.6820  178.5920  140.1630 C   0  0  0  0  0  2  0  0  0  0  0  0
  191.1590  176.6940  146.8840 C   0  0  0  0  0  3  0  0  0  0  0  0
  183.2510  179.0060  139.9100 C   0  0  0  0  0  2  0  0  0  0  0  0
  188.2480  178.0300  138.9690 C   0  0  0  0  0  2  0  0  0  0  0  0
  186.8360  178.1910  141.0550 C   0  0  0  0  0  0  0  0  0  0  0  0
  188.1060  178.0080  140.4750 C   0  0  0  0  0  0  0  0  0  0  0  0
  189.0620  177.6480  142.6820 C   0  0  0  0  0  0  0  0  0  0  0  0
  189.8690  176.8230  147.5930 C   0  0  0  0  0  3  0  0  0  0  0  0
  181.4800  177.5680  140.6130 F   0  0  0  0  0  0  0  0  0  0  0  0
  184.3180  178.3620  140.7970 C   0  0  2  0  0  3  0  0  0  0  0  0
  188.7590  177.1790  146.9410 C   0  0  0  0  0  3  0  0  0  0  0  0
  182.9210  178.8660  142.8250 C   0  0  0  0  0  2  0  0  0  0  0  0
  181.8760  179.5400  141.9340 C   0  0  2  0  0  3  0  0  0  0  0  0
  190.6060  177.6000  140.7140 C   0  0  0  0  0  2  0  0  0  0  0  0
  189.2170  177.7130  141.2930 C   0  0  0  0  0  0  0  0  0  0  0  0
  190.1790  177.4140  143.4920 O   0  0  0  0  0  0  0  0  0  0  0  0
  185.2980  178.2260  143.0720 C   0  0  0  0  0  2  0  0  0  0  0  0
  186.4630  177.4110  145.3780 O   0  0  0  0  0  1  0  0  0  0  0  0
  191.2910  177.0810  145.6100 C   0  0  0  0  0  3  0  0  0  0  0  0
  187.7930  177.8020  143.2790 C   0  0  0  0  0  0  0  0  0  0  0  0
  190.1630  177.7540  144.8750 C   0  0  2  0  0  3  0  0  0  0  0  0
  180.4950  179.4600  142.5660 C   0  0  0  0  0  2  0  0  0  0  0  0
  180.5880  178.9190  143.9810 C   0  0  0  0  0  3  0  0  0  0  0  0
  179.7310  177.6740  144.0930 C   0  0  0  0  0  2  0  0  0  0  0  0
  179.2200  178.9950  144.6270 C   0  0  0  0  0  2  0  0  0  0  0  0
  1 16  1  1  0  0  0
  1 20  1  0  0  0  0
  2 24  1  0  0  0  0
  2 27  1  0  0  0  0
  3 11  1  0  0  0  0
  3  4  1  0  0  0  0
  4 21  1  0  0  0  0
  5 25  1  0  0  0  0
  5  6  2  0  0  0  0
  6 18  1  0  0  0  0
  7 19  1  1  0  0  0
  7 24  1  0  0  0  0
  8 17  1  0  0  0  0
  8 12  1  0  0  0  0
  9 15  1  0  0  0  0
 10  1  1  0  0  0  0
 11 13  1  0  0  0  0
 12  2  2  0  0  0  0
 13 12  1  0  0  0  0
 13 22  2  0  0  0  0
 14 27  2  0  0  0  0
 14 23  1  0  0  0  0
 17 10  1  6  0  0  0
 17  7  1  0  0  0  0
 18 15  2  0  0  0  0
 20 29  1  1  0  0  0
 20 19  1  0  0  0  0
 21 22  1  0  0  0  0
 22 14  1  0  0  0  0
 23 28  1  0  0  0  0
 26  9  2  0  0  0  0
 27  5  1  0  0  0  0
 28  6  1  0  0  0  0
 28 26  1  1  0  0  0
 29 30  1  0  0  0  0
 30 31  1  0  0  0  0
 30 32  1  0  0  0  0
 31 32  1  0  0  0  0
M  END
>  <MODEL>
5

>  <REMARK>
 VINA RESULT:     -10.5      1.740      4.833
  Name = 
  2 active torsions:
  status: ('A' for Active; 'I' for Inactive)
    1  A    between atoms: C_1  and  C_10
    2  A    between atoms: C_10  and  C_24
                            x       y       z     vdW  Elec       q    Type
                         _______ _______ _______ _____ _____    ______ ____

>  <TORSDO>
F 2

$$$$
=
 OpenBabel11052417003D

 32 38  0  0  1  0  0  0  0  0999 V2000
  180.2410  179.5310  141.2170 C   0  0  1  0  0  3  0  0  0  0  0  0
  185.2090  178.3610  142.3890 C   0  0  0  0  0  0  0  0  0  0  0  0
  185.3090  177.9660  147.3390 C   0  0  0  0  0  2  0  0  0  0  0  0
  186.7480  178.4480  147.3050 C   0  0  0  0  0  2  0  0  0  0  0  0
  187.4110  178.0910  141.0970 C   0  0  0  0  0  0  0  0  0  0  0  0
  188.6910  177.6860  141.1240 C   0  0  0  0  0  0  0  0  0  0  0  0
  182.9480  178.3630  141.2370 C   0  0  1  0  0  3  0  0  0  0  0  0
  183.0410  178.6520  143.7030 C   0  0  0  0  0  2  0  0  0  0  0  0
  191.5020  177.3970  141.3350 C   0  0  0  0  0  3  0  0  0  0  0  0
  180.9100  179.1010  142.5200 C   0  0  0  0  0  2  0  0  0  0  0  0
  184.5550  178.5650  146.1590 C   0  0  0  0  0  2  0  0  0  0  0  0
  184.5440  178.4860  143.6360 C   0  0  0  0  0  0  0  0  0  0  0  0
  185.2630  178.3520  144.8390 C   0  0  0  0  0  0  0  0  0  0  0  0
  187.3050  177.9680  143.5750 C   0  0  0  0  0  0  0  0  0  0  0  0
  190.8570  177.5640  140.0170 C   0  0  0  0  0  3  0  0  0  0  0  0
  180.4780  180.8780  140.9850 F   0  0  0  0  0  0  0  0  0  0  0  0
  182.4330  179.1890  142.4160 C   0  0  2  0  0  3  0  0  0  0  0  0
  189.5340  177.7140  139.9130 C   0  0  0  0  0  3  0  0  0  0  0  0
  182.2750  178.7980  139.9380 C   0  0  0  0  0  2  0  0  0  0  0  0
  180.7550  178.6760  140.0570 C   0  0  2  0  0  3  0  0  0  0  0  0
  187.4380  177.8780  146.0720 C   0  0  0  0  0  2  0  0  0  0  0  0
  186.6530  178.1150  144.8040 C   0  0  0  0  0  0  0  0  0  0  0  0
  188.6730  177.6740  143.5490 O   0  0  0  0  0  0  0  0  0  0  0  0
  184.4470  178.5780  141.1030 C   0  0  0  0  0  2  0  0  0  0  0  0
  186.8690  178.5300  139.8910 O   0  0  0  0  0  1  0  0  0  0  0  0
  190.7750  177.2320  142.4460 C   0  0  0  0  0  3  0  0  0  0  0  0
  186.6060  178.1260  142.3600 C   0  0  0  0  0  0  0  0  0  0  0  0
  189.2770  177.1080  142.3900 C   0  0  2  0  0  3  0  0  0  0  0  0
  180.0780  179.0800  138.7570 C   0  0  0  0  0  2  0  0  0  0  0  0
  181.0210  179.9000  137.8970 C   0  0  0  0  0  3  0  0  0  0  0  0
  180.2230  180.9460  137.1450 C   0  0  0  0  0  2  0  0  0  0  0  0
  180.6710  179.6850  136.4390 C   0  0  0  0  0  2  0  0  0  0  0  0
  1 16  1  6  0  0  0
  1 10  1  0  0  0  0
  2 12  1  0  0  0  0
  4  3  1  0  0  0  0
  5  6  2  0  0  0  0
  5 27  1  0  0  0  0
  6 28  1  0  0  0  0
  7 19  1  6  0  0  0
  7 17  1  0  0  0  0
  9 26  2  0  0  0  0
 11  3  1  0  0  0  0
 12  8  1  0  0  0  0
 12 13  2  0  0  0  0
 13 11  1  0  0  0  0
 14 22  2  0  0  0  0
 15  9  1  0  0  0  0
 17 10  1  1  0  0  0
 17  8  1  0  0  0  0
 18 15  2  0  0  0  0
 18  6  1  0  0  0  0
 19 20  1  0  0  0  0
 20 29  1  6  0  0  0
 20  1  1  0  0  0  0
 21  4  1  0  0  0  0
 22 13  1  0  0  0  0
 22 21  1  0  0  0  0
 23 14  1  0  0  0  0
 24  7  1  0  0  0  0
 24  2  1  0  0  0  0
 25  5  1  0  0  0  0
 27  2  2  0  0  0  0
 27 14  1  0  0  0  0
 28 26  1  1  0  0  0
 28 23  1  0  0  0  0
 30 29  1  0  0  0  0
 31 30  1  0  0  0  0
 32 31  1  0  0  0  0
 32 30  1  0  0  0  0
M  END
>  <MODEL>
6

>  <REMARK>
 VINA RESULT:     -10.4      1.076      1.594
  Name = 
  2 active torsions:
  status: ('A' for Active; 'I' for Inactive)
    1  A    between atoms: C_1  and  C_10
    2  A    between atoms: C_10  and  C_24
                            x       y       z     vdW  Elec       q    Type
                         _______ _______ _______ _____ _____    ______ ____

>  <TORSDO>
F 2

$$$$
=
 OpenBabel11052417003D

 32 38  0  0  1  0  0  0  0  0999 V2000
  191.0530  176.5870  137.7310 C   0  0  1  0  0  3  0  0  0  0  0  0
  188.3970  177.6010  142.1290 C   0  0  0  0  0  0  0  0  0  0  0  0
  191.6820  176.9580  145.7990 C   0  0  0  0  0  2  0  0  0  0  0  0
  190.5340  176.5270  146.6930 C   0  0  0  0  0  2  0  0  0  0  0  0
  185.9740  178.1830  142.7460 C   0  0  0  0  0  0  0  0  0  0  0  0
  185.1230  178.6030  143.6970 C   0  0  0  0  0  0  0  0  0  0  0  0
  189.2790  177.7860  139.7570 C   0  0  1  0  0  3  0  0  0  0  0  0
  190.8060  176.9930  141.5480 C   0  0  0  0  0  2  0  0  0  0  0  0
  183.2600  178.9040  145.8110 C   0  0  0  0  0  3  0  0  0  0  0  0
  191.5010  176.7520  139.1820 C   0  0  0  0  0  2  0  0  0  0  0  0
  191.3520  176.6020  144.3550 C   0  0  0  0  0  2  0  0  0  0  0  0
  189.6920  177.2030  142.5500 C   0  0  0  0  0  0  0  0  0  0  0  0
  189.9900  177.1000  143.9230 C   0  0  0  0  0  0  0  0  0  0  0  0
  187.7210  177.7850  144.4660 C   0  0  0  0  0  0  0  0  0  0  0  0
  182.8260  179.0010  144.4020 C   0  0  0  0  0  3  0  0  0  0  0  0
  190.5130  175.3240  137.5430 F   0  0  0  0  0  0  0  0  0  0  0  0
  190.3080  176.7210  140.1360 C   0  0  2  0  0  3  0  0  0  0  0  0
  183.6980  178.8460  143.4020 C   0  0  0  0  0  3  0  0  0  0  0  0
  188.8350  177.6160  138.3060 C   0  0  0  0  0  2  0  0  0  0  0  0
  190.0420  177.6770  137.3690 C   0  0  2  0  0  3  0  0  0  0  0  0
  189.3010  177.3560  146.3590 C   0  0  0  0  0  2  0  0  0  0  0  0
  188.9910  177.3710  144.8810 C   0  0  0  0  0  0  0  0  0  0  0  0
  186.7520  178.1080  145.4240 O   0  0  0  0  0  0  0  0  0  0  0  0
  188.0620  177.6390  140.6570 C   0  0  0  0  0  2  0  0  0  0  0  0
  185.4960  177.9930  141.4520 O   0  0  0  0  0  1  0  0  0  0  0  0
  184.5560  178.8190  146.1320 C   0  0  0  0  0  3  0  0  0  0  0  0
  187.3960  177.8680  143.0960 C   0  0  0  0  0  0  0  0  0  0  0  0
  185.6310  178.9180  145.0840 C   0  0  2  0  0  3  0  0  0  0  0  0
  189.6060  177.5370  135.9190 C   0  0  0  0  0  2  0  0  0  0  0  0
  188.1960  176.9830  135.8370 C   0  0  0  0  0  3  0  0  0  0  0  0
  188.0740  176.1180  134.5980 C   0  0  0  0  0  2  0  0  0  0  0  0
  187.5240  177.5290  134.5940 C   0  0  0  0  0  2  0  0  0  0  0  0
  1 16  1  1  0  0  0
  1 10  1  0  0  0  0
  2 12  2  0  0  0  0
  2 27  1  0  0  0  0
  3  4  1  0  0  0  0
  5 27  1  0  0  0  0
  5  6  2  0  0  0  0
  6 28  1  0  0  0  0
  7 19  1  6  0  0  0
  7 17  1  0  0  0  0
  7 24  1  0  0  0  0
  8 12  1  0  0  0  0
  9 26  2  0  0  0  0
 11  3  1  0  0  0  0
 12 13  1  0  0  0  0
 13 11  1  0  0  0  0
 13 22  2  0  0  0  0
 14 22  1  0  0  0  0
 14 23  1  0  0  0  0
 15  9  1  0  0  0  0
 17 10  1  6  0  0  0
 17  8  1  0  0  0  0
 18  6  1  0  0  0  0
 18 15  2  0  0  0  0
 20 29  1  6  0  0  0
 20  1  1  0  0  0  0
 20 19  1  0  0  0  0
 21  4  1  0  0  0  0
 22 21  1  0  0  0  0
 24  2  1  0  0  0  0
 25  5  1  0  0  0  0
 27 14  2  0  0  0  0
 28 23  1  0  0  0  0
 28 26  1  1  0  0  0
 30 29  1  0  0  0  0
 31 30  1  0  0  0  0
 32 31  1  0  0  0  0
 32 30  1  0  0  0  0
M  END
>  <MODEL>
7

>  <REMARK>
 VINA RESULT:     -10.3      3.180      7.151
  Name = 
  2 active torsions:
  status: ('A' for Active; 'I' for Inactive)
    1  A    between atoms: C_1  and  C_10
    2  A    between atoms: C_10  and  C_24
                            x       y       z     vdW  Elec       q    Type
                         _______ _______ _______ _____ _____    ______ ____

>  <TORSDO>
F 2

$$$$
=
 OpenBabel11052417003D

 32 38  0  0  1  0  0  0  0  0999 V2000
  187.3090  178.4470  136.8540 C   0  0  1  0  0  3  0  0  0  0  0  0
  187.7220  177.8620  142.0420 C   0  0  0  0  0  0  0  0  0  0  0  0
  183.1700  178.7680  143.8100 C   0  0  0  0  0  2  0  0  0  0  0  0
  183.8150  179.2930  145.0800 C   0  0  0  0  0  2  0  0  0  0  0  0
  189.6080  177.3740  143.7140 C   0  0  0  0  0  0  0  0  0  0  0  0
  189.9410  177.0530  144.9740 C   0  0  0  0  0  0  0  0  0  0  0  0
  187.9750  177.4570  139.5490 C   0  0  1  0  0  3  0  0  0  0  0  0
  185.8330  178.3780  140.4060 C   0  0  0  0  0  2  0  0  0  0  0  0
  190.6700  176.9660  147.7110 C   0  0  0  0  0  3  0  0  0  0  0  0
  186.2610  178.4020  137.9650 C   0  0  0  0  0  2  0  0  0  0  0  0
  184.1130  179.0030  142.6370 C   0  0  0  0  0  2  0  0  0  0  0  0
  186.3840  178.2730  141.8110 C   0  0  0  0  0  0  0  0  0  0  0  0
  185.5130  178.4910  142.8960 C   0  0  0  0  0  0  0  0  0  0  0  0
  187.2900  177.8930  144.4430 C   0  0  0  0  0  0  0  0  0  0  0  0
  191.6790  176.7540  146.6540 C   0  0  0  0  0  3  0  0  0  0  0  0
  187.9060  179.6980  136.8180 F   0  0  0  0  0  0  0  0  0  0  0  0
  186.9110  178.5340  139.3420 C   0  0  2  0  0  3  0  0  0  0  0  0
  191.3430  176.8070  145.3630 C   0  0  0  0  0  3  0  0  0  0  0  0
  189.0180  177.5070  138.4360 C   0  0  0  0  0  2  0  0  0  0  0  0
  188.3490  177.3470  137.0710 C   0  0  2  0  0  3  0  0  0  0  0  0
  185.0480  178.4580  145.3970 C   0  0  0  0  0  2  0  0  0  0  0  0
  185.9780  178.3210  144.2160 C   0  0  0  0  0  0  0  0  0  0  0  0
  187.7280  177.6690  145.7540 O   0  0  0  0  0  0  0  0  0  0  0  0
  188.6720  177.7020  140.8780 C   0  0  0  0  0  2  0  0  0  0  0  0
  190.6130  177.4590  142.7530 O   0  0  0  0  0  1  0  0  0  0  0  0
  189.3680  177.0580  147.4180 C   0  0  0  0  0  3  0  0  0  0  0  0
  188.1850  177.6960  143.3710 C   0  0  0  0  0  0  0  0  0  0  0  0
  188.8650  176.8510  146.0150 C   0  0  2  0  0  3  0  0  0  0  0  0
  189.3840  177.3670  135.9560 C   0  0  0  0  0  2  0  0  0  0  0  0
  190.5430  176.4470  136.2900 C   0  0  0  0  0  3  0  0  0  0  0  0
  190.9890  175.7330  135.0290 C   0  0  0  0  0  2  0  0  0  0  0  0
  190.1220  175.0130  136.0400 C   0  0  0  0  0  2  0  0  0  0  0  0
  1 16  1  1  0  0  0
  1 20  1  0  0  0  0
  1 10  1  0  0  0  0
  2 27  1  0  0  0  0
  3  4  1  0  0  0  0
  4 21  1  0  0  0  0
  5  6  2  0  0  0  0
  6 18  1  0  0  0  0
  6 28  1  0  0  0  0
  7 19  1  6  0  0  0
  7 24  1  0  0  0  0
  8 12  1  0  0  0  0
 11 13  1  0  0  0  0
 11  3  1  0  0  0  0
 12  2  2  0  0  0  0
 12 13  1  0  0  0  0
 13 22  2  0  0  0  0
 14 23  1  0  0  0  0
 15  9  1  0  0  0  0
 17 10  1  6  0  0  0
 17  7  1  0  0  0  0
 17  8  1  0  0  0  0
 18 15  2  0  0  0  0
 20 29  1  6  0  0  0
 20 19  1  0  0  0  0
 22 14  1  0  0  0  0
 22 21  1  0  0  0  0
 23 28  1  0  0  0  0
 24  2  1  0  0  0  0
 25  5  1  0  0  0  0
 26  9  2  0  0  0  0
 27  5  1  0  0  0  0
 27 14  2  0  0  0  0
 28 26  1  1  0  0  0
 29 30  1  0  0  0  0
 31 32  1  0  0  0  0
 31 30  1  0  0  0  0
 32 30  1  0  0  0  0
M  END
>  <MODEL>
8

>  <REMARK>
 VINA RESULT:     -10.2      2.919      6.610
  Name = 
  2 active torsions:
  status: ('A' for Active; 'I' for Inactive)
    1  A    between atoms: C_1  and  C_10
    2  A    between atoms: C_10  and  C_24
                            x       y       z     vdW  Elec       q    Type
                         _______ _______ _______ _____ _____    ______ ____

>  <TORSDO>
F 2

$$$$
=
 OpenBabel11052417003D

 32 38  0  0  1  0  0  0  0  0999 V2000
  191.1050  176.8340  139.0880 C   0  0  1  0  0  3  0  0  0  0  0  0
  187.0570  177.9120  142.2310 C   0  0  0  0  0  0  0  0  0  0  0  0
  188.9540  177.9230  146.8220 C   0  0  0  0  0  2  0  0  0  0  0  0
  187.6070  177.4460  147.3330 C   0  0  0  0  0  2  0  0  0  0  0  0
  184.5320  178.2820  141.9520 C   0  0  0  0  0  0  0  0  0  0  0  0
  183.3830  178.6840  142.5180 C   0  0  0  0  0  0  0  0  0  0  0  0
  188.6700  177.9980  140.2740 C   0  0  1  0  0  3  0  0  0  0  0  0
  189.5590  177.5190  142.5430 C   0  0  0  0  0  2  0  0  0  0  0  0
  180.9010  178.9560  143.8570 C   0  0  0  0  0  3  0  0  0  0  0  0
  191.0260  177.1620  140.5780 C   0  0  0  0  0  2  0  0  0  0  0  0
  189.1560  177.4170  145.3990 C   0  0  0  0  0  2  0  0  0  0  0  0
  188.1610  177.6910  143.0950 C   0  0  0  0  0  0  0  0  0  0  0  0
  187.9860  177.7310  144.4920 C   0  0  0  0  0  0  0  0  0  0  0  0
  185.6230  178.2120  144.1820 C   0  0  0  0  0  0  0  0  0  0  0  0
  180.9600  178.8920  142.3830 C   0  0  0  0  0  3  0  0  0  0  0  0
  190.7530  175.5090  138.8770 F   0  0  0  0  0  0  0  0  0  0  0  0
  189.5860  177.0830  141.0860 C   0  0  2  0  0  3  0  0  0  0  0  0
  182.1260  178.7500  141.7470 C   0  0  0  0  0  3  0  0  0  0  0  0
  188.7540  177.6650  138.7860 C   0  0  0  0  0  2  0  0  0  0  0  0
  190.1970  177.7770  138.2960 C   0  0  2  0  0  3  0  0  0  0  0  0
  186.5010  178.1090  146.5230 C   0  0  0  0  0  2  0  0  0  0  0  0
  186.7070  177.9710  145.0340 C   0  0  0  0  0  0  0  0  0  0  0  0
  184.3680  178.5080  144.7270 O   0  0  0  0  0  0  0  0  0  0  0  0
  187.2360  177.7950  140.7360 C   0  0  0  0  0  2  0  0  0  0  0  0
  184.5330  177.9370  140.6020 O   0  0  0  0  0  1  0  0  0  0  0  0
  182.0160  179.0350  144.5930 C   0  0  0  0  0  3  0  0  0  0  0  0
  185.7730  178.1490  142.7810 C   0  0  0  0  0  0  0  0  0  0  0  0
  183.3700  179.1630  143.9500 C   0  0  2  0  0  3  0  0  0  0  0  0
  190.2870  177.4740  136.8080 C   0  0  0  0  0  2  0  0  0  0  0  0
  188.9000  177.3530  136.2050 C   0  0  0  0  0  3  0  0  0  0  0  0
  188.8400  176.1060  135.3450 C   0  0  0  0  0  2  0  0  0  0  0  0
  189.0070  177.4640  134.6980 C   0  0  0  0  0  2  0  0  0  0  0  0
  1 16  1  1  0  0  0
  1 10  1  0  0  0  0
  2 27  2  0  0  0  0
  2 12  1  0  0  0  0
  3  4  1  0  0  0  0
  5  6  2  0  0  0  0
  5 27  1  0  0  0  0
  6 28  1  0  0  0  0
  7 19  1  6  0  0  0
  7 24  1  0  0  0  0
  7 17  1  0  0  0  0
  8 12  1  0  0  0  0
  9 26  2  0  0  0  0
 11  3  1  0  0  0  0
 12 13  2  0  0  0  0
 13 22  1  0  0  0  0
 13 11  1  0  0  0  0
 14 23  1  0  0  0  0
 14 22  2  0  0  0  0
 15  9  1  0  0  0  0
 17 10  1  6  0  0  0
 17  8  1  0  0  0  0
 18 15  2  0  0  0  0
 18  6  1  0  0  0  0
 20 29  1  6  0  0  0
 20 19  1  0  0  0  0
 20  1  1  0  0  0  0
 21  4  1  0  0  0  0
 22 21  1  0  0  0  0
 24  2  1  0  0  0  0
 25  5  1  0  0  0  0
 27 14  1  0  0  0  0
 28 26  1  1  0  0  0
 28 23  1  0  0  0  0
 30 29  1  0  0  0  0
 31 30  1  0  0  0  0
 32 31  1  0  0  0  0
 32 30  1  0  0  0  0
M  END
>  <MODEL>
9

>  <REMARK>
 VINA RESULT:     -10.0      2.759      7.197
  Name = 
  2 active torsions:
  status: ('A' for Active; 'I' for Inactive)
    1  A    between atoms: C_1  and  C_10
    2  A    between atoms: C_10  and  C_24
                            x       y       z     vdW  Elec       q    Type
                         _______ _______ _______ _____ _____    ______ ____

>  <TORSDO>
F 2

$$$$
