=
 OpenBabel11052413303D

 28 32  0  0  1  0  0  0  0  0999 V2000
  187.9310  178.1890  140.5240 N   0  0  0  0  0  0  0  0  0  0  0  0
  188.0410  177.2230  145.6000 C   0  0  0  0  0  3  0  0  0  0  0  0
  183.7970  177.6770  142.1360 O   0  0  0  0  0  1  0  0  0  0  0  0
  186.1400  178.5630  146.3090 C   0  0  0  0  0  0  0  0  0  0  0  0
  186.3080  177.8340  143.8800 C   0  0  2  0  0  3  0  0  0  0  0  0
  187.8230  177.8830  147.9180 C   0  0  0  0  0  0  0  0  0  0  0  0
  186.8660  177.9160  145.2800 C   0  0  0  0  0  0  0  0  0  0  0  0
  184.2100  178.9430  144.7200 C   0  0  0  0  0  2  0  0  0  0  0  0
  186.6370  178.5560  147.6160 C   0  0  0  0  0  3  0  0  0  0  0  0
  185.7590  178.6280  141.2300 C   0  0  0  0  0  0  0  0  0  0  0  0
  187.3680  177.8500  142.8590 N   0  0  0  0  0  2  0  0  0  0  0  0
  184.8850  179.3490  146.0270 C   0  0  0  0  0  2  0  0  0  0  0  0
  185.8360  178.8700  139.9250 C   0  0  0  0  0  0  0  0  0  0  0  0
  184.6290  178.7970  142.1990 C   0  0  2  0  0  3  0  0  0  0  0  0
  184.7230  179.3790  139.0770 C   0  0  0  0  0  1  0  0  0  0  0  0
  188.3050  177.8780  149.2190 O   0  0  0  0  0  1  0  0  0  0  0  0
  188.5220  177.2130  146.9110 C   0  0  0  0  0  3  0  0  0  0  0  0
  185.2480  178.9320  143.6080 C   0  0  2  0  0  3  0  0  0  0  0  0
  187.1540  178.5940  139.4280 N   0  0  0  0  0  0  0  0  0  0  0  0
  187.0590  178.1610  141.6380 C   0  0  0  0  0  0  0  0  0  0  0  0
  189.2080  177.5030  140.4090 C   0  0  0  0  0  2  0  0  0  0  0  0
  189.8890  177.4530  141.7340 C   0  0  0  0  0  0  0  0  0  0  0  0
  191.2230  177.3560  144.1900 C   0  0  0  0  0  0  0  0  0  0  0  0
  190.2750  178.6390  142.3690 C   0  0  0  0  0  3  0  0  0  0  0  0
  190.1810  176.2190  142.3240 C   0  0  0  0  0  3  0  0  0  0  0  0
  190.8450  176.1700  143.5530 C   0  0  0  0  0  3  0  0  0  0  0  0
  191.8670  177.3090  145.3820 F   0  0  0  0  0  0  0  0  0  0  0  0
  190.9390  178.5900  143.5980 C   0  0  0  0  0  3  0  0  0  0  0  0
  1 20  1  0  0  0  0
  2 17  1  0  0  0  0
  4  9  2  0  0  0  0
  5 11  1  6  0  0  0
  5  7  1  0  0  0  0
  6 16  1  0  0  0  0
  7  2  2  0  0  0  0
  7  4  1  0  0  0  0
  8 12  1  0  0  0  0
  9  6  1  0  0  0  0
 10 20  2  0  0  0  0
 10 14  1  0  0  0  0
 12  4  1  0  0  0  0
 13 10  1  0  0  0  0
 14  3  1  1  0  0  0
 14 18  1  0  0  0  0
 15 13  1  0  0  0  0
 17  6  2  0  0  0  0
 18  5  1  0  0  0  0
 18  8  1  1  0  0  0
 19 13  2  0  0  0  0
 19  1  1  0  0  0  0
 20 11  1  0  0  0  0
 21  1  1  0  0  0  0
 21 22  1  0  0  0  0
 22 25  2  0  0  0  0
 22 24  1  0  0  0  0
 23 27  1  0  0  0  0
 24 28  2  0  0  0  0
 25 26  1  0  0  0  0
 26 23  2  0  0  0  0
 28 23  1  0  0  0  0
M  END
>  <MODEL>
1

>  <REMARK>
 VINA RESULT:     -10.2      0.000      0.000
  Name = 
  2 active torsions:
  status: ('A' for Active; 'I' for Inactive)
    1  A    between atoms: N_1  and  C_2
    2  A    between atoms: C_2  and  C_3
                            x       y       z     vdW  Elec       q    Type
                         _______ _______ _______ _____ _____    ______ ____

>  <TORSDO>
F 2

$$$$
=
 OpenBabel11052413303D

 28 32  0  0  1  0  0  0  0  0999 V2000
  187.5520  178.3540  140.2230 N   0  0  0  0  0  0  0  0  0  0  0  0
  188.0800  177.2710  145.2490 C   0  0  0  0  0  3  0  0  0  0  0  0
  183.5770  177.6030  142.1150 O   0  0  0  0  0  1  0  0  0  0  0  0
  186.1760  178.5000  146.1300 C   0  0  0  0  0  0  0  0  0  0  0  0
  186.1990  177.8400  143.6760 C   0  0  2  0  0  3  0  0  0  0  0  0
  188.0020  177.8630  147.5940 C   0  0  0  0  0  0  0  0  0  0  0  0
  186.8530  177.9140  145.0340 C   0  0  0  0  0  0  0  0  0  0  0  0
  184.1190  178.8240  144.6960 C   0  0  0  0  0  2  0  0  0  0  0  0
  186.7680  178.4850  147.3970 C   0  0  0  0  0  3  0  0  0  0  0  0
  185.4200  178.6690  141.0960 C   0  0  0  0  0  0  0  0  0  0  0  0
  187.1790  177.9320  142.5820 N   0  0  0  0  0  2  0  0  0  0  0  0
  184.8690  179.2310  145.9620 C   0  0  0  0  0  2  0  0  0  0  0  0
  185.3900  178.9470  139.7960 C   0  0  0  0  0  0  0  0  0  0  0  0
  184.3580  178.7610  142.1490 C   0  0  2  0  0  3  0  0  0  0  0  0
  184.1950  179.4210  139.0450 C   0  0  0  0  0  1  0  0  0  0  0  0
  188.5790  177.8500  148.8560 O   0  0  0  0  0  1  0  0  0  0  0  0
  188.6560  177.2530  146.5210 C   0  0  0  0  0  3  0  0  0  0  0  0
  185.0710  178.8910  143.5120 C   0  0  2  0  0  3  0  0  0  0  0  0
  186.6790  178.7470  139.1970 N   0  0  0  0  0  0  0  0  0  0  0  0
  186.7670  178.2560  141.3960 C   0  0  0  0  0  0  0  0  0  0  0  0
  188.8480  177.7330  139.9970 C   0  0  0  0  0  2  0  0  0  0  0  0
  188.9760  177.3100  138.5730 C   0  0  0  0  0  0  0  0  0  0  0  0
  189.1530  176.5320  135.8920 C   0  0  0  0  0  0  0  0  0  0  0  0
  189.3500  178.2410  137.5970 C   0  0  0  0  0  3  0  0  0  0  0  0
  188.6800  175.9940  138.2050 C   0  0  0  0  0  3  0  0  0  0  0  0
  188.7700  175.6040  136.8650 C   0  0  0  0  0  3  0  0  0  0  0  0
  189.2410  176.1550  134.5940 F   0  0  0  0  0  0  0  0  0  0  0  0
  189.4420  177.8500  136.2570 C   0  0  0  0  0  3  0  0  0  0  0  0
  1 20  1  0  0  0  0
  2 17  1  0  0  0  0
  4  9  2  0  0  0  0
  5 11  1  6  0  0  0
  5  7  1  0  0  0  0
  6 16  1  0  0  0  0
  7  2  2  0  0  0  0
  7  4  1  0  0  0  0
  8 12  1  0  0  0  0
  9  6  1  0  0  0  0
 10 20  2  0  0  0  0
 10 14  1  0  0  0  0
 12  4  1  0  0  0  0
 13 10  1  0  0  0  0
 14  3  1  1  0  0  0
 14 18  1  0  0  0  0
 15 13  1  0  0  0  0
 17  6  2  0  0  0  0
 18  5  1  0  0  0  0
 18  8  1  1  0  0  0
 19 13  2  0  0  0  0
 19  1  1  0  0  0  0
 20 11  1  0  0  0  0
 21  1  1  0  0  0  0
 22 21  1  0  0  0  0
 23 28  2  0  0  0  0
 23 26  1  0  0  0  0
 24 22  2  0  0  0  0
 25 22  1  0  0  0  0
 26 25  2  0  0  0  0
 27 23  1  0  0  0  0
 28 24  1  0  0  0  0
M  END
>  <MODEL>
2

>  <REMARK>
 VINA RESULT:      -9.6      2.686      3.592
  Name = 
  2 active torsions:
  status: ('A' for Active; 'I' for Inactive)
    1  A    between atoms: N_1  and  C_2
    2  A    between atoms: C_2  and  C_3
                            x       y       z     vdW  Elec       q    Type
                         _______ _______ _______ _____ _____    ______ ____

>  <TORSDO>
F 2

$$$$
=
 OpenBabel11052413303D

 28 32  0  0  1  0  0  0  0  0999 V2000
  188.3200  177.5470  138.0600 N   0  0  0  0  0  0  0  0  0  0  0  0
  185.8990  179.1550  142.3330 C   0  0  0  0  0  3  0  0  0  0  0  0
  191.1720  177.8570  141.4830 O   0  0  0  0  0  1  0  0  0  0  0  0
  186.9940  177.7380  143.9770 C   0  0  0  0  0  0  0  0  0  0  0  0
  188.1380  178.1660  141.7490 C   0  0  2  0  0  3  0  0  0  0  0  0
  184.8620  178.7760  144.4860 C   0  0  0  0  0  0  0  0  0  0  0  0
  186.9650  178.3160  142.6850 C   0  0  0  0  0  0  0  0  0  0  0  0
  189.3740  176.9750  143.5890 C   0  0  0  0  0  2  0  0  0  0  0  0
  185.9320  177.9590  144.8590 C   0  0  0  0  0  3  0  0  0  0  0  0
  189.7830  176.9940  139.7810 C   0  0  0  0  0  0  0  0  0  0  0  0
  187.7190  178.1230  140.3380 N   0  0  0  0  0  2  0  0  0  0  0  0
  188.0960  176.8050  144.4080 C   0  0  0  0  0  2  0  0  0  0  0  0
  190.3160  176.5960  138.6290 C   0  0  0  0  0  0  0  0  0  0  0  0
  190.2600  176.8390  141.1920 C   0  0  2  0  0  3  0  0  0  0  0  0
  191.6120  175.8790  138.4830 C   0  0  0  0  0  1  0  0  0  0  0  0
  183.8140  178.9920  145.3700 O   0  0  0  0  0  1  0  0  0  0  0  0
  184.8480  179.3780  143.2260 C   0  0  0  0  0  3  0  0  0  0  0  0
  189.0220  176.9450  142.1100 C   0  0  2  0  0  3  0  0  0  0  0  0
  189.4630  176.9340  137.5240 N   0  0  0  0  0  0  0  0  0  0  0  0
  188.5330  177.6320  139.4560 C   0  0  0  0  0  0  0  0  0  0  0  0
  187.3770  178.3340  137.2800 C   0  0  0  0  0  2  0  0  0  0  0  0
  185.9980  177.7910  137.4390 C   0  0  0  0  0  0  0  0  0  0  0  0
  183.4300  176.7390  137.7870 C   0  0  0  0  0  0  0  0  0  0  0  0
  185.0650  178.4680  138.2330 C   0  0  0  0  0  3  0  0  0  0  0  0
  185.6480  176.5830  136.8280 C   0  0  0  0  0  3  0  0  0  0  0  0
  184.3640  176.0570  137.0010 C   0  0  0  0  0  3  0  0  0  0  0  0
  182.1850  176.2300  137.9550 F   0  0  0  0  0  0  0  0  0  0  0  0
  183.7810  177.9430  138.4050 C   0  0  0  0  0  3  0  0  0  0  0  0
  1 20  1  0  0  0  0
  2  7  2  0  0  0  0
  2 17  1  0  0  0  0
  4 12  1  0  0  0  0
  4  9  2  0  0  0  0
  5 11  1  6  0  0  0
  5 18  1  0  0  0  0
  5  7  1  0  0  0  0
  6  9  1  0  0  0  0
  6 16  1  0  0  0  0
  7  4  1  0  0  0  0
  8 12  1  0  0  0  0
 10 14  1  0  0  0  0
 13 10  1  0  0  0  0
 14  3  1  1  0  0  0
 14 18  1  0  0  0  0
 15 13  1  0  0  0  0
 17  6  2  0  0  0  0
 18  8  1  1  0  0  0
 19  1  1  0  0  0  0
 19 13  2  0  0  0  0
 20 10  2  0  0  0  0
 20 11  1  0  0  0  0
 21 22  1  0  0  0  0
 21  1  1  0  0  0  0
 22 24  1  0  0  0  0
 23 27  1  0  0  0  0
 23 28  1  0  0  0  0
 24 28  2  0  0  0  0
 25 26  1  0  0  0  0
 25 22  2  0  0  0  0
 26 23  2  0  0  0  0
M  END
>  <MODEL>
3

>  <REMARK>
 VINA RESULT:      -9.3      3.416      5.976
  Name = 
  2 active torsions:
  status: ('A' for Active; 'I' for Inactive)
    1  A    between atoms: N_1  and  C_2
    2  A    between atoms: C_2  and  C_3
                            x       y       z     vdW  Elec       q    Type
                         _______ _______ _______ _____ _____    ______ ____

>  <TORSDO>
F 2

$$$$
=
 OpenBabel11052413303D

 28 32  0  0  1  0  0  0  0  0999 V2000
  188.6430  178.1220  140.8710 N   0  0  0  0  0  0  0  0  0  0  0  0
  190.9750  176.2650  145.0930 C   0  0  0  0  0  3  0  0  0  0  0  0
  185.6390  176.9530  143.9630 O   0  0  0  0  0  1  0  0  0  0  0  0
  189.5760  177.2760  146.8060 C   0  0  0  0  0  0  0  0  0  0  0  0
  188.6610  177.0190  144.4490 C   0  0  2  0  0  3  0  0  0  0  0  0
  191.7960  176.4710  147.3600 C   0  0  0  0  0  0  0  0  0  0  0  0
  189.7770  176.8950  145.4570 C   0  0  0  0  0  0  0  0  0  0  0  0
  187.1430  177.7610  146.3150 C   0  0  0  0  0  2  0  0  0  0  0  0
  190.5970  177.0770  147.7400 C   0  0  0  0  0  3  0  0  0  0  0  0
  187.0020  178.2260  142.5150 C   0  0  0  0  0  0  0  0  0  0  0  0
  189.1640  177.3160  143.0990 N   0  0  0  0  0  2  0  0  0  0  0  0
  188.3240  177.9830  147.2570 C   0  0  0  0  0  2  0  0  0  0  0  0
  186.4970  178.7080  141.3830 C   0  0  0  0  0  0  0  0  0  0  0  0
  186.4120  178.1140  143.8880 C   0  0  2  0  0  3  0  0  0  0  0  0
  185.1240  179.2590  141.2190 C   0  0  0  0  0  1  0  0  0  0  0  0
  192.8020  176.2740  148.2960 O   0  0  0  0  0  1  0  0  0  0  0  0
  191.9830  176.0610  146.0380 C   0  0  0  0  0  3  0  0  0  0  0  0
  187.5870  178.0470  144.8880 C   0  0  2  0  0  3  0  0  0  0  0  0
  187.4630  178.6470  140.3220 N   0  0  0  0  0  0  0  0  0  0  0  0
  188.3500  177.8130  142.2200 C   0  0  0  0  0  0  0  0  0  0  0  0
  189.7410  177.5870  140.0810 C   0  0  0  0  0  2  0  0  0  0  0  0
  189.3260  177.4350  138.6570 C   0  0  0  0  0  0  0  0  0  0  0  0
  188.6090  177.1360  135.9710 C   0  0  0  0  0  0  0  0  0  0  0  0
  188.9030  176.1890  138.1800 C   0  0  0  0  0  3  0  0  0  0  0  0
  189.4010  178.5280  137.7870 C   0  0  0  0  0  3  0  0  0  0  0  0
  189.0400  178.3790  136.4450 C   0  0  0  0  0  3  0  0  0  0  0  0
  188.2590  176.9920  134.6690 F   0  0  0  0  0  0  0  0  0  0  0  0
  188.5410  176.0420  136.8380 C   0  0  0  0  0  3  0  0  0  0  0  0
  1 20  1  0  0  0  0
  2  7  2  0  0  0  0
  2 17  1  0  0  0  0
  4 12  1  0  0  0  0
  4  9  2  0  0  0  0
  5 11  1  6  0  0  0
  5 18  1  0  0  0  0
  5  7  1  0  0  0  0
  6  9  1  0  0  0  0
  6 16  1  0  0  0  0
  7  4  1  0  0  0  0
  8 12  1  0  0  0  0
 10 14  1  0  0  0  0
 13 10  1  0  0  0  0
 14  3  1  6  0  0  0
 14 18  1  0  0  0  0
 15 13  1  0  0  0  0
 17  6  2  0  0  0  0
 18  8  1  1  0  0  0
 19  1  1  0  0  0  0
 19 13  2  0  0  0  0
 20 10  2  0  0  0  0
 20 11  1  0  0  0  0
 21  1  1  0  0  0  0
 22 21  1  0  0  0  0
 23 26  2  0  0  0  0
 23 28  1  0  0  0  0
 24 22  1  0  0  0  0
 25 22  2  0  0  0  0
 26 25  1  0  0  0  0
 27 23  1  0  0  0  0
 28 24  2  0  0  0  0
M  END
>  <MODEL>
4

>  <REMARK>
 VINA RESULT:      -9.2      3.108      4.479
  Name = 
  2 active torsions:
  status: ('A' for Active; 'I' for Inactive)
    1  A    between atoms: N_1  and  C_2
    2  A    between atoms: C_2  and  C_3
                            x       y       z     vdW  Elec       q    Type
                         _______ _______ _______ _____ _____    ______ ____

>  <TORSDO>
F 2

$$$$
=
 OpenBabel11052413303D

 28 32  0  0  1  0  0  0  0  0999 V2000
  189.5000  176.5060  141.5220 N   0  0  0  0  0  0  0  0  0  0  0  0
  185.0250  178.9130  142.4660 C   0  0  0  0  0  3  0  0  0  0  0  0
  189.5800  178.5050  145.5150 O   0  0  0  0  0  1  0  0  0  0  0  0
  184.7650  178.3740  144.8230 C   0  0  0  0  0  0  0  0  0  0  0  0
  187.0750  178.2620  143.7720 C   0  0  2  0  0  3  0  0  0  0  0  0
  182.8470  179.0670  143.5090 C   0  0  0  0  0  0  0  0  0  0  0  0
  185.5850  178.4730  143.6730 C   0  0  0  0  0  0  0  0  0  0  0  0
  186.8130  178.0260  146.2640 C   0  0  0  0  0  2  0  0  0  0  0  0
  183.3980  178.6540  144.7240 C   0  0  0  0  0  3  0  0  0  0  0  0
  189.5240  176.8630  143.8200 C   0  0  0  0  0  0  0  0  0  0  0  0
  187.6340  177.6700  142.5460 N   0  0  0  0  0  2  0  0  0  0  0  0
  185.2980  177.8810  146.1430 C   0  0  0  0  0  2  0  0  0  0  0  0
  190.6390  176.2230  143.4800 C   0  0  0  0  0  0  0  0  0  0  0  0
  188.9990  177.2860  145.1580 C   0  0  2  0  0  3  0  0  0  0  0  0
  191.6970  175.7770  144.4270 C   0  0  0  0  0  1  0  0  0  0  0  0
  181.4900  179.3470  143.4220 O   0  0  0  0  0  1  0  0  0  0  0  0
  183.6600  179.2000  142.3820 C   0  0  0  0  0  3  0  0  0  0  0  0
  187.4670  177.4360  145.0240 C   0  0  2  0  0  3  0  0  0  0  0  0
  190.6890  175.9950  142.0630 N   0  0  0  0  0  0  0  0  0  0  0  0
  188.7930  177.0900  142.5990 C   0  0  0  0  0  0  0  0  0  0  0  0
  189.3010  176.7810  140.1070 C   0  0  0  0  0  2  0  0  0  0  0  0
  190.5610  176.5340  139.3510 C   0  0  0  0  0  0  0  0  0  0  0  0
  192.9110  176.1190  137.8920 C   0  0  0  0  0  0  0  0  0  0  0  0
  191.7360  177.2070  139.7090 C   0  0  0  0  0  3  0  0  0  0  0  0
  190.5620  175.6630  138.2580 C   0  0  0  0  0  3  0  0  0  0  0  0
  191.7360  175.4540  137.5290 C   0  0  0  0  0  3  0  0  0  0  0  0
  194.0500  175.9160  137.1870 F   0  0  0  0  0  0  0  0  0  0  0  0
  192.9100  176.9970  138.9810 C   0  0  0  0  0  3  0  0  0  0  0  0
  1 19  1  0  0  0  0
  1 20  1  0  0  0  0
  2  7  1  0  0  0  0
  4 12  1  0  0  0  0
  5 11  1  6  0  0  0
  5 18  1  0  0  0  0
  6  9  2  0  0  0  0
  7  5  1  0  0  0  0
  7  4  2  0  0  0  0
  9  4  1  0  0  0  0
 10 14  1  0  0  0  0
 11 20  1  0  0  0  0
 12  8  1  0  0  0  0
 13 10  1  0  0  0  0
 13 15  1  0  0  0  0
 14  3  1  6  0  0  0
 16  6  1  0  0  0  0
 17  2  2  0  0  0  0
 17  6  1  0  0  0  0
 18 14  1  0  0  0  0
 18  8  1  1  0  0  0
 19 13  2  0  0  0  0
 20 10  2  0  0  0  0
 21  1  1  0  0  0  0
 22 24  1  0  0  0  0
 22 21  1  0  0  0  0
 23 28  1  0  0  0  0
 25 22  2  0  0  0  0
 26 23  2  0  0  0  0
 26 25  1  0  0  0  0
 27 23  1  0  0  0  0
 28 24  2  0  0  0  0
M  END
>  <MODEL>
5

>  <REMARK>
 VINA RESULT:      -9.2      2.776      5.130
  Name = 
  2 active torsions:
  status: ('A' for Active; 'I' for Inactive)
    1  A    between atoms: N_1  and  C_2
    2  A    between atoms: C_2  and  C_3
                            x       y       z     vdW  Elec       q    Type
                         _______ _______ _______ _____ _____    ______ ____

>  <TORSDO>
F 2

$$$$
=
 OpenBabel11052413303D

 28 32  0  0  1  0  0  0  0  0999 V2000
  190.1100  177.6600  140.2980 N   0  0  0  0  0  0  0  0  0  0  0  0
  187.1080  177.3570  144.4930 C   0  0  0  0  0  3  0  0  0  0  0  0
  185.7960  177.4890  139.1570 O   0  0  0  0  0  1  0  0  0  0  0  0
  185.3030  178.8360  143.8080 C   0  0  0  0  0  0  0  0  0  0  0  0
  186.7950  177.7940  142.0340 C   0  0  2  0  0  3  0  0  0  0  0  0
  185.6340  178.3190  146.1540 C   0  0  0  0  0  0  0  0  0  0  0  0
  186.4260  178.0390  143.4760 C   0  0  0  0  0  0  0  0  0  0  0  0
  184.7320  179.0660  141.3550 C   0  0  0  0  0  2  0  0  0  0  0  0
  184.9310  178.9830  145.1470 C   0  0  0  0  0  3  0  0  0  0  0  0
  187.9990  178.2540  139.5260 C   0  0  0  0  0  0  0  0  0  0  0  0
  188.2480  177.6450  141.8520 N   0  0  0  0  0  2  0  0  0  0  0  0
  184.5440  179.6180  142.7660 C   0  0  0  0  0  2  0  0  0  0  0  0
  188.8550  178.3220  138.5100 C   0  0  0  0  0  0  0  0  0  0  0  0
  186.5390  178.5820  139.6080 C   0  0  2  0  0  3  0  0  0  0  0  0
  188.5150  178.7510  137.1260 C   0  0  0  0  0  1  0  0  0  0  0  0
  185.2530  178.4680  147.4810 O   0  0  0  0  0  1  0  0  0  0  0  0
  186.7190  177.5030  145.8270 C   0  0  0  0  0  3  0  0  0  0  0  0
  186.2180  178.8800  141.0900 C   0  0  2  0  0  3  0  0  0  0  0  0
  190.1760  177.9430  138.9250 N   0  0  0  0  0  0  0  0  0  0  0  0
  188.7520  177.8040  140.6680 C   0  0  0  0  0  0  0  0  0  0  0  0
  191.1320  176.9250  141.0280 C   0  0  0  0  0  2  0  0  0  0  0  0
  190.9980  177.1720  142.4920 C   0  0  0  0  0  0  0  0  0  0  0  0
  190.6840  177.6470  145.2300 C   0  0  0  0  0  0  0  0  0  0  0  0
  190.7020  176.1130  143.3570 C   0  0  0  0  0  3  0  0  0  0  0  0
  191.1250  178.4710  142.9960 C   0  0  0  0  0  3  0  0  0  0  0  0
  190.9700  178.7080  144.3650 C   0  0  0  0  0  3  0  0  0  0  0  0
  190.5330  177.8770  146.5570 F   0  0  0  0  0  0  0  0  0  0  0  0
  190.5480  176.3500  144.7260 C   0  0  0  0  0  3  0  0  0  0  0  0
  1 20  1  0  0  0  0
  1 21  1  0  0  0  0
  2 17  1  0  0  0  0
  4  9  2  0  0  0  0
  5 11  1  1  0  0  0
  5  7  1  0  0  0  0
  6 16  1  0  0  0  0
  7  4  1  0  0  0  0
  7  2  2  0  0  0  0
  8 12  1  0  0  0  0
  9  6  1  0  0  0  0
 10 14  1  0  0  0  0
 10 20  2  0  0  0  0
 12  4  1  0  0  0  0
 13 19  2  0  0  0  0
 13 10  1  0  0  0  0
 14  3  1  1  0  0  0
 14 18  1  0  0  0  0
 15 13  1  0  0  0  0
 17  6  2  0  0  0  0
 18  8  1  6  0  0  0
 18  5  1  0  0  0  0
 19  1  1  0  0  0  0
 20 11  1  0  0  0  0
 21 22  1  0  0  0  0
 22 25  2  0  0  0  0
 22 24  1  0  0  0  0
 23 27  1  0  0  0  0
 24 28  2  0  0  0  0
 25 26  1  0  0  0  0
 26 23  2  0  0  0  0
 28 23  1  0  0  0  0
M  END
>  <MODEL>
6

>  <REMARK>
 VINA RESULT:      -9.0      1.668      2.681
  Name = 
  2 active torsions:
  status: ('A' for Active; 'I' for Inactive)
    1  A    between atoms: N_1  and  C_2
    2  A    between atoms: C_2  and  C_3
                            x       y       z     vdW  Elec       q    Type
                         _______ _______ _______ _____ _____    ______ ____

>  <TORSDO>
F 2

$$$$
=
 OpenBabel11052413303D

 28 32  0  0  1  0  0  0  0  0999 V2000
  187.8360  177.8220  144.5010 N   0  0  0  0  0  0  0  0  0  0  0  0
  186.6590  178.3840  139.5000 C   0  0  0  0  0  3  0  0  0  0  0  0
  184.0080  180.0680  144.0110 O   0  0  0  0  0  1  0  0  0  0  0  0
  184.2580  178.0150  139.6050 C   0  0  0  0  0  0  0  0  0  0  0  0
  185.5010  178.7070  141.7110 C   0  0  2  0  0  3  0  0  0  0  0  0
  185.4390  177.7810  137.5000 C   0  0  0  0  0  0  0  0  0  0  0  0
  185.4800  178.3130  140.2550 C   0  0  0  0  0  0  0  0  0  0  0  0
  182.9850  178.6280  141.7030 C   0  0  0  0  0  2  0  0  0  0  0  0
  184.2530  177.7330  138.2360 C   0  0  0  0  0  3  0  0  0  0  0  0
  185.5790  178.3790  144.5110 C   0  0  0  0  0  0  0  0  0  0  0  0
  186.7300  178.2630  142.3880 N   0  0  0  0  0  2  0  0  0  0  0  0
  182.9610  177.8960  140.3630 C   0  0  0  0  0  2  0  0  0  0  0  0
  185.9740  178.1920  145.7670 C   0  0  0  0  0  0  0  0  0  0  0  0
  184.2300  178.6910  143.9380 C   0  0  2  0  0  3  0  0  0  0  0  0
  185.0970  178.2830  146.9670 C   0  0  0  0  0  1  0  0  0  0  0  0
  185.4230  177.5030  136.1400 O   0  0  0  0  0  1  0  0  0  0  0  0
  186.6410  178.1100  138.1300 C   0  0  0  0  0  3  0  0  0  0  0  0
  184.2370  178.2220  142.4660 C   0  0  2  0  0  3  0  0  0  0  0  0
  187.3700  177.8660  145.8240 N   0  0  0  0  0  0  0  0  0  0  0  0
  186.7410  178.1860  143.6830 C   0  0  0  0  0  0  0  0  0  0  0  0
  189.2430  177.8610  144.1310 C   0  0  0  0  0  2  0  0  0  0  0  0
  190.0780  177.2730  145.2160 C   0  0  0  0  0  0  0  0  0  0  0  0
  191.6830  176.2230  147.2520 C   0  0  0  0  0  0  0  0  0  0  0  0
  189.7480  177.5020  146.5570 C   0  0  0  0  0  3  0  0  0  0  0  0
  191.2180  176.5280  144.8960 C   0  0  0  0  0  3  0  0  0  0  0  0
  192.0200  176.0020  145.9130 C   0  0  0  0  0  3  0  0  0  0  0  0
  192.4590  175.7130  148.2380 F   0  0  0  0  0  0  0  0  0  0  0  0
  190.5490  176.9740  147.5740 C   0  0  0  0  0  3  0  0  0  0  0  0
  1 19  1  0  0  0  0
  2  7  1  0  0  0  0
  4  7  2  0  0  0  0
  4 12  1  0  0  0  0
  5  7  1  6  0  0  0
  5 11  1  0  0  0  0
  5 18  1  0  0  0  0
  6 17  1  0  0  0  0
  6  9  2  0  0  0  0
  9  4  1  0  0  0  0
 10 13  1  0  0  0  0
 11 20  1  0  0  0  0
 12  8  1  0  0  0  0
 13 19  2  0  0  0  0
 13 15  1  0  0  0  0
 14  3  1  6  0  0  0
 14 10  1  0  0  0  0
 16  6  1  0  0  0  0
 17  2  2  0  0  0  0
 18  8  1  6  0  0  0
 18 14  1  0  0  0  0
 20  1  1  0  0  0  0
 20 10  2  0  0  0  0
 21  1  1  0  0  0  0
 21 22  1  0  0  0  0
 22 24  1  0  0  0  0
 23 28  1  0  0  0  0
 23 27  1  0  0  0  0
 24 28  2  0  0  0  0
 25 22  2  0  0  0  0
 25 26  1  0  0  0  0
 26 23  2  0  0  0  0
M  END
>  <MODEL>
7

>  <REMARK>
 VINA RESULT:      -9.0      2.276      5.758
  Name = 
  2 active torsions:
  status: ('A' for Active; 'I' for Inactive)
    1  A    between atoms: N_1  and  C_2
    2  A    between atoms: C_2  and  C_3
                            x       y       z     vdW  Elec       q    Type
                         _______ _______ _______ _____ _____    ______ ____

>  <TORSDO>
F 2

$$$$
=
 OpenBabel11052413303D

 28 32  0  0  1  0  0  0  0  0999 V2000
  185.0400  178.9690  141.7370 N   0  0  0  0  0  0  0  0  0  0  0  0
  189.7480  177.3010  140.4090 C   0  0  0  0  0  3  0  0  0  0  0  0
  186.7830  176.4030  144.9500 O   0  0  0  0  0  1  0  0  0  0  0  0
  190.8720  177.5110  142.5540 C   0  0  0  0  0  0  0  0  0  0  0  0
  188.3360  177.3610  142.4920 C   0  0  2  0  0  3  0  0  0  0  0  0
  192.1640  177.3880  140.5050 C   0  0  0  0  0  0  0  0  0  0  0  0
  189.6750  177.4420  141.8010 C   0  0  0  0  0  0  0  0  0  0  0  0
  189.5490  177.2570  144.6950 C   0  0  0  0  0  2  0  0  0  0  0  0
  192.1050  177.5030  141.8960 C   0  0  0  0  0  3  0  0  0  0  0  0
  185.9780  178.2670  143.7450 C   0  0  0  0  0  0  0  0  0  0  0  0
  187.2720  178.0220  141.7180 N   0  0  0  0  0  2  0  0  0  0  0  0
  190.8640  177.6920  144.0510 C   0  0  0  0  0  2  0  0  0  0  0  0
  184.7580  178.7380  143.9910 C   0  0  0  0  0  0  0  0  0  0  0  0
  187.0380  177.7470  144.6680 C   0  0  2  0  0  3  0  0  0  0  0  0
  184.1280  178.8340  145.3350 C   0  0  0  0  0  1  0  0  0  0  0  0
  193.3930  177.3760  139.8610 O   0  0  0  0  0  1  0  0  0  0  0  0
  190.9860  177.2830  139.7620 C   0  0  0  0  0  3  0  0  0  0  0  0
  188.3930  177.9000  143.9440 C   0  0  2  0  0  3  0  0  0  0  0  0
  184.1200  179.1660  142.7790 N   0  0  0  0  0  0  0  0  0  0  0  0
  186.1780  178.3660  142.3220 C   0  0  0  0  0  0  0  0  0  0  0  0
  184.6830  178.9550  140.3270 C   0  0  0  0  0  2  0  0  0  0  0  0
  183.3000  178.4270  140.1500 C   0  0  0  0  0  0  0  0  0  0  0  0
  180.7130  177.4420  139.7540 C   0  0  0  0  0  0  0  0  0  0  0  0
  183.0830  177.0480  140.0500 C   0  0  0  0  0  3  0  0  0  0  0  0
  182.2230  179.3120  140.0410 C   0  0  0  0  0  3  0  0  0  0  0  0
  180.9290  178.8200  139.8450 C   0  0  0  0  0  3  0  0  0  0  0  0
  179.4590  176.9640  139.5650 F   0  0  0  0  0  0  0  0  0  0  0  0
  181.7900  176.5560  139.8550 C   0  0  0  0  0  3  0  0  0  0  0  0
  1 20  1  0  0  0  0
  1 19  1  0  0  0  0
  2  7  1  0  0  0  0
  4 12  1  0  0  0  0
  5 11  1  6  0  0  0
  5 18  1  0  0  0  0
  6  9  2  0  0  0  0
  7  5  1  0  0  0  0
  7  4  2  0  0  0  0
  9  4  1  0  0  0  0
 10 13  1  0  0  0  0
 10 14  1  0  0  0  0
 11 20  1  0  0  0  0
 12  8  1  0  0  0  0
 13 15  1  0  0  0  0
 14  3  1  6  0  0  0
 16  6  1  0  0  0  0
 17  2  2  0  0  0  0
 17  6  1  0  0  0  0
 18 14  1  0  0  0  0
 18  8  1  1  0  0  0
 19 13  2  0  0  0  0
 20 10  2  0  0  0  0
 21  1  1  0  0  0  0
 22 21  1  0  0  0  0
 23 26  2  0  0  0  0
 23 28  1  0  0  0  0
 24 22  1  0  0  0  0
 25 22  2  0  0  0  0
 26 25  1  0  0  0  0
 27 23  1  0  0  0  0
 28 24  2  0  0  0  0
M  END
>  <MODEL>
8

>  <REMARK>
 VINA RESULT:      -8.8      3.917      6.977
  Name = 
  2 active torsions:
  status: ('A' for Active; 'I' for Inactive)
    1  A    between atoms: N_1  and  C_2
    2  A    between atoms: C_2  and  C_3
                            x       y       z     vdW  Elec       q    Type
                         _______ _______ _______ _____ _____    ______ ____

>  <TORSDO>
F 2

$$$$
=
 OpenBabel11052413303D

 28 32  0  0  1  0  0  0  0  0999 V2000
  189.1990  177.3040  146.1630 N   0  0  0  0  0  0  0  0  0  0  0  0
  186.4650  178.8140  142.0460 C   0  0  0  0  0  3  0  0  0  0  0  0
  185.7570  179.8700  147.3940 O   0  0  0  0  0  1  0  0  0  0  0  0
  184.2180  178.6060  142.9530 C   0  0  0  0  0  0  0  0  0  0  0  0
  186.1850  178.8280  144.5470 C   0  0  2  0  0  3  0  0  0  0  0  0
  184.5660  178.6590  140.5530 C   0  0  0  0  0  0  0  0  0  0  0  0
  185.6160  178.6970  143.1560 C   0  0  0  0  0  0  0  0  0  0  0  0
  183.8300  178.9320  145.4310 C   0  0  0  0  0  2  0  0  0  0  0  0
  183.7090  178.5680  141.6520 C   0  0  0  0  0  3  0  0  0  0  0  0
  187.1730  178.0100  147.0590 C   0  0  0  0  0  0  0  0  0  0  0  0
  187.5030  178.1860  144.6700 N   0  0  0  0  0  2  0  0  0  0  0  0
  183.2550  178.4490  144.1010 C   0  0  0  0  0  2  0  0  0  0  0  0
  187.9470  177.5790  148.0510 C   0  0  0  0  0  0  0  0  0  0  0  0
  185.7620  178.5140  147.0560 C   0  0  2  0  0  3  0  0  0  0  0  0
  187.5530  177.5220  149.4850 C   0  0  0  0  0  1  0  0  0  0  0  0
  184.0500  178.6250  139.2660 O   0  0  0  0  0  1  0  0  0  0  0  0
  185.9430  178.7860  140.7500 C   0  0  0  0  0  3  0  0  0  0  0  0
  185.2040  178.3100  145.6310 C   0  0  2  0  0  3  0  0  0  0  0  0
  189.2240  177.1490  147.5580 N   0  0  0  0  0  0  0  0  0  0  0  0
  187.9470  177.8830  145.8510 C   0  0  0  0  0  0  0  0  0  0  0  0
  190.3870  177.3060  145.3220 C   0  0  0  0  0  2  0  0  0  0  0  0
  190.0000  177.2560  143.8840 C   0  0  0  0  0  0  0  0  0  0  0  0
  189.3340  177.1380  141.1700 C   0  0  0  0  0  0  0  0  0  0  0  0
  189.3980  176.1060  143.3590 C   0  0  0  0  0  3  0  0  0  0  0  0
  190.2780  178.3410  143.0460 C   0  0  0  0  0  3  0  0  0  0  0  0
  189.9430  178.2840  141.6910 C   0  0  0  0  0  3  0  0  0  0  0  0
  189.0090  177.0820  139.8560 F   0  0  0  0  0  0  0  0  0  0  0  0
  189.0630  176.0490  142.0040 C   0  0  0  0  0  3  0  0  0  0  0  0
  1 19  1  0  0  0  0
  2  7  1  0  0  0  0
  4  7  2  0  0  0  0
  4 12  1  0  0  0  0
  5  7  1  6  0  0  0
  5 11  1  0  0  0  0
  5 18  1  0  0  0  0
  6 17  1  0  0  0  0
  6  9  2  0  0  0  0
  9  4  1  0  0  0  0
 10 13  1  0  0  0  0
 11 20  1  0  0  0  0
 12  8  1  0  0  0  0
 13 15  1  0  0  0  0
 14 10  1  0  0  0  0
 14  3  1  6  0  0  0
 16  6  1  0  0  0  0
 17  2  2  0  0  0  0
 18  8  1  1  0  0  0
 18 14  1  0  0  0  0
 19 13  2  0  0  0  0
 20  1  1  0  0  0  0
 20 10  2  0  0  0  0
 21  1  1  0  0  0  0
 22 21  1  0  0  0  0
 23 26  2  0  0  0  0
 23 28  1  0  0  0  0
 24 22  1  0  0  0  0
 25 22  2  0  0  0  0
 26 25  1  0  0  0  0
 27 23  1  0  0  0  0
 28 24  2  0  0  0  0
M  END
>  <MODEL>
9

>  <REMARK>
 VINA RESULT:      -8.7      2.178      5.548
  Name = 
  2 active torsions:
  status: ('A' for Active; 'I' for Inactive)
    1  A    between atoms: N_1  and  C_2
    2  A    between atoms: C_2  and  C_3
                            x       y       z     vdW  Elec       q    Type
                         _______ _______ _______ _____ _____    ______ ____

>  <TORSDO>
F 2

$$$$
