=
 OpenBabel11052413133D

 31 33  0  0  1  0  0  0  0  0999 V2000
  186.9810  178.2850  147.0380 C   0  0  0  0  0  0  0  0  0  0  0  0
  189.8760  177.8870  144.6110 C   0  0  2  0  0  3  0  0  0  0  0  0
  188.4880  177.8680  145.1870 C   0  0  0  0  0  0  0  0  0  0  0  0
  185.9100  177.8030  146.2790 C   0  0  0  0  0  3  0  0  0  0  0  0
  188.6530  177.7370  142.2740 C   0  0  1  0  0  3  0  0  0  0  0  0
  186.7720  178.7210  148.3030 F   0  0  0  0  0  0  0  0  0  0  0  0
  187.6460  176.8690  143.0410 C   0  0  0  0  0  2  0  0  0  0  0  0
  189.8530  178.1190  143.1150 C   0  0  0  0  0  0  0  0  0  0  0  0
  188.2690  178.3130  146.4940 C   0  0  0  0  0  3  0  0  0  0  0  0
  187.4080  177.3900  144.4220 C   0  0  0  0  0  0  0  0  0  0  0  0
  186.1240  177.3520  144.9730 C   0  0  0  0  0  3  0  0  0  0  0  0
  190.7950  178.6860  142.5850 O   0  0  0  0  0  0  0  0  0  0  0  0
  190.6630  176.6370  145.0400 C   0  0  1  0  0  3  0  0  0  0  0  0
  192.1650  174.7020  144.3660 C   0  0  0  0  0  2  0  0  0  0  0  0
  191.6200  176.0860  143.9790 C   0  0  0  0  0  2  0  0  0  0  0  0
  191.9870  177.9670  146.5650 F   0  0  0  0  0  0  0  0  0  0  0  0
  192.0400  174.3840  145.8620 C   0  0  0  0  0  2  0  0  0  0  0  0
  192.2720  175.2890  148.0620 O   0  0  0  0  0  1  0  0  0  0  0  0
  191.3280  176.7590  146.4230 C   0  0  2  0  0  3  0  0  0  0  0  0
  192.3200  175.6220  146.7090 C   0  0  2  0  0  3  0  0  0  0  0  0
  188.5980  178.7980  139.6180 O   0  0  0  0  0  0  0  0  0  0  0  0
  189.0190  177.6190  139.7710 C   0  0  0  0  0  0  0  0  0  0  0  0
  189.0890  177.0360  141.0740 N   0  0  0  0  0  2  0  0  0  0  0  0
  190.3520  177.5250  137.8230 O   0  0  0  0  0  1  0  0  0  0  0  0
  189.4270  176.8060  138.5860 C   0  0  2  0  0  3  0  0  0  0  0  0
  188.2890  175.0870  137.3670 O   0  0  0  0  0  1  0  0  0  0  0  0
  188.2150  176.4330  137.7340 C   0  0  2  0  0  3  0  0  0  0  0  0
  188.1670  177.2990  136.4760 C   0  0  0  0  0  2  0  0  0  0  0  0
  187.0070  178.2910  136.4780 C   0  0  1  0  0  3  0  0  0  0  0  0
  185.9300  177.8980  137.4720 C   0  0  0  0  0  1  0  0  0  0  0  0
  187.4610  179.5840  136.7480 O   0  0  0  0  0  1  0  0  0  0  0  0
  1  6  1  0  0  0  0
  2  8  1  6  0  0  0
  2 13  1  0  0  0  0
  2  3  1  0  0  0  0
  3  9  2  0  0  0  0
  4  1  2  0  0  0  0
  5 23  1  6  0  0  0
  5  7  1  0  0  0  0
  5  8  1  0  0  0  0
  7 10  1  0  0  0  0
  9  1  1  0  0  0  0
 10 11  2  0  0  0  0
 10  3  1  0  0  0  0
 11  4  1  0  0  0  0
 12  8  2  0  0  0  0
 13 15  1  6  0  0  0
 13 19  1  0  0  0  0
 14 17  1  0  0  0  0
 15 14  1  0  0  0  0
 17 20  1  0  0  0  0
 19 16  1  6  0  0  0
 19 20  1  0  0  0  0
 20 18  1  1  0  0  0
 21 22  2  0  0  0  0
 22 23  1  0  0  0  0
 25 24  1  6  0  0  0
 25 22  1  0  0  0  0
 27 26  1  6  0  0  0
 27 25  1  0  0  0  0
 28 29  1  0  0  0  0
 28 27  1  0  0  0  0
 29 31  1  0  0  0  0
 29 30  1  1  0  0  0
M  END
>  <MODEL>
1

>  <REMARK>
 VINA RESULT:      -7.5      0.000      0.000
  Name = 
  6 active torsions:
  status: ('A' for Active; 'I' for Inactive)
    1  A    between atoms: C_1  and  C_24
    2  A    between atoms: C_4  and  C_5
    3  A    between atoms: C_9  and  C_22
    4  A    between atoms: C_15  and  N_23
    5  A    between atoms: C_19  and  C_22
    6  A    between atoms: C_19  and  C_24
                            x       y       z     vdW  Elec       q    Type
                         _______ _______ _______ _____ _____    ______ ____

>  <TORSDO>
F 6

$$$$
=
 OpenBabel11052413133D

 31 33  0  0  1  0  0  0  0  0999 V2000
  186.8300  178.1700  146.8490 C   0  0  0  0  0  0  0  0  0  0  0  0
  189.9220  177.9320  144.6560 C   0  0  2  0  0  3  0  0  0  0  0  0
  188.4910  177.8690  145.1110 C   0  0  0  0  0  0  0  0  0  0  0  0
  185.8330  177.7240  145.9770 C   0  0  0  0  0  3  0  0  0  0  0  0
  188.9000  177.9050  142.2200 C   0  0  1  0  0  3  0  0  0  0  0  0
  186.5110  178.5310  148.1150 F   0  0  0  0  0  0  0  0  0  0  0  0
  187.8440  176.9870  142.8490 C   0  0  0  0  0  2  0  0  0  0  0  0
  190.0220  178.2480  143.1780 C   0  0  0  0  0  0  0  0  0  0  0  0
  188.1580  178.2380  146.4180 C   0  0  0  0  0  3  0  0  0  0  0  0
  187.4850  177.4280  144.2330 C   0  0  0  0  0  0  0  0  0  0  0  0
  186.1600  177.3490  144.6710 C   0  0  0  0  0  3  0  0  0  0  0  0
  190.9980  178.8500  142.7620 O   0  0  0  0  0  0  0  0  0  0  0  0
  190.6850  176.6650  145.0790 C   0  0  1  0  0  3  0  0  0  0  0  0
  192.1450  174.7020  144.3950 C   0  0  0  0  0  2  0  0  0  0  0  0
  191.6270  176.0970  144.0130 C   0  0  0  0  0  2  0  0  0  0  0  0
  192.0430  177.9650  146.6010 F   0  0  0  0  0  0  0  0  0  0  0  0
  192.0210  174.3830  145.8910 C   0  0  0  0  0  2  0  0  0  0  0  0
  192.2810  175.2780  148.0910 O   0  0  0  0  0  1  0  0  0  0  0  0
  191.3590  176.7710  146.4600 C   0  0  2  0  0  3  0  0  0  0  0  0
  192.3290  175.6140  146.7390 C   0  0  2  0  0  3  0  0  0  0  0  0
  188.7020  178.9440  139.5620 O   0  0  0  0  0  0  0  0  0  0  0  0
  189.2950  177.8410  139.7190 C   0  0  0  0  0  0  0  0  0  0  0  0
  189.4440  177.2770  141.0230 N   0  0  0  0  0  2  0  0  0  0  0  0
  188.8520  176.2180  138.0610 O   0  0  0  0  0  1  0  0  0  0  0  0
  189.8270  177.0980  138.5370 C   0  0  2  0  0  3  0  0  0  0  0  0
  191.9490  177.1530  139.6460 O   0  0  0  0  0  1  0  0  0  0  0  0
  191.1000  176.3340  138.8980 C   0  0  2  0  0  3  0  0  0  0  0  0
  191.8210  175.8800  137.6310 C   0  0  0  0  0  2  0  0  0  0  0  0
  193.3370  175.8180  137.7960 C   0  0  1  0  0  3  0  0  0  0  0  0
  193.8680  174.4090  137.6050 C   0  0  0  0  0  1  0  0  0  0  0  0
  193.9690  176.6930  136.9090 O   0  0  0  0  0  1  0  0  0  0  0  0
  1  6  1  0  0  0  0
  2  8  1  6  0  0  0
  2 13  1  0  0  0  0
  2  3  1  0  0  0  0
  3  9  2  0  0  0  0
  4  1  2  0  0  0  0
  5 23  1  6  0  0  0
  5  7  1  0  0  0  0
  5  8  1  0  0  0  0
  7 10  1  0  0  0  0
  9  1  1  0  0  0  0
 10 11  2  0  0  0  0
 10  3  1  0  0  0  0
 11  4  1  0  0  0  0
 12  8  2  0  0  0  0
 13 15  1  6  0  0  0
 13 19  1  0  0  0  0
 14 17  1  0  0  0  0
 15 14  1  0  0  0  0
 17 20  1  0  0  0  0
 19 16  1  6  0  0  0
 19 20  1  0  0  0  0
 20 18  1  1  0  0  0
 21 22  2  0  0  0  0
 22 23  1  0  0  0  0
 25 24  1  1  0  0  0
 25 27  1  0  0  0  0
 25 22  1  0  0  0  0
 27 26  1  6  0  0  0
 28 29  1  0  0  0  0
 28 27  1  0  0  0  0
 29 30  1  6  0  0  0
 31 29  1  0  0  0  0
M  END
>  <MODEL>
2

>  <REMARK>
 VINA RESULT:      -7.4      1.587      2.715
  Name = 
  6 active torsions:
  status: ('A' for Active; 'I' for Inactive)
    1  A    between atoms: C_1  and  C_24
    2  A    between atoms: C_4  and  C_5
    3  A    between atoms: C_9  and  C_22
    4  A    between atoms: C_15  and  N_23
    5  A    between atoms: C_19  and  C_22
    6  A    between atoms: C_19  and  C_24
                            x       y       z     vdW  Elec       q    Type
                         _______ _______ _______ _____ _____    ______ ____

>  <TORSDO>
F 6

$$$$
=
 OpenBabel11052413133D

 31 33  0  0  1  0  0  0  0  0999 V2000
  179.9000  178.3320  142.2420 C   0  0  0  0  0  0  0  0  0  0  0  0
  183.5130  179.1280  141.3820 C   0  0  2  0  0  3  0  0  0  0  0  0
  182.1590  178.4760  141.3770 C   0  0  0  0  0  0  0  0  0  0  0  0
  179.6440  177.2450  141.3990 C   0  0  0  0  0  3  0  0  0  0  0  0
  183.8080  177.9860  139.0180 C   0  0  1  0  0  3  0  0  0  0  0  0
  178.9310  178.7890  143.0700 F   0  0  0  0  0  0  0  0  0  0  0  0
  182.9810  176.8550  139.6420 C   0  0  0  0  0  2  0  0  0  0  0  0
  184.1620  179.0700  140.0140 C   0  0  0  0  0  0  0  0  0  0  0  0
  181.1570  178.9430  142.2340 C   0  0  0  0  0  3  0  0  0  0  0  0
  181.8970  177.3880  140.5250 C   0  0  0  0  0  0  0  0  0  0  0  0
  180.6430  176.7710  140.5450 C   0  0  0  0  0  3  0  0  0  0  0  0
  184.9370  179.9530  139.6850 O   0  0  0  0  0  0  0  0  0  0  0  0
  184.3870  178.5650  142.5150 C   0  0  1  0  0  3  0  0  0  0  0  0
  186.6610  177.7110  143.2580 C   0  0  0  0  0  2  0  0  0  0  0  0
  185.8870  178.5220  142.2080 C   0  0  0  0  0  2  0  0  0  0  0  0
  183.9900  180.5490  143.8380 F   0  0  0  0  0  0  0  0  0  0  0  0
  185.9060  177.5310  144.5820 C   0  0  0  0  0  2  0  0  0  0  0  0
  184.5250  178.6340  146.1910 O   0  0  0  0  0  1  0  0  0  0  0  0
  184.0870  179.1710  143.8980 C   0  0  2  0  0  3  0  0  0  0  0  0
  185.1410  178.7990  144.9520 C   0  0  2  0  0  3  0  0  0  0  0  0
  184.1870  177.3860  136.2460 O   0  0  0  0  0  0  0  0  0  0  0  0
  185.1410  177.1430  137.0360 C   0  0  0  0  0  0  0  0  0  0  0  0
  185.0220  177.4360  138.4290 N   0  0  0  0  0  2  0  0  0  0  0  0
  186.5760  175.2680  137.1220 O   0  0  0  0  0  1  0  0  0  0  0  0
  186.4000  176.5200  136.5260 C   0  0  2  0  0  3  0  0  0  0  0  0
  188.3800  177.5450  135.6510 O   0  0  0  0  0  1  0  0  0  0  0  0
  187.6060  177.4140  136.8070 C   0  0  2  0  0  3  0  0  0  0  0  0
  188.4600  176.8150  137.9230 C   0  0  0  0  0  2  0  0  0  0  0  0
  188.5380  177.7050  139.1600 C   0  0  1  0  0  3  0  0  0  0  0  0
  189.6400  177.2620  140.1050 C   0  0  0  0  0  1  0  0  0  0  0  0
  188.7240  179.0410  138.7990 O   0  0  0  0  0  1  0  0  0  0  0  0
  1  6  1  0  0  0  0
  2  8  1  6  0  0  0
  2 13  1  0  0  0  0
  3  2  1  0  0  0  0
  3  9  2  0  0  0  0
  4  1  2  0  0  0  0
  5 23  1  1  0  0  0
  5  7  1  0  0  0  0
  5  8  1  0  0  0  0
  7 10  1  0  0  0  0
  9  1  1  0  0  0  0
 10 11  2  0  0  0  0
 10  3  1  0  0  0  0
 11  4  1  0  0  0  0
 12  8  2  0  0  0  0
 13 15  1  6  0  0  0
 13 19  1  0  0  0  0
 14 17  1  0  0  0  0
 15 14  1  0  0  0  0
 17 20  1  0  0  0  0
 19 16  1  6  0  0  0
 19 20  1  0  0  0  0
 20 18  1  1  0  0  0
 21 22  2  0  0  0  0
 22 23  1  0  0  0  0
 25 27  1  0  0  0  0
 25 22  1  0  0  0  0
 25 24  1  1  0  0  0
 27 26  1  6  0  0  0
 27 28  1  0  0  0  0
 28 29  1  0  0  0  0
 29 30  1  1  0  0  0
 31 29  1  0  0  0  0
M  END
>  <MODEL>
3

>  <REMARK>
 VINA RESULT:      -7.1      4.248      6.423
  Name = 
  6 active torsions:
  status: ('A' for Active; 'I' for Inactive)
    1  A    between atoms: C_1  and  C_24
    2  A    between atoms: C_4  and  C_5
    3  A    between atoms: C_9  and  C_22
    4  A    between atoms: C_15  and  N_23
    5  A    between atoms: C_19  and  C_22
    6  A    between atoms: C_19  and  C_24
                            x       y       z     vdW  Elec       q    Type
                         _______ _______ _______ _____ _____    ______ ____

>  <TORSDO>
F 6

$$$$
=
 OpenBabel11052413133D

 31 33  0  0  1  0  0  0  0  0999 V2000
  191.2100  176.3850  143.1900 C   0  0  0  0  0  0  0  0  0  0  0  0
  189.8860  177.5620  139.8300 C   0  0  2  0  0  3  0  0  0  0  0  0
  189.9360  177.1390  141.2710 C   0  0  0  0  0  0  0  0  0  0  0  0
  190.0360  176.3180  143.9460 C   0  0  0  0  0  3  0  0  0  0  0  0
  187.5480  178.6150  140.4690 C   0  0  1  0  0  3  0  0  0  0  0  0
  192.3970  176.0520  143.7510 F   0  0  0  0  0  0  0  0  0  0  0  0
  187.4420  177.4040  141.4040 C   0  0  0  0  0  2  0  0  0  0  0  0
  188.7770  178.5640  139.5840 C   0  0  0  0  0  0  0  0  0  0  0  0
  191.1600  176.7910  141.8530 C   0  0  0  0  0  3  0  0  0  0  0  0
  188.7580  177.0780  142.0360 C   0  0  0  0  0  0  0  0  0  0  0  0
  188.8100  176.6600  143.3690 C   0  0  0  0  0  3  0  0  0  0  0  0
  188.9060  179.3900  138.6960 O   0  0  0  0  0  0  0  0  0  0  0  0
  189.8400  176.3360  138.9020 C   0  0  1  0  0  3  0  0  0  0  0  0
  188.5940  175.0400  137.1070 C   0  0  0  0  0  2  0  0  0  0  0  0
  188.7600  176.3920  137.8170 C   0  0  0  0  0  2  0  0  0  0  0  0
  191.9180  177.0130  137.8690 F   0  0  0  0  0  0  0  0  0  0  0  0
  189.7970  174.1010  137.2740 C   0  0  0  0  0  2  0  0  0  0  0  0
  192.1840  173.9970  137.3000 O   0  0  0  0  0  1  0  0  0  0  0  0
  191.2130  175.9220  138.3430 C   0  0  2  0  0  3  0  0  0  0  0  0
  191.1090  174.8800  137.2200 C   0  0  2  0  0  3  0  0  0  0  0  0
  184.9720  179.4610  141.3800 O   0  0  0  0  0  0  0  0  0  0  0  0
  185.0850  179.1220  140.1700 C   0  0  0  0  0  0  0  0  0  0  0  0
  186.3480  178.7070  139.6480 N   0  0  0  0  0  2  0  0  0  0  0  0
  183.5770  180.4400  138.9190 O   0  0  0  0  0  1  0  0  0  0  0  0
  183.8900  179.1250  139.2740 C   0  0  2  0  0  3  0  0  0  0  0  0
  182.3460  177.2940  139.2680 O   0  0  0  0  0  1  0  0  0  0  0  0
  182.6930  178.4610  139.9530 C   0  0  2  0  0  3  0  0  0  0  0  0
  181.4990  179.4130  139.9680 C   0  0  0  0  0  2  0  0  0  0  0  0
  180.7120  179.3640  141.2760 C   0  0  1  0  0  3  0  0  0  0  0  0
  181.5750  178.8990  142.4350 C   0  0  0  0  0  1  0  0  0  0  0  0
  180.1510  180.6100  141.5640 O   0  0  0  0  0  1  0  0  0  0  0  0
  1  6  1  0  0  0  0
  1  4  1  0  0  0  0
  2  8  1  1  0  0  0
  2  3  1  0  0  0  0
  3  9  1  0  0  0  0
  3 10  2  0  0  0  0
  5 23  1  6  0  0  0
  5  7  1  0  0  0  0
  7 10  1  0  0  0  0
  8  5  1  0  0  0  0
  9  1  2  0  0  0  0
 10 11  1  0  0  0  0
 11  4  2  0  0  0  0
 12  8  2  0  0  0  0
 13 15  1  6  0  0  0
 13  2  1  0  0  0  0
 14 17  1  0  0  0  0
 14 15  1  0  0  0  0
 19 16  1  6  0  0  0
 19 13  1  0  0  0  0
 20 17  1  0  0  0  0
 20 18  1  1  0  0  0
 20 19  1  0  0  0  0
 22 21  2  0  0  0  0
 23 22  1  0  0  0  0
 25 24  1  1  0  0  0
 25 27  1  0  0  0  0
 25 22  1  0  0  0  0
 27 26  1  6  0  0  0
 27 28  1  0  0  0  0
 28 29  1  0  0  0  0
 29 31  1  0  0  0  0
 29 30  1  1  0  0  0
M  END
>  <MODEL>
4

>  <REMARK>
 VINA RESULT:      -6.6      3.818      6.485
  Name = 
  6 active torsions:
  status: ('A' for Active; 'I' for Inactive)
    1  A    between atoms: C_1  and  C_24
    2  A    between atoms: C_4  and  C_5
    3  A    between atoms: C_9  and  C_22
    4  A    between atoms: C_15  and  N_23
    5  A    between atoms: C_19  and  C_22
    6  A    between atoms: C_19  and  C_24
                            x       y       z     vdW  Elec       q    Type
                         _______ _______ _______ _____ _____    ______ ____

>  <TORSDO>
F 6

$$$$
=
 OpenBabel11052413133D

 31 33  0  0  1  0  0  0  0  0999 V2000
  188.0810  177.6470  148.3110 C   0  0  0  0  0  0  0  0  0  0  0  0
  187.2870  176.7530  144.7070 C   0  0  2  0  0  3  0  0  0  0  0  0
  187.9870  177.3090  145.9140 C   0  0  0  0  0  0  0  0  0  0  0  0
  189.2690  178.3710  148.1660 C   0  0  0  0  0  3  0  0  0  0  0  0
  189.6270  177.0340  143.5130 C   0  0  1  0  0  3  0  0  0  0  0  0
  187.5500  177.4600  149.5430 F   0  0  0  0  0  0  0  0  0  0  0  0
  189.7500  178.2750  144.4060 C   0  0  0  0  0  2  0  0  0  0  0  0
  188.2710  176.3680  143.6210 C   0  0  0  0  0  0  0  0  0  0  0  0
  187.4390  177.1210  147.1870 C   0  0  0  0  0  3  0  0  0  0  0  0
  189.1860  178.0310  145.7700 C   0  0  0  0  0  0  0  0  0  0  0  0
  189.8190  178.5670  146.8950 C   0  0  0  0  0  3  0  0  0  0  0  0
  187.9910  175.4580  142.8580 O   0  0  0  0  0  0  0  0  0  0  0  0
  186.1730  177.7030  144.2350 C   0  0  1  0  0  3  0  0  0  0  0  0
  184.5320  179.5540  144.8170 C   0  0  0  0  0  2  0  0  0  0  0  0
  185.8160  178.8160  145.2260 C   0  0  0  0  0  2  0  0  0  0  0  0
  187.6620  178.6690  142.5930 F   0  0  0  0  0  0  0  0  0  0  0  0
  184.1580  179.3730  143.3400 C   0  0  0  0  0  2  0  0  0  0  0  0
  185.0290  179.2850  141.1160 O   0  0  0  0  0  1  0  0  0  0  0  0
  186.3660  178.2330  142.8030 C   0  0  2  0  0  3  0  0  0  0  0  0
  185.4020  179.3780  142.4560 C   0  0  2  0  0  3  0  0  0  0  0  0
  192.1390  176.7530  142.1740 O   0  0  0  0  0  0  0  0  0  0  0  0
  191.1780  177.2480  141.5230 C   0  0  0  0  0  0  0  0  0  0  0  0
  189.8930  177.3990  142.1280 N   0  0  0  0  0  2  0  0  0  0  0  0
  190.1420  177.8090  139.4750 O   0  0  0  0  0  1  0  0  0  0  0  0
  191.3800  177.7090  140.1160 C   0  0  2  0  0  3  0  0  0  0  0  0
  193.6220  177.1770  139.4620 O   0  0  0  0  0  1  0  0  0  0  0  0
  192.2960  176.7520  139.3530 C   0  0  2  0  0  3  0  0  0  0  0  0
  191.8990  176.7040  137.8790 C   0  0  0  0  0  2  0  0  0  0  0  0
  191.7150  175.2810  137.3560 C   0  0  1  0  0  3  0  0  0  0  0  0
  192.9650  174.4430  137.5530 C   0  0  0  0  0  1  0  0  0  0  0  0
  190.6220  174.6650  137.9680 O   0  0  0  0  0  1  0  0  0  0  0  0
  1  6  1  0  0  0  0
  2  8  1  6  0  0  0
  2  3  1  0  0  0  0
  3  9  1  0  0  0  0
  4  1  1  0  0  0  0
  5 23  1  6  0  0  0
  5  8  1  0  0  0  0
  5  7  1  0  0  0  0
  7 10  1  0  0  0  0
  9  1  2  0  0  0  0
 10  3  2  0  0  0  0
 10 11  1  0  0  0  0
 11  4  2  0  0  0  0
 12  8  2  0  0  0  0
 13  2  1  0  0  0  0
 13 15  1  1  0  0  0
 14 15  1  0  0  0  0
 17 14  1  0  0  0  0
 19 16  1  1  0  0  0
 19 13  1  0  0  0  0
 20 18  1  6  0  0  0
 20 19  1  0  0  0  0
 20 17  1  0  0  0  0
 22 23  1  0  0  0  0
 22 21  2  0  0  0  0
 25 24  1  6  0  0  0
 25 22  1  0  0  0  0
 27 26  1  6  0  0  0
 27 25  1  0  0  0  0
 28 27  1  0  0  0  0
 29 30  1  1  0  0  0
 29 28  1  0  0  0  0
 29 31  1  0  0  0  0
M  END
>  <MODEL>
5

>  <REMARK>
 VINA RESULT:      -6.6      2.995      5.236
  Name = 
  6 active torsions:
  status: ('A' for Active; 'I' for Inactive)
    1  A    between atoms: C_1  and  C_24
    2  A    between atoms: C_4  and  C_5
    3  A    between atoms: C_9  and  C_22
    4  A    between atoms: C_15  and  N_23
    5  A    between atoms: C_19  and  C_22
    6  A    between atoms: C_19  and  C_24
                            x       y       z     vdW  Elec       q    Type
                         _______ _______ _______ _____ _____    ______ ____

>  <TORSDO>
F 6

$$$$
=
 OpenBabel11052413133D

 31 33  0  0  1  0  0  0  0  0999 V2000
  191.0680  176.5120  143.2910 C   0  0  0  0  0  0  0  0  0  0  0  0
  189.9930  177.5990  139.8150 C   0  0  2  0  0  3  0  0  0  0  0  0
  189.9360  177.1980  141.2620 C   0  0  0  0  0  0  0  0  0  0  0  0
  189.8380  176.4170  143.9490 C   0  0  0  0  0  3  0  0  0  0  0  0
  187.5790  178.5860  140.2400 C   0  0  1  0  0  3  0  0  0  0  0  0
  192.2140  176.2240  143.9550 F   0  0  0  0  0  0  0  0  0  0  0  0
  187.4320  177.3850  141.1840 C   0  0  0  0  0  2  0  0  0  0  0  0
  188.8780  178.5620  139.4620 C   0  0  0  0  0  0  0  0  0  0  0  0
  191.1170  176.8970  141.9490 C   0  0  0  0  0  3  0  0  0  0  0  0
  188.7010  177.1100  141.9280 C   0  0  0  0  0  0  0  0  0  0  0  0
  188.6540  176.7120  143.2670 C   0  0  0  0  0  3  0  0  0  0  0  0
  189.0550  179.3790  138.5730 O   0  0  0  0  0  0  0  0  0  0  0  0
  190.0620  176.3600  138.9070 C   0  0  1  0  0  3  0  0  0  0  0  0
  188.9890  174.9770  137.0660 C   0  0  0  0  0  2  0  0  0  0  0  0
  189.0460  176.3450  137.7610 C   0  0  0  0  0  2  0  0  0  0  0  0
  192.1600  177.1280  137.9820 F   0  0  0  0  0  0  0  0  0  0  0  0
  190.2260  174.1030  137.3160 C   0  0  0  0  0  2  0  0  0  0  0  0
  192.6100  174.1210  137.4790 O   0  0  0  0  0  1  0  0  0  0  0  0
  191.4850  176.0090  138.4330 C   0  0  2  0  0  3  0  0  0  0  0  0
  191.4970  174.9470  137.3240 C   0  0  2  0  0  3  0  0  0  0  0  0
  184.9150  179.3780  140.9180 O   0  0  0  0  0  0  0  0  0  0  0  0
  185.1370  179.0180  139.7290 C   0  0  0  0  0  0  0  0  0  0  0  0
  186.4490  178.6280  139.3210 N   0  0  0  0  0  2  0  0  0  0  0  0
  183.1080  179.9930  139.0120 O   0  0  0  0  0  1  0  0  0  0  0  0
  184.0210  178.9700  138.7370 C   0  0  2  0  0  3  0  0  0  0  0  0
  183.2760  177.1290  140.0750 O   0  0  0  0  0  1  0  0  0  0  0  0
  183.3200  177.6130  138.7650 C   0  0  2  0  0  3  0  0  0  0  0  0
  184.0640  176.6150  137.8810 C   0  0  0  0  0  2  0  0  0  0  0  0
  184.3290  177.1440  136.4740 C   0  0  1  0  0  3  0  0  0  0  0  0
  185.7720  176.9330  136.0540 C   0  0  0  0  0  1  0  0  0  0  0  0
  183.4680  176.5490  135.5500 O   0  0  0  0  0  1  0  0  0  0  0  0
  1  4  1  0  0  0  0
  1  6  1  0  0  0  0
  2  8  1  6  0  0  0
  2  3  1  0  0  0  0
  3 10  2  0  0  0  0
  3  9  1  0  0  0  0
  5 23  1  6  0  0  0
  5  7  1  0  0  0  0
  7 10  1  0  0  0  0
  8  5  1  0  0  0  0
  9  1  2  0  0  0  0
 10 11  1  0  0  0  0
 11  4  2  0  0  0  0
 12  8  2  0  0  0  0
 13 15  1  6  0  0  0
 13  2  1  0  0  0  0
 14 17  1  0  0  0  0
 14 15  1  0  0  0  0
 17 20  1  0  0  0  0
 19 16  1  6  0  0  0
 19 13  1  0  0  0  0
 20 18  1  1  0  0  0
 20 19  1  0  0  0  0
 22 21  2  0  0  0  0
 23 22  1  0  0  0  0
 25 27  1  0  0  0  0
 25 24  1  1  0  0  0
 25 22  1  0  0  0  0
 27 26  1  1  0  0  0
 28 27  1  0  0  0  0
 29 30  1  6  0  0  0
 29 28  1  0  0  0  0
 31 29  1  0  0  0  0
M  END
>  <MODEL>
6

>  <REMARK>
 VINA RESULT:      -6.3      3.474      5.873
  Name = 
  6 active torsions:
  status: ('A' for Active; 'I' for Inactive)
    1  A    between atoms: C_1  and  C_24
    2  A    between atoms: C_4  and  C_5
    3  A    between atoms: C_9  and  C_22
    4  A    between atoms: C_15  and  N_23
    5  A    between atoms: C_19  and  C_22
    6  A    between atoms: C_19  and  C_24
                            x       y       z     vdW  Elec       q    Type
                         _______ _______ _______ _____ _____    ______ ____

>  <TORSDO>
F 6

$$$$
=
 OpenBabel11052413133D

 31 33  0  0  1  0  0  0  0  0999 V2000
  188.5920  178.2240  142.1690 C   0  0  0  0  0  0  0  0  0  0  0  0
  185.8510  178.8480  139.6140 C   0  0  2  0  0  3  0  0  0  0  0  0
  186.5470  178.4810  140.8940 C   0  0  0  0  0  0  0  0  0  0  0  0
  187.8550  177.7670  143.2650 C   0  0  0  0  0  3  0  0  0  0  0  0
  183.6910  179.0440  141.1220 C   0  0  1  0  0  3  0  0  0  0  0  0
  189.9400  178.3220  142.2530 F   0  0  0  0  0  0  0  0  0  0  0  0
  184.3220  177.8780  141.8940 C   0  0  0  0  0  2  0  0  0  0  0  0
  184.4680  179.4080  139.8740 C   0  0  0  0  0  0  0  0  0  0  0  0
  187.9400  178.5770  140.9830 C   0  0  0  0  0  3  0  0  0  0  0  0
  185.8070  178.0270  142.0010 C   0  0  0  0  0  0  0  0  0  0  0  0
  186.4630  177.6640  143.1800 C   0  0  0  0  0  3  0  0  0  0  0  0
  183.9980  180.2200  139.0950 O   0  0  0  0  0  0  0  0  0  0  0  0
  185.8750  177.6720  138.6230 C   0  0  1  0  0  3  0  0  0  0  0  0
  184.5590  176.0170  137.2130 C   0  0  0  0  0  2  0  0  0  0  0  0
  184.5250  177.3510  137.9740 C   0  0  0  0  0  2  0  0  0  0  0  0
  187.1240  179.0030  137.0380 F   0  0  0  0  0  0  0  0  0  0  0  0
  185.9750  175.5410  136.8610 C   0  0  0  0  0  2  0  0  0  0  0  0
  188.1190  176.2500  136.0770 O   0  0  0  0  0  1  0  0  0  0  0  0
  187.0180  177.7410  137.5940 C   0  0  2  0  0  3  0  0  0  0  0  0
  186.8630  176.7170  136.4610 C   0  0  2  0  0  3  0  0  0  0  0  0
  181.4160  179.3840  142.8230 O   0  0  0  0  0  0  0  0  0  0  0  0
  181.2250  178.8920  141.6760 C   0  0  0  0  0  0  0  0  0  0  0  0
  182.3160  178.7130  140.7720 N   0  0  0  0  0  2  0  0  0  0  0  0
  179.3070  177.6330  142.2410 O   0  0  0  0  0  1  0  0  0  0  0  0
  179.8550  178.4650  141.2600 C   0  0  2  0  0  3  0  0  0  0  0  0
  179.2810  178.5330  138.9360 O   0  0  0  0  0  1  0  0  0  0  0  0
  179.8910  177.7440  139.9140 C   0  0  2  0  0  3  0  0  0  0  0  0
  179.1610  176.4050  140.0120 C   0  0  0  0  0  2  0  0  0  0  0  0
  180.0450  175.2150  139.6450 C   0  0  1  0  0  3  0  0  0  0  0  0
  181.4910  175.6280  139.4460 C   0  0  0  0  0  1  0  0  0  0  0  0
  179.9590  174.2170  140.6180 O   0  0  0  0  0  1  0  0  0  0  0  0
  1  6  1  0  0  0  0
  1  4  1  0  0  0  0
  2  8  1  1  0  0  0
  2  3  1  0  0  0  0
  3  9  1  0  0  0  0
  3 10  2  0  0  0  0
  5 23  1  6  0  0  0
  5  7  1  0  0  0  0
  7 10  1  0  0  0  0
  8  5  1  0  0  0  0
  9  1  2  0  0  0  0
 10 11  1  0  0  0  0
 11  4  2  0  0  0  0
 12  8  2  0  0  0  0
 13 15  1  6  0  0  0
 13  2  1  0  0  0  0
 14 15  1  0  0  0  0
 17 14  1  0  0  0  0
 19 16  1  6  0  0  0
 19 13  1  0  0  0  0
 20 18  1  1  0  0  0
 20 17  1  0  0  0  0
 20 19  1  0  0  0  0
 22 21  2  0  0  0  0
 23 22  1  0  0  0  0
 25 22  1  0  0  0  0
 25 24  1  1  0  0  0
 27 26  1  6  0  0  0
 27 28  1  0  0  0  0
 27 25  1  0  0  0  0
 29 30  1  1  0  0  0
 29 28  1  0  0  0  0
 29 31  1  0  0  0  0
M  END
>  <MODEL>
7

>  <REMARK>
 VINA RESULT:      -6.2      5.283      8.255
  Name = 
  6 active torsions:
  status: ('A' for Active; 'I' for Inactive)
    1  A    between atoms: C_1  and  C_24
    2  A    between atoms: C_4  and  C_5
    3  A    between atoms: C_9  and  C_22
    4  A    between atoms: C_15  and  N_23
    5  A    between atoms: C_19  and  C_22
    6  A    between atoms: C_19  and  C_24
                            x       y       z     vdW  Elec       q    Type
                         _______ _______ _______ _____ _____    ______ ____

>  <TORSDO>
F 6

$$$$
=
 OpenBabel11052413133D

 31 33  0  0  1  0  0  0  0  0999 V2000
  192.5000  177.2480  140.6560 C   0  0  0  0  0  0  0  0  0  0  0  0
  189.5090  177.5460  138.3340 C   0  0  2  0  0  3  0  0  0  0  0  0
  190.3370  177.4660  139.5860 C   0  0  0  0  0  0  0  0  0  0  0  0
  191.8850  177.2820  141.9110 C   0  0  0  0  0  3  0  0  0  0  0  0
  187.6530  178.5690  139.9130 C   0  0  1  0  0  3  0  0  0  0  0  0
  193.8460  177.1250  140.5650 F   0  0  0  0  0  0  0  0  0  0  0  0
  188.2320  177.5980  140.9500 C   0  0  0  0  0  2  0  0  0  0  0  0
  188.2710  178.3950  138.5410 C   0  0  0  0  0  0  0  0  0  0  0  0
  191.7270  177.3350  139.4950 C   0  0  0  0  0  3  0  0  0  0  0  0
  189.7210  177.5070  140.8500 C   0  0  0  0  0  0  0  0  0  0  0  0
  190.4960  177.4060  142.0080 C   0  0  0  0  0  3  0  0  0  0  0  0
  187.8010  179.0030  137.5940 O   0  0  0  0  0  0  0  0  0  0  0  0
  189.2200  176.1410  137.7800 C   0  0  1  0  0  3  0  0  0  0  0  0
  187.4940  174.4450  137.0040 C   0  0  0  0  0  2  0  0  0  0  0  0
  187.7840  175.9270  137.2890 C   0  0  0  0  0  2  0  0  0  0  0  0
  190.5710  176.6080  135.8300 F   0  0  0  0  0  0  0  0  0  0  0  0
  188.7550  173.5940  136.8050 C   0  0  0  0  0  2  0  0  0  0  0  0
  190.9240  173.5470  135.8030 O   0  0  0  0  0  1  0  0  0  0  0  0
  190.2660  175.6390  136.7680 C   0  0  2  0  0  3  0  0  0  0  0  0
  189.8200  174.3670  136.0310 C   0  0  2  0  0  3  0  0  0  0  0  0
  185.7390  179.7450  141.6830 O   0  0  0  0  0  0  0  0  0  0  0  0
  185.3070  179.0000  140.7610 C   0  0  0  0  0  0  0  0  0  0  0  0
  186.2090  178.3970  139.8330 N   0  0  0  0  0  2  0  0  0  0  0  0
  183.6280  177.3390  140.7030 O   0  0  0  0  0  1  0  0  0  0  0  0
  183.8440  178.7190  140.6450 C   0  0  2  0  0  3  0  0  0  0  0  0
  183.8670  180.5270  139.0760 O   0  0  0  0  0  1  0  0  0  0  0  0
  183.2770  179.2900  139.3470 C   0  0  2  0  0  3  0  0  0  0  0  0
  181.7640  179.4640  139.4610 C   0  0  0  0  0  2  0  0  0  0  0  0
  180.9830  178.5210  138.5490 C   0  0  1  0  0  3  0  0  0  0  0  0
  181.8190  178.0570  137.3700 C   0  0  0  0  0  1  0  0  0  0  0  0
  180.5090  177.4190  139.2650 O   0  0  0  0  0  1  0  0  0  0  0  0
  1  4  1  0  0  0  0
  2  8  1  1  0  0  0
  2  3  1  0  0  0  0
  3 10  2  0  0  0  0
  4 11  2  0  0  0  0
  5 23  1  6  0  0  0
  5  7  1  0  0  0  0
  6  1  1  0  0  0  0
  8  5  1  0  0  0  0
  9  3  1  0  0  0  0
  9  1  2  0  0  0  0
 10  7  1  0  0  0  0
 10 11  1  0  0  0  0
 12  8  2  0  0  0  0
 13 15  1  6  0  0  0
 13  2  1  0  0  0  0
 14 15  1  0  0  0  0
 17 14  1  0  0  0  0
 19 16  1  6  0  0  0
 19 13  1  0  0  0  0
 20 18  1  1  0  0  0
 20 19  1  0  0  0  0
 20 17  1  0  0  0  0
 22 21  2  0  0  0  0
 23 22  1  0  0  0  0
 25 24  1  6  0  0  0
 25 22  1  0  0  0  0
 27 26  1  1  0  0  0
 27 28  1  0  0  0  0
 27 25  1  0  0  0  0
 29 30  1  6  0  0  0
 29 31  1  0  0  0  0
 29 28  1  0  0  0  0
M  END
>  <MODEL>
8

>  <REMARK>
 VINA RESULT:      -6.2      4.399      7.320
  Name = 
  6 active torsions:
  status: ('A' for Active; 'I' for Inactive)
    1  A    between atoms: C_1  and  C_24
    2  A    between atoms: C_4  and  C_5
    3  A    between atoms: C_9  and  C_22
    4  A    between atoms: C_15  and  N_23
    5  A    between atoms: C_19  and  C_22
    6  A    between atoms: C_19  and  C_24
                            x       y       z     vdW  Elec       q    Type
                         _______ _______ _______ _____ _____    ______ ____

>  <TORSDO>
F 6

$$$$
=
 OpenBabel11052413133D

 31 33  0  0  1  0  0  0  0  0999 V2000
  180.2860  180.2130  136.3970 C   0  0  0  0  0  0  0  0  0  0  0  0
  182.5100  177.6240  138.0630 C   0  0  2  0  0  3  0  0  0  0  0  0
  181.8500  178.9330  137.7340 C   0  0  0  0  0  0  0  0  0  0  0  0
  180.6400  181.3750  137.0900 C   0  0  0  0  0  3  0  0  0  0  0  0
  183.1330  178.7860  140.3530 C   0  0  1  0  0  3  0  0  0  0  0  0
  179.3570  180.2690  135.4140 F   0  0  0  0  0  0  0  0  0  0  0  0
  183.2580  180.0490  139.4900 C   0  0  0  0  0  2  0  0  0  0  0  0
  182.8750  177.5400  139.5310 C   0  0  0  0  0  0  0  0  0  0  0  0
  180.8930  178.9950  136.7160 C   0  0  0  0  0  3  0  0  0  0  0  0
  182.2000  180.1020  138.4340 C   0  0  0  0  0  0  0  0  0  0  0  0
  181.6000  181.3200  138.1040 C   0  0  0  0  0  3  0  0  0  0  0  0
  182.8990  176.4500  140.0780 O   0  0  0  0  0  0  0  0  0  0  0  0
  183.6840  177.3480  137.1080 C   0  0  1  0  0  3  0  0  0  0  0  0
  186.1520  177.6510  136.5860 C   0  0  0  0  0  2  0  0  0  0  0  0
  185.0650  177.6950  137.6720 C   0  0  0  0  0  2  0  0  0  0  0  0
  183.3820  174.9660  137.3910 F   0  0  0  0  0  0  0  0  0  0  0  0
  185.7530  176.8430  135.3440 C   0  0  0  0  0  2  0  0  0  0  0  0
  184.6700  174.8490  134.5940 O   0  0  0  0  0  1  0  0  0  0  0  0
  183.6490  175.9520  136.4600 C   0  0  2  0  0  3  0  0  0  0  0  0
  184.9560  175.6010  135.7330 C   0  0  2  0  0  3  0  0  0  0  0  0
  183.2640  178.8620  143.2100 O   0  0  0  0  0  0  0  0  0  0  0  0
  184.3400  178.6820  142.5760 C   0  0  0  0  0  0  0  0  0  0  0  0
  184.3410  178.6160  141.1500 N   0  0  0  0  0  2  0  0  0  0  0  0
  186.4090  177.5520  142.7330 O   0  0  0  0  0  1  0  0  0  0  0  0
  185.6350  178.5610  143.3130 C   0  0  2  0  0  3  0  0  0  0  0  0
  185.4050  179.4520  145.5240 O   0  0  0  0  0  1  0  0  0  0  0  0
  185.3980  178.2620  144.7920 C   0  0  2  0  0  3  0  0  0  0  0  0
  186.4870  177.3340  145.3250 C   0  0  0  0  0  2  0  0  0  0  0  0
  187.6560  178.0850  145.9570 C   0  0  1  0  0  3  0  0  0  0  0  0
  187.8250  177.7340  147.4230 C   0  0  0  0  0  1  0  0  0  0  0  0
  188.8410  177.8330  145.2620 O   0  0  0  0  0  1  0  0  0  0  0  0
  1  9  2  0  0  0  0
  1  4  1  0  0  0  0
  2  3  1  6  0  0  0
  2  8  1  0  0  0  0
  3 10  2  0  0  0  0
  4 11  2  0  0  0  0
  5 23  1  6  0  0  0
  6  1  1  0  0  0  0
  7  5  1  0  0  0  0
  8 12  2  0  0  0  0
  8  5  1  0  0  0  0
  9  3  1  0  0  0  0
 10  7  1  0  0  0  0
 11 10  1  0  0  0  0
 13 15  1  1  0  0  0
 13  2  1  0  0  0  0
 14 15  1  0  0  0  0
 17 20  1  0  0  0  0
 17 14  1  0  0  0  0
 19 13  1  0  0  0  0
 19 16  1  1  0  0  0
 20 18  1  6  0  0  0
 20 19  1  0  0  0  0
 22 21  2  0  0  0  0
 22 25  1  0  0  0  0
 23 22  1  0  0  0  0
 25 24  1  6  0  0  0
 25 27  1  0  0  0  0
 27 28  1  0  0  0  0
 27 26  1  1  0  0  0
 28 29  1  0  0  0  0
 29 30  1  1  0  0  0
 31 29  1  0  0  0  0
M  END
>  <MODEL>
9

>  <REMARK>
 VINA RESULT:      -6.2      5.213     10.012
  Name = 
  6 active torsions:
  status: ('A' for Active; 'I' for Inactive)
    1  A    between atoms: C_1  and  C_24
    2  A    between atoms: C_4  and  C_5
    3  A    between atoms: C_9  and  C_22
    4  A    between atoms: C_15  and  N_23
    5  A    between atoms: C_19  and  C_22
    6  A    between atoms: C_19  and  C_24
                            x       y       z     vdW  Elec       q    Type
                         _______ _______ _______ _____ _____    ______ ____

>  <TORSDO>
F 6

$$$$
