=
 OpenBabel11052413483D

 27 31  0  0  1  0  0  0  0  0999 V2000
  187.5110  178.5500  141.9980 O   0  0  0  0  0  0  0  0  0  0  0  0
  187.9110  177.6130  144.1570 C   0  0  0  0  0  0  0  0  0  0  0  0
  189.6490  176.5190  142.6450 N   0  0  0  0  0  2  0  0  0  0  0  0
  190.4410  177.0790  147.3870 C   0  0  0  0  0  3  0  0  0  0  0  0
  192.5090  176.1920  148.4040 O   0  0  0  0  0  1  0  0  0  0  0  0
  187.5720  178.0640  145.3770 C   0  0  0  0  0  3  0  0  0  0  0  0
  191.3960  176.0920  144.8090 C   0  0  0  0  0  2  0  0  0  0  0  0
  190.1280  177.1690  139.0240 C   0  0  0  0  0  0  0  0  0  0  0  0
  192.1650  175.9210  146.0930 C   0  0  0  0  0  3  0  0  0  0  0  0
  190.9730  176.6910  137.9860 N   0  0  0  0  0  1  0  0  0  0  0  0
  190.0530  176.7610  144.9940 C   0  0  0  0  0  0  0  0  0  0  0  0
  186.9660  177.7110  142.9990 C   0  0  1  0  0  3  0  0  0  0  0  0
  191.7320  176.3810  147.2700 C   0  0  0  0  0  0  0  0  0  0  0  0
  189.6530  177.2560  146.3290 C   0  0  0  0  0  0  0  0  0  0  0  0
  188.4470  178.0950  141.0710 C   0  0  0  0  0  0  0  0  0  0  0  0
  189.2320  176.9680  143.9450 C   0  0  0  0  0  0  0  0  0  0  0  0
  190.2030  176.6060  140.2990 C   0  0  0  0  0  3  0  0  0  0  0  0
  188.4320  177.9150  146.4700 O   0  0  0  0  0  0  0  0  0  0  0  0
  189.2450  178.2180  138.7790 C   0  0  0  0  0  3  0  0  0  0  0  0
  188.4110  178.6760  139.7980 C   0  0  0  0  0  3  0  0  0  0  0  0
  189.3840  177.0630  141.3400 C   0  0  0  0  0  0  0  0  0  0  0  0
  182.9430  178.9000  143.9640 C   0  0  0  0  0  3  0  0  0  0  0  0
  185.5690  178.1420  143.3480 C   0  0  0  0  0  0  0  0  0  0  0  0
  184.6110  178.2510  142.3330 C   0  0  0  0  0  3  0  0  0  0  0  0
  183.3010  178.6310  142.6400 C   0  0  0  0  0  3  0  0  0  0  0  0
  183.8940  178.7860  144.9820 C   0  0  0  0  0  3  0  0  0  0  0  0
  185.2040  178.4060  144.6760 C   0  0  0  0  0  3  0  0  0  0  0  0
  1 12  1  0  0  0  0
  2  6  2  0  0  0  0
  3 16  1  0  0  0  0
  6 18  1  0  0  0  0
  7 11  1  0  0  0  0
  7  9  1  0  0  0  0
  8 17  1  0  0  0  0
  9 13  2  0  0  0  0
 10  8  1  0  0  0  0
 11 14  1  0  0  0  0
 12 23  1  1  0  0  0
 12  2  1  0  0  0  0
 13  4  1  0  0  0  0
 13  5  1  0  0  0  0
 14 18  1  0  0  0  0
 14  4  2  0  0  0  0
 15 21  1  0  0  0  0
 15  1  1  0  0  0  0
 16  2  1  0  0  0  0
 16 11  2  0  0  0  0
 17 21  2  0  0  0  0
 19  8  2  0  0  0  0
 19 20  1  0  0  0  0
 20 15  2  0  0  0  0
 21  3  1  0  0  0  0
 22 26  1  0  0  0  0
 23 27  1  0  0  0  0
 24 25  1  0  0  0  0
 24 23  2  0  0  0  0
 25 22  2  0  0  0  0
 27 26  2  0  0  0  0
M  END
>  <MODEL>
1

>  <REMARK>
 VINA RESULT:     -11.4      0.000      0.000
  Name = 
  1 active torsions:
  status: ('A' for Active; 'I' for Inactive)
    1  A    between atoms: C_9  and  C_15
                            x       y       z     vdW  Elec       q    Type
                         _______ _______ _______ _____ _____    ______ ____

>  <TORSDO>
F 1

$$$$
=
 OpenBabel11052413483D

 27 31  0  0  1  0  0  0  0  0999 V2000
  186.8060  178.8270  140.4800 O   0  0  0  0  0  0  0  0  0  0  0  0
  186.0340  178.2610  142.6670 C   0  0  0  0  0  0  0  0  0  0  0  0
  188.2820  177.0750  142.4460 N   0  0  0  0  0  2  0  0  0  0  0  0
  186.5580  178.4070  146.7690 C   0  0  0  0  0  3  0  0  0  0  0  0
  187.8040  177.8350  148.8220 O   0  0  0  0  0  1  0  0  0  0  0  0
  185.1290  178.8680  143.4540 C   0  0  0  0  0  3  0  0  0  0  0  0
  188.6760  177.1090  145.2320 C   0  0  0  0  0  2  0  0  0  0  0  0
  190.5480  177.1970  139.5120 C   0  0  0  0  0  0  0  0  0  0  0  0
  188.6810  177.1910  146.7360 C   0  0  0  0  0  3  0  0  0  0  0  0
  191.7960  176.6280  139.1390 N   0  0  0  0  0  1  0  0  0  0  0  0
  187.4370  177.7010  144.5990 C   0  0  0  0  0  0  0  0  0  0  0  0
  185.8120  178.1140  141.1930 C   0  0  1  0  0  3  0  0  0  0  0  0
  187.7160  177.7930  147.4380 C   0  0  0  0  0  0  0  0  0  0  0  0
  186.4220  178.3640  145.4450 C   0  0  0  0  0  0  0  0  0  0  0  0
  188.0750  178.3040  140.2430 C   0  0  0  0  0  0  0  0  0  0  0  0
  187.2680  177.6870  143.2620 C   0  0  0  0  0  0  0  0  0  0  0  0
  189.9540  176.8420  140.7240 C   0  0  0  0  0  3  0  0  0  0  0  0
  185.3100  178.9490  144.8380 O   0  0  0  0  0  0  0  0  0  0  0  0
  189.9310  178.1320  138.6830 C   0  0  0  0  0  3  0  0  0  0  0  0
  188.7020  178.6790  139.0490 C   0  0  0  0  0  3  0  0  0  0  0  0
  188.7270  177.3930  141.1170 C   0  0  0  0  0  0  0  0  0  0  0  0
  181.9000  179.1910  139.7580 C   0  0  0  0  0  3  0  0  0  0  0  0
  184.4400  178.4920  140.7120 C   0  0  0  0  0  0  0  0  0  0  0  0
  184.3100  179.4080  139.6610 C   0  0  0  0  0  3  0  0  0  0  0  0
  183.0420  179.7590  139.1870 C   0  0  0  0  0  3  0  0  0  0  0  0
  182.0250  178.2710  140.8030 C   0  0  0  0  0  3  0  0  0  0  0  0
  183.2910  177.9200  141.2790 C   0  0  0  0  0  3  0  0  0  0  0  0
  1 12  1  0  0  0  0
  2 16  1  0  0  0  0
  2  6  2  0  0  0  0
  3 16  1  0  0  0  0
  4 13  1  0  0  0  0
  6 18  1  0  0  0  0
  7  9  1  0  0  0  0
  8 17  1  0  0  0  0
  9 13  2  0  0  0  0
 10  8  1  0  0  0  0
 11  7  1  0  0  0  0
 11 14  1  0  0  0  0
 12 23  1  1  0  0  0
 12  2  1  0  0  0  0
 13  5  1  0  0  0  0
 14  4  2  0  0  0  0
 15  1  1  0  0  0  0
 15 21  1  0  0  0  0
 16 11  2  0  0  0  0
 17 21  2  0  0  0  0
 18 14  1  0  0  0  0
 19 20  1  0  0  0  0
 19  8  2  0  0  0  0
 20 15  2  0  0  0  0
 21  3  1  0  0  0  0
 22 26  1  0  0  0  0
 23 27  1  0  0  0  0
 24 23  2  0  0  0  0
 25 24  1  0  0  0  0
 25 22  2  0  0  0  0
 26 27  2  0  0  0  0
M  END
>  <MODEL>
2

>  <REMARK>
 VINA RESULT:     -10.6      1.920      2.976
  Name = 
  1 active torsions:
  status: ('A' for Active; 'I' for Inactive)
    1  A    between atoms: C_9  and  C_15
                            x       y       z     vdW  Elec       q    Type
                         _______ _______ _______ _____ _____    ______ ____

>  <TORSDO>
F 1

$$$$
=
 OpenBabel11052413483D

 27 31  0  0  1  0  0  0  0  0999 V2000
  189.3440  176.7440  142.9960 O   0  0  0  0  0  0  0  0  0  0  0  0
  187.5270  177.8160  144.1130 C   0  0  0  0  0  0  0  0  0  0  0  0
  187.3950  178.6550  141.7080 N   0  0  0  0  0  2  0  0  0  0  0  0
  183.4520  178.4150  144.5060 C   0  0  0  0  0  3  0  0  0  0  0  0
  181.2820  179.2230  143.6490 O   0  0  0  0  0  1  0  0  0  0  0  0
  186.8910  177.4890  145.2520 C   0  0  0  0  0  3  0  0  0  0  0  0
  184.6290  179.1210  141.9270 C   0  0  0  0  0  2  0  0  0  0  0  0
  189.6420  177.6890  138.9200 C   0  0  0  0  0  0  0  0  0  0  0  0
  183.1740  179.3350  142.2560 C   0  0  0  0  0  3  0  0  0  0  0  0
  189.7930  178.0190  137.5450 N   0  0  0  0  0  1  0  0  0  0  0  0
  185.4340  178.5700  143.0820 C   0  0  0  0  0  0  0  0  0  0  0  0
  189.0150  177.6970  143.9890 C   0  0  1  0  0  3  0  0  0  0  0  0
  182.6350  179.0030  143.4320 C   0  0  0  0  0  0  0  0  0  0  0  0
  184.7580  178.2130  144.3480 C   0  0  0  0  0  0  0  0  0  0  0  0
  189.3530  177.0530  141.6370 C   0  0  0  0  0  0  0  0  0  0  0  0
  186.7560  178.3430  142.9570 C   0  0  0  0  0  0  0  0  0  0  0  0
  188.6810  178.3430  139.6930 C   0  0  0  0  0  3  0  0  0  0  0  0
  185.5100  177.6590  145.3850 O   0  0  0  0  0  0  0  0  0  0  0  0
  190.4310  176.6910  139.4890 C   0  0  0  0  0  3  0  0  0  0  0  0
  190.2840  176.3780  140.8400 C   0  0  0  0  0  3  0  0  0  0  0  0
  188.5090  178.0320  141.0480 C   0  0  0  0  0  0  0  0  0  0  0  0
  191.1480  176.8680  147.6340 C   0  0  0  0  0  3  0  0  0  0  0  0
  189.7420  177.4000  145.2710 C   0  0  0  0  0  0  0  0  0  0  0  0
  190.9820  176.7530  145.2210 C   0  0  0  0  0  3  0  0  0  0  0  0
  191.6830  176.4850  146.4010 C   0  0  0  0  0  3  0  0  0  0  0  0
  189.9130  177.5200  147.6890 C   0  0  0  0  0  3  0  0  0  0  0  0
  189.2110  177.7880  146.5100 C   0  0  0  0  0  3  0  0  0  0  0  0
  1 12  1  0  0  0  0
  2  6  2  0  0  0  0
  3 16  1  0  0  0  0
  6 18  1  0  0  0  0
  7  9  1  0  0  0  0
  7 11  1  0  0  0  0
  8 19  2  0  0  0  0
  8 17  1  0  0  0  0
  9 13  2  0  0  0  0
 10  8  1  0  0  0  0
 11 14  1  0  0  0  0
 12  2  1  0  0  0  0
 12 23  1  1  0  0  0
 13  5  1  0  0  0  0
 13  4  1  0  0  0  0
 14  4  2  0  0  0  0
 14 18  1  0  0  0  0
 15  1  1  0  0  0  0
 16 11  2  0  0  0  0
 16  2  1  0  0  0  0
 17 21  2  0  0  0  0
 19 20  1  0  0  0  0
 20 15  2  0  0  0  0
 21 15  1  0  0  0  0
 21  3  1  0  0  0  0
 22 26  1  0  0  0  0
 23 27  1  0  0  0  0
 24 23  2  0  0  0  0
 24 25  1  0  0  0  0
 25 22  2  0  0  0  0
 27 26  2  0  0  0  0
M  END
>  <MODEL>
3

>  <REMARK>
 VINA RESULT:     -10.1      1.761      5.873
  Name = 
  1 active torsions:
  status: ('A' for Active; 'I' for Inactive)
    1  A    between atoms: C_9  and  C_15
                            x       y       z     vdW  Elec       q    Type
                         _______ _______ _______ _____ _____    ______ ____

>  <TORSDO>
F 1

$$$$
=
 OpenBabel11052413483D

 27 31  0  0  1  0  0  0  0  0999 V2000
  188.0570  177.0670  143.1540 O   0  0  0  0  0  0  0  0  0  0  0  0
  185.9870  178.2570  143.1760 C   0  0  0  0  0  0  0  0  0  0  0  0
  186.9740  178.7160  140.8690 N   0  0  0  0  0  2  0  0  0  0  0  0
  182.1940  178.8190  141.6230 C   0  0  0  0  0  3  0  0  0  0  0  0
  180.6690  179.4380  139.7830 O   0  0  0  0  0  1  0  0  0  0  0  0
  184.8980  178.0950  143.9470 C   0  0  0  0  0  3  0  0  0  0  0  0
  184.4230  179.1480  139.7640 C   0  0  0  0  0  2  0  0  0  0  0  0
  190.1730  177.3830  139.5460 C   0  0  0  0  0  0  0  0  0  0  0  0
  182.9850  179.3780  139.3760 C   0  0  0  0  0  3  0  0  0  0  0  0
  190.9330  177.5030  138.3510 N   0  0  0  0  0  1  0  0  0  0  0  0
  184.6060  178.7980  141.2230 C   0  0  0  0  0  0  0  0  0  0  0  0
  187.3690  178.1540  143.7460 C   0  0  1  0  0  3  0  0  0  0  0  0
  181.9650  179.2180  140.2250 C   0  0  0  0  0  0  0  0  0  0  0  0
  183.4240  178.6250  142.0940 C   0  0  0  0  0  0  0  0  0  0  0  0
  188.6810  177.1650  141.9120 C   0  0  0  0  0  0  0  0  0  0  0  0
  185.8340  178.5840  141.7350 C   0  0  0  0  0  0  0  0  0  0  0  0
  189.0030  178.1270  139.7060 C   0  0  0  0  0  3  0  0  0  0  0  0
  183.6110  178.2530  143.4260 O   0  0  0  0  0  0  0  0  0  0  0  0
  190.5790  176.5030  140.5470 C   0  0  0  0  0  3  0  0  0  0  0  0
  189.8350  176.3970  141.7210 C   0  0  0  0  0  3  0  0  0  0  0  0
  188.2340  178.0230  140.8730 C   0  0  0  0  0  0  0  0  0  0  0  0
  187.6250  177.9390  148.0370 C   0  0  0  0  0  3  0  0  0  0  0  0
  187.4380  178.0730  145.2450 C   0  0  0  0  0  0  0  0  0  0  0  0
  188.5420  177.4590  145.8470 C   0  0  0  0  0  3  0  0  0  0  0  0
  188.6350  177.3900  147.2410 C   0  0  0  0  0  3  0  0  0  0  0  0
  186.5240  178.5600  147.4400 C   0  0  0  0  0  3  0  0  0  0  0  0
  186.4300  178.6280  146.0470 C   0  0  0  0  0  3  0  0  0  0  0  0
  1 12  1  0  0  0  0
  2 12  1  0  0  0  0
  2  6  2  0  0  0  0
  3 21  1  0  0  0  0
  3 16  1  0  0  0  0
  4 14  2  0  0  0  0
  5 13  1  0  0  0  0
  7 11  1  0  0  0  0
  8 17  2  0  0  0  0
  8 19  1  0  0  0  0
  9  7  1  0  0  0  0
  9 13  2  0  0  0  0
 10  8  1  0  0  0  0
 11 16  2  0  0  0  0
 11 14  1  0  0  0  0
 12 23  1  1  0  0  0
 13  4  1  0  0  0  0
 14 18  1  0  0  0  0
 15  1  1  0  0  0  0
 16  2  1  0  0  0  0
 17 21  1  0  0  0  0
 18  6  1  0  0  0  0
 19 20  2  0  0  0  0
 20 15  1  0  0  0  0
 21 15  2  0  0  0  0
 23 24  2  0  0  0  0
 23 27  1  0  0  0  0
 24 25  1  0  0  0  0
 25 22  2  0  0  0  0
 26 22  1  0  0  0  0
 27 26  2  0  0  0  0
M  END
>  <MODEL>
4

>  <REMARK>
 VINA RESULT:      -9.9      2.319      6.296
  Name = 
  1 active torsions:
  status: ('A' for Active; 'I' for Inactive)
    1  A    between atoms: C_9  and  C_15
                            x       y       z     vdW  Elec       q    Type
                         _______ _______ _______ _____ _____    ______ ____

>  <TORSDO>
F 1

$$$$
=
 OpenBabel11052413483D

 27 31  0  0  1  0  0  0  0  0999 V2000
  189.9640  178.0090  142.7540 O   0  0  0  0  0  0  0  0  0  0  0  0
  188.1980  177.7870  141.1630 C   0  0  0  0  0  0  0  0  0  0  0  0
  187.0990  177.3260  143.4180 N   0  0  0  0  0  2  0  0  0  0  0  0
  184.5520  179.0820  139.6960 C   0  0  0  0  0  3  0  0  0  0  0  0
  182.1190  179.4370  139.9250 O   0  0  0  0  0  1  0  0  0  0  0  0
  188.0910  178.2630  139.9100 C   0  0  0  0  0  3  0  0  0  0  0  0
  184.5860  178.1560  142.4660 C   0  0  0  0  0  3  0  0  0  0  0  0
  188.7680  177.4100  146.7300 C   0  0  0  0  0  0  0  0  0  0  0  0
  183.3300  178.6010  141.7610 C   0  0  0  0  0  3  0  0  0  0  0  0
  188.4030  177.1750  148.0830 N   0  0  0  0  0  1  0  0  0  0  0  0
  185.8120  178.1710  141.5830 C   0  0  0  0  0  0  0  0  0  0  0  0
  189.4870  177.2240  141.6760 C   0  0  1  0  0  3  0  0  0  0  0  0
  183.3180  179.0330  140.4960 C   0  0  0  0  0  0  0  0  0  0  0  0
  185.7170  178.6780  140.1970 C   0  0  2  0  0  3  0  0  0  0  0  0
  189.4910  177.8560  144.0550 C   0  0  0  0  0  0  0  0  0  0  0  0
  187.0110  177.7790  142.0570 C   0  0  0  0  0  0  0  0  0  0  0  0
  187.8390  177.1990  145.7100 C   0  0  0  0  0  3  0  0  0  0  0  0
  186.8700  178.7300  139.4140 O   0  0  0  0  0  0  0  0  0  0  0  0
  190.0430  177.8810  146.4220 C   0  0  0  0  0  3  0  0  0  0  0  0
  190.3990  178.1010  145.0920 C   0  0  0  0  0  3  0  0  0  0  0  0
  188.1730  177.4290  144.3690 C   0  0  0  0  0  0  0  0  0  0  0  0
  192.5990  176.6710  138.7550 C   0  0  0  0  0  3  0  0  0  0  0  0
  190.5610  177.0380  140.6410 C   0  0  0  0  0  0  0  0  0  0  0  0
  191.8540  177.5030  140.9040 C   0  0  0  0  0  3  0  0  0  0  0  0
  192.8720  177.3220  139.9620 C   0  0  0  0  0  3  0  0  0  0  0  0
  191.3110  176.1980  138.4910 C   0  0  0  0  0  3  0  0  0  0  0  0
  190.2930  176.3800  139.4320 C   0  0  0  0  0  3  0  0  0  0  0  0
  1 15  1  0  0  0  0
  2 12  1  0  0  0  0
  2 16  1  0  0  0  0
  3 21  1  0  0  0  0
  4 13  2  0  0  0  0
  5 13  1  0  0  0  0
  6  2  2  0  0  0  0
  8 10  1  0  0  0  0
  9  7  2  0  0  0  0
 11 16  2  0  0  0  0
 11  7  1  0  0  0  0
 12 23  1  6  0  0  0
 12  1  1  0  0  0  0
 13  9  1  0  0  0  0
 14  4  1  1  0  0  0
 14 11  1  0  0  0  0
 15 21  2  0  0  0  0
 15 20  1  0  0  0  0
 16  3  1  0  0  0  0
 17  8  2  0  0  0  0
 18  6  1  0  0  0  0
 18 14  1  0  0  0  0
 19  8  1  0  0  0  0
 20 19  2  0  0  0  0
 21 17  1  0  0  0  0
 22 25  1  0  0  0  0
 23 24  1  0  0  0  0
 25 24  2  0  0  0  0
 26 22  2  0  0  0  0
 26 27  1  0  0  0  0
 27 23  2  0  0  0  0
M  END
>  <MODEL>
5

>  <REMARK>
 VINA RESULT:      -9.9      2.498      7.641
  Name = 
  1 active torsions:
  status: ('A' for Active; 'I' for Inactive)
    1  A    between atoms: C_9  and  C_15
                            x       y       z     vdW  Elec       q    Type
                         _______ _______ _______ _____ _____    ______ ____

>  <TORSDO>
F 1

$$$$
=
 OpenBabel11052413483D

 27 31  0  0  1  0  0  0  0  0999 V2000
  189.6820  178.2540  142.0380 O   0  0  0  0  0  0  0  0  0  0  0  0
  187.3520  178.0750  141.5510 C   0  0  0  0  0  0  0  0  0  0  0  0
  187.5610  177.3500  143.9870 N   0  0  0  0  0  2  0  0  0  0  0  0
  183.4640  179.2840  142.2850 C   0  0  0  0  0  3  0  0  0  0  0  0
  181.4880  179.4750  143.7530 O   0  0  0  0  0  1  0  0  0  0  0  0
  186.6180  178.6530  140.5840 C   0  0  0  0  0  3  0  0  0  0  0  0
  184.9110  178.1170  144.5380 C   0  0  0  0  0  3  0  0  0  0  0  0
  190.6870  177.2340  145.9810 C   0  0  0  0  0  0  0  0  0  0  0  0
  183.4700  178.5500  144.6190 C   0  0  0  0  0  3  0  0  0  0  0  0
  191.0650  176.8580  147.2990 N   0  0  0  0  0  1  0  0  0  0  0  0
  185.5140  178.2810  143.1610 C   0  0  0  0  0  0  0  0  0  0  0  0
  188.7250  177.5430  141.2750 C   0  0  1  0  0  3  0  0  0  0  0  0
  182.8110  179.0920  143.5900 C   0  0  0  0  0  0  0  0  0  0  0  0
  184.7230  178.9040  142.0790 C   0  0  2  0  0  3  0  0  0  0  0  0
  189.9410  177.9580  143.3750 C   0  0  0  0  0  0  0  0  0  0  0  0
  186.7890  177.9180  142.9170 C   0  0  0  0  0  0  0  0  0  0  0  0
  189.3680  177.0620  145.5580 C   0  0  0  0  0  3  0  0  0  0  0  0
  185.3140  179.0930  140.8290 O   0  0  0  0  0  0  0  0  0  0  0  0
  191.6240  177.8030  145.1210 C   0  0  0  0  0  3  0  0  0  0  0  0
  191.2500  178.1610  143.8270 C   0  0  0  0  0  3  0  0  0  0  0  0
  188.9690  177.4300  144.2660 C   0  0  0  0  0  0  0  0  0  0  0  0
  189.8810  177.5090  137.1300 C   0  0  0  0  0  3  0  0  0  0  0  0
  189.1200  177.5120  139.8250 C   0  0  0  0  0  0  0  0  0  0  0  0
  188.9020  178.6440  139.0320 C   0  0  0  0  0  3  0  0  0  0  0  0
  189.2800  178.6420  137.6850 C   0  0  0  0  0  3  0  0  0  0  0  0
  190.1070  176.3790  137.9200 C   0  0  0  0  0  3  0  0  0  0  0  0
  189.7290  176.3800  139.2660 C   0  0  0  0  0  3  0  0  0  0  0  0
  1 15  1  0  0  0  0
  2 16  1  0  0  0  0
  3 21  1  0  0  0  0
  4 13  2  0  0  0  0
  6 18  1  0  0  0  0
  6  2  2  0  0  0  0
  7  9  2  0  0  0  0
  8 10  1  0  0  0  0
 11  7  1  0  0  0  0
 12 23  1  6  0  0  0
 12  2  1  0  0  0  0
 12  1  1  0  0  0  0
 13  5  1  0  0  0  0
 13  9  1  0  0  0  0
 14  4  1  1  0  0  0
 14 11  1  0  0  0  0
 15 20  2  0  0  0  0
 15 21  1  0  0  0  0
 16 11  2  0  0  0  0
 16  3  1  0  0  0  0
 17  8  1  0  0  0  0
 18 14  1  0  0  0  0
 19  8  2  0  0  0  0
 20 19  1  0  0  0  0
 21 17  2  0  0  0  0
 22 25  2  0  0  0  0
 22 26  1  0  0  0  0
 24 23  2  0  0  0  0
 25 24  1  0  0  0  0
 26 27  2  0  0  0  0
 27 23  1  0  0  0  0
M  END
>  <MODEL>
6

>  <REMARK>
 VINA RESULT:      -9.7      2.431      6.797
  Name = 
  1 active torsions:
  status: ('A' for Active; 'I' for Inactive)
    1  A    between atoms: C_9  and  C_15
                            x       y       z     vdW  Elec       q    Type
                         _______ _______ _______ _____ _____    ______ ____

>  <TORSDO>
F 1

$$$$
=
 OpenBabel11052413483D

 27 31  0  0  1  0  0  0  0  0999 V2000
  189.5080  176.9330  140.7630 O   0  0  0  0  0  0  0  0  0  0  0  0
  187.7400  178.0210  141.9420 C   0  0  0  0  0  0  0  0  0  0  0  0
  187.3560  178.6280  139.4940 N   0  0  0  0  0  2  0  0  0  0  0  0
  183.6880  178.4720  142.6480 C   0  0  0  0  0  3  0  0  0  0  0  0
  181.4120  179.1000  141.9240 O   0  0  0  0  0  1  0  0  0  0  0  0
  187.2220  177.7740  143.1570 C   0  0  0  0  0  3  0  0  0  0  0  0
  184.5990  178.9890  139.9210 C   0  0  0  0  0  2  0  0  0  0  0  0
  189.4020  177.5090  136.6100 C   0  0  0  0  0  0  0  0  0  0  0  0
  183.1690  179.1670  140.3600 C   0  0  0  0  0  3  0  0  0  0  0  0
  189.4170  177.7170  135.2030 N   0  0  0  0  0  1  0  0  0  0  0  0
  185.5290  178.5830  141.0420 C   0  0  0  0  0  0  0  0  0  0  0  0
  189.2160  177.9580  141.6940 C   0  0  1  0  0  3  0  0  0  0  0  0
  182.7510  178.9220  141.6050 C   0  0  0  0  0  0  0  0  0  0  0  0
  184.9850  178.3150  142.3910 C   0  0  0  0  0  0  0  0  0  0  0  0
  189.3830  177.1160  139.3880 C   0  0  0  0  0  0  0  0  0  0  0  0
  186.8460  178.4050  140.8190 C   0  0  0  0  0  0  0  0  0  0  0  0
  188.4790  178.1890  137.4060 C   0  0  0  0  0  3  0  0  0  0  0  0
  185.8510  177.8940  143.4000 O   0  0  0  0  0  0  0  0  0  0  0  0
  190.2890  176.6050  137.1910 C   0  0  0  0  0  3  0  0  0  0  0  0
  190.2760  176.4120  138.5720 C   0  0  0  0  0  3  0  0  0  0  0  0
  188.4410  177.9970  138.7930 C   0  0  0  0  0  0  0  0  0  0  0  0
  191.6810  177.5020  145.1930 C   0  0  0  0  0  3  0  0  0  0  0  0
  190.0650  177.8140  142.9260 C   0  0  0  0  0  0  0  0  0  0  0  0
  190.3730  176.5330  143.3990 C   0  0  0  0  0  3  0  0  0  0  0  0
  191.1780  176.3770  144.5320 C   0  0  0  0  0  3  0  0  0  0  0  0
  191.3810  178.7830  144.7200 C   0  0  0  0  0  3  0  0  0  0  0  0
  190.5760  178.9390  143.5880 C   0  0  0  0  0  3  0  0  0  0  0  0
  1 12  1  0  0  0  0
  2  6  2  0  0  0  0
  3 16  1  0  0  0  0
  6 18  1  0  0  0  0
  7  9  1  0  0  0  0
  7 11  1  0  0  0  0
  8 19  2  0  0  0  0
  8 17  1  0  0  0  0
  9 13  2  0  0  0  0
 10  8  1  0  0  0  0
 11 14  1  0  0  0  0
 12  2  1  0  0  0  0
 12 23  1  1  0  0  0
 13  5  1  0  0  0  0
 13  4  1  0  0  0  0
 14  4  2  0  0  0  0
 14 18  1  0  0  0  0
 15  1  1  0  0  0  0
 16 11  2  0  0  0  0
 16  2  1  0  0  0  0
 17 21  2  0  0  0  0
 19 20  1  0  0  0  0
 20 15  2  0  0  0  0
 21 15  1  0  0  0  0
 21  3  1  0  0  0  0
 23 24  2  0  0  0  0
 23 27  1  0  0  0  0
 24 25  1  0  0  0  0
 25 22  2  0  0  0  0
 26 22  1  0  0  0  0
 27 26  2  0  0  0  0
M  END
>  <MODEL>
7

>  <REMARK>
 VINA RESULT:      -9.7      2.531      6.317
  Name = 
  1 active torsions:
  status: ('A' for Active; 'I' for Inactive)
    1  A    between atoms: C_9  and  C_15
                            x       y       z     vdW  Elec       q    Type
                         _______ _______ _______ _____ _____    ______ ____

>  <TORSDO>
F 1

$$$$
=
 OpenBabel11052413483D

 27 31  0  0  1  0  0  0  0  0999 V2000
  187.3960  177.3070  142.0220 O   0  0  0  0  0  0  0  0  0  0  0  0
  189.5820  177.2440  142.9790 C   0  0  0  0  0  0  0  0  0  0  0  0
  188.1040  178.2380  144.8050 N   0  0  0  0  0  2  0  0  0  0  0  0
  192.1470  175.8090  145.8910 C   0  0  0  0  0  3  0  0  0  0  0  0
  192.8750  175.6150  148.2420 O   0  0  0  0  0  1  0  0  0  0  0  0
  190.6570  176.5080  142.6460 C   0  0  0  0  0  3  0  0  0  0  0  0
  189.8310  177.3220  146.8280 C   0  0  0  0  0  3  0  0  0  0  0  0
  184.4470  178.8180  144.5940 C   0  0  0  0  0  0  0  0  0  0  0  0
  190.8940  176.7850  147.7520 C   0  0  0  0  0  3  0  0  0  0  0  0
  183.4310  179.3620  145.4270 N   0  0  0  0  0  1  0  0  0  0  0  0
  190.1150  177.0620  145.3660 C   0  0  0  0  0  0  0  0  0  0  0  0
  188.6990  177.8530  141.9330 C   0  0  1  0  0  3  0  0  0  0  0  0
  191.9480  176.0850  147.3230 C   0  0  0  0  0  0  0  0  0  0  0  0
  191.2970  176.2650  144.9740 C   0  0  2  0  0  3  0  0  0  0  0  0
  186.4560  177.7630  142.9440 C   0  0  0  0  0  0  0  0  0  0  0  0
  189.2720  177.4990  144.4090 C   0  0  0  0  0  0  0  0  0  0  0  0
  185.7770  178.8370  145.0130 C   0  0  0  0  0  3  0  0  0  0  0  0
  191.5140  175.9930  143.6230 O   0  0  0  0  0  0  0  0  0  0  0  0
  184.1110  178.2390  143.3710 C   0  0  0  0  0  3  0  0  0  0  0  0
  185.1120  177.7160  142.5540 C   0  0  0  0  0  3  0  0  0  0  0  0
  186.7960  178.3030  144.2130 C   0  0  0  0  0  0  0  0  0  0  0  0
  190.1810  177.5300  137.9060 C   0  0  0  0  0  3  0  0  0  0  0  0
  189.2180  177.7610  140.5260 C   0  0  0  0  0  0  0  0  0  0  0  0
  190.2380  176.8510  140.2290 C   0  0  0  0  0  3  0  0  0  0  0  0
  190.7220  176.7370  138.9220 C   0  0  0  0  0  3  0  0  0  0  0  0
  189.1570  178.4360  138.1950 C   0  0  0  0  0  3  0  0  0  0  0  0
  188.6740  178.5510  139.5020 C   0  0  0  0  0  3  0  0  0  0  0  0
  1 15  1  0  0  0  0
  2 16  1  0  0  0  0
  4 13  2  0  0  0  0
  6  2  2  0  0  0  0
  6 18  1  0  0  0  0
  7  9  2  0  0  0  0
  8 17  1  0  0  0  0
  8 10  1  0  0  0  0
 11  7  1  0  0  0  0
 12 23  1  6  0  0  0
 12  1  1  0  0  0  0
 12  2  1  0  0  0  0
 13  9  1  0  0  0  0
 13  5  1  0  0  0  0
 14 11  1  0  0  0  0
 14  4  1  1  0  0  0
 15 21  1  0  0  0  0
 16  3  1  0  0  0  0
 16 11  2  0  0  0  0
 18 14  1  0  0  0  0
 19  8  2  0  0  0  0
 20 15  2  0  0  0  0
 20 19  1  0  0  0  0
 21  3  1  0  0  0  0
 21 17  2  0  0  0  0
 22 26  2  0  0  0  0
 22 25  1  0  0  0  0
 24 23  1  0  0  0  0
 25 24  2  0  0  0  0
 26 27  1  0  0  0  0
 27 23  2  0  0  0  0
M  END
>  <MODEL>
8

>  <REMARK>
 VINA RESULT:      -9.7      1.977      5.257
  Name = 
  1 active torsions:
  status: ('A' for Active; 'I' for Inactive)
    1  A    between atoms: C_9  and  C_15
                            x       y       z     vdW  Elec       q    Type
                         _______ _______ _______ _____ _____    ______ ____

>  <TORSDO>
F 1

$$$$
=
 OpenBabel11052413483D

 27 31  0  0  1  0  0  0  0  0999 V2000
  184.6260  177.8760  141.0660 O   0  0  0  0  0  0  0  0  0  0  0  0
  186.4280  178.2490  142.5870 C   0  0  0  0  0  0  0  0  0  0  0  0
  184.3660  179.1460  143.7920 N   0  0  0  0  0  2  0  0  0  0  0  0
  188.1970  177.5030  146.2520 C   0  0  0  0  0  3  0  0  0  0  0  0
  188.2270  177.6320  148.7170 O   0  0  0  0  0  1  0  0  0  0  0  0
  187.6390  177.6700  142.6600 C   0  0  0  0  0  3  0  0  0  0  0  0
  185.5330  178.6980  146.3130 C   0  0  0  0  0  3  0  0  0  0  0  0
  180.8860  179.1090  142.5100 C   0  0  0  0  0  0  0  0  0  0  0  0
  186.3400  178.4210  147.5540 C   0  0  0  0  0  3  0  0  0  0  0  0
  179.6100  179.5520  142.9550 N   0  0  0  0  0  1  0  0  0  0  0  0
  186.2610  178.3620  145.0310 C   0  0  0  0  0  0  0  0  0  0  0  0
  185.8160  178.6150  141.2700 C   0  0  1  0  0  3  0  0  0  0  0  0
  187.5550  177.8660  147.5260 C   0  0  0  0  0  0  0  0  0  0  0  0
  187.5990  177.7350  145.0860 C   0  0  2  0  0  3  0  0  0  0  0  0
  183.4070  178.2530  141.6270 C   0  0  0  0  0  0  0  0  0  0  0  0
  185.6840  178.5730  143.8320 C   0  0  0  0  0  0  0  0  0  0  0  0
  182.0220  179.3780  143.2730 C   0  0  0  0  0  3  0  0  0  0  0  0
  188.2330  177.3860  143.8940 O   0  0  0  0  0  0  0  0  0  0  0  0
  180.9990  178.3800  141.3280 C   0  0  0  0  0  3  0  0  0  0  0  0
  182.2530  177.9560  140.8920 C   0  0  0  0  0  3  0  0  0  0  0  0
  183.2900  178.9480  142.8600 C   0  0  0  0  0  0  0  0  0  0  0  0
  188.3950  178.2850  137.8400 C   0  0  0  0  0  3  0  0  0  0  0  0
  186.7290  178.4870  140.0830 C   0  0  0  0  0  0  0  0  0  0  0  0
  186.1800  178.2530  138.8170 C   0  0  0  0  0  3  0  0  0  0  0  0
  187.0110  178.1500  137.6980 C   0  0  0  0  0  3  0  0  0  0  0  0
  188.9480  178.5260  139.1010 C   0  0  0  0  0  3  0  0  0  0  0  0
  188.1180  178.6280  140.2210 C   0  0  0  0  0  3  0  0  0  0  0  0
  1 12  1  0  0  0  0
  1 15  1  0  0  0  0
  2  6  2  0  0  0  0
  2 16  1  0  0  0  0
  3 16  1  0  0  0  0
  4 13  2  0  0  0  0
  6 18  1  0  0  0  0
  7  9  2  0  0  0  0
  8 10  1  0  0  0  0
  8 17  1  0  0  0  0
 11 14  1  0  0  0  0
 11  7  1  0  0  0  0
 12 23  1  6  0  0  0
 12  2  1  0  0  0  0
 13  9  1  0  0  0  0
 13  5  1  0  0  0  0
 14  4  1  1  0  0  0
 15 21  1  0  0  0  0
 16 11  2  0  0  0  0
 18 14  1  0  0  0  0
 19  8  2  0  0  0  0
 20 19  1  0  0  0  0
 20 15  2  0  0  0  0
 21 17  2  0  0  0  0
 21  3  1  0  0  0  0
 22 26  1  0  0  0  0
 23 27  1  0  0  0  0
 24 23  2  0  0  0  0
 25 22  2  0  0  0  0
 25 24  1  0  0  0  0
 26 27  2  0  0  0  0
M  END
>  <MODEL>
9

>  <REMARK>
 VINA RESULT:      -9.4      3.010      6.062
  Name = 
  1 active torsions:
  status: ('A' for Active; 'I' for Inactive)
    1  A    between atoms: C_9  and  C_15
                            x       y       z     vdW  Elec       q    Type
                         _______ _______ _______ _____ _____    ______ ____

>  <TORSDO>
F 1

$$$$
