=
 OpenBabel11052416033D

 34 37  0  0  1  0  0  0  0  0999 V2000
  184.4880  176.8210  137.6590 C   0  0  2  0  0  3  0  0  0  0  0  0
  180.4730  179.2780  135.4870 C   0  0  0  0  0  1  0  0  0  0  0  0
  182.3290  177.2370  136.3440 C   0  0  0  0  0  2  0  0  0  0  0  0
  183.1850  176.7690  139.7810 C   0  0  0  0  0  2  0  0  0  0  0  0
  182.0660  176.0040  139.0640 C   0  0  0  0  0  2  0  0  0  0  0  0
  183.2740  176.1870  136.9610 C   0  0  2  0  0  3  0  0  0  0  0  0
  183.9330  177.6830  138.8040 C   0  0  2  0  0  3  0  0  0  0  0  0
  182.5710  175.2830  137.8870 N   0  0  0  0  0  2  0  0  0  0  0  0
  181.2950  179.5210  136.7170 C   0  0  0  0  0  0  0  0  0  0  0  0
  181.1960  180.7420  137.4380 C   0  0  0  0  0  0  0  0  0  0  0  0
  182.0170  180.9390  138.5560 C   0  0  0  0  0  3  0  0  0  0  0  0
  182.1950  178.5210  137.1460 C   0  0  0  0  0  0  0  0  0  0  0  0
  182.9100  179.9580  138.9740 C   0  0  0  0  0  3  0  0  0  0  0  0
  183.0110  178.7530  138.2770 C   0  0  0  0  0  0  0  0  0  0  0  0
  186.3910  178.2980  137.5260 C   0  0  1  0  0  3  0  0  0  0  0  0
  187.4830  176.0380  137.5940 O   0  0  0  0  0  0  0  0  0  0  0  0
  186.0430  176.7630  135.7280 C   0  0  2  0  0  3  0  0  0  0  0  0
  185.3540  177.5990  136.7370 N   0  0  1  0  0  0  0  0  0  0  0  0
  185.1220  176.2200  134.7400 N   0  0  0  0  0  1  0  0  0  0  0  0
  186.9610  174.5410  135.9250 O   0  0  0  0  0  0  0  0  0  0  0  0
  187.5280  177.3890  138.0650 C   0  0  2  0  0  3  0  0  0  0  0  0
  186.8580  175.7050  136.3970 C   0  0  0  0  0  0  0  0  0  0  0  0
  186.9370  179.3400  136.7770 O   0  0  0  0  0  1  0  0  0  0  0  0
  187.5410  177.4010  139.4710 O   0  0  0  0  0  0  0  0  0  0  0  0
  188.5580  178.2790  139.9110 C   0  0  2  0  0  3  0  0  0  0  0  0
  189.9350  177.6360  139.8270 C   0  0  0  0  0  1  0  0  0  0  0  0
  188.3120  178.7750  141.2270 O   0  0  0  0  0  0  0  0  0  0  0  0
  187.4930  178.1000  142.1340 C   0  0  0  0  0  0  0  0  0  0  0  0
  187.9260  177.1000  142.7710 O   0  0  0  0  0  0  0  0  0  0  0  0
  186.1240  178.5790  142.3420 C   0  0  0  0  0  3  0  0  0  0  0  0
  185.5850  179.4320  141.5320 N   0  0  0  0  0  2  0  0  0  0  0  0
  180.2530  181.8320  137.0840 C   0  0  0  0  0  0  0  0  0  0  0  0
  179.1290  181.9330  137.6420 O   0  0  0  0  0  1  0  0  0  0  0  0
  180.6180  182.7870  136.1380 O   0  0  0  0  0  0  0  0  0  0  0  0
  1 18  1  6  0  0  0
  1  7  1  0  0  0  0
  2  9  1  0  0  0  0
  3 12  1  0  0  0  0
  5  4  1  0  0  0  0
  6  3  1  1  0  0  0
  6  1  1  0  0  0  0
  6  8  1  0  0  0  0
  7  4  1  1  0  0  0
  8  5  1  0  0  0  0
  9 12  2  0  0  0  0
  9 10  1  0  0  0  0
 10 11  2  0  0  0  0
 11 13  1  0  0  0  0
 12 14  1  0  0  0  0
 14  7  1  0  0  0  0
 14 13  2  0  0  0  0
 15 23  1  6  0  0  0
 15 21  1  0  0  0  0
 16 21  1  0  0  0  0
 17 19  1  6  0  0  0
 17 22  1  0  0  0  0
 17 18  1  0  0  0  0
 18 15  1  0  0  0  0
 20 22  2  0  0  0  0
 21 24  1  0  0  0  0
 22 16  1  0  0  0  0
 24 25  1  0  0  0  0
 25 27  1  0  0  0  0
 26 25  1  0  0  0  0
 27 28  1  0  0  0  0
 28 30  1  0  0  0  0
 28 29  2  0  0  0  0
 31 30  2  0  0  0  0
 32 10  1  0  0  0  0
 32 33  1  0  0  0  0
 34 32  2  0  0  0  0
M  END
>  <MODEL>
1

>  <REMARK>
 VINA RESULT:      -5.8      0.000      0.000
  Name = 
  7 active torsions:
  status: ('A' for Active; 'I' for Inactive)
    1  A    between atoms: C_1  and  N_9
    2  A    between atoms: C_3  and  C_25
    3  A    between atoms: C_7  and  O_16
    4  A    between atoms: C_7  and  O_21
    5  A    between atoms: C_11  and  O_21
    6  A    between atoms: C_11  and  C_26
    7  A    between atoms: O_16  and  C_28
                            x       y       z     vdW  Elec       q    Type
                         _______ _______ _______ _____ _____    ______ ____

>  <TORSDO>
F 7

$$$$
=
 OpenBabel11052416033D

 34 37  0  0  1  0  0  0  0  0999 V2000
  184.6490  176.9200  138.0140 C   0  0  2  0  0  3  0  0  0  0  0  0
  180.5090  178.8290  135.5460 C   0  0  0  0  0  1  0  0  0  0  0  0
  182.4680  177.0310  136.6750 C   0  0  0  0  0  2  0  0  0  0  0  0
  183.3570  177.1160  140.1340 C   0  0  0  0  0  2  0  0  0  0  0  0
  182.2760  176.2000  139.5490 C   0  0  0  0  0  2  0  0  0  0  0  0
  183.4660  176.1300  137.4290 C   0  0  2  0  0  3  0  0  0  0  0  0
  184.0550  177.9120  139.0260 C   0  0  2  0  0  3  0  0  0  0  0  0
  182.8120  175.3390  138.4850 N   0  0  0  0  0  2  0  0  0  0  0  0
  181.3210  179.2910  136.7190 C   0  0  0  0  0  0  0  0  0  0  0  0
  181.1640  180.5980  137.2540 C   0  0  0  0  0  0  0  0  0  0  0  0
  181.9760  180.9980  138.3220 C   0  0  0  0  0  3  0  0  0  0  0  0
  182.2710  178.4100  137.2800 C   0  0  0  0  0  0  0  0  0  0  0  0
  182.9190  180.1340  138.8710 C   0  0  0  0  0  3  0  0  0  0  0  0
  183.0780  178.8470  138.3570 C   0  0  0  0  0  0  0  0  0  0  0  0
  186.4300  178.5040  137.6440 C   0  0  1  0  0  3  0  0  0  0  0  0
  187.6970  176.3890  138.1170 O   0  0  0  0  0  0  0  0  0  0  0  0
  186.2500  176.6560  136.1380 C   0  0  2  0  0  3  0  0  0  0  0  0
  185.4720  177.5950  136.9790 N   0  0  1  0  0  0  0  0  0  0  0  0
  185.3990  175.8770  135.2510 N   0  0  0  0  0  1  0  0  0  0  0  0
  187.3380  174.5870  136.7300 O   0  0  0  0  0  0  0  0  0  0  0  0
  187.6230  177.8000  138.3450 C   0  0  2  0  0  3  0  0  0  0  0  0
  187.1310  175.8020  136.9910 C   0  0  0  0  0  0  0  0  0  0  0  0
  186.9080  179.4420  136.7300 O   0  0  0  0  0  1  0  0  0  0  0  0
  187.6000  178.0570  139.7270 O   0  0  0  0  0  0  0  0  0  0  0  0
  188.7230  177.4400  140.3240 C   0  0  2  0  0  3  0  0  0  0  0  0
  188.7490  177.6500  141.8320 C   0  0  0  0  0  1  0  0  0  0  0  0
  189.9520  177.8650  139.7330 O   0  0  0  0  0  0  0  0  0  0  0  0
  191.0700  177.0340  139.6650 C   0  0  0  0  0  0  0  0  0  0  0  0
  191.0020  175.9080  139.0980 O   0  0  0  0  0  0  0  0  0  0  0  0
  192.3300  177.4940  140.2550 C   0  0  0  0  0  3  0  0  0  0  0  0
  193.4690  177.1870  139.7210 N   0  0  0  0  0  2  0  0  0  0  0  0
  180.1650  181.5770  136.7530 C   0  0  0  0  0  0  0  0  0  0  0  0
  180.3490  182.2080  135.6800 O   0  0  0  0  0  0  0  0  0  0  0  0
  178.9840  181.7880  137.4600 O   0  0  0  0  0  1  0  0  0  0  0  0
  1 18  1  6  0  0  0
  1  7  1  0  0  0  0
  2  9  1  0  0  0  0
  3 12  1  0  0  0  0
  5  4  1  0  0  0  0
  6  3  1  1  0  0  0
  6  1  1  0  0  0  0
  6  8  1  0  0  0  0
  7  4  1  1  0  0  0
  8  5  1  0  0  0  0
  9 10  2  0  0  0  0
  9 12  1  0  0  0  0
 10 11  1  0  0  0  0
 11 13  2  0  0  0  0
 12 14  2  0  0  0  0
 14 13  1  0  0  0  0
 14  7  1  0  0  0  0
 15 23  1  6  0  0  0
 15 21  1  0  0  0  0
 16 21  1  0  0  0  0
 17 19  1  1  0  0  0
 17 18  1  0  0  0  0
 17 22  1  0  0  0  0
 18 15  1  0  0  0  0
 20 22  2  0  0  0  0
 21 24  1  0  0  0  0
 22 16  1  0  0  0  0
 24 25  1  0  0  0  0
 25 26  1  0  0  0  0
 27 25  1  0  0  0  0
 28 27  1  0  0  0  0
 28 30  1  0  0  0  0
 29 28  2  0  0  0  0
 31 30  2  0  0  0  0
 32 10  1  0  0  0  0
 32 34  1  0  0  0  0
 33 32  2  0  0  0  0
M  END
>  <MODEL>
2

>  <REMARK>
 VINA RESULT:      -5.7      1.776      2.348
  Name = 
  7 active torsions:
  status: ('A' for Active; 'I' for Inactive)
    1  A    between atoms: C_1  and  N_9
    2  A    between atoms: C_3  and  C_25
    3  A    between atoms: C_7  and  O_16
    4  A    between atoms: C_7  and  O_21
    5  A    between atoms: C_11  and  O_21
    6  A    between atoms: C_11  and  C_26
    7  A    between atoms: O_16  and  C_28
                            x       y       z     vdW  Elec       q    Type
                         _______ _______ _______ _____ _____    ______ ____

>  <TORSDO>
F 7

$$$$
=
 OpenBabel11052416033D

 34 37  0  0  1  0  0  0  0  0999 V2000
  183.6400  177.7110  137.0690 C   0  0  2  0  0  3  0  0  0  0  0  0
  181.9190  173.1890  135.2080 C   0  0  0  0  0  1  0  0  0  0  0  0
  182.4810  176.0010  135.5540 C   0  0  0  0  0  2  0  0  0  0  0  0
  185.8080  177.2420  135.9380 C   0  0  0  0  0  2  0  0  0  0  0  0
  185.0770  177.1510  134.5940 C   0  0  0  0  0  2  0  0  0  0  0  0
  182.9440  177.4620  135.7210 C   0  0  2  0  0  3  0  0  0  0  0  0
  184.8900  176.8170  137.0880 C   0  0  2  0  0  3  0  0  0  0  0  0
  183.8110  177.8990  134.6130 N   0  0  0  0  0  2  0  0  0  0  0  0
  183.1250  173.5910  136.0030 C   0  0  0  0  0  0  0  0  0  0  0  0
  183.9660  172.6180  136.6090 C   0  0  0  0  0  0  0  0  0  0  0  0
  185.0550  173.0450  137.3780 C   0  0  0  0  0  3  0  0  0  0  0  0
  183.4090  174.9650  136.1640 C   0  0  0  0  0  0  0  0  0  0  0  0
  185.3310  174.3990  137.5450 C   0  0  0  0  0  3  0  0  0  0  0  0
  184.5160  175.3630  136.9500 C   0  0  0  0  0  0  0  0  0  0  0  0
  183.5680  177.5210  139.4720 C   0  0  1  0  0  3  0  0  0  0  0  0
  183.4370  180.0060  139.1380 O   0  0  0  0  0  0  0  0  0  0  0  0
  181.6690  178.4660  138.3710 C   0  0  2  0  0  3  0  0  0  0  0  0
  182.7560  177.4700  138.2380 N   0  0  1  0  0  0  0  0  0  0  0  0
  180.6680  178.3330  137.3230 N   0  0  0  0  0  1  0  0  0  0  0  0
  181.6740  180.8330  137.9100 O   0  0  0  0  0  0  0  0  0  0  0  0
  184.0060  178.9440  139.9110 C   0  0  2  0  0  3  0  0  0  0  0  0
  182.2350  179.8460  138.4560 C   0  0  0  0  0  0  0  0  0  0  0  0
  182.8850  176.8970  140.5170 O   0  0  0  0  0  1  0  0  0  0  0  0
  185.4090  179.0500  139.9010 O   0  0  0  0  0  0  0  0  0  0  0  0
  185.9070  178.6270  141.1540 C   0  0  2  0  0  3  0  0  0  0  0  0
  185.0470  179.1340  142.3040 C   0  0  0  0  0  1  0  0  0  0  0  0
  187.2730  178.9960  141.3440 O   0  0  0  0  0  0  0  0  0  0  0  0
  188.3170  178.0820  141.1940 C   0  0  0  0  0  0  0  0  0  0  0  0
  188.6700  177.3440  142.1550 O   0  0  0  0  0  0  0  0  0  0  0  0
  188.9920  177.9870  139.8960 C   0  0  0  0  0  3  0  0  0  0  0  0
  188.7150  178.8120  138.9380 N   0  0  0  0  0  2  0  0  0  0  0  0
  183.7670  171.1540  136.4620 C   0  0  0  0  0  0  0  0  0  0  0  0
  183.0650  170.5040  137.2800 O   0  0  0  0  0  1  0  0  0  0  0  0
  184.3380  170.4800  135.3860 O   0  0  0  0  0  0  0  0  0  0  0  0
  1  7  1  0  0  0  0
  1 18  1  1  0  0  0
  2  9  1  0  0  0  0
  3 12  1  0  0  0  0
  5  8  1  0  0  0  0
  5  4  1  0  0  0  0
  6  3  1  6  0  0  0
  6  1  1  0  0  0  0
  7  4  1  6  0  0  0
  8  6  1  0  0  0  0
  9 12  2  0  0  0  0
  9 10  1  0  0  0  0
 10 11  2  0  0  0  0
 11 13  1  0  0  0  0
 12 14  1  0  0  0  0
 14  7  1  0  0  0  0
 14 13  2  0  0  0  0
 15 21  1  0  0  0  0
 15 23  1  1  0  0  0
 16 21  1  0  0  0  0
 17 19  1  6  0  0  0
 17 22  1  0  0  0  0
 18 17  1  0  0  0  0
 18 15  1  0  0  0  0
 20 22  2  0  0  0  0
 22 16  1  0  0  0  0
 24 21  1  0  0  0  0
 24 25  1  0  0  0  0
 25 27  1  0  0  0  0
 25 26  1  0  0  0  0
 28 27  1  0  0  0  0
 28 29  2  0  0  0  0
 30 28  1  0  0  0  0
 31 30  2  0  0  0  0
 32 10  1  0  0  0  0
 32 33  1  0  0  0  0
 34 32  2  0  0  0  0
M  END
>  <MODEL>
3

>  <REMARK>
 VINA RESULT:      -5.1      2.743      5.905
  Name = 
  7 active torsions:
  status: ('A' for Active; 'I' for Inactive)
    1  A    between atoms: C_1  and  N_9
    2  A    between atoms: C_3  and  C_25
    3  A    between atoms: C_7  and  O_16
    4  A    between atoms: C_7  and  O_21
    5  A    between atoms: C_11  and  O_21
    6  A    between atoms: C_11  and  C_26
    7  A    between atoms: O_16  and  C_28
                            x       y       z     vdW  Elec       q    Type
                         _______ _______ _______ _____ _____    ______ ____

>  <TORSDO>
F 7

$$$$
=
 OpenBabel11052416033D

 34 37  0  0  1  0  0  0  0  0999 V2000
  183.5160  177.8350  137.1630 C   0  0  2  0  0  3  0  0  0  0  0  0
  181.3690  173.3970  135.5620 C   0  0  0  0  0  1  0  0  0  0  0  0
  182.1310  176.1730  135.7910 C   0  0  0  0  0  2  0  0  0  0  0  0
  185.5500  177.2060  135.8730 C   0  0  0  0  0  2  0  0  0  0  0  0
  184.7050  177.1360  134.5950 C   0  0  0  0  0  2  0  0  0  0  0  0
  182.6970  177.6050  135.8830 C   0  0  2  0  0  3  0  0  0  0  0  0
  184.7040  176.8630  137.1040 C   0  0  2  0  0  3  0  0  0  0  0  0
  183.4950  177.9630  134.6980 N   0  0  0  0  0  2  0  0  0  0  0  0
  182.6590  173.7360  136.2470 C   0  0  0  0  0  0  0  0  0  0  0  0
  183.4850  172.7240  136.8060 C   0  0  0  0  0  0  0  0  0  0  0  0
  184.6580  173.0950  137.4730 C   0  0  0  0  0  3  0  0  0  0  0  0
  183.0400  175.0920  136.3500 C   0  0  0  0  0  0  0  0  0  0  0  0
  185.0310  174.4310  137.5830 C   0  0  0  0  0  3  0  0  0  0  0  0
  184.2310  175.4330  137.0330 C   0  0  0  0  0  0  0  0  0  0  0  0
  183.6390  177.5420  139.5540 C   0  0  1  0  0  3  0  0  0  0  0  0
  183.8650  180.0310  139.3180 O   0  0  0  0  0  0  0  0  0  0  0  0
  181.8160  178.8160  138.6800 C   0  0  2  0  0  3  0  0  0  0  0  0
  182.7180  177.6750  138.4060 N   0  0  1  0  0  0  0  0  0  0  0  0
  180.7130  178.8870  137.7330 N   0  0  0  0  0  1  0  0  0  0  0  0
  182.1450  181.1740  138.3000 O   0  0  0  0  0  0  0  0  0  0  0  0
  184.3330  178.8600  139.9940 C   0  0  2  0  0  3  0  0  0  0  0  0
  182.5950  180.0890  138.7540 C   0  0  0  0  0  0  0  0  0  0  0  0
  182.9680  176.9790  140.6400 O   0  0  0  0  0  1  0  0  0  0  0  0
  185.7270  178.7520  139.8480 O   0  0  0  0  0  0  0  0  0  0  0  0
  186.3320  178.9050  141.1170 C   0  0  2  0  0  3  0  0  0  0  0  0
  187.8210  178.5930  141.0740 C   0  0  0  0  0  1  0  0  0  0  0  0
  185.6810  178.1270  142.1220 O   0  0  0  0  0  0  0  0  0  0  0  0
  185.4080  178.6350  143.3930 C   0  0  0  0  0  0  0  0  0  0  0  0
  184.6800  179.6560  143.5360 O   0  0  0  0  0  0  0  0  0  0  0  0
  185.9750  177.9560  144.5620 C   0  0  0  0  0  3  0  0  0  0  0  0
  186.1760  178.5930  145.6710 N   0  0  0  0  0  2  0  0  0  0  0  0
  183.1830  171.2730  136.7120 C   0  0  0  0  0  0  0  0  0  0  0  0
  182.1140  170.7950  137.1750 O   0  0  0  0  0  1  0  0  0  0  0  0
  184.0780  170.4170  136.0760 O   0  0  0  0  0  0  0  0  0  0  0  0
  1 18  1  1  0  0  0
  2  9  1  0  0  0  0
  3 12  1  0  0  0  0
  5  8  1  0  0  0  0
  5  4  1  0  0  0  0
  6  3  1  6  0  0  0
  6  1  1  0  0  0  0
  7  4  1  6  0  0  0
  7  1  1  0  0  0  0
  8  6  1  0  0  0  0
  9 12  2  0  0  0  0
  9 10  1  0  0  0  0
 10 11  2  0  0  0  0
 11 13  1  0  0  0  0
 12 14  1  0  0  0  0
 14  7  1  0  0  0  0
 14 13  2  0  0  0  0
 15 21  1  0  0  0  0
 15 23  1  1  0  0  0
 16 21  1  0  0  0  0
 17 19  1  6  0  0  0
 17 22  1  0  0  0  0
 18 17  1  0  0  0  0
 18 15  1  0  0  0  0
 20 22  2  0  0  0  0
 22 16  1  0  0  0  0
 24 21  1  0  0  0  0
 24 25  1  0  0  0  0
 25 27  1  0  0  0  0
 26 25  1  0  0  0  0
 27 28  1  0  0  0  0
 28 29  2  0  0  0  0
 28 30  1  0  0  0  0
 30 31  2  0  0  0  0
 32 10  1  0  0  0  0
 32 33  1  0  0  0  0
 34 32  2  0  0  0  0
M  END
>  <MODEL>
4

>  <REMARK>
 VINA RESULT:      -4.9      2.919      5.777
  Name = 
  7 active torsions:
  status: ('A' for Active; 'I' for Inactive)
    1  A    between atoms: C_1  and  N_9
    2  A    between atoms: C_3  and  C_25
    3  A    between atoms: C_7  and  O_16
    4  A    between atoms: C_7  and  O_21
    5  A    between atoms: C_11  and  O_21
    6  A    between atoms: C_11  and  C_26
    7  A    between atoms: O_16  and  C_28
                            x       y       z     vdW  Elec       q    Type
                         _______ _______ _______ _____ _____    ______ ____

>  <TORSDO>
F 7

$$$$
=
 OpenBabel11052416033D

 34 37  0  0  1  0  0  0  0  0999 V2000
  183.4210  176.3140  137.4240 C   0  0  2  0  0  3  0  0  0  0  0  0
  179.5460  179.6750  136.6740 C   0  0  0  0  0  1  0  0  0  0  0  0
  181.0700  177.2440  137.0130 C   0  0  0  0  0  2  0  0  0  0  0  0
  183.1370  176.6790  139.8710 C   0  0  0  0  0  2  0  0  0  0  0  0
  181.6800  176.2150  139.7610 C   0  0  0  0  0  2  0  0  0  0  0  0
  181.9180  176.0020  137.3500 C   0  0  2  0  0  3  0  0  0  0  0  0
  183.6020  177.3290  138.5630 C   0  0  2  0  0  3  0  0  0  0  0  0
  181.4730  175.3480  138.5920 N   0  0  0  0  0  2  0  0  0  0  0  0
  180.8340  179.7320  137.4390 C   0  0  0  0  0  0  0  0  0  0  0  0
  181.3240  180.9580  137.9660 C   0  0  0  0  0  0  0  0  0  0  0  0
  182.5540  180.9670  138.6350 C   0  0  0  0  0  3  0  0  0  0  0  0
  181.5760  178.5430  137.6170 C   0  0  0  0  0  0  0  0  0  0  0  0
  183.2900  179.7980  138.8030 C   0  0  0  0  0  3  0  0  0  0  0  0
  182.8160  178.5880  138.2960 C   0  0  0  0  0  0  0  0  0  0  0  0
  185.3960  177.1810  136.3440 C   0  0  1  0  0  3  0  0  0  0  0  0
  185.7910  174.7030  136.2530 O   0  0  0  0  0  0  0  0  0  0  0  0
  183.9360  175.7980  135.0530 C   0  0  2  0  0  3  0  0  0  0  0  0
  183.9820  176.8030  136.1390 N   0  0  1  0  0  0  0  0  0  0  0  0
  182.5770  175.5370  134.6010 N   0  0  0  0  0  1  0  0  0  0  0  0
  184.2440  173.4080  135.1440 O   0  0  0  0  0  0  0  0  0  0  0  0
  186.3790  175.9870  136.4880 C   0  0  2  0  0  3  0  0  0  0  0  0
  184.6550  174.5550  135.4650 C   0  0  0  0  0  0  0  0  0  0  0  0
  185.8210  178.0170  135.3120 O   0  0  0  0  0  1  0  0  0  0  0  0
  186.9900  176.0040  137.7540 O   0  0  0  0  0  0  0  0  0  0  0  0
  188.3800  176.1980  137.5870 C   0  0  2  0  0  3  0  0  0  0  0  0
  189.0910  174.9030  137.2160 C   0  0  0  0  0  1  0  0  0  0  0  0
  188.9840  176.7940  138.7350 O   0  0  0  0  0  0  0  0  0  0  0  0
  188.6310  178.0680  139.1830 C   0  0  0  0  0  0  0  0  0  0  0  0
  188.5730  179.0400  138.3790 O   0  0  0  0  0  0  0  0  0  0  0  0
  188.3210  178.2580  140.6030 C   0  0  0  0  0  3  0  0  0  0  0  0
  188.6650  177.3750  141.4850 N   0  0  0  0  0  2  0  0  0  0  0  0
  180.5950  182.2470  137.8610 C   0  0  0  0  0  0  0  0  0  0  0  0
  180.8200  183.0510  136.9190 O   0  0  0  0  0  0  0  0  0  0  0  0
  179.6200  182.5720  138.8000 O   0  0  0  0  0  1  0  0  0  0  0  0
  1 18  1  6  0  0  0
  1  7  1  0  0  0  0
  2  9  1  0  0  0  0
  3 12  1  0  0  0  0
  5  4  1  0  0  0  0
  6  3  1  1  0  0  0
  6  1  1  0  0  0  0
  6  8  1  0  0  0  0
  7  4  1  1  0  0  0
  8  5  1  0  0  0  0
  9 12  2  0  0  0  0
  9 10  1  0  0  0  0
 10 11  2  0  0  0  0
 11 13  1  0  0  0  0
 12 14  1  0  0  0  0
 14  7  1  0  0  0  0
 14 13  2  0  0  0  0
 15 23  1  6  0  0  0
 15 21  1  0  0  0  0
 16 21  1  0  0  0  0
 17 19  1  1  0  0  0
 17 22  1  0  0  0  0
 17 18  1  0  0  0  0
 18 15  1  0  0  0  0
 20 22  2  0  0  0  0
 21 24  1  0  0  0  0
 22 16  1  0  0  0  0
 25 24  1  0  0  0  0
 25 27  1  0  0  0  0
 26 25  1  0  0  0  0
 27 28  1  0  0  0  0
 28 30  1  0  0  0  0
 29 28  2  0  0  0  0
 30 31  2  0  0  0  0
 32 10  1  0  0  0  0
 32 34  1  0  0  0  0
 33 32  2  0  0  0  0
M  END
>  <MODEL>
5

>  <REMARK>
 VINA RESULT:      -4.6      1.643      2.270
  Name = 
  7 active torsions:
  status: ('A' for Active; 'I' for Inactive)
    1  A    between atoms: C_1  and  N_9
    2  A    between atoms: C_3  and  C_25
    3  A    between atoms: C_7  and  O_16
    4  A    between atoms: C_7  and  O_21
    5  A    between atoms: C_11  and  O_21
    6  A    between atoms: C_11  and  C_26
    7  A    between atoms: O_16  and  C_28
                            x       y       z     vdW  Elec       q    Type
                         _______ _______ _______ _____ _____    ______ ____

>  <TORSDO>
F 7

$$$$
=
 OpenBabel11052416033D

 34 37  0  0  1  0  0  0  0  0999 V2000
  188.1020  176.5460  136.8190 C   0  0  2  0  0  3  0  0  0  0  0  0
  188.0150  178.0940  141.7650 C   0  0  0  0  0  1  0  0  0  0  0  0
  188.8960  177.3630  139.1130 C   0  0  0  0  0  2  0  0  0  0  0  0
  187.5500  178.8870  136.1760 C   0  0  0  0  0  2  0  0  0  0  0  0
  188.8180  179.3720  136.8900 C   0  0  0  0  0  2  0  0  0  0  0  0
  189.2740  177.1050  137.6410 C   0  0  2  0  0  3  0  0  0  0  0  0
  187.0030  177.6190  136.8390 C   0  0  2  0  0  3  0  0  0  0  0  0
  189.8240  178.3060  136.9910 N   0  0  0  0  0  2  0  0  0  0  0  0
  187.0450  178.2050  140.6280 C   0  0  0  0  0  0  0  0  0  0  0  0
  185.7060  178.6290  140.8400 C   0  0  0  0  0  0  0  0  0  0  0  0
  184.8260  178.6750  139.7520 C   0  0  0  0  0  3  0  0  0  0  0  0
  187.4760  177.8600  139.3270 C   0  0  0  0  0  0  0  0  0  0  0  0
  185.2460  178.3260  138.4720 C   0  0  0  0  0  3  0  0  0  0  0  0
  186.5610  177.9150  138.2500 C   0  0  0  0  0  0  0  0  0  0  0  0
  186.2330  175.0210  136.8300 C   0  0  1  0  0  3  0  0  0  0  0  0
  187.3570  174.4590  134.6570 O   0  0  0  0  0  0  0  0  0  0  0  0
  188.4330  174.0880  136.8440 C   0  0  2  0  0  3  0  0  0  0  0  0
  187.6160  175.2310  137.3090 N   0  0  1  0  0  0  0  0  0  0  0  0
  189.7520  174.0660  137.4610 N   0  0  0  0  0  1  0  0  0  0  0  0
  189.5410  173.7370  134.7310 O   0  0  0  0  0  0  0  0  0  0  0  0
  186.1070  174.6710  135.3230 C   0  0  2  0  0  3  0  0  0  0  0  0
  188.4950  174.0660  135.3510 C   0  0  0  0  0  0  0  0  0  0  0  0
  185.6090  174.0360  137.5960 O   0  0  0  0  0  1  0  0  0  0  0  0
  185.3720  175.6620  134.6490 O   0  0  0  0  0  0  0  0  0  0  0  0
  184.0780  175.7330  135.2130 C   0  0  2  0  0  3  0  0  0  0  0  0
  183.1640  174.6420  134.6720 C   0  0  0  0  0  1  0  0  0  0  0  0
  183.4840  177.0200  135.0430 O   0  0  0  0  0  0  0  0  0  0  0  0
  182.2310  177.3360  135.5690 C   0  0  0  0  0  0  0  0  0  0  0  0
  181.2590  177.5950  134.8060 O   0  0  0  0  0  0  0  0  0  0  0  0
  182.0590  177.3530  137.0240 C   0  0  0  0  0  3  0  0  0  0  0  0
  181.6890  176.2910  137.6650 N   0  0  0  0  0  2  0  0  0  0  0  0
  185.1760  179.0470  142.1630 C   0  0  0  0  0  0  0  0  0  0  0  0
  185.5390  180.1240  142.7030 O   0  0  0  0  0  0  0  0  0  0  0  0
  184.2360  178.2550  142.8170 O   0  0  0  0  0  1  0  0  0  0  0  0
  1  7  1  0  0  0  0
  1 18  1  1  0  0  0
  1  6  1  0  0  0  0
  3 12  1  0  0  0  0
  4  5  1  0  0  0  0
  5  8  1  0  0  0  0
  6  3  1  1  0  0  0
  7  4  1  1  0  0  0
  7 14  1  0  0  0  0
  8  6  1  0  0  0  0
  9 10  1  0  0  0  0
  9  2  1  0  0  0  0
 10 32  1  0  0  0  0
 11 10  2  0  0  0  0
 12  9  2  0  0  0  0
 13 11  1  0  0  0  0
 14 13  2  0  0  0  0
 14 12  1  0  0  0  0
 15 18  1  0  0  0  0
 15 23  1  1  0  0  0
 16 21  1  0  0  0  0
 16 22  1  0  0  0  0
 17 18  1  0  0  0  0
 17 19  1  1  0  0  0
 20 22  2  0  0  0  0
 21 15  1  0  0  0  0
 22 17  1  0  0  0  0
 24 25  1  0  0  0  0
 24 21  1  0  0  0  0
 26 25  1  0  0  0  0
 27 25  1  0  0  0  0
 27 28  1  0  0  0  0
 28 30  1  0  0  0  0
 29 28  2  0  0  0  0
 30 31  2  0  0  0  0
 32 33  2  0  0  0  0
 32 34  1  0  0  0  0
M  END
>  <MODEL>
6

>  <REMARK>
 VINA RESULT:      -4.5      3.009      6.349
  Name = 
  7 active torsions:
  status: ('A' for Active; 'I' for Inactive)
    1  A    between atoms: C_1  and  N_9
    2  A    between atoms: C_3  and  C_25
    3  A    between atoms: C_7  and  O_16
    4  A    between atoms: C_7  and  O_21
    5  A    between atoms: C_11  and  O_21
    6  A    between atoms: C_11  and  C_26
    7  A    between atoms: O_16  and  C_28
                            x       y       z     vdW  Elec       q    Type
                         _______ _______ _______ _____ _____    ______ ____

>  <TORSDO>
F 7

$$$$
=
 OpenBabel11052416033D

 34 37  0  0  1  0  0  0  0  0999 V2000
  188.0830  176.3890  136.7410 C   0  0  2  0  0  3  0  0  0  0  0  0
  188.1270  177.9960  141.6690 C   0  0  0  0  0  1  0  0  0  0  0  0
  188.9400  177.2120  139.0110 C   0  0  0  0  0  2  0  0  0  0  0  0
  187.5800  178.7360  136.0800 C   0  0  0  0  0  2  0  0  0  0  0  0
  188.8720  179.1960  136.7650 C   0  0  0  0  0  2  0  0  0  0  0  0
  189.2840  176.9270  137.5350 C   0  0  2  0  0  3  0  0  0  0  0  0
  187.0120  177.4900  136.7680 C   0  0  2  0  0  3  0  0  0  0  0  0
  189.8530  178.1060  136.8610 N   0  0  0  0  0  2  0  0  0  0  0  0
  187.1390  178.1190  140.5480 C   0  0  0  0  0  0  0  0  0  0  0  0
  185.8150  178.5790  140.7800 C   0  0  0  0  0  0  0  0  0  0  0  0
  184.9170  178.6350  139.7070 C   0  0  0  0  0  3  0  0  0  0  0  0
  187.5370  177.7470  139.2450 C   0  0  0  0  0  0  0  0  0  0  0  0
  185.3050  178.2610  138.4240 C   0  0  0  0  0  3  0  0  0  0  0  0
  186.6040  177.8130  138.1830 C   0  0  0  0  0  0  0  0  0  0  0  0
  186.1770  174.9120  136.8020 C   0  0  1  0  0  3  0  0  0  0  0  0
  187.2520  174.2940  134.6180 O   0  0  0  0  0  0  0  0  0  0  0  0
  188.3540  173.9240  136.7930 C   0  0  2  0  0  3  0  0  0  0  0  0
  187.5730  175.0930  137.2560 N   0  0  1  0  0  0  0  0  0  0  0  0
  189.6810  173.8760  137.3890 N   0  0  0  0  0  1  0  0  0  0  0  0
  189.4180  173.5190  134.6670 O   0  0  0  0  0  0  0  0  0  0  0  0
  186.0190  174.5450  135.3010 C   0  0  2  0  0  3  0  0  0  0  0  0
  188.3910  173.8820  135.3000 C   0  0  0  0  0  0  0  0  0  0  0  0
  185.5420  173.9520  137.5890 O   0  0  0  0  0  1  0  0  0  0  0  0
  185.2980  175.5460  134.6260 O   0  0  0  0  0  0  0  0  0  0  0  0
  183.9240  175.2160  134.6540 C   0  0  2  0  0  3  0  0  0  0  0  0
  183.1470  176.1050  135.6160 C   0  0  0  0  0  1  0  0  0  0  0  0
  183.7050  173.8370  134.9520 O   0  0  0  0  0  0  0  0  0  0  0  0
  182.4590  173.3510  135.3480 C   0  0  0  0  0  0  0  0  0  0  0  0
  181.4320  173.5640  134.6460 O   0  0  0  0  0  0  0  0  0  0  0  0
  182.3630  172.5800  136.5910 C   0  0  0  0  0  3  0  0  0  0  0  0
  183.1520  171.5800  136.8190 N   0  0  0  0  0  2  0  0  0  0  0  0
  185.3210  179.0260  142.1070 C   0  0  0  0  0  0  0  0  0  0  0  0
  185.6760  180.1280  142.6000 O   0  0  0  0  0  0  0  0  0  0  0  0
  184.4230  178.2330  142.8170 O   0  0  0  0  0  1  0  0  0  0  0  0
  1  7  1  0  0  0  0
  1 18  1  1  0  0  0
  1  6  1  0  0  0  0
  3 12  1  0  0  0  0
  4  5  1  0  0  0  0
  5  8  1  0  0  0  0
  6  3  1  1  0  0  0
  7  4  1  1  0  0  0
  7 14  1  0  0  0  0
  8  6  1  0  0  0  0
  9 10  1  0  0  0  0
  9  2  1  0  0  0  0
 10 32  1  0  0  0  0
 11 10  2  0  0  0  0
 12  9  2  0  0  0  0
 13 11  1  0  0  0  0
 14 13  2  0  0  0  0
 14 12  1  0  0  0  0
 15 18  1  0  0  0  0
 15 23  1  1  0  0  0
 16 22  1  0  0  0  0
 16 21  1  0  0  0  0
 17 18  1  0  0  0  0
 17 19  1  1  0  0  0
 20 22  2  0  0  0  0
 21 15  1  0  0  0  0
 22 17  1  0  0  0  0
 24 25  1  0  0  0  0
 24 21  1  0  0  0  0
 25 27  1  0  0  0  0
 25 26  1  0  0  0  0
 27 28  1  0  0  0  0
 28 30  1  0  0  0  0
 29 28  2  0  0  0  0
 30 31  2  0  0  0  0
 32 33  2  0  0  0  0
 32 34  1  0  0  0  0
M  END
>  <MODEL>
7

>  <REMARK>
 VINA RESULT:      -4.5      3.724      6.688
  Name = 
  7 active torsions:
  status: ('A' for Active; 'I' for Inactive)
    1  A    between atoms: C_1  and  N_9
    2  A    between atoms: C_3  and  C_25
    3  A    between atoms: C_7  and  O_16
    4  A    between atoms: C_7  and  O_21
    5  A    between atoms: C_11  and  O_21
    6  A    between atoms: C_11  and  C_26
    7  A    between atoms: O_16  and  C_28
                            x       y       z     vdW  Elec       q    Type
                         _______ _______ _______ _____ _____    ______ ____

>  <TORSDO>
F 7

$$$$
=
 OpenBabel11052416033D

 34 37  0  0  1  0  0  0  0  0999 V2000
  189.4020  177.0410  137.2200 C   0  0  2  0  0  3  0  0  0  0  0  0
  184.4500  175.5870  137.7090 C   0  0  0  0  0  1  0  0  0  0  0  0
  186.9360  177.0430  137.9160 C   0  0  0  0  0  2  0  0  0  0  0  0
  188.7850  178.0670  135.0360 C   0  0  0  0  0  2  0  0  0  0  0  0
  187.7550  178.9480  135.7520 C   0  0  0  0  0  2  0  0  0  0  0  0
  188.2550  177.8400  137.8580 C   0  0  2  0  0  3  0  0  0  0  0  0
  188.9730  176.7380  135.7760 C   0  0  2  0  0  3  0  0  0  0  0  0
  188.0910  179.1320  137.1710 N   0  0  0  0  0  2  0  0  0  0  0  0
  185.4810  175.4090  136.6350 C   0  0  0  0  0  0  0  0  0  0  0  0
  185.2660  174.5200  135.5480 C   0  0  0  0  0  0  0  0  0  0  0  0
  186.2770  174.3560  134.5940 C   0  0  0  0  0  3  0  0  0  0  0  0
  186.6930  176.1290  136.7280 C   0  0  0  0  0  0  0  0  0  0  0  0
  187.4760  175.0570  134.6880 C   0  0  0  0  0  3  0  0  0  0  0  0
  187.6950  175.9370  135.7470 C   0  0  0  0  0  0  0  0  0  0  0  0
  190.5800  174.9390  137.1160 C   0  0  1  0  0  3  0  0  0  0  0  0
  192.4150  176.5410  137.7240 O   0  0  0  0  0  0  0  0  0  0  0  0
  190.5090  176.0750  139.2180 C   0  0  2  0  0  3  0  0  0  0  0  0
  189.7500  175.8100  137.9750 N   0  0  1  0  0  0  0  0  0  0  0  0
  189.6920  176.7190  140.2360 N   0  0  0  0  0  1  0  0  0  0  0  0
  192.1940  177.7380  139.6780 O   0  0  0  0  0  0  0  0  0  0  0  0
  192.0460  175.4120  136.9240 C   0  0  2  0  0  3  0  0  0  0  0  0
  191.7570  176.8370  138.9130 C   0  0  0  0  0  0  0  0  0  0  0  0
  190.5690  173.6340  137.6100 O   0  0  0  0  0  1  0  0  0  0  0  0
  192.2980  175.6890  135.5690 O   0  0  0  0  0  0  0  0  0  0  0  0
  193.3590  174.8680  135.1250 C   0  0  2  0  0  3  0  0  0  0  0  0
  192.9370  173.4100  135.0100 C   0  0  0  0  0  1  0  0  0  0  0  0
  194.5200  174.9950  135.9460 O   0  0  0  0  0  0  0  0  0  0  0  0
  195.4930  175.9690  135.7130 C   0  0  0  0  0  0  0  0  0  0  0  0
  195.1680  177.1780  135.5530 O   0  0  0  0  0  0  0  0  0  0  0  0
  196.9010  175.5640  135.6640 C   0  0  0  0  0  3  0  0  0  0  0  0
  197.6510  175.6280  136.7160 N   0  0  0  0  0  2  0  0  0  0  0  0
  184.0100  173.7530  135.3500 C   0  0  0  0  0  0  0  0  0  0  0  0
  183.0520  174.2270  134.6860 O   0  0  0  0  0  0  0  0  0  0  0  0
  183.8880  172.4710  135.8790 O   0  0  0  0  0  1  0  0  0  0  0  0
  1  6  1  0  0  0  0
  1 18  1  1  0  0  0
  4  5  1  0  0  0  0
  5  8  1  0  0  0  0
  6  3  1  6  0  0  0
  7  4  1  6  0  0  0
  7  1  1  0  0  0  0
  8  6  1  0  0  0  0
  9 12  1  0  0  0  0
  9  2  1  0  0  0  0
 10  9  2  0  0  0  0
 11 13  2  0  0  0  0
 11 10  1  0  0  0  0
 12  3  1  0  0  0  0
 13 14  1  0  0  0  0
 14  7  1  0  0  0  0
 14 12  2  0  0  0  0
 15 23  1  1  0  0  0
 15 18  1  0  0  0  0
 16 22  1  0  0  0  0
 17 19  1  1  0  0  0
 18 17  1  0  0  0  0
 21 15  1  0  0  0  0
 21 16  1  0  0  0  0
 22 17  1  0  0  0  0
 22 20  2  0  0  0  0
 24 21  1  0  0  0  0
 25 24  1  0  0  0  0
 25 27  1  0  0  0  0
 26 25  1  0  0  0  0
 28 27  1  0  0  0  0
 29 28  2  0  0  0  0
 30 28  1  0  0  0  0
 30 31  2  0  0  0  0
 32 10  1  0  0  0  0
 32 34  1  0  0  0  0
 33 32  2  0  0  0  0
M  END
>  <MODEL>
8

>  <REMARK>
 VINA RESULT:      -4.2      4.700      7.655
  Name = 
  7 active torsions:
  status: ('A' for Active; 'I' for Inactive)
    1  A    between atoms: C_1  and  N_9
    2  A    between atoms: C_3  and  C_25
    3  A    between atoms: C_7  and  O_16
    4  A    between atoms: C_7  and  O_21
    5  A    between atoms: C_11  and  O_21
    6  A    between atoms: C_11  and  C_26
    7  A    between atoms: O_16  and  C_28
                            x       y       z     vdW  Elec       q    Type
                         _______ _______ _______ _____ _____    ______ ____

>  <TORSDO>
F 7

$$$$
=
 OpenBabel11052416033D

 34 37  0  0  1  0  0  0  0  0999 V2000
  187.9310  176.3270  136.8570 C   0  0  2  0  0  3  0  0  0  0  0  0
  190.9160  176.9790  141.0440 C   0  0  0  0  0  1  0  0  0  0  0  0
  190.0080  176.6350  138.3240 C   0  0  0  0  0  2  0  0  0  0  0  0
  187.5750  178.7910  136.8450 C   0  0  0  0  0  2  0  0  0  0  0  0
  189.0890  179.0000  136.7280 C   0  0  0  0  0  2  0  0  0  0  0  0
  189.4430  176.5990  136.8900 C   0  0  2  0  0  3  0  0  0  0  0  0
  187.2600  177.4940  137.5970 C   0  0  2  0  0  3  0  0  0  0  0  0
  189.7540  177.8280  136.1410 N   0  0  0  0  0  2  0  0  0  0  0  0
  189.5200  177.3950  140.6930 C   0  0  0  0  0  0  0  0  0  0  0  0
  188.6380  177.9200  141.6750 C   0  0  0  0  0  0  0  0  0  0  0  0
  187.3290  178.2540  141.3060 C   0  0  0  0  0  3  0  0  0  0  0  0
  189.0770  177.2390  139.3610 C   0  0  0  0  0  0  0  0  0  0  0  0
  186.8880  178.0920  139.9970 C   0  0  0  0  0  3  0  0  0  0  0  0
  187.7470  177.5830  139.0220 C   0  0  0  0  0  0  0  0  0  0  0  0
  186.1240  174.7610  137.1790 C   0  0  1  0  0  3  0  0  0  0  0  0
  186.9040  174.1950  134.8600 O   0  0  0  0  0  0  0  0  0  0  0  0
  188.3210  173.8770  136.8530 C   0  0  2  0  0  3  0  0  0  0  0  0
  187.5600  175.0080  137.4310 N   0  0  1  0  0  0  0  0  0  0  0  0
  189.7210  173.8930  137.2530 N   0  0  0  0  0  1  0  0  0  0  0  0
  189.0890  173.5230  134.5940 O   0  0  0  0  0  0  0  0  0  0  0  0
  185.7710  174.3880  135.7140 C   0  0  2  0  0  3  0  0  0  0  0  0
  188.1470  173.8370  135.3690 C   0  0  0  0  0  0  0  0  0  0  0  0
  185.6530  173.7720  138.0430 O   0  0  0  0  0  1  0  0  0  0  0  0
  184.9140  175.3530  135.1560 O   0  0  0  0  0  0  0  0  0  0  0  0
  183.7870  175.5030  135.9950 C   0  0  2  0  0  3  0  0  0  0  0  0
  182.6560  174.5650  135.5960 C   0  0  0  0  0  1  0  0  0  0  0  0
  183.3270  176.8540  136.0470 O   0  0  0  0  0  0  0  0  0  0  0  0
  182.8250  177.4230  137.2180 C   0  0  0  0  0  0  0  0  0  0  0  0
  182.1000  178.4550  137.1730 O   0  0  0  0  0  0  0  0  0  0  0  0
  183.1460  176.7960  138.5030 C   0  0  0  0  0  3  0  0  0  0  0  0
  183.4450  177.5120  139.5390 N   0  0  0  0  0  2  0  0  0  0  0  0
  189.0280  178.1540  143.0890 C   0  0  0  0  0  0  0  0  0  0  0  0
  188.2790  177.8130  144.0400 O   0  0  0  0  0  1  0  0  0  0  0  0
  190.2590  178.7360  143.3820 O   0  0  0  0  0  0  0  0  0  0  0  0
  1  6  1  0  0  0  0
  1 18  1  1  0  0  0
  1  7  1  0  0  0  0
  3 12  1  0  0  0  0
  5  4  1  0  0  0  0
  6  3  1  1  0  0  0
  7  4  1  6  0  0  0
  7 14  1  0  0  0  0
  8  5  1  0  0  0  0
  8  6  1  0  0  0  0
  9  2  1  0  0  0  0
  9 10  1  0  0  0  0
 10 32  1  0  0  0  0
 11 10  2  0  0  0  0
 12  9  2  0  0  0  0
 13 11  1  0  0  0  0
 14 12  1  0  0  0  0
 14 13  2  0  0  0  0
 15 18  1  0  0  0  0
 15 23  1  1  0  0  0
 16 22  1  0  0  0  0
 16 21  1  0  0  0  0
 17 19  1  6  0  0  0
 17 18  1  0  0  0  0
 20 22  2  0  0  0  0
 21 15  1  0  0  0  0
 22 17  1  0  0  0  0
 24 21  1  0  0  0  0
 24 25  1  0  0  0  0
 25 27  1  0  0  0  0
 26 25  1  0  0  0  0
 27 28  1  0  0  0  0
 28 30  1  0  0  0  0
 29 28  2  0  0  0  0
 30 31  2  0  0  0  0
 32 34  2  0  0  0  0
 32 33  1  0  0  0  0
M  END
>  <MODEL>
9

>  <REMARK>
 VINA RESULT:      -4.1      2.774      7.035
  Name = 
  7 active torsions:
  status: ('A' for Active; 'I' for Inactive)
    1  A    between atoms: C_1  and  N_9
    2  A    between atoms: C_3  and  C_25
    3  A    between atoms: C_7  and  O_16
    4  A    between atoms: C_7  and  O_21
    5  A    between atoms: C_11  and  O_21
    6  A    between atoms: C_11  and  C_26
    7  A    between atoms: O_16  and  C_28
                            x       y       z     vdW  Elec       q    Type
                         _______ _______ _______ _____ _____    ______ ____

>  <TORSDO>
F 7

$$$$
