=
 OpenBabel11052415043D

 55 61  0  0  1  0  0  0  0  0999 V2000
  186.2720  178.3140  141.7770 C   0  0  0  0  0  0  0  0  0  0  0  0
  183.8680  178.7310  138.4610 C   0  0  0  0  0  2  0  0  0  0  0  0
  186.1840  178.3860  136.5710 O   0  0  0  0  0  1  0  0  0  0  0  0
  189.2940  177.3800  136.7150 C   0  0  0  0  0  3  0  0  0  0  0  0
  190.2060  176.8010  135.9370 C   0  0  0  0  0  3  0  0  0  0  0  0
  190.2280  176.1900  138.7110 C   0  0  2  0  0  3  0  0  0  0  0  0
  191.5180  176.0990  137.8970 C   0  0  0  0  0  2  0  0  0  0  0  0
  187.5650  178.7690  138.3470 O   0  0  0  0  0  0  0  0  0  0  0  0
  191.2280  176.0350  136.5030 O   0  0  0  0  0  0  0  0  0  0  0  0
  185.0230  179.2640  143.6700 C   0  0  0  0  0  3  0  0  0  0  0  0
  189.3220  177.2010  138.1410 N   0  0  0  0  0  0  0  0  0  0  0  0
  182.6160  178.4880  142.4700 C   0  0  0  0  0  0  0  0  0  0  0  0
  187.2910  178.1260  141.1620 C   0  0  0  0  0  0  0  0  0  0  0  0
  183.8360  178.1700  141.8680 C   0  0  0  0  0  3  0  0  0  0  0  0
  189.3450  176.7670  140.9790 C   0  0  2  0  0  3  0  0  0  0  0  0
  182.8950  179.5820  139.2560 C   0  0  0  0  0  2  0  0  0  0  0  0
  190.5970  176.5450  140.1430 C   0  0  0  0  0  2  0  0  0  0  0  0
  185.2570  179.3320  138.5540 C   0  0  0  0  0  2  0  0  0  0  0  0
  186.2790  178.3750  137.9640 C   0  0  1  0  0  3  0  0  0  0  0  0
  183.8040  179.5740  144.2820 C   0  0  0  0  0  3  0  0  0  0  0  0
  181.5720  178.8490  139.4000 C   0  0  1  0  0  3  0  0  0  0  0  0
  185.0370  178.5620  142.4610 C   0  0  0  0  0  0  0  0  0  0  0  0
  188.1480  177.6260  138.9190 C   0  0  1  0  0  3  0  0  0  0  0  0
  188.5210  177.9140  140.3820 C   0  0  1  0  0  3  0  0  0  0  0  0
  180.9390  179.1640  140.7540 C   0  0  0  0  0  2  0  0  0  0  0  0
  181.3340  178.1240  141.7990 C   0  0  0  0  0  2  0  0  0  0  0  0
  182.6000  179.1930  143.6790 C   0  0  0  0  0  3  0  0  0  0  0  0
  188.9900  176.6100  143.3950 C   0  0  0  0  0  3  0  0  0  0  0  0
  190.8640  177.0640  144.9800 C   0  0  2  0  0  3  0  0  0  0  0  0
  190.9550  177.7290  142.6530 O   0  0  0  0  0  0  0  0  0  0  0  0
  191.3420  178.1090  143.9750 C   0  0  0  0  0  2  0  0  0  0  0  0
  189.3530  176.9030  144.8220 C   0  0  0  0  0  2  0  0  0  0  0  0
  189.7520  177.0540  142.3910 C   0  0  0  0  0  0  0  0  0  0  0  0
  191.1900  177.5130  146.3930 C   0  0  0  0  0  3  0  0  0  0  0  0
  191.7370  176.3410  147.1840 C   0  0  0  0  0  2  0  0  0  0  0  0
  190.3000  176.7750  147.3730 C   0  0  0  0  0  2  0  0  0  0  0  0
  179.5700  180.0000  138.6370 O   0  0  0  0  0  1  0  0  0  0  0  0
  180.6480  179.2080  138.2300 C   0  0  2  0  0  3  0  0  0  0  0  0
  180.1830  177.9810  137.4420 C   0  0  0  0  0  2  0  0  0  0  0  0
  180.6600  176.6600  138.0490 C   0  0  1  0  0  3  0  0  0  0  0  0
  179.6790  176.1450  138.9010 O   0  0  0  0  0  1  0  0  0  0  0  0
  183.5470  176.5210  134.7350 N   0  0  0  0  0  0  0  0  0  0  0  0
  182.0470  172.4920  136.2910 O   0  0  0  0  0  1  0  0  0  0  0  0
  181.0850  175.6430  136.9630 C   0  0  1  0  0  0  0  0  0  0  0  0
  183.1270  175.1650  138.2450 O   0  0  0  0  0  1  0  0  0  0  0  0
  182.1160  174.5910  137.4640 C   0  0  2  0  0  3  0  0  0  0  0  0
  182.7530  176.8780  135.8870 C   0  0  0  0  0  2  0  0  0  0  0  0
  184.1880  173.5960  136.1920 C   0  0  1  0  0  3  0  0  0  0  0  0
  184.5060  175.6580  134.7750 C   0  0  0  0  0  3  0  0  0  0  0  0
  182.6600  173.7460  136.2960 C   0  0  1  0  0  3  0  0  0  0  0  0
  179.9440  174.9250  136.6470 F   0  0  0  0  0  0  0  0  0  0  0  0
  184.9110  174.9380  136.0310 C   0  0  0  0  0  2  0  0  0  0  0  0
  181.4760  176.3030  135.7670 O   0  0  0  0  0  0  0  0  0  0  0  0
  184.7050  172.8750  137.3300 N   0  0  0  0  0  0  0  0  0  0  0  0
  185.9560  172.8980  137.6100 C   0  0  0  0  0  2  0  0  0  0  0  0
  1 22  1  0  0  0  0
  2 18  1  0  0  0  0
  2 16  1  0  0  0  0
  4 11  1  0  0  0  0
  5  9  1  0  0  0  0
  5  4  2  0  0  0  0
  6  7  1  6  0  0  0
  6 17  1  0  0  0  0
  9  7  1  0  0  0  0
 10 20  1  0  0  0  0
 11  6  1  0  0  0  0
 11 23  1  0  0  0  0
 12 27  1  0  0  0  0
 13  1  3  0  0  0  0
 14 22  1  0  0  0  0
 14 12  2  0  0  0  0
 15 33  1  1  0  0  0
 16 21  1  0  0  0  0
 17 15  1  0  0  0  0
 19  3  1  6  0  0  0
 19  8  1  0  0  0  0
 19 18  1  0  0  0  0
 21 38  1  6  0  0  0
 21 25  1  0  0  0  0
 22 10  2  0  0  0  0
 23  8  1  6  0  0  0
 23 24  1  0  0  0  0
 24 15  1  0  0  0  0
 24 13  1  1  0  0  0
 25 26  1  0  0  0  0
 26 12  1  0  0  0  0
 27 20  2  0  0  0  0
 28 32  1  0  0  0  0
 29 34  1  1  0  0  0
 30 31  1  0  0  0  0
 31 29  1  0  0  0  0
 32 29  1  0  0  0  0
 33 30  1  0  0  0  0
 33 28  2  0  0  0  0
 34 35  1  0  0  0  0
 34 36  1  0  0  0  0
 35 36  1  0  0  0  0
 38 37  1  1  0  0  0
 39 40  1  0  0  0  0
 39 38  1  0  0  0  0
 40 41  1  6  0  0  0
 42 49  2  0  0  0  0
 42 47  1  0  0  0  0
 44 51  1  6  0  0  0
 44 46  1  0  0  0  0
 44 40  1  0  0  0  0
 46 45  1  6  0  0  0
 48 50  1  0  0  0  0
 48 54  1  1  0  0  0
 49 52  1  0  0  0  0
 50 43  1  1  0  0  0
 50 46  1  0  0  0  0
 52 48  1  0  0  0  0
 53 47  1  0  0  0  0
 53 44  1  0  0  0  0
 54 55  2  0  0  0  0
M  END
>  <MODEL>
1

>  <REMARK>
 VINA RESULT:     -10.0      0.000      0.000
  Name = 
  7 active torsions:
  status: ('A' for Active; 'I' for Inactive)
    1  A    between atoms: C_6  and  C_20
    2  A    between atoms: C_8  and  C_22
    3  A    between atoms: C_8  and  C_43
    4  A    between atoms: C_10  and  C_32
    5  A    between atoms: N_11  and  C_29
    6  A    between atoms: C_20  and  C_22
    7  A    between atoms: C_33  and  C_52
                            x       y       z     vdW  Elec       q    Type
                         _______ _______ _______ _____ _____    ______ ____

>  <TORSDO>
F 7

$$$$
=
 OpenBabel11052415043D

 55 61  0  0  1  0  0  0  0  0999 V2000
  185.4480  178.3070  141.9900 C   0  0  0  0  0  0  0  0  0  0  0  0
  183.8230  178.3940  138.2080 C   0  0  0  0  0  2  0  0  0  0  0  0
  186.5250  178.2230  136.8960 O   0  0  0  0  0  1  0  0  0  0  0  0
  189.6000  177.5290  137.7730 C   0  0  0  0  0  3  0  0  0  0  0  0
  190.7120  177.0210  137.2460 C   0  0  0  0  0  3  0  0  0  0  0  0
  190.1640  176.4930  139.9830 C   0  0  2  0  0  3  0  0  0  0  0  0
  191.6070  176.5060  139.4800 C   0  0  0  0  0  2  0  0  0  0  0  0
  187.4330  178.7880  138.9120 O   0  0  0  0  0  0  0  0  0  0  0  0
  191.6450  176.3740  138.0610 O   0  0  0  0  0  0  0  0  0  0  0  0
  183.7260  179.1840  143.5110 C   0  0  0  0  0  3  0  0  0  0  0  0
  189.3230  177.3950  139.1770 N   0  0  0  0  0  0  0  0  0  0  0  0
  181.7290  178.1430  141.8480 C   0  0  0  0  0  0  0  0  0  0  0  0
  186.5920  178.2020  141.6260 C   0  0  0  0  0  0  0  0  0  0  0  0
  183.0760  177.9290  141.5480 C   0  0  0  0  0  3  0  0  0  0  0  0
  188.7470  177.0450  141.9680 C   0  0  2  0  0  3  0  0  0  0  0  0
  182.6250  179.1680  138.7250 C   0  0  0  0  0  2  0  0  0  0  0  0
  190.1690  176.9220  141.4420 C   0  0  0  0  0  2  0  0  0  0  0  0
  185.0970  179.1290  138.5770 C   0  0  0  0  0  2  0  0  0  0  0  0
  186.3060  178.2600  138.2740 C   0  0  1  0  0  3  0  0  0  0  0  0
  182.3780  179.3910  143.8230 C   0  0  0  0  0  3  0  0  0  0  0  0
  181.3730  178.3140  138.6090 C   0  0  1  0  0  3  0  0  0  0  0  0
  184.0740  178.4520  142.3710 C   0  0  0  0  0  0  0  0  0  0  0  0
  187.9710  177.7250  139.6550 C   0  0  1  0  0  3  0  0  0  0  0  0
  187.9790  178.0900  141.1480 C   0  0  1  0  0  3  0  0  0  0  0  0
  180.4280  178.6030  139.7730 C   0  0  0  0  0  2  0  0  0  0  0  0
  180.6680  177.6370  140.9290 C   0  0  0  0  0  2  0  0  0  0  0  0
  181.3800  178.8770  142.9870 C   0  0  0  0  0  3  0  0  0  0  0  0
  187.7390  177.1620  144.1960 C   0  0  0  0  0  3  0  0  0  0  0  0
  189.1670  177.5240  146.2100 C   0  0  2  0  0  3  0  0  0  0  0  0
  189.9730  177.9510  143.9670 O   0  0  0  0  0  0  0  0  0  0  0  0
  190.0440  178.4020  145.3210 C   0  0  0  0  0  2  0  0  0  0  0  0
  187.7460  177.5400  145.6480 C   0  0  0  0  0  2  0  0  0  0  0  0
  188.7990  177.4100  143.4190 C   0  0  0  0  0  0  0  0  0  0  0  0
  189.1660  178.0590  147.6310 C   0  0  0  0  0  3  0  0  0  0  0  0
  188.3060  177.1700  148.5070 C   0  0  0  0  0  2  0  0  0  0  0  0
  187.7610  178.4900  148.0050 C   0  0  0  0  0  2  0  0  0  0  0  0
  179.8800  179.6750  137.2560 O   0  0  0  0  0  1  0  0  0  0  0  0
  180.7080  178.5480  137.2470 C   0  0  2  0  0  3  0  0  0  0  0  0
  179.9740  177.3110  136.7250 C   0  0  0  0  0  2  0  0  0  0  0  0
  180.8750  176.3710  135.9220 C   0  0  1  0  0  3  0  0  0  0  0  0
  181.9830  177.0710  135.4350 O   0  0  0  0  0  1  0  0  0  0  0  0
  178.9310  172.7020  137.3710 N   0  0  0  0  0  0  0  0  0  0  0  0
  183.4950  172.6150  137.1170 O   0  0  0  0  0  1  0  0  0  0  0  0
  181.2850  175.1220  136.7380 C   0  0  1  0  0  0  0  0  0  0  0  0
  181.3330  173.8080  134.6620 O   0  0  0  0  0  1  0  0  0  0  0  0
  181.9770  174.0190  135.8860 C   0  0  2  0  0  3  0  0  0  0  0  0
  179.2580  173.9570  136.7370 C   0  0  0  0  0  2  0  0  0  0  0  0
  181.7010  171.4130  136.0470 C   0  0  1  0  0  3  0  0  0  0  0  0
  179.3460  171.5600  136.9370 C   0  0  0  0  0  3  0  0  0  0  0  0
  182.1670  172.7250  136.7000 C   0  0  1  0  0  3  0  0  0  0  0  0
  182.2450  175.5540  137.6390 F   0  0  0  0  0  0  0  0  0  0  0  0
  180.2040  171.4090  135.7130 C   0  0  0  0  0  2  0  0  0  0  0  0
  180.2010  174.6430  137.5230 O   0  0  0  0  0  0  0  0  0  0  0  0
  182.4840  171.1250  134.8700 N   0  0  0  0  0  0  0  0  0  0  0  0
  183.1100  170.0130  134.7520 C   0  0  0  0  0  2  0  0  0  0  0  0
  1 22  1  0  0  0  0
  2 18  1  0  0  0  0
  2 16  1  0  0  0  0
  4 11  1  0  0  0  0
  5  4  2  0  0  0  0
  5  9  1  0  0  0  0
  6  7  1  6  0  0  0
  6 17  1  0  0  0  0
  9  7  1  0  0  0  0
 10 20  1  0  0  0  0
 11 23  1  0  0  0  0
 11  6  1  0  0  0  0
 12 27  1  0  0  0  0
 13  1  3  0  0  0  0
 14 12  2  0  0  0  0
 14 22  1  0  0  0  0
 15 33  1  1  0  0  0
 17 15  1  0  0  0  0
 19  3  1  6  0  0  0
 19 18  1  0  0  0  0
 19  8  1  0  0  0  0
 21 38  1  6  0  0  0
 21 16  1  0  0  0  0
 21 25  1  0  0  0  0
 22 10  2  0  0  0  0
 23  8  1  6  0  0  0
 23 24  1  0  0  0  0
 24 13  1  1  0  0  0
 24 15  1  0  0  0  0
 25 26  1  0  0  0  0
 26 12  1  0  0  0  0
 27 20  2  0  0  0  0
 28 32  1  0  0  0  0
 29 34  1  1  0  0  0
 30 31  1  0  0  0  0
 31 29  1  0  0  0  0
 32 29  1  0  0  0  0
 33 30  1  0  0  0  0
 33 28  2  0  0  0  0
 34 36  1  0  0  0  0
 34 35  1  0  0  0  0
 36 35  1  0  0  0  0
 38 37  1  1  0  0  0
 39 38  1  0  0  0  0
 40 41  1  1  0  0  0
 40 39  1  0  0  0  0
 40 44  1  0  0  0  0
 44 53  1  0  0  0  0
 44 51  1  1  0  0  0
 46 45  1  6  0  0  0
 46 50  1  0  0  0  0
 46 44  1  0  0  0  0
 47 42  1  0  0  0  0
 47 53  1  0  0  0  0
 48 54  1  6  0  0  0
 48 50  1  0  0  0  0
 49 42  2  0  0  0  0
 50 43  1  6  0  0  0
 52 48  1  0  0  0  0
 52 49  1  0  0  0  0
 55 54  2  0  0  0  0
M  END
>  <MODEL>
2

>  <REMARK>
 VINA RESULT:      -9.3      1.841      2.504
  Name = 
  7 active torsions:
  status: ('A' for Active; 'I' for Inactive)
    1  A    between atoms: C_6  and  C_20
    2  A    between atoms: C_8  and  C_22
    3  A    between atoms: C_8  and  C_43
    4  A    between atoms: C_10  and  C_32
    5  A    between atoms: N_11  and  C_29
    6  A    between atoms: C_20  and  C_22
    7  A    between atoms: C_33  and  C_52
                            x       y       z     vdW  Elec       q    Type
                         _______ _______ _______ _____ _____    ______ ____

>  <TORSDO>
F 7

$$$$
=
 OpenBabel11052415043D

 55 61  0  0  1  0  0  0  0  0999 V2000
  185.8540  178.0940  138.1670 C   0  0  0  0  0  0  0  0  0  0  0  0
  189.4910  177.3150  139.9320 C   0  0  0  0  0  2  0  0  0  0  0  0
  188.5390  178.2590  142.6260 O   0  0  0  0  0  1  0  0  0  0  0  0
  185.6930  178.9860  144.0670 C   0  0  0  0  0  3  0  0  0  0  0  0
  185.1430  178.9790  145.2790 C   0  0  0  0  0  3  0  0  0  0  0  0
  183.4820  178.3860  143.0510 C   0  0  2  0  0  3  0  0  0  0  0  0
  182.8780  178.9920  144.3160 C   0  0  0  0  0  2  0  0  0  0  0  0
  186.7830  179.2450  141.5520 O   0  0  0  0  0  0  0  0  0  0  0  0
  183.7610  178.8290  145.4230 O   0  0  0  0  0  0  0  0  0  0  0  0
  186.2640  178.2150  135.7450 C   0  0  0  0  0  3  0  0  0  0  0  0
  184.8860  178.8050  142.8910 N   0  0  0  0  0  0  0  0  0  0  0  0
  188.3360  176.3500  136.0040 C   0  0  0  0  0  0  0  0  0  0  0  0
  185.3120  178.4720  139.1740 C   0  0  0  0  0  0  0  0  0  0  0  0
  187.5790  176.7190  137.1180 C   0  0  0  0  0  3  0  0  0  0  0  0
  183.2700  178.3630  140.5590 C   0  0  2  0  0  3  0  0  0  0  0  0
  190.1960  177.5240  138.6050 C   0  0  0  0  0  2  0  0  0  0  0  0
  182.6470  178.8380  141.8640 C   0  0  0  0  0  2  0  0  0  0  0  0
  188.6590  178.5400  140.2610 C   0  0  0  0  0  2  0  0  0  0  0  0
  187.7710  178.2580  141.4600 C   0  0  1  0  0  3  0  0  0  0  0  0
  187.0110  177.8390  134.6240 C   0  0  0  0  0  3  0  0  0  0  0  0
  190.8030  176.2130  138.1350 C   0  0  1  0  0  3  0  0  0  0  0  0
  186.5500  177.6540  136.9940 C   0  0  0  0  0  0  0  0  0  0  0  0
  185.5660  178.5470  141.6120 C   0  0  1  0  0  3  0  0  0  0  0  0
  184.6830  178.9430  140.4180 C   0  0  1  0  0  3  0  0  0  0  0  0
  190.7420  176.1200  136.6110 C   0  0  0  0  0  2  0  0  0  0  0  0
  189.4760  175.3990  136.1560 C   0  0  0  0  0  2  0  0  0  0  0  0
  188.0520  176.9120  134.7540 C   0  0  0  0  0  3  0  0  0  0  0  0
  182.1380  180.0760  139.2270 C   0  0  0  0  0  3  0  0  0  0  0  0
  181.2650  179.5350  136.9520 C   0  0  2  0  0  3  0  0  0  0  0  0
  181.8760  177.8120  138.5400 O   0  0  0  0  0  0  0  0  0  0  0  0
  180.9550  178.1440  137.5000 C   0  0  0  0  0  2  0  0  0  0  0  0
  181.2350  180.5250  138.1160 C   0  0  0  0  0  2  0  0  0  0  0  0
  182.3860  178.7770  139.4240 C   0  0  0  0  0  0  0  0  0  0  0  0
  180.2300  179.9280  135.9130 C   0  0  0  0  0  3  0  0  0  0  0  0
  180.9290  180.4610  134.6780 C   0  0  0  0  0  2  0  0  0  0  0  0
  180.3060  181.4220  135.6670 C   0  0  0  0  0  2  0  0  0  0  0  0
  192.6130  177.1900  139.4310 O   0  0  0  0  0  1  0  0  0  0  0  0
  192.2350  176.0810  138.6680 C   0  0  2  0  0  3  0  0  0  0  0  0
  193.2530  175.7770  137.5670 C   0  0  0  0  0  2  0  0  0  0  0  0
  193.7710  174.3390  137.6060 C   0  0  1  0  0  3  0  0  0  0  0  0
  192.7080  173.4440  137.4510 O   0  0  0  0  0  1  0  0  0  0  0  0
  198.0650  175.2230  137.2620 N   0  0  0  0  0  0  0  0  0  0  0  0
  196.4630  171.8750  134.5940 O   0  0  0  0  0  1  0  0  0  0  0  0
  194.8950  174.0980  136.5700 C   0  0  1  0  0  0  0  0  0  0  0  0
  195.7790  172.2920  137.9820 O   0  0  0  0  0  1  0  0  0  0  0  0
  195.5340  172.6830  136.6610 C   0  0  2  0  0  3  0  0  0  0  0  0
  196.6970  175.0690  137.6980 C   0  0  0  0  0  2  0  0  0  0  0  0
  198.0580  172.0080  136.3950 C   0  0  1  0  0  3  0  0  0  0  0  0
  198.9030  174.2440  137.2000 C   0  0  0  0  0  3  0  0  0  0  0  0
  196.7790  172.5760  135.7580 C   0  0  1  0  0  3  0  0  0  0  0  0
  194.2840  174.1520  135.3270 F   0  0  0  0  0  0  0  0  0  0  0  0
  198.5520  172.8350  137.5880 C   0  0  0  0  0  2  0  0  0  0  0  0
  195.8430  175.1570  136.5850 O   0  0  0  0  0  0  0  0  0  0  0  0
  197.8660  170.6300  136.7780 N   0  0  0  0  0  0  0  0  0  0  0  0
  198.8620  169.8950  137.1120 C   0  0  0  0  0  2  0  0  0  0  0  0
  1 13  3  0  0  0  0
  2 18  1  0  0  0  0
  4  5  2  0  0  0  0
  5  9  1  0  0  0  0
  6 17  1  6  0  0  0
  6  7  1  0  0  0  0
  7  9  1  0  0  0  0
 10 22  1  0  0  0  0
 11  6  1  0  0  0  0
 11  4  1  0  0  0  0
 12 26  1  0  0  0  0
 12 14  1  0  0  0  0
 15 33  1  6  0  0  0
 15 17  1  0  0  0  0
 16  2  1  0  0  0  0
 18 19  1  0  0  0  0
 19  8  1  0  0  0  0
 19  3  1  1  0  0  0
 20 27  1  0  0  0  0
 20 10  2  0  0  0  0
 21 16  1  0  0  0  0
 21 38  1  6  0  0  0
 22 14  2  0  0  0  0
 22  1  1  0  0  0  0
 23  8  1  1  0  0  0
 23 11  1  0  0  0  0
 24 13  1  6  0  0  0
 24 15  1  0  0  0  0
 24 23  1  0  0  0  0
 25 21  1  0  0  0  0
 26 25  1  0  0  0  0
 27 12  2  0  0  0  0
 28 33  2  0  0  0  0
 29 34  1  6  0  0  0
 29 31  1  0  0  0  0
 29 32  1  0  0  0  0
 30 33  1  0  0  0  0
 31 30  1  0  0  0  0
 32 28  1  0  0  0  0
 35 36  1  0  0  0  0
 35 34  1  0  0  0  0
 36 34  1  0  0  0  0
 38 37  1  6  0  0  0
 39 40  1  0  0  0  0
 39 38  1  0  0  0  0
 40 41  1  6  0  0  0
 42 47  1  0  0  0  0
 44 51  1  6  0  0  0
 44 53  1  0  0  0  0
 44 46  1  0  0  0  0
 44 40  1  0  0  0  0
 46 45  1  1  0  0  0
 48 54  1  1  0  0  0
 48 52  1  0  0  0  0
 49 42  2  0  0  0  0
 49 52  1  0  0  0  0
 50 43  1  6  0  0  0
 50 48  1  0  0  0  0
 50 46  1  0  0  0  0
 53 47  1  0  0  0  0
 54 55  2  0  0  0  0
M  END
>  <MODEL>
3

>  <REMARK>
 VINA RESULT:      -8.2      4.591     11.068
  Name = 
  7 active torsions:
  status: ('A' for Active; 'I' for Inactive)
    1  A    between atoms: C_6  and  C_20
    2  A    between atoms: C_8  and  C_22
    3  A    between atoms: C_8  and  C_43
    4  A    between atoms: C_10  and  C_32
    5  A    between atoms: N_11  and  C_29
    6  A    between atoms: C_20  and  C_22
    7  A    between atoms: C_33  and  C_52
                            x       y       z     vdW  Elec       q    Type
                         _______ _______ _______ _____ _____    ______ ____

>  <TORSDO>
F 7

$$$$
=
 OpenBabel11052415043D

 55 61  0  0  1  0  0  0  0  0999 V2000
  187.2380  177.7700  140.2750 C   0  0  0  0  0  0  0  0  0  0  0  0
  190.9610  176.7000  138.8800 C   0  0  0  0  0  2  0  0  0  0  0  0
  192.2140  176.9960  141.5990 O   0  0  0  0  0  1  0  0  0  0  0  0
  191.2190  177.3170  144.6990 C   0  0  0  0  0  3  0  0  0  0  0  0
  191.6360  177.0270  145.9300 C   0  0  0  0  0  3  0  0  0  0  0  0
  188.8480  176.9090  145.3970 C   0  0  2  0  0  3  0  0  0  0  0  0
  189.3450  177.2030  146.8110 C   0  0  0  0  0  2  0  0  0  0  0  0
  190.3510  178.1560  142.2250 O   0  0  0  0  0  0  0  0  0  0  0  0
  190.7090  176.8170  146.9550 O   0  0  0  0  0  0  0  0  0  0  0  0
  185.9210  178.4390  138.3090 C   0  0  0  0  0  3  0  0  0  0  0  0
  189.8160  177.3860  144.3940 N   0  0  0  0  0  0  0  0  0  0  0  0
  187.3420  176.6110  136.7360 C   0  0  0  0  0  0  0  0  0  0  0  0
  187.5750  177.9010  141.4250 C   0  0  0  0  0  0  0  0  0  0  0  0
  187.5950  176.7040  138.1070 C   0  0  0  0  0  3  0  0  0  0  0  0
  187.0110  177.4390  143.7840 C   0  0  2  0  0  3  0  0  0  0  0  0
  190.6070  177.2160  137.4980 C   0  0  0  0  0  2  0  0  0  0  0  0
  187.5030  177.5960  145.2150 C   0  0  0  0  0  2  0  0  0  0  0  0
  190.7470  177.8010  139.9010 C   0  0  0  0  0  2  0  0  0  0  0  0
  190.8710  177.2380  141.3060 C   0  0  1  0  0  3  0  0  0  0  0  0
  185.6550  178.3400  136.9400 C   0  0  0  0  0  3  0  0  0  0  0  0
  190.5500  176.0570  136.5160 C   0  0  1  0  0  3  0  0  0  0  0  0
  186.8930  177.6190  138.8920 C   0  0  0  0  0  0  0  0  0  0  0  0
  189.4130  177.4350  142.9800 C   0  0  1  0  0  3  0  0  0  0  0  0
  188.0220  178.0680  142.8160 C   0  0  1  0  0  3  0  0  0  0  0  0
  189.4660  176.3060  135.4690 C   0  0  0  0  0  2  0  0  0  0  0  0
  188.1420  175.6760  135.8900 C   0  0  0  0  0  2  0  0  0  0  0  0
  186.3710  177.4310  136.1510 C   0  0  0  0  0  3  0  0  0  0  0  0
  185.0170  178.0320  142.4960 C   0  0  0  0  0  3  0  0  0  0  0  0
  182.9170  178.7130  143.6600 C   0  0  2  0  0  3  0  0  0  0  0  0
  185.0570  178.6590  144.7910 O   0  0  0  0  0  0  0  0  0  0  0  0
  183.8150  179.3610  144.7100 C   0  0  0  0  0  2  0  0  0  0  0  0
  183.6750  178.6840  142.3330 C   0  0  0  0  0  2  0  0  0  0  0  0
  185.6620  178.0760  143.6660 C   0  0  0  0  0  0  0  0  0  0  0  0
  181.6360  179.5140  143.5050 C   0  0  0  0  0  3  0  0  0  0  0  0
  180.4490  178.6490  143.8790 C   0  0  0  0  0  2  0  0  0  0  0  0
  180.7800  178.8890  142.4220 C   0  0  0  0  0  2  0  0  0  0  0  0
  191.9570  174.7180  135.0530 O   0  0  0  0  0  1  0  0  0  0  0  0
  191.9310  175.8420  135.8840 C   0  0  2  0  0  3  0  0  0  0  0  0
  193.0580  175.8080  136.9180 C   0  0  0  0  0  2  0  0  0  0  0  0
  194.4240  175.4840  136.3090 C   0  0  1  0  0  3  0  0  0  0  0  0
  195.1360  176.6650  136.0820 O   0  0  0  0  0  1  0  0  0  0  0  0
  194.5770  171.1200  136.8260 N   0  0  0  0  0  0  0  0  0  0  0  0
  198.2460  173.4600  138.2280 O   0  0  0  0  0  1  0  0  0  0  0  0
  195.2200  174.4760  137.1720 C   0  0  1  0  0  0  0  0  0  0  0  0
  196.5740  173.8980  135.2050 O   0  0  0  0  0  1  0  0  0  0  0  0
  196.6160  174.1200  136.5860 C   0  0  2  0  0  3  0  0  0  0  0  0
  194.3000  172.4710  136.3990 C   0  0  0  0  0  2  0  0  0  0  0  0
  197.8270  171.7900  136.5410 C   0  0  1  0  0  3  0  0  0  0  0  0
  195.6640  170.4920  136.5280 C   0  0  0  0  0  3  0  0  0  0  0  0
  197.2680  172.9620  137.3660 C   0  0  1  0  0  3  0  0  0  0  0  0
  195.4720  175.1190  138.3730 F   0  0  0  0  0  0  0  0  0  0  0  0
  196.7580  171.0930  135.6910 C   0  0  0  0  0  2  0  0  0  0  0  0
  194.4290  173.3410  137.4950 O   0  0  0  0  0  0  0  0  0  0  0  0
  198.9250  172.2300  135.7150 N   0  0  0  0  0  0  0  0  0  0  0  0
  199.1790  171.6540  134.5980 C   0  0  0  0  0  2  0  0  0  0  0  0
  1 13  3  0  0  0  0
  2 18  1  0  0  0  0
  4  5  2  0  0  0  0
  5  9  1  0  0  0  0
  6 17  1  6  0  0  0
  6  7  1  0  0  0  0
  7  9  1  0  0  0  0
 10 22  1  0  0  0  0
 11  4  1  0  0  0  0
 11  6  1  0  0  0  0
 12 14  1  0  0  0  0
 14 22  2  0  0  0  0
 15 33  1  1  0  0  0
 15 17  1  0  0  0  0
 16  2  1  0  0  0  0
 18 19  1  0  0  0  0
 19  3  1  1  0  0  0
 19  8  1  0  0  0  0
 20 10  2  0  0  0  0
 21 38  1  6  0  0  0
 21 16  1  0  0  0  0
 22  1  1  0  0  0  0
 23  8  1  6  0  0  0
 23 11  1  0  0  0  0
 24 13  1  6  0  0  0
 24 23  1  0  0  0  0
 24 15  1  0  0  0  0
 25 26  1  0  0  0  0
 25 21  1  0  0  0  0
 26 12  1  0  0  0  0
 27 12  2  0  0  0  0
 27 20  1  0  0  0  0
 28 33  2  0  0  0  0
 29 34  1  6  0  0  0
 29 31  1  0  0  0  0
 31 30  1  0  0  0  0
 32 28  1  0  0  0  0
 32 29  1  0  0  0  0
 33 30  1  0  0  0  0
 34 35  1  0  0  0  0
 36 34  1  0  0  0  0
 36 35  1  0  0  0  0
 38 37  1  1  0  0  0
 38 39  1  0  0  0  0
 40 41  1  1  0  0  0
 40 39  1  0  0  0  0
 40 44  1  0  0  0  0
 44 53  1  0  0  0  0
 44 51  1  1  0  0  0
 46 45  1  6  0  0  0
 46 44  1  0  0  0  0
 46 50  1  0  0  0  0
 47 42  1  0  0  0  0
 47 53  1  0  0  0  0
 48 54  1  6  0  0  0
 48 50  1  0  0  0  0
 49 42  2  0  0  0  0
 50 43  1  6  0  0  0
 52 49  1  0  0  0  0
 52 48  1  0  0  0  0
 55 54  2  0  0  0  0
M  END
>  <MODEL>
4

>  <REMARK>
 VINA RESULT:      -8.1      4.797     10.127
  Name = 
  7 active torsions:
  status: ('A' for Active; 'I' for Inactive)
    1  A    between atoms: C_6  and  C_20
    2  A    between atoms: C_8  and  C_22
    3  A    between atoms: C_8  and  C_43
    4  A    between atoms: C_10  and  C_32
    5  A    between atoms: N_11  and  C_29
    6  A    between atoms: C_20  and  C_22
    7  A    between atoms: C_33  and  C_52
                            x       y       z     vdW  Elec       q    Type
                         _______ _______ _______ _____ _____    ______ ____

>  <TORSDO>
F 7

$$$$
=
 OpenBabel11052415043D

 55 61  0  0  1  0  0  0  0  0999 V2000
  187.2120  177.7790  140.1960 C   0  0  0  0  0  0  0  0  0  0  0  0
  190.9480  176.7600  138.7990 C   0  0  0  0  0  2  0  0  0  0  0  0
  192.2040  177.0990  141.5120 O   0  0  0  0  0  1  0  0  0  0  0  0
  191.2130  177.4270  144.6120 C   0  0  0  0  0  3  0  0  0  0  0  0
  191.6370  177.1540  145.8440 C   0  0  0  0  0  3  0  0  0  0  0  0
  188.8500  176.9850  145.3200 C   0  0  2  0  0  3  0  0  0  0  0  0
  189.3460  177.2990  146.7300 C   0  0  0  0  0  2  0  0  0  0  0  0
  190.3240  178.2330  142.1340 O   0  0  0  0  0  0  0  0  0  0  0  0
  190.7170  176.9370  146.8730 O   0  0  0  0  0  0  0  0  0  0  0  0
  185.8780  178.4100  138.2290 C   0  0  0  0  0  3  0  0  0  0  0  0
  189.8080  177.4700  144.3100 N   0  0  0  0  0  0  0  0  0  0  0  0
  187.3260  176.5930  136.6660 C   0  0  0  0  0  0  0  0  0  0  0  0
  187.5500  177.9250  141.3440 C   0  0  0  0  0  0  0  0  0  0  0  0
  187.5810  176.7010  138.0350 C   0  0  0  0  0  3  0  0  0  0  0  0
  187.0000  177.4720  143.7090 C   0  0  2  0  0  3  0  0  0  0  0  0
  190.5820  177.2590  137.4140 C   0  0  0  0  0  2  0  0  0  0  0  0
  187.4940  177.6480  145.1370 C   0  0  0  0  0  2  0  0  0  0  0  0
  190.7180  177.8650  139.8110 C   0  0  0  0  0  2  0  0  0  0  0  0
  190.8560  177.3160  141.2210 C   0  0  1  0  0  3  0  0  0  0  0  0
  185.6110  178.2950  136.8610 C   0  0  0  0  0  3  0  0  0  0  0  0
  190.5420  176.0920  136.4420 C   0  0  1  0  0  3  0  0  0  0  0  0
  186.8650  177.6110  138.8160 C   0  0  0  0  0  0  0  0  0  0  0  0
  189.3990  177.5010  142.8980 C   0  0  1  0  0  3  0  0  0  0  0  0
  187.9970  178.1100  142.7330 C   0  0  1  0  0  3  0  0  0  0  0  0
  189.4510  176.3140  135.3960 C   0  0  0  0  0  2  0  0  0  0  0  0
  188.1380  175.6660  135.8260 C   0  0  0  0  0  2  0  0  0  0  0  0
  186.3390  177.3930  136.0780 C   0  0  0  0  0  3  0  0  0  0  0  0
  184.9780  177.9910  142.4310 C   0  0  0  0  0  3  0  0  0  0  0  0
  182.8860  178.6830  143.6030 C   0  0  2  0  0  3  0  0  0  0  0  0
  185.0440  178.6990  144.7030 O   0  0  0  0  0  0  0  0  0  0  0  0
  183.7910  179.3800  144.6170 C   0  0  0  0  0  2  0  0  0  0  0  0
  183.6250  178.6180  142.2670 C   0  0  0  0  0  2  0  0  0  0  0  0
  185.6400  178.0860  143.5890 C   0  0  0  0  0  0  0  0  0  0  0  0
  181.5920  179.4600  143.4410 C   0  0  0  0  0  3  0  0  0  0  0  0
  180.4240  178.5930  143.8680 C   0  0  0  0  0  2  0  0  0  0  0  0
  180.7260  178.7820  142.3970 C   0  0  0  0  0  2  0  0  0  0  0  0
  192.0480  176.5870  134.5980 O   0  0  0  0  0  1  0  0  0  0  0  0
  191.9240  175.8950  135.8070 C   0  0  2  0  0  3  0  0  0  0  0  0
  192.3040  174.4200  135.6570 C   0  0  0  0  0  2  0  0  0  0  0  0
  193.7000  174.2150  135.0660 C   0  0  1  0  0  3  0  0  0  0  0  0
  194.2920  175.4530  134.8020 O   0  0  0  0  0  1  0  0  0  0  0  0
  198.0020  173.5310  135.6700 N   0  0  0  0  0  0  0  0  0  0  0  0
  195.2450  172.2570  139.0870 O   0  0  0  0  0  1  0  0  0  0  0  0
  194.5860  173.3220  135.9670 C   0  0  1  0  0  0  0  0  0  0  0  0
  195.1010  175.2780  137.3620 O   0  0  0  0  0  1  0  0  0  0  0  0
  194.8200  173.9070  137.3890 C   0  0  2  0  0  3  0  0  0  0  0  0
  196.7040  174.0080  135.2530 C   0  0  0  0  0  2  0  0  0  0  0  0
  197.0150  173.8740  138.8310 C   0  0  1  0  0  3  0  0  0  0  0  0
  198.5270  173.8150  136.8140 C   0  0  0  0  0  3  0  0  0  0  0  0
  195.8740  173.0900  138.1600 C   0  0  1  0  0  3  0  0  0  0  0  0
  193.8740  172.1500  136.1590 F   0  0  0  0  0  0  0  0  0  0  0  0
  197.8500  174.6860  137.8350 C   0  0  0  0  0  2  0  0  0  0  0  0
  195.7830  172.9470  135.2980 O   0  0  0  0  0  0  0  0  0  0  0  0
  196.4980  174.7270  139.8740 N   0  0  0  0  0  0  0  0  0  0  0  0
  197.2800  175.4880  140.5480 C   0  0  0  0  0  2  0  0  0  0  0  0
  1 13  3  0  0  0  0
  2 18  1  0  0  0  0
  4  5  2  0  0  0  0
  5  9  1  0  0  0  0
  6 17  1  6  0  0  0
  6  7  1  0  0  0  0
  7  9  1  0  0  0  0
 10 22  1  0  0  0  0
 11  4  1  0  0  0  0
 11  6  1  0  0  0  0
 12 14  1  0  0  0  0
 14 22  2  0  0  0  0
 15 33  1  1  0  0  0
 15 17  1  0  0  0  0
 16  2  1  0  0  0  0
 18 19  1  0  0  0  0
 19  3  1  1  0  0  0
 19  8  1  0  0  0  0
 20 10  2  0  0  0  0
 21 38  1  6  0  0  0
 21 16  1  0  0  0  0
 22  1  1  0  0  0  0
 23  8  1  6  0  0  0
 23 11  1  0  0  0  0
 24 13  1  6  0  0  0
 24 23  1  0  0  0  0
 24 15  1  0  0  0  0
 25 26  1  0  0  0  0
 25 21  1  0  0  0  0
 26 12  1  0  0  0  0
 27 12  2  0  0  0  0
 27 20  1  0  0  0  0
 28 33  2  0  0  0  0
 29 34  1  6  0  0  0
 29 31  1  0  0  0  0
 31 30  1  0  0  0  0
 32 28  1  0  0  0  0
 32 29  1  0  0  0  0
 33 30  1  0  0  0  0
 34 35  1  0  0  0  0
 36 34  1  0  0  0  0
 36 35  1  0  0  0  0
 38 37  1  6  0  0  0
 39 38  1  0  0  0  0
 40 41  1  1  0  0  0
 40 39  1  0  0  0  0
 40 44  1  0  0  0  0
 42 49  2  0  0  0  0
 44 51  1  1  0  0  0
 44 46  1  0  0  0  0
 46 45  1  6  0  0  0
 46 50  1  0  0  0  0
 47 53  1  0  0  0  0
 47 42  1  0  0  0  0
 48 54  1  1  0  0  0
 49 52  1  0  0  0  0
 50 48  1  0  0  0  0
 50 43  1  1  0  0  0
 52 48  1  0  0  0  0
 53 44  1  0  0  0  0
 54 55  2  0  0  0  0
M  END
>  <MODEL>
5

>  <REMARK>
 VINA RESULT:      -7.8      4.702      9.926
  Name = 
  7 active torsions:
  status: ('A' for Active; 'I' for Inactive)
    1  A    between atoms: C_6  and  C_20
    2  A    between atoms: C_8  and  C_22
    3  A    between atoms: C_8  and  C_43
    4  A    between atoms: C_10  and  C_32
    5  A    between atoms: N_11  and  C_29
    6  A    between atoms: C_20  and  C_22
    7  A    between atoms: C_33  and  C_52
                            x       y       z     vdW  Elec       q    Type
                         _______ _______ _______ _____ _____    ______ ____

>  <TORSDO>
F 7

$$$$
=
 OpenBabel11052415043D

 55 61  0  0  1  0  0  0  0  0999 V2000
  185.7540  178.3080  141.8400 C   0  0  0  0  0  0  0  0  0  0  0  0
  183.5100  178.3740  138.3890 C   0  0  0  0  0  2  0  0  0  0  0  0
  185.9440  178.1250  136.6400 O   0  0  0  0  0  1  0  0  0  0  0  0
  189.1100  177.3780  136.9930 C   0  0  0  0  0  3  0  0  0  0  0  0
  190.1060  176.8380  136.2930 C   0  0  0  0  0  3  0  0  0  0  0  0
  190.0240  176.3630  139.0930 C   0  0  2  0  0  3  0  0  0  0  0  0
  191.3590  176.3370  138.3510 C   0  0  0  0  0  2  0  0  0  0  0  0
  187.1930  178.7010  138.4610 O   0  0  0  0  0  0  0  0  0  0  0  0
  191.1520  176.1840  136.9500 O   0  0  0  0  0  0  0  0  0  0  0  0
  184.3330  179.2440  143.6160 C   0  0  0  0  0  3  0  0  0  0  0  0
  189.0740  177.2700  138.4260 N   0  0  0  0  0  0  0  0  0  0  0  0
  182.0620  178.2220  142.3360 C   0  0  0  0  0  0  0  0  0  0  0  0
  186.8160  178.1720  141.2890 C   0  0  0  0  0  0  0  0  0  0  0  0
  183.3340  177.9740  141.8150 C   0  0  0  0  0  3  0  0  0  0  0  0
  188.9760  176.9740  141.2800 C   0  0  2  0  0  3  0  0  0  0  0  0
  182.4320  179.1810  139.0880 C   0  0  0  0  0  2  0  0  0  0  0  0
  190.2850  176.8130  140.5220 C   0  0  0  0  0  2  0  0  0  0  0  0
  184.8410  179.0870  138.5220 C   0  0  0  0  0  2  0  0  0  0  0  0
  185.9640  178.1870  138.0340 C   0  0  1  0  0  3  0  0  0  0  0  0
  183.0620  179.4840  144.1480 C   0  0  0  0  0  3  0  0  0  0  0  0
  181.1630  178.3520  139.2030 C   0  0  1  0  0  3  0  0  0  0  0  0
  184.4670  178.4880  142.4470 C   0  0  0  0  0  0  0  0  0  0  0  0
  187.8300  177.6370  139.1210 C   0  0  1  0  0  3  0  0  0  0  0  0
  188.0990  178.0230  140.5840 C   0  0  1  0  0  3  0  0  0  0  0  0
  180.4350  178.6790  140.5050 C   0  0  0  0  0  2  0  0  0  0  0  0
  180.8510  177.7250  141.6210 C   0  0  0  0  0  2  0  0  0  0  0  0
  181.9260  178.9800  143.5050 C   0  0  0  0  0  3  0  0  0  0  0  0
  188.3900  177.0930  143.6530 C   0  0  0  0  0  3  0  0  0  0  0  0
  190.1500  177.5200  145.3700 C   0  0  2  0  0  3  0  0  0  0  0  0
  190.5200  177.9390  143.0140 O   0  0  0  0  0  0  0  0  0  0  0  0
  190.8240  178.4100  144.3280 C   0  0  0  0  0  2  0  0  0  0  0  0
  188.6510  177.4900  145.0770 C   0  0  0  0  0  2  0  0  0  0  0  0
  189.2810  177.3600  142.6940 C   0  0  0  0  0  0  0  0  0  0  0  0
  190.3930  178.0730  146.7620 C   0  0  0  0  0  3  0  0  0  0  0  0
  190.7580  176.9410  147.7020 C   0  0  0  0  0  2  0  0  0  0  0  0
  189.3560  177.5110  147.7150 C   0  0  0  0  0  2  0  0  0  0  0  0
  180.0150  177.3890  137.2880 O   0  0  0  0  0  1  0  0  0  0  0  0
  180.2790  178.5800  137.9700 C   0  0  2  0  0  3  0  0  0  0  0  0
  180.8330  179.6570  137.0340 C   0  0  0  0  0  2  0  0  0  0  0  0
  179.8720  180.8300  136.8320 C   0  0  1  0  0  3  0  0  0  0  0  0
  179.0620  180.9830  137.9600 O   0  0  0  0  0  1  0  0  0  0  0  0
  178.9780  184.5280  134.6250 N   0  0  0  0  0  0  0  0  0  0  0  0
  182.4730  184.7140  137.5660 O   0  0  0  0  0  1  0  0  0  0  0  0
  180.6180  182.1350  136.4640 C   0  0  1  0  0  0  0  0  0  0  0  0
  179.3430  183.3240  138.1960 O   0  0  0  0  0  1  0  0  0  0  0  0
  180.6020  183.2020  137.5960 C   0  0  2  0  0  3  0  0  0  0  0  0
  178.9310  183.2460  135.2880 C   0  0  0  0  0  2  0  0  0  0  0  0
  180.3330  185.8060  137.3860 C   0  0  1  0  0  3  0  0  0  0  0  0
  178.9870  185.6520  135.2580 C   0  0  0  0  0  3  0  0  0  0  0  0
  181.1690  184.5470  137.1000 C   0  0  1  0  0  3  0  0  0  0  0  0
  181.9480  181.7810  136.3050 F   0  0  0  0  0  0  0  0  0  0  0  0
  178.9350  185.7520  136.7560 C   0  0  0  0  0  2  0  0  0  0  0  0
  180.1920  182.6320  135.2030 O   0  0  0  0  0  0  0  0  0  0  0  0
  180.2410  186.0430  138.8060 N   0  0  0  0  0  0  0  0  0  0  0  0
  179.3450  186.8240  139.2860 C   0  0  0  0  0  2  0  0  0  0  0  0
  1 22  1  0  0  0  0
  2 18  1  0  0  0  0
  2 16  1  0  0  0  0
  4 11  1  0  0  0  0
  5  9  1  0  0  0  0
  5  4  2  0  0  0  0
  6  7  1  6  0  0  0
  6 17  1  0  0  0  0
  9  7  1  0  0  0  0
 10 20  1  0  0  0  0
 11  6  1  0  0  0  0
 11 23  1  0  0  0  0
 12 27  1  0  0  0  0
 13  1  3  0  0  0  0
 14 12  2  0  0  0  0
 14 22  1  0  0  0  0
 15 33  1  1  0  0  0
 16 21  1  0  0  0  0
 17 15  1  0  0  0  0
 19  3  1  6  0  0  0
 19  8  1  0  0  0  0
 19 18  1  0  0  0  0
 21 38  1  6  0  0  0
 21 25  1  0  0  0  0
 22 10  2  0  0  0  0
 23  8  1  6  0  0  0
 23 24  1  0  0  0  0
 24 15  1  0  0  0  0
 24 13  1  1  0  0  0
 25 26  1  0  0  0  0
 26 12  1  0  0  0  0
 27 20  2  0  0  0  0
 28 32  1  0  0  0  0
 29 34  1  1  0  0  0
 30 31  1  0  0  0  0
 31 29  1  0  0  0  0
 32 29  1  0  0  0  0
 33 30  1  0  0  0  0
 33 28  2  0  0  0  0
 34 35  1  0  0  0  0
 34 36  1  0  0  0  0
 35 36  1  0  0  0  0
 38 37  1  6  0  0  0
 39 38  1  0  0  0  0
 40 39  1  0  0  0  0
 40 41  1  1  0  0  0
 42 49  2  0  0  0  0
 42 47  1  0  0  0  0
 44 51  1  6  0  0  0
 44 40  1  0  0  0  0
 44 46  1  0  0  0  0
 46 45  1  6  0  0  0
 48 54  1  1  0  0  0
 49 52  1  0  0  0  0
 50 48  1  0  0  0  0
 50 43  1  1  0  0  0
 50 46  1  0  0  0  0
 52 48  1  0  0  0  0
 53 47  1  0  0  0  0
 53 44  1  0  0  0  0
 54 55  2  0  0  0  0
M  END
>  <MODEL>
6

>  <REMARK>
 VINA RESULT:      -7.8      3.402      5.498
  Name = 
  7 active torsions:
  status: ('A' for Active; 'I' for Inactive)
    1  A    between atoms: C_6  and  C_20
    2  A    between atoms: C_8  and  C_22
    3  A    between atoms: C_8  and  C_43
    4  A    between atoms: C_10  and  C_32
    5  A    between atoms: N_11  and  C_29
    6  A    between atoms: C_20  and  C_22
    7  A    between atoms: C_33  and  C_52
                            x       y       z     vdW  Elec       q    Type
                         _______ _______ _______ _____ _____    ______ ____

>  <TORSDO>
F 7

$$$$
=
 OpenBabel11052415043D

 55 61  0  0  1  0  0  0  0  0999 V2000
  189.2390  177.0410  141.0070 C   0  0  0  0  0  0  0  0  0  0  0  0
  185.5810  178.3180  142.3980 C   0  0  0  0  0  2  0  0  0  0  0  0
  184.4320  178.4870  139.6230 O   0  0  0  0  0  1  0  0  0  0  0  0
  185.2250  177.4820  136.6120 C   0  0  0  0  0  3  0  0  0  0  0  0
  184.6300  177.1310  135.4740 C   0  0  0  0  0  3  0  0  0  0  0  0
  187.0390  175.8070  136.1900 C   0  0  2  0  0  3  0  0  0  0  0  0
  186.6450  175.9360  134.7200 C   0  0  0  0  0  2  0  0  0  0  0  0
  186.5720  178.3880  138.8360 O   0  0  0  0  0  0  0  0  0  0  0  0
  185.2590  176.2430  134.5970 O   0  0  0  0  0  0  0  0  0  0  0  0
  190.8570  177.4550  142.8120 C   0  0  0  0  0  3  0  0  0  0  0  0
  186.5020  176.9320  136.9750 N   0  0  0  0  0  0  0  0  0  0  0  0
  188.8470  177.0210  144.7120 C   0  0  0  0  0  0  0  0  0  0  0  0
  188.9250  177.0230  139.8440 C   0  0  0  0  0  0  0  0  0  0  0  0
  188.5710  176.8750  143.3500 C   0  0  0  0  0  3  0  0  0  0  0  0
  189.0160  175.7630  137.7220 C   0  0  2  0  0  3  0  0  0  0  0  0
  186.2430  178.9270  143.6200 C   0  0  0  0  0  2  0  0  0  0  0  0
  188.5570  175.7710  136.2710 C   0  0  0  0  0  2  0  0  0  0  0  0
  186.2270  178.8740  141.1440 C   0  0  0  0  0  2  0  0  0  0  0  0
  185.7410  178.1080  139.9260 C   0  0  1  0  0  3  0  0  0  0  0  0
  191.1420  177.5900  144.1750 C   0  0  0  0  0  3  0  0  0  0  0  0
  185.8010  178.1810  144.8690 C   0  0  1  0  0  3  0  0  0  0  0  0
  189.5690  177.0970  142.4010 C   0  0  0  0  0  0  0  0  0  0  0  0
  186.9820  177.1350  138.3500 C   0  0  1  0  0  3  0  0  0  0  0  0
  188.5130  177.0260  138.4310 C   0  0  1  0  0  3  0  0  0  0  0  0
  186.9440  178.1250  145.8810 C   0  0  0  0  0  2  0  0  0  0  0  0
  187.7590  176.8460  145.7180 C   0  0  0  0  0  2  0  0  0  0  0  0
  190.1350  177.3810  145.1240 C   0  0  0  0  0  3  0  0  0  0  0  0
  191.0950  174.4860  137.5320 C   0  0  0  0  0  3  0  0  0  0  0  0
  193.2730  175.6600  137.2080 C   0  0  2  0  0  3  0  0  0  0  0  0
  191.2850  176.8200  137.9580 O   0  0  0  0  0  0  0  0  0  0  0  0
  192.7060  176.7670  138.0920 C   0  0  0  0  0  2  0  0  0  0  0  0
  192.5880  174.3470  137.5850 C   0  0  0  0  0  2  0  0  0  0  0  0
  190.5090  175.6660  137.7550 C   0  0  0  0  0  0  0  0  0  0  0  0
  194.7720  175.5400  137.4200 C   0  0  0  0  0  3  0  0  0  0  0  0
  195.4590  175.3400  136.0840 C   0  0  0  0  0  2  0  0  0  0  0  0
  195.2310  174.1580  137.0000 C   0  0  0  0  0  2  0  0  0  0  0  0
  184.5150  178.7740  146.8450 O   0  0  0  0  0  1  0  0  0  0  0  0
  184.5420  178.8360  145.4480 C   0  0  2  0  0  3  0  0  0  0  0  0
  183.2520  178.2890  144.8330 C   0  0  0  0  0  2  0  0  0  0  0  0
  182.2970  179.3880  144.3610 C   0  0  1  0  0  3  0  0  0  0  0  0
  182.9930  180.3290  143.5970 O   0  0  0  0  0  1  0  0  0  0  0  0
  179.0160  180.9560  141.8880 N   0  0  0  0  0  0  0  0  0  0  0  0
  179.9430  176.5020  141.4430 O   0  0  0  0  0  1  0  0  0  0  0  0
  181.0740  178.8110  143.6090 C   0  0  1  0  0  0  0  0  0  0  0  0
  182.2810  179.0820  141.4860 O   0  0  0  0  0  1  0  0  0  0  0  0
  181.4170  178.2440  142.2020 C   0  0  2  0  0  3  0  0  0  0  0  0
  180.2040  180.7760  142.6900 C   0  0  0  0  0  2  0  0  0  0  0  0
  180.0230  178.4180  139.9830 C   0  0  1  0  0  3  0  0  0  0  0  0
  178.9330  180.5900  140.6540 C   0  0  0  0  0  3  0  0  0  0  0  0
  180.1400  177.8830  141.4210 C   0  0  1  0  0  3  0  0  0  0  0  0
  180.6470  177.7240  144.3550 F   0  0  0  0  0  0  0  0  0  0  0  0
  180.0680  179.9490  139.9080 C   0  0  0  0  0  2  0  0  0  0  0  0
  179.9920  179.7330  143.6070 O   0  0  0  0  0  0  0  0  0  0  0  0
  181.0430  177.8380  139.1430 N   0  0  0  0  0  0  0  0  0  0  0  0
  180.8520  177.6920  137.8840 C   0  0  0  0  0  2  0  0  0  0  0  0
  1 22  1  0  0  0  0
  2 16  1  0  0  0  0
  4 11  1  0  0  0  0
  5  4  2  0  0  0  0
  6  7  1  6  0  0  0
  6 17  1  0  0  0  0
  6 11  1  0  0  0  0
  8 19  1  0  0  0  0
  9  7  1  0  0  0  0
  9  5  1  0  0  0  0
 10 20  1  0  0  0  0
 11 23  1  0  0  0  0
 12 27  1  0  0  0  0
 12 26  1  0  0  0  0
 13  1  3  0  0  0  0
 14 12  2  0  0  0  0
 15 33  1  6  0  0  0
 15 24  1  0  0  0  0
 16 21  1  0  0  0  0
 17 15  1  0  0  0  0
 18  2  1  0  0  0  0
 19  3  1  6  0  0  0
 19 18  1  0  0  0  0
 20 27  2  0  0  0  0
 21 38  1  1  0  0  0
 21 25  1  0  0  0  0
 22 10  2  0  0  0  0
 22 14  1  0  0  0  0
 23 24  1  0  0  0  0
 23  8  1  6  0  0  0
 24 13  1  1  0  0  0
 26 25  1  0  0  0  0
 28 32  1  0  0  0  0
 28 33  2  0  0  0  0
 29 34  1  1  0  0  0
 29 32  1  0  0  0  0
 29 31  1  0  0  0  0
 30 31  1  0  0  0  0
 33 30  1  0  0  0  0
 35 36  1  0  0  0  0
 35 34  1  0  0  0  0
 36 34  1  0  0  0  0
 38 37  1  1  0  0  0
 39 38  1  0  0  0  0
 40 41  1  6  0  0  0
 40 39  1  0  0  0  0
 42 47  1  0  0  0  0
 44 51  1  1  0  0  0
 44 40  1  0  0  0  0
 46 45  1  6  0  0  0
 46 44  1  0  0  0  0
 47 53  1  0  0  0  0
 48 54  1  6  0  0  0
 48 50  1  0  0  0  0
 49 42  2  0  0  0  0
 50 43  1  6  0  0  0
 50 46  1  0  0  0  0
 52 48  1  0  0  0  0
 52 49  1  0  0  0  0
 53 44  1  0  0  0  0
 55 54  2  0  0  0  0
M  END
>  <MODEL>
7

>  <REMARK>
 VINA RESULT:      -7.6      3.034      6.716
  Name = 
  7 active torsions:
  status: ('A' for Active; 'I' for Inactive)
    1  A    between atoms: C_6  and  C_20
    2  A    between atoms: C_8  and  C_22
    3  A    between atoms: C_8  and  C_43
    4  A    between atoms: C_10  and  C_32
    5  A    between atoms: N_11  and  C_29
    6  A    between atoms: C_20  and  C_22
    7  A    between atoms: C_33  and  C_52
                            x       y       z     vdW  Elec       q    Type
                         _______ _______ _______ _____ _____    ______ ____

>  <TORSDO>
F 7

$$$$
