=
 OpenBabel11052416113D

 43 48  0  0  1  0  0  0  0  0999 V2000
  187.0600  178.5390  141.9740 C   0  0  1  0  0  3  0  0  0  0  0  0
  189.5820  176.9150  136.1600 C   0  0  1  0  0  3  0  0  0  0  0  0
  186.8130  177.8930  144.3990 C   0  0  0  0  0  1  0  0  0  0  0  0
  189.7560  177.2840  141.3040 C   0  0  0  0  0  0  0  0  0  0  0  0
  186.9950  177.3730  142.9810 C   0  0  2  0  0  3  0  0  0  0  0  0
  190.2390  176.4860  138.5800 C   0  0  1  0  0  3  0  0  0  0  0  0
  189.0640  178.3220  136.4880 C   0  0  0  0  0  2  0  0  0  0  0  0
  190.0810  176.8750  134.7320 C   0  0  0  0  0  1  0  0  0  0  0  0
  188.9710  177.3390  138.8210 C   0  0  2  0  0  3  0  0  0  0  0  0
  190.7000  176.4990  137.1140 C   0  0  0  0  0  2  0  0  0  0  0  0
  189.0180  178.6240  137.9920 C   0  0  0  0  0  2  0  0  0  0  0  0
  187.5190  178.1370  140.5990 C   0  0  0  0  0  3  0  0  0  0  0  0
  188.7150  177.6220  140.2830 C   0  0  0  0  0  0  0  0  0  0  0  0
  190.9890  176.9490  140.8980 C   0  0  0  0  0  3  0  0  0  0  0  0
  189.3930  177.2260  142.7740 C   0  0  1  0  0  3  0  0  0  0  0  0
  188.1510  176.4710  142.9260 N   0  0  0  0  0  2  0  0  0  0  0  0
  191.3880  176.9760  139.4550 C   0  0  0  0  0  2  0  0  0  0  0  0
  190.4760  176.6180  143.6620 C   0  0  0  0  0  2  0  0  0  0  0  0
  191.4580  177.6900  144.0990 C   0  0  0  0  0  2  0  0  0  0  0  0
  190.0680  178.0950  145.9440 C   0  0  0  0  0  2  0  0  0  0  0  0
  189.7430  177.2450  147.1550 C   0  0  1  0  0  0  0  0  0  0  0  0
  189.5680  178.1170  148.3820 C   0  0  0  0  0  1  0  0  0  0  0  0
  191.7480  176.4990  146.0870 C   0  0  0  0  0  2  0  0  0  0  0  0
  191.4430  177.8140  145.5470 N   0  0  0  0  0  0  0  0  0  0  0  0
  188.5830  176.5090  146.9230 O   0  0  0  0  0  1  0  0  0  0  0  0
  190.9190  176.3190  147.3370 C   0  0  0  0  0  2  0  0  0  0  0  0
  185.4570  179.4160  141.8690 S   0  0  0  0  0  0  0  0  0  0  0  0
  184.7420  178.3100  140.6050 C   0  0  1  0  0  3  0  0  0  0  0  0
  183.4880  177.6610  141.1510 C   0  0  0  0  0  1  0  0  0  0  0  0
  184.4250  179.0380  139.4530 O   0  0  0  0  0  0  0  0  0  0  0  0
  183.6090  178.1920  138.6950 C   0  0  2  0  0  3  0  0  0  0  0  0
  184.4010  175.8820  137.7990 C   0  0  2  0  0  0  0  0  0  0  0  0
  183.7440  176.6820  136.8100 O   0  0  0  0  0  0  0  0  0  0  0  0
  184.4730  177.3910  137.7280 C   0  0  1  0  0  0  0  0  0  0  0  0
  185.7510  175.5260  137.5120 O   0  0  0  0  0  0  0  0  0  0  0  0
  184.7970  174.7440  136.9070 C   0  0  1  0  0  3  0  0  0  0  0  0
  185.5840  178.0090  137.1380 O   0  0  0  0  0  1  0  0  0  0  0  0
  183.8820  172.4390  136.8290 C   0  0  0  0  0  1  0  0  0  0  0  0
  185.9330  172.9180  137.9260 O   0  0  0  0  0  1  0  0  0  0  0  0
  184.6650  173.4340  137.6610 C   0  0  1  0  0  3  0  0  0  0  0  0
  182.5540  179.0100  137.9600 C   0  0  0  0  0  2  0  0  0  0  0  0
  182.5770  181.3200  138.5480 F   0  0  0  0  0  0  0  0  0  0  0  0
  182.0000  180.1020  138.8570 C   0  0  0  0  0  2  0  0  0  0  0  0
  1 27  1  6  0  0  0
  1  5  1  0  0  0  0
  2  8  1  6  0  0  0
  2  7  1  0  0  0  0
  2 10  1  0  0  0  0
  4 15  1  0  0  0  0
  5  3  1  1  0  0  0
  6 10  1  6  0  0  0
  6  9  1  0  0  0  0
  6 17  1  0  0  0  0
  7 11  1  0  0  0  0
  9 11  1  6  0  0  0
  9 13  1  0  0  0  0
 12  1  1  0  0  0  0
 13 12  2  0  0  0  0
 13  4  1  0  0  0  0
 14  4  2  0  0  0  0
 15 16  1  0  0  0  0
 15 18  1  1  0  0  0
 16  5  1  0  0  0  0
 17 14  1  0  0  0  0
 18 19  1  0  0  0  0
 19 24  1  0  0  0  0
 20 21  1  0  0  0  0
 21 26  1  0  0  0  0
 21 22  1  1  0  0  0
 23 26  1  0  0  0  0
 24 20  1  0  0  0  0
 24 23  1  0  0  0  0
 25 21  1  0  0  0  0
 28 29  1  1  0  0  0
 28 27  1  0  0  0  0
 30 28  1  0  0  0  0
 31 41  1  6  0  0  0
 31 30  1  0  0  0  0
 32 33  1  6  0  0  0
 33 34  1  0  0  0  0
 34 37  1  6  0  0  0
 34 32  1  0  0  0  0
 34 31  1  0  0  0  0
 35 32  1  0  0  0  0
 36 35  1  0  0  0  0
 36 40  1  1  0  0  0
 36 32  1  0  0  0  0
 40 38  1  6  0  0  0
 40 39  1  0  0  0  0
 41 43  1  0  0  0  0
 42 43  1  0  0  0  0
M  END
>  <MODEL>
1

>  <REMARK>
 VINA RESULT:      -8.0      0.000      0.000
  Name = 
  11 active torsions:
  status: ('A' for Active; 'I' for Inactive)
    1  A    between atoms: C_1  and  C_34
    2  A    between atoms: C_1  and  C_35
    3  A    between atoms: C_2  and  S_6
    4  A    between atoms: O_3  and  C_4
    5  A    between atoms: O_3  and  C_12
    6  A    between atoms: C_4  and  C_15
    7  A    between atoms: C_4  and  C_22
    8  A    between atoms: S_6  and  C_12
    9  A    between atoms: C_15  and  C_42
   10  A    between atoms: C_31  and  C_40
   11  A    between atoms: N_32  and  C_35
                            x       y       z     vdW  Elec       q    Type
                         _______ _______ _______ _____ _____    ______ ____

>  <TORSDO>
F 11

$$$$
=
 OpenBabel11052416113D

 43 48  0  0  1  0  0  0  0  0999 V2000
  189.0100  177.5380  139.9770 C   0  0  1  0  0  3  0  0  0  0  0  0
  183.6460  179.3610  143.2470 C   0  0  1  0  0  3  0  0  0  0  0  0
  191.5090  177.2160  140.0760 C   0  0  0  0  0  1  0  0  0  0  0  0
  188.2390  177.0380  142.8830 C   0  0  0  0  0  0  0  0  0  0  0  0
  190.3310  178.0090  140.6200 C   0  0  2  0  0  3  0  0  0  0  0  0
  185.8820  178.3410  143.9020 C   0  0  1  0  0  3  0  0  0  0  0  0
  183.6010  178.5670  141.9350 C   0  0  0  0  0  2  0  0  0  0  0  0
  182.2360  179.6310  143.7290 C   0  0  0  0  0  1  0  0  0  0  0  0
  186.0920  178.4210  142.3710 C   0  0  2  0  0  3  0  0  0  0  0  0
  184.4290  178.6110  144.3230 C   0  0  0  0  0  2  0  0  0  0  0  0
  184.9000  177.8110  141.6300 C   0  0  0  0  0  2  0  0  0  0  0  0
  187.7760  178.0650  140.6560 C   0  0  0  0  0  3  0  0  0  0  0  0
  187.4030  177.8210  141.9200 C   0  0  0  0  0  0  0  0  0  0  0  0
  187.7160  176.6800  144.0650 C   0  0  0  0  0  3  0  0  0  0  0  0
  189.6900  176.7380  142.5660 C   0  0  1  0  0  3  0  0  0  0  0  0
  190.3320  177.9600  142.0860 N   0  0  0  0  0  2  0  0  0  0  0  0
  186.2930  176.9690  144.4280 C   0  0  0  0  0  2  0  0  0  0  0  0
  190.4820  176.1690  143.7410 C   0  0  0  0  0  2  0  0  0  0  0  0
  191.6790  177.0520  144.0440 C   0  0  0  0  0  2  0  0  0  0  0  0
  190.3560  177.7750  145.8420 C   0  0  0  0  0  2  0  0  0  0  0  0
  190.0270  177.1180  147.1660 C   0  0  1  0  0  0  0  0  0  0  0  0
  189.9220  178.1600  148.2620 C   0  0  0  0  0  1  0  0  0  0  0  0
  191.9680  176.1370  146.1740 C   0  0  0  0  0  2  0  0  0  0  0  0
  191.7070  177.3770  145.4600 N   0  0  0  0  0  0  0  0  0  0  0  0
  188.8300  176.4120  147.0620 O   0  0  0  0  0  1  0  0  0  0  0  0
  191.1650  176.1720  147.4520 C   0  0  0  0  0  2  0  0  0  0  0  0
  188.9630  177.9370  138.1910 S   0  0  0  0  0  0  0  0  0  0  0  0
  187.9670  176.4810  137.7200 C   0  0  1  0  0  3  0  0  0  0  0  0
  186.5440  176.9120  137.4330 C   0  0  0  0  0  1  0  0  0  0  0  0
  188.5080  175.8760  136.5800 O   0  0  0  0  0  0  0  0  0  0  0  0
  189.2800  174.8130  137.0590 C   0  0  2  0  0  3  0  0  0  0  0  0
  191.8760  174.6630  137.0080 C   0  0  2  0  0  0  0  0  0  0  0  0
  191.2280  173.5310  136.4180 O   0  0  0  0  0  0  0  0  0  0  0  0
  190.5690  174.7190  136.2510 C   0  0  1  0  0  0  0  0  0  0  0  0
  192.7300  175.4090  136.1440 O   0  0  0  0  0  0  0  0  0  0  0  0
  193.2890  174.2770  136.6860 C   0  0  1  0  0  3  0  0  0  0  0  0
  190.5570  175.1180  134.9070 O   0  0  0  0  0  1  0  0  0  0  0  0
  194.8940  173.4330  138.3790 C   0  0  0  0  0  1  0  0  0  0  0  0
  195.1560  175.5750  137.3880 O   0  0  0  0  0  1  0  0  0  0  0  0
  194.1990  174.6640  137.8360 C   0  0  1  0  0  3  0  0  0  0  0  0
  188.4790  173.5180  136.9910 C   0  0  0  0  0  2  0  0  0  0  0  0
  186.2450  173.3430  136.1780 F   0  0  0  0  0  0  0  0  0  0  0  0
  187.5580  173.5190  135.7840 C   0  0  0  0  0  2  0  0  0  0  0  0
  1 27  1  6  0  0  0
  1  5  1  0  0  0  0
  1 12  1  0  0  0  0
  2  8  1  1  0  0  0
  2 10  1  0  0  0  0
  4 14  2  0  0  0  0
  5  3  1  6  0  0  0
  5 16  1  0  0  0  0
  6 10  1  6  0  0  0
  6 17  1  0  0  0  0
  7  2  1  0  0  0  0
  9 11  1  6  0  0  0
  9  6  1  0  0  0  0
 11  7  1  0  0  0  0
 12 13  2  0  0  0  0
 13  9  1  0  0  0  0
 13  4  1  0  0  0  0
 14 17  1  0  0  0  0
 15  4  1  0  0  0  0
 15 18  1  1  0  0  0
 16 15  1  0  0  0  0
 18 19  1  0  0  0  0
 19 24  1  0  0  0  0
 20 21  1  0  0  0  0
 21 26  1  0  0  0  0
 21 22  1  1  0  0  0
 23 26  1  0  0  0  0
 24 20  1  0  0  0  0
 24 23  1  0  0  0  0
 25 21  1  0  0  0  0
 28 29  1  6  0  0  0
 28 27  1  0  0  0  0
 30 31  1  0  0  0  0
 30 28  1  0  0  0  0
 31 41  1  6  0  0  0
 32 35  1  6  0  0  0
 33 32  1  0  0  0  0
 34 37  1  6  0  0  0
 34 33  1  0  0  0  0
 34 32  1  0  0  0  0
 34 31  1  0  0  0  0
 35 36  1  0  0  0  0
 36 32  1  0  0  0  0
 36 40  1  1  0  0  0
 39 40  1  0  0  0  0
 40 38  1  6  0  0  0
 43 42  1  0  0  0  0
 43 41  1  0  0  0  0
M  END
>  <MODEL>
2

>  <REMARK>
 VINA RESULT:      -7.6      3.291      6.264
  Name = 
  11 active torsions:
  status: ('A' for Active; 'I' for Inactive)
    1  A    between atoms: C_1  and  C_34
    2  A    between atoms: C_1  and  C_35
    3  A    between atoms: C_2  and  S_6
    4  A    between atoms: O_3  and  C_4
    5  A    between atoms: O_3  and  C_12
    6  A    between atoms: C_4  and  C_15
    7  A    between atoms: C_4  and  C_22
    8  A    between atoms: S_6  and  C_12
    9  A    between atoms: C_15  and  C_42
   10  A    between atoms: C_31  and  C_40
   11  A    between atoms: N_32  and  C_35
                            x       y       z     vdW  Elec       q    Type
                         _______ _______ _______ _____ _____    ______ ____

>  <TORSDO>
F 11

$$$$
=
 OpenBabel11052416113D

 43 48  0  0  1  0  0  0  0  0999 V2000
  189.2670  178.0140  140.5530 C   0  0  1  0  0  3  0  0  0  0  0  0
  183.2760  178.5960  143.1160 C   0  0  1  0  0  3  0  0  0  0  0  0
  190.6510  177.0710  138.6680 C   0  0  0  0  0  1  0  0  0  0  0  0
  186.5880  178.4320  139.1620 C   0  0  0  0  0  0  0  0  0  0  0  0
  189.4010  176.8820  139.5140 C   0  0  2  0  0  3  0  0  0  0  0  0
  184.1970  178.3090  140.7620 C   0  0  1  0  0  3  0  0  0  0  0  0
  184.4590  179.4790  143.5340 C   0  0  0  0  0  2  0  0  0  0  0  0
  182.0460  178.9800  143.9100 C   0  0  0  0  0  1  0  0  0  0  0  0
  185.5330  178.3420  141.5420 C   0  0  2  0  0  3  0  0  0  0  0  0
  182.9920  178.7220  141.6200 C   0  0  0  0  0  2  0  0  0  0  0  0
  185.5770  179.5460  142.4860 C   0  0  0  0  0  2  0  0  0  0  0  0
  187.9280  178.0640  141.2350 C   0  0  0  0  0  3  0  0  0  0  0  0
  186.7460  178.2880  140.6430 C   0  0  0  0  0  0  0  0  0  0  0  0
  185.4100  178.8370  138.6640 C   0  0  0  0  0  3  0  0  0  0  0  0
  187.7140  178.0310  138.2310 C   0  0  1  0  0  3  0  0  0  0  0  0
  188.2300  176.7280  138.6440 N   0  0  0  0  0  2  0  0  0  0  0  0
  184.2640  179.2270  139.5450 C   0  0  0  0  0  2  0  0  0  0  0  0
  187.3210  177.9850  136.7570 C   0  0  0  0  0  2  0  0  0  0  0  0
  187.5840  176.6020  136.1870 C   0  0  0  0  0  2  0  0  0  0  0  0
  185.7460  175.2200  136.6490 C   0  0  0  0  0  2  0  0  0  0  0  0
  184.2600  175.5090  136.6670 C   0  0  1  0  0  0  0  0  0  0  0  0
  183.4810  174.3080  136.1690 C   0  0  0  0  0  1  0  0  0  0  0  0
  185.4500  177.1750  135.4310 C   0  0  0  0  0  2  0  0  0  0  0  0
  186.3610  176.0580  135.6250 N   0  0  0  0  0  0  0  0  0  0  0  0
  183.8540  175.8390  137.9580 O   0  0  0  0  0  1  0  0  0  0  0  0
  184.0560  176.6820  135.7430 C   0  0  0  0  0  2  0  0  0  0  0  0
  190.6040  177.9300  141.8010 S   0  0  0  0  0  0  0  0  0  0  0  0
  189.4990  177.5610  143.2080 C   0  0  1  0  0  3  0  0  0  0  0  0
  189.3830  176.0610  143.3790 C   0  0  0  0  0  1  0  0  0  0  0  0
  190.0100  178.1250  144.3810 O   0  0  0  0  0  0  0  0  0  0  0  0
  190.2500  177.0440  145.2360 C   0  0  2  0  0  3  0  0  0  0  0  0
  188.1770  177.9020  146.5500 C   0  0  2  0  0  0  0  0  0  0  0  0
  188.4510  176.5130  146.7620 O   0  0  0  0  0  0  0  0  0  0  0  0
  189.5600  177.2930  146.5710 C   0  0  1  0  0  0  0  0  0  0  0  0
  188.2180  178.7270  147.7120 O   0  0  0  0  0  0  0  0  0  0  0  0
  187.0450  178.0350  147.5250 C   0  0  1  0  0  3  0  0  0  0  0  0
  190.3400  177.3730  147.7340 O   0  0  0  0  0  1  0  0  0  0  0  0
  184.6760  178.2330  146.8160 C   0  0  0  0  0  1  0  0  0  0  0  0
  185.8210  180.0540  147.8220 O   0  0  0  0  0  1  0  0  0  0  0  0
  185.9920  178.9700  146.9620 C   0  0  1  0  0  3  0  0  0  0  0  0
  191.7510  176.8410  145.4080 C   0  0  0  0  0  2  0  0  0  0  0  0
  192.7130  175.4320  147.0720 F   0  0  0  0  0  0  0  0  0  0  0  0
  192.0530  175.4230  145.8580 C   0  0  0  0  0  2  0  0  0  0  0  0
  1 12  1  0  0  0  0
  1 27  1  1  0  0  0
  2  7  1  0  0  0  0
  2  8  1  1  0  0  0
  4 13  1  0  0  0  0
  5  3  1  6  0  0  0
  5  1  1  0  0  0  0
  6 17  1  6  0  0  0
  6  9  1  0  0  0  0
  6 10  1  0  0  0  0
  9 11  1  6  0  0  0
 10  2  1  0  0  0  0
 11  7  1  0  0  0  0
 13 12  2  0  0  0  0
 13  9  1  0  0  0  0
 14  4  2  0  0  0  0
 14 17  1  0  0  0  0
 15 18  1  6  0  0  0
 15 16  1  0  0  0  0
 15  4  1  0  0  0  0
 16  5  1  0  0  0  0
 19 18  1  0  0  0  0
 20 21  1  0  0  0  0
 21 22  1  6  0  0  0
 21 25  1  0  0  0  0
 23 24  1  0  0  0  0
 23 26  1  0  0  0  0
 24 19  1  0  0  0  0
 24 20  1  0  0  0  0
 26 21  1  0  0  0  0
 27 28  1  0  0  0  0
 28 29  1  1  0  0  0
 28 30  1  0  0  0  0
 30 31  1  0  0  0  0
 31 41  1  1  0  0  0
 31 34  1  0  0  0  0
 32 34  1  0  0  0  0
 32 33  1  1  0  0  0
 32 36  1  0  0  0  0
 32 35  1  0  0  0  0
 34 33  1  0  0  0  0
 34 37  1  1  0  0  0
 36 40  1  6  0  0  0
 36 35  1  0  0  0  0
 40 38  1  1  0  0  0
 40 39  1  0  0  0  0
 41 43  1  0  0  0  0
 43 42  1  0  0  0  0
M  END
>  <MODEL>
3

>  <REMARK>
 VINA RESULT:      -7.5      3.278      9.365
  Name = 
  11 active torsions:
  status: ('A' for Active; 'I' for Inactive)
    1  A    between atoms: C_1  and  C_34
    2  A    between atoms: C_1  and  C_35
    3  A    between atoms: C_2  and  S_6
    4  A    between atoms: O_3  and  C_4
    5  A    between atoms: O_3  and  C_12
    6  A    between atoms: C_4  and  C_15
    7  A    between atoms: C_4  and  C_22
    8  A    between atoms: S_6  and  C_12
    9  A    between atoms: C_15  and  C_42
   10  A    between atoms: C_31  and  C_40
   11  A    between atoms: N_32  and  C_35
                            x       y       z     vdW  Elec       q    Type
                         _______ _______ _______ _____ _____    ______ ____

>  <TORSDO>
F 11

$$$$
=
 OpenBabel11052416113D

 43 48  0  0  1  0  0  0  0  0999 V2000
  186.8680  178.2090  140.2690 C   0  0  1  0  0  3  0  0  0  0  0  0
  189.1050  178.0100  146.4140 C   0  0  1  0  0  3  0  0  0  0  0  0
  187.4740  178.4240  137.8310 C   0  0  0  0  0  1  0  0  0  0  0  0
  189.3800  176.8920  141.3830 C   0  0  0  0  0  0  0  0  0  0  0  0
  187.8700  178.7930  139.2520 C   0  0  2  0  0  3  0  0  0  0  0  0
  190.0550  177.3760  144.1410 C   0  0  1  0  0  3  0  0  0  0  0  0
  187.6940  177.5520  146.0170 C   0  0  0  0  0  2  0  0  0  0  0  0
  189.2930  177.8470  147.9060 C   0  0  0  0  0  1  0  0  0  0  0  0
  188.6530  177.8540  143.6920 C   0  0  2  0  0  3  0  0  0  0  0  0
  190.1750  177.2190  145.6640 C   0  0  0  0  0  2  0  0  0  0  0  0
  187.5620  177.1890  144.5320 C   0  0  0  0  0  2  0  0  0  0  0  0
  187.3320  178.2820  141.6980 C   0  0  0  0  0  3  0  0  0  0  0  0
  188.4110  177.6760  142.2110 C   0  0  0  0  0  0  0  0  0  0  0  0
  190.3260  176.1640  141.9950 C   0  0  0  0  0  3  0  0  0  0  0  0
  189.3540  176.9970  139.8720 C   0  0  1  0  0  3  0  0  0  0  0  0
  189.2640  178.4060  139.4970 N   0  0  0  0  0  2  0  0  0  0  0  0
  190.4020  176.0440  143.4850 C   0  0  0  0  0  2  0  0  0  0  0  0
  190.5540  176.3560  139.1790 C   0  0  0  0  0  2  0  0  0  0  0  0
  190.0960  175.5480  137.9780 C   0  0  0  0  0  2  0  0  0  0  0  0
  192.1990  176.4090  137.3980 C   0  0  0  0  0  2  0  0  0  0  0  0
  193.5510  175.7390  137.2700 C   0  0  1  0  0  0  0  0  0  0  0  0
  194.3440  176.3620  136.1390 C   0  0  0  0  0  1  0  0  0  0  0  0
  191.7800  174.1350  137.1890 C   0  0  0  0  0  2  0  0  0  0  0  0
  191.1750  175.4450  137.0110 N   0  0  0  0  0  0  0  0  0  0  0  0
  194.2550  175.8550  138.4670 O   0  0  0  0  0  1  0  0  0  0  0  0
  193.2670  174.2890  136.9720 C   0  0  0  0  0  2  0  0  0  0  0  0
  185.2210  178.9910  140.1030 S   0  0  0  0  0  0  0  0  0  0  0  0
  184.4090  177.9440  141.3590 C   0  0  1  0  0  3  0  0  0  0  0  0
  184.0410  178.7890  142.5610 C   0  0  0  0  0  1  0  0  0  0  0  0
  183.2540  177.3630  140.8270 O   0  0  0  0  0  0  0  0  0  0  0  0
  183.0470  178.0090  139.6030 C   0  0  2  0  0  3  0  0  0  0  0  0
  181.5510  179.9420  138.7150 C   0  0  2  0  0  0  0  0  0  0  0  0
  180.9930  178.6420  138.4940 O   0  0  0  0  0  0  0  0  0  0  0  0
  181.7240  178.7630  139.6460 C   0  0  1  0  0  0  0  0  0  0  0  0
  180.7720  180.8220  139.5220 O   0  0  0  0  0  0  0  0  0  0  0  0
  180.3930  180.7460  138.2030 C   0  0  1  0  0  3  0  0  0  0  0  0
  180.9150  178.6490  140.7850 O   0  0  0  0  0  1  0  0  0  0  0  0
  180.5420  181.8640  135.9940 C   0  0  0  0  0  1  0  0  0  0  0  0
  180.3350  183.1170  138.0010 O   0  0  0  0  0  1  0  0  0  0  0  0
  180.9070  181.9650  137.4600 C   0  0  1  0  0  3  0  0  0  0  0  0
  183.0780  176.9930  138.4680 C   0  0  0  0  0  2  0  0  0  0  0  0
  181.3710  175.4730  139.1440 F   0  0  0  0  0  0  0  0  0  0  0  0
  182.7370  175.6050  138.9800 C   0  0  0  0  0  2  0  0  0  0  0  0
  1 27  1  1  0  0  0
  1 12  1  0  0  0  0
  2  8  1  1  0  0  0
  4 14  2  0  0  0  0
  4 13  1  0  0  0  0
  5  3  1  6  0  0  0
  5 16  1  0  0  0  0
  5  1  1  0  0  0  0
  6 17  1  6  0  0  0
  6 10  1  0  0  0  0
  7  2  1  0  0  0  0
  9  6  1  0  0  0  0
  9 11  1  1  0  0  0
 10  2  1  0  0  0  0
 11  7  1  0  0  0  0
 12 13  2  0  0  0  0
 13  9  1  0  0  0  0
 14 17  1  0  0  0  0
 15 18  1  6  0  0  0
 15  4  1  0  0  0  0
 16 15  1  0  0  0  0
 19 18  1  0  0  0  0
 21 22  1  6  0  0  0
 21 20  1  0  0  0  0
 21 25  1  0  0  0  0
 24 23  1  0  0  0  0
 24 20  1  0  0  0  0
 24 19  1  0  0  0  0
 26 23  1  0  0  0  0
 26 21  1  0  0  0  0
 27 28  1  0  0  0  0
 28 29  1  1  0  0  0
 30 28  1  0  0  0  0
 31 41  1  6  0  0  0
 31 34  1  0  0  0  0
 31 30  1  0  0  0  0
 32 33  1  1  0  0  0
 32 35  1  0  0  0  0
 32 34  1  0  0  0  0
 33 34  1  0  0  0  0
 34 37  1  1  0  0  0
 36 40  1  6  0  0  0
 36 32  1  0  0  0  0
 36 35  1  0  0  0  0
 40 38  1  6  0  0  0
 40 39  1  0  0  0  0
 41 43  1  0  0  0  0
 43 42  1  0  0  0  0
M  END
>  <MODEL>
4

>  <REMARK>
 VINA RESULT:      -7.4      2.907      6.967
  Name = 
  11 active torsions:
  status: ('A' for Active; 'I' for Inactive)
    1  A    between atoms: C_1  and  C_34
    2  A    between atoms: C_1  and  C_35
    3  A    between atoms: C_2  and  S_6
    4  A    between atoms: O_3  and  C_4
    5  A    between atoms: O_3  and  C_12
    6  A    between atoms: C_4  and  C_15
    7  A    between atoms: C_4  and  C_22
    8  A    between atoms: S_6  and  C_12
    9  A    between atoms: C_15  and  C_42
   10  A    between atoms: C_31  and  C_40
   11  A    between atoms: N_32  and  C_35
                            x       y       z     vdW  Elec       q    Type
                         _______ _______ _______ _____ _____    ______ ____

>  <TORSDO>
F 11

$$$$
=
 OpenBabel11052416113D

 43 48  0  0  1  0  0  0  0  0999 V2000
  186.0190  178.8790  141.3460 C   0  0  1  0  0  3  0  0  0  0  0  0
  190.4020  176.3460  137.2010 C   0  0  1  0  0  3  0  0  0  0  0  0
  185.0500  178.7920  143.6720 C   0  0  0  0  0  1  0  0  0  0  0  0
  188.8720  177.9400  141.8650 C   0  0  0  0  0  0  0  0  0  0  0  0
  185.7190  177.9870  142.5680 C   0  0  2  0  0  3  0  0  0  0  0  0
  190.2700  176.6090  139.7280 C   0  0  1  0  0  3  0  0  0  0  0  0
  189.7010  177.6920  136.9650 C   0  0  0  0  0  2  0  0  0  0  0  0
  191.3370  176.0500  136.0490 C   0  0  0  0  0  1  0  0  0  0  0  0
  188.9320  177.2850  139.3450 C   0  0  2  0  0  3  0  0  0  0  0  0
  191.1780  176.3490  138.5160 C   0  0  0  0  0  2  0  0  0  0  0  0
  189.1490  178.3290  138.2470 C   0  0  0  0  0  2  0  0  0  0  0  0
  186.9270  178.2410  140.3300 C   0  0  0  0  0  3  0  0  0  0  0  0
  188.1970  177.8610  140.5320 C   0  0  0  0  0  0  0  0  0  0  0  0
  190.1930  177.7170  141.9450 C   0  0  0  0  0  3  0  0  0  0  0  0
  188.0590  178.1740  143.1210 C   0  0  1  0  0  3  0  0  0  0  0  0
  186.8950  177.2910  143.1030 N   0  0  0  0  0  2  0  0  0  0  0  0
  191.0340  177.4660  140.7320 C   0  0  0  0  0  2  0  0  0  0  0  0
  188.8380  177.9710  144.4180 C   0  0  0  0  0  2  0  0  0  0  0  0
  187.9150  177.4630  145.5110 C   0  0  0  0  0  2  0  0  0  0  0  0
  189.9500  176.4000  145.9870 C   0  0  0  0  0  2  0  0  0  0  0  0
  191.0760  176.7760  146.9280 C   0  0  1  0  0  0  0  0  0  0  0  0
  191.6890  175.5330  147.5430 C   0  0  0  0  0  1  0  0  0  0  0  0
  189.0560  177.9220  147.4960 C   0  0  0  0  0  2  0  0  0  0  0  0
  188.6950  176.8560  146.5750 N   0  0  0  0  0  0  0  0  0  0  0  0
  192.0500  177.4980  146.2410 O   0  0  0  0  0  1  0  0  0  0  0  0
  190.4520  177.6330  147.9990 C   0  0  0  0  0  2  0  0  0  0  0  0
  184.4750  179.4430  140.5410 S   0  0  0  0  0  0  0  0  0  0  0  0
  184.2920  177.9710  139.4760 C   0  0  1  0  0  3  0  0  0  0  0  0
  183.1260  177.1360  139.9640 C   0  0  0  0  0  1  0  0  0  0  0  0
  184.0640  178.3610  138.1530 O   0  0  0  0  0  0  0  0  0  0  0  0
  183.8460  177.1710  137.4500 C   0  0  2  0  0  3  0  0  0  0  0  0
  185.4940  175.2280  136.9300 C   0  0  2  0  0  0  0  0  0  0  0  0
  184.9860  175.8740  135.7570 O   0  0  0  0  0  0  0  0  0  0  0  0
  185.1590  176.6990  136.8360 C   0  0  1  0  0  0  0  0  0  0  0  0
  186.9090  175.2750  137.1010 O   0  0  0  0  0  0  0  0  0  0  0  0
  186.4540  174.2990  136.2470 C   0  0  1  0  0  3  0  0  0  0  0  0
  186.1790  177.6340  136.6130 O   0  0  0  0  0  1  0  0  0  0  0  0
  185.8440  171.9000  136.0740 C   0  0  0  0  0  1  0  0  0  0  0  0
  187.7780  172.6010  137.2620 O   0  0  0  0  0  1  0  0  0  0  0  0
  186.4640  172.9600  136.9610 C   0  0  1  0  0  3  0  0  0  0  0  0
  182.7740  177.3840  136.3890 C   0  0  0  0  0  2  0  0  0  0  0  0
  182.0650  175.2510  137.1850 F   0  0  0  0  0  0  0  0  0  0  0  0
  181.6200  176.4170  136.5890 C   0  0  0  0  0  2  0  0  0  0  0  0
  1 27  1  6  0  0  0
  1  5  1  0  0  0  0
  2  8  1  6  0  0  0
  2 10  1  0  0  0  0
  4 14  2  0  0  0  0
  4 15  1  0  0  0  0
  5 16  1  0  0  0  0
  5  3  1  1  0  0  0
  6 10  1  6  0  0  0
  6 17  1  0  0  0  0
  7  2  1  0  0  0  0
  7 11  1  0  0  0  0
  9 11  1  6  0  0  0
  9  6  1  0  0  0  0
  9 13  1  0  0  0  0
 12 13  2  0  0  0  0
 12  1  1  0  0  0  0
 13  4  1  0  0  0  0
 15 18  1  1  0  0  0
 16 15  1  0  0  0  0
 17 14  1  0  0  0  0
 18 19  1  0  0  0  0
 19 24  1  0  0  0  0
 20 24  1  0  0  0  0
 20 21  1  0  0  0  0
 21 22  1  1  0  0  0
 21 26  1  0  0  0  0
 23 26  1  0  0  0  0
 24 23  1  0  0  0  0
 25 21  1  0  0  0  0
 28 29  1  1  0  0  0
 28 27  1  0  0  0  0
 30 28  1  0  0  0  0
 31 41  1  6  0  0  0
 31 30  1  0  0  0  0
 32 33  1  6  0  0  0
 32 35  1  0  0  0  0
 33 34  1  0  0  0  0
 34 37  1  6  0  0  0
 34 32  1  0  0  0  0
 34 31  1  0  0  0  0
 36 32  1  0  0  0  0
 36 40  1  1  0  0  0
 36 35  1  0  0  0  0
 40 38  1  6  0  0  0
 40 39  1  0  0  0  0
 41 43  1  0  0  0  0
 43 42  1  0  0  0  0
M  END
>  <MODEL>
5

>  <REMARK>
 VINA RESULT:      -7.2      1.845      2.178
  Name = 
  11 active torsions:
  status: ('A' for Active; 'I' for Inactive)
    1  A    between atoms: C_1  and  C_34
    2  A    between atoms: C_1  and  C_35
    3  A    between atoms: C_2  and  S_6
    4  A    between atoms: O_3  and  C_4
    5  A    between atoms: O_3  and  C_12
    6  A    between atoms: C_4  and  C_15
    7  A    between atoms: C_4  and  C_22
    8  A    between atoms: S_6  and  C_12
    9  A    between atoms: C_15  and  C_42
   10  A    between atoms: C_31  and  C_40
   11  A    between atoms: N_32  and  C_35
                            x       y       z     vdW  Elec       q    Type
                         _______ _______ _______ _____ _____    ______ ____

>  <TORSDO>
F 11

$$$$
=
 OpenBabel11052416113D

 43 48  0  0  1  0  0  0  0  0999 V2000
  186.5870  178.2850  139.7190 C   0  0  1  0  0  3  0  0  0  0  0  0
  188.1680  178.0620  146.0630 C   0  0  1  0  0  3  0  0  0  0  0  0
  187.4390  178.5640  137.3610 C   0  0  0  0  0  1  0  0  0  0  0  0
  189.0160  177.0420  141.0760 C   0  0  0  0  0  0  0  0  0  0  0  0
  187.6680  178.9230  138.8220 C   0  0  2  0  0  3  0  0  0  0  0  0
  189.3770  177.5040  143.8960 C   0  0  1  0  0  3  0  0  0  0  0  0
  186.8260  177.5600  145.5130 C   0  0  0  0  0  2  0  0  0  0  0  0
  188.2030  177.8810  147.5650 C   0  0  0  0  0  1  0  0  0  0  0  0
  188.0130  177.9370  143.3070 C   0  0  2  0  0  3  0  0  0  0  0  0
  189.3410  177.3240  145.4210 C   0  0  0  0  0  2  0  0  0  0  0  0
  186.8650  177.2180  144.0180 C   0  0  0  0  0  2  0  0  0  0  0  0
  186.8940  178.3510  141.1890 C   0  0  0  0  0  3  0  0  0  0  0  0
  187.9360  177.7750  141.8070 C   0  0  0  0  0  0  0  0  0  0  0  0
  189.9190  176.3390  141.7750 C   0  0  0  0  0  3  0  0  0  0  0  0
  189.1450  177.1720  139.5720 C   0  0  1  0  0  3  0  0  0  0  0  0
  189.0420  178.5830  139.2080 N   0  0  0  0  0  2  0  0  0  0  0  0
  189.8410  176.1960  143.2630 C   0  0  0  0  0  2  0  0  0  0  0  0
  190.4360  176.5880  139.0020 C   0  0  0  0  0  2  0  0  0  0  0  0
  190.1170  175.5210  137.9700 C   0  0  0  0  0  2  0  0  0  0  0  0
  192.2280  176.3720  137.4040 C   0  0  0  0  0  2  0  0  0  0  0  0
  193.5520  175.6780  137.1610 C   0  0  1  0  0  0  0  0  0  0  0  0
  194.3290  176.3870  136.0700 C   0  0  0  0  0  1  0  0  0  0  0  0
  191.7260  174.1450  136.9840 C   0  0  0  0  0  2  0  0  0  0  0  0
  191.1600  175.4840  136.9590 N   0  0  0  0  0  0  0  0  0  0  0  0
  194.2980  175.6500  138.3380 O   0  0  0  0  0  1  0  0  0  0  0  0
  193.2100  174.2750  136.7300 C   0  0  0  0  0  2  0  0  0  0  0  0
  184.9390  179.0100  139.3890 S   0  0  0  0  0  0  0  0  0  0  0  0
  184.0110  177.7630  140.3480 C   0  0  1  0  0  3  0  0  0  0  0  0
  183.8290  178.2510  141.7700 C   0  0  0  0  0  1  0  0  0  0  0  0
  182.7580  177.5440  139.7670 O   0  0  0  0  0  0  0  0  0  0  0  0
  182.7510  176.1930  139.4040 C   0  0  2  0  0  3  0  0  0  0  0  0
  184.4850  175.4690  137.6060 C   0  0  2  0  0  0  0  0  0  0  0  0
  183.2440  174.7620  137.5180 O   0  0  0  0  0  0  0  0  0  0  0  0
  183.1340  176.0610  137.9350 C   0  0  1  0  0  0  0  0  0  0  0  0
  184.8500  176.2290  136.4570 O   0  0  0  0  0  0  0  0  0  0  0  0
  185.1360  174.8860  136.3870 C   0  0  1  0  0  3  0  0  0  0  0  0
  182.4710  176.8530  136.9880 O   0  0  0  0  0  1  0  0  0  0  0  0
  186.9420  173.1940  136.5640 C   0  0  0  0  0  1  0  0  0  0  0  0
  187.3640  175.3660  135.7030 O   0  0  0  0  0  1  0  0  0  0  0  0
  186.6140  174.6700  136.6500 C   0  0  1  0  0  3  0  0  0  0  0  0
  181.3810  175.5870  139.6840 C   0  0  0  0  0  2  0  0  0  0  0  0
  180.0480  176.8840  141.1750 F   0  0  0  0  0  0  0  0  0  0  0  0
  180.3340  176.6760  139.8390 C   0  0  0  0  0  2  0  0  0  0  0  0
  1 27  1  1  0  0  0
  1 12  1  0  0  0  0
  2  8  1  1  0  0  0
  4 14  2  0  0  0  0
  4 13  1  0  0  0  0
  5  3  1  6  0  0  0
  5 16  1  0  0  0  0
  5  1  1  0  0  0  0
  6 17  1  6  0  0  0
  6 10  1  0  0  0  0
  7  2  1  0  0  0  0
  9  6  1  0  0  0  0
  9 11  1  1  0  0  0
 10  2  1  0  0  0  0
 11  7  1  0  0  0  0
 12 13  2  0  0  0  0
 13  9  1  0  0  0  0
 14 17  1  0  0  0  0
 15 18  1  1  0  0  0
 15  4  1  0  0  0  0
 16 15  1  0  0  0  0
 19 18  1  0  0  0  0
 21 22  1  6  0  0  0
 21 20  1  0  0  0  0
 21 25  1  0  0  0  0
 24 23  1  0  0  0  0
 24 20  1  0  0  0  0
 24 19  1  0  0  0  0
 26 23  1  0  0  0  0
 26 21  1  0  0  0  0
 27 28  1  0  0  0  0
 28 29  1  1  0  0  0
 30 28  1  0  0  0  0
 31 41  1  6  0  0  0
 31 30  1  0  0  0  0
 32 35  1  6  0  0  0
 32 34  1  0  0  0  0
 33 32  1  0  0  0  0
 33 34  1  0  0  0  0
 34 37  1  6  0  0  0
 34 31  1  0  0  0  0
 36 35  1  0  0  0  0
 36 40  1  1  0  0  0
 36 32  1  0  0  0  0
 39 40  1  0  0  0  0
 40 38  1  6  0  0  0
 41 43  1  0  0  0  0
 43 42  1  0  0  0  0
M  END
>  <MODEL>
6

>  <REMARK>
 VINA RESULT:      -7.1      2.725      6.147
  Name = 
  11 active torsions:
  status: ('A' for Active; 'I' for Inactive)
    1  A    between atoms: C_1  and  C_34
    2  A    between atoms: C_1  and  C_35
    3  A    between atoms: C_2  and  S_6
    4  A    between atoms: O_3  and  C_4
    5  A    between atoms: O_3  and  C_12
    6  A    between atoms: C_4  and  C_15
    7  A    between atoms: C_4  and  C_22
    8  A    between atoms: S_6  and  C_12
    9  A    between atoms: C_15  and  C_42
   10  A    between atoms: C_31  and  C_40
   11  A    between atoms: N_32  and  C_35
                            x       y       z     vdW  Elec       q    Type
                         _______ _______ _______ _____ _____    ______ ____

>  <TORSDO>
F 11

$$$$
=
 OpenBabel11052416113D

 43 48  0  0  1  0  0  0  0  0999 V2000
  184.8370  178.2560  141.4940 C   0  0  1  0  0  3  0  0  0  0  0  0
  187.9620  178.1500  147.2410 C   0  0  1  0  0  3  0  0  0  0  0  0
  185.0100  178.7680  139.0310 C   0  0  0  0  0  1  0  0  0  0  0  0
  187.7120  177.4690  142.1320 C   0  0  0  0  0  0  0  0  0  0  0  0
  185.5260  179.1190  140.4180 C   0  0  2  0  0  3  0  0  0  0  0  0
  188.6740  177.9050  144.8110 C   0  0  1  0  0  3  0  0  0  0  0  0
  186.6400  177.4130  146.9900 C   0  0  0  0  0  2  0  0  0  0  0  0
  188.4030  177.9330  148.6720 C   0  0  0  0  0  1  0  0  0  0  0  0
  187.1510  178.0820  144.6000 C   0  0  2  0  0  3  0  0  0  0  0  0
  189.0520  177.6750  146.2820 C   0  0  0  0  0  2  0  0  0  0  0  0
  186.3660  177.1310  145.5060 C   0  0  0  0  0  2  0  0  0  0  0  0
  185.4840  178.3350  142.8500 C   0  0  0  0  0  3  0  0  0  0  0  0
  186.7330  177.9550  143.1540 C   0  0  0  0  0  0  0  0  0  0  0  0
  188.8730  176.9340  142.5380 C   0  0  0  0  0  3  0  0  0  0  0  0
  187.4370  177.6680  140.6560 C   0  0  1  0  0  3  0  0  0  0  0  0
  186.9910  179.0420  140.4380 N   0  0  0  0  0  2  0  0  0  0  0  0
  189.1950  176.7330  143.9860 C   0  0  0  0  0  2  0  0  0  0  0  0
  188.6280  177.3640  139.7500 C   0  0  0  0  0  2  0  0  0  0  0  0
  188.9930  178.5910  138.9340 C   0  0  0  0  0  2  0  0  0  0  0  0
  189.1260  176.7670  137.4660 C   0  0  0  0  0  2  0  0  0  0  0  0
  188.2700  176.3760  136.2790 C   0  0  1  0  0  0  0  0  0  0  0  0
  189.1220  175.7390  135.1990 C   0  0  0  0  0  1  0  0  0  0  0  0
  187.9810  178.6840  136.8310 C   0  0  0  0  0  2  0  0  0  0  0  0
  189.1640  178.2230  137.5390 N   0  0  0  0  0  0  0  0  0  0  0  0
  187.2710  175.4920  136.6830 O   0  0  0  0  0  1  0  0  0  0  0  0
  187.6570  177.6560  135.7720 C   0  0  0  0  0  2  0  0  0  0  0  0
  183.0550  178.6540  141.6250 S   0  0  0  0  0  0  0  0  0  0  0  0
  182.6000  177.9200  140.0160 C   0  0  1  0  0  3  0  0  0  0  0  0
  182.7030  176.4120  140.1010 C   0  0  0  0  0  1  0  0  0  0  0  0
  181.2910  178.2790  139.6780 O   0  0  0  0  0  0  0  0  0  0  0  0
  181.4080  179.0370  138.5080 C   0  0  2  0  0  3  0  0  0  0  0  0
  180.9490  181.4820  137.7510 C   0  0  2  0  0  0  0  0  0  0  0  0
  179.8320  180.6080  137.5590 O   0  0  0  0  0  0  0  0  0  0  0  0
  180.6010  180.3220  138.6550 C   0  0  1  0  0  0  0  0  0  0  0  0
  180.7280  182.5890  138.6220 O   0  0  0  0  0  0  0  0  0  0  0  0
  180.2800  182.7580  137.3340 C   0  0  1  0  0  3  0  0  0  0  0  0
  179.9040  180.5520  139.8490 O   0  0  0  0  0  1  0  0  0  0  0  0
  180.7150  183.9210  135.1860 C   0  0  0  0  0  1  0  0  0  0  0  0
  181.4640  184.8210  137.2520 O   0  0  0  0  0  1  0  0  0  0  0  0
  181.2620  183.6230  136.5670 C   0  0  1  0  0  3  0  0  0  0  0  0
  180.9440  178.2170  137.3100 C   0  0  0  0  0  2  0  0  0  0  0  0
  182.9420  177.0180  136.8060 F   0  0  0  0  0  0  0  0  0  0  0  0
  182.0860  177.9970  136.3350 C   0  0  0  0  0  2  0  0  0  0  0  0
  1 27  1  1  0  0  0
  1 12  1  0  0  0  0
  2  8  1  1  0  0  0
  4 14  2  0  0  0  0
  4 13  1  0  0  0  0
  5  3  1  6  0  0  0
  5 16  1  0  0  0  0
  5  1  1  0  0  0  0
  6 17  1  6  0  0  0
  6 10  1  0  0  0  0
  7  2  1  0  0  0  0
  9  6  1  0  0  0  0
  9 11  1  1  0  0  0
 10  2  1  0  0  0  0
 11  7  1  0  0  0  0
 12 13  2  0  0  0  0
 13  9  1  0  0  0  0
 14 17  1  0  0  0  0
 15 18  1  6  0  0  0
 15  4  1  0  0  0  0
 16 15  1  0  0  0  0
 19 18  1  0  0  0  0
 20 24  1  0  0  0  0
 21 22  1  6  0  0  0
 21 25  1  0  0  0  0
 21 20  1  0  0  0  0
 23 24  1  0  0  0  0
 24 19  1  0  0  0  0
 26 21  1  0  0  0  0
 26 23  1  0  0  0  0
 28 29  1  1  0  0  0
 28 27  1  0  0  0  0
 30 28  1  0  0  0  0
 31 41  1  6  0  0  0
 31 34  1  0  0  0  0
 31 30  1  0  0  0  0
 32 33  1  1  0  0  0
 32 35  1  0  0  0  0
 32 34  1  0  0  0  0
 33 34  1  0  0  0  0
 34 37  1  1  0  0  0
 36 40  1  6  0  0  0
 36 32  1  0  0  0  0
 36 35  1  0  0  0  0
 40 38  1  6  0  0  0
 40 39  1  0  0  0  0
 43 42  1  0  0  0  0
 43 41  1  0  0  0  0
M  END
>  <MODEL>
7

>  <REMARK>
 VINA RESULT:      -7.0      3.001      7.565
  Name = 
  11 active torsions:
  status: ('A' for Active; 'I' for Inactive)
    1  A    between atoms: C_1  and  C_34
    2  A    between atoms: C_1  and  C_35
    3  A    between atoms: C_2  and  S_6
    4  A    between atoms: O_3  and  C_4
    5  A    between atoms: O_3  and  C_12
    6  A    between atoms: C_4  and  C_15
    7  A    between atoms: C_4  and  C_22
    8  A    between atoms: S_6  and  C_12
    9  A    between atoms: C_15  and  C_42
   10  A    between atoms: C_31  and  C_40
   11  A    between atoms: N_32  and  C_35
                            x       y       z     vdW  Elec       q    Type
                         _______ _______ _______ _____ _____    ______ ____

>  <TORSDO>
F 11

$$$$
=
 OpenBabel11052416113D

 43 48  0  0  1  0  0  0  0  0999 V2000
  188.0890  178.1780  138.5430 C   0  0  1  0  0  3  0  0  0  0  0  0
  188.3260  177.1820  145.0050 C   0  0  1  0  0  3  0  0  0  0  0  0
  186.6480  178.1370  136.4740 C   0  0  0  0  0  1  0  0  0  0  0  0
  186.0180  178.8130  140.6870 C   0  0  0  0  0  0  0  0  0  0  0  0
  186.8740  177.5280  137.8490 C   0  0  2  0  0  3  0  0  0  0  0  0
  186.5090  177.8760  143.3650 C   0  0  1  0  0  3  0  0  0  0  0  0
  189.4010  177.9610  144.2340 C   0  0  0  0  0  2  0  0  0  0  0  0
  188.6930  177.1240  146.4720 C   0  0  0  0  0  1  0  0  0  0  0  0
  187.6920  177.7500  142.3760 C   0  0  2  0  0  3  0  0  0  0  0  0
  186.9500  177.8220  144.8360 C   0  0  0  0  0  2  0  0  0  0  0  0
  188.9110  178.5190  142.8910 C   0  0  0  0  0  2  0  0  0  0  0  0
  188.2130  177.8420  140.0040 C   0  0  0  0  0  3  0  0  0  0  0  0
  187.3300  178.1500  140.9640 C   0  0  0  0  0  0  0  0  0  0  0  0
  185.2770  179.2550  141.7140 C   0  0  0  0  0  3  0  0  0  0  0  0
  185.4890  178.8970  139.2700 C   0  0  1  0  0  3  0  0  0  0  0  0
  185.6350  177.5910  138.6320 N   0  0  0  0  0  2  0  0  0  0  0  0
  185.7510  179.1780  143.1310 C   0  0  0  0  0  2  0  0  0  0  0  0
  184.0370  179.3580  139.1700 C   0  0  0  0  0  2  0  0  0  0  0  0
  183.2040  178.3150  138.4470 C   0  0  0  0  0  2  0  0  0  0  0  0
  181.9370  177.7370  140.3350 C   0  0  0  0  0  2  0  0  0  0  0  0
  181.0670  178.5760  141.2480 C   0  0  1  0  0  0  0  0  0  0  0  0
  179.8650  177.7780  141.7130 C   0  0  0  0  0  1  0  0  0  0  0  0
  181.4500  179.6810  139.1630 C   0  0  0  0  0  2  0  0  0  0  0  0
  181.8560  178.2960  138.9900 N   0  0  0  0  0  0  0  0  0  0  0  0
  181.8070  179.0080  142.3460 O   0  0  0  0  0  1  0  0  0  0  0  0
  180.6210  179.7570  140.4240 C   0  0  0  0  0  2  0  0  0  0  0  0
  189.6470  177.7730  137.6710 S   0  0  0  0  0  0  0  0  0  0  0  0
  189.6210  175.9970  138.0950 C   0  0  1  0  0  3  0  0  0  0  0  0
  189.4100  175.1790  136.8380 C   0  0  0  0  0  1  0  0  0  0  0  0
  190.8300  175.6280  138.6930 O   0  0  0  0  0  0  0  0  0  0  0  0
  191.7370  176.6330  138.3400 C   0  0  2  0  0  3  0  0  0  0  0  0
  193.9570  175.4160  137.7450 C   0  0  2  0  0  0  0  0  0  0  0  0
  192.7900  174.7360  137.2720 O   0  0  0  0  0  0  0  0  0  0  0  0
  192.6930  176.1020  137.2790 C   0  0  1  0  0  0  0  0  0  0  0  0
  194.8830  175.8290  136.7440 O   0  0  0  0  0  0  0  0  0  0  0  0
  194.9810  174.5120  137.1260 C   0  0  1  0  0  3  0  0  0  0  0  0
  192.6200  176.6200  135.9790 O   0  0  0  0  0  1  0  0  0  0  0  0
  196.6720  172.9240  138.0060 C   0  0  0  0  0  1  0  0  0  0  0  0
  197.1760  175.2260  137.7070 O   0  0  0  0  0  1  0  0  0  0  0  0
  196.1560  174.3470  138.0710 C   0  0  1  0  0  3  0  0  0  0  0  0
  192.4840  177.1160  139.5770 C   0  0  0  0  0  2  0  0  0  0  0  0
  192.0640  177.9750  141.7610 F   0  0  0  0  0  0  0  0  0  0  0  0
  191.5680  177.1270  140.7880 C   0  0  0  0  0  2  0  0  0  0  0  0
  1 27  1  6  0  0  0
  1 12  1  0  0  0  0
  2  8  1  1  0  0  0
  4 13  1  0  0  0  0
  4 14  2  0  0  0  0
  5  3  1  6  0  0  0
  5  1  1  0  0  0  0
  5 16  1  0  0  0  0
  6 17  1  1  0  0  0
  6 10  1  0  0  0  0
  7  2  1  0  0  0  0
  9 11  1  1  0  0  0
  9  6  1  0  0  0  0
 10  2  1  0  0  0  0
 11  7  1  0  0  0  0
 12 13  2  0  0  0  0
 13  9  1  0  0  0  0
 14 17  1  0  0  0  0
 15 18  1  1  0  0  0
 15  4  1  0  0  0  0
 16 15  1  0  0  0  0
 19 24  1  0  0  0  0
 19 18  1  0  0  0  0
 20 21  1  0  0  0  0
 21 22  1  1  0  0  0
 21 25  1  0  0  0  0
 23 26  1  0  0  0  0
 24 23  1  0  0  0  0
 24 20  1  0  0  0  0
 26 21  1  0  0  0  0
 27 28  1  0  0  0  0
 28 29  1  6  0  0  0
 28 30  1  0  0  0  0
 31 30  1  0  0  0  0
 31 41  1  1  0  0  0
 32 35  1  6  0  0  0
 33 34  1  0  0  0  0
 33 32  1  0  0  0  0
 34 37  1  6  0  0  0
 34 32  1  0  0  0  0
 34 31  1  0  0  0  0
 35 36  1  0  0  0  0
 36 32  1  0  0  0  0
 36 40  1  1  0  0  0
 39 40  1  0  0  0  0
 40 38  1  6  0  0  0
 41 43  1  0  0  0  0
 43 42  1  0  0  0  0
M  END
>  <MODEL>
8

>  <REMARK>
 VINA RESULT:      -7.0      4.261      8.693
  Name = 
  11 active torsions:
  status: ('A' for Active; 'I' for Inactive)
    1  A    between atoms: C_1  and  C_34
    2  A    between atoms: C_1  and  C_35
    3  A    between atoms: C_2  and  S_6
    4  A    between atoms: O_3  and  C_4
    5  A    between atoms: O_3  and  C_12
    6  A    between atoms: C_4  and  C_15
    7  A    between atoms: C_4  and  C_22
    8  A    between atoms: S_6  and  C_12
    9  A    between atoms: C_15  and  C_42
   10  A    between atoms: C_31  and  C_40
   11  A    between atoms: N_32  and  C_35
                            x       y       z     vdW  Elec       q    Type
                         _______ _______ _______ _____ _____    ______ ____

>  <TORSDO>
F 11

$$$$
=
 OpenBabel11052416113D

 43 48  0  0  1  0  0  0  0  0999 V2000
  186.5500  178.2380  140.6550 C   0  0  1  0  0  3  0  0  0  0  0  0
  188.3930  178.0310  146.9290 C   0  0  1  0  0  3  0  0  0  0  0  0
  187.3100  178.4550  138.2610 C   0  0  0  0  0  1  0  0  0  0  0  0
  188.9870  176.9180  141.9250 C   0  0  0  0  0  0  0  0  0  0  0  0
  187.6150  178.8230  139.7050 C   0  0  2  0  0  3  0  0  0  0  0  0
  189.4850  177.3990  144.7200 C   0  0  1  0  0  3  0  0  0  0  0  0
  187.0110  177.5740  146.4440 C   0  0  0  0  0  2  0  0  0  0  0  0
  188.4860  177.8660  148.4310 C   0  0  0  0  0  1  0  0  0  0  0  0
  188.1150  177.8780  144.1840 C   0  0  2  0  0  3  0  0  0  0  0  0
  189.5080  177.2400  146.2480 C   0  0  0  0  0  2  0  0  0  0  0  0
  186.9720  177.2130  144.9530 C   0  0  0  0  0  2  0  0  0  0  0  0
  186.9230  178.3090  142.1110 C   0  0  0  0  0  3  0  0  0  0  0  0
  187.9670  177.7020  142.6910 C   0  0  0  0  0  0  0  0  0  0  0  0
  189.8910  176.1880  142.5950 C   0  0  0  0  0  3  0  0  0  0  0  0
  189.0560  177.0250  140.4160 C   0  0  1  0  0  3  0  0  0  0  0  0
  188.9910  178.4340  140.0370 N   0  0  0  0  0  2  0  0  0  0  0  0
  189.8720  176.0670  144.0870 C   0  0  0  0  0  2  0  0  0  0  0  0
  190.2970  176.3840  139.7990 C   0  0  0  0  0  2  0  0  0  0  0  0
  190.9660  177.3520  138.8400 C   0  0  0  0  0  2  0  0  0  0  0  0
  191.5300  175.2560  137.9510 C   0  0  0  0  0  2  0  0  0  0  0  0
  190.8670  174.4160  136.8790 C   0  0  1  0  0  0  0  0  0  0  0  0
  191.9110  173.6760  136.0660 C   0  0  0  0  0  1  0  0  0  0  0  0
  190.1640  176.6970  136.7470 C   0  0  0  0  0  2  0  0  0  0  0  0
  191.3300  176.6620  137.6150 N   0  0  0  0  0  0  0  0  0  0  0  0
  189.9860  173.5070  137.4630 O   0  0  0  0  0  1  0  0  0  0  0  0
  190.1120  175.3820  136.0030 C   0  0  0  0  0  2  0  0  0  0  0  0
  184.9180  179.0220  140.3860 S   0  0  0  0  0  0  0  0  0  0  0  0
  184.2850  177.7170  139.2760 C   0  0  1  0  0  3  0  0  0  0  0  0
  183.0680  177.0680  139.9010 C   0  0  0  0  0  1  0  0  0  0  0  0
  183.9370  178.2670  138.0390 O   0  0  0  0  0  0  0  0  0  0  0  0
  183.3120  177.2300  137.3370 C   0  0  2  0  0  3  0  0  0  0  0  0
  184.5990  175.0530  136.7290 C   0  0  2  0  0  0  0  0  0  0  0  0
  183.7930  175.5570  135.6590 O   0  0  0  0  0  0  0  0  0  0  0  0
  184.3400  176.5190  136.4650 C   0  0  1  0  0  0  0  0  0  0  0  0
  185.9970  174.9650  136.4660 O   0  0  0  0  0  0  0  0  0  0  0  0
  185.2430  173.9230  135.9820 C   0  0  1  0  0  3  0  0  0  0  0  0
  185.2950  177.2830  135.7820 O   0  0  0  0  0  1  0  0  0  0  0  0
  184.4450  171.6240  136.4660 C   0  0  0  0  0  1  0  0  0  0  0  0
  186.7040  172.2520  136.8420 O   0  0  0  0  0  1  0  0  0  0  0  0
  185.3930  172.7240  136.8990 C   0  0  1  0  0  3  0  0  0  0  0  0
  182.1590  177.7830  136.5090 C   0  0  0  0  0  2  0  0  0  0  0  0
  181.0960  175.8300  137.3680 F   0  0  0  0  0  0  0  0  0  0  0  0
  180.8540  177.1010  136.8810 C   0  0  0  0  0  2  0  0  0  0  0  0
  1 27  1  1  0  0  0
  1 12  1  0  0  0  0
  2  8  1  1  0  0  0
  4 14  2  0  0  0  0
  4 13  1  0  0  0  0
  5  3  1  6  0  0  0
  5 16  1  0  0  0  0
  5  1  1  0  0  0  0
  6 17  1  6  0  0  0
  6 10  1  0  0  0  0
  7  2  1  0  0  0  0
  9  6  1  0  0  0  0
  9 11  1  1  0  0  0
 10  2  1  0  0  0  0
 11  7  1  0  0  0  0
 12 13  2  0  0  0  0
 13  9  1  0  0  0  0
 14 17  1  0  0  0  0
 15 18  1  1  0  0  0
 15  4  1  0  0  0  0
 16 15  1  0  0  0  0
 19 18  1  0  0  0  0
 21 22  1  6  0  0  0
 21 25  1  0  0  0  0
 21 20  1  0  0  0  0
 23 24  1  0  0  0  0
 24 20  1  0  0  0  0
 24 19  1  0  0  0  0
 26 23  1  0  0  0  0
 26 21  1  0  0  0  0
 28 29  1  1  0  0  0
 28 27  1  0  0  0  0
 30 28  1  0  0  0  0
 31 41  1  6  0  0  0
 31 30  1  0  0  0  0
 32 33  1  6  0  0  0
 33 34  1  0  0  0  0
 34 37  1  6  0  0  0
 34 32  1  0  0  0  0
 34 31  1  0  0  0  0
 35 32  1  0  0  0  0
 36 35  1  0  0  0  0
 36 32  1  0  0  0  0
 36 40  1  1  0  0  0
 39 40  1  0  0  0  0
 40 38  1  6  0  0  0
 41 43  1  0  0  0  0
 43 42  1  0  0  0  0
M  END
>  <MODEL>
9

>  <REMARK>
 VINA RESULT:      -6.9      2.491      6.118
  Name = 
  11 active torsions:
  status: ('A' for Active; 'I' for Inactive)
    1  A    between atoms: C_1  and  C_34
    2  A    between atoms: C_1  and  C_35
    3  A    between atoms: C_2  and  S_6
    4  A    between atoms: O_3  and  C_4
    5  A    between atoms: O_3  and  C_12
    6  A    between atoms: C_4  and  C_15
    7  A    between atoms: C_4  and  C_22
    8  A    between atoms: S_6  and  C_12
    9  A    between atoms: C_15  and  C_42
   10  A    between atoms: C_31  and  C_40
   11  A    between atoms: N_32  and  C_35
                            x       y       z     vdW  Elec       q    Type
                         _______ _______ _______ _____ _____    ______ ____

>  <TORSDO>
F 11

$$$$
