=
 OpenBabel11052413413D

 27 31  0  0  1  0  0  0  0  0999 V2000
  189.0580  177.6960  137.7880 C   0  0  1  0  0  3  0  0  0  0  0  0
  190.6490  177.4470  139.5070 N   0  0  0  0  0  0  0  0  0  0  0  0
  188.2890  177.3880  139.0770 C   0  0  1  0  0  3  0  0  0  0  0  0
  190.2770  177.2070  143.6280 C   0  0  0  0  0  3  0  0  0  0  0  0
  188.8980  177.0110  145.6330 N   0  0  0  0  0  1  0  0  0  0  0  0
  191.8830  177.5010  140.2830 C   0  0  0  0  0  2  0  0  0  0  0  0
  187.9760  177.2440  142.0380 C   0  0  0  0  0  3  0  0  0  0  0  0
  185.1890  179.3010  138.7990 O   0  0  0  0  0  0  0  0  0  0  0  0
  187.8660  177.1370  143.4260 C   0  0  0  0  0  3  0  0  0  0  0  0
  185.6650  177.2000  137.7680 C   0  0  0  0  0  2  0  0  0  0  0  0
  189.3680  177.4340  140.1040 C   0  0  0  0  0  0  0  0  0  0  0  0
  190.5500  177.4060  138.0600 C   0  0  1  0  0  3  0  0  0  0  0  0
  189.0140  177.1200  144.2200 C   0  0  0  0  0  0  0  0  0  0  0  0
  190.4040  177.3150  142.2400 C   0  0  0  0  0  0  0  0  0  0  0  0
  188.4390  177.0580  136.5500 C   0  0  0  0  0  2  0  0  0  0  0  0
  189.2380  177.3380  141.4320 C   0  0  0  0  0  0  0  0  0  0  0  0
  186.0150  178.3650  138.6430 C   0  0  0  0  0  0  0  0  0  0  0  0
  191.6000  177.3820  141.7190 N   0  0  0  0  0  0  0  0  0  0  0  0
  185.7620  177.5230  136.2780 C   0  0  0  0  0  2  0  0  0  0  0  0
  187.3470  178.2840  135.7620 S   0  0  0  0  0  0  0  0  0  0  0  0
  187.2820  178.4170  139.3030 N   0  0  0  0  0  2  0  0  0  0  0  0
  191.9080  173.6090  136.5460 C   0  0  0  0  0  3  0  0  0  0  0  0
  191.0100  176.0690  137.5430 C   0  0  0  0  0  0  0  0  0  0  0  0
  192.2980  175.9540  137.0080 C   0  0  0  0  0  3  0  0  0  0  0  0
  192.7470  174.7270  136.5120 C   0  0  0  0  0  3  0  0  0  0  0  0
  190.6200  173.7180  137.0760 C   0  0  0  0  0  3  0  0  0  0  0  0
  190.1700  174.9440  137.5730 C   0  0  0  0  0  3  0  0  0  0  0  0
  1 15  1  6  0  0  0
  1 12  1  0  0  0  0
  1  3  1  0  0  0  0
  2 11  1  0  0  0  0
  2  6  1  0  0  0  0
  3 21  1  1  0  0  0
  3 11  1  0  0  0  0
  4 13  2  0  0  0  0
  6 18  1  0  0  0  0
  7  9  2  0  0  0  0
  9 13  1  0  0  0  0
 10 17  1  0  0  0  0
 11 16  2  0  0  0  0
 12 23  1  1  0  0  0
 12  2  1  0  0  0  0
 13  5  1  0  0  0  0
 14  4  1  0  0  0  0
 16  7  1  0  0  0  0
 16 14  1  0  0  0  0
 17  8  2  0  0  0  0
 17 21  1  0  0  0  0
 18 14  2  0  0  0  0
 19 10  1  0  0  0  0
 20 19  1  0  0  0  0
 20 15  1  0  0  0  0
 22 26  1  0  0  0  0
 23 27  1  0  0  0  0
 24 23  2  0  0  0  0
 25 22  2  0  0  0  0
 25 24  1  0  0  0  0
 26 27  2  0  0  0  0
M  END
>  <MODEL>
1

>  <REMARK>
 VINA RESULT:      -8.0      0.000      0.000
  Name = 
  1 active torsions:
  status: ('A' for Active; 'I' for Inactive)
    1  A    between atoms: C_9  and  C_15
                            x       y       z     vdW  Elec       q    Type
                         _______ _______ _______ _____ _____    ______ ____

>  <TORSDO>
F 1

$$$$
=
 OpenBabel11052413413D

 27 31  0  0  1  0  0  0  0  0999 V2000
  182.5180  179.2120  138.9010 C   0  0  1  0  0  3  0  0  0  0  0  0
  184.4960  178.7860  140.1070 N   0  0  0  0  0  0  0  0  0  0  0  0
  182.1210  179.0090  140.3670 C   0  0  1  0  0  3  0  0  0  0  0  0
  185.2950  178.6230  144.1710 C   0  0  0  0  0  3  0  0  0  0  0  0
  184.5350  178.6100  146.4910 N   0  0  0  0  0  1  0  0  0  0  0  0
  185.8990  178.6960  140.4980 C   0  0  0  0  0  2  0  0  0  0  0  0
  182.6550  178.9250  143.2970 C   0  0  0  0  0  3  0  0  0  0  0  0
  179.3090  181.2790  140.8980 O   0  0  0  0  0  0  0  0  0  0  0  0
  182.9350  178.8430  144.6630 C   0  0  0  0  0  3  0  0  0  0  0  0
  179.2290  179.1290  139.8640 C   0  0  0  0  0  2  0  0  0  0  0  0
  183.4470  178.9320  141.0420 C   0  0  0  0  0  0  0  0  0  0  0  0
  183.9830  178.7460  138.7510 C   0  0  1  0  0  3  0  0  0  0  0  0
  184.2530  178.6930  145.0990 C   0  0  0  0  0  0  0  0  0  0  0  0
  185.0300  178.7040  142.8000 C   0  0  0  0  0  0  0  0  0  0  0  0
  181.5020  178.6450  137.9160 C   0  0  0  0  0  2  0  0  0  0  0  0
  183.6930  178.8620  142.3560 C   0  0  0  0  0  0  0  0  0  0  0  0
  179.9430  180.2490  140.5540 C   0  0  0  0  0  0  0  0  0  0  0  0
  186.0270  178.6240  141.9600 N   0  0  0  0  0  0  0  0  0  0  0  0
  178.9310  179.4270  138.3950 C   0  0  0  0  0  2  0  0  0  0  0  0
  180.3770  179.9870  137.4200 S   0  0  0  0  0  0  0  0  0  0  0  0
  181.3450  180.1530  140.8250 N   0  0  0  0  0  2  0  0  0  0  0  0
  184.4010  174.8040  137.0670 C   0  0  0  0  0  3  0  0  0  0  0  0
  184.1210  177.3600  138.1800 C   0  0  0  0  0  0  0  0  0  0  0  0
  185.0250  177.1430  137.1340 C   0  0  0  0  0  3  0  0  0  0  0  0
  185.1650  175.8670  136.5790 C   0  0  0  0  0  3  0  0  0  0  0  0
  183.4950  175.0150  138.1100 C   0  0  0  0  0  3  0  0  0  0  0  0
  183.3530  176.2890  138.6660 C   0  0  0  0  0  3  0  0  0  0  0  0
  1 15  1  6  0  0  0
  1  3  1  0  0  0  0
  2  6  1  0  0  0  0
  2 11  1  0  0  0  0
  3 21  1  1  0  0  0
  3 11  1  0  0  0  0
  4 13  2  0  0  0  0
  6 18  1  0  0  0  0
  7  9  2  0  0  0  0
  9 13  1  0  0  0  0
 10 17  1  0  0  0  0
 11 16  2  0  0  0  0
 12 23  1  1  0  0  0
 12  1  1  0  0  0  0
 12  2  1  0  0  0  0
 13  5  1  0  0  0  0
 14  4  1  0  0  0  0
 16 14  1  0  0  0  0
 16  7  1  0  0  0  0
 17 21  1  0  0  0  0
 17  8  2  0  0  0  0
 18 14  2  0  0  0  0
 19 10  1  0  0  0  0
 20 15  1  0  0  0  0
 20 19  1  0  0  0  0
 22 26  1  0  0  0  0
 23 27  1  0  0  0  0
 24 23  2  0  0  0  0
 25 22  2  0  0  0  0
 25 24  1  0  0  0  0
 26 27  2  0  0  0  0
M  END
>  <MODEL>
2

>  <REMARK>
 VINA RESULT:      -7.3      4.987      6.516
  Name = 
  1 active torsions:
  status: ('A' for Active; 'I' for Inactive)
    1  A    between atoms: C_9  and  C_15
                            x       y       z     vdW  Elec       q    Type
                         _______ _______ _______ _____ _____    ______ ____

>  <TORSDO>
F 1

$$$$
=
 OpenBabel11052413413D

 27 31  0  0  1  0  0  0  0  0999 V2000
  188.7740  177.4620  137.0360 C   0  0  1  0  0  3  0  0  0  0  0  0
  190.5890  177.2540  138.5220 N   0  0  0  0  0  0  0  0  0  0  0  0
  188.1910  177.2470  138.4370 C   0  0  1  0  0  3  0  0  0  0  0  0
  190.8070  177.2430  142.6620 C   0  0  0  0  0  3  0  0  0  0  0  0
  189.7270  177.1970  144.8500 N   0  0  0  0  0  1  0  0  0  0  0  0
  191.9230  177.3100  139.1110 C   0  0  0  0  0  2  0  0  0  0  0  0
  188.3040  177.2680  141.4150 C   0  0  0  0  0  3  0  0  0  0  0  0
  185.1290  179.2380  138.4940 O   0  0  0  0  0  0  0  0  0  0  0  0
  188.3920  177.2390  142.8080 C   0  0  0  0  0  3  0  0  0  0  0  0
  185.4030  177.0710  137.5270 C   0  0  0  0  0  2  0  0  0  0  0  0
  189.4080  177.3120  139.2950 C   0  0  0  0  0  0  0  0  0  0  0  0
  190.2830  177.1400  137.1090 C   0  0  1  0  0  3  0  0  0  0  0  0
  189.6410  177.2270  143.4310 C   0  0  0  0  0  0  0  0  0  0  0  0
  190.7360  177.2740  141.2650 C   0  0  0  0  0  0  0  0  0  0  0  0
  187.9680  176.7800  135.9360 C   0  0  0  0  0  2  0  0  0  0  0  0
  189.4680  177.2910  140.6320 C   0  0  0  0  0  0  0  0  0  0  0  0
  185.9010  178.2690  138.2750 C   0  0  0  0  0  0  0  0  0  0  0  0
  191.8460  177.2770  140.5770 N   0  0  0  0  0  0  0  0  0  0  0  0
  185.2920  177.3130  136.0220 C   0  0  0  0  0  2  0  0  0  0  0  0
  186.8030  177.9950  135.2430 S   0  0  0  0  0  0  0  0  0  0  0  0
  187.2520  178.3170  138.7440 N   0  0  0  0  0  2  0  0  0  0  0  0
  191.2690  173.1810  135.7300 C   0  0  0  0  0  3  0  0  0  0  0  0
  190.6320  175.7640  136.6080 C   0  0  0  0  0  0  0  0  0  0  0  0
  190.1120  174.6470  137.2710 C   0  0  0  0  0  3  0  0  0  0  0  0
  190.4290  173.3580  136.8330 C   0  0  0  0  0  3  0  0  0  0  0  0
  191.7940  174.2920  135.0650 C   0  0  0  0  0  3  0  0  0  0  0  0
  191.4780  175.5820  135.5020 C   0  0  0  0  0  3  0  0  0  0  0  0
  1 15  1  6  0  0  0
  1 12  1  0  0  0  0
  1  3  1  0  0  0  0
  2  6  1  0  0  0  0
  2 11  1  0  0  0  0
  3 21  1  1  0  0  0
  3 11  1  0  0  0  0
  4 13  2  0  0  0  0
  6 18  1  0  0  0  0
  7  9  2  0  0  0  0
  9 13  1  0  0  0  0
 10 17  1  0  0  0  0
 11 16  2  0  0  0  0
 12 23  1  1  0  0  0
 12  2  1  0  0  0  0
 13  5  1  0  0  0  0
 14  4  1  0  0  0  0
 16 14  1  0  0  0  0
 16  7  1  0  0  0  0
 17  8  2  0  0  0  0
 17 21  1  0  0  0  0
 18 14  2  0  0  0  0
 19 10  1  0  0  0  0
 20 15  1  0  0  0  0
 20 19  1  0  0  0  0
 22 25  1  0  0  0  0
 23 24  1  0  0  0  0
 25 24  2  0  0  0  0
 26 27  1  0  0  0  0
 26 22  2  0  0  0  0
 27 23  2  0  0  0  0
M  END
>  <MODEL>
3

>  <REMARK>
 VINA RESULT:      -7.2      0.912      1.276
  Name = 
  1 active torsions:
  status: ('A' for Active; 'I' for Inactive)
    1  A    between atoms: C_9  and  C_15
                            x       y       z     vdW  Elec       q    Type
                         _______ _______ _______ _____ _____    ______ ____

>  <TORSDO>
F 1

$$$$
=
 OpenBabel11052413413D

 27 31  0  0  1  0  0  0  0  0999 V2000
  186.3200  178.6390  139.0850 C   0  0  1  0  0  3  0  0  0  0  0  0
  188.5980  178.0490  138.9920 N   0  0  0  0  0  0  0  0  0  0  0  0
  186.6710  177.9720  140.4200 C   0  0  1  0  0  3  0  0  0  0  0  0
  191.2560  176.7500  141.8950 C   0  0  0  0  0  3  0  0  0  0  0  0
  191.7200  175.9760  144.1630 N   0  0  0  0  0  1  0  0  0  0  0  0
  190.0040  177.9720  138.6090 C   0  0  0  0  0  2  0  0  0  0  0  0
  188.5540  177.0640  142.5440 C   0  0  0  0  0  3  0  0  0  0  0  0
  184.6420  179.7200  142.9030 O   0  0  0  0  0  0  0  0  0  0  0  0
  189.4560  176.6020  143.5050 C   0  0  0  0  0  3  0  0  0  0  0  0
  183.9150  177.9790  141.4390 C   0  0  0  0  0  2  0  0  0  0  0  0
  188.1490  177.8150  140.3110 C   0  0  0  0  0  0  0  0  0  0  0  0
  187.4900  178.3720  138.1130 C   0  0  1  0  0  3  0  0  0  0  0  0
  190.8050  176.4470  143.1820 C   0  0  0  0  0  0  0  0  0  0  0  0
  190.3660  177.2140  140.9220 C   0  0  0  0  0  0  0  0  0  0  0  0
  184.9160  178.3040  138.5950 C   0  0  0  0  0  2  0  0  0  0  0  0
  188.9960  177.3780  141.2500 C   0  0  0  0  0  0  0  0  0  0  0  0
  184.9530  178.9010  142.0010 C   0  0  0  0  0  0  0  0  0  0  0  0
  190.8200  177.4770  139.7250 N   0  0  0  0  0  0  0  0  0  0  0  0
  182.9640  178.6750  140.4670 C   0  0  0  0  0  2  0  0  0  0  0  0
  183.7900  179.6280  139.1380 S   0  0  0  0  0  0  0  0  0  0  0  0
  186.2990  178.8530  141.5190 N   0  0  0  0  0  2  0  0  0  0  0  0
  186.7230  175.1640  135.3440 C   0  0  0  0  0  3  0  0  0  0  0  0
  187.2340  177.2370  137.1570 C   0  0  0  0  0  0  0  0  0  0  0  0
  186.8190  177.5290  135.8530 C   0  0  0  0  0  3  0  0  0  0  0  0
  186.5650  176.4950  134.9480 C   0  0  0  0  0  3  0  0  0  0  0  0
  187.1360  174.8660  136.6450 C   0  0  0  0  0  3  0  0  0  0  0  0
  187.3900  175.8990  137.5520 C   0  0  0  0  0  3  0  0  0  0  0  0
  1 15  1  6  0  0  0
  1  3  1  0  0  0  0
  2 11  1  0  0  0  0
  3 11  1  6  0  0  0
  3 21  1  0  0  0  0
  4 13  2  0  0  0  0
  6  2  1  0  0  0  0
  6 18  1  0  0  0  0
  7  9  2  0  0  0  0
 10 17  1  0  0  0  0
 11 16  2  0  0  0  0
 12 23  1  6  0  0  0
 12  2  1  0  0  0  0
 12  1  1  0  0  0  0
 13  9  1  0  0  0  0
 13  5  1  0  0  0  0
 14 16  1  0  0  0  0
 14  4  1  0  0  0  0
 15 20  1  0  0  0  0
 16  7  1  0  0  0  0
 17  8  2  0  0  0  0
 18 14  2  0  0  0  0
 19 10  1  0  0  0  0
 20 19  1  0  0  0  0
 21 17  1  0  0  0  0
 22 26  1  0  0  0  0
 23 27  1  0  0  0  0
 24 23  2  0  0  0  0
 25 22  2  0  0  0  0
 25 24  1  0  0  0  0
 26 27  2  0  0  0  0
M  END
>  <MODEL>
4

>  <REMARK>
 VINA RESULT:      -7.1      2.490      3.541
  Name = 
  1 active torsions:
  status: ('A' for Active; 'I' for Inactive)
    1  A    between atoms: C_9  and  C_15
                            x       y       z     vdW  Elec       q    Type
                         _______ _______ _______ _____ _____    ______ ____

>  <TORSDO>
F 1

$$$$
=
 OpenBabel11052413413D

 27 31  0  0  1  0  0  0  0  0999 V2000
  181.2400  178.3140  138.2660 C   0  0  1  0  0  3  0  0  0  0  0  0
  180.8290  179.2100  140.4050 N   0  0  0  0  0  0  0  0  0  0  0  0
  182.5470  178.2100  139.0610 C   0  0  1  0  0  3  0  0  0  0  0  0
  183.0340  179.1540  143.9150 C   0  0  0  0  0  3  0  0  0  0  0  0
  185.0940  178.6580  145.1270 N   0  0  0  0  0  1  0  0  0  0  0  0
  180.1630  179.6990  141.6080 C   0  0  0  0  0  2  0  0  0  0  0  0
  184.1550  178.1250  141.5680 C   0  0  0  0  0  3  0  0  0  0  0  0
  184.1020  175.1140  137.9040 O   0  0  0  0  0  0  0  0  0  0  0  0
  184.8960  178.1350  142.7520 C   0  0  0  0  0  3  0  0  0  0  0  0
  184.1420  177.2290  136.7960 C   0  0  0  0  0  2  0  0  0  0  0  0
  182.1180  178.6300  140.4240 C   0  0  0  0  0  0  0  0  0  0  0  0
  180.2900  179.2390  139.0590 C   0  0  1  0  0  3  0  0  0  0  0  0
  184.3360  178.6480  143.9240 C   0  0  0  0  0  0  0  0  0  0  0  0
  182.2790  179.1500  142.7380 C   0  0  0  0  0  0  0  0  0  0  0  0
  181.4550  178.6350  136.7910 C   0  0  0  0  0  2  0  0  0  0  0  0
  182.8440  178.6240  141.5480 C   0  0  0  0  0  0  0  0  0  0  0  0
  183.7640  176.3250  137.9290 C   0  0  0  0  0  0  0  0  0  0  0  0
  181.0680  179.6410  142.7630 N   0  0  0  0  0  0  0  0  0  0  0  0
  183.2770  177.0210  135.5540 C   0  0  0  0  0  2  0  0  0  0  0  0
  181.4710  177.0690  135.8630 S   0  0  0  0  0  0  0  0  0  0  0  0
  183.0210  176.8330  139.0410 N   0  0  0  0  0  2  0  0  0  0  0  0
  180.1270  183.2680  137.5470 C   0  0  0  0  0  3  0  0  0  0  0  0
  180.2510  180.6520  138.5410 C   0  0  0  0  0  0  0  0  0  0  0  0
  179.0400  181.1680  138.0680 C   0  0  0  0  0  3  0  0  0  0  0  0
  178.9770  182.4740  137.5720 C   0  0  0  0  0  3  0  0  0  0  0  0
  181.3400  182.7580  138.0170 C   0  0  0  0  0  3  0  0  0  0  0  0
  181.4040  181.4530  138.5120 C   0  0  0  0  0  3  0  0  0  0  0  0
  1 15  1  6  0  0  0
  1 12  1  0  0  0  0
  1  3  1  0  0  0  0
  2 11  1  0  0  0  0
  2  6  1  0  0  0  0
  3 21  1  1  0  0  0
  3 11  1  0  0  0  0
  4 13  2  0  0  0  0
  6 18  1  0  0  0  0
  7  9  2  0  0  0  0
  8 17  2  0  0  0  0
  9 13  1  0  0  0  0
 10 17  1  0  0  0  0
 11 16  2  0  0  0  0
 12 23  1  6  0  0  0
 12  2  1  0  0  0  0
 13  5  1  0  0  0  0
 14 18  2  0  0  0  0
 14  4  1  0  0  0  0
 16  7  1  0  0  0  0
 16 14  1  0  0  0  0
 17 21  1  0  0  0  0
 19 20  1  0  0  0  0
 19 10  1  0  0  0  0
 20 15  1  0  0  0  0
 22 25  2  0  0  0  0
 22 26  1  0  0  0  0
 24 23  2  0  0  0  0
 25 24  1  0  0  0  0
 26 27  2  0  0  0  0
 27 23  1  0  0  0  0
M  END
>  <MODEL>
5

>  <REMARK>
 VINA RESULT:      -6.9      5.794      8.858
  Name = 
  1 active torsions:
  status: ('A' for Active; 'I' for Inactive)
    1  A    between atoms: C_9  and  C_15
                            x       y       z     vdW  Elec       q    Type
                         _______ _______ _______ _____ _____    ______ ____

>  <TORSDO>
F 1

$$$$
=
 OpenBabel11052413413D

 27 31  0  0  1  0  0  0  0  0999 V2000
  185.6590  178.6410  138.5840 C   0  0  1  0  0  3  0  0  0  0  0  0
  187.9160  178.2050  138.0690 N   0  0  0  0  0  0  0  0  0  0  0  0
  186.3250  178.1220  139.8630 C   0  0  1  0  0  3  0  0  0  0  0  0
  191.1990  177.3580  140.4540 C   0  0  0  0  0  3  0  0  0  0  0  0
  192.1680  176.8230  142.6300 N   0  0  0  0  0  1  0  0  0  0  0  0
  189.2190  178.1920  137.4140 C   0  0  0  0  0  2  0  0  0  0  0  0
  188.6620  177.5390  141.6180 C   0  0  0  0  0  3  0  0  0  0  0  0
  184.6850  179.9390  142.5750 O   0  0  0  0  0  0  0  0  0  0  0  0
  189.7730  177.2290  142.4050 C   0  0  0  0  0  3  0  0  0  0  0  0
  183.8350  178.0280  141.4220 C   0  0  0  0  0  2  0  0  0  0  0  0
  187.7590  178.0580  139.4660 C   0  0  0  0  0  0  0  0  0  0  0  0
  186.6320  178.3700  137.4150 C   0  0  1  0  0  3  0  0  0  0  0  0
  191.0390  177.1400  141.8250 C   0  0  0  0  0  0  0  0  0  0  0  0
  190.0970  177.6700  139.6520 C   0  0  0  0  0  0  0  0  0  0  0  0
  184.2200  178.1670  138.4170 C   0  0  0  0  0  2  0  0  0  0  0  0
  188.8100  177.7670  140.2410 C   0  0  0  0  0  0  0  0  0  0  0  0
  184.8810  179.0660  141.6910 C   0  0  0  0  0  0  0  0  0  0  0  0
  190.2800  177.8560  138.3720 N   0  0  0  0  0  0  0  0  0  0  0  0
  182.6540  178.5670  140.6170 C   0  0  0  0  0  2  0  0  0  0  0  0
  183.1150  179.4520  139.0810 S   0  0  0  0  0  0  0  0  0  0  0  0
  186.1030  179.0690  140.9470 N   0  0  0  0  0  2  0  0  0  0  0  0
  185.6950  174.8200  135.1640 C   0  0  0  0  0  3  0  0  0  0  0  0
  186.2900  177.1400  136.6170 C   0  0  0  0  0  0  0  0  0  0  0  0
  186.5840  175.8800  137.1510 C   0  0  0  0  0  3  0  0  0  0  0  0
  186.2860  174.7220  136.4270 C   0  0  0  0  0  3  0  0  0  0  0  0
  185.4020  176.0750  134.6240 C   0  0  0  0  0  3  0  0  0  0  0  0
  185.6990  177.2330  135.3470 C   0  0  0  0  0  3  0  0  0  0  0  0
  1 15  1  6  0  0  0
  1  3  1  0  0  0  0
  2 11  1  0  0  0  0
  3 11  1  6  0  0  0
  3 21  1  0  0  0  0
  4 13  2  0  0  0  0
  6  2  1  0  0  0  0
  6 18  1  0  0  0  0
  7  9  2  0  0  0  0
 10 17  1  0  0  0  0
 11 16  2  0  0  0  0
 12 23  1  1  0  0  0
 12  2  1  0  0  0  0
 12  1  1  0  0  0  0
 13  9  1  0  0  0  0
 13  5  1  0  0  0  0
 14 16  1  0  0  0  0
 14  4  1  0  0  0  0
 15 20  1  0  0  0  0
 16  7  1  0  0  0  0
 17  8  2  0  0  0  0
 18 14  2  0  0  0  0
 19 10  1  0  0  0  0
 20 19  1  0  0  0  0
 21 17  1  0  0  0  0
 22 25  1  0  0  0  0
 23 24  1  0  0  0  0
 25 24  2  0  0  0  0
 26 22  2  0  0  0  0
 26 27  1  0  0  0  0
 27 23  2  0  0  0  0
M  END
>  <MODEL>
6

>  <REMARK>
 VINA RESULT:      -6.9      2.717      4.181
  Name = 
  1 active torsions:
  status: ('A' for Active; 'I' for Inactive)
    1  A    between atoms: C_9  and  C_15
                            x       y       z     vdW  Elec       q    Type
                         _______ _______ _______ _____ _____    ______ ____

>  <TORSDO>
F 1

$$$$
=
 OpenBabel11052413413D

 27 31  0  0  1  0  0  0  0  0999 V2000
  182.4870  179.0430  139.7980 C   0  0  1  0  0  3  0  0  0  0  0  0
  184.7700  178.6570  140.2290 N   0  0  0  0  0  0  0  0  0  0  0  0
  182.6130  178.6680  141.2790 C   0  0  1  0  0  3  0  0  0  0  0  0
  186.8900  178.1610  143.7560 C   0  0  0  0  0  3  0  0  0  0  0  0
  186.9520  177.8630  146.1780 N   0  0  0  0  0  1  0  0  0  0  0  0
  186.2250  178.6390  140.1250 C   0  0  0  0  0  2  0  0  0  0  0  0
  184.1000  178.3410  143.8400 C   0  0  0  0  0  3  0  0  0  0  0  0
  180.0510  180.6500  142.9680 O   0  0  0  0  0  0  0  0  0  0  0  0
  184.8250  178.1480  145.0180 C   0  0  0  0  0  3  0  0  0  0  0  0
  179.7160  178.6100  141.7710 C   0  0  0  0  0  2  0  0  0  0  0  0
  184.0900  178.6290  141.4670 C   0  0  0  0  0  0  0  0  0  0  0  0
  183.8350  178.7090  139.1220 C   0  0  1  0  0  3  0  0  0  0  0  0
  186.2180  178.0600  144.9770 C   0  0  0  0  0  0  0  0  0  0  0  0
  186.1790  178.3550  142.5680 C   0  0  0  0  0  0  0  0  0  0  0  0
  181.2240  178.4970  139.1420 C   0  0  0  0  0  2  0  0  0  0  0  0
  184.7640  178.4510  142.6090 C   0  0  0  0  0  0  0  0  0  0  0  0
  180.5740  179.7100  142.3150 C   0  0  0  0  0  0  0  0  0  0  0  0
  186.8390  178.4350  141.4430 N   0  0  0  0  0  0  0  0  0  0  0  0
  178.9320  179.0260  140.5280 C   0  0  0  0  0  2  0  0  0  0  0  0
  179.9430  179.7890  139.2050 S   0  0  0  0  0  0  0  0  0  0  0  0
  181.9880  179.6980  142.0980 N   0  0  0  0  0  2  0  0  0  0  0  0
  183.8270  174.9940  136.9430 C   0  0  0  0  0  3  0  0  0  0  0  0
  183.8300  177.4000  138.3780 C   0  0  0  0  0  0  0  0  0  0  0  0
  184.3670  177.3500  137.0870 C   0  0  0  0  0  3  0  0  0  0  0  0
  184.3660  176.1500  136.3710 C   0  0  0  0  0  3  0  0  0  0  0  0
  183.2870  175.0380  138.2310 C   0  0  0  0  0  3  0  0  0  0  0  0
  183.2870  176.2370  138.9480 C   0  0  0  0  0  3  0  0  0  0  0  0
  1 15  1  6  0  0  0
  1  3  1  0  0  0  0
  2 11  1  0  0  0  0
  3 11  1  1  0  0  0
  3 21  1  0  0  0  0
  4 13  2  0  0  0  0
  6  2  1  0  0  0  0
  6 18  1  0  0  0  0
  7  9  2  0  0  0  0
 10 17  1  0  0  0  0
 11 16  2  0  0  0  0
 12 23  1  1  0  0  0
 12  1  1  0  0  0  0
 12  2  1  0  0  0  0
 13  9  1  0  0  0  0
 13  5  1  0  0  0  0
 14 16  1  0  0  0  0
 14  4  1  0  0  0  0
 15 20  1  0  0  0  0
 16  7  1  0  0  0  0
 17  8  2  0  0  0  0
 18 14  2  0  0  0  0
 19 10  1  0  0  0  0
 20 19  1  0  0  0  0
 21 17  1  0  0  0  0
 22 26  1  0  0  0  0
 23 27  1  0  0  0  0
 24 23  2  0  0  0  0
 25 22  2  0  0  0  0
 25 24  1  0  0  0  0
 26 27  2  0  0  0  0
M  END
>  <MODEL>
7

>  <REMARK>
 VINA RESULT:      -6.8      4.866      6.399
  Name = 
  1 active torsions:
  status: ('A' for Active; 'I' for Inactive)
    1  A    between atoms: C_9  and  C_15
                            x       y       z     vdW  Elec       q    Type
                         _______ _______ _______ _____ _____    ______ ____

>  <TORSDO>
F 1

$$$$
=
 OpenBabel11052413413D

 27 31  0  0  1  0  0  0  0  0999 V2000
  185.1030  176.8710  136.6460 C   0  0  1  0  0  3  0  0  0  0  0  0
  187.3110  176.0950  136.3850 N   0  0  0  0  0  0  0  0  0  0  0  0
  185.8530  177.1890  137.9440 C   0  0  1  0  0  3  0  0  0  0  0  0
  190.7470  176.6750  138.6300 C   0  0  0  0  0  3  0  0  0  0  0  0
  191.8650  177.5030  140.6360 N   0  0  0  0  0  1  0  0  0  0  0  0
  188.5630  175.6210  135.8050 C   0  0  0  0  0  2  0  0  0  0  0  0
  188.3040  177.6530  139.5750 C   0  0  0  0  0  3  0  0  0  0  0  0
  184.4350  180.3540  139.0940 O   0  0  0  0  0  0  0  0  0  0  0  0
  189.4650  177.8190  140.3330 C   0  0  0  0  0  3  0  0  0  0  0  0
  183.4820  178.1820  139.3690 C   0  0  0  0  0  2  0  0  0  0  0  0
  187.2540  176.8240  137.5940 C   0  0  0  0  0  0  0  0  0  0  0  0
  185.9860  175.9020  135.8290 C   0  0  1  0  0  3  0  0  0  0  0  0
  190.6850  177.3320  139.8610 C   0  0  0  0  0  0  0  0  0  0  0  0
  189.5940  176.5020  137.8580 C   0  0  0  0  0  0  0  0  0  0  0  0
  183.6500  176.4690  136.8720 C   0  0  0  0  0  2  0  0  0  0  0  0
  188.3550  177.0010  138.3340 C   0  0  0  0  0  0  0  0  0  0  0  0
  184.5560  179.1160  138.9050 C   0  0  0  0  0  0  0  0  0  0  0  0
  189.6870  175.8730  136.7170 N   0  0  0  0  0  0  0  0  0  0  0  0
  182.2510  178.1920  138.4630 C   0  0  0  0  0  2  0  0  0  0  0  0
  182.6110  177.9520  136.6820 S   0  0  0  0  0  0  0  0  0  0  0  0
  185.7220  178.6080  138.2490 N   0  0  0  0  0  2  0  0  0  0  0  0
  184.7710  171.7800  136.1280 C   0  0  0  0  0  3  0  0  0  0  0  0
  185.5720  174.4590  135.9510 C   0  0  0  0  0  0  0  0  0  0  0  0
  185.1400  173.7780  134.8090 C   0  0  0  0  0  3  0  0  0  0  0  0
  184.7400  172.4410  134.8960 C   0  0  0  0  0  3  0  0  0  0  0  0
  185.2000  172.4570  137.2730 C   0  0  0  0  0  3  0  0  0  0  0  0
  185.5990  173.7930  137.1880 C   0  0  0  0  0  3  0  0  0  0  0  0
  1 15  1  1  0  0  0
  1  3  1  0  0  0  0
  2 11  1  0  0  0  0
  3 11  1  6  0  0  0
  3 21  1  0  0  0  0
  4 13  2  0  0  0  0
  6  2  1  0  0  0  0
  6 18  1  0  0  0  0
  7  9  2  0  0  0  0
 11 16  2  0  0  0  0
 12 23  1  1  0  0  0
 12  2  1  0  0  0  0
 12  1  1  0  0  0  0
 13  9  1  0  0  0  0
 13  5  1  0  0  0  0
 14 16  1  0  0  0  0
 14  4  1  0  0  0  0
 16  7  1  0  0  0  0
 17  8  2  0  0  0  0
 17 10  1  0  0  0  0
 18 14  2  0  0  0  0
 19 10  1  0  0  0  0
 20 15  1  0  0  0  0
 20 19  1  0  0  0  0
 21 17  1  0  0  0  0
 22 26  1  0  0  0  0
 23 27  1  0  0  0  0
 24 25  1  0  0  0  0
 24 23  2  0  0  0  0
 25 22  2  0  0  0  0
 27 26  2  0  0  0  0
M  END
>  <MODEL>
8

>  <REMARK>
 VINA RESULT:      -6.8      2.859      4.867
  Name = 
  1 active torsions:
  status: ('A' for Active; 'I' for Inactive)
    1  A    between atoms: C_9  and  C_15
                            x       y       z     vdW  Elec       q    Type
                         _______ _______ _______ _____ _____    ______ ____

>  <TORSDO>
F 1

$$$$
=
 OpenBabel11052413413D

 27 31  0  0  1  0  0  0  0  0999 V2000
  185.6430  178.7750  140.1020 C   0  0  1  0  0  3  0  0  0  0  0  0
  184.9860  179.3150  142.2980 N   0  0  0  0  0  0  0  0  0  0  0  0
  184.2440  178.1850  140.3150 C   0  0  1  0  0  3  0  0  0  0  0  0
  181.3460  179.0350  144.2610 C   0  0  0  0  0  3  0  0  0  0  0  0
  179.0240  178.2870  144.3430 N   0  0  0  0  0  1  0  0  0  0  0  0
  184.8990  179.9400  143.6140 C   0  0  0  0  0  2  0  0  0  0  0  0
  181.6030  177.9880  141.6800 C   0  0  0  0  0  3  0  0  0  0  0  0
  182.5960  178.4820  137.0690 O   0  0  0  0  0  0  0  0  0  0  0  0
  180.3890  177.8780  142.3630 C   0  0  0  0  0  3  0  0  0  0  0  0
  184.1560  176.7980  137.7260 C   0  0  0  0  0  2  0  0  0  0  0  0
  183.8720  178.7390  141.6480 C   0  0  0  0  0  0  0  0  0  0  0  0
  186.1820  179.1970  141.4860 C   0  0  1  0  0  3  0  0  0  0  0  0
  180.2610  178.4020  143.6510 C   0  0  0  0  0  0  0  0  0  0  0  0
  182.5670  179.1540  143.5910 C   0  0  0  0  0  0  0  0  0  0  0  0
  186.5430  177.8950  139.2420 C   0  0  0  0  0  2  0  0  0  0  0  0
  182.6980  178.6280  142.2800 C   0  0  0  0  0  0  0  0  0  0  0  0
  183.3240  178.0160  137.9830 C   0  0  0  0  0  0  0  0  0  0  0  0
  183.5650  179.7420  144.1950 N   0  0  0  0  0  0  0  0  0  0  0  0
  185.4030  177.0930  136.8940 C   0  0  0  0  0  2  0  0  0  0  0  0
  186.4310  178.4750  137.5190 S   0  0  0  0  0  0  0  0  0  0  0  0
  183.3510  178.6530  139.2640 N   0  0  0  0  0  2  0  0  0  0  0  0
  188.9350  176.3500  143.1790 C   0  0  0  0  0  3  0  0  0  0  0  0
  187.1320  178.2010  142.0950 C   0  0  0  0  0  0  0  0  0  0  0  0
  188.4580  178.1670  141.6500 C   0  0  0  0  0  3  0  0  0  0  0  0
  189.3580  177.2440  142.1910 C   0  0  0  0  0  3  0  0  0  0  0  0
  187.6110  176.3780  143.6260 C   0  0  0  0  0  3  0  0  0  0  0  0
  186.7100  177.2990  143.0860 C   0  0  0  0  0  3  0  0  0  0  0  0
  1 15  1  1  0  0  0
  1  3  1  0  0  0  0
  1 12  1  0  0  0  0
  2  6  1  0  0  0  0
  3 21  1  6  0  0  0
  3 11  1  0  0  0  0
  6 18  1  0  0  0  0
  7 16  1  0  0  0  0
  7  9  2  0  0  0  0
  8 17  2  0  0  0  0
  9 13  1  0  0  0  0
 10 17  1  0  0  0  0
 11 16  2  0  0  0  0
 11  2  1  0  0  0  0
 12 23  1  1  0  0  0
 12  2  1  0  0  0  0
 13  4  2  0  0  0  0
 13  5  1  0  0  0  0
 14 18  2  0  0  0  0
 14  4  1  0  0  0  0
 16 14  1  0  0  0  0
 17 21  1  0  0  0  0
 19 20  1  0  0  0  0
 19 10  1  0  0  0  0
 20 15  1  0  0  0  0
 22 26  1  0  0  0  0
 23 27  1  0  0  0  0
 24 23  2  0  0  0  0
 24 25  1  0  0  0  0
 25 22  2  0  0  0  0
 27 26  2  0  0  0  0
M  END
>  <MODEL>
9

>  <REMARK>
 VINA RESULT:      -6.7      4.200      6.427
  Name = 
  1 active torsions:
  status: ('A' for Active; 'I' for Inactive)
    1  A    between atoms: C_9  and  C_15
                            x       y       z     vdW  Elec       q    Type
                         _______ _______ _______ _____ _____    ______ ____

>  <TORSDO>
F 1

$$$$
