=
 OpenBabel11052414043D

 34 39  0  0  0  0  0  0  0  0999 V2000
  185.9400  178.3960  145.8730 C   0  0  0  0  0  0  0  0  0  0  0  0
  187.5050  177.2560  144.4020 C   0  0  0  0  0  0  0  0  0  0  0  0
  185.3600  178.2760  143.4970 C   0  0  0  0  0  0  0  0  0  0  0  0
  184.7140  178.5360  141.1760 C   0  0  0  0  0  0  0  0  0  0  0  0
  188.0960  177.7010  146.7140 C   0  0  0  0  0  3  0  0  0  0  0  0
  188.4010  177.1570  145.4710 C   0  0  0  0  0  3  0  0  0  0  0  0
  186.9550  178.3240  141.6100 N   0  0  0  0  0  0  0  0  0  0  0  0
  186.2870  177.9860  144.5540 C   0  0  0  0  0  0  0  0  0  0  0  0
  188.1160  178.4710  139.4590 N   0  0  0  0  0  2  0  0  0  0  0  0
  185.3800  178.6450  139.6390 S   0  0  0  0  0  0  0  0  0  0  0  0
  186.8550  178.2910  146.9220 C   0  0  0  0  0  3  0  0  0  0  0  0
  184.0180  178.6500  143.8310 C   0  0  0  0  0  0  0  0  0  0  0  0
  184.6640  178.8640  146.1610 C   0  0  0  0  0  3  0  0  0  0  0  0
  187.7880  176.3540  143.2500 C   0  0  0  0  0  1  0  0  0  0  0  0
  183.4230  178.7540  141.4990 N   0  0  0  0  0  0  0  0  0  0  0  0
  183.0360  178.8110  142.8050 C   0  0  0  0  0  0  0  0  0  0  0  0
  186.9380  178.4600  140.2620 C   0  0  0  0  0  0  0  0  0  0  0  0
  185.6990  178.3280  142.1240 C   0  0  0  0  0  0  0  0  0  0  0  0
  183.7080  178.9540  145.1620 C   0  0  0  0  0  3  0  0  0  0  0  0
  179.6130  180.3280  142.6710 C   0  0  0  0  0  0  0  0  0  0  0  0
  178.9310  179.6230  143.6630 C   0  0  0  0  0  2  0  0  0  0  0  0
  181.6010  179.0800  143.0880 C   0  0  0  0  0  0  0  0  0  0  0  0
  179.6040  178.6350  144.3810 C   0  0  0  0  0  3  0  0  0  0  0  0
  180.9190  180.0480  142.4110 N   0  0  0  0  0  0  0  0  0  0  0  0
  180.9440  178.3630  144.0990 C   0  0  0  0  0  3  0  0  0  0  0  0
  179.0210  181.2240  142.0170 O   0  0  0  0  0  0  0  0  0  0  0  0
  189.4380  178.3180  140.0450 C   0  0  0  0  0  2  0  0  0  0  0  0
  192.0820  177.4740  140.7310 F   0  0  0  0  0  0  0  0  0  0  0  0
  190.3240  177.5800  139.1020 C   0  0  0  0  0  0  0  0  0  0  0  0
  191.6110  177.1790  139.4930 C   0  0  0  0  0  0  0  0  0  0  0  0
  191.9500  176.1540  137.3240 C   0  0  0  0  0  3  0  0  0  0  0  0
  190.6670  176.5460  136.9360 C   0  0  0  0  0  3  0  0  0  0  0  0
  189.8540  177.2560  137.8250 C   0  0  0  0  0  3  0  0  0  0  0  0
  192.4220  176.4690  138.6010 C   0  0  0  0  0  3  0  0  0  0  0  0
  1 13  1  0  0  0  0
  1 11  2  0  0  0  0
  2  8  2  0  0  0  0
  2  6  1  0  0  0  0
  3 12  1  0  0  0  0
  3  8  1  0  0  0  0
  4 15  2  0  0  0  0
  4 18  1  0  0  0  0
  5 11  1  0  0  0  0
  6  5  2  0  0  0  0
  7 18  1  0  0  0  0
  8  1  1  0  0  0  0
  9 27  1  0  0  0  0
  9 17  1  0  0  0  0
 10 17  1  0  0  0  0
 10  4  1  0  0  0  0
 12 19  1  0  0  0  0
 14  2  1  0  0  0  0
 15 16  1  0  0  0  0
 16 22  1  0  0  0  0
 16 12  2  0  0  0  0
 17  7  2  0  0  0  0
 18  3  2  0  0  0  0
 19 13  2  0  0  0  0
 20 21  1  0  0  0  0
 21 23  1  0  0  0  0
 22 25  1  0  0  0  0
 24 20  1  0  0  0  0
 24 22  2  0  0  0  0
 25 23  2  0  0  0  0
 26 20  2  0  0  0  0
 29 30  1  0  0  0  0
 29 27  1  0  0  0  0
 30 28  1  0  0  0  0
 31 34  1  0  0  0  0
 32 31  2  0  0  0  0
 32 33  1  0  0  0  0
 33 29  2  0  0  0  0
 34 30  2  0  0  0  0
M  END
>  <MODEL>
1

>  <REMARK>
 VINA RESULT:     -11.9      0.000      0.000
  Name = 
  3 active torsions:
  status: ('A' for Active; 'I' for Inactive)
    1  A    between atoms: C_3  and  C_13
    2  A    between atoms: C_3  and  N_17
    3  A    between atoms: C_12  and  C_28
                            x       y       z     vdW  Elec       q    Type
                         _______ _______ _______ _____ _____    ______ ____

>  <TORSDO>
F 3

$$$$
=
 OpenBabel11052414043D

 34 39  0  0  0  0  0  0  0  0999 V2000
  184.3560  178.7600  144.6570 C   0  0  0  0  0  0  0  0  0  0  0  0
  186.4480  177.6520  145.2100 C   0  0  0  0  0  0  0  0  0  0  0  0
  185.9320  178.3650  142.8250 C   0  0  0  0  0  0  0  0  0  0  0  0
  187.4320  178.3440  140.9220 C   0  0  0  0  0  0  0  0  0  0  0  0
  184.9350  178.3640  146.9690 C   0  0  0  0  0  3  0  0  0  0  0  0
  186.1110  177.7410  146.5640 C   0  0  0  0  0  3  0  0  0  0  0  0
  188.3970  178.3980  143.0000 N   0  0  0  0  0  0  0  0  0  0  0  0
  185.6190  178.2680  144.2230 C   0  0  0  0  0  0  0  0  0  0  0  0
  190.8210  178.4610  142.6600 N   0  0  0  0  0  2  0  0  0  0  0  0
  189.0670  178.3780  140.5460 S   0  0  0  0  0  0  0  0  0  0  0  0
  184.0460  178.8440  146.0160 C   0  0  0  0  0  3  0  0  0  0  0  0
  184.8780  178.6330  141.8930 C   0  0  0  0  0  0  0  0  0  0  0  0
  183.3790  179.1240  143.7390 C   0  0  0  0  0  3  0  0  0  0  0  0
  187.5320  176.6800  144.8880 C   0  0  0  0  0  1  0  0  0  0  0  0
  186.4130  178.4620  140.0460 N   0  0  0  0  0  0  0  0  0  0  0  0
  185.1310  178.6010  140.4870 C   0  0  0  0  0  0  0  0  0  0  0  0
  189.4780  178.4070  142.1830 C   0  0  0  0  0  0  0  0  0  0  0  0
  187.2420  178.3240  142.2910 C   0  0  0  0  0  0  0  0  0  0  0  0
  183.6250  179.0250  142.3780 C   0  0  0  0  0  3  0  0  0  0  0  0
  182.4450  180.1020  138.3500 C   0  0  0  0  0  0  0  0  0  0  0  0
  182.0150  179.0110  137.5940 C   0  0  0  0  0  2  0  0  0  0  0  0
  184.0610  178.7490  139.4650 C   0  0  0  0  0  0  0  0  0  0  0  0
  182.6190  177.7690  137.7860 C   0  0  0  0  0  3  0  0  0  0  0  0
  183.4430  179.9480  139.2620 N   0  0  0  0  0  0  0  0  0  0  0  0
  183.6420  177.6330  138.7260 C   0  0  0  0  0  3  0  0  0  0  0  0
  181.9080  181.2280  138.1920 O   0  0  0  0  0  0  0  0  0  0  0  0
  191.1230  178.4950  144.0810 C   0  0  0  0  0  2  0  0  0  0  0  0
  191.4180  177.8220  146.8440 F   0  0  0  0  0  0  0  0  0  0  0  0
  191.4970  177.1300  144.5490 C   0  0  0  0  0  0  0  0  0  0  0  0
  191.6180  176.8500  145.9190 C   0  0  0  0  0  0  0  0  0  0  0  0
  192.1540  174.5450  145.4000 C   0  0  0  0  0  3  0  0  0  0  0  0
  192.0260  174.8200  144.0360 C   0  0  0  0  0  3  0  0  0  0  0  0
  191.6960  176.1110  143.6110 C   0  0  0  0  0  3  0  0  0  0  0  0
  191.9490  175.5580  146.3400 C   0  0  0  0  0  3  0  0  0  0  0  0
  1 11  2  0  0  0  0
  2  6  1  0  0  0  0
  3  8  1  0  0  0  0
  4 18  2  0  0  0  0
  6  5  2  0  0  0  0
  8  1  1  0  0  0  0
  8  2  2  0  0  0  0
  9 27  1  0  0  0  0
 10  4  1  0  0  0  0
 10 17  1  0  0  0  0
 11  5  1  0  0  0  0
 12 19  1  0  0  0  0
 12  3  2  0  0  0  0
 13  1  1  0  0  0  0
 14  2  1  0  0  0  0
 15 16  2  0  0  0  0
 15  4  1  0  0  0  0
 16 12  1  0  0  0  0
 17  9  1  0  0  0  0
 17  7  2  0  0  0  0
 18  3  1  0  0  0  0
 18  7  1  0  0  0  0
 19 13  2  0  0  0  0
 20 24  1  0  0  0  0
 21 23  1  0  0  0  0
 21 20  1  0  0  0  0
 22 16  1  0  0  0  0
 23 25  2  0  0  0  0
 24 22  2  0  0  0  0
 25 22  1  0  0  0  0
 26 20  2  0  0  0  0
 27 29  1  0  0  0  0
 29 30  1  0  0  0  0
 30 34  2  0  0  0  0
 30 28  1  0  0  0  0
 31 34  1  0  0  0  0
 32 31  2  0  0  0  0
 33 32  1  0  0  0  0
 33 29  2  0  0  0  0
M  END
>  <MODEL>
2

>  <REMARK>
 VINA RESULT:     -10.1      3.054      4.562
  Name = 
  3 active torsions:
  status: ('A' for Active; 'I' for Inactive)
    1  A    between atoms: C_3  and  C_13
    2  A    between atoms: C_3  and  N_17
    3  A    between atoms: C_12  and  C_28
                            x       y       z     vdW  Elec       q    Type
                         _______ _______ _______ _____ _____    ______ ____

>  <TORSDO>
F 3

$$$$
=
 OpenBabel11052414043D

 34 39  0  0  0  0  0  0  0  0999 V2000
  189.5240  177.2760  145.9910 C   0  0  0  0  0  0  0  0  0  0  0  0
  190.9200  176.1330  144.3610 C   0  0  0  0  0  0  0  0  0  0  0  0
  188.7880  177.3240  143.6550 C   0  0  0  0  0  0  0  0  0  0  0  0
  188.0140  177.7530  141.4000 C   0  0  0  0  0  0  0  0  0  0  0  0
  191.6820  176.4110  146.6480 C   0  0  0  0  0  3  0  0  0  0  0  0
  191.8740  175.9210  145.3610 C   0  0  0  0  0  3  0  0  0  0  0  0
  190.2600  177.3870  141.6710 N   0  0  0  0  0  0  0  0  0  0  0  0
  189.7610  176.9220  144.6320 C   0  0  0  0  0  0  0  0  0  0  0  0
  191.2900  177.5880  139.4590 N   0  0  0  0  0  2  0  0  0  0  0  0
  188.5860  177.9110  139.8300 S   0  0  0  0  0  0  0  0  0  0  0  0
  190.4960  177.0580  146.9690 C   0  0  0  0  0  3  0  0  0  0  0  0
  187.4960  177.7570  144.0980 C   0  0  0  0  0  0  0  0  0  0  0  0
  188.3010  177.8000  146.3880 C   0  0  0  0  0  3  0  0  0  0  0  0
  191.0730  175.2830  143.1460 C   0  0  0  0  0  1  0  0  0  0  0  0
  186.7620  178.0270  141.8200 N   0  0  0  0  0  0  0  0  0  0  0  0
  186.4630  178.0320  143.1490 C   0  0  0  0  0  0  0  0  0  0  0  0
  190.1660  177.6010  140.3370 C   0  0  0  0  0  0  0  0  0  0  0  0
  189.0420  177.4350  142.2680 C   0  0  0  0  0  0  0  0  0  0  0  0
  187.2900  178.0020  145.4600 C   0  0  0  0  0  3  0  0  0  0  0  0
  182.7950  178.7660  142.9430 C   0  0  0  0  0  0  0  0  0  0  0  0
  182.4690  179.0540  144.2690 C   0  0  0  0  0  2  0  0  0  0  0  0
  185.0680  178.3670  143.5420 C   0  0  0  0  0  0  0  0  0  0  0  0
  183.4670  179.0020  145.2420 C   0  0  0  0  0  3  0  0  0  0  0  0
  184.0720  178.4380  142.6110 N   0  0  0  0  0  0  0  0  0  0  0  0
  184.7720  178.6620  144.8800 C   0  0  0  0  0  3  0  0  0  0  0  0
  181.9070  178.8130  142.0530 O   0  0  0  0  0  0  0  0  0  0  0  0
  192.6340  177.3260  139.9470 C   0  0  0  0  0  2  0  0  0  0  0  0
  195.1100  176.0590  140.6080 F   0  0  0  0  0  0  0  0  0  0  0  0
  193.3170  176.3590  139.0420 C   0  0  0  0  0  0  0  0  0  0  0  0
  194.5280  175.7560  139.4210 C   0  0  0  0  0  0  0  0  0  0  0  0
  194.5550  174.5090  137.3440 C   0  0  0  0  0  3  0  0  0  0  0  0
  193.3460  175.1020  136.9700 C   0  0  0  0  0  3  0  0  0  0  0  0
  192.7270  176.0240  137.8190 C   0  0  0  0  0  3  0  0  0  0  0  0
  195.1450  174.8350  138.5690 C   0  0  0  0  0  3  0  0  0  0  0  0
  1 13  1  0  0  0  0
  1 11  2  0  0  0  0
  2  8  2  0  0  0  0
  2  6  1  0  0  0  0
  3 12  1  0  0  0  0
  3  8  1  0  0  0  0
  4 15  2  0  0  0  0
  4 18  1  0  0  0  0
  5 11  1  0  0  0  0
  6  5  2  0  0  0  0
  7 18  1  0  0  0  0
  8  1  1  0  0  0  0
  9 27  1  0  0  0  0
  9 17  1  0  0  0  0
 10 17  1  0  0  0  0
 10  4  1  0  0  0  0
 12 19  1  0  0  0  0
 14  2  1  0  0  0  0
 15 16  1  0  0  0  0
 16 22  1  0  0  0  0
 16 12  2  0  0  0  0
 17  7  2  0  0  0  0
 18  3  2  0  0  0  0
 19 13  2  0  0  0  0
 20 21  1  0  0  0  0
 21 23  1  0  0  0  0
 22 25  1  0  0  0  0
 24 20  1  0  0  0  0
 24 22  2  0  0  0  0
 25 23  2  0  0  0  0
 26 20  2  0  0  0  0
 29 30  1  0  0  0  0
 29 27  1  0  0  0  0
 30 28  1  0  0  0  0
 31 34  1  0  0  0  0
 32 31  2  0  0  0  0
 32 33  1  0  0  0  0
 33 29  2  0  0  0  0
 34 30  2  0  0  0  0
M  END
>  <MODEL>
3

>  <REMARK>
 VINA RESULT:      -9.6      2.207      3.514
  Name = 
  3 active torsions:
  status: ('A' for Active; 'I' for Inactive)
    1  A    between atoms: C_3  and  C_13
    2  A    between atoms: C_3  and  N_17
    3  A    between atoms: C_12  and  C_28
                            x       y       z     vdW  Elec       q    Type
                         _______ _______ _______ _____ _____    ______ ____

>  <TORSDO>
F 3

$$$$
=
 OpenBabel11052414043D

 34 39  0  0  0  0  0  0  0  0999 V2000
  187.3690  177.7220  138.1350 C   0  0  0  0  0  0  0  0  0  0  0  0
  188.4810  178.2160  140.2400 C   0  0  0  0  0  0  0  0  0  0  0  0
  185.9660  178.4880  139.9910 C   0  0  0  0  0  0  0  0  0  0  0  0
  184.3500  178.9450  141.7380 C   0  0  0  0  0  0  0  0  0  0  0  0
  189.7050  177.1740  138.4210 C   0  0  0  0  0  3  0  0  0  0  0  0
  189.6690  177.7060  139.7060 C   0  0  0  0  0  3  0  0  0  0  0  0
  186.3380  178.0050  142.3860 N   0  0  0  0  0  0  0  0  0  0  0  0
  187.2650  178.1300  139.4950 C   0  0  0  0  0  0  0  0  0  0  0  0
  186.2190  177.6830  144.8100 N   0  0  0  0  0  2  0  0  0  0  0  0
  184.1390  178.7890  143.3950 S   0  0  0  0  0  0  0  0  0  0  0  0
  188.5650  177.2120  137.6280 C   0  0  0  0  0  3  0  0  0  0  0  0
  184.9100  178.7390  139.0560 C   0  0  0  0  0  0  0  0  0  0  0  0
  186.2970  177.8690  137.2640 C   0  0  0  0  0  3  0  0  0  0  0  0
  188.6420  179.0530  141.4630 C   0  0  0  0  0  1  0  0  0  0  0  0
  183.4050  179.3100  140.8470 N   0  0  0  0  0  0  0  0  0  0  0  0
  183.6460  179.2290  139.5080 C   0  0  0  0  0  0  0  0  0  0  0  0
  185.6770  178.1150  143.5630 C   0  0  0  0  0  0  0  0  0  0  0  0
  185.6060  178.5080  141.3590 C   0  0  0  0  0  0  0  0  0  0  0  0
  185.0990  178.4040  137.7100 C   0  0  0  0  0  3  0  0  0  0  0  0
  181.1490  181.3090  137.6450 C   0  0  0  0  0  0  0  0  0  0  0  0
  180.4550  180.3550  136.9010 C   0  0  0  0  0  3  0  0  0  0  0  0
  182.5490  179.6240  138.5850 C   0  0  0  0  0  0  0  0  0  0  0  0
  180.8150  179.0120  137.0110 C   0  0  0  0  0  3  0  0  0  0  0  0
  182.1660  180.9280  138.4640 N   0  0  0  0  0  0  0  0  0  0  0  0
  181.8620  178.6410  137.8570 C   0  0  0  0  0  2  0  0  0  0  0  0
  180.8330  182.5240  137.5600 O   0  0  0  0  0  0  0  0  0  0  0  0
  187.5470  177.0990  144.9010 C   0  0  0  0  0  2  0  0  0  0  0  0
  190.3150  176.7020  145.4970 F   0  0  0  0  0  0  0  0  0  0  0  0
  188.1440  177.4110  146.2310 C   0  0  0  0  0  0  0  0  0  0  0  0
  189.5120  177.2080  146.4670 C   0  0  0  0  0  0  0  0  0  0  0  0
  189.2470  178.0530  148.7220 C   0  0  0  0  0  3  0  0  0  0  0  0
  187.8860  178.2630  148.4860 C   0  0  0  0  0  3  0  0  0  0  0  0
  187.3360  177.9440  147.2400 C   0  0  0  0  0  3  0  0  0  0  0  0
  190.0600  177.5270  147.7140 C   0  0  0  0  0  3  0  0  0  0  0  0
  1  8  1  0  0  0  0
  2 14  1  0  0  0  0
  3 18  1  0  0  0  0
  4 10  1  0  0  0  0
  5  6  2  0  0  0  0
  6  2  1  0  0  0  0
  7 17  2  0  0  0  0
  8  3  1  0  0  0  0
  8  2  2  0  0  0  0
  9 27  1  0  0  0  0
 10 17  1  0  0  0  0
 11  1  2  0  0  0  0
 11  5  1  0  0  0  0
 12 16  1  0  0  0  0
 12  3  2  0  0  0  0
 13 19  2  0  0  0  0
 13  1  1  0  0  0  0
 15  4  1  0  0  0  0
 16 15  2  0  0  0  0
 17  9  1  0  0  0  0
 18  4  2  0  0  0  0
 18  7  1  0  0  0  0
 19 12  1  0  0  0  0
 20 24  1  0  0  0  0
 21 23  2  0  0  0  0
 21 20  1  0  0  0  0
 22 16  1  0  0  0  0
 23 25  1  0  0  0  0
 24 22  2  0  0  0  0
 25 22  1  0  0  0  0
 26 20  2  0  0  0  0
 27 29  1  0  0  0  0
 28 30  1  0  0  0  0
 29 30  2  0  0  0  0
 29 33  1  0  0  0  0
 30 34  1  0  0  0  0
 32 31  1  0  0  0  0
 33 32  2  0  0  0  0
 34 31  2  0  0  0  0
M  END
>  <MODEL>
4

>  <REMARK>
 VINA RESULT:      -9.5      2.888      6.508
  Name = 
  3 active torsions:
  status: ('A' for Active; 'I' for Inactive)
    1  A    between atoms: C_3  and  C_13
    2  A    between atoms: C_3  and  N_17
    3  A    between atoms: C_12  and  C_28
                            x       y       z     vdW  Elec       q    Type
                         _______ _______ _______ _____ _____    ______ ____

>  <TORSDO>
F 3

$$$$
=
 OpenBabel11052414043D

 34 39  0  0  0  0  0  0  0  0999 V2000
  184.8860  178.9350  141.8210 C   0  0  0  0  0  0  0  0  0  0  0  0
  186.3220  178.0730  143.5830 C   0  0  0  0  0  0  0  0  0  0  0  0
  187.0780  178.0700  141.1560 C   0  0  0  0  0  0  0  0  0  0  0  0
  189.2820  177.5430  140.2990 C   0  0  0  0  0  0  0  0  0  0  0  0
  184.2570  179.2220  144.1360 C   0  0  0  0  0  3  0  0  0  0  0  0
  185.4000  178.5340  144.5290 C   0  0  0  0  0  3  0  0  0  0  0  0
  189.1550  178.2030  142.4900 N   0  0  0  0  0  0  0  0  0  0  0  0
  186.1350  178.3660  142.1980 C   0  0  0  0  0  0  0  0  0  0  0  0
  191.4420  178.2180  143.3650 N   0  0  0  0  0  2  0  0  0  0  0  0
  190.8930  177.5030  140.7690 S   0  0  0  0  0  0  0  0  0  0  0  0
  183.9850  179.3930  142.7840 C   0  0  0  0  0  3  0  0  0  0  0  0
  186.6270  178.0410  139.7970 C   0  0  0  0  0  0  0  0  0  0  0  0
  184.5080  179.0020  140.4860 C   0  0  0  0  0  3  0  0  0  0  0  0
  187.3050  177.0720  144.0900 C   0  0  0  0  0  1  0  0  0  0  0  0
  188.8180  177.3860  139.0420 N   0  0  0  0  0  0  0  0  0  0  0  0
  187.5060  177.6160  138.7530 C   0  0  0  0  0  0  0  0  0  0  0  0
  190.4850  178.0040  142.3290 C   0  0  0  0  0  0  0  0  0  0  0  0
  188.4700  177.9070  141.3560 C   0  0  0  0  0  0  0  0  0  0  0  0
  185.3510  178.5270  139.4930 C   0  0  0  0  0  3  0  0  0  0  0  0
  186.0120  176.1410  135.6500 C   0  0  0  0  0  0  0  0  0  0  0  0
  186.3080  177.1040  134.6850 C   0  0  0  0  0  2  0  0  0  0  0  0
  187.0700  177.4470  137.3420 C   0  0  0  0  0  0  0  0  0  0  0  0
  187.0030  178.2530  135.0600 C   0  0  0  0  0  3  0  0  0  0  0  0
  186.3990  176.3290  136.9410 N   0  0  0  0  0  0  0  0  0  0  0  0
  187.3910  178.4270  136.3900 C   0  0  0  0  0  3  0  0  0  0  0  0
  185.3900  175.0970  135.3270 O   0  0  0  0  0  0  0  0  0  0  0  0
  191.0410  178.6600  144.6910 C   0  0  0  0  0  2  0  0  0  0  0  0
  189.0170  178.2590  146.6700 F   0  0  0  0  0  0  0  0  0  0  0  0
  191.0410  177.5010  145.6280 C   0  0  0  0  0  0  0  0  0  0  0  0
  190.0160  177.3460  146.5750 C   0  0  0  0  0  0  0  0  0  0  0  0
  191.0400  175.2890  147.3440 C   0  0  0  0  0  3  0  0  0  0  0  0
  192.0560  175.4390  146.3970 C   0  0  0  0  0  3  0  0  0  0  0  0
  192.0550  176.5430  145.5390 C   0  0  0  0  0  3  0  0  0  0  0  0
  190.0200  176.2410  147.4320 C   0  0  0  0  0  3  0  0  0  0  0  0
  1  8  1  0  0  0  0
  1 11  2  0  0  0  0
  2 14  1  0  0  0  0
  2  6  1  0  0  0  0
  3 18  1  0  0  0  0
  3  8  1  0  0  0  0
  4 10  1  0  0  0  0
  4 18  2  0  0  0  0
  5  6  2  0  0  0  0
  8  2  2  0  0  0  0
  9 27  1  0  0  0  0
 10 17  1  0  0  0  0
 11  5  1  0  0  0  0
 12  3  2  0  0  0  0
 13  1  1  0  0  0  0
 15  4  1  0  0  0  0
 16 15  2  0  0  0  0
 16 12  1  0  0  0  0
 17  7  2  0  0  0  0
 17  9  1  0  0  0  0
 18  7  1  0  0  0  0
 19 12  1  0  0  0  0
 19 13  2  0  0  0  0
 20 24  1  0  0  0  0
 21 23  1  0  0  0  0
 21 20  1  0  0  0  0
 22 16  1  0  0  0  0
 23 25  2  0  0  0  0
 24 22  2  0  0  0  0
 25 22  1  0  0  0  0
 26 20  2  0  0  0  0
 27 29  1  0  0  0  0
 29 30  1  0  0  0  0
 30 28  1  0  0  0  0
 30 34  2  0  0  0  0
 31 34  1  0  0  0  0
 32 31  2  0  0  0  0
 33 29  2  0  0  0  0
 33 32  1  0  0  0  0
M  END
>  <MODEL>
5

>  <REMARK>
 VINA RESULT:      -9.4      3.796      6.945
  Name = 
  3 active torsions:
  status: ('A' for Active; 'I' for Inactive)
    1  A    between atoms: C_3  and  C_13
    2  A    between atoms: C_3  and  N_17
    3  A    between atoms: C_12  and  C_28
                            x       y       z     vdW  Elec       q    Type
                         _______ _______ _______ _____ _____    ______ ____

>  <TORSDO>
F 3

$$$$
=
 OpenBabel11052414043D

 34 39  0  0  0  0  0  0  0  0999 V2000
  186.8860  177.5980  144.9250 C   0  0  0  0  0  0  0  0  0  0  0  0
  184.9160  178.9130  144.3760 C   0  0  0  0  0  0  0  0  0  0  0  0
  186.5490  178.1820  142.5700 C   0  0  0  0  0  0  0  0  0  0  0  0
  186.2840  178.3860  140.1700 C   0  0  0  0  0  0  0  0  0  0  0  0
  185.2120  178.0220  146.6140 C   0  0  0  0  0  3  0  0  0  0  0  0
  184.4810  178.7710  145.6970 C   0  0  0  0  0  3  0  0  0  0  0  0
  184.3680  178.4060  141.4290 N   0  0  0  0  0  0  0  0  0  0  0  0
  186.0860  178.2270  143.9290 C   0  0  0  0  0  0  0  0  0  0  0  0
  182.4910  178.6030  139.8690 N   0  0  0  0  0  2  0  0  0  0  0  0
  185.0950  178.5290  138.9950 S   0  0  0  0  0  0  0  0  0  0  0  0
  186.4270  177.4650  146.2360 C   0  0  0  0  0  3  0  0  0  0  0  0
  187.9100  177.8170  142.3100 C   0  0  0  0  0  0  0  0  0  0  0  0
  188.1660  177.1470  144.6300 C   0  0  0  0  0  3  0  0  0  0  0  0
  184.2480  179.9980  143.6010 C   0  0  0  0  0  1  0  0  0  0  0  0
  187.5970  178.1740  139.9490 N   0  0  0  0  0  0  0  0  0  0  0  0
  188.4380  177.8950  140.9850 C   0  0  0  0  0  0  0  0  0  0  0  0
  183.8820  178.5210  140.1700 C   0  0  0  0  0  0  0  0  0  0  0  0
  185.7250  178.3680  141.4350 C   0  0  0  0  0  0  0  0  0  0  0  0
  188.6830  177.2890  143.3510 C   0  0  0  0  0  3  0  0  0  0  0  0
  191.5610  177.0570  139.0920 C   0  0  0  0  0  0  0  0  0  0  0  0
  192.5420  177.1260  140.0810 C   0  0  0  0  0  2  0  0  0  0  0  0
  189.8690  177.6490  140.6650 C   0  0  0  0  0  0  0  0  0  0  0  0
  192.1720  177.4570  141.3840 C   0  0  0  0  0  3  0  0  0  0  0  0
  190.2610  177.3120  139.4020 N   0  0  0  0  0  0  0  0  0  0  0  0
  190.8330  177.7150  141.6820 C   0  0  0  0  0  3  0  0  0  0  0  0
  191.8770  176.7560  137.9120 O   0  0  0  0  0  0  0  0  0  0  0  0
  181.4840  178.5810  140.9180 C   0  0  0  0  0  2  0  0  0  0  0  0
  179.7480  179.4800  143.0050 F   0  0  0  0  0  0  0  0  0  0  0  0
  180.5810  179.7580  140.7720 C   0  0  0  0  0  0  0  0  0  0  0  0
  179.7560  180.1640  141.8330 C   0  0  0  0  0  0  0  0  0  0  0  0
  178.9310  182.0010  140.4870 C   0  0  0  0  0  3  0  0  0  0  0  0
  179.7570  181.6030  139.4330 C   0  0  0  0  0  3  0  0  0  0  0  0
  180.5830  180.4840  139.5760 C   0  0  0  0  0  3  0  0  0  0  0  0
  178.9310  181.2830  141.6860 C   0  0  0  0  0  3  0  0  0  0  0  0
  1 11  2  0  0  0  0
  2  6  1  0  0  0  0
  3  8  1  0  0  0  0
  4 18  1  0  0  0  0
  6  5  2  0  0  0  0
  7 18  1  0  0  0  0
  8  2  2  0  0  0  0
  8  1  1  0  0  0  0
  9 17  1  0  0  0  0
  9 27  1  0  0  0  0
 10  4  1  0  0  0  0
 10 17  1  0  0  0  0
 11  5  1  0  0  0  0
 12  3  1  0  0  0  0
 12 19  1  0  0  0  0
 13  1  1  0  0  0  0
 14  2  1  0  0  0  0
 15  4  2  0  0  0  0
 15 16  1  0  0  0  0
 16 12  2  0  0  0  0
 17  7  2  0  0  0  0
 18  3  2  0  0  0  0
 19 13  2  0  0  0  0
 20 24  1  0  0  0  0
 20 21  1  0  0  0  0
 21 23  1  0  0  0  0
 22 16  1  0  0  0  0
 22 25  1  0  0  0  0
 23 25  2  0  0  0  0
 24 22  2  0  0  0  0
 26 20  2  0  0  0  0
 29 27  1  0  0  0  0
 29 30  1  0  0  0  0
 30 28  1  0  0  0  0
 31 34  1  0  0  0  0
 32 33  1  0  0  0  0
 32 31  2  0  0  0  0
 33 29  2  0  0  0  0
 34 30  2  0  0  0  0
M  END
>  <MODEL>
6

>  <REMARK>
 VINA RESULT:      -9.4      3.629      8.450
  Name = 
  3 active torsions:
  status: ('A' for Active; 'I' for Inactive)
    1  A    between atoms: C_3  and  C_13
    2  A    between atoms: C_3  and  N_17
    3  A    between atoms: C_12  and  C_28
                            x       y       z     vdW  Elec       q    Type
                         _______ _______ _______ _____ _____    ______ ____

>  <TORSDO>
F 3

$$$$
=
 OpenBabel11052414043D

 34 39  0  0  0  0  0  0  0  0999 V2000
  187.5770  178.4550  139.2480 C   0  0  0  0  0  0  0  0  0  0  0  0
  185.6690  177.8850  137.8520 C   0  0  0  0  0  0  0  0  0  0  0  0
  185.3820  178.3690  140.3310 C   0  0  0  0  0  0  0  0  0  0  0  0
  183.3060  178.6270  141.5530 C   0  0  0  0  0  0  0  0  0  0  0  0
  187.8430  178.2910  136.8520 C   0  0  0  0  0  3  0  0  0  0  0  0
  186.5020  177.9440  136.7300 C   0  0  0  0  0  3  0  0  0  0  0  0
  183.2260  178.9810  139.2900 N   0  0  0  0  0  0  0  0  0  0  0  0
  186.1720  178.2540  139.1370 C   0  0  0  0  0  0  0  0  0  0  0  0
  180.9190  179.5940  138.7450 N   0  0  0  0  0  2  0  0  0  0  0  0
  181.6930  179.0260  141.3190 S   0  0  0  0  0  0  0  0  0  0  0  0
  188.3850  178.5140  138.1110 C   0  0  0  0  0  3  0  0  0  0  0  0
  186.0390  178.3490  141.6040 C   0  0  0  0  0  0  0  0  0  0  0  0
  188.1880  178.5460  140.4920 C   0  0  0  0  0  3  0  0  0  0  0  0
  184.3710  177.1810  137.6440 C   0  0  0  0  0  1  0  0  0  0  0  0
  183.9210  178.4710  142.7440 N   0  0  0  0  0  0  0  0  0  0  0  0
  185.2740  178.3240  142.8110 C   0  0  0  0  0  0  0  0  0  0  0  0
  181.9430  179.2120  139.6600 C   0  0  0  0  0  0  0  0  0  0  0  0
  183.9890  178.6140  140.3520 C   0  0  0  0  0  0  0  0  0  0  0  0
  187.4340  178.4570  141.6520 C   0  0  0  0  0  3  0  0  0  0  0  0
  186.0690  178.8870  146.4290 C   0  0  0  0  0  0  0  0  0  0  0  0
  187.0800  177.9550  146.6650 C   0  0  0  0  0  3  0  0  0  0  0  0
  185.8870  178.1810  144.1590 C   0  0  0  0  0  0  0  0  0  0  0  0
  187.5000  177.1290  145.6240 C   0  0  0  0  0  3  0  0  0  0  0  0
  185.5050  178.9830  145.1950 N   0  0  0  0  0  0  0  0  0  0  0  0
  186.9080  177.2420  144.3640 C   0  0  0  0  0  2  0  0  0  0  0  0
  185.6810  179.6430  147.3560 O   0  0  0  0  0  0  0  0  0  0  0  0
  181.1870  179.7510  137.3250 C   0  0  0  0  0  2  0  0  0  0  0  0
  180.6680  180.6140  134.6490 F   0  0  0  0  0  0  0  0  0  0  0  0
  181.0640  181.1870  136.9450 C   0  0  0  0  0  0  0  0  0  0  0  0
  180.7970  181.5560  135.6170 C   0  0  0  0  0  0  0  0  0  0  0  0
  180.7900  183.8890  136.2690 C   0  0  0  0  0  3  0  0  0  0  0  0
  181.0480  183.5230  137.5920 C   0  0  0  0  0  3  0  0  0  0  0  0
  181.1830  182.1720  137.9300 C   0  0  0  0  0  3  0  0  0  0  0  0
  180.6630  182.9070  135.2820 C   0  0  0  0  0  3  0  0  0  0  0  0
  1 13  1  0  0  0  0
  2  8  1  0  0  0  0
  3 18  2  0  0  0  0
  3 12  1  0  0  0  0
  4 15  2  0  0  0  0
  5 11  2  0  0  0  0
  6  5  1  0  0  0  0
  6  2  2  0  0  0  0
  7 17  2  0  0  0  0
  7 18  1  0  0  0  0
  8  1  2  0  0  0  0
  8  3  1  0  0  0  0
  9 17  1  0  0  0  0
 10  4  1  0  0  0  0
 11  1  1  0  0  0  0
 12 19  1  0  0  0  0
 12 16  2  0  0  0  0
 13 19  2  0  0  0  0
 14  2  1  0  0  0  0
 15 16  1  0  0  0  0
 16 22  1  0  0  0  0
 17 10  1  0  0  0  0
 18  4  1  0  0  0  0
 20 21  1  0  0  0  0
 20 26  2  0  0  0  0
 22 25  1  0  0  0  0
 22 24  2  0  0  0  0
 23 21  2  0  0  0  0
 24 20  1  0  0  0  0
 25 23  1  0  0  0  0
 27  9  1  0  0  0  0
 28 30  1  0  0  0  0
 29 27  1  0  0  0  0
 29 33  1  0  0  0  0
 30 29  2  0  0  0  0
 31 32  1  0  0  0  0
 32 33  2  0  0  0  0
 34 30  1  0  0  0  0
 34 31  2  0  0  0  0
M  END
>  <MODEL>
7

>  <REMARK>
 VINA RESULT:      -9.2      4.458      7.929
  Name = 
  3 active torsions:
  status: ('A' for Active; 'I' for Inactive)
    1  A    between atoms: C_3  and  C_13
    2  A    between atoms: C_3  and  N_17
    3  A    between atoms: C_12  and  C_28
                            x       y       z     vdW  Elec       q    Type
                         _______ _______ _______ _____ _____    ______ ____

>  <TORSDO>
F 3

$$$$
=
 OpenBabel11052414043D

 34 39  0  0  0  0  0  0  0  0999 V2000
  187.8210  178.4860  139.3700 C   0  0  0  0  0  0  0  0  0  0  0  0
  185.9250  177.9010  137.9640 C   0  0  0  0  0  0  0  0  0  0  0  0
  185.6220  178.3790  140.4420 C   0  0  0  0  0  0  0  0  0  0  0  0
  183.5380  178.6180  141.6550 C   0  0  0  0  0  0  0  0  0  0  0  0
  188.1010  178.3260  136.9750 C   0  0  0  0  0  3  0  0  0  0  0  0
  186.7630  177.9680  136.8460 C   0  0  0  0  0  3  0  0  0  0  0  0
  183.4650  178.9740  139.3920 N   0  0  0  0  0  0  0  0  0  0  0  0
  186.4180  178.2720  139.2520 C   0  0  0  0  0  0  0  0  0  0  0  0
  181.1560  179.5670  138.8350 N   0  0  0  0  0  2  0  0  0  0  0  0
  181.9220  179.0030  141.4130 S   0  0  0  0  0  0  0  0  0  0  0  0
  188.6350  178.5530  138.2380 C   0  0  0  0  0  3  0  0  0  0  0  0
  186.2730  178.3640  141.7190 C   0  0  0  0  0  0  0  0  0  0  0  0
  188.4250  178.5810  140.6170 C   0  0  0  0  0  3  0  0  0  0  0  0
  184.6350  177.1850  137.7490 C   0  0  0  0  0  1  0  0  0  0  0  0
  184.1480  178.4660  142.8480 N   0  0  0  0  0  0  0  0  0  0  0  0
  185.5020  178.3310  142.9220 C   0  0  0  0  0  0  0  0  0  0  0  0
  182.1790  179.1920  139.7550 C   0  0  0  0  0  0  0  0  0  0  0  0
  184.2260  178.6120  140.4560 C   0  0  0  0  0  0  0  0  0  0  0  0
  187.6660  178.4840  141.7730 C   0  0  0  0  0  3  0  0  0  0  0  0
  187.8900  177.4390  145.6680 C   0  0  0  0  0  0  0  0  0  0  0  0
  187.2160  177.8780  146.8080 C   0  0  0  0  0  3  0  0  0  0  0  0
  186.1090  178.1920  144.2720 C   0  0  0  0  0  0  0  0  0  0  0  0
  185.9650  178.4770  146.6710 C   0  0  0  0  0  3  0  0  0  0  0  0
  187.3270  177.6000  144.4400 N   0  0  0  0  0  0  0  0  0  0  0  0
  185.4050  178.6320  145.4020 C   0  0  0  0  0  2  0  0  0  0  0  0
  189.0180  176.8940  145.7740 O   0  0  0  0  0  0  0  0  0  0  0  0
  181.4300  179.7270  137.4170 C   0  0  0  0  0  2  0  0  0  0  0  0
  180.7530  180.4550  134.7360 F   0  0  0  0  0  0  0  0  0  0  0  0
  181.1440  181.1300  137.0040 C   0  0  0  0  0  0  0  0  0  0  0  0
  180.8040  181.4320  135.6760 C   0  0  0  0  0  0  0  0  0  0  0  0
  180.5630  183.7680  136.2690 C   0  0  0  0  0  3  0  0  0  0  0  0
  180.8920  183.4680  137.5930 C   0  0  0  0  0  3  0  0  0  0  0  0
  181.1800  182.1500  137.9610 C   0  0  0  0  0  3  0  0  0  0  0  0
  180.5180  182.7510  135.3110 C   0  0  0  0  0  3  0  0  0  0  0  0
  1 13  1  0  0  0  0
  2  8  1  0  0  0  0
  3 18  2  0  0  0  0
  3 12  1  0  0  0  0
  4 15  2  0  0  0  0
  5 11  2  0  0  0  0
  6  5  1  0  0  0  0
  6  2  2  0  0  0  0
  7 17  2  0  0  0  0
  7 18  1  0  0  0  0
  8  1  2  0  0  0  0
  8  3  1  0  0  0  0
  9 17  1  0  0  0  0
 10  4  1  0  0  0  0
 11  1  1  0  0  0  0
 12 19  1  0  0  0  0
 12 16  2  0  0  0  0
 13 19  2  0  0  0  0
 14  2  1  0  0  0  0
 15 16  1  0  0  0  0
 16 22  1  0  0  0  0
 17 10  1  0  0  0  0
 18  4  1  0  0  0  0
 20 26  2  0  0  0  0
 20 21  1  0  0  0  0
 22 24  2  0  0  0  0
 22 25  1  0  0  0  0
 23 21  2  0  0  0  0
 24 20  1  0  0  0  0
 25 23  1  0  0  0  0
 27  9  1  0  0  0  0
 28 30  1  0  0  0  0
 29 27  1  0  0  0  0
 29 33  1  0  0  0  0
 30 29  2  0  0  0  0
 31 32  1  0  0  0  0
 32 33  2  0  0  0  0
 34 30  1  0  0  0  0
 34 31  2  0  0  0  0
M  END
>  <MODEL>
8

>  <REMARK>
 VINA RESULT:      -9.0      4.552      8.018
  Name = 
  3 active torsions:
  status: ('A' for Active; 'I' for Inactive)
    1  A    between atoms: C_3  and  C_13
    2  A    between atoms: C_3  and  N_17
    3  A    between atoms: C_12  and  C_28
                            x       y       z     vdW  Elec       q    Type
                         _______ _______ _______ _____ _____    ______ ____

>  <TORSDO>
F 3

$$$$
=
 OpenBabel11052414043D

 34 39  0  0  0  0  0  0  0  0999 V2000
  191.6530  177.5030  141.3170 C   0  0  0  0  0  0  0  0  0  0  0  0
  190.4760  176.9030  139.2760 C   0  0  0  0  0  0  0  0  0  0  0  0
  189.2090  177.6580  141.3460 C   0  0  0  0  0  0  0  0  0  0  0  0
  186.8460  178.1620  141.5270 C   0  0  0  0  0  0  0  0  0  0  0  0
  192.8970  177.0750  139.2900 C   0  0  0  0  0  3  0  0  0  0  0  0
  191.7090  176.7960  138.6240 C   0  0  0  0  0  3  0  0  0  0  0  0
  187.7730  178.2830  139.4340 N   0  0  0  0  0  0  0  0  0  0  0  0
  190.4170  177.3730  140.6230 C   0  0  0  0  0  0  0  0  0  0  0  0
  185.9900  178.9690  137.9020 N   0  0  0  0  0  2  0  0  0  0  0  0
  185.5340  178.6280  140.5900 S   0  0  0  0  0  0  0  0  0  0  0  0
  192.8700  177.3960  140.6420 C   0  0  0  0  0  3  0  0  0  0  0  0
  189.2550  177.7330  142.7760 C   0  0  0  0  0  0  0  0  0  0  0  0
  191.6810  177.6880  142.6930 C   0  0  0  0  0  3  0  0  0  0  0  0
  189.3290  176.2570  138.5750 C   0  0  0  0  0  1  0  0  0  0  0  0
  186.8770  178.0960  142.8740 N   0  0  0  0  0  0  0  0  0  0  0  0
  188.0510  177.8780  143.5300 C   0  0  0  0  0  0  0  0  0  0  0  0
  186.4840  178.6250  139.1950 C   0  0  0  0  0  0  0  0  0  0  0  0
  187.9710  177.9850  140.7440 C   0  0  0  0  0  0  0  0  0  0  0  0
  190.5000  177.7630  143.4150 C   0  0  0  0  0  3  0  0  0  0  0  0
  189.0550  177.3120  147.0950 C   0  0  0  0  0  0  0  0  0  0  0  0
  187.9190  177.7150  147.7970 C   0  0  0  0  0  3  0  0  0  0  0  0
  188.0140  177.8410  145.0170 C   0  0  0  0  0  0  0  0  0  0  0  0
  186.8120  178.1820  147.0900 C   0  0  0  0  0  3  0  0  0  0  0  0
  189.0760  177.3780  145.7370 N   0  0  0  0  0  0  0  0  0  0  0  0
  186.8540  178.2430  145.6960 C   0  0  0  0  0  2  0  0  0  0  0  0
  190.0610  176.8850  147.7190 O   0  0  0  0  0  0  0  0  0  0  0  0
  186.8520  178.9600  136.7320 C   0  0  0  0  0  2  0  0  0  0  0  0
  189.1030  177.7990  135.4070 F   0  0  0  0  0  0  0  0  0  0  0  0
  186.8090  177.6180  136.0850 C   0  0  0  0  0  0  0  0  0  0  0  0
  187.9480  177.0890  135.4570 C   0  0  0  0  0  0  0  0  0  0  0  0
  186.7140  175.0740  134.9210 C   0  0  0  0  0  3  0  0  0  0  0  0
  185.5820  175.5970  135.5530 C   0  0  0  0  0  3  0  0  0  0  0  0
  185.6310  176.8660  136.1360 C   0  0  0  0  0  3  0  0  0  0  0  0
  187.8960  175.8190  134.8740 C   0  0  0  0  0  3  0  0  0  0  0  0
  1 13  1  0  0  0  0
  2  8  1  0  0  0  0
  3 12  1  0  0  0  0
  4 15  2  0  0  0  0
  5 11  2  0  0  0  0
  6  2  2  0  0  0  0
  6  5  1  0  0  0  0
  7 18  1  0  0  0  0
  8  1  2  0  0  0  0
  8  3  1  0  0  0  0
  9 17  1  0  0  0  0
 10  4  1  0  0  0  0
 11  1  1  0  0  0  0
 12 19  1  0  0  0  0
 12 16  2  0  0  0  0
 13 19  2  0  0  0  0
 14  2  1  0  0  0  0
 15 16  1  0  0  0  0
 16 22  1  0  0  0  0
 17  7  2  0  0  0  0
 17 10  1  0  0  0  0
 18  3  2  0  0  0  0
 18  4  1  0  0  0  0
 20 26  2  0  0  0  0
 20 21  1  0  0  0  0
 22 25  1  0  0  0  0
 22 24  2  0  0  0  0
 23 21  2  0  0  0  0
 24 20  1  0  0  0  0
 25 23  1  0  0  0  0
 27  9  1  0  0  0  0
 28 30  1  0  0  0  0
 29 33  1  0  0  0  0
 29 27  1  0  0  0  0
 30 29  2  0  0  0  0
 31 32  1  0  0  0  0
 32 33  2  0  0  0  0
 34 31  2  0  0  0  0
 34 30  1  0  0  0  0
M  END
>  <MODEL>
9

>  <REMARK>
 VINA RESULT:      -9.0      4.185      6.498
  Name = 
  3 active torsions:
  status: ('A' for Active; 'I' for Inactive)
    1  A    between atoms: C_3  and  C_13
    2  A    between atoms: C_3  and  N_17
    3  A    between atoms: C_12  and  C_28
                            x       y       z     vdW  Elec       q    Type
                         _______ _______ _______ _____ _____    ______ ____

>  <TORSDO>
F 3

$$$$
