=
 OpenBabel11052412383D

 30 32  0  0  1  0  0  0  0  0999 V2000
  187.3960  177.8730  143.8850 C   0  0  2  0  0  3  0  0  0  0  0  0
  185.8790  177.8890  144.0500 C   0  0  2  0  0  3  0  0  0  0  0  0
  185.3050  178.7880  143.0380 N   0  0  0  0  0  0  0  0  0  0  0  0
  185.3990  179.2090  144.4410 C   0  0  0  0  0  2  0  0  0  0  0  0
  183.9420  178.3380  142.8070 C   0  0  0  0  0  2  0  0  0  0  0  0
  185.3060  179.5320  139.7950 O   0  0  0  0  0  0  0  0  0  0  0  0
  183.5810  178.5270  141.3700 C   0  0  0  0  0  0  0  0  0  0  0  0
  184.4650  179.0430  140.5630 C   0  0  0  0  0  0  0  0  0  0  0  0
  182.3160  178.1070  140.8510 N   0  0  0  0  0  2  0  0  0  0  0  0
  182.1680  177.5100  139.5360 C   0  0  0  0  0  2  0  0  0  0  0  0
  182.4200  176.0170  139.6170 C   0  0  0  0  0  2  0  0  0  0  0  0
  183.1430  175.5750  138.3620 C   0  0  0  0  0  1  0  0  0  0  0  0
  188.3710  175.8020  143.0520 O   0  0  0  0  0  1  0  0  0  0  0  0
  187.7680  177.0080  142.6690 C   0  0  2  0  0  3  0  0  0  0  0  0
  190.4500  176.1680  141.3590 O   0  0  0  0  0  0  0  0  0  0  0  0
  190.2140  177.0460  139.1600 C   0  0  0  0  0  2  0  0  0  0  0  0
  188.3680  179.1170  141.7430 O   0  0  0  0  0  1  0  0  0  0  0  0
  189.0840  179.1600  139.0610 O   0  0  0  0  0  1  0  0  0  0  0  0
  190.9140  177.2070  140.5190 C   0  0  1  0  0  3  0  0  0  0  0  0
  188.8880  177.7740  139.0600 C   0  0  2  0  0  3  0  0  0  0  0  0
  190.0930  177.4730  141.7470 C   0  0  1  0  0  3  0  0  0  0  0  0
  188.5740  177.7430  141.5820 C   0  0  1  0  0  0  0  0  0  0  0  0
  187.9990  177.3450  140.2180 C   0  0  0  0  0  2  0  0  0  0  0  0
  187.3700  177.4910  146.4490 C   0  0  0  0  0  1  0  0  0  0  0  0
  188.1720  177.4620  145.1550 C   0  0  2  0  0  3  0  0  0  0  0  0
  189.5250  178.1570  145.2930 C   0  0  0  0  0  2  0  0  0  0  0  0
  190.6610  177.1910  145.4110 C   0  0  0  0  0  3  0  0  0  0  0  0
  191.0230  176.7270  146.6060 C   0  0  0  0  0  3  0  0  0  0  0  0
  192.1350  175.7350  146.7420 C   0  0  0  0  0  2  0  0  0  0  0  0
  192.6970  175.7740  148.1480 C   0  0  0  0  0  1  0  0  0  0  0  0
  1 14  1  6  0  0  0
  1 25  1  0  0  0  0
  2  1  1  6  0  0  0
  2  4  1  0  0  0  0
  3  2  1  0  0  0  0
  3  4  1  0  0  0  0
  5  3  1  0  0  0  0
  6  8  2  0  0  0  0
  7  5  1  0  0  0  0
  8  7  2  0  0  0  0
  9  7  1  0  0  0  0
 10 11  1  0  0  0  0
 10  9  1  0  0  0  0
 12 11  1  0  0  0  0
 14 13  1  1  0  0  0
 19 16  1  6  0  0  0
 19 15  1  0  0  0  0
 19 21  1  0  0  0  0
 20 18  1  1  0  0  0
 20 16  1  0  0  0  0
 20 23  1  0  0  0  0
 21 15  1  1  0  0  0
 22 17  1  1  0  0  0
 22 21  1  0  0  0  0
 22 14  1  0  0  0  0
 23 22  1  0  0  0  0
 25 26  1  0  0  0  0
 25 24  1  1  0  0  0
 26 27  1  0  0  0  0
 27 28  2  0  0  0  0
 28 29  1  0  0  0  0
 29 30  1  0  0  0  0
M  END
>  <MODEL>
1

>  <REMARK>
 VINA RESULT:      -7.3      0.000      0.000
  Name = 
  12 active torsions:
  status: ('A' for Active; 'I' for Inactive)
    1  A    between atoms: C_4  and  C_19
    2  A    between atoms: N_6  and  CA_8
    3  A    between atoms: N_6  and  C_21
    4  A    between atoms: C_7  and  C_26
    5  A    between atoms: CA_8  and  C_30
    6  A    between atoms: C_9  and  C_21
    7  A    between atoms: C_10  and  C_15
    8  A    between atoms: C_10  and  C_25
    9  A    between atoms: N_13  and  C_30
   10  A    between atoms: C_19  and  C_24
   11  A    between atoms: C_19  and  C_25
   12  A    between atoms: C_24  and  C_28
                            x       y       z     vdW  Elec       q    Type
                         _______ _______ _______ _____ _____    ______ ____

>  <TORSDO>
F 12

$$$$
=
 OpenBabel11052412383D

 30 32  0  0  1  0  0  0  0  0999 V2000
  187.5390  177.8480  143.8900 C   0  0  2  0  0  3  0  0  0  0  0  0
  186.0250  177.8350  144.0830 C   0  0  2  0  0  3  0  0  0  0  0  0
  185.4250  178.8150  143.1660 N   0  0  0  0  0  0  0  0  0  0  0  0
  185.5430  179.1120  144.5990 C   0  0  0  0  0  2  0  0  0  0  0  0
  184.0610  178.3750  142.9220 C   0  0  0  0  0  2  0  0  0  0  0  0
  181.2880  178.2160  140.7670 O   0  0  0  0  0  0  0  0  0  0  0  0
  183.6740  178.6800  141.5110 C   0  0  0  0  0  0  0  0  0  0  0  0
  182.4510  178.4420  141.1300 C   0  0  0  0  0  0  0  0  0  0  0  0
  184.5940  179.2760  140.5920 N   0  0  0  0  0  2  0  0  0  0  0  0
  184.3040  179.4230  139.1770 C   0  0  0  0  0  2  0  0  0  0  0  0
  185.1240  178.4300  138.3780 C   0  0  0  0  0  2  0  0  0  0  0  0
  184.2170  177.3050  137.9210 C   0  0  0  0  0  1  0  0  0  0  0  0
  188.5430  175.7930  143.0510 O   0  0  0  0  0  1  0  0  0  0  0  0
  187.9040  176.9820  142.6720 C   0  0  2  0  0  3  0  0  0  0  0  0
  190.5250  176.1440  141.2430 O   0  0  0  0  0  0  0  0  0  0  0  0
  190.2040  177.0510  139.0670 C   0  0  0  0  0  2  0  0  0  0  0  0
  188.4780  179.0980  141.7490 O   0  0  0  0  0  1  0  0  0  0  0  0
  189.0830  179.1710  139.0400 O   0  0  0  0  0  1  0  0  0  0  0  0
  190.9600  177.1910  140.3970 C   0  0  1  0  0  3  0  0  0  0  0  0
  188.8790  177.7860  139.0300 C   0  0  2  0  0  3  0  0  0  0  0  0
  190.1920  177.4460  141.6610 C   0  0  1  0  0  3  0  0  0  0  0  0
  188.6690  177.7250  141.5630 C   0  0  1  0  0  0  0  0  0  0  0  0
  188.0360  177.3470  140.2180 C   0  0  0  0  0  2  0  0  0  0  0  0
  187.5740  177.5000  146.4580 C   0  0  0  0  0  1  0  0  0  0  0  0
  188.3470  177.4600  145.1470 C   0  0  2  0  0  3  0  0  0  0  0  0
  189.6960  178.1700  145.2450 C   0  0  0  0  0  2  0  0  0  0  0  0
  190.8370  177.2170  145.4100 C   0  0  0  0  0  3  0  0  0  0  0  0
  191.0870  176.6720  146.5990 C   0  0  0  0  0  3  0  0  0  0  0  0
  192.2040  175.6920  146.7770 C   0  0  0  0  0  2  0  0  0  0  0  0
  192.7190  175.7440  148.2010 C   0  0  0  0  0  1  0  0  0  0  0  0
  1 14  1  6  0  0  0
  1 25  1  0  0  0  0
  2  1  1  6  0  0  0
  2  4  1  0  0  0  0
  3  2  1  0  0  0  0
  3  4  1  0  0  0  0
  5  3  1  0  0  0  0
  6  8  2  0  0  0  0
  7  5  1  0  0  0  0
  8  7  2  0  0  0  0
  9  7  1  0  0  0  0
 10  9  1  0  0  0  0
 11 10  1  0  0  0  0
 12 11  1  0  0  0  0
 14 13  1  1  0  0  0
 19 16  1  6  0  0  0
 19 15  1  0  0  0  0
 19 21  1  0  0  0  0
 20 18  1  1  0  0  0
 20 16  1  0  0  0  0
 20 23  1  0  0  0  0
 21 15  1  1  0  0  0
 22 21  1  0  0  0  0
 22 17  1  1  0  0  0
 22 14  1  0  0  0  0
 23 22  1  0  0  0  0
 25 26  1  0  0  0  0
 25 24  1  1  0  0  0
 26 27  1  0  0  0  0
 27 28  2  0  0  0  0
 28 29  1  0  0  0  0
 29 30  1  0  0  0  0
M  END
>  <MODEL>
2

>  <REMARK>
 VINA RESULT:      -7.3      1.145      1.391
  Name = 
  12 active torsions:
  status: ('A' for Active; 'I' for Inactive)
    1  A    between atoms: C_4  and  C_19
    2  A    between atoms: N_6  and  CA_8
    3  A    between atoms: N_6  and  C_21
    4  A    between atoms: C_7  and  C_26
    5  A    between atoms: CA_8  and  C_30
    6  A    between atoms: C_9  and  C_21
    7  A    between atoms: C_10  and  C_15
    8  A    between atoms: C_10  and  C_25
    9  A    between atoms: N_13  and  C_30
   10  A    between atoms: C_19  and  C_24
   11  A    between atoms: C_19  and  C_25
   12  A    between atoms: C_24  and  C_28
                            x       y       z     vdW  Elec       q    Type
                         _______ _______ _______ _____ _____    ______ ____

>  <TORSDO>
F 12

$$$$
=
 OpenBabel11052412383D

 30 32  0  0  1  0  0  0  0  0999 V2000
  187.5280  177.8160  143.9020 C   0  0  2  0  0  3  0  0  0  0  0  0
  186.0160  177.7710  144.1030 C   0  0  2  0  0  3  0  0  0  0  0  0
  185.3910  178.7470  143.1980 N   0  0  0  0  0  0  0  0  0  0  0  0
  185.5100  179.0320  144.6330 C   0  0  0  0  0  2  0  0  0  0  0  0
  184.0350  178.2810  142.9560 C   0  0  0  0  0  2  0  0  0  0  0  0
  185.3300  179.4330  139.8980 O   0  0  0  0  0  0  0  0  0  0  0  0
  183.5840  178.7150  141.5990 C   0  0  0  0  0  0  0  0  0  0  0  0
  184.4790  179.0830  140.7270 C   0  0  0  0  0  0  0  0  0  0  0  0
  182.2050  178.6830  141.2200 N   0  0  0  0  0  2  0  0  0  0  0  0
  181.7720  178.4600  139.8520 C   0  0  0  0  0  2  0  0  0  0  0  0
  181.0210  179.6750  139.3460 C   0  0  0  0  0  2  0  0  0  0  0  0
  181.9490  180.4950  138.4740 C   0  0  0  0  0  1  0  0  0  0  0  0
  188.5570  175.7740  143.0650 O   0  0  0  0  0  1  0  0  0  0  0  0
  187.9070  176.9560  142.6850 C   0  0  2  0  0  3  0  0  0  0  0  0
  190.5320  176.1400  141.2520 O   0  0  0  0  0  0  0  0  0  0  0  0
  190.2070  177.0560  139.0800 C   0  0  0  0  0  2  0  0  0  0  0  0
  188.4690  179.0800  141.7720 O   0  0  0  0  0  1  0  0  0  0  0  0
  189.0740  179.1710  139.0650 O   0  0  0  0  0  1  0  0  0  0  0  0
  190.9610  177.1930  140.4110 C   0  0  1  0  0  3  0  0  0  0  0  0
  188.8780  177.7850  139.0470 C   0  0  2  0  0  3  0  0  0  0  0  0
  190.1920  177.4380  141.6760 C   0  0  1  0  0  3  0  0  0  0  0  0
  188.6670  177.7100  141.5790 C   0  0  1  0  0  0  0  0  0  0  0  0
  188.0370  177.3350  140.2330 C   0  0  0  0  0  2  0  0  0  0  0  0
  187.5830  177.4750  146.4710 C   0  0  0  0  0  1  0  0  0  0  0  0
  188.3500  177.4490  145.1570 C   0  0  2  0  0  3  0  0  0  0  0  0
  189.6840  178.1880  145.2470 C   0  0  0  0  0  2  0  0  0  0  0  0
  190.8460  177.2600  145.4070 C   0  0  0  0  0  3  0  0  0  0  0  0
  191.0520  176.6400  146.5680 C   0  0  0  0  0  3  0  0  0  0  0  0
  192.1900  175.6840  146.7390 C   0  0  0  0  0  2  0  0  0  0  0  0
  192.7130  175.7470  148.1600 C   0  0  0  0  0  1  0  0  0  0  0  0
  1 14  1  6  0  0  0
  1 25  1  0  0  0  0
  2  1  1  6  0  0  0
  2  4  1  0  0  0  0
  3  2  1  0  0  0  0
  3  4  1  0  0  0  0
  5  3  1  0  0  0  0
  6  8  2  0  0  0  0
  7  5  1  0  0  0  0
  8  7  2  0  0  0  0
  9  7  1  0  0  0  0
 10  9  1  0  0  0  0
 11 10  1  0  0  0  0
 12 11  1  0  0  0  0
 14 13  1  1  0  0  0
 19 16  1  6  0  0  0
 19 15  1  0  0  0  0
 19 21  1  0  0  0  0
 20 18  1  1  0  0  0
 20 16  1  0  0  0  0
 20 23  1  0  0  0  0
 21 15  1  1  0  0  0
 22 21  1  0  0  0  0
 22 17  1  1  0  0  0
 22 14  1  0  0  0  0
 23 22  1  0  0  0  0
 25 26  1  0  0  0  0
 25 24  1  1  0  0  0
 26 27  1  0  0  0  0
 27 28  2  0  0  0  0
 28 29  1  0  0  0  0
 29 30  1  0  0  0  0
M  END
>  <MODEL>
3

>  <REMARK>
 VINA RESULT:      -7.2      0.840      1.202
  Name = 
  12 active torsions:
  status: ('A' for Active; 'I' for Inactive)
    1  A    between atoms: C_4  and  C_19
    2  A    between atoms: N_6  and  CA_8
    3  A    between atoms: N_6  and  C_21
    4  A    between atoms: C_7  and  C_26
    5  A    between atoms: CA_8  and  C_30
    6  A    between atoms: C_9  and  C_21
    7  A    between atoms: C_10  and  C_15
    8  A    between atoms: C_10  and  C_25
    9  A    between atoms: N_13  and  C_30
   10  A    between atoms: C_19  and  C_24
   11  A    between atoms: C_19  and  C_25
   12  A    between atoms: C_24  and  C_28
                            x       y       z     vdW  Elec       q    Type
                         _______ _______ _______ _____ _____    ______ ____

>  <TORSDO>
F 12

$$$$
=
 OpenBabel11052412383D

 30 32  0  0  1  0  0  0  0  0999 V2000
  189.6920  177.4350  141.6290 C   0  0  2  0  0  3  0  0  0  0  0  0
  188.3300  177.0060  142.1670 C   0  0  2  0  0  3  0  0  0  0  0  0
  187.4880  178.2000  142.3240 N   0  0  0  0  0  0  0  0  0  0  0  0
  188.0860  177.5530  143.4970 C   0  0  0  0  0  2  0  0  0  0  0  0
  186.1070  177.7500  142.2320 C   0  0  0  0  0  2  0  0  0  0  0  0
  184.6320  179.7360  139.7350 O   0  0  0  0  0  0  0  0  0  0  0  0
  185.1990  178.9260  142.0770 C   0  0  0  0  0  0  0  0  0  0  0  0
  184.9090  179.3410  140.8760 C   0  0  0  0  0  0  0  0  0  0  0  0
  184.6000  179.5680  143.2070 N   0  0  0  0  0  2  0  0  0  0  0  0
  184.3380  178.8740  144.4550 C   0  0  0  0  0  2  0  0  0  0  0  0
  185.3540  179.2930  145.4990 C   0  0  0  0  0  2  0  0  0  0  0  0
  185.3780  178.2530  146.6010 C   0  0  0  0  0  1  0  0  0  0  0  0
  191.2240  176.6470  139.9070 O   0  0  0  0  0  1  0  0  0  0  0  0
  189.8750  176.8810  140.2050 C   0  0  2  0  0  3  0  0  0  0  0  0
  190.0820  176.5500  137.1300 O   0  0  0  0  0  0  0  0  0  0  0  0
  187.9050  177.1980  136.4220 C   0  0  0  0  0  2  0  0  0  0  0  0
  188.9900  178.9980  139.5760 O   0  0  0  0  0  1  0  0  0  0  0  0
  186.9580  179.0040  137.6850 O   0  0  0  0  0  1  0  0  0  0  0  0
  189.3850  177.6020  136.4910 C   0  0  1  0  0  3  0  0  0  0  0  0
  187.0960  177.6120  137.6350 C   0  0  2  0  0  3  0  0  0  0  0  0
  190.0450  177.7710  137.8280 C   0  0  1  0  0  3  0  0  0  0  0  0
  189.1680  177.6930  139.1060 C   0  0  1  0  0  0  0  0  0  0  0  0
  187.7770  177.0840  138.8890 C   0  0  0  0  0  2  0  0  0  0  0  0
  190.9360  175.6440  143.0300 C   0  0  0  0  0  1  0  0  0  0  0  0
  190.8820  177.0880  142.5490 C   0  0  2  0  0  3  0  0  0  0  0  0
  191.0830  178.0880  143.6850 C   0  0  0  0  0  2  0  0  0  0  0  0
  191.4420  177.4260  144.9780 C   0  0  0  0  0  3  0  0  0  0  0  0
  190.5680  177.4030  145.9830 C   0  0  0  0  0  3  0  0  0  0  0  0
  190.8960  176.7190  147.2730 C   0  0  0  0  0  2  0  0  0  0  0  0
  192.1320  175.8590  147.1050 C   0  0  0  0  0  1  0  0  0  0  0  0
  1 14  1  6  0  0  0
  1 25  1  0  0  0  0
  2  1  1  6  0  0  0
  2  3  1  0  0  0  0
  2  4  1  0  0  0  0
  3  4  1  0  0  0  0
  5  3  1  0  0  0  0
  6  8  2  0  0  0  0
  7  5  1  0  0  0  0
  7  9  1  0  0  0  0
  8  7  2  0  0  0  0
  9 10  1  0  0  0  0
 10 11  1  0  0  0  0
 11 12  1  0  0  0  0
 14 13  1  6  0  0  0
 16 20  1  0  0  0  0
 19 16  1  1  0  0  0
 19 15  1  0  0  0  0
 19 21  1  0  0  0  0
 20 18  1  1  0  0  0
 20 23  1  0  0  0  0
 21 15  1  1  0  0  0
 21 22  1  0  0  0  0
 22 17  1  1  0  0  0
 22 14  1  0  0  0  0
 23 22  1  0  0  0  0
 25 24  1  1  0  0  0
 25 26  1  0  0  0  0
 26 27  1  0  0  0  0
 27 28  2  0  0  0  0
 28 29  1  0  0  0  0
 30 29  1  0  0  0  0
M  END
>  <MODEL>
4

>  <REMARK>
 VINA RESULT:      -6.6      2.018      3.639
  Name = 
  12 active torsions:
  status: ('A' for Active; 'I' for Inactive)
    1  A    between atoms: C_4  and  C_19
    2  A    between atoms: N_6  and  CA_8
    3  A    between atoms: N_6  and  C_21
    4  A    between atoms: C_7  and  C_26
    5  A    between atoms: CA_8  and  C_30
    6  A    between atoms: C_9  and  C_21
    7  A    between atoms: C_10  and  C_15
    8  A    between atoms: C_10  and  C_25
    9  A    between atoms: N_13  and  C_30
   10  A    between atoms: C_19  and  C_24
   11  A    between atoms: C_19  and  C_25
   12  A    between atoms: C_24  and  C_28
                            x       y       z     vdW  Elec       q    Type
                         _______ _______ _______ _____ _____    ______ ____

>  <TORSDO>
F 12

$$$$
=
 OpenBabel11052412383D

 30 32  0  0  1  0  0  0  0  0999 V2000
  188.6330  177.1010  141.7410 C   0  0  2  0  0  3  0  0  0  0  0  0
  189.9550  176.5550  142.2730 C   0  0  2  0  0  3  0  0  0  0  0  0
  190.3820  177.3810  143.4110 N   0  0  0  0  0  0  0  0  0  0  0  0
  191.0360  177.5190  142.1040 C   0  0  0  0  0  2  0  0  0  0  0  0
  191.2320  176.5410  144.2400 C   0  0  0  0  0  2  0  0  0  0  0  0
  192.6260  176.0850  147.4340 O   0  0  0  0  0  0  0  0  0  0  0  0
  190.9130  176.7610  145.6820 C   0  0  0  0  0  0  0  0  0  0  0  0
  191.7910  176.4140  146.5800 C   0  0  0  0  0  0  0  0  0  0  0  0
  189.6970  177.3920  146.0950 N   0  0  0  0  0  2  0  0  0  0  0  0
  188.9690  176.9880  147.2840 C   0  0  0  0  0  2  0  0  0  0  0  0
  188.1930  178.1670  147.8370 C   0  0  0  0  0  2  0  0  0  0  0  0
  186.8540  178.2440  147.1330 C   0  0  0  0  0  1  0  0  0  0  0  0
  188.2090  179.3800  140.9930 O   0  0  0  0  0  1  0  0  0  0  0  0
  188.9170  178.2040  140.7070 C   0  0  2  0  0  3  0  0  0  0  0  0
  186.4820  178.6250  138.8340 O   0  0  0  0  0  0  0  0  0  0  0  0
  187.5340  178.8430  136.7110 C   0  0  0  0  0  2  0  0  0  0  0  0
  189.4770  176.5860  139.0550 O   0  0  0  0  0  1  0  0  0  0  0  0
  189.4430  177.4210  136.4080 O   0  0  0  0  0  1  0  0  0  0  0  0
  186.6930  177.9330  137.6190 C   0  0  1  0  0  3  0  0  0  0  0  0
  189.0300  178.6720  136.8820 C   0  0  2  0  0  3  0  0  0  0  0  0
  187.2630  177.4580  138.9230 C   0  0  1  0  0  3  0  0  0  0  0  0
  188.7510  177.7670  139.2410 C   0  0  1  0  0  0  0  0  0  0  0  0
  189.3830  178.8440  138.3520 C   0  0  0  0  0  2  0  0  0  0  0  0
  187.3360  176.5330  143.9120 C   0  0  0  0  0  1  0  0  0  0  0  0
  187.6460  177.5630  142.8350 C   0  0  2  0  0  3  0  0  0  0  0  0
  186.3850  178.2190  142.2770 C   0  0  0  0  0  2  0  0  0  0  0  0
  185.2180  178.1080  143.2070 C   0  0  0  0  0  3  0  0  0  0  0  0
  184.9030  179.1230  144.0100 C   0  0  0  0  0  3  0  0  0  0  0  0
  183.7210  179.0430  144.9230 C   0  0  0  0  0  2  0  0  0  0  0  0
  182.4560  178.8260  144.1180 C   0  0  0  0  0  1  0  0  0  0  0  0
  1 14  1  6  0  0  0
  1 25  1  0  0  0  0
  2  1  1  6  0  0  0
  2  3  1  0  0  0  0
  3  5  1  0  0  0  0
  4  2  1  0  0  0  0
  4  3  1  0  0  0  0
  5  7  1  0  0  0  0
  7  9  1  0  0  0  0
  7  8  2  0  0  0  0
  8  6  2  0  0  0  0
  9 10  1  0  0  0  0
 10 11  1  0  0  0  0
 12 11  1  0  0  0  0
 14 13  1  1  0  0  0
 16 20  1  0  0  0  0
 19 16  1  6  0  0  0
 19 15  1  0  0  0  0
 19 21  1  0  0  0  0
 20 18  1  1  0  0  0
 20 23  1  0  0  0  0
 21 15  1  1  0  0  0
 21 22  1  0  0  0  0
 22 17  1  6  0  0  0
 22 14  1  0  0  0  0
 23 22  1  0  0  0  0
 25 24  1  6  0  0  0
 26 25  1  0  0  0  0
 26 27  1  0  0  0  0
 27 28  2  0  0  0  0
 28 29  1  0  0  0  0
 30 29  1  0  0  0  0
M  END
>  <MODEL>
5

>  <REMARK>
 VINA RESULT:      -6.5      2.825      6.660
  Name = 
  12 active torsions:
  status: ('A' for Active; 'I' for Inactive)
    1  A    between atoms: C_4  and  C_19
    2  A    between atoms: N_6  and  CA_8
    3  A    between atoms: N_6  and  C_21
    4  A    between atoms: C_7  and  C_26
    5  A    between atoms: CA_8  and  C_30
    6  A    between atoms: C_9  and  C_21
    7  A    between atoms: C_10  and  C_15
    8  A    between atoms: C_10  and  C_25
    9  A    between atoms: N_13  and  C_30
   10  A    between atoms: C_19  and  C_24
   11  A    between atoms: C_19  and  C_25
   12  A    between atoms: C_24  and  C_28
                            x       y       z     vdW  Elec       q    Type
                         _______ _______ _______ _____ _____    ______ ____

>  <TORSDO>
F 12

$$$$
=
 OpenBabel11052412383D

 30 32  0  0  1  0  0  0  0  0999 V2000
  188.7550  177.4310  140.2980 C   0  0  2  0  0  3  0  0  0  0  0  0
  189.9920  176.7140  140.8310 C   0  0  2  0  0  3  0  0  0  0  0  0
  190.8830  177.7070  141.4480 N   0  0  0  0  0  0  0  0  0  0  0  0
  191.1990  177.1410  140.1320 C   0  0  0  0  0  2  0  0  0  0  0  0
  191.6810  176.9950  142.4340 C   0  0  0  0  0  2  0  0  0  0  0  0
  191.2990  180.0620  144.1100 O   0  0  0  0  0  0  0  0  0  0  0  0
  191.4090  177.5410  143.7980 C   0  0  0  0  0  0  0  0  0  0  0  0
  191.3530  178.8330  143.9570 C   0  0  0  0  0  0  0  0  0  0  0  0
  191.1550  176.6830  144.9140 N   0  0  0  0  0  2  0  0  0  0  0  0
  190.3630  177.0980  146.0580 C   0  0  0  0  0  2  0  0  0  0  0  0
  191.1050  176.7770  147.3400 C   0  0  0  0  0  2  0  0  0  0  0  0
  192.0560  175.6280  147.0790 C   0  0  0  0  0  1  0  0  0  0  0  0
  189.0550  179.6580  139.3590 O   0  0  0  0  0  1  0  0  0  0  0  0
  189.1480  178.2880  139.0820 C   0  0  2  0  0  3  0  0  0  0  0  0
  190.2840  176.7570  136.6360 O   0  0  0  0  0  0  0  0  0  0  0  0
  188.3600  175.5960  135.8520 C   0  0  0  0  0  2  0  0  0  0  0  0
  187.4800  178.8950  137.4970 O   0  0  0  0  0  1  0  0  0  0  0  0
  186.3170  176.8400  136.0380 O   0  0  0  0  0  1  0  0  0  0  0  0
  189.3310  176.7580  135.5910 C   0  0  1  0  0  3  0  0  0  0  0  0
  187.1740  175.9670  136.7190 C   0  0  2  0  0  3  0  0  0  0  0  0
  189.4320  177.8760  136.5870 C   0  0  1  0  0  3  0  0  0  0  0  0
  188.4320  177.9080  137.7730 C   0  0  1  0  0  0  0  0  0  0  0  0
  187.6800  176.5930  138.0100 C   0  0  0  0  0  2  0  0  0  0  0  0
  188.0080  177.6690  142.7680 C   0  0  0  0  0  1  0  0  0  0  0  0
  187.9790  178.2420  141.3580 C   0  0  2  0  0  3  0  0  0  0  0  0
  186.5700  178.6280  140.9160 C   0  0  0  0  0  2  0  0  0  0  0  0
  185.6740  178.9580  142.0680 C   0  0  0  0  0  3  0  0  0  0  0  0
  184.5040  178.3360  142.2060 C   0  0  0  0  0  3  0  0  0  0  0  0
  183.6090  178.6280  143.3680 C   0  0  0  0  0  2  0  0  0  0  0  0
  184.4370  179.0080  144.5790 C   0  0  0  0  0  1  0  0  0  0  0  0
  1 14  1  6  0  0  0
  1 25  1  0  0  0  0
  2  1  1  6  0  0  0
  2  3  1  0  0  0  0
  3  5  1  0  0  0  0
  4  2  1  0  0  0  0
  4  3  1  0  0  0  0
  5  7  1  0  0  0  0
  7  8  2  0  0  0  0
  7  9  1  0  0  0  0
  8  6  2  0  0  0  0
  9 10  1  0  0  0  0
 10 11  1  0  0  0  0
 12 11  1  0  0  0  0
 14 13  1  1  0  0  0
 16 20  1  0  0  0  0
 19 16  1  1  0  0  0
 19 21  1  0  0  0  0
 19 15  1  0  0  0  0
 20 18  1  6  0  0  0
 20 23  1  0  0  0  0
 21 15  1  1  0  0  0
 21 22  1  0  0  0  0
 22 17  1  6  0  0  0
 22 23  1  0  0  0  0
 22 14  1  0  0  0  0
 25 24  1  1  0  0  0
 26 25  1  0  0  0  0
 26 27  1  0  0  0  0
 27 28  2  0  0  0  0
 28 29  1  0  0  0  0
 29 30  1  0  0  0  0
M  END
>  <MODEL>
6

>  <REMARK>
 VINA RESULT:      -6.2      2.933      6.910
  Name = 
  12 active torsions:
  status: ('A' for Active; 'I' for Inactive)
    1  A    between atoms: C_4  and  C_19
    2  A    between atoms: N_6  and  CA_8
    3  A    between atoms: N_6  and  C_21
    4  A    between atoms: C_7  and  C_26
    5  A    between atoms: CA_8  and  C_30
    6  A    between atoms: C_9  and  C_21
    7  A    between atoms: C_10  and  C_15
    8  A    between atoms: C_10  and  C_25
    9  A    between atoms: N_13  and  C_30
   10  A    between atoms: C_19  and  C_24
   11  A    between atoms: C_19  and  C_25
   12  A    between atoms: C_24  and  C_28
                            x       y       z     vdW  Elec       q    Type
                         _______ _______ _______ _____ _____    ______ ____

>  <TORSDO>
F 12

$$$$
=
 OpenBabel11052412383D

 30 32  0  0  1  0  0  0  0  0999 V2000
  188.2530  178.0260  142.4860 C   0  0  2  0  0  3  0  0  0  0  0  0
  186.8270  177.6290  142.8570 C   0  0  2  0  0  3  0  0  0  0  0  0
  185.8960  178.5780  142.2320 N   0  0  0  0  0  0  0  0  0  0  0  0
  186.1820  178.6540  143.6690 C   0  0  0  0  0  2  0  0  0  0  0  0
  184.6310  177.8770  142.0740 C   0  0  0  0  0  2  0  0  0  0  0  0
  184.8130  179.7610  139.1110 O   0  0  0  0  0  0  0  0  0  0  0  0
  183.7530  178.6220  141.1210 C   0  0  0  0  0  0  0  0  0  0  0  0
  184.2970  179.2060  140.0910 C   0  0  0  0  0  0  0  0  0  0  0  0
  182.3320  178.6620  141.2830 N   0  0  0  0  0  2  0  0  0  0  0  0
  181.4290  177.8540  140.4820 C   0  0  0  0  0  2  0  0  0  0  0  0
  180.0220  177.9540  141.0360 C   0  0  0  0  0  2  0  0  0  0  0  0
  179.0700  177.2710  140.0750 C   0  0  0  0  0  1  0  0  0  0  0  0
  189.8900  176.3350  141.8600 O   0  0  0  0  0  1  0  0  0  0  0  0
  188.7850  177.0680  141.4070 C   0  0  2  0  0  3  0  0  0  0  0  0
  190.5630  176.0440  139.0830 O   0  0  0  0  0  0  0  0  0  0  0  0
  189.3960  176.8640  137.1790 C   0  0  0  0  0  2  0  0  0  0  0  0
  188.9780  179.1110  140.2020 O   0  0  0  0  0  1  0  0  0  0  0  0
  188.4150  179.0320  137.4850 O   0  0  0  0  0  1  0  0  0  0  0  0
  190.6360  177.0290  138.0710 C   0  0  1  0  0  3  0  0  0  0  0  0
  188.1920  177.6590  137.6440 C   0  0  2  0  0  3  0  0  0  0  0  0
  190.4640  177.3780  139.5200 C   0  0  1  0  0  3  0  0  0  0  0  0
  189.0420  177.7230  140.0390 C   0  0  1  0  0  0  0  0  0  0  0  0
  187.9020  177.3150  139.0970 C   0  0  0  0  0  2  0  0  0  0  0  0
  190.6570  178.4920  143.3370 C   0  0  0  0  0  1  0  0  0  0  0  0
  189.2160  178.1470  143.6870 C   0  0  2  0  0  3  0  0  0  0  0  0
  189.1180  176.9770  144.6640 C   0  0  0  0  0  2  0  0  0  0  0  0
  188.9990  177.4230  146.0870 C   0  0  0  0  0  3  0  0  0  0  0  0
  187.8150  177.4000  146.6980 C   0  0  0  0  0  3  0  0  0  0  0  0
  187.6810  177.8110  148.1300 C   0  0  0  0  0  2  0  0  0  0  0  0
  189.0260  178.2460  148.6750 C   0  0  0  0  0  1  0  0  0  0  0  0
  1 14  1  6  0  0  0
  1 25  1  0  0  0  0
  2  1  1  6  0  0  0
  2  4  1  0  0  0  0
  3  2  1  0  0  0  0
  3  4  1  0  0  0  0
  5  3  1  0  0  0  0
  6  8  2  0  0  0  0
  7  9  1  0  0  0  0
  7  5  1  0  0  0  0
  8  7  2  0  0  0  0
 10 11  1  0  0  0  0
 10  9  1  0  0  0  0
 12 11  1  0  0  0  0
 14 13  1  1  0  0  0
 16 20  1  0  0  0  0
 19 16  1  6  0  0  0
 19 15  1  0  0  0  0
 19 21  1  0  0  0  0
 20 18  1  1  0  0  0
 20 23  1  0  0  0  0
 21 15  1  1  0  0  0
 21 22  1  0  0  0  0
 22 17  1  1  0  0  0
 22 14  1  0  0  0  0
 23 22  1  0  0  0  0
 25 24  1  6  0  0  0
 25 26  1  0  0  0  0
 26 27  1  0  0  0  0
 27 28  2  0  0  0  0
 28 29  1  0  0  0  0
 29 30  1  0  0  0  0
M  END
>  <MODEL>
7

>  <REMARK>
 VINA RESULT:      -6.1      1.704      2.400
  Name = 
  12 active torsions:
  status: ('A' for Active; 'I' for Inactive)
    1  A    between atoms: C_4  and  C_19
    2  A    between atoms: N_6  and  CA_8
    3  A    between atoms: N_6  and  C_21
    4  A    between atoms: C_7  and  C_26
    5  A    between atoms: CA_8  and  C_30
    6  A    between atoms: C_9  and  C_21
    7  A    between atoms: C_10  and  C_15
    8  A    between atoms: C_10  and  C_25
    9  A    between atoms: N_13  and  C_30
   10  A    between atoms: C_19  and  C_24
   11  A    between atoms: C_19  and  C_25
   12  A    between atoms: C_24  and  C_28
                            x       y       z     vdW  Elec       q    Type
                         _______ _______ _______ _____ _____    ______ ____

>  <TORSDO>
F 12

$$$$
=
 OpenBabel11052412383D

 30 32  0  0  1  0  0  0  0  0999 V2000
  186.3340  178.1300  143.0800 C   0  0  2  0  0  3  0  0  0  0  0  0
  185.4950  178.0980  141.8050 C   0  0  2  0  0  3  0  0  0  0  0  0
  186.0920  179.0160  140.8250 N   0  0  0  0  0  0  0  0  0  0  0  0
  184.8700  179.3890  141.5460 C   0  0  0  0  0  2  0  0  0  0  0  0
  185.6960  178.5360  139.5100 C   0  0  0  0  0  2  0  0  0  0  0  0
  186.6070  177.4140  136.3060 O   0  0  0  0  0  0  0  0  0  0  0  0
  186.9100  178.2500  138.6870 C   0  0  0  0  0  0  0  0  0  0  0  0
  186.7540  177.8210  137.4670 C   0  0  0  0  0  0  0  0  0  0  0  0
  188.2290  178.4870  139.1870 N   0  0  0  0  0  2  0  0  0  0  0  0
  189.3930  178.5600  138.3220 C   0  0  0  0  0  2  0  0  0  0  0  0
  190.4240  177.5380  138.7590 C   0  0  0  0  0  2  0  0  0  0  0  0
  189.9430  176.1580  138.3570 C   0  0  0  0  0  1  0  0  0  0  0  0
  187.1580  176.0290  143.9960 O   0  0  0  0  0  1  0  0  0  0  0  0
  187.3890  177.0130  143.0240 C   0  0  2  0  0  3  0  0  0  0  0  0
  189.5000  176.7570  145.2800 O   0  0  0  0  0  0  0  0  0  0  0  0
  191.5210  176.5700  144.0380 C   0  0  0  0  0  2  0  0  0  0  0  0
  188.9170  178.6630  142.2470 O   0  0  0  0  0  1  0  0  0  0  0  0
  191.5860  177.9210  142.0570 O   0  0  0  0  0  1  0  0  0  0  0  0
  190.6620  177.4820  144.9280 C   0  0  1  0  0  3  0  0  0  0  0  0
  191.2010  176.6730  142.5600 C   0  0  2  0  0  3  0  0  0  0  0  0
  189.2930  177.8880  144.4680 C   0  0  1  0  0  3  0  0  0  0  0  0
  188.8470  177.5070  143.0310 C   0  0  1  0  0  0  0  0  0  0  0  0
  189.7120  176.4350  142.3570 C   0  0  0  0  0  2  0  0  0  0  0  0
  184.0100  178.2760  144.2180 C   0  0  0  0  0  1  0  0  0  0  0  0
  185.5120  178.0940  144.3870 C   0  0  2  0  0  3  0  0  0  0  0  0
  186.0850  178.9800  145.4900 C   0  0  0  0  0  2  0  0  0  0  0  0
  186.7310  178.1910  146.5850 C   0  0  0  0  0  3  0  0  0  0  0  0
  187.3050  178.8180  147.6110 C   0  0  0  0  0  3  0  0  0  0  0  0
  187.9270  178.0470  148.7330 C   0  0  0  0  0  2  0  0  0  0  0  0
  189.4150  177.8900  148.4930 C   0  0  0  0  0  1  0  0  0  0  0  0
  1 14  1  6  0  0  0
  1 25  1  0  0  0  0
  2  1  1  1  0  0  0
  3  4  1  0  0  0  0
  3  2  1  0  0  0  0
  4  2  1  0  0  0  0
  5  3  1  0  0  0  0
  6  8  2  0  0  0  0
  7  9  1  0  0  0  0
  7  5  1  0  0  0  0
  8  7  2  0  0  0  0
 10 11  1  0  0  0  0
 10  9  1  0  0  0  0
 12 11  1  0  0  0  0
 14 22  1  0  0  0  0
 14 13  1  1  0  0  0
 19 16  1  6  0  0  0
 19 15  1  0  0  0  0
 20 18  1  1  0  0  0
 20 16  1  0  0  0  0
 21 19  1  0  0  0  0
 21 15  1  1  0  0  0
 22 17  1  6  0  0  0
 22 21  1  0  0  0  0
 23 20  1  0  0  0  0
 23 22  1  0  0  0  0
 25 24  1  6  0  0  0
 25 26  1  0  0  0  0
 26 27  1  0  0  0  0
 27 28  2  0  0  0  0
 28 29  1  0  0  0  0
 30 29  1  0  0  0  0
M  END
>  <MODEL>
8

>  <REMARK>
 VINA RESULT:      -6.1      2.297      4.209
  Name = 
  12 active torsions:
  status: ('A' for Active; 'I' for Inactive)
    1  A    between atoms: C_4  and  C_19
    2  A    between atoms: N_6  and  CA_8
    3  A    between atoms: N_6  and  C_21
    4  A    between atoms: C_7  and  C_26
    5  A    between atoms: CA_8  and  C_30
    6  A    between atoms: C_9  and  C_21
    7  A    between atoms: C_10  and  C_15
    8  A    between atoms: C_10  and  C_25
    9  A    between atoms: N_13  and  C_30
   10  A    between atoms: C_19  and  C_24
   11  A    between atoms: C_19  and  C_25
   12  A    between atoms: C_24  and  C_28
                            x       y       z     vdW  Elec       q    Type
                         _______ _______ _______ _____ _____    ______ ____

>  <TORSDO>
F 12

$$$$
=
 OpenBabel11052412383D

 30 32  0  0  1  0  0  0  0  0999 V2000
  187.1730  178.2470  144.8600 C   0  0  2  0  0  3  0  0  0  0  0  0
  187.0420  177.4570  143.5610 C   0  0  2  0  0  3  0  0  0  0  0  0
  187.7580  178.1750  142.4980 N   0  0  0  0  0  0  0  0  0  0  0  0
  186.2920  178.2020  142.5570 C   0  0  0  0  0  2  0  0  0  0  0  0
  188.1370  177.1810  141.5070 C   0  0  0  0  0  2  0  0  0  0  0  0
  191.5430  177.2300  140.6380 O   0  0  0  0  0  0  0  0  0  0  0  0
  189.0670  177.7880  140.5080 C   0  0  0  0  0  0  0  0  0  0  0  0
  190.3360  177.5020  140.5750 C   0  0  0  0  0  0  0  0  0  0  0  0
  188.5900  178.6280  139.4520 N   0  0  0  0  0  2  0  0  0  0  0  0
  188.1870  178.1080  138.1580 C   0  0  0  0  0  2  0  0  0  0  0  0
  189.3160  178.2750  137.1610 C   0  0  0  0  0  2  0  0  0  0  0  0
  189.1550  177.2440  136.0630 C   0  0  0  0  0  1  0  0  0  0  0  0
  187.7860  177.7790  147.1700 O   0  0  0  0  0  1  0  0  0  0  0  0
  188.0840  177.4800  145.8340 C   0  0  2  0  0  3  0  0  0  0  0  0
  190.4620  176.1840  147.3440 O   0  0  0  0  0  0  0  0  0  0  0  0
  192.0260  175.8390  145.5840 C   0  0  0  0  0  2  0  0  0  0  0  0
  189.8220  178.8630  144.9800 O   0  0  0  0  0  1  0  0  0  0  0  0
  192.0550  177.5840  143.9380 O   0  0  0  0  0  1  0  0  0  0  0  0
  191.6810  176.6780  146.8240 C   0  0  1  0  0  3  0  0  0  0  0  0
  191.4420  176.3770  144.2930 C   0  0  2  0  0  3  0  0  0  0  0  0
  190.4230  177.4960  146.8370 C   0  0  1  0  0  3  0  0  0  0  0  0
  189.5890  177.5990  145.5320 C   0  0  1  0  0  0  0  0  0  0  0  0
  189.9400  176.5550  144.4650 C   0  0  0  0  0  2  0  0  0  0  0  0
  185.0890  177.5180  146.2180 C   0  0  0  0  0  1  0  0  0  0  0  0
  185.8280  178.6430  145.5070 C   0  0  2  0  0  3  0  0  0  0  0  0
  184.9170  179.4400  144.5750 C   0  0  0  0  0  2  0  0  0  0  0  0
  183.4740  179.0790  144.7330 C   0  0  0  0  0  3  0  0  0  0  0  0
  182.6790  179.0180  143.6650 C   0  0  0  0  0  3  0  0  0  0  0  0
  181.2410  178.6270  143.7980 C   0  0  0  0  0  2  0  0  0  0  0  0
  180.4070  179.3530  142.7620 C   0  0  0  0  0  1  0  0  0  0  0  0
  1 25  1  1  0  0  0
  1 14  1  0  0  0  0
  2  1  1  1  0  0  0
  3  4  1  0  0  0  0
  3  2  1  0  0  0  0
  4  2  1  0  0  0  0
  5  3  1  0  0  0  0
  7  8  2  0  0  0  0
  7  5  1  0  0  0  0
  8  6  2  0  0  0  0
  9  7  1  0  0  0  0
 10  9  1  0  0  0  0
 11 10  1  0  0  0  0
 12 11  1  0  0  0  0
 14 13  1  1  0  0  0
 19 16  1  6  0  0  0
 19 21  1  0  0  0  0
 19 15  1  0  0  0  0
 20 18  1  1  0  0  0
 20 23  1  0  0  0  0
 20 16  1  0  0  0  0
 21 15  1  1  0  0  0
 22 17  1  6  0  0  0
 22 14  1  0  0  0  0
 22 21  1  0  0  0  0
 23 22  1  0  0  0  0
 25 24  1  6  0  0  0
 26 27  1  0  0  0  0
 26 25  1  0  0  0  0
 28 29  1  0  0  0  0
 28 27  2  0  0  0  0
 30 29  1  0  0  0  0
M  END
>  <MODEL>
9

>  <REMARK>
 VINA RESULT:      -5.9      2.814      6.158
  Name = 
  12 active torsions:
  status: ('A' for Active; 'I' for Inactive)
    1  A    between atoms: C_4  and  C_19
    2  A    between atoms: N_6  and  CA_8
    3  A    between atoms: N_6  and  C_21
    4  A    between atoms: C_7  and  C_26
    5  A    between atoms: CA_8  and  C_30
    6  A    between atoms: C_9  and  C_21
    7  A    between atoms: C_10  and  C_15
    8  A    between atoms: C_10  and  C_25
    9  A    between atoms: N_13  and  C_30
   10  A    between atoms: C_19  and  C_24
   11  A    between atoms: C_19  and  C_25
   12  A    between atoms: C_24  and  C_28
                            x       y       z     vdW  Elec       q    Type
                         _______ _______ _______ _____ _____    ______ ____

>  <TORSDO>
F 12

$$$$
