=
 OpenBabel11052413163D

 31 34  0  0  1  0  0  0  0  0999 V2000
  190.4110  177.6720  145.3230 O   0  0  0  0  0  0  0  0  0  0  0  0
  188.6780  178.6660  142.5370 C   0  0  1  0  0  3  0  0  0  0  0  0
  187.4870  178.3100  143.4110 C   0  0  0  0  0  0  0  0  0  0  0  0
  186.4670  177.5490  145.4800 C   0  0  0  0  0  3  0  0  0  0  0  0
  190.0580  178.1500  142.9630 C   0  0  1  0  0  3  0  0  0  0  0  0
  191.6190  175.7610  144.5450 C   0  0  0  0  0  2  0  0  0  0  0  0
  187.6060  177.7970  144.7080 C   0  0  0  0  0  3  0  0  0  0  0  0
  189.1250  177.0910  140.5380 C   0  0  0  0  0  0  0  0  0  0  0  0
  191.6530  177.0330  145.3790 C   0  0  0  0  0  2  0  0  0  0  0  0
  186.1370  179.1040  141.5000 C   0  0  0  0  0  2  0  0  0  0  0  0
  185.1990  177.8240  144.9610 C   0  0  0  0  0  3  0  0  0  0  0  0
  189.9090  176.3850  141.2880 N   0  0  0  0  0  0  0  0  0  0  0  0
  188.4150  178.3400  141.0330 C   0  0  1  0  0  3  0  0  0  0  0  0
  190.5460  178.6520  144.3320 C   0  0  0  0  0  2  0  0  0  0  0  0
  183.4550  178.6720  143.0500 Cl  0  0  0  0  0  0  0  0  0  0  0  0
  190.1570  176.6450  142.6920 C   0  0  1  0  0  3  0  0  0  0  0  0
  191.5270  176.0840  143.0580 C   0  0  0  0  0  2  0  0  0  0  0  0
  186.9890  178.2750  140.6500 N   0  0  0  0  0  2  0  0  0  0  0  0
  186.2130  178.5880  142.8990 C   0  0  0  0  0  0  0  0  0  0  0  0
  185.0650  178.3450  143.6710 C   0  0  0  0  0  0  0  0  0  0  0  0
  188.9850  176.7150  139.0950 C   0  0  0  0  0  2  0  0  0  0  0  0
  189.2520  178.6340  137.4930 C   0  0  0  0  0  1  0  0  0  0  0  0
  189.9610  177.5070  138.2270 C   0  0  2  0  0  3  0  0  0  0  0  0
  189.9710  176.4490  135.9350 C   0  0  0  0  0  1  0  0  0  0  0  0
  190.7400  176.6100  137.2490 C   0  0  2  0  0  3  0  0  0  0  0  0
  190.3970  174.2320  137.0980 C   0  0  0  0  0  1  0  0  0  0  0  0
  191.0520  175.2990  137.8500 N   0  0  0  0  0  0  0  0  0  0  0  0
  192.5010  175.0330  137.8670 C   0  0  0  0  0  2  0  0  0  0  0  0
  193.3460  176.2710  137.9790 C   0  0  0  0  0  0  0  0  0  0  0  0
  193.9440  176.7190  136.9660 O   0  0  0  0  0  0  0  0  0  0  0  0
  193.4610  176.9290  139.1960 O   0  0  0  0  0  1  0  0  0  0  0  0
  1  9  1  0  0  0  0
  2  5  1  0  0  0  0
  2  3  1  1  0  0  0
  3  7  1  0  0  0  0
  5 14  1  1  0  0  0
  6  9  1  0  0  0  0
  7  4  2  0  0  0  0
  8 12  2  0  0  0  0
 10 19  1  0  0  0  0
 11  4  1  0  0  0  0
 12 16  1  0  0  0  0
 13  8  1  1  0  0  0
 13  2  1  0  0  0  0
 14  1  1  0  0  0  0
 15 20  1  0  0  0  0
 16  5  1  0  0  0  0
 16 17  1  6  0  0  0
 17  6  1  0  0  0  0
 18 13  1  0  0  0  0
 18 10  1  0  0  0  0
 19  3  2  0  0  0  0
 19 20  1  0  0  0  0
 20 11  2  0  0  0  0
 21  8  1  0  0  0  0
 23 22  1  6  0  0  0
 23 21  1  0  0  0  0
 25 24  1  6  0  0  0
 25 27  1  0  0  0  0
 25 23  1  0  0  0  0
 26 27  1  0  0  0  0
 27 28  1  0  0  0  0
 28 29  1  0  0  0  0
 29 31  1  0  0  0  0
 30 29  2  0  0  0  0
M  END
>  <MODEL>
1

>  <REMARK>
 VINA RESULT:      -7.9      0.000      0.000
  Name = 
  6 active torsions:
  status: ('A' for Active; 'I' for Inactive)
    1  A    between atoms: C_1  and  C_24
    2  A    between atoms: C_9  and  C_22
    3  A    between atoms: C_9  and  C_23
    4  A    between atoms: C_15  and  C_23
    5  A    between atoms: N_19  and  C_22
    6  A    between atoms: N_19  and  C_24
                            x       y       z     vdW  Elec       q    Type
                         _______ _______ _______ _____ _____    ______ ____

>  <TORSDO>
F 6

$$$$
=
 OpenBabel11052413163D

 31 34  0  0  1  0  0  0  0  0999 V2000
  180.8520  178.3620  138.5600 O   0  0  0  0  0  0  0  0  0  0  0  0
  184.1900  179.0330  138.9640 C   0  0  1  0  0  3  0  0  0  0  0  0
  184.3260  177.8340  138.0420 C   0  0  0  0  0  0  0  0  0  0  0  0
  183.4280  176.0480  136.6620 C   0  0  0  0  0  3  0  0  0  0  0  0
  182.8350  179.2610  139.6470 C   0  0  1  0  0  3  0  0  0  0  0  0
  180.1540  177.7810  140.7720 C   0  0  0  0  0  2  0  0  0  0  0  0
  183.2330  177.1030  137.5570 C   0  0  0  0  0  3  0  0  0  0  0  0
  184.9340  178.6680  141.4120 C   0  0  0  0  0  0  0  0  0  0  0  0
  179.8230  178.5320  139.4910 C   0  0  0  0  0  2  0  0  0  0  0  0
  186.7500  178.2920  138.1760 C   0  0  0  0  0  2  0  0  0  0  0  0
  184.7180  175.7220  136.2360 C   0  0  0  0  0  3  0  0  0  0  0  0
  183.7230  178.3220  141.7130 N   0  0  0  0  0  0  0  0  0  0  0  0
  185.3450  179.0960  140.0130 C   0  0  1  0  0  3  0  0  0  0  0  0
  181.6560  179.5010  138.6890 C   0  0  0  0  0  2  0  0  0  0  0  0
  187.4240  176.0060  136.1520 Cl  0  0  0  0  0  0  0  0  0  0  0  0
  182.6340  178.2300  140.7620 C   0  0  1  0  0  3  0  0  0  0  0  0
  181.3180  178.4360  141.5060 C   0  0  0  0  0  2  0  0  0  0  0  0
  186.5770  178.3780  139.6250 N   0  0  0  0  0  2  0  0  0  0  0  0
  185.6160  177.5050  137.6070 C   0  0  0  0  0  0  0  0  0  0  0  0
  185.8170  176.4480  136.7050 C   0  0  0  0  0  0  0  0  0  0  0  0
  185.9520  178.7410  142.5080 C   0  0  0  0  0  2  0  0  0  0  0  0
  184.7420  179.3150  144.6340 C   0  0  0  0  0  1  0  0  0  0  0  0
  185.3820  178.2040  143.8190 C   0  0  2  0  0  3  0  0  0  0  0  0
  186.4380  177.9340  146.0970 C   0  0  0  0  0  1  0  0  0  0  0  0
  186.4300  177.4400  144.6470 C   0  0  2  0  0  3  0  0  0  0  0  0
  188.7700  177.8130  145.0730 C   0  0  0  0  0  1  0  0  0  0  0  0
  187.7720  177.5380  144.0430 N   0  0  0  0  0  0  0  0  0  0  0  0
  188.1540  176.2950  143.3480 C   0  0  0  0  0  2  0  0  0  0  0  0
  189.3470  176.4450  142.4460 C   0  0  0  0  0  0  0  0  0  0  0  0
  190.3010  175.6290  142.5240 O   0  0  0  0  0  1  0  0  0  0  0  0
  189.3950  177.4780  141.5200 O   0  0  0  0  0  0  0  0  0  0  0  0
  1 14  1  0  0  0  0
  1  9  1  0  0  0  0
  2  3  1  1  0  0  0
  2  5  1  0  0  0  0
  2 13  1  0  0  0  0
  4  7  1  0  0  0  0
  5 14  1  6  0  0  0
  5 16  1  0  0  0  0
  6 17  1  0  0  0  0
  7  3  2  0  0  0  0
  8 12  2  0  0  0  0
  8 21  1  0  0  0  0
  9  6  1  0  0  0  0
 10 18  1  0  0  0  0
 11  4  2  0  0  0  0
 11 20  1  0  0  0  0
 13 18  1  6  0  0  0
 13  8  1  0  0  0  0
 15 20  1  0  0  0  0
 16 17  1  1  0  0  0
 16 12  1  0  0  0  0
 19  3  1  0  0  0  0
 19 10  1  0  0  0  0
 20 19  2  0  0  0  0
 21 23  1  0  0  0  0
 23 22  1  1  0  0  0
 23 25  1  0  0  0  0
 25 24  1  1  0  0  0
 27 25  1  0  0  0  0
 27 26  1  0  0  0  0
 28 27  1  0  0  0  0
 29 30  1  0  0  0  0
 29 28  1  0  0  0  0
 31 29  2  0  0  0  0
M  END
>  <MODEL>
2

>  <REMARK>
 VINA RESULT:      -7.3      4.342      8.026
  Name = 
  6 active torsions:
  status: ('A' for Active; 'I' for Inactive)
    1  A    between atoms: C_1  and  C_24
    2  A    between atoms: C_9  and  C_22
    3  A    between atoms: C_9  and  C_23
    4  A    between atoms: C_15  and  C_23
    5  A    between atoms: N_19  and  C_22
    6  A    between atoms: N_19  and  C_24
                            x       y       z     vdW  Elec       q    Type
                         _______ _______ _______ _____ _____    ______ ____

>  <TORSDO>
F 6

$$$$
=
 OpenBabel11052413163D

 31 34  0  0  1  0  0  0  0  0999 V2000
  188.0600  177.6920  147.2630 O   0  0  0  0  0  0  0  0  0  0  0  0
  187.6060  177.0330  143.9290 C   0  0  1  0  0  3  0  0  0  0  0  0
  189.0350  177.5430  143.8510 C   0  0  0  0  0  0  0  0  0  0  0  0
  191.0870  178.4000  144.8270 C   0  0  0  0  0  3  0  0  0  0  0  0
  186.8100  177.3270  145.2070 C   0  0  1  0  0  3  0  0  0  0  0  0
  186.4610  179.4180  147.6870 C   0  0  0  0  0  2  0  0  0  0  0  0
  189.7540  178.0030  144.9610 C   0  0  0  0  0  3  0  0  0  0  0  0
  185.7980  178.5690  142.9040 C   0  0  0  0  0  0  0  0  0  0  0  0
  187.1110  178.1360  148.1880 C   0  0  0  0  0  2  0  0  0  0  0  0
  188.8540  177.0040  141.4460 C   0  0  0  0  0  2  0  0  0  0  0  0
  191.7150  178.3310  143.5810 C   0  0  0  0  0  3  0  0  0  0  0  0
  185.6420  179.1320  144.0590 N   0  0  0  0  0  0  0  0  0  0  0  0
  186.7760  177.4290  142.6680 C   0  0  1  0  0  3  0  0  0  0  0  0
  187.4010  176.7260  146.4930 C   0  0  0  0  0  2  0  0  0  0  0  0
  191.8320  177.7980  140.9140 Cl  0  0  0  0  0  0  0  0  0  0  0  0
  186.4110  178.8060  145.2420 C   0  0  1  0  0  3  0  0  0  0  0  0
  185.5780  179.1470  146.4750 C   0  0  0  0  0  2  0  0  0  0  0  0
  187.5770  177.7160  141.4600 N   0  0  0  0  0  2  0  0  0  0  0  0
  189.6720  177.4710  142.6050 C   0  0  0  0  0  0  0  0  0  0  0  0
  191.0120  177.8660  142.4650 C   0  0  0  0  0  0  0  0  0  0  0  0
  184.9130  178.9950  141.7730 C   0  0  0  0  0  2  0  0  0  0  0  0
  183.4340  177.4760  140.4230 C   0  0  0  0  0  1  0  0  0  0  0  0
  183.6200  178.1820  141.7570 C   0  0  2  0  0  3  0  0  0  0  0  0
  182.0540  178.8990  143.6020 C   0  0  0  0  0  1  0  0  0  0  0  0
  182.3870  179.0300  142.1140 C   0  0  2  0  0  3  0  0  0  0  0  0
  180.1640  178.1040  142.0980 C   0  0  0  0  0  1  0  0  0  0  0  0
  181.2270  178.6750  141.2740 N   0  0  0  0  0  0  0  0  0  0  0  0
  180.6830  179.8470  140.5650 C   0  0  0  0  0  2  0  0  0  0  0  0
  181.1000  179.9320  139.1230 C   0  0  0  0  0  0  0  0  0  0  0  0
  180.3480  179.4780  138.2220 O   0  0  0  0  0  0  0  0  0  0  0  0
  182.3100  180.5200  138.7810 O   0  0  0  0  0  1  0  0  0  0  0  0
  1  9  1  0  0  0  0
  2  3  1  1  0  0  0
  2  5  1  0  0  0  0
  3  7  1  0  0  0  0
  4  7  2  0  0  0  0
  5 16  1  0  0  0  0
  5 14  1  1  0  0  0
  6  9  1  0  0  0  0
  8 12  2  0  0  0  0
 10 18  1  0  0  0  0
 10 19  1  0  0  0  0
 11  4  1  0  0  0  0
 12 16  1  0  0  0  0
 13 18  1  6  0  0  0
 13  8  1  0  0  0  0
 13  2  1  0  0  0  0
 14  1  1  0  0  0  0
 15 20  1  0  0  0  0
 16 17  1  1  0  0  0
 17  6  1  0  0  0  0
 19  3  2  0  0  0  0
 20 19  1  0  0  0  0
 20 11  2  0  0  0  0
 21  8  1  0  0  0  0
 23 22  1  6  0  0  0
 23 21  1  0  0  0  0
 23 25  1  0  0  0  0
 25 24  1  1  0  0  0
 27 26  1  0  0  0  0
 27 25  1  0  0  0  0
 28 27  1  0  0  0  0
 29 28  1  0  0  0  0
 30 29  2  0  0  0  0
 31 29  1  0  0  0  0
M  END
>  <MODEL>
3

>  <REMARK>
 VINA RESULT:      -7.0      4.289      7.549
  Name = 
  6 active torsions:
  status: ('A' for Active; 'I' for Inactive)
    1  A    between atoms: C_1  and  C_24
    2  A    between atoms: C_9  and  C_22
    3  A    between atoms: C_9  and  C_23
    4  A    between atoms: C_15  and  C_23
    5  A    between atoms: N_19  and  C_22
    6  A    between atoms: N_19  and  C_24
                            x       y       z     vdW  Elec       q    Type
                         _______ _______ _______ _____ _____    ______ ____

>  <TORSDO>
F 6

$$$$
=
 OpenBabel11052413163D

 31 34  0  0  1  0  0  0  0  0999 V2000
  184.9220  178.2480  145.4110 O   0  0  0  0  0  0  0  0  0  0  0  0
  187.4580  176.8510  143.5740 C   0  0  1  0  0  3  0  0  0  0  0  0
  188.2590  177.1860  144.8200 C   0  0  0  0  0  0  0  0  0  0  0  0
  188.4970  178.0500  147.0770 C   0  0  0  0  0  3  0  0  0  0  0  0
  186.0890  177.5200  143.4030 C   0  0  1  0  0  3  0  0  0  0  0  0
  184.3280  180.1720  144.1220 C   0  0  0  0  0  2  0  0  0  0  0  0
  187.7160  177.8280  145.9400 C   0  0  0  0  0  3  0  0  0  0  0  0
  187.9870  178.2620  141.4750 C   0  0  0  0  0  0  0  0  0  0  0  0
  183.8340  178.9920  144.9460 C   0  0  0  0  0  2  0  0  0  0  0  0
  190.1340  176.1030  143.6290 C   0  0  0  0  0  2  0  0  0  0  0  0
  189.8260  177.6220  147.1070 C   0  0  0  0  0  3  0  0  0  0  0  0
  187.0640  179.1000  141.8230 N   0  0  0  0  0  0  0  0  0  0  0  0
  188.3080  177.0100  142.2740 C   0  0  1  0  0  3  0  0  0  0  0  0
  185.0630  177.1930  144.5000 C   0  0  0  0  0  2  0  0  0  0  0  0
  192.0560  176.4520  146.0720 Cl  0  0  0  0  0  0  0  0  0  0  0  0
  186.2730  178.9960  143.0320 C   0  0  1  0  0  3  0  0  0  0  0  0
  184.9400  179.7030  142.8070 C   0  0  0  0  0  2  0  0  0  0  0  0
  189.7700  176.9180  142.4710 N   0  0  0  0  0  2  0  0  0  0  0  0
  189.5920  176.7550  144.8580 C   0  0  0  0  0  0  0  0  0  0  0  0
  190.3800  176.9720  146.0000 C   0  0  0  0  0  0  0  0  0  0  0  0
  188.7080  178.4870  140.1810 C   0  0  0  0  0  2  0  0  0  0  0  0
  190.2060  177.0250  138.7910 C   0  0  0  0  0  1  0  0  0  0  0  0
  188.8160  177.1880  139.3840 C   0  0  2  0  0  3  0  0  0  0  0  0
  188.3200  176.5010  137.0060 C   0  0  0  0  0  1  0  0  0  0  0  0
  187.7320  177.0700  138.3000 C   0  0  2  0  0  3  0  0  0  0  0  0
  187.6070  178.9940  136.8570 C   0  0  0  0  0  1  0  0  0  0  0  0
  187.0660  178.3640  138.0590 N   0  0  0  0  0  0  0  0  0  0  0  0
  185.6100  178.2100  137.8850 C   0  0  0  0  0  2  0  0  0  0  0  0
  184.8000  178.7650  139.0230 C   0  0  0  0  0  0  0  0  0  0  0  0
  184.3490  177.9940  139.9100 O   0  0  0  0  0  1  0  0  0  0  0  0
  184.5540  180.1290  139.1040 O   0  0  0  0  0  0  0  0  0  0  0  0
  2  3  1  1  0  0  0
  3 19  2  0  0  0  0
  3  7  1  0  0  0  0
  4 11  1  0  0  0  0
  5  2  1  0  0  0  0
  5 14  1  1  0  0  0
  6  9  1  0  0  0  0
  7  4  2  0  0  0  0
  8 12  2  0  0  0  0
  9  1  1  0  0  0  0
 10 19  1  0  0  0  0
 12 16  1  0  0  0  0
 13  8  1  1  0  0  0
 13 18  1  0  0  0  0
 13  2  1  0  0  0  0
 14  1  1  0  0  0  0
 16 17  1  6  0  0  0
 16  5  1  0  0  0  0
 17  6  1  0  0  0  0
 18 10  1  0  0  0  0
 19 20  1  0  0  0  0
 20 15  1  0  0  0  0
 20 11  2  0  0  0  0
 21  8  1  0  0  0  0
 23 22  1  6  0  0  0
 23 21  1  0  0  0  0
 25 24  1  6  0  0  0
 25 23  1  0  0  0  0
 26 27  1  0  0  0  0
 27 25  1  0  0  0  0
 28 27  1  0  0  0  0
 28 29  1  0  0  0  0
 29 31  2  0  0  0  0
 29 30  1  0  0  0  0
M  END
>  <MODEL>
4

>  <REMARK>
 VINA RESULT:      -6.9      3.626      5.559
  Name = 
  6 active torsions:
  status: ('A' for Active; 'I' for Inactive)
    1  A    between atoms: C_1  and  C_24
    2  A    between atoms: C_9  and  C_22
    3  A    between atoms: C_9  and  C_23
    4  A    between atoms: C_15  and  C_23
    5  A    between atoms: N_19  and  C_22
    6  A    between atoms: N_19  and  C_24
                            x       y       z     vdW  Elec       q    Type
                         _______ _______ _______ _____ _____    ______ ____

>  <TORSDO>
F 6

$$$$
=
 OpenBabel11052413163D

 31 34  0  0  1  0  0  0  0  0999 V2000
  187.4030  177.6080  146.6650 O   0  0  0  0  0  0  0  0  0  0  0  0
  187.4290  177.1140  143.2720 C   0  0  1  0  0  3  0  0  0  0  0  0
  188.8690  177.5710  143.4300 C   0  0  0  0  0  0  0  0  0  0  0  0
  190.7790  178.3040  144.7390 C   0  0  0  0  0  3  0  0  0  0  0  0
  186.4620  177.3820  144.4320 C   0  0  1  0  0  3  0  0  0  0  0  0
  185.8140  179.3740  146.9340 C   0  0  0  0  0  2  0  0  0  0  0  0
  189.4290  177.9530  144.6560 C   0  0  0  0  0  3  0  0  0  0  0  0
  185.8440  178.7620  142.0690 C   0  0  0  0  0  0  0  0  0  0  0  0
  186.3410  178.0480  147.4610 C   0  0  0  0  0  2  0  0  0  0  0  0
  189.0310  177.1460  141.0020 C   0  0  0  0  0  2  0  0  0  0  0  0
  191.5830  178.2650  143.5970 C   0  0  0  0  0  3  0  0  0  0  0  0
  185.5360  179.2800  143.2150 N   0  0  0  0  0  0  0  0  0  0  0  0
  186.8090  177.5970  141.9240 C   0  0  1  0  0  3  0  0  0  0  0  0
  186.8340  176.7030  145.7600 C   0  0  0  0  0  2  0  0  0  0  0  0
  192.0790  177.8450  140.9530 Cl  0  0  0  0  0  0  0  0  0  0  0  0
  186.1090  178.8730  144.4810 C   0  0  1  0  0  3  0  0  0  0  0  0
  185.1130  179.1910  145.5930 C   0  0  0  0  0  2  0  0  0  0  0  0
  187.7900  177.9050  140.8620 N   0  0  0  0  0  2  0  0  0  0  0  0
  189.6810  177.5290  142.2900 C   0  0  0  0  0  0  0  0  0  0  0  0
  191.0400  177.8770  142.3680 C   0  0  0  0  0  0  0  0  0  0  0  0
  185.1500  179.2710  140.8430 C   0  0  0  0  0  2  0  0  0  0  0  0
  185.0050  178.3920  138.4930 C   0  0  0  0  0  1  0  0  0  0  0  0
  184.6920  178.1160  139.9550 C   0  0  2  0  0  3  0  0  0  0  0  0
  182.6250  177.1390  138.8850 C   0  0  0  0  0  1  0  0  0  0  0  0
  183.2050  177.7770  140.1510 C   0  0  2  0  0  3  0  0  0  0  0  0
  181.8680  179.6230  139.3780 C   0  0  0  0  0  1  0  0  0  0  0  0
  182.4290  178.9640  140.5540 N   0  0  0  0  0  0  0  0  0  0  0  0
  181.3210  178.6150  141.4620 C   0  0  0  0  0  2  0  0  0  0  0  0
  181.2910  179.4280  142.7250 C   0  0  0  0  0  0  0  0  0  0  0  0
  182.1800  179.2640  143.6010 O   0  0  0  0  0  1  0  0  0  0  0  0
  180.2890  180.3670  142.9260 O   0  0  0  0  0  0  0  0  0  0  0  0
  1  9  1  0  0  0  0
  2  3  1  1  0  0  0
  2  5  1  0  0  0  0
  3  7  1  0  0  0  0
  5 16  1  0  0  0  0
  5 14  1  1  0  0  0
  6  9  1  0  0  0  0
  7  4  2  0  0  0  0
  8 12  2  0  0  0  0
 10 19  1  0  0  0  0
 11  4  1  0  0  0  0
 12 16  1  0  0  0  0
 13 18  1  6  0  0  0
 13  8  1  0  0  0  0
 13  2  1  0  0  0  0
 14  1  1  0  0  0  0
 15 20  1  0  0  0  0
 16 17  1  1  0  0  0
 17  6  1  0  0  0  0
 18 10  1  0  0  0  0
 19 20  1  0  0  0  0
 19  3  2  0  0  0  0
 20 11  2  0  0  0  0
 21  8  1  0  0  0  0
 23 22  1  6  0  0  0
 23 25  1  0  0  0  0
 23 21  1  0  0  0  0
 25 24  1  6  0  0  0
 25 27  1  0  0  0  0
 26 27  1  0  0  0  0
 27 28  1  0  0  0  0
 28 29  1  0  0  0  0
 29 31  2  0  0  0  0
 29 30  1  0  0  0  0
M  END
>  <MODEL>
5

>  <REMARK>
 VINA RESULT:      -6.9      4.156      7.195
  Name = 
  6 active torsions:
  status: ('A' for Active; 'I' for Inactive)
    1  A    between atoms: C_1  and  C_24
    2  A    between atoms: C_9  and  C_22
    3  A    between atoms: C_9  and  C_23
    4  A    between atoms: C_15  and  C_23
    5  A    between atoms: N_19  and  C_22
    6  A    between atoms: N_19  and  C_24
                            x       y       z     vdW  Elec       q    Type
                         _______ _______ _______ _____ _____    ______ ____

>  <TORSDO>
F 6

$$$$
=
 OpenBabel11052413163D

 31 34  0  0  1  0  0  0  0  0999 V2000
  183.5660  177.2060  136.1300 O   0  0  0  0  0  0  0  0  0  0  0  0
  183.0530  177.7040  139.4830 C   0  0  1  0  0  3  0  0  0  0  0  0
  182.0710  178.7400  138.9630 C   0  0  0  0  0  0  0  0  0  0  0  0
  180.9110  179.9290  137.1910 C   0  0  0  0  0  3  0  0  0  0  0  0
  184.0970  177.1530  138.5040 C   0  0  1  0  0  3  0  0  0  0  0  0
  185.8530  177.8400  135.8410 C   0  0  0  0  0  2  0  0  0  0  0  0
  181.8760  179.0060  137.6020 C   0  0  0  0  0  3  0  0  0  0  0  0
  185.1740  178.6310  140.6320 C   0  0  0  0  0  0  0  0  0  0  0  0
  184.7540  176.8480  135.4870 C   0  0  0  0  0  2  0  0  0  0  0  0
  181.5450  179.1070  141.3490 C   0  0  0  0  0  2  0  0  0  0  0  0
  180.1260  180.5880  138.1410 C   0  0  0  0  0  3  0  0  0  0  0  0
  185.7840  178.6110  139.4910 N   0  0  0  0  0  0  0  0  0  0  0  0
  183.7380  178.1640  140.8080 C   0  0  1  0  0  3  0  0  0  0  0  0
  183.5210  176.4150  137.2850 C   0  0  0  0  0  2  0  0  0  0  0  0
  179.3020  181.1780  140.6680 Cl  0  0  0  0  0  0  0  0  0  0  0  0
  185.1720  178.2130  138.2390 C   0  0  1  0  0  3  0  0  0  0  0  0
  186.2640  177.7030  137.3030 C   0  0  0  0  0  2  0  0  0  0  0  0
  182.9870  179.1770  141.5790 N   0  0  0  0  0  2  0  0  0  0  0  0
  181.2770  179.4000  139.9090 C   0  0  0  0  0  0  0  0  0  0  0  0
  180.3040  180.3270  139.5030 C   0  0  0  0  0  0  0  0  0  0  0  0
  185.9440  179.0450  141.8490 C   0  0  0  0  0  2  0  0  0  0  0  0
  185.5060  178.3700  144.2290 C   0  0  0  0  0  1  0  0  0  0  0  0
  186.0040  177.9100  142.8690 C   0  0  2  0  0  3  0  0  0  0  0  0
  187.8820  177.2620  144.4270 C   0  0  0  0  0  1  0  0  0  0  0  0
  187.4060  177.2850  142.9720 C   0  0  2  0  0  3  0  0  0  0  0  0
  189.5660  178.3430  142.8670 C   0  0  0  0  0  1  0  0  0  0  0  0
  188.3730  177.9830  142.1040 N   0  0  0  0  0  0  0  0  0  0  0  0
  188.7880  177.1500  140.9610 C   0  0  0  0  0  2  0  0  0  0  0  0
  189.5430  177.9040  139.9020 C   0  0  0  0  0  0  0  0  0  0  0  0
  190.7170  177.5640  139.6040 O   0  0  0  0  0  1  0  0  0  0  0  0
  188.9430  178.9690  139.2440 O   0  0  0  0  0  0  0  0  0  0  0  0
  1 14  1  0  0  0  0
  2  3  1  6  0  0  0
  2 13  1  0  0  0  0
  3 19  1  0  0  0  0
  4  7  1  0  0  0  0
  4 11  2  0  0  0  0
  5 14  1  6  0  0  0
  5  2  1  0  0  0  0
  6 17  1  0  0  0  0
  7  3  2  0  0  0  0
  8 21  1  0  0  0  0
  9  6  1  0  0  0  0
  9  1  1  0  0  0  0
 10 18  1  0  0  0  0
 11 20  1  0  0  0  0
 12  8  2  0  0  0  0
 13  8  1  6  0  0  0
 13 18  1  0  0  0  0
 16 17  1  6  0  0  0
 16  5  1  0  0  0  0
 16 12  1  0  0  0  0
 19 10  1  0  0  0  0
 20 19  2  0  0  0  0
 20 15  1  0  0  0  0
 21 23  1  0  0  0  0
 23 25  1  0  0  0  0
 23 22  1  1  0  0  0
 25 24  1  1  0  0  0
 27 26  1  0  0  0  0
 27 25  1  0  0  0  0
 28 27  1  0  0  0  0
 29 28  1  0  0  0  0
 30 29  1  0  0  0  0
 31 29  2  0  0  0  0
M  END
>  <MODEL>
6

>  <REMARK>
 VINA RESULT:      -6.8      4.300      7.293
  Name = 
  6 active torsions:
  status: ('A' for Active; 'I' for Inactive)
    1  A    between atoms: C_1  and  C_24
    2  A    between atoms: C_9  and  C_22
    3  A    between atoms: C_9  and  C_23
    4  A    between atoms: C_15  and  C_23
    5  A    between atoms: N_19  and  C_22
    6  A    between atoms: N_19  and  C_24
                            x       y       z     vdW  Elec       q    Type
                         _______ _______ _______ _____ _____    ______ ____

>  <TORSDO>
F 6

$$$$
=
 OpenBabel11052413163D

 31 34  0  0  1  0  0  0  0  0999 V2000
  186.3790  177.0770  135.1600 O   0  0  0  0  0  0  0  0  0  0  0  0
  188.8270  177.9820  137.3840 C   0  0  1  0  0  3  0  0  0  0  0  0
  189.3550  176.6000  137.0390 C   0  0  0  0  0  0  0  0  0  0  0  0
  189.2830  174.4880  135.8400 C   0  0  0  0  0  3  0  0  0  0  0  0
  187.3760  178.3080  137.0080 C   0  0  1  0  0  3  0  0  0  0  0  0
  184.4140  177.0270  136.5220 C   0  0  0  0  0  2  0  0  0  0  0  0
  188.7080  175.7220  136.1600 C   0  0  0  0  0  3  0  0  0  0  0  0
  187.8740  178.2670  139.7690 C   0  0  0  0  0  0  0  0  0  0  0  0
  185.0250  177.4230  135.1860 C   0  0  0  0  0  2  0  0  0  0  0  0
  191.2260  177.1890  138.5410 C   0  0  0  0  0  2  0  0  0  0  0  0
  190.5150  174.1270  136.3910 C   0  0  0  0  0  3  0  0  0  0  0  0
  186.7010  177.9490  139.3220 N   0  0  0  0  0  0  0  0  0  0  0  0
  189.1000  178.3550  138.8750 C   0  0  1  0  0  3  0  0  0  0  0  0
  187.0650  178.2480  135.5030 C   0  0  0  0  0  2  0  0  0  0  0  0
  192.7200  174.5070  137.9420 Cl  0  0  0  0  0  0  0  0  0  0  0  0
  186.4170  177.5750  137.9520 C   0  0  1  0  0  3  0  0  0  0  0  0
  184.9560  177.8970  137.6510 C   0  0  0  0  0  2  0  0  0  0  0  0
  190.2170  177.6210  139.5060 N   0  0  0  0  0  2  0  0  0  0  0  0
  190.5920  176.2330  137.5850 C   0  0  0  0  0  0  0  0  0  0  0  0
  191.1760  174.9970  137.2640 C   0  0  0  0  0  0  0  0  0  0  0  0
  188.0120  178.6550  141.2090 C   0  0  0  0  0  2  0  0  0  0  0  0
  185.8990  178.9240  142.5430 C   0  0  0  0  0  1  0  0  0  0  0  0
  186.9640  177.9500  142.0680 C   0  0  2  0  0  3  0  0  0  0  0  0
  186.9230  177.5960  144.5670 C   0  0  0  0  0  1  0  0  0  0  0  0
  187.5880  177.1880  143.2490 C   0  0  2  0  0  3  0  0  0  0  0  0
  189.4400  177.8890  144.6180 C   0  0  0  0  0  1  0  0  0  0  0  0
  189.0490  177.3820  143.3060 N   0  0  0  0  0  0  0  0  0  0  0  0
  189.7810  176.1260  143.0580 C   0  0  0  0  0  2  0  0  0  0  0  0
  191.2700  176.2490  143.2150 C   0  0  0  0  0  0  0  0  0  0  0  0
  191.8810  175.5110  144.0310 O   0  0  0  0  0  1  0  0  0  0  0  0
  191.9770  177.1710  142.4550 O   0  0  0  0  0  0  0  0  0  0  0  0
  1  9  1  0  0  0  0
  1 14  1  0  0  0  0
  2  3  1  1  0  0  0
  2 13  1  0  0  0  0
  3 19  1  0  0  0  0
  4  7  1  0  0  0  0
  4 11  2  0  0  0  0
  5 14  1  6  0  0  0
  5  2  1  0  0  0  0
  5 16  1  0  0  0  0
  6 17  1  0  0  0  0
  7  3  2  0  0  0  0
  8 21  1  0  0  0  0
  9  6  1  0  0  0  0
 10 18  1  0  0  0  0
 11 20  1  0  0  0  0
 12  8  2  0  0  0  0
 13 18  1  1  0  0  0
 13  8  1  0  0  0  0
 16 17  1  6  0  0  0
 16 12  1  0  0  0  0
 19 10  1  0  0  0  0
 20 19  2  0  0  0  0
 20 15  1  0  0  0  0
 21 23  1  0  0  0  0
 23 22  1  1  0  0  0
 23 25  1  0  0  0  0
 25 27  1  0  0  0  0
 25 24  1  1  0  0  0
 27 26  1  0  0  0  0
 28 29  1  0  0  0  0
 28 27  1  0  0  0  0
 29 30  1  0  0  0  0
 31 29  2  0  0  0  0
M  END
>  <MODEL>
7

>  <REMARK>
 VINA RESULT:      -6.8      3.283      7.628
  Name = 
  6 active torsions:
  status: ('A' for Active; 'I' for Inactive)
    1  A    between atoms: C_1  and  C_24
    2  A    between atoms: C_9  and  C_22
    3  A    between atoms: C_9  and  C_23
    4  A    between atoms: C_15  and  C_23
    5  A    between atoms: N_19  and  C_22
    6  A    between atoms: N_19  and  C_24
                            x       y       z     vdW  Elec       q    Type
                         _______ _______ _______ _____ _____    ______ ____

>  <TORSDO>
F 6

$$$$
=
 OpenBabel11052413163D

 31 34  0  0  1  0  0  0  0  0999 V2000
  185.5530  177.9870  144.5960 O   0  0  0  0  0  0  0  0  0  0  0  0
  188.3600  176.4710  143.3400 C   0  0  1  0  0  3  0  0  0  0  0  0
  188.9290  176.8880  144.6860 C   0  0  0  0  0  0  0  0  0  0  0  0
  188.7670  177.9000  146.8880 C   0  0  0  0  0  3  0  0  0  0  0  0
  187.0520  177.1280  142.8820 C   0  0  1  0  0  3  0  0  0  0  0  0
  185.2230  179.8220  143.0980 C   0  0  0  0  0  2  0  0  0  0  0  0
  188.2010  177.6030  145.6450 C   0  0  0  0  0  3  0  0  0  0  0  0
  189.2750  177.7400  141.2830 C   0  0  0  0  0  0  0  0  0  0  0  0
  184.5750  178.6990  143.8950 C   0  0  0  0  0  2  0  0  0  0  0  0
  190.9740  175.7280  143.9250 C   0  0  0  0  0  2  0  0  0  0  0  0
  190.0650  177.4740  147.1850 C   0  0  0  0  0  3  0  0  0  0  0  0
  188.3140  178.5990  141.4040 N   0  0  0  0  0  0  0  0  0  0  0  0
  189.4310  176.5430  142.2070 C   0  0  1  0  0  3  0  0  0  0  0  0
  185.8420  176.8750  143.7960 C   0  0  0  0  0  2  0  0  0  0  0  0
  192.4290  176.2380  146.6460 Cl  0  0  0  0  0  0  0  0  0  0  0  0
  187.3180  178.5750  142.4550 C   0  0  1  0  0  3  0  0  0  0  0  0
  186.0560  179.2670  141.9480 C   0  0  0  0  0  2  0  0  0  0  0  0
  190.8330  176.4640  142.6700 N   0  0  0  0  0  2  0  0  0  0  0  0
  190.2270  176.4600  144.9920 C   0  0  0  0  0  0  0  0  0  0  0  0
  190.8000  176.7520  146.2400 C   0  0  0  0  0  0  0  0  0  0  0  0
  190.2190  177.8770  140.1280 C   0  0  0  0  0  2  0  0  0  0  0  0
  191.2860  176.1700  138.6240 C   0  0  0  0  0  1  0  0  0  0  0  0
  189.9750  176.7840  139.0910 C   0  0  2  0  0  3  0  0  0  0  0  0
  189.1620  178.8070  137.8190 C   0  0  0  0  0  1  0  0  0  0  0  0
  189.1380  177.2780  137.8990 C   0  0  2  0  0  3  0  0  0  0  0  0
  186.8160  177.8780  138.1160 C   0  0  0  0  0  1  0  0  0  0  0  0
  187.7540  176.7690  137.9640 N   0  0  0  0  0  0  0  0  0  0  0  0
  187.3880  176.0160  136.7510 C   0  0  0  0  0  2  0  0  0  0  0  0
  186.5000  174.8330  137.0150 C   0  0  0  0  0  0  0  0  0  0  0  0
  187.0060  173.6970  137.2090 O   0  0  0  0  0  1  0  0  0  0  0  0
  185.1210  174.9910  137.0530 O   0  0  0  0  0  0  0  0  0  0  0  0
  2  3  1  1  0  0  0
  3 19  2  0  0  0  0
  3  7  1  0  0  0  0
  4 11  1  0  0  0  0
  5  2  1  0  0  0  0
  5 14  1  1  0  0  0
  6  9  1  0  0  0  0
  7  4  2  0  0  0  0
  8 12  2  0  0  0  0
  9  1  1  0  0  0  0
 10 19  1  0  0  0  0
 12 16  1  0  0  0  0
 13  8  1  1  0  0  0
 13 18  1  0  0  0  0
 13  2  1  0  0  0  0
 14  1  1  0  0  0  0
 16 17  1  6  0  0  0
 16  5  1  0  0  0  0
 17  6  1  0  0  0  0
 18 10  1  0  0  0  0
 19 20  1  0  0  0  0
 20 15  1  0  0  0  0
 20 11  2  0  0  0  0
 21  8  1  0  0  0  0
 23 22  1  6  0  0  0
 23 21  1  0  0  0  0
 25 24  1  1  0  0  0
 25 27  1  0  0  0  0
 25 23  1  0  0  0  0
 27 26  1  0  0  0  0
 28 29  1  0  0  0  0
 28 27  1  0  0  0  0
 29 31  2  0  0  0  0
 29 30  1  0  0  0  0
M  END
>  <MODEL>
8

>  <REMARK>
 VINA RESULT:      -6.7      3.324      5.090
  Name = 
  6 active torsions:
  status: ('A' for Active; 'I' for Inactive)
    1  A    between atoms: C_1  and  C_24
    2  A    between atoms: C_9  and  C_22
    3  A    between atoms: C_9  and  C_23
    4  A    between atoms: C_15  and  C_23
    5  A    between atoms: N_19  and  C_22
    6  A    between atoms: N_19  and  C_24
                            x       y       z     vdW  Elec       q    Type
                         _______ _______ _______ _____ _____    ______ ____

>  <TORSDO>
F 6

$$$$
=
 OpenBabel11052413163D

 31 34  0  0  1  0  0  0  0  0999 V2000
  191.6350  176.1910  139.2030 O   0  0  0  0  0  0  0  0  0  0  0  0
  188.8700  178.1750  139.6180 C   0  0  1  0  0  3  0  0  0  0  0  0
  188.8450  177.4910  140.9740 C   0  0  0  0  0  0  0  0  0  0  0  0
  189.7240  175.9680  142.6510 C   0  0  0  0  0  3  0  0  0  0  0  0
  189.7370  177.5500  138.5180 C   0  0  1  0  0  3  0  0  0  0  0  0
  190.9930  174.7510  137.4050 C   0  0  0  0  0  2  0  0  0  0  0  0
  189.7680  176.5120  141.3640 C   0  0  0  0  0  3  0  0  0  0  0  0
  186.9830  177.5130  137.9820 C   0  0  0  0  0  0  0  0  0  0  0  0
  192.0960  175.5960  138.0250 C   0  0  0  0  0  2  0  0  0  0  0  0
  186.9040  178.9530  141.4220 C   0  0  0  0  0  2  0  0  0  0  0  0
  188.7600  176.4080  143.5620 C   0  0  0  0  0  3  0  0  0  0  0  0
  187.7420  176.5790  137.5060 N   0  0  0  0  0  0  0  0  0  0  0  0
  187.4320  178.4600  139.0830 C   0  0  1  0  0  3  0  0  0  0  0  0
  191.2400  177.4820  138.8330 C   0  0  0  0  0  2  0  0  0  0  0  0
  186.6380  177.9150  144.3600 Cl  0  0  0  0  0  0  0  0  0  0  0  0
  189.0710  176.2720  137.9940 C   0  0  1  0  0  3  0  0  0  0  0  0
  189.8700  175.6290  136.8640 C   0  0  0  0  0  2  0  0  0  0  0  0
  186.3840  178.5330  140.1220 N   0  0  0  0  0  2  0  0  0  0  0  0
  187.8850  177.9310  141.8950 C   0  0  0  0  0  0  0  0  0  0  0  0
  187.8380  177.3910  143.1900 C   0  0  0  0  0  0  0  0  0  0  0  0
  185.6380  177.7310  137.3590 C   0  0  0  0  0  2  0  0  0  0  0  0
  184.4120  176.0270  135.9770 C   0  0  0  0  0  1  0  0  0  0  0  0
  184.8110  176.4470  137.3830 C   0  0  2  0  0  3  0  0  0  0  0  0
  182.7130  175.2990  138.1900 C   0  0  0  0  0  1  0  0  0  0  0  0
  183.5820  176.5550  138.3000 C   0  0  2  0  0  3  0  0  0  0  0  0
  181.4410  177.4150  137.6090 C   0  0  0  0  0  1  0  0  0  0  0  0
  182.7990  177.7720  138.0130 N   0  0  0  0  0  0  0  0  0  0  0  0
  182.7150  178.6620  139.1860 C   0  0  0  0  0  2  0  0  0  0  0  0
  182.9990  180.1050  138.8760 C   0  0  0  0  0  0  0  0  0  0  0  0
  184.1720  180.5500  138.9700 O   0  0  0  0  0  1  0  0  0  0  0  0
  181.9700  180.9480  138.4780 O   0  0  0  0  0  0  0  0  0  0  0  0
  2  3  1  1  0  0  0
  3  7  2  0  0  0  0
  3 19  1  0  0  0  0
  4 11  2  0  0  0  0
  5 14  1  1  0  0  0
  5  2  1  0  0  0  0
  6  9  1  0  0  0  0
  7  4  1  0  0  0  0
  9  1  1  0  0  0  0
 10 19  1  0  0  0  0
 12  8  2  0  0  0  0
 12 16  1  0  0  0  0
 13  8  1  6  0  0  0
 13  2  1  0  0  0  0
 13 18  1  0  0  0  0
 14  1  1  0  0  0  0
 16 17  1  6  0  0  0
 16  5  1  0  0  0  0
 17  6  1  0  0  0  0
 18 10  1  0  0  0  0
 19 20  2  0  0  0  0
 20 11  1  0  0  0  0
 20 15  1  0  0  0  0
 21 23  1  0  0  0  0
 21  8  1  0  0  0  0
 23 22  1  6  0  0  0
 23 25  1  0  0  0  0
 25 24  1  6  0  0  0
 26 27  1  0  0  0  0
 27 25  1  0  0  0  0
 27 28  1  0  0  0  0
 29 30  1  0  0  0  0
 29 28  1  0  0  0  0
 31 29  2  0  0  0  0
M  END
>  <MODEL>
9

>  <REMARK>
 VINA RESULT:      -6.7      4.012      6.350
  Name = 
  6 active torsions:
  status: ('A' for Active; 'I' for Inactive)
    1  A    between atoms: C_1  and  C_24
    2  A    between atoms: C_9  and  C_22
    3  A    between atoms: C_9  and  C_23
    4  A    between atoms: C_15  and  C_23
    5  A    between atoms: N_19  and  C_22
    6  A    between atoms: N_19  and  C_24
                            x       y       z     vdW  Elec       q    Type
                         _______ _______ _______ _____ _____    ______ ____

>  <TORSDO>
F 6

$$$$
