=
 OpenBabel11052412343D

 30 34  0  0  1  0  0  0  0  0999 V2000
  187.9050  177.5330  145.1840 C   0  0  0  0  0  0  0  0  0  0  0  0
  188.0280  177.9440  147.7090 C   0  0  0  0  0  3  0  0  0  0  0  0
  191.4500  176.2000  143.6820 C   0  0  0  0  0  2  0  0  0  0  0  0
  187.1150  177.5970  143.9980 C   0  0  0  0  0  0  0  0  0  0  0  0
  185.7880  178.1220  144.0550 C   0  0  0  0  0  0  0  0  0  0  0  0
  183.6160  178.7620  143.1140 C   0  0  0  0  0  3  0  0  0  0  0  0
  188.2940  178.8820  141.0080 C   0  0  0  0  0  2  0  0  0  0  0  0
  184.8900  178.2130  142.9420 C   0  0  0  0  0  0  0  0  0  0  0  0
  185.3240  178.5840  145.3130 C   0  0  0  0  0  0  0  0  0  0  0  0
  190.0850  177.2390  141.8350 C   0  0  2  0  0  3  0  0  0  0  0  0
  191.1720  177.4790  142.8980 C   0  0  2  0  0  3  0  0  0  0  0  0
  186.1090  178.5000  146.4110 N   0  0  0  0  0  0  0  0  0  0  0  0
  185.1810  177.7840  141.7200 C   0  0  0  0  0  1  0  0  0  0  0  0
  189.2620  177.5820  148.0440 C   0  0  0  0  0  2  0  0  0  0  0  0
  190.5770  177.4610  140.3950 C   0  0  0  0  0  2  0  0  0  0  0  0
  189.1590  175.9200  139.2290 O   0  0  0  0  0  1  0  0  0  0  0  0
  184.0460  179.1270  145.4520 C   0  0  0  0  0  3  0  0  0  0  0  0
  187.3660  177.9950  146.3990 C   0  0  0  0  0  0  0  0  0  0  0  0
  191.6060  176.4910  145.1820 C   0  0  0  0  0  2  0  0  0  0  0  0
  191.5820  176.9210  147.8800 O   0  0  0  0  0  1  0  0  0  0  0  0
  183.1940  179.2190  144.3580 C   0  0  0  0  0  3  0  0  0  0  0  0
  189.1430  177.0610  145.0450 C   0  0  0  0  0  3  0  0  0  0  0  0
  187.7160  177.1040  142.6910 C   0  0  0  0  0  2  0  0  0  0  0  0
  192.3610  177.9790  142.3610 O   0  0  0  0  0  1  0  0  0  0  0  0
  188.8110  178.0420  142.1780 C   0  0  2  0  0  3  0  0  0  0  0  0
  189.4480  177.2770  139.3780 C   0  0  1  0  0  3  0  0  0  0  0  0
  187.7830  178.8500  138.6720 O   0  0  0  0  0  1  0  0  0  0  0  0
  190.3780  177.1260  147.2110 C   0  0  0  0  0  0  0  0  0  0  0  0
  190.3290  176.8970  145.8920 C   0  0  0  0  0  0  0  0  0  0  0  0
  188.1640  178.0380  139.7390 C   0  0  2  0  0  3  0  0  0  0  0  0
  1 18  1  0  0  0  0
  2 14  1  0  0  0  0
  3 19  1  0  0  0  0
  4  5  2  0  0  0  0
  4  1  1  0  0  0  0
  5  9  1  0  0  0  0
  6 21  1  0  0  0  0
  8  6  2  0  0  0  0
  8  5  1  0  0  0  0
  9 17  1  0  0  0  0
  9 12  2  0  0  0  0
 10 15  1  6  0  0  0
 10 25  1  0  0  0  0
 10 11  1  0  0  0  0
 11 24  1  6  0  0  0
 11  3  1  0  0  0  0
 13  8  1  0  0  0  0
 18 12  1  0  0  0  0
 18  2  2  0  0  0  0
 19 29  1  0  0  0  0
 21 17  2  0  0  0  0
 22  1  2  0  0  0  0
 22 29  1  0  0  0  0
 23  4  1  0  0  0  0
 25  7  1  6  0  0  0
 25 23  1  0  0  0  0
 26 16  1  1  0  0  0
 26 30  1  0  0  0  0
 26 15  1  0  0  0  0
 28 20  1  0  0  0  0
 28 14  1  0  0  0  0
 29 28  2  0  0  0  0
 30 27  1  6  0  0  0
 30  7  1  0  0  0  0
M  END
>  <MODEL>
1

>  <REMARK>
 VINA RESULT:     -13.1      0.000      0.000
  Name = 
  0 active torsions:
  status: ('A' for Active; 'I' for Inactive)
                            x       y       z     vdW  Elec       q    Type
                         _______ _______ _______ _____ _____    ______ ____

>  <TORSDO>
F 0

$$$$
=
 OpenBabel11052412343D

 30 34  0  0  1  0  0  0  0  0999 V2000
  186.4550  178.0180  142.5000 C   0  0  0  0  0  0  0  0  0  0  0  0
  184.8600  179.0560  140.7850 C   0  0  0  0  0  3  0  0  0  0  0  0
  184.8530  177.9830  146.2470 C   0  0  0  0  0  2  0  0  0  0  0  0
  187.7380  177.4460  142.7480 C   0  0  0  0  0  0  0  0  0  0  0  0
  188.6940  177.3560  141.6910 C   0  0  0  0  0  0  0  0  0  0  0  0
  190.8590  176.7610  140.7060 C   0  0  0  0  0  3  0  0  0  0  0  0
  189.7080  178.3220  145.4560 C   0  0  0  0  0  2  0  0  0  0  0  0
  190.0000  176.7790  141.8080 C   0  0  0  0  0  0  0  0  0  0  0  0
  188.3160  177.8740  140.4270 C   0  0  0  0  0  0  0  0  0  0  0  0
  187.3660  177.8530  146.3990 C   0  0  2  0  0  3  0  0  0  0  0  0
  186.1420  178.7850  146.4010 C   0  0  2  0  0  3  0  0  0  0  0  0
  187.0870  178.4050  140.2380 N   0  0  0  0  0  0  0  0  0  0  0  0
  190.4660  176.2240  142.9200 C   0  0  0  0  0  1  0  0  0  0  0  0
  183.7670  179.3450  141.4820 C   0  0  0  0  0  2  0  0  0  0  0  0
  188.1720  177.8970  147.7080 C   0  0  0  0  0  2  0  0  0  0  0  0
  189.0440  175.6650  147.7340 O   0  0  0  0  0  1  0  0  0  0  0  0
  189.1960  177.8410  139.3440 C   0  0  0  0  0  3  0  0  0  0  0  0
  186.1500  178.4940  141.2120 C   0  0  0  0  0  0  0  0  0  0  0  0
  183.8810  178.6760  145.2800 C   0  0  0  0  0  2  0  0  0  0  0  0
  182.2600  179.7100  143.3390 O   0  0  0  0  0  1  0  0  0  0  0  0
  190.4640  177.2890  139.4810 C   0  0  0  0  0  3  0  0  0  0  0  0
  185.6310  178.0960  143.5430 C   0  0  0  0  0  3  0  0  0  0  0  0
  188.0570  176.9450  144.1480 C   0  0  0  0  0  2  0  0  0  0  0  0
  186.0700  179.5910  147.5400 O   0  0  0  0  0  1  0  0  0  0  0  0
  188.2270  178.0980  145.1400 C   0  0  2  0  0  3  0  0  0  0  0  0
  189.4140  177.0060  147.6360 C   0  0  1  0  0  3  0  0  0  0  0  0
  191.5700  177.4980  146.7100 O   0  0  0  0  0  1  0  0  0  0  0  0
  183.4910  179.2140  142.9160 C   0  0  0  0  0  0  0  0  0  0  0  0
  184.3090  178.6650  143.8240 C   0  0  0  0  0  0  0  0  0  0  0  0
  190.2490  177.2160  146.3640 C   0  0  2  0  0  3  0  0  0  0  0  0
  1  4  1  0  0  0  0
  1 22  2  0  0  0  0
  2 18  2  0  0  0  0
  2 14  1  0  0  0  0
  3 11  1  0  0  0  0
  4 23  1  0  0  0  0
  5  8  1  0  0  0  0
  5  4  2  0  0  0  0
  6  8  2  0  0  0  0
  7 30  1  0  0  0  0
  8 13  1  0  0  0  0
  9  5  1  0  0  0  0
 10 11  1  0  0  0  0
 10 15  1  1  0  0  0
 11 24  1  1  0  0  0
 12  9  2  0  0  0  0
 12 18  1  0  0  0  0
 14 28  1  0  0  0  0
 17 21  2  0  0  0  0
 17  9  1  0  0  0  0
 18  1  1  0  0  0  0
 19  3  1  0  0  0  0
 21  6  1  0  0  0  0
 22 29  1  0  0  0  0
 25 23  1  6  0  0  0
 25  7  1  0  0  0  0
 25 10  1  0  0  0  0
 26 15  1  0  0  0  0
 26 16  1  6  0  0  0
 28 20  1  0  0  0  0
 28 29  2  0  0  0  0
 29 19  1  0  0  0  0
 30 27  1  1  0  0  0
 30 26  1  0  0  0  0
M  END
>  <MODEL>
2

>  <REMARK>
 VINA RESULT:     -11.7      2.589      6.819
  Name = 
  0 active torsions:
  status: ('A' for Active; 'I' for Inactive)
                            x       y       z     vdW  Elec       q    Type
                         _______ _______ _______ _____ _____    ______ ____

>  <TORSDO>
F 0

$$$$
=
 OpenBabel11052412343D

 30 34  0  0  1  0  0  0  0  0999 V2000
  185.7650  178.4970  140.5450 C   0  0  0  0  0  0  0  0  0  0  0  0
  184.2740  178.2610  138.4760 C   0  0  0  0  0  3  0  0  0  0  0  0
  189.7190  178.1430  139.6240 C   0  0  0  0  0  2  0  0  0  0  0  0
  185.8310  178.6740  141.9590 C   0  0  0  0  0  0  0  0  0  0  0  0
  184.6270  178.7460  142.7240 C   0  0  0  0  0  0  0  0  0  0  0  0
  183.3230  178.9840  144.7860 C   0  0  0  0  0  3  0  0  0  0  0  0
  187.9000  176.8000  144.0050 C   0  0  0  0  0  2  0  0  0  0  0  0
  184.5620  178.9480  144.1400 C   0  0  0  0  0  0  0  0  0  0  0  0
  183.4020  178.6100  142.0230 C   0  0  0  0  0  0  0  0  0  0  0  0
  189.3680  177.6210  142.0650 C   0  0  2  0  0  3  0  0  0  0  0  0
  189.4740  177.0370  140.6450 C   0  0  2  0  0  3  0  0  0  0  0  0
  183.3890  178.4460  140.6800 N   0  0  0  0  0  0  0  0  0  0  0  0
  185.6280  179.1290  144.9110 C   0  0  0  0  0  1  0  0  0  0  0  0
  185.1270  178.1090  137.4680 C   0  0  0  0  0  3  0  0  0  0  0  0
  190.4580  177.1100  143.0210 C   0  0  0  0  0  2  0  0  0  0  0  0
  190.6570  179.0060  144.4740 O   0  0  0  0  0  1  0  0  0  0  0  0
  182.1800  178.6510  142.6960 C   0  0  0  0  0  3  0  0  0  0  0  0
  184.5090  178.3890  139.9200 C   0  0  2  0  0  3  0  0  0  0  0  0
  188.8760  177.9260  138.3580 C   0  0  0  0  0  2  0  0  0  0  0  0
  187.1720  177.7460  136.2300 O   0  0  0  0  0  1  0  0  0  0  0  0
  182.1380  178.8350  144.0730 C   0  0  0  0  0  3  0  0  0  0  0  0
  186.9300  178.4080  139.9060 C   0  0  0  0  0  3  0  0  0  0  0  0
  187.1960  178.7800  142.6200 C   0  0  0  0  0  2  0  0  0  0  0  0
  190.4610  176.0540  140.5310 O   0  0  0  0  0  1  0  0  0  0  0  0
  187.9360  177.4400  142.6150 C   0  0  2  0  0  3  0  0  0  0  0  0
  190.2740  177.6650  144.4360 C   0  0  1  0  0  3  0  0  0  0  0  0
  188.8570  176.8650  146.1960 O   0  0  0  0  0  1  0  0  0  0  0  0
  186.5890  178.0030  137.4680 C   0  0  0  0  0  0  0  0  0  0  0  0
  187.3840  178.1340  138.5380 C   0  0  0  0  0  0  0  0  0  0  0  0
  188.8400  177.5270  144.9690 C   0  0  2  0  0  3  0  0  0  0  0  0
  1  4  1  0  0  0  0
  3 11  1  0  0  0  0
  4 23  1  0  0  0  0
  4  5  2  0  0  0  0
  5  8  1  0  0  0  0
  7 30  1  0  0  0  0
  8  6  2  0  0  0  0
  8 13  1  0  0  0  0
  9 17  1  0  0  0  0
  9  5  1  0  0  0  0
 10 25  1  0  0  0  0
 10 15  1  1  0  0  0
 11 24  1  1  0  0  0
 11 10  1  0  0  0  0
 12  9  2  0  0  0  0
 14 28  1  0  0  0  0
 14  2  2  0  0  0  0
 15 26  1  0  0  0  0
 17 21  2  0  0  0  0
 18  2  1  6  0  0  0
 18  1  1  0  0  0  0
 18 12  1  0  0  0  0
 19 29  1  0  0  0  0
 19  3  1  0  0  0  0
 20 28  1  0  0  0  0
 21  6  1  0  0  0  0
 22  1  2  0  0  0  0
 25 23  1  1  0  0  0
 25  7  1  0  0  0  0
 26 16  1  6  0  0  0
 26 30  1  0  0  0  0
 28 29  2  0  0  0  0
 29 22  1  0  0  0  0
 30 27  1  1  0  0  0
M  END
>  <MODEL>
3

>  <REMARK>
 VINA RESULT:     -10.3      2.121      5.898
  Name = 
  0 active torsions:
  status: ('A' for Active; 'I' for Inactive)
                            x       y       z     vdW  Elec       q    Type
                         _______ _______ _______ _____ _____    ______ ____

>  <TORSDO>
F 0

$$$$
