=
 OpenBabel11052415483D

 34 38  0  0  1  0  0  0  0  0999 V2000
  188.2060  177.7870  145.0990 C   0  0  0  0  0  0  0  0  0  0  0  0
  191.5670  177.3890  143.4800 C   0  0  0  0  0  3  0  0  0  0  0  0
  190.8560  176.5690  145.6370 C   0  0  0  0  0  2  0  0  0  0  0  0
  186.0340  178.6080  145.8690 C   0  0  0  0  0  0  0  0  0  0  0  0
  186.9130  178.2680  144.8340 C   0  0  0  0  0  3  0  0  0  0  0  0
  187.7450  178.0100  147.4860 C   0  0  0  0  0  0  0  0  0  0  0  0
  188.1250  177.9230  148.8210 O   0  0  0  0  0  1  0  0  0  0  0  0
  186.4610  178.4760  147.1890 C   0  0  0  0  0  3  0  0  0  0  0  0
  190.0080  177.1550  146.7270 C   0  0  0  0  0  0  0  0  0  0  0  0
  188.6370  177.6640  146.4420 C   0  0  0  0  0  0  0  0  0  0  0  0
  190.4600  177.1460  147.9000 O   0  0  0  0  0  0  0  0  0  0  0  0
  191.4250  178.0260  142.1380 C   0  0  0  0  0  2  0  0  0  0  0  0
  190.5990  177.1730  141.2290 C   0  0  0  0  0  0  0  0  0  0  0  0
  189.3110  176.9150  141.4990 C   0  0  0  0  0  3  0  0  0  0  0  0
  190.5410  177.1600  144.3050 C   0  0  0  0  0  0  0  0  0  0  0  0
  188.6000  177.2920  142.7390 C   0  0  0  0  0  3  0  0  0  0  0  0
  189.1220  177.4580  143.9730 C   0  0  0  0  0  0  0  0  0  0  0  0
  191.1920  176.6980  139.9640 C   0  0  0  0  0  0  0  0  0  0  0  0
  192.4650  177.1230  139.5890 O   0  0  0  0  0  1  0  0  0  0  0  0
  190.5420  175.9420  139.1900 O   0  0  0  0  0  0  0  0  0  0  0  0
  184.7590  179.1390  145.6330 O   0  0  0  0  0  0  0  0  0  0  0  0
  181.6300  178.7420  143.6390 C   0  0  0  0  0  3  0  0  0  0  0  0
  184.4790  178.6890  143.3420 C   0  0  0  0  0  3  0  0  0  0  0  0
  182.1280  179.3030  139.9540 N   0  0  0  0  0  0  0  0  0  0  0  0
  181.3500  179.7690  138.8420 C   0  0  0  0  0  0  0  0  0  0  0  0
  181.5090  179.1710  141.2420 C   0  0  0  0  0  3  0  0  0  0  0  0
  181.9230  180.1830  137.7990 O   0  0  0  0  0  0  0  0  0  0  0  0
  182.2250  178.7750  142.2970 C   0  0  0  0  0  0  0  0  0  0  0  0
  179.9620  179.7440  138.8940 O   0  0  0  0  0  1  0  0  0  0  0  0
  184.3010  178.7840  140.8650 C   0  0  0  0  0  3  0  0  0  0  0  0
  183.6570  178.3200  142.1390 C   0  0  1  0  0  3  0  0  0  0  0  0
  183.5570  179.2060  139.8370 C   0  0  0  0  0  3  0  0  0  0  0  0
  183.9180  178.8360  144.5530 C   0  0  0  0  0  0  0  0  0  0  0  0
  182.4390  178.7540  144.7060 C   0  0  0  0  0  3  0  0  0  0  0  0
  1 10  1  0  0  0  0
  2 15  2  0  0  0  0
  3  9  1  0  0  0  0
  4  8  2  0  0  0  0
  5  1  2  0  0  0  0
  5  4  1  0  0  0  0
  6  7  1  0  0  0  0
  8  6  1  0  0  0  0
  9 11  2  0  0  0  0
 10  9  1  0  0  0  0
 10  6  2  0  0  0  0
 12  2  1  0  0  0  0
 13 14  2  0  0  0  0
 13 12  1  0  0  0  0
 14 16  1  0  0  0  0
 15  3  1  0  0  0  0
 16 17  2  0  0  0  0
 17 15  1  0  0  0  0
 17  1  1  0  0  0  0
 18 13  1  0  0  0  0
 19 18  1  0  0  0  0
 20 18  2  0  0  0  0
 21  4  1  0  0  0  0
 22 34  2  0  0  0  0
 23 33  2  0  0  0  0
 24 26  1  0  0  0  0
 25 29  1  0  0  0  0
 25 24  1  0  0  0  0
 26 28  2  0  0  0  0
 27 25  2  0  0  0  0
 28 22  1  0  0  0  0
 31 30  1  6  0  0  0
 31 28  1  0  0  0  0
 31 23  1  0  0  0  0
 32 24  1  0  0  0  0
 32 30  2  0  0  0  0
 33 34  1  0  0  0  0
 33 21  1  0  0  0  0
M  END
>  <MODEL>
1

>  <REMARK>
 VINA RESULT:     -11.6      0.000      0.000
  Name = 
  3 active torsions:
  status: ('A' for Active; 'I' for Inactive)
    1  A    between atoms: C_3  and  C_25
    2  A    between atoms: C_8  and  O_18
    3  A    between atoms: O_18  and  C_30
                            x       y       z     vdW  Elec       q    Type
                         _______ _______ _______ _____ _____    ______ ____

>  <TORSDO>
F 3

$$$$
=
 OpenBabel11052415483D

 34 38  0  0  0  0  0  0  0  0999 V2000
  187.0630  178.0820  143.8330 C   0  0  0  0  0  0  0  0  0  0  0  0
  188.5200  177.9330  147.2870 C   0  0  0  0  0  3  0  0  0  0  0  0
  186.2210  177.5910  146.6330 C   0  0  0  0  0  2  0  0  0  0  0  0
  186.5390  178.6370  141.5090 C   0  0  0  0  0  0  0  0  0  0  0  0
  187.4460  178.2140  142.4880 C   0  0  0  0  0  3  0  0  0  0  0  0
  184.8240  178.8330  143.2170 C   0  0  0  0  0  0  0  0  0  0  0  0
  183.5150  179.1790  143.5370 O   0  0  0  0  0  1  0  0  0  0  0  0
  185.2330  178.9450  141.8850 C   0  0  0  0  0  3  0  0  0  0  0  0
  185.3280  178.2670  145.6360 C   0  0  0  0  0  0  0  0  0  0  0  0
  185.7380  178.4050  144.2100 C   0  0  0  0  0  0  0  0  0  0  0  0
  184.1960  178.6570  146.0220 O   0  0  0  0  0  0  0  0  0  0  0  0
  189.9830  178.1530  147.0960 C   0  0  0  0  0  2  0  0  0  0  0  0
  190.6290  176.9460  146.4930 C   0  0  0  0  0  0  0  0  0  0  0  0
  190.2970  176.5230  145.2650 C   0  0  0  0  0  3  0  0  0  0  0  0
  187.6620  177.7350  146.2820 C   0  0  0  0  0  0  0  0  0  0  0  0
  189.2030  177.0680  144.4340 C   0  0  0  0  0  3  0  0  0  0  0  0
  188.0600  177.6520  144.8510 C   0  0  0  0  0  0  0  0  0  0  0  0
  191.7200  176.2780  147.2290 C   0  0  0  0  0  0  0  0  0  0  0  0
  192.2740  176.8850  148.3540 O   0  0  0  0  0  1  0  0  0  0  0  0
  192.1920  175.1800  146.8270 O   0  0  0  0  0  0  0  0  0  0  0  0
  186.9080  178.8280  140.1710 O   0  0  0  0  0  0  0  0  0  0  0  0
  188.2400  177.0040  137.2000 C   0  0  0  0  0  2  0  0  0  0  0  0
  188.9000  177.6050  139.9220 C   0  0  0  0  0  3  0  0  0  0  0  0
  191.9580  176.4530  137.3320 N   0  0  0  0  0  0  0  0  0  0  0  0
  193.0390  176.3140  136.3980 C   0  0  0  0  0  0  0  0  0  0  0  0
  190.6150  176.5870  136.8420 C   0  0  0  0  0  3  0  0  0  0  0  0
  194.2260  176.5030  136.7740 O   0  0  0  0  0  1  0  0  0  0  0  0
  189.6010  176.7550  137.6930 C   0  0  0  0  0  0  0  0  0  0  0  0
  192.7890  175.9450  135.0820 O   0  0  0  0  0  0  0  0  0  0  0  0
  191.2460  176.8440  139.6040 C   0  0  0  0  0  3  0  0  0  0  0  0
  189.8140  176.6660  139.1860 C   0  0  0  0  0  0  0  0  0  0  0  0
  192.2380  176.7010  138.7200 C   0  0  0  0  0  3  0  0  0  0  0  0
  187.7220  177.9840  139.4030 C   0  0  0  0  0  0  0  0  0  0  0  0
  187.3480  177.5710  138.0220 C   0  0  0  0  0  3  0  0  0  0  0  0
  1 10  1  0  0  0  0
  1 17  1  0  0  0  0
  4  8  2  0  0  0  0
  4  5  1  0  0  0  0
  5  1  2  0  0  0  0
  6  7  1  0  0  0  0
  6 10  2  0  0  0  0
  8  6  1  0  0  0  0
  9 11  2  0  0  0  0
  9  3  1  0  0  0  0
 10  9  1  0  0  0  0
 12  2  1  0  0  0  0
 13 12  1  0  0  0  0
 13 18  1  0  0  0  0
 14 13  2  0  0  0  0
 15  3  1  0  0  0  0
 15  2  2  0  0  0  0
 16 17  2  0  0  0  0
 16 14  1  0  0  0  0
 17 15  1  0  0  0  0
 18 19  1  0  0  0  0
 20 18  2  0  0  0  0
 21  4  1  0  0  0  0
 22 28  1  0  0  0  0
 22 34  1  0  0  0  0
 24 32  1  0  0  0  0
 25 27  1  0  0  0  0
 25 24  1  0  0  0  0
 26 24  1  0  0  0  0
 26 28  2  0  0  0  0
 28 31  1  0  0  0  0
 29 25  2  0  0  0  0
 31 30  1  0  0  0  0
 31 23  2  0  0  0  0
 32 30  2  0  0  0  0
 33 23  1  0  0  0  0
 33 21  1  0  0  0  0
 34 33  2  0  0  0  0
M  END
>  <MODEL>
2

>  <REMARK>
 VINA RESULT:     -11.5      3.169      7.303
  Name = 
  3 active torsions:
  status: ('A' for Active; 'I' for Inactive)
    1  A    between atoms: C_3  and  C_25
    2  A    between atoms: C_8  and  O_18
    3  A    between atoms: O_18  and  C_30
                            x       y       z     vdW  Elec       q    Type
                         _______ _______ _______ _____ _____    ______ ____

>  <TORSDO>
F 3

$$$$
=
 OpenBabel11052415483D

 34 38  0  0  1  0  0  0  0  0999 V2000
  186.8340  178.0100  143.8270 C   0  0  0  0  0  0  0  0  0  0  0  0
  188.5560  177.9310  147.1600 C   0  0  0  0  0  3  0  0  0  0  0  0
  186.2100  177.5930  146.6960 C   0  0  0  0  0  2  0  0  0  0  0  0
  186.1340  178.5140  141.5390 C   0  0  0  0  0  0  0  0  0  0  0  0
  187.1110  178.1070  142.4530 C   0  0  0  0  0  3  0  0  0  0  0  0
  184.5580  178.7650  143.3700 C   0  0  0  0  0  0  0  0  0  0  0  0
  183.2810  179.1300  143.7830 O   0  0  0  0  0  1  0  0  0  0  0  0
  184.8630  178.8420  142.0070 C   0  0  0  0  0  3  0  0  0  0  0  0
  185.2460  178.2530  145.7550 C   0  0  0  0  0  0  0  0  0  0  0  0
  185.5440  178.3530  144.2990 C   0  0  0  0  0  0  0  0  0  0  0  0
  184.1510  178.6610  146.2180 O   0  0  0  0  0  0  0  0  0  0  0  0
  190.0010  178.1330  146.8500 C   0  0  0  0  0  2  0  0  0  0  0  0
  190.5890  176.9060  146.2280 C   0  0  0  0  0  0  0  0  0  0  0  0
  190.1590  176.4570  145.0410 C   0  0  0  0  0  3  0  0  0  0  0  0
  187.6200  177.7160  146.2300 C   0  0  0  0  0  0  0  0  0  0  0  0
  189.0070  176.9920  144.2840 C   0  0  0  0  0  3  0  0  0  0  0  0
  187.9040  177.5960  144.7740 C   0  0  0  0  0  0  0  0  0  0  0  0
  191.7290  176.2470  146.8930 C   0  0  0  0  0  0  0  0  0  0  0  0
  192.2230  176.7530  148.0940 O   0  0  0  0  0  1  0  0  0  0  0  0
  192.2970  175.2520  146.3640 O   0  0  0  0  0  0  0  0  0  0  0  0
  186.3970  178.6700  140.1710 O   0  0  0  0  0  0  0  0  0  0  0  0
  189.9850  177.8520  139.5470 C   0  0  0  0  0  3  0  0  0  0  0  0
  187.3970  177.5660  138.3510 C   0  0  0  0  0  3  0  0  0  0  0  0
  190.4690  175.0440  137.0920 N   0  0  0  0  0  0  0  0  0  0  0  0
  191.4360  174.0130  136.8440 C   0  0  0  0  0  0  0  0  0  0  0  0
  190.7070  175.9980  138.1380 C   0  0  0  0  0  3  0  0  0  0  0  0
  191.1210  173.0030  136.1610 O   0  0  0  0  0  0  0  0  0  0  0  0
  189.8020  176.9410  138.4090 C   0  0  0  0  0  0  0  0  0  0  0  0
  192.7320  174.1330  137.3290 O   0  0  0  0  0  1  0  0  0  0  0  0
  188.2550  175.9200  136.6980 C   0  0  0  0  0  3  0  0  0  0  0  0
  188.5810  177.1210  137.5390 C   0  0  1  0  0  3  0  0  0  0  0  0
  189.1740  174.9760  136.4710 C   0  0  0  0  0  3  0  0  0  0  0  0
  187.5520  178.2530  139.4940 C   0  0  0  0  0  0  0  0  0  0  0  0
  188.9160  178.4850  140.0460 C   0  0  0  0  0  3  0  0  0  0  0  0
  1 10  1  0  0  0  0
  1 17  1  0  0  0  0
  4  8  2  0  0  0  0
  4  5  1  0  0  0  0
  5  1  2  0  0  0  0
  6  7  1  0  0  0  0
  6 10  2  0  0  0  0
  8  6  1  0  0  0  0
  9 11  2  0  0  0  0
  9  3  1  0  0  0  0
 10  9  1  0  0  0  0
 12  2  1  0  0  0  0
 13 12  1  0  0  0  0
 13 18  1  0  0  0  0
 14 13  2  0  0  0  0
 15  3  1  0  0  0  0
 15  2  2  0  0  0  0
 16 17  2  0  0  0  0
 16 14  1  0  0  0  0
 17 15  1  0  0  0  0
 18 19  1  0  0  0  0
 20 18  2  0  0  0  0
 21  4  1  0  0  0  0
 22 34  2  0  0  0  0
 23 33  2  0  0  0  0
 24 26  1  0  0  0  0
 25 24  1  0  0  0  0
 25 29  1  0  0  0  0
 26 28  2  0  0  0  0
 27 25  2  0  0  0  0
 28 22  1  0  0  0  0
 31 30  1  1  0  0  0
 31 23  1  0  0  0  0
 31 28  1  0  0  0  0
 32 30  2  0  0  0  0
 32 24  1  0  0  0  0
 33 34  1  0  0  0  0
 33 21  1  0  0  0  0
M  END
>  <MODEL>
3

>  <REMARK>
 VINA RESULT:     -11.4      3.027      7.029
  Name = 
  3 active torsions:
  status: ('A' for Active; 'I' for Inactive)
    1  A    between atoms: C_3  and  C_25
    2  A    between atoms: C_8  and  O_18
    3  A    between atoms: O_18  and  C_30
                            x       y       z     vdW  Elec       q    Type
                         _______ _______ _______ _____ _____    ______ ____

>  <TORSDO>
F 3

$$$$
=
 OpenBabel11052415483D

 34 38  0  0  0  0  0  0  0  0999 V2000
  186.1380  178.2330  143.2250 C   0  0  0  0  0  0  0  0  0  0  0  0
  188.5560  177.7370  146.0500 C   0  0  0  0  0  3  0  0  0  0  0  0
  186.1510  177.5290  146.1050 C   0  0  0  0  0  2  0  0  0  0  0  0
  184.9720  179.0030  141.2170 C   0  0  0  0  0  0  0  0  0  0  0  0
  186.1050  178.4670  141.8400 C   0  0  0  0  0  3  0  0  0  0  0  0
  183.8640  179.1080  143.3760 C   0  0  0  0  0  0  0  0  0  0  0  0
  182.7350  179.4680  144.1050 O   0  0  0  0  0  1  0  0  0  0  0  0
  183.8600  179.3210  141.9940 C   0  0  0  0  0  3  0  0  0  0  0  0
  185.0400  178.3180  145.4790 C   0  0  0  0  0  0  0  0  0  0  0  0
  185.0080  178.5650  144.0100 C   0  0  0  0  0  0  0  0  0  0  0  0
  184.1010  178.7110  146.2180 O   0  0  0  0  0  0  0  0  0  0  0  0
  189.9040  177.9240  145.4390 C   0  0  0  0  0  2  0  0  0  0  0  0
  190.2670  176.7530  144.5820 C   0  0  0  0  0  0  0  0  0  0  0  0
  189.5570  176.4480  143.4870 C   0  0  0  0  0  3  0  0  0  0  0  0
  187.4250  177.6550  145.3430 C   0  0  0  0  0  0  0  0  0  0  0  0
  188.2970  177.0990  143.0700 C   0  0  0  0  0  3  0  0  0  0  0  0
  187.3680  177.6830  143.8560 C   0  0  0  0  0  0  0  0  0  0  0  0
  191.4880  175.9880  144.9010 C   0  0  0  0  0  0  0  0  0  0  0  0
  192.0560  176.0800  146.1700 O   0  0  0  0  0  1  0  0  0  0  0  0
  192.0560  175.2830  144.0220 O   0  0  0  0  0  0  0  0  0  0  0  0
  184.9300  179.2960  139.8480 O   0  0  0  0  0  0  0  0  0  0  0  0
  186.3420  177.2000  137.1020 C   0  0  0  0  0  2  0  0  0  0  0  0
  183.9500  177.5300  138.6450 C   0  0  0  0  0  3  0  0  0  0  0  0
  184.5800  173.9030  136.6870 N   0  0  0  0  0  0  0  0  0  0  0  0
  184.9070  172.5800  136.2380 C   0  0  0  0  0  0  0  0  0  0  0  0
  185.5730  174.9370  136.6190 C   0  0  0  0  0  3  0  0  0  0  0  0
  184.1800  171.6050  136.5650 O   0  0  0  0  0  1  0  0  0  0  0  0
  185.3000  176.1650  137.0650 C   0  0  0  0  0  0  0  0  0  0  0  0
  186.0100  172.3660  135.4210 O   0  0  0  0  0  0  0  0  0  0  0  0
  183.0440  175.3550  137.8520 C   0  0  0  0  0  3  0  0  0  0  0  0
  183.9080  176.5370  137.5170 C   0  0  0  0  0  0  0  0  0  0  0  0
  183.3630  174.1320  137.4170 C   0  0  0  0  0  3  0  0  0  0  0  0
  184.9850  178.3700  138.7960 C   0  0  0  0  0  0  0  0  0  0  0  0
  186.1790  178.2520  137.9120 C   0  0  0  0  0  3  0  0  0  0  0  0
  1 17  1  0  0  0  0
  1 10  1  0  0  0  0
  4  5  1  0  0  0  0
  4  8  2  0  0  0  0
  5  1  2  0  0  0  0
  6 10  2  0  0  0  0
  6  7  1  0  0  0  0
  8  6  1  0  0  0  0
  9  3  1  0  0  0  0
  9 11  2  0  0  0  0
 10  9  1  0  0  0  0
 12  2  1  0  0  0  0
 13 18  1  0  0  0  0
 13 12  1  0  0  0  0
 14 13  2  0  0  0  0
 15  2  2  0  0  0  0
 15  3  1  0  0  0  0
 16 14  1  0  0  0  0
 16 17  2  0  0  0  0
 17 15  1  0  0  0  0
 18 19  1  0  0  0  0
 20 18  2  0  0  0  0
 21  4  1  0  0  0  0
 22 34  1  0  0  0  0
 23 33  1  0  0  0  0
 24 32  1  0  0  0  0
 25 27  1  0  0  0  0
 25 24  1  0  0  0  0
 26 24  1  0  0  0  0
 26 28  2  0  0  0  0
 28 22  1  0  0  0  0
 28 31  1  0  0  0  0
 29 25  2  0  0  0  0
 31 30  1  0  0  0  0
 31 23  2  0  0  0  0
 32 30  2  0  0  0  0
 33 21  1  0  0  0  0
 34 33  2  0  0  0  0
M  END
>  <MODEL>
4

>  <REMARK>
 VINA RESULT:     -11.3      3.610      5.767
  Name = 
  3 active torsions:
  status: ('A' for Active; 'I' for Inactive)
    1  A    between atoms: C_3  and  C_25
    2  A    between atoms: C_8  and  O_18
    3  A    between atoms: O_18  and  C_30
                            x       y       z     vdW  Elec       q    Type
                         _______ _______ _______ _____ _____    ______ ____

>  <TORSDO>
F 3

$$$$
=
 OpenBabel11052415483D

 34 38  0  0  1  0  0  0  0  0999 V2000
  184.9580  178.6780  141.9750 C   0  0  0  0  0  0  0  0  0  0  0  0
  185.7600  178.0880  138.3580 C   0  0  0  0  0  3  0  0  0  0  0  0
  183.9690  179.4190  139.2800 C   0  0  0  0  0  2  0  0  0  0  0  0
  184.6300  178.4660  144.3900 C   0  0  0  0  0  0  0  0  0  0  0  0
  185.4590  178.4240  143.2630 C   0  0  0  0  0  3  0  0  0  0  0  0
  182.7450  179.0000  142.9540 C   0  0  0  0  0  0  0  0  0  0  0  0
  181.3820  179.2550  142.8460 O   0  0  0  0  0  1  0  0  0  0  0  0
  183.2760  178.7520  144.2230 C   0  0  0  0  0  3  0  0  0  0  0  0
  183.0460  179.2280  140.4470 C   0  0  0  0  0  0  0  0  0  0  0  0
  183.5810  178.9590  141.8110 C   0  0  0  0  0  0  0  0  0  0  0  0
  181.8100  179.3640  140.2550 O   0  0  0  0  0  0  0  0  0  0  0  0
  186.9970  177.2540  138.3700 C   0  0  0  0  0  2  0  0  0  0  0  0
  188.1850  178.0700  138.7660 C   0  0  0  0  0  0  0  0  0  0  0  0
  188.2700  178.6260  139.9830 C   0  0  0  0  0  3  0  0  0  0  0  0
  185.2440  178.6670  139.4460 C   0  0  0  0  0  0  0  0  0  0  0  0
  187.1980  178.6360  141.0010 C   0  0  0  0  0  3  0  0  0  0  0  0
  185.8640  178.6020  140.7980 C   0  0  0  0  0  0  0  0  0  0  0  0
  189.3220  178.1740  137.8310 C   0  0  0  0  0  0  0  0  0  0  0  0
  190.4350  177.3520  137.9940 O   0  0  0  0  0  1  0  0  0  0  0  0
  189.3210  179.0340  136.9080 O   0  0  0  0  0  0  0  0  0  0  0  0
  185.0910  178.1650  145.6780 O   0  0  0  0  0  0  0  0  0  0  0  0
  188.0200  178.1770  147.9910 C   0  0  0  0  0  3  0  0  0  0  0  0
  187.3810  177.9070  145.2110 C   0  0  0  0  0  3  0  0  0  0  0  0
  191.0520  176.4670  146.5660 N   0  0  0  0  0  0  0  0  0  0  0  0
  192.1880  175.7440  147.0630 C   0  0  0  0  0  0  0  0  0  0  0  0
  190.1190  177.0400  147.4950 C   0  0  0  0  0  3  0  0  0  0  0  0
  192.8370  174.9850  146.2970 O   0  0  0  0  0  0  0  0  0  0  0  0
  189.0370  177.6840  147.0520 C   0  0  0  0  0  0  0  0  0  0  0  0
  192.5960  175.8960  148.3830 O   0  0  0  0  0  1  0  0  0  0  0  0
  189.6610  177.0660  144.6880 C   0  0  0  0  0  3  0  0  0  0  0  0
  188.8380  177.9510  145.5790 C   0  0  1  0  0  3  0  0  0  0  0  0
  190.7210  176.4090  145.1690 C   0  0  0  0  0  3  0  0  0  0  0  0
  186.4250  178.1860  146.1100 C   0  0  0  0  0  0  0  0  0  0  0  0
  186.7880  178.4310  147.5340 C   0  0  0  0  0  3  0  0  0  0  0  0
  1  5  1  0  0  0  0
  2 12  1  0  0  0  0
  2 15  2  0  0  0  0
  3 15  1  0  0  0  0
  3  9  1  0  0  0  0
  4 21  1  0  0  0  0
  5  4  2  0  0  0  0
  6  8  2  0  0  0  0
  7  6  1  0  0  0  0
  8  4  1  0  0  0  0
  9 10  1  0  0  0  0
 10  1  2  0  0  0  0
 10  6  1  0  0  0  0
 11  9  2  0  0  0  0
 12 13  1  0  0  0  0
 13 14  2  0  0  0  0
 14 16  1  0  0  0  0
 15 17  1  0  0  0  0
 17 16  2  0  0  0  0
 17  1  1  0  0  0  0
 18 19  1  0  0  0  0
 18 13  1  0  0  0  0
 20 18  2  0  0  0  0
 21 33  1  0  0  0  0
 23 31  1  0  0  0  0
 23 33  2  0  0  0  0
 24 25  1  0  0  0  0
 24 26  1  0  0  0  0
 25 29  1  0  0  0  0
 27 25  2  0  0  0  0
 28 26  2  0  0  0  0
 28 22  1  0  0  0  0
 30 32  2  0  0  0  0
 31 30  1  6  0  0  0
 31 28  1  0  0  0  0
 32 24  1  0  0  0  0
 33 34  1  0  0  0  0
 34 22  2  0  0  0  0
M  END
>  <MODEL>
5

>  <REMARK>
 VINA RESULT:     -11.3      2.830      7.801
  Name = 
  3 active torsions:
  status: ('A' for Active; 'I' for Inactive)
    1  A    between atoms: C_3  and  C_25
    2  A    between atoms: C_8  and  O_18
    3  A    between atoms: O_18  and  C_30
                            x       y       z     vdW  Elec       q    Type
                         _______ _______ _______ _____ _____    ______ ____

>  <TORSDO>
F 3

$$$$
=
 OpenBabel11052415483D

 34 38  0  0  1  0  0  0  0  0999 V2000
  186.1850  178.0630  143.4870 C   0  0  0  0  0  0  0  0  0  0  0  0
  182.6160  178.7210  142.5320 C   0  0  0  0  0  3  0  0  0  0  0  0
  183.7580  179.3950  144.5500 C   0  0  0  0  0  2  0  0  0  0  0  0
  188.4050  177.0900  143.8110 C   0  0  0  0  0  0  0  0  0  0  0  0
  187.3760  177.5260  142.9700 C   0  0  0  0  0  3  0  0  0  0  0  0
  187.0580  177.7010  145.7380 C   0  0  0  0  0  0  0  0  0  0  0  0
  186.9340  177.7430  147.1230 O   0  0  0  0  0  1  0  0  0  0  0  0
  188.2350  177.1810  145.1920 C   0  0  0  0  0  3  0  0  0  0  0  0
  184.7520  178.7120  145.4420 C   0  0  0  0  0  0  0  0  0  0  0  0
  186.0140  178.1440  144.8900 C   0  0  0  0  0  0  0  0  0  0  0  0
  184.5220  178.6890  146.6780 O   0  0  0  0  0  0  0  0  0  0  0  0
  182.4720  178.1420  141.1650 C   0  0  0  0  0  2  0  0  0  0  0  0
  183.1700  178.9920  140.1510 C   0  0  0  0  0  0  0  0  0  0  0  0
  184.4990  179.1670  140.1890 C   0  0  0  0  0  3  0  0  0  0  0  0
  183.7870  178.8540  143.1620 C   0  0  0  0  0  0  0  0  0  0  0  0
  185.3990  178.6920  141.2610 C   0  0  0  0  0  3  0  0  0  0  0  0
  185.1020  178.4950  142.5630 C   0  0  0  0  0  0  0  0  0  0  0  0
  182.3870  179.5590  139.0360 C   0  0  0  0  0  0  0  0  0  0  0  0
  182.5850  180.8830  138.6490 O   0  0  0  0  0  1  0  0  0  0  0  0
  181.5020  178.8730  138.4540 O   0  0  0  0  0  0  0  0  0  0  0  0
  189.5800  176.5030  143.3250 O   0  0  0  0  0  0  0  0  0  0  0  0
  192.4730  177.5500  141.2120 C   0  0  0  0  0  3  0  0  0  0  0  0
  189.7350  176.7340  140.9900 C   0  0  0  0  0  3  0  0  0  0  0  0
  192.1900  176.4270  137.6340 N   0  0  0  0  0  0  0  0  0  0  0  0
  193.0790  176.0770  136.5630 C   0  0  0  0  0  0  0  0  0  0  0  0
  192.7330  176.8890  138.8800 C   0  0  0  0  0  3  0  0  0  0  0  0
  192.6610  175.3920  135.5930 O   0  0  0  0  0  0  0  0  0  0  0  0
  191.9240  177.1830  139.9000 C   0  0  0  0  0  0  0  0  0  0  0  0
  194.3990  176.5120  136.5740 O   0  0  0  0  0  1  0  0  0  0  0  0
  189.9530  176.3970  138.5370 C   0  0  0  0  0  3  0  0  0  0  0  0
  190.4230  177.1790  139.7290 C   0  0  1  0  0  3  0  0  0  0  0  0
  190.7960  176.0900  137.5460 C   0  0  0  0  0  3  0  0  0  0  0  0
  190.3050  176.9040  142.1930 C   0  0  0  0  0  0  0  0  0  0  0  0
  191.6940  177.4320  142.2940 C   0  0  0  0  0  3  0  0  0  0  0  0
  1 10  1  0  0  0  0
  2 15  2  0  0  0  0
  3  9  1  0  0  0  0
  4  8  2  0  0  0  0
  5  1  2  0  0  0  0
  5  4  1  0  0  0  0
  6  7  1  0  0  0  0
  8  6  1  0  0  0  0
  9 11  2  0  0  0  0
 10  9  1  0  0  0  0
 10  6  2  0  0  0  0
 12  2  1  0  0  0  0
 13 14  2  0  0  0  0
 13 12  1  0  0  0  0
 14 16  1  0  0  0  0
 15  3  1  0  0  0  0
 16 17  2  0  0  0  0
 17 15  1  0  0  0  0
 17  1  1  0  0  0  0
 18 13  1  0  0  0  0
 19 18  1  0  0  0  0
 20 18  2  0  0  0  0
 21  4  1  0  0  0  0
 22 34  2  0  0  0  0
 23 33  2  0  0  0  0
 24 26  1  0  0  0  0
 25 29  1  0  0  0  0
 25 24  1  0  0  0  0
 26 28  2  0  0  0  0
 27 25  2  0  0  0  0
 28 22  1  0  0  0  0
 31 30  1  6  0  0  0
 31 28  1  0  0  0  0
 31 23  1  0  0  0  0
 32 24  1  0  0  0  0
 32 30  2  0  0  0  0
 33 34  1  0  0  0  0
 33 21  1  0  0  0  0
M  END
>  <MODEL>
6

>  <REMARK>
 VINA RESULT:     -11.3      2.571      8.023
  Name = 
  3 active torsions:
  status: ('A' for Active; 'I' for Inactive)
    1  A    between atoms: C_3  and  C_25
    2  A    between atoms: C_8  and  O_18
    3  A    between atoms: O_18  and  C_30
                            x       y       z     vdW  Elec       q    Type
                         _______ _______ _______ _____ _____    ______ ____

>  <TORSDO>
F 3

$$$$
=
 OpenBabel11052415483D

 34 38  0  0  0  0  0  0  0  0999 V2000
  183.1670  178.6290  141.4790 C   0  0  0  0  0  0  0  0  0  0  0  0
  182.7340  177.0300  138.1120 C   0  0  0  0  0  3  0  0  0  0  0  0
  181.1090  178.2980  139.3710 C   0  0  0  0  0  2  0  0  0  0  0  0
  183.8050  179.1610  143.7790 C   0  0  0  0  0  0  0  0  0  0  0  0
  184.1490  178.8850  142.4510 C   0  0  0  0  0  3  0  0  0  0  0  0
  181.4600  178.9070  143.2010 C   0  0  0  0  0  0  0  0  0  0  0  0
  180.1360  178.9010  143.6270 O   0  0  0  0  0  1  0  0  0  0  0  0
  182.4600  179.1680  144.1430 C   0  0  0  0  0  3  0  0  0  0  0  0
  180.7600  178.3550  140.8280 C   0  0  0  0  0  0  0  0  0  0  0  0
  181.8030  178.6280  141.8560 C   0  0  0  0  0  0  0  0  0  0  0  0
  179.5510  178.2310  141.1540 O   0  0  0  0  0  0  0  0  0  0  0  0
  184.0680  176.4450  137.7900 C   0  0  0  0  0  2  0  0  0  0  0  0
  185.0500  177.5180  137.4410 C   0  0  0  0  0  0  0  0  0  0  0  0
  185.4140  178.4430  138.3390 C   0  0  0  0  0  3  0  0  0  0  0  0
  182.5110  177.8440  139.1480 C   0  0  0  0  0  0  0  0  0  0  0  0
  184.8240  178.6180  139.6840 C   0  0  0  0  0  3  0  0  0  0  0  0
  183.5700  178.3160  140.0810 C   0  0  0  0  0  0  0  0  0  0  0  0
  185.6970  177.4860  136.1160 C   0  0  0  0  0  0  0  0  0  0  0  0
  185.1110  176.7760  135.0710 O   0  0  0  0  0  0  0  0  0  0  0  0
  186.8050  178.0600  135.9250 O   0  0  0  0  0  1  0  0  0  0  0  0
  184.7640  179.3690  144.7800 O   0  0  0  0  0  0  0  0  0  0  0  0
  187.5940  176.9590  144.4470 C   0  0  0  0  0  2  0  0  0  0  0  0
  186.2110  178.5070  146.4210 C   0  0  0  0  0  3  0  0  0  0  0  0
  190.0590  177.1530  147.2810 N   0  0  0  0  0  0  0  0  0  0  0  0
  191.4610  176.9180  147.4790 C   0  0  0  0  0  0  0  0  0  0  0  0
  189.4730  176.8810  145.9990 C   0  0  0  0  0  3  0  0  0  0  0  0
  192.0530  177.4260  148.4680 O   0  0  0  0  0  1  0  0  0  0  0  0
  188.1790  177.1290  145.7840 C   0  0  0  0  0  0  0  0  0  0  0  0
  192.1700  176.1090  146.6000 O   0  0  0  0  0  0  0  0  0  0  0  0
  188.0030  178.1160  148.0980 C   0  0  0  0  0  3  0  0  0  0  0  0
  187.2710  177.5610  146.9110 C   0  0  0  0  0  0  0  0  0  0  0  0
  189.3070  177.8770  148.2690 C   0  0  0  0  0  3  0  0  0  0  0  0
  185.7870  178.4830  145.1480 C   0  0  0  0  0  0  0  0  0  0  0  0
  186.4500  177.5890  144.1570 C   0  0  0  0  0  3  0  0  0  0  0  0
  1 10  2  0  0  0  0
  1  5  1  0  0  0  0
  2 15  2  0  0  0  0
  3  9  1  0  0  0  0
  4  8  1  0  0  0  0
  4 21  1  0  0  0  0
  5  4  2  0  0  0  0
  6  7  1  0  0  0  0
  6  8  2  0  0  0  0
  9 11  2  0  0  0  0
  9 10  1  0  0  0  0
 10  6  1  0  0  0  0
 12  2  1  0  0  0  0
 13 12  1  0  0  0  0
 13 14  2  0  0  0  0
 14 16  1  0  0  0  0
 15  3  1  0  0  0  0
 15 17  1  0  0  0  0
 16 17  2  0  0  0  0
 17  1  1  0  0  0  0
 18 13  1  0  0  0  0
 19 18  2  0  0  0  0
 20 18  1  0  0  0  0
 21 33  1  0  0  0  0
 22 28  1  0  0  0  0
 23 31  2  0  0  0  0
 24 25  1  0  0  0  0
 24 32  1  0  0  0  0
 25 27  1  0  0  0  0
 26 24  1  0  0  0  0
 28 26  2  0  0  0  0
 28 31  1  0  0  0  0
 29 25  2  0  0  0  0
 30 32  2  0  0  0  0
 31 30  1  0  0  0  0
 33 23  1  0  0  0  0
 34 22  1  0  0  0  0
 34 33  2  0  0  0  0
M  END
>  <MODEL>
7

>  <REMARK>
 VINA RESULT:     -10.9      3.285      8.535
  Name = 
  3 active torsions:
  status: ('A' for Active; 'I' for Inactive)
    1  A    between atoms: C_3  and  C_25
    2  A    between atoms: C_8  and  O_18
    3  A    between atoms: O_18  and  C_30
                            x       y       z     vdW  Elec       q    Type
                         _______ _______ _______ _____ _____    ______ ____

>  <TORSDO>
F 3

$$$$
=
 OpenBabel11052415483D

 34 38  0  0  0  0  0  0  0  0999 V2000
  186.0420  178.1430  143.6050 C   0  0  0  0  0  0  0  0  0  0  0  0
  188.6540  177.7390  146.2680 C   0  0  0  0  0  3  0  0  0  0  0  0
  186.2630  177.4840  146.4880 C   0  0  0  0  0  2  0  0  0  0  0  0
  184.7300  178.8600  141.6700 C   0  0  0  0  0  0  0  0  0  0  0  0
  185.9130  178.3560  142.2220 C   0  0  0  0  0  3  0  0  0  0  0  0
  183.7670  178.9750  143.8960 C   0  0  0  0  0  0  0  0  0  0  0  0
  182.6810  179.3240  144.6940 O   0  0  0  0  0  1  0  0  0  0  0  0
  183.6650  179.1670  142.5150 C   0  0  0  0  0  3  0  0  0  0  0  0
  185.0960  178.2410  145.9260 C   0  0  0  0  0  0  0  0  0  0  0  0
  184.9610  178.4650  144.4600 C   0  0  0  0  0  0  0  0  0  0  0  0
  184.2010  178.6260  146.7210 O   0  0  0  0  0  0  0  0  0  0  0  0
  189.9540  177.9420  145.5660 C   0  0  0  0  0  2  0  0  0  0  0  0
  190.2830  176.7660  144.7030 C   0  0  0  0  0  0  0  0  0  0  0  0
  189.5080  176.4310  143.6620 C   0  0  0  0  0  3  0  0  0  0  0  0
  187.4810  177.6240  145.6400 C   0  0  0  0  0  0  0  0  0  0  0  0
  188.2090  177.0510  143.3210 C   0  0  0  0  0  3  0  0  0  0  0  0
  187.3230  177.6280  144.1600 C   0  0  0  0  0  0  0  0  0  0  0  0
  191.5390  176.0310  144.9490 C   0  0  0  0  0  0  0  0  0  0  0  0
  192.0780  175.2200  143.9530 O   0  0  0  0  0  0  0  0  0  0  0  0
  192.1110  176.0900  146.0720 O   0  0  0  0  0  1  0  0  0  0  0  0
  184.5910  179.1320  140.3020 O   0  0  0  0  0  0  0  0  0  0  0  0
  184.2910  176.8230  137.3860 C   0  0  0  0  0  2  0  0  0  0  0  0
  182.7540  177.8600  139.5700 C   0  0  0  0  0  3  0  0  0  0  0  0
  181.4910  174.3360  137.7340 N   0  0  0  0  0  0  0  0  0  0  0  0
  181.2000  173.0030  137.2870 C   0  0  0  0  0  0  0  0  0  0  0  0
  182.6990  174.9770  137.3010 C   0  0  0  0  0  3  0  0  0  0  0  0
  180.3290  172.3140  137.8810 O   0  0  0  0  0  1  0  0  0  0  0  0
  183.0060  176.2010  137.7350 C   0  0  0  0  0  0  0  0  0  0  0  0
  181.8550  172.4730  136.1830 O   0  0  0  0  0  0  0  0  0  0  0  0
  180.9740  176.1590  139.2290 C   0  0  0  0  0  3  0  0  0  0  0  0
  182.0330  176.9970  138.5720 C   0  0  0  0  0  0  0  0  0  0  0  0
  180.7120  174.9230  138.7900 C   0  0  0  0  0  3  0  0  0  0  0  0
  184.0030  178.2950  139.3430 C   0  0  0  0  0  0  0  0  0  0  0  0
  184.7500  177.8270  138.1420 C   0  0  0  0  0  3  0  0  0  0  0  0
  1 17  1  0  0  0  0
  1 10  1  0  0  0  0
  4  5  1  0  0  0  0
  4  8  2  0  0  0  0
  5  1  2  0  0  0  0
  6 10  2  0  0  0  0
  6  7  1  0  0  0  0
  8  6  1  0  0  0  0
  9  3  1  0  0  0  0
  9 11  2  0  0  0  0
 10  9  1  0  0  0  0
 12  2  1  0  0  0  0
 13 18  1  0  0  0  0
 13 12  1  0  0  0  0
 14 13  2  0  0  0  0
 15  2  2  0  0  0  0
 15  3  1  0  0  0  0
 16 14  1  0  0  0  0
 16 17  2  0  0  0  0
 17 15  1  0  0  0  0
 18 20  1  0  0  0  0
 19 18  2  0  0  0  0
 21  4  1  0  0  0  0
 22 28  1  0  0  0  0
 22 34  1  0  0  0  0
 24 32  1  0  0  0  0
 25 24  1  0  0  0  0
 25 27  1  0  0  0  0
 26 24  1  0  0  0  0
 26 28  2  0  0  0  0
 28 31  1  0  0  0  0
 29 25  2  0  0  0  0
 31 30  1  0  0  0  0
 31 23  2  0  0  0  0
 32 30  2  0  0  0  0
 33 23  1  0  0  0  0
 33 21  1  0  0  0  0
 34 33  2  0  0  0  0
M  END
>  <MODEL>
8

>  <REMARK>
 VINA RESULT:     -10.9      3.311      5.203
  Name = 
  3 active torsions:
  status: ('A' for Active; 'I' for Inactive)
    1  A    between atoms: C_3  and  C_25
    2  A    between atoms: C_8  and  O_18
    3  A    between atoms: O_18  and  C_30
                            x       y       z     vdW  Elec       q    Type
                         _______ _______ _______ _____ _____    ______ ____

>  <TORSDO>
F 3

$$$$
=
 OpenBabel11052415483D

 34 38  0  0  0  0  0  0  0  0999 V2000
  185.5290  178.4100  142.5180 C   0  0  0  0  0  0  0  0  0  0  0  0
  185.3590  178.7840  146.2470 C   0  0  0  0  0  3  0  0  0  0  0  0
  183.5580  178.2570  144.7280 C   0  0  0  0  0  2  0  0  0  0  0  0
  186.0640  178.6280  140.1410 C   0  0  0  0  0  0  0  0  0  0  0  0
  186.4560  178.3790  141.4620 C   0  0  0  0  0  3  0  0  0  0  0  0
  183.7850  178.9720  140.9060 C   0  0  0  0  0  0  0  0  0  0  0  0
  182.4710  179.2990  140.5850 O   0  0  0  0  0  1  0  0  0  0  0  0
  184.7290  178.9250  139.8760 C   0  0  0  0  0  3  0  0  0  0  0  0
  183.1920  178.7550  143.3610 C   0  0  0  0  0  0  0  0  0  0  0  0
  184.1760  178.7210  142.2430 C   0  0  0  0  0  0  0  0  0  0  0  0
  182.0110  179.1420  143.1670 O   0  0  0  0  0  0  0  0  0  0  0  0
  186.7660  179.0410  146.6720 C   0  0  0  0  0  2  0  0  0  0  0  0
  187.5870  177.7940  146.5760 C   0  0  0  0  0  0  0  0  0  0  0  0
  187.8070  177.1980  145.3960 C   0  0  0  0  0  3  0  0  0  0  0  0
  185.0130  178.4170  145.0100 C   0  0  0  0  0  0  0  0  0  0  0  0
  187.1860  177.5790  144.1100 C   0  0  0  0  0  3  0  0  0  0  0  0
  185.9850  178.1630  143.9130 C   0  0  0  0  0  0  0  0  0  0  0  0
  188.2440  177.2790  147.7930 C   0  0  0  0  0  0  0  0  0  0  0  0
  187.9310  177.8230  149.0370 O   0  0  0  0  0  1  0  0  0  0  0  0
  189.1240  176.3780  147.7180 O   0  0  0  0  0  0  0  0  0  0  0  0
  186.9750  178.6560  139.0770 O   0  0  0  0  0  0  0  0  0  0  0  0
  188.6600  175.9020  137.2050 C   0  0  0  0  0  2  0  0  0  0  0  0
  189.0920  177.6870  139.4030 C   0  0  0  0  0  3  0  0  0  0  0  0
  192.4000  175.9000  137.6000 N   0  0  0  0  0  0  0  0  0  0  0  0
  193.5430  175.5000  136.8300 C   0  0  0  0  0  0  0  0  0  0  0  0
  191.0820  175.6530  137.0870 C   0  0  0  0  0  3  0  0  0  0  0  0
  194.6810  175.9700  137.0990 O   0  0  0  0  0  1  0  0  0  0  0  0
  190.0070  176.0500  137.7710 C   0  0  0  0  0  0  0  0  0  0  0  0
  193.4110  174.5750  135.8020 O   0  0  0  0  0  0  0  0  0  0  0  0
  191.5170  177.1430  139.4710 C   0  0  0  0  0  3  0  0  0  0  0  0
  190.1390  176.6360  139.1570 C   0  0  0  0  0  0  0  0  0  0  0  0
  192.5700  176.7510  138.7460 C   0  0  0  0  0  3  0  0  0  0  0  0
  187.9150  177.6650  138.7600 C   0  0  0  0  0  0  0  0  0  0  0  0
  187.6680  176.6580  137.6900 C   0  0  0  0  0  3  0  0  0  0  0  0
  1 17  1  0  0  0  0
  2 12  1  0  0  0  0
  3 15  1  0  0  0  0
  4  5  1  0  0  0  0
  5  1  2  0  0  0  0
  6 10  2  0  0  0  0
  7  6  1  0  0  0  0
  8  4  2  0  0  0  0
  8  6  1  0  0  0  0
  9  3  1  0  0  0  0
 10  1  1  0  0  0  0
 10  9  1  0  0  0  0
 11  9  2  0  0  0  0
 13 12  1  0  0  0  0
 13 18  1  0  0  0  0
 14 13  2  0  0  0  0
 15  2  2  0  0  0  0
 16 14  1  0  0  0  0
 17 16  2  0  0  0  0
 17 15  1  0  0  0  0
 18 19  1  0  0  0  0
 20 18  2  0  0  0  0
 21  4  1  0  0  0  0
 22 34  1  0  0  0  0
 22 28  1  0  0  0  0
 24 32  1  0  0  0  0
 25 27  1  0  0  0  0
 25 24  1  0  0  0  0
 26 24  1  0  0  0  0
 26 28  2  0  0  0  0
 28 31  1  0  0  0  0
 29 25  2  0  0  0  0
 31 23  2  0  0  0  0
 31 30  1  0  0  0  0
 32 30  2  0  0  0  0
 33 21  1  0  0  0  0
 33 23  1  0  0  0  0
 34 33  2  0  0  0  0
M  END
>  <MODEL>
9

>  <REMARK>
 VINA RESULT:     -10.8      3.020      8.397
  Name = 
  3 active torsions:
  status: ('A' for Active; 'I' for Inactive)
    1  A    between atoms: C_3  and  C_25
    2  A    between atoms: C_8  and  O_18
    3  A    between atoms: O_18  and  C_30
                            x       y       z     vdW  Elec       q    Type
                         _______ _______ _______ _____ _____    ______ ____

>  <TORSDO>
F 3

$$$$
