=
 OpenBabel11052413283D

 28 32  0  0  1  0  0  0  0  0999 V2000
  187.8310  176.8850  144.2250 C   0  0  0  0  0  0  0  0  0  0  0  0
  184.3730  178.1500  140.3180 C   0  0  0  0  0  3  0  0  0  0  0  0
  185.1930  180.5380  144.9670 C   0  0  0  0  0  1  0  0  0  0  0  0
  182.4050  178.4550  141.7050 C   0  0  0  0  0  0  0  0  0  0  0  0
  184.7040  178.5850  142.7870 C   0  0  2  0  0  3  0  0  0  0  0  0
  182.1690  178.0590  139.3250 C   0  0  0  0  0  0  0  0  0  0  0  0
  183.8070  178.3530  141.5860 C   0  0  0  0  0  0  0  0  0  0  0  0
  182.7420  179.3530  143.9870 C   0  0  0  0  0  2  0  0  0  0  0  0
  181.5940  178.2900  140.5770 C   0  0  0  0  0  3  0  0  0  0  0  0
  186.0790  178.2400  145.2520 C   0  0  0  0  0  0  0  0  0  0  0  0
  185.8200  177.5350  142.8320 C   0  0  0  0  0  2  0  0  0  0  0  0
  181.7590  178.6900  143.0340 C   0  0  0  0  0  2  0  0  0  0  0  0
  187.9640  177.4990  146.5780 C   0  0  0  0  0  3  0  0  0  0  0  0
  184.8240  179.0610  145.1460 C   0  0  2  0  0  3  0  0  0  0  0  0
  186.7660  178.2030  146.4700 C   0  0  0  0  0  3  0  0  0  0  0  0
  181.3580  177.8970  138.2100 O   0  0  0  0  0  1  0  0  0  0  0  0
  183.5560  177.9960  139.1940 C   0  0  0  0  0  3  0  0  0  0  0  0
  183.9630  178.5510  144.0630 N   0  0  2  0  0  0  0  0  0  0  0  0
  188.4890  176.8410  145.4670 C   0  0  0  0  0  3  0  0  0  0  0  0
  186.6060  177.5790  144.1210 C   0  0  0  0  0  0  0  0  0  0  0  0
  188.3850  176.1350  143.0280 C   0  0  1  0  0  3  0  0  0  0  0  0
  189.4700  176.8780  142.2190 C   0  0  2  0  0  3  0  0  0  0  0  0
  189.8480  175.7670  143.1860 C   0  0  0  0  0  2  0  0  0  0  0  0
  191.0110  178.4160  143.5240 C   0  0  0  0  0  0  0  0  0  0  0  0
  189.0950  179.3550  142.2310 C   0  0  0  0  0  1  0  0  0  0  0  0
  189.8110  178.2010  142.7580 N   0  0  0  0  0  0  0  0  0  0  0  0
  191.3050  179.7460  144.1310 C   0  0  0  0  0  1  0  0  0  0  0  0
  191.8390  177.4810  143.6920 O   0  0  0  0  0  0  0  0  0  0  0  0
  1 19  1  0  0  0  0
  2  7  1  0  0  0  0
  4 12  1  0  0  0  0
  5 11  1  1  0  0  0
  5 18  1  0  0  0  0
  6  9  2  0  0  0  0
  7  4  2  0  0  0  0
  7  5  1  0  0  0  0
  9  4  1  0  0  0  0
 10 15  2  0  0  0  0
 11 20  1  0  0  0  0
 12  8  1  0  0  0  0
 14  3  1  6  0  0  0
 14 10  1  0  0  0  0
 15 13  1  0  0  0  0
 16  6  1  0  0  0  0
 17  6  1  0  0  0  0
 17  2  2  0  0  0  0
 18  8  1  6  0  0  0
 18 14  1  0  0  0  0
 19 13  2  0  0  0  0
 20  1  2  0  0  0  0
 20 10  1  0  0  0  0
 21 23  1  0  0  0  0
 21  1  1  1  0  0  0
 22 26  1  1  0  0  0
 22 21  1  0  0  0  0
 22 23  1  0  0  0  0
 24 28  2  0  0  0  0
 24 27  1  0  0  0  0
 25 26  1  0  0  0  0
 26 24  1  0  0  0  0
M  END
>  <MODEL>
1

>  <REMARK>
 VINA RESULT:      -7.4      0.000      0.000
  Name = 
  2 active torsions:
  status: ('A' for Active; 'I' for Inactive)
    1  A    between atoms: C_1  and  C_2
    2  A    between atoms: C_3  and  N_11
                            x       y       z     vdW  Elec       q    Type
                         _______ _______ _______ _____ _____    ______ ____

>  <TORSDO>
F 2

$$$$
=
 OpenBabel11052413283D

 28 32  0  0  1  0  0  0  0  0999 V2000
  187.8640  177.2400  143.7100 C   0  0  0  0  0  0  0  0  0  0  0  0
  184.7190  178.9370  139.7030 C   0  0  0  0  0  3  0  0  0  0  0  0
  184.6510  180.2910  144.8180 C   0  0  0  0  0  1  0  0  0  0  0  0
  182.5830  178.6850  140.8300 C   0  0  0  0  0  0  0  0  0  0  0  0
  184.7020  178.8380  142.2300 C   0  0  2  0  0  3  0  0  0  0  0  0
  182.6770  178.8130  138.4110 C   0  0  0  0  0  0  0  0  0  0  0  0
  183.9900  178.7800  140.8930 C   0  0  0  0  0  0  0  0  0  0  0  0
  182.5260  179.0770  143.2740 C   0  0  0  0  0  2  0  0  0  0  0  0
  181.9380  178.6850  139.5890 C   0  0  0  0  0  3  0  0  0  0  0  0
  185.8270  178.1110  144.7390 C   0  0  0  0  0  0  0  0  0  0  0  0
  185.9480  177.9460  142.2130 C   0  0  0  0  0  2  0  0  0  0  0  0
  181.7650  178.5350  142.0730 C   0  0  0  0  0  2  0  0  0  0  0  0
  187.6390  177.3170  146.1340 C   0  0  0  0  0  3  0  0  0  0  0  0
  184.4850  178.7790  144.6290 C   0  0  2  0  0  3  0  0  0  0  0  0
  186.3700  177.8810  146.0060 C   0  0  0  0  0  3  0  0  0  0  0  0
  182.0290  178.8130  137.1830 O   0  0  0  0  0  1  0  0  0  0  0  0
  184.0650  178.9460  138.4680 C   0  0  0  0  0  3  0  0  0  0  0  0
  183.8360  178.4290  143.3520 N   0  0  2  0  0  0  0  0  0  0  0  0
  188.3770  176.9950  144.9960 C   0  0  0  0  0  3  0  0  0  0  0  0
  186.5690  177.7890  143.5810 C   0  0  0  0  0  0  0  0  0  0  0  0
  188.6520  176.8520  142.4740 C   0  0  1  0  0  3  0  0  0  0  0  0
  190.1800  177.0550  142.5660 C   0  0  2  0  0  3  0  0  0  0  0  0
  189.5720  175.6690  142.7070 C   0  0  0  0  0  2  0  0  0  0  0  0
  191.3730  176.7640  144.7870 C   0  0  0  0  0  0  0  0  0  0  0  0
  190.6110  179.0250  144.0530 C   0  0  0  0  0  1  0  0  0  0  0  0
  190.6320  177.5810  143.8610 N   0  0  0  0  0  0  0  0  0  0  0  0
  191.7570  177.2870  146.1310 C   0  0  0  0  0  1  0  0  0  0  0  0
  191.7130  175.5910  144.4770 O   0  0  0  0  0  0  0  0  0  0  0  0
  1 19  1  0  0  0  0
  2  7  1  0  0  0  0
  4  7  2  0  0  0  0
  4 12  1  0  0  0  0
  5 11  1  6  0  0  0
  5 18  1  0  0  0  0
  6 17  1  0  0  0  0
  6  9  2  0  0  0  0
  7  5  1  0  0  0  0
  9  4  1  0  0  0  0
 10 15  2  0  0  0  0
 11 20  1  0  0  0  0
 12  8  1  0  0  0  0
 14 10  1  0  0  0  0
 14  3  1  6  0  0  0
 15 13  1  0  0  0  0
 16  6  1  0  0  0  0
 17  2  2  0  0  0  0
 18  8  1  6  0  0  0
 18 14  1  0  0  0  0
 19 13  2  0  0  0  0
 20  1  2  0  0  0  0
 20 10  1  0  0  0  0
 21 22  1  0  0  0  0
 21 23  1  0  0  0  0
 21  1  1  1  0  0  0
 22 23  1  0  0  0  0
 22 26  1  1  0  0  0
 24 27  1  0  0  0  0
 26 25  1  0  0  0  0
 26 24  1  0  0  0  0
 28 24  2  0  0  0  0
M  END
>  <MODEL>
2

>  <REMARK>
 VINA RESULT:      -7.0      1.143      1.260
  Name = 
  2 active torsions:
  status: ('A' for Active; 'I' for Inactive)
    1  A    between atoms: C_1  and  C_2
    2  A    between atoms: C_3  and  N_11
                            x       y       z     vdW  Elec       q    Type
                         _______ _______ _______ _____ _____    ______ ____

>  <TORSDO>
F 2

$$$$
=
 OpenBabel11052413283D

 28 32  0  0  1  0  0  0  0  0999 V2000
  189.3420  177.5610  137.4560 C   0  0  0  0  0  0  0  0  0  0  0  0
  186.3870  179.1700  141.6400 C   0  0  0  0  0  3  0  0  0  0  0  0
  191.4850  177.7610  141.4840 C   0  0  0  0  0  1  0  0  0  0  0  0
  187.0460  177.4300  143.1990 C   0  0  0  0  0  0  0  0  0  0  0  0
  188.5350  177.9120  141.1930 C   0  0  2  0  0  3  0  0  0  0  0  0
  185.0130  178.6960  143.5740 C   0  0  0  0  0  0  0  0  0  0  0  0
  187.2770  178.1490  142.0060 C   0  0  0  0  0  0  0  0  0  0  0  0
  189.3560  176.5550  143.0280 C   0  0  0  0  0  2  0  0  0  0  0  0
  185.9060  177.6960  143.9650 C   0  0  0  0  0  3  0  0  0  0  0  0
  190.4680  176.7460  139.4640 C   0  0  0  0  0  0  0  0  0  0  0  0
  188.2030  177.8580  139.6970 C   0  0  0  0  0  2  0  0  0  0  0  0
  187.9780  176.3450  143.6380 C   0  0  0  0  0  2  0  0  0  0  0  0
  191.4660  176.3810  137.2880 C   0  0  0  0  0  3  0  0  0  0  0  0
  190.5720  176.6470  140.9600 C   0  0  2  0  0  3  0  0  0  0  0  0
  191.5100  176.2470  138.6750 C   0  0  0  0  0  3  0  0  0  0  0  0
  183.8850  178.9550  144.3400 O   0  0  0  0  0  1  0  0  0  0  0  0
  185.2570  179.4370  142.4170 C   0  0  0  0  0  3  0  0  0  0  0  0
  189.2320  176.6690  141.5740 N   0  0  2  0  0  0  0  0  0  0  0  0
  190.3890  177.0270  136.6830 C   0  0  0  0  0  3  0  0  0  0  0  0
  189.3750  177.4050  138.8590 C   0  0  0  0  0  0  0  0  0  0  0  0
  188.1520  178.2280  136.7930 C   0  0  1  0  0  3  0  0  0  0  0  0
  187.3160  177.3270  135.8590 C   0  0  2  0  0  3  0  0  0  0  0  0
  186.8230  177.6640  137.2570 C   0  0  0  0  0  2  0  0  0  0  0  0
  187.2730  174.9080  136.6280 C   0  0  0  0  0  0  0  0  0  0  0  0
  188.5830  175.5640  134.6080 C   0  0  0  0  0  1  0  0  0  0  0  0
  187.8030  175.9430  135.7780 N   0  0  0  0  0  0  0  0  0  0  0  0
  187.8320  173.5250  136.5900 C   0  0  0  0  0  1  0  0  0  0  0  0
  186.3240  175.1520  137.4200 O   0  0  0  0  0  0  0  0  0  0  0  0
  1 20  1  0  0  0  0
  2  7  2  0  0  0  0
  2 17  1  0  0  0  0
  4 12  1  0  0  0  0
  4  9  2  0  0  0  0
  5 11  1  6  0  0  0
  5 18  1  0  0  0  0
  5  7  1  0  0  0  0
  6  9  1  0  0  0  0
  6 16  1  0  0  0  0
  7  4  1  0  0  0  0
  8 12  1  0  0  0  0
 10 14  1  0  0  0  0
 13 15  2  0  0  0  0
 14  3  1  1  0  0  0
 14 18  1  0  0  0  0
 15 10  1  0  0  0  0
 17  6  2  0  0  0  0
 18  8  1  1  0  0  0
 19 13  1  0  0  0  0
 19  1  2  0  0  0  0
 20 10  2  0  0  0  0
 20 11  1  0  0  0  0
 21 23  1  0  0  0  0
 21  1  1  1  0  0  0
 22 26  1  1  0  0  0
 22 21  1  0  0  0  0
 22 23  1  0  0  0  0
 24 28  2  0  0  0  0
 25 26  1  0  0  0  0
 26 24  1  0  0  0  0
 27 24  1  0  0  0  0
M  END
>  <MODEL>
3

>  <REMARK>
 VINA RESULT:      -6.6      4.169      7.009
  Name = 
  2 active torsions:
  status: ('A' for Active; 'I' for Inactive)
    1  A    between atoms: C_1  and  C_2
    2  A    between atoms: C_3  and  N_11
                            x       y       z     vdW  Elec       q    Type
                         _______ _______ _______ _____ _____    ______ ____

>  <TORSDO>
F 2

$$$$
=
 OpenBabel11052413283D

 28 32  0  0  1  0  0  0  0  0999 V2000
  184.8030  178.8300  141.1750 C   0  0  0  0  0  0  0  0  0  0  0  0
  189.7630  177.1120  140.0500 C   0  0  0  0  0  3  0  0  0  0  0  0
  186.8200  176.2560  144.3620 C   0  0  0  0  0  1  0  0  0  0  0  0
  190.8030  177.6930  142.1650 C   0  0  0  0  0  0  0  0  0  0  0  0
  188.2720  177.4470  142.0640 C   0  0  2  0  0  3  0  0  0  0  0  0
  192.1690  177.3320  140.1950 C   0  0  0  0  0  0  0  0  0  0  0  0
  189.6380  177.4560  141.4050 C   0  0  0  0  0  0  0  0  0  0  0  0
  189.4080  177.5390  144.2050 C   0  0  0  0  0  2  0  0  0  0  0  0
  192.0590  177.6470  141.5520 C   0  0  0  0  0  3  0  0  0  0  0  0
  185.8550  178.2810  143.3090 C   0  0  0  0  0  0  0  0  0  0  0  0
  187.2540  178.1960  141.1980 C   0  0  0  0  0  2  0  0  0  0  0  0
  190.7170  178.0450  143.6170 C   0  0  0  0  0  2  0  0  0  0  0  0
  183.5450  179.0030  143.2530 C   0  0  0  0  0  3  0  0  0  0  0  0
  187.0190  177.7520  144.1000 C   0  0  2  0  0  3  0  0  0  0  0  0
  184.6580  178.5690  143.9720 C   0  0  0  0  0  3  0  0  0  0  0  0
  193.4190  177.2870  139.5940 O   0  0  0  0  0  1  0  0  0  0  0  0
  191.0230  177.0580  139.4470 C   0  0  0  0  0  3  0  0  0  0  0  0
  188.2890  178.0490  143.4120 N   0  0  2  0  0  0  0  0  0  0  0  0
  183.6190  179.1380  141.8670 C   0  0  0  0  0  3  0  0  0  0  0  0
  185.9370  178.4120  141.9050 C   0  0  0  0  0  0  0  0  0  0  0  0
  184.8920  179.0150  139.6720 C   0  0  1  0  0  3  0  0  0  0  0  0
  183.7440  178.3870  138.8530 C   0  0  2  0  0  3  0  0  0  0  0  0
  183.7790  179.8830  139.1160 C   0  0  0  0  0  2  0  0  0  0  0  0
  181.4350  178.3130  139.9030 C   0  0  0  0  0  0  0  0  0  0  0  0
  182.9160  176.3050  139.9750 C   0  0  0  0  0  1  0  0  0  0  0  0
  182.7260  177.7180  139.6740 N   0  0  0  0  0  0  0  0  0  0  0  0
  180.4400  177.6600  140.8030 C   0  0  0  0  0  1  0  0  0  0  0  0
  181.1210  179.3970  139.3440 O   0  0  0  0  0  0  0  0  0  0  0  0
  1 19  2  0  0  0  0
  1 20  1  0  0  0  0
  2  7  1  0  0  0  0
  4 12  1  0  0  0  0
  5 11  1  6  0  0  0
  5 18  1  0  0  0  0
  6  9  2  0  0  0  0
  7  5  1  0  0  0  0
  7  4  2  0  0  0  0
  9  4  1  0  0  0  0
 10 15  1  0  0  0  0
 10 14  1  0  0  0  0
 11 20  1  0  0  0  0
 12  8  1  0  0  0  0
 13 15  2  0  0  0  0
 14  3  1  6  0  0  0
 16  6  1  0  0  0  0
 17  2  2  0  0  0  0
 17  6  1  0  0  0  0
 18 14  1  0  0  0  0
 18  8  1  1  0  0  0
 19 13  1  0  0  0  0
 20 10  2  0  0  0  0
 21  1  1  1  0  0  0
 22 23  1  0  0  0  0
 22 21  1  0  0  0  0
 22 26  1  1  0  0  0
 23 21  1  0  0  0  0
 24 27  1  0  0  0  0
 26 24  1  0  0  0  0
 26 25  1  0  0  0  0
 28 24  2  0  0  0  0
M  END
>  <MODEL>
4

>  <REMARK>
 VINA RESULT:      -6.2      2.011      7.330
  Name = 
  2 active torsions:
  status: ('A' for Active; 'I' for Inactive)
    1  A    between atoms: C_1  and  C_2
    2  A    between atoms: C_3  and  N_11
                            x       y       z     vdW  Elec       q    Type
                         _______ _______ _______ _____ _____    ______ ____

>  <TORSDO>
F 2

$$$$
=
 OpenBabel11052413283D

 28 32  0  0  1  0  0  0  0  0999 V2000
  187.0510  178.2620  139.0210 C   0  0  0  0  0  0  0  0  0  0  0  0
  187.1240  177.4490  144.3280 C   0  0  0  0  0  3  0  0  0  0  0  0
  183.0400  177.2740  140.9680 C   0  0  0  0  0  1  0  0  0  0  0  0
  185.2270  178.8510  144.9030 C   0  0  0  0  0  0  0  0  0  0  0  0
  185.4640  178.0230  142.5090 C   0  0  2  0  0  3  0  0  0  0  0  0
  186.8480  178.2370  146.5990 C   0  0  0  0  0  0  0  0  0  0  0  0
  185.9690  178.1420  143.9340 C   0  0  0  0  0  0  0  0  0  0  0  0
  183.3770  179.0000  143.2650 C   0  0  0  0  0  2  0  0  0  0  0  0
  185.6810  178.9080  146.2250 C   0  0  0  0  0  3  0  0  0  0  0  0
  184.7710  178.6240  139.8170 C   0  0  0  0  0  0  0  0  0  0  0  0
  186.6110  178.2320  141.5140 C   0  0  0  0  0  2  0  0  0  0  0  0
  183.9800  179.5890  144.5320 C   0  0  0  0  0  2  0  0  0  0  0  0
  185.2580  178.7580  137.4490 C   0  0  0  0  0  3  0  0  0  0  0  0
  183.7530  178.6290  140.9230 C   0  0  2  0  0  3  0  0  0  0  0  0
  184.3430  178.8190  138.5000 C   0  0  0  0  0  3  0  0  0  0  0  0
  187.2910  178.2980  147.9130 O   0  0  0  0  0  1  0  0  0  0  0  0
  187.5640  177.5030  145.6530 C   0  0  0  0  0  3  0  0  0  0  0  0
  184.3870  178.9860  142.2060 N   0  0  2  0  0  0  0  0  0  0  0  0
  186.6010  178.4880  137.7090 C   0  0  0  0  0  3  0  0  0  0  0  0
  186.1290  178.3470  140.0870 C   0  0  0  0  0  0  0  0  0  0  0  0
  188.5190  178.0080  139.3040 C   0  0  1  0  0  3  0  0  0  0  0  0
  189.2220  177.0210  138.3470 C   0  0  2  0  0  3  0  0  0  0  0  0
  189.4310  178.5200  138.2050 C   0  0  0  0  0  2  0  0  0  0  0  0
  188.5040  176.8980  135.9160 C   0  0  0  0  0  0  0  0  0  0  0  0
  187.5450  175.3190  137.5940 C   0  0  0  0  0  1  0  0  0  0  0  0
  188.3480  176.4960  137.2900 N   0  0  0  0  0  0  0  0  0  0  0  0
  187.5590  176.4180  134.8660 C   0  0  0  0  0  1  0  0  0  0  0  0
  189.4440  177.6640  135.5750 O   0  0  0  0  0  0  0  0  0  0  0  0
  1 20  1  0  0  0  0
  2 17  1  0  0  0  0
  4  9  2  0  0  0  0
  5 11  1  6  0  0  0
  5  7  1  0  0  0  0
  6 16  1  0  0  0  0
  7  2  2  0  0  0  0
  7  4  1  0  0  0  0
  8 12  1  0  0  0  0
  9  6  1  0  0  0  0
 10 20  2  0  0  0  0
 10 14  1  0  0  0  0
 12  4  1  0  0  0  0
 13 19  1  0  0  0  0
 13 15  2  0  0  0  0
 14  3  1  1  0  0  0
 14 18  1  0  0  0  0
 15 10  1  0  0  0  0
 17  6  2  0  0  0  0
 18  5  1  0  0  0  0
 18  8  1  1  0  0  0
 19  1  2  0  0  0  0
 20 11  1  0  0  0  0
 21  1  1  6  0  0  0
 22 26  1  6  0  0  0
 22 21  1  0  0  0  0
 23 22  1  0  0  0  0
 23 21  1  0  0  0  0
 24 26  1  0  0  0  0
 26 25  1  0  0  0  0
 27 24  1  0  0  0  0
 28 24  2  0  0  0  0
M  END
>  <MODEL>
5

>  <REMARK>
 VINA RESULT:      -6.1      3.467      6.344
  Name = 
  2 active torsions:
  status: ('A' for Active; 'I' for Inactive)
    1  A    between atoms: C_1  and  C_2
    2  A    between atoms: C_3  and  N_11
                            x       y       z     vdW  Elec       q    Type
                         _______ _______ _______ _____ _____    ______ ____

>  <TORSDO>
F 2

$$$$
=
 OpenBabel11052413283D

 28 32  0  0  1  0  0  0  0  0999 V2000
  181.3720  176.8020  139.2520 C   0  0  0  0  0  0  0  0  0  0  0  0
  183.1490  178.6370  143.9750 C   0  0  0  0  0  3  0  0  0  0  0  0
  184.5460  180.0810  139.0800 C   0  0  0  0  0  1  0  0  0  0  0  0
  185.5260  178.5500  143.4910 C   0  0  0  0  0  0  0  0  0  0  0  0
  183.8760  178.5830  141.5540 C   0  0  2  0  0  3  0  0  0  0  0  0
  184.7520  178.6280  145.7870 C   0  0  0  0  0  0  0  0  0  0  0  0
  184.1890  178.5500  143.0370 C   0  0  0  0  0  0  0  0  0  0  0  0
  186.2350  178.9870  141.1590 C   0  0  0  0  0  2  0  0  0  0  0  0
  185.7980  178.5710  144.8620 C   0  0  0  0  0  3  0  0  0  0  0  0
  183.5490  177.8250  138.8320 C   0  0  0  0  0  0  0  0  0  0  0  0
  182.7400  177.6090  141.2240 C   0  0  0  0  0  2  0  0  0  0  0  0
  186.6670  178.4760  142.5250 C   0  0  0  0  0  2  0  0  0  0  0  0
  182.2580  176.9360  136.9870 C   0  0  0  0  0  3  0  0  0  0  0  0
  184.7570  178.5810  139.3110 C   0  0  2  0  0  3  0  0  0  0  0  0
  183.3980  177.5810  137.4640 C   0  0  0  0  0  3  0  0  0  0  0  0
  185.0300  178.6510  147.1460 O   0  0  0  0  0  1  0  0  0  0  0  0
  183.4300  178.6690  145.3440 C   0  0  0  0  0  3  0  0  0  0  0  0
  185.0470  178.2530  140.7190 N   0  0  2  0  0  0  0  0  0  0  0  0
  181.2560  176.5450  137.8750 C   0  0  0  0  0  3  0  0  0  0  0  0
  182.5380  177.4350  139.7370 C   0  0  0  0  0  0  0  0  0  0  0  0
  180.2990  176.3400  140.2200 C   0  0  1  0  0  3  0  0  0  0  0  0
  179.1560  177.3450  140.4800 C   0  0  2  0  0  3  0  0  0  0  0  0
  178.9470  176.1550  139.5590 C   0  0  0  0  0  2  0  0  0  0  0  0
  179.9150  179.7600  140.2910 C   0  0  0  0  0  0  0  0  0  0  0  0
  179.0660  178.5460  138.2820 C   0  0  0  0  0  1  0  0  0  0  0  0
  179.2840  178.5970  139.7220 N   0  0  0  0  0  0  0  0  0  0  0  0
  179.9680  181.0480  139.5390 C   0  0  0  0  0  1  0  0  0  0  0  0
  180.4380  179.7100  141.4360 O   0  0  0  0  0  0  0  0  0  0  0  0
  1 20  1  0  0  0  0
  2 17  1  0  0  0  0
  4  9  2  0  0  0  0
  5 11  1  1  0  0  0
  5  7  1  0  0  0  0
  6 16  1  0  0  0  0
  7  4  1  0  0  0  0
  7  2  2  0  0  0  0
  8 12  1  0  0  0  0
  9  6  1  0  0  0  0
 10 14  1  0  0  0  0
 10 20  2  0  0  0  0
 12  4  1  0  0  0  0
 13 15  2  0  0  0  0
 13 19  1  0  0  0  0
 14  3  1  1  0  0  0
 14 18  1  0  0  0  0
 15 10  1  0  0  0  0
 17  6  2  0  0  0  0
 18  8  1  1  0  0  0
 18  5  1  0  0  0  0
 19  1  2  0  0  0  0
 20 11  1  0  0  0  0
 21  1  1  6  0  0  0
 21 22  1  0  0  0  0
 22 26  1  6  0  0  0
 23 21  1  0  0  0  0
 23 22  1  0  0  0  0
 24 28  2  0  0  0  0
 25 26  1  0  0  0  0
 26 24  1  0  0  0  0
 27 24  1  0  0  0  0
M  END
>  <MODEL>
6

>  <REMARK>
 VINA RESULT:      -6.1      2.994      8.118
  Name = 
  2 active torsions:
  status: ('A' for Active; 'I' for Inactive)
    1  A    between atoms: C_1  and  C_2
    2  A    between atoms: C_3  and  N_11
                            x       y       z     vdW  Elec       q    Type
                         _______ _______ _______ _____ _____    ______ ____

>  <TORSDO>
F 2

$$$$
=
 OpenBabel11052413283D

 28 32  0  0  1  0  0  0  0  0999 V2000
  183.8130  177.6380  137.2790 C   0  0  0  0  0  0  0  0  0  0  0  0
  184.8540  177.8780  142.5410 C   0  0  0  0  0  3  0  0  0  0  0  0
  180.4480  176.3110  140.0660 C   0  0  0  0  0  1  0  0  0  0  0  0
  182.8080  178.9860  143.2330 C   0  0  0  0  0  0  0  0  0  0  0  0
  182.8560  177.7770  140.9950 C   0  0  2  0  0  3  0  0  0  0  0  0
  184.7580  179.0190  144.6730 C   0  0  0  0  0  0  0  0  0  0  0  0
  183.5310  178.2570  142.2650 C   0  0  0  0  0  0  0  0  0  0  0  0
  180.7450  178.4750  141.9630 C   0  0  0  0  0  2  0  0  0  0  0  0
  183.4310  179.3780  144.4220 C   0  0  0  0  0  3  0  0  0  0  0  0
  181.6540  177.7140  138.4180 C   0  0  0  0  0  0  0  0  0  0  0  0
  183.7690  178.0020  139.7840 C   0  0  0  0  0  2  0  0  0  0  0  0
  181.3900  179.3960  142.9880 C   0  0  0  0  0  2  0  0  0  0  0  0
  181.7410  177.4840  136.0090 C   0  0  0  0  0  3  0  0  0  0  0  0
  180.8370  177.7410  139.6790 C   0  0  2  0  0  3  0  0  0  0  0  0
  181.0030  177.5720  137.1890 C   0  0  0  0  0  3  0  0  0  0  0  0
  185.3690  179.4090  145.8560 O   0  0  0  0  0  1  0  0  0  0  0  0
  185.4660  178.2640  143.7370 C   0  0  0  0  0  3  0  0  0  0  0  0
  181.5640  178.4470  140.7510 N   0  0  2  0  0  0  0  0  0  0  0  0
  183.1340  177.5220  136.0540 C   0  0  0  0  0  3  0  0  0  0  0  0
  183.0650  177.7510  138.4720 C   0  0  0  0  0  0  0  0  0  0  0  0
  185.3280  177.7200  137.3210 C   0  0  1  0  0  3  0  0  0  0  0  0
  186.0750  176.3980  137.0420 C   0  0  2  0  0  3  0  0  0  0  0  0
  185.9700  177.4710  135.9700 C   0  0  0  0  0  2  0  0  0  0  0  0
  185.2030  174.5960  135.4810 C   0  0  0  0  0  0  0  0  0  0  0  0
  184.5320  174.6130  137.8840 C   0  0  0  0  0  1  0  0  0  0  0  0
  185.1870  175.2630  136.7570 N   0  0  0  0  0  0  0  0  0  0  0  0
  184.2410  173.4970  135.1790 C   0  0  0  0  0  1  0  0  0  0  0  0
  186.0340  174.9300  134.5950 O   0  0  0  0  0  0  0  0  0  0  0  0
  1 20  1  0  0  0  0
  2 17  1  0  0  0  0
  4  9  2  0  0  0  0
  5 11  1  6  0  0  0
  5  7  1  0  0  0  0
  6 16  1  0  0  0  0
  7  2  2  0  0  0  0
  7  4  1  0  0  0  0
  8 12  1  0  0  0  0
  9  6  1  0  0  0  0
 10 20  2  0  0  0  0
 10 14  1  0  0  0  0
 12  4  1  0  0  0  0
 13 19  1  0  0  0  0
 13 15  2  0  0  0  0
 14  3  1  1  0  0  0
 14 18  1  0  0  0  0
 15 10  1  0  0  0  0
 17  6  2  0  0  0  0
 18  5  1  0  0  0  0
 18  8  1  1  0  0  0
 19  1  2  0  0  0  0
 20 11  1  0  0  0  0
 21  1  1  6  0  0  0
 22 26  1  6  0  0  0
 22 21  1  0  0  0  0
 23 22  1  0  0  0  0
 23 21  1  0  0  0  0
 24 26  1  0  0  0  0
 26 25  1  0  0  0  0
 27 24  1  0  0  0  0
 28 24  2  0  0  0  0
M  END
>  <MODEL>
7

>  <REMARK>
 VINA RESULT:      -5.9      3.689      7.499
  Name = 
  2 active torsions:
  status: ('A' for Active; 'I' for Inactive)
    1  A    between atoms: C_1  and  C_2
    2  A    between atoms: C_3  and  N_11
                            x       y       z     vdW  Elec       q    Type
                         _______ _______ _______ _____ _____    ______ ____

>  <TORSDO>
F 2

$$$$
=
 OpenBabel11052413283D

 28 32  0  0  1  0  0  0  0  0999 V2000
  186.4120  177.9630  137.0630 C   0  0  0  0  0  0  0  0  0  0  0  0
  185.0090  178.0380  142.2440 C   0  0  0  0  0  3  0  0  0  0  0  0
  182.6490  175.6250  138.1700 C   0  0  0  0  0  1  0  0  0  0  0  0
  182.6540  178.5450  141.9420 C   0  0  0  0  0  0  0  0  0  0  0  0
  183.9620  177.5660  139.9920 C   0  0  2  0  0  3  0  0  0  0  0  0
  183.7220  178.9480  144.0800 C   0  0  0  0  0  0  0  0  0  0  0  0
  183.8820  178.0970  141.4090 C   0  0  0  0  0  0  0  0  0  0  0  0
  181.5390  177.6390  139.9260 C   0  0  0  0  0  2  0  0  0  0  0  0
  182.5860  178.9840  143.2680 C   0  0  0  0  0  3  0  0  0  0  0  0
  184.0360  177.4100  137.1530 C   0  0  0  0  0  0  0  0  0  0  0  0
  185.2120  178.1060  139.2870 C   0  0  0  0  0  2  0  0  0  0  0  0
  181.4230  178.6070  141.0930 C   0  0  0  0  0  2  0  0  0  0  0  0
  185.1970  177.3990  135.0290 C   0  0  0  0  0  3  0  0  0  0  0  0
  182.7820  177.1330  137.9350 C   0  0  2  0  0  3  0  0  0  0  0  0
  184.0310  177.2080  135.7690 C   0  0  0  0  0  3  0  0  0  0  0  0
  183.6470  179.3840  145.3960 O   0  0  0  0  0  1  0  0  0  0  0  0
  184.9300  178.4690  143.5720 C   0  0  0  0  0  3  0  0  0  0  0  0
  182.7730  177.9110  139.1880 N   0  0  2  0  0  0  0  0  0  0  0  0
  186.3760  177.7790  135.6690 C   0  0  0  0  0  3  0  0  0  0  0  0
  185.2260  177.7920  137.8090 C   0  0  0  0  0  0  0  0  0  0  0  0
  187.6860  178.4150  137.7510 C   0  0  1  0  0  3  0  0  0  0  0  0
  188.8860  177.4510  137.6350 C   0  0  2  0  0  3  0  0  0  0  0  0
  188.8130  178.7050  136.7790 C   0  0  0  0  0  2  0  0  0  0  0  0
  189.2860  175.9750  135.6090 C   0  0  0  0  0  0  0  0  0  0  0  0
  187.8690  175.1650  137.4970 C   0  0  0  0  0  1  0  0  0  0  0  0
  188.6020  176.2430  136.8470 N   0  0  0  0  0  0  0  0  0  0  0  0
  188.9310  174.7850  134.7810 C   0  0  0  0  0  1  0  0  0  0  0  0
  190.2000  176.7410  135.2020 O   0  0  0  0  0  0  0  0  0  0  0  0
  1 20  1  0  0  0  0
  2 17  1  0  0  0  0
  4  9  2  0  0  0  0
  5 11  1  6  0  0  0
  5  7  1  0  0  0  0
  6 16  1  0  0  0  0
  7  4  1  0  0  0  0
  7  2  2  0  0  0  0
  8 12  1  0  0  0  0
  9  6  1  0  0  0  0
 10 20  2  0  0  0  0
 10 14  1  0  0  0  0
 12  4  1  0  0  0  0
 13 19  1  0  0  0  0
 13 15  2  0  0  0  0
 14  3  1  1  0  0  0
 14 18  1  0  0  0  0
 15 10  1  0  0  0  0
 17  6  2  0  0  0  0
 18  8  1  1  0  0  0
 18  5  1  0  0  0  0
 19  1  2  0  0  0  0
 20 11  1  0  0  0  0
 21  1  1  6  0  0  0
 22 26  1  6  0  0  0
 22 21  1  0  0  0  0
 23 22  1  0  0  0  0
 23 21  1  0  0  0  0
 24 26  1  0  0  0  0
 26 25  1  0  0  0  0
 27 24  1  0  0  0  0
 28 24  2  0  0  0  0
M  END
>  <MODEL>
8

>  <REMARK>
 VINA RESULT:      -5.9      4.200      6.849
  Name = 
  2 active torsions:
  status: ('A' for Active; 'I' for Inactive)
    1  A    between atoms: C_1  and  C_2
    2  A    between atoms: C_3  and  N_11
                            x       y       z     vdW  Elec       q    Type
                         _______ _______ _______ _____ _____    ______ ____

>  <TORSDO>
F 2

$$$$
=
 OpenBabel11052413283D

 28 32  0  0  1  0  0  0  0  0999 V2000
  189.0650  176.8500  143.3990 C   0  0  0  0  0  0  0  0  0  0  0  0
  188.6630  178.3360  138.2550 C   0  0  0  0  0  3  0  0  0  0  0  0
  185.9880  180.0940  142.4680 C   0  0  0  0  0  1  0  0  0  0  0  0
  186.2440  178.2530  138.0750 C   0  0  0  0  0  0  0  0  0  0  0  0
  187.3000  178.4390  140.3820 C   0  0  2  0  0  3  0  0  0  0  0  0
  187.6170  178.1840  136.0790 C   0  0  0  0  0  0  0  0  0  0  0  0
  187.4040  178.3010  138.8760 C   0  0  0  0  0  0  0  0  0  0  0  0
  184.9260  178.8390  140.0880 C   0  0  0  0  0  2  0  0  0  0  0  0
  186.3570  178.1770  136.6830 C   0  0  0  0  0  3  0  0  0  0  0  0
  186.8640  177.8730  143.1350 C   0  0  0  0  0  0  0  0  0  0  0  0
  188.2950  177.5030  141.0780 C   0  0  0  0  0  2  0  0  0  0  0  0
  184.8810  178.2320  138.6940 C   0  0  0  0  0  2  0  0  0  0  0  0
  187.5940  177.1280  145.3200 C   0  0  0  0  0  3  0  0  0  0  0  0
  185.8380  178.5790  142.2930 C   0  0  2  0  0  3  0  0  0  0  0  0
  186.6320  177.7250  144.5060 C   0  0  0  0  0  3  0  0  0  0  0  0
  187.7220  178.1100  134.6970 O   0  0  0  0  0  1  0  0  0  0  0  0
  188.7680  178.2700  136.8630 C   0  0  0  0  0  3  0  0  0  0  0  0
  185.9420  178.1520  140.8860 N   0  0  2  0  0  0  0  0  0  0  0  0
  188.7980  176.6890  144.7700 C   0  0  0  0  0  3  0  0  0  0  0  0
  188.0810  177.4340  142.5710 C   0  0  0  0  0  0  0  0  0  0  0  0
  190.3590  176.3360  142.7960 C   0  0  1  0  0  3  0  0  0  0  0  0
  191.6390  176.6400  143.6050 C   0  0  2  0  0  3  0  0  0  0  0  0
  191.0130  175.2550  143.6350 C   0  0  0  0  0  2  0  0  0  0  0  0
  191.5930  176.7530  146.1400 C   0  0  0  0  0  0  0  0  0  0  0  0
  191.2610  178.8200  144.7810 C   0  0  0  0  0  1  0  0  0  0  0  0
  191.3910  177.3710  144.8550 N   0  0  0  0  0  0  0  0  0  0  0  0
  191.2620  177.4810  147.4000 C   0  0  0  0  0  1  0  0  0  0  0  0
  192.0550  175.5840  146.2240 O   0  0  0  0  0  0  0  0  0  0  0  0
  1 19  1  0  0  0  0
  2  7  1  0  0  0  0
  4 12  1  0  0  0  0
  4  7  2  0  0  0  0
  5 18  1  0  0  0  0
  5 11  1  1  0  0  0
  6  9  2  0  0  0  0
  6 17  1  0  0  0  0
  7  5  1  0  0  0  0
  9  4  1  0  0  0  0
 10 15  2  0  0  0  0
 11 20  1  0  0  0  0
 12  8  1  0  0  0  0
 14  3  1  6  0  0  0
 14 10  1  0  0  0  0
 15 13  1  0  0  0  0
 16  6  1  0  0  0  0
 17  2  2  0  0  0  0
 18  8  1  6  0  0  0
 18 14  1  0  0  0  0
 19 13  2  0  0  0  0
 20 10  1  0  0  0  0
 20  1  2  0  0  0  0
 21  1  1  1  0  0  0
 21 22  1  0  0  0  0
 21 23  1  0  0  0  0
 22 23  1  0  0  0  0
 22 26  1  1  0  0  0
 24 28  2  0  0  0  0
 24 27  1  0  0  0  0
 25 26  1  0  0  0  0
 26 24  1  0  0  0  0
M  END
>  <MODEL>
9

>  <REMARK>
 VINA RESULT:      -5.5      2.962      3.882
  Name = 
  2 active torsions:
  status: ('A' for Active; 'I' for Inactive)
    1  A    between atoms: C_1  and  C_2
    2  A    between atoms: C_3  and  N_11
                            x       y       z     vdW  Elec       q    Type
                         _______ _______ _______ _____ _____    ______ ____

>  <TORSDO>
F 2

$$$$
