=
 OpenBabel11052414163D

 34 39  0  0  1  0  0  0  0  0999 V2000
  190.6550  177.3510  139.0380 C   0  0  0  0  0  0  0  0  0  0  0  0
  188.3150  176.8820  138.2880 C   0  0  0  0  0  0  0  0  0  0  0  0
  188.7720  177.6310  140.6950 C   0  0  0  0  0  0  0  0  0  0  0  0
  187.2620  177.9890  142.5770 C   0  0  1  0  0  3  0  0  0  0  0  0
  190.1930  176.4020  136.8250 C   0  0  0  0  0  3  0  0  0  0  0  0
  188.8730  176.4230  137.0080 C   0  0  0  0  0  3  0  0  0  0  0  0
  186.6080  178.6930  140.3140 N   0  0  0  0  0  0  0  0  0  0  0  0
  189.1880  177.6950  139.2290 C   0  0  1  0  0  3  0  0  0  0  0  0
  184.3550  179.4430  140.3470 N   0  0  0  0  0  2  0  0  0  0  0  0
  185.4650  178.2870  142.6620 S   0  0  0  0  0  0  0  0  0  0  0  0
  191.1090  176.7880  137.9120 C   0  0  0  0  0  3  0  0  0  0  0  0
  189.7300  177.1870  141.7880 C   0  0  1  0  0  3  0  0  0  0  0  0
  191.7690  177.5380  140.4170 S   0  0  0  0  0  0  0  0  0  0  0  0
  187.1040  176.6520  138.5430 O   0  0  0  0  0  0  0  0  0  0  0  0
  187.5790  176.6850  143.0180 O   0  0  0  0  0  0  0  0  0  0  0  0
  188.9870  176.4570  142.9380 C   0  0  2  0  0  3  0  0  0  0  0  0
  185.5030  178.8570  140.9600 C   0  0  0  0  0  0  0  0  0  0  0  0
  187.6110  178.1220  141.1350 C   0  0  0  0  0  0  0  0  0  0  0  0
  190.8040  176.4250  141.3080 O   0  0  0  0  0  0  0  0  0  0  0  0
  189.4870  177.2880  146.6000 C   0  0  0  0  0  0  0  0  0  0  0  0
  190.8660  177.1040  146.7460 C   0  0  0  0  0  3  0  0  0  0  0  0
  189.6530  176.6830  144.2580 C   0  0  0  0  0  0  0  0  0  0  0  0
  191.6400  176.7090  145.6520 C   0  0  0  0  0  3  0  0  0  0  0  0
  188.8820  177.0780  145.3560 C   0  0  0  0  0  3  0  0  0  0  0  0
  191.0350  176.4990  144.4080 C   0  0  0  0  0  3  0  0  0  0  0  0
  188.7200  177.6790  147.6880 O   0  0  0  0  0  1  0  0  0  0  0  0
  184.3640  179.8960  138.9640 C   0  0  0  0  0  2  0  0  0  0  0  0
  182.1000  181.6370  138.5870 F   0  0  0  0  0  0  0  0  0  0  0  0
  183.0760  179.4790  138.2720 C   0  0  2  0  0  3  0  0  0  0  0  0
  181.8980  180.2880  138.8230 C   0  0  2  0  0  3  0  0  0  0  0  0
  180.3870  178.4770  138.5230 C   0  0  0  0  0  2  0  0  0  0  0  0
  181.4730  177.5790  137.9370 C   0  0  0  0  0  2  0  0  0  0  0  0
  182.8270  177.9890  138.5060 C   0  0  0  0  0  2  0  0  0  0  0  0
  180.6550  179.8720  138.1750 N   0  0  0  0  0  2  0  0  0  0  0  0
  1  8  1  0  0  0  0
  1 13  1  0  0  0  0
  2 14  2  0  0  0  0
  3 18  2  0  0  0  0
  4 18  1  6  0  0  0
  4 10  1  0  0  0  0
  4 15  1  0  0  0  0
  5  6  2  0  0  0  0
  5 11  1  0  0  0  0
  6  2  1  0  0  0  0
  7 17  2  0  0  0  0
  7 18  1  0  0  0  0
  8  2  1  6  0  0  0
  8  3  1  0  0  0  0
  9 17  1  0  0  0  0
 11  1  2  0  0  0  0
 12  3  1  6  0  0  0
 12 16  1  0  0  0  0
 13 19  1  0  0  0  0
 16 15  1  0  0  0  0
 16 22  1  1  0  0  0
 17 10  1  0  0  0  0
 19 12  1  0  0  0  0
 20 21  1  0  0  0  0
 20 26  1  0  0  0  0
 22 25  2  0  0  0  0
 22 24  1  0  0  0  0
 23 21  2  0  0  0  0
 24 20  2  0  0  0  0
 25 23  1  0  0  0  0
 27  9  1  0  0  0  0
 29 33  1  0  0  0  0
 29 30  1  0  0  0  0
 29 27  1  1  0  0  0
 30 28  1  6  0  0  0
 32 33  1  0  0  0  0
 32 31  1  0  0  0  0
 34 31  1  0  0  0  0
 34 30  1  0  0  0  0
M  END
>  <MODEL>
1

>  <REMARK>
 VINA RESULT:      -9.0      0.000      0.000
  Name = 
  3 active torsions:
  status: ('A' for Active; 'I' for Inactive)
    1  A    between atoms: C_3  and  C_13
    2  A    between atoms: C_3  and  N_17
    3  A    between atoms: C_12  and  C_28
                            x       y       z     vdW  Elec       q    Type
                         _______ _______ _______ _____ _____    ______ ____

>  <TORSDO>
F 3

$$$$
=
 OpenBabel11052414163D

 34 39  0  0  1  0  0  0  0  0999 V2000
  191.3880  177.8600  141.3890 C   0  0  0  0  0  0  0  0  0  0  0  0
  189.8340  176.9450  139.6550 C   0  0  0  0  0  0  0  0  0  0  0  0
  188.9040  177.9280  141.8300 C   0  0  0  0  0  0  0  0  0  0  0  0
  186.6130  178.1530  142.6380 C   0  0  1  0  0  3  0  0  0  0  0  0
  192.2360  176.6930  139.4070 C   0  0  0  0  0  3  0  0  0  0  0  0
  191.0170  176.5000  138.9050 C   0  0  0  0  0  3  0  0  0  0  0  0
  187.1390  178.5730  140.2740 N   0  0  0  0  0  0  0  0  0  0  0  0
  190.0030  177.9600  140.7740 C   0  0  1  0  0  3  0  0  0  0  0  0
  185.1210  178.9260  139.0730 N   0  0  0  0  0  2  0  0  0  0  0  0
  185.0070  178.1420  141.7750 S   0  0  0  0  0  0  0  0  0  0  0  0
  192.4150  177.3060  140.7340 C   0  0  0  0  0  3  0  0  0  0  0  0
  189.2080  177.7330  143.3060 C   0  0  1  0  0  3  0  0  0  0  0  0
  191.6070  178.3320  143.0940 S   0  0  0  0  0  0  0  0  0  0  0  0
  188.6980  176.5280  139.3060 O   0  0  0  0  0  0  0  0  0  0  0  0
  186.8030  176.9570  143.3660 O   0  0  0  0  0  0  0  0  0  0  0  0
  188.0680  176.9690  144.0300 C   0  0  2  0  0  3  0  0  0  0  0  0
  185.8490  178.5900  140.2530 C   0  0  0  0  0  0  0  0  0  0  0  0
  187.6340  178.2420  141.5580 C   0  0  0  0  0  0  0  0  0  0  0  0
  190.4540  177.1350  143.5410 O   0  0  0  0  0  0  0  0  0  0  0  0
  186.6460  178.5090  147.1850 C   0  0  0  0  0  0  0  0  0  0  0  0
  187.6400  178.2060  148.1210 C   0  0  0  0  0  3  0  0  0  0  0  0
  187.9320  177.3980  145.4560 C   0  0  0  0  0  0  0  0  0  0  0  0
  188.7790  177.4990  147.7280 C   0  0  0  0  0  3  0  0  0  0  0  0
  186.7920  178.1050  145.8540 C   0  0  0  0  0  3  0  0  0  0  0  0
  188.9260  177.0950  146.3970 C   0  0  0  0  0  3  0  0  0  0  0  0
  185.5140  179.2100  147.5760 O   0  0  0  0  0  1  0  0  0  0  0  0
  185.7870  179.2760  137.8270 C   0  0  0  0  0  2  0  0  0  0  0  0
  188.6250  179.0870  137.3760 F   0  0  0  0  0  0  0  0  0  0  0  0
  186.4750  178.0530  137.2440 C   0  0  2  0  0  3  0  0  0  0  0  0
  187.7470  178.4710  136.5000 C   0  0  2  0  0  3  0  0  0  0  0  0
  187.5120  176.7190  134.9100 C   0  0  0  0  0  2  0  0  0  0  0  0
  186.2440  176.1930  135.5770 C   0  0  0  0  0  2  0  0  0  0  0  0
  185.5290  177.3420  136.2760 C   0  0  0  0  0  2  0  0  0  0  0  0
  188.3990  177.2990  135.9180 N   0  0  0  0  0  2  0  0  0  0  0  0
  1 13  1  0  0  0  0
  4 18  1  6  0  0  0
  4 15  1  0  0  0  0
  5 11  1  0  0  0  0
  6  5  2  0  0  0  0
  6  2  1  0  0  0  0
  7 18  1  0  0  0  0
  8  2  1  6  0  0  0
  8  1  1  0  0  0  0
  8  3  1  0  0  0  0
  9 17  1  0  0  0  0
 10  4  1  0  0  0  0
 11  1  2  0  0  0  0
 12  3  1  6  0  0  0
 12 19  1  0  0  0  0
 12 16  1  0  0  0  0
 13 19  1  0  0  0  0
 14  2  2  0  0  0  0
 15 16  1  0  0  0  0
 16 22  1  1  0  0  0
 17  7  2  0  0  0  0
 17 10  1  0  0  0  0
 18  3  2  0  0  0  0
 20 26  1  0  0  0  0
 20 21  1  0  0  0  0
 22 24  1  0  0  0  0
 22 25  2  0  0  0  0
 23 21  2  0  0  0  0
 24 20  2  0  0  0  0
 25 23  1  0  0  0  0
 27  9  1  0  0  0  0
 29 27  1  6  0  0  0
 30 29  1  0  0  0  0
 30 28  1  1  0  0  0
 31 32  1  0  0  0  0
 31 34  1  0  0  0  0
 32 33  1  0  0  0  0
 33 29  1  0  0  0  0
 34 30  1  0  0  0  0
M  END
>  <MODEL>
2

>  <REMARK>
 VINA RESULT:      -9.0      2.658      3.571
  Name = 
  3 active torsions:
  status: ('A' for Active; 'I' for Inactive)
    1  A    between atoms: C_3  and  C_13
    2  A    between atoms: C_3  and  N_17
    3  A    between atoms: C_12  and  C_28
                            x       y       z     vdW  Elec       q    Type
                         _______ _______ _______ _____ _____    ______ ____

>  <TORSDO>
F 3

$$$$
=
 OpenBabel11052414163D

 34 39  0  0  1  0  0  0  0  0999 V2000
  190.6090  177.2240  146.7330 C   0  0  0  0  0  0  0  0  0  0  0  0
  191.7030  175.8090  144.9840 C   0  0  0  0  0  0  0  0  0  0  0  0
  189.7280  177.3200  144.3690 C   0  0  0  0  0  0  0  0  0  0  0  0
  188.5810  177.6750  142.2460 C   0  0  1  0  0  3  0  0  0  0  0  0
  192.3370  175.5860  147.3180 C   0  0  0  0  0  3  0  0  0  0  0  0
  192.5240  175.2180  146.0510 C   0  0  0  0  0  3  0  0  0  0  0  0
  191.0270  177.4460  142.3080 N   0  0  0  0  0  0  0  0  0  0  0  0
  190.9480  177.0990  145.2580 C   0  0  1  0  0  3  0  0  0  0  0  0
  191.8650  177.3790  140.0870 N   0  0  0  0  0  2  0  0  0  0  0  0
  189.0830  177.3680  140.5200 S   0  0  0  0  0  0  0  0  0  0  0  0
  191.2790  176.5480  147.6730 C   0  0  0  0  0  3  0  0  0  0  0  0
  188.3410  177.5510  144.9450 C   0  0  1  0  0  3  0  0  0  0  0  0
  189.1640  178.1550  147.2070 S   0  0  0  0  0  0  0  0  0  0  0  0
  191.7040  175.2710  143.8460 O   0  0  0  0  0  0  0  0  0  0  0  0
  187.6140  176.7340  142.6660 O   0  0  0  0  0  0  0  0  0  0  0  0
  187.2350  176.9750  144.0220 C   0  0  2  0  0  3  0  0  0  0  0  0
  190.8020  177.4090  141.0380 C   0  0  0  0  0  0  0  0  0  0  0  0
  189.8230  177.5000  143.0490 C   0  0  0  0  0  0  0  0  0  0  0  0
  188.2020  177.0870  146.2600 O   0  0  0  0  0  0  0  0  0  0  0  0
  184.0200  178.7020  143.0080 C   0  0  0  0  0  0  0  0  0  0  0  0
  183.6040  179.2610  144.2200 C   0  0  0  0  0  3  0  0  0  0  0  0
  185.9750  177.7770  144.1020 C   0  0  0  0  0  0  0  0  0  0  0  0
  184.3700  179.0790  145.3750 C   0  0  0  0  0  3  0  0  0  0  0  0
  185.2040  177.9610  142.9500 C   0  0  0  0  0  3  0  0  0  0  0  0
  185.5540  178.3370  145.3170 C   0  0  0  0  0  3  0  0  0  0  0  0
  183.2580  178.8840  141.8620 O   0  0  0  0  0  1  0  0  0  0  0  0
  193.2630  177.3950  140.4890 C   0  0  0  0  0  2  0  0  0  0  0  0
  192.4890  177.1040  137.7310 F   0  0  0  0  0  0  0  0  0  0  0  0
  194.1170  176.7100  139.4340 C   0  0  2  0  0  3  0  0  0  0  0  0
  193.2230  176.1050  138.3470 C   0  0  2  0  0  3  0  0  0  0  0  0
  194.7250  174.3000  137.9780 C   0  0  0  0  0  2  0  0  0  0  0  0
  195.7080  174.8150  139.0250 C   0  0  0  0  0  2  0  0  0  0  0  0
  194.9490  175.6040  140.0850 C   0  0  0  0  0  2  0  0  0  0  0  0
  194.0400  175.4250  137.3430 N   0  0  0  0  0  2  0  0  0  0  0  0
  1 13  1  0  0  0  0
  1 11  2  0  0  0  0
  2  8  1  0  0  0  0
  2  6  1  0  0  0  0
  4 10  1  6  0  0  0
  4 15  1  0  0  0  0
  4 18  1  0  0  0  0
  5 11  1  0  0  0  0
  6  5  2  0  0  0  0
  7 18  1  0  0  0  0
  8  3  1  6  0  0  0
  8  1  1  0  0  0  0
  9 27  1  0  0  0  0
  9 17  1  0  0  0  0
 10 17  1  0  0  0  0
 12  3  1  6  0  0  0
 12 19  1  0  0  0  0
 14  2  2  0  0  0  0
 15 16  1  0  0  0  0
 16 22  1  6  0  0  0
 16 12  1  0  0  0  0
 17  7  2  0  0  0  0
 18  3  2  0  0  0  0
 19 13  1  0  0  0  0
 20 21  1  0  0  0  0
 21 23  2  0  0  0  0
 22 25  2  0  0  0  0
 24 20  2  0  0  0  0
 24 22  1  0  0  0  0
 25 23  1  0  0  0  0
 26 20  1  0  0  0  0
 29 33  1  0  0  0  0
 29 27  1  1  0  0  0
 30 28  1  6  0  0  0
 30 29  1  0  0  0  0
 31 32  1  0  0  0  0
 32 33  1  0  0  0  0
 34 31  1  0  0  0  0
 34 30  1  0  0  0  0
M  END
>  <MODEL>
3

>  <REMARK>
 VINA RESULT:      -8.9      4.298      8.334
  Name = 
  3 active torsions:
  status: ('A' for Active; 'I' for Inactive)
    1  A    between atoms: C_3  and  C_13
    2  A    between atoms: C_3  and  N_17
    3  A    between atoms: C_12  and  C_28
                            x       y       z     vdW  Elec       q    Type
                         _______ _______ _______ _____ _____    ______ ____

>  <TORSDO>
F 3

$$$$
=
 OpenBabel11052414163D

 34 39  0  0  1  0  0  0  0  0999 V2000
  191.0910  175.0700  137.5200 C   0  0  0  0  0  0  0  0  0  0  0  0
  191.9530  176.8210  139.0840 C   0  0  0  0  0  0  0  0  0  0  0  0
  189.4360  176.5900  138.6690 C   0  0  0  0  0  0  0  0  0  0  0  0
  187.5430  177.8540  139.5460 C   0  0  1  0  0  3  0  0  0  0  0  0
  193.4940  175.4880  137.7620 C   0  0  0  0  0  3  0  0  0  0  0  0
  193.3140  176.4310  138.6870 C   0  0  0  0  0  3  0  0  0  0  0  0
  189.4280  177.2700  141.0120 N   0  0  0  0  0  0  0  0  0  0  0  0
  190.7920  175.8970  138.7580 C   0  0  1  0  0  3  0  0  0  0  0  0
  189.1380  178.3260  143.1200 N   0  0  0  0  0  2  0  0  0  0  0  0
  187.3590  178.9150  141.0180 S   0  0  0  0  0  0  0  0  0  0  0  0
  192.3420  174.8610  137.0930 C   0  0  0  0  0  3  0  0  0  0  0  0
  188.5620  176.4980  137.4290 C   0  0  1  0  0  3  0  0  0  0  0  0
  189.7320  174.5130  136.5080 S   0  0  0  0  0  0  0  0  0  0  0  0
  191.7910  177.8780  139.7500 O   0  0  0  0  0  0  0  0  0  0  0  0
  187.5750  178.6290  138.3650 O   0  0  0  0  0  0  0  0  0  0  0  0
  187.7300  177.7910  137.2190 C   0  0  2  0  0  3  0  0  0  0  0  0
  188.7640  178.0810  141.7640 C   0  0  0  0  0  0  0  0  0  0  0  0
  188.8530  177.1670  139.7220 C   0  0  0  0  0  0  0  0  0  0  0  0
  189.2750  176.1560  136.2720 O   0  0  0  0  0  0  0  0  0  0  0  0
  184.0240  177.1430  136.7760 C   0  0  0  0  0  0  0  0  0  0  0  0
  183.9300  176.9750  135.3910 C   0  0  0  0  0  3  0  0  0  0  0  0
  186.4130  177.5020  136.5720 C   0  0  0  0  0  0  0  0  0  0  0  0
  185.0740  177.0720  134.5940 C   0  0  0  0  0  3  0  0  0  0  0  0
  185.2650  177.4060  137.3650 C   0  0  0  0  0  3  0  0  0  0  0  0
  186.3150  177.3350  135.1830 C   0  0  0  0  0  3  0  0  0  0  0  0
  182.8870  177.0470  137.5660 O   0  0  0  0  0  1  0  0  0  0  0  0
  190.2820  177.6710  143.7360 C   0  0  0  0  0  2  0  0  0  0  0  0
  192.1300  176.4150  145.5530 F   0  0  0  0  0  0  0  0  0  0  0  0
  190.1860  177.7690  145.2490 C   0  0  2  0  0  3  0  0  0  0  0  0
  190.7930  176.5210  145.8960 C   0  0  2  0  0  3  0  0  0  0  0  0
  189.2630  176.5970  147.7150 C   0  0  0  0  0  2  0  0  0  0  0  0
  188.5880  177.8580  147.1820 C   0  0  0  0  0  2  0  0  0  0  0  0
  188.7190  177.8960  145.6640 C   0  0  0  0  0  2  0  0  0  0  0  0
  190.6800  176.6010  147.3520 N   0  0  0  0  0  2  0  0  0  0  0  0
  2 14  2  0  0  0  0
  3  8  1  0  0  0  0
  3 18  2  0  0  0  0
  4 15  1  6  0  0  0
  4 18  1  0  0  0  0
  4 10  1  0  0  0  0
  5  6  2  0  0  0  0
  6  2  1  0  0  0  0
  7 17  2  0  0  0  0
  8  1  1  6  0  0  0
  8  2  1  0  0  0  0
  9 27  1  0  0  0  0
 10 17  1  0  0  0  0
 11  1  2  0  0  0  0
 11  5  1  0  0  0  0
 12 19  1  6  0  0  0
 12  3  1  0  0  0  0
 13  1  1  0  0  0  0
 16 22  1  1  0  0  0
 16 12  1  0  0  0  0
 16 15  1  0  0  0  0
 17  9  1  0  0  0  0
 18  7  1  0  0  0  0
 19 13  1  0  0  0  0
 20 24  1  0  0  0  0
 20 26  1  0  0  0  0
 21 20  2  0  0  0  0
 22 24  2  0  0  0  0
 23 25  2  0  0  0  0
 23 21  1  0  0  0  0
 25 22  1  0  0  0  0
 29 27  1  6  0  0  0
 29 33  1  0  0  0  0
 29 30  1  0  0  0  0
 30 28  1  1  0  0  0
 30 34  1  0  0  0  0
 32 31  1  0  0  0  0
 33 32  1  0  0  0  0
 34 31  1  0  0  0  0
M  END
>  <MODEL>
4

>  <REMARK>
 VINA RESULT:      -8.1      4.017      8.122
  Name = 
  3 active torsions:
  status: ('A' for Active; 'I' for Inactive)
    1  A    between atoms: C_3  and  C_13
    2  A    between atoms: C_3  and  N_17
    3  A    between atoms: C_12  and  C_28
                            x       y       z     vdW  Elec       q    Type
                         _______ _______ _______ _____ _____    ______ ____

>  <TORSDO>
F 3

$$$$
=
 OpenBabel11052414163D

 34 39  0  0  1  0  0  0  0  0999 V2000
  190.2040  177.6550  139.3960 C   0  0  0  0  0  0  0  0  0  0  0  0
  187.9200  177.0830  138.5510 C   0  0  0  0  0  0  0  0  0  0  0  0
  188.2480  177.8240  140.9810 C   0  0  0  0  0  0  0  0  0  0  0  0
  186.6510  178.0870  142.8070 C   0  0  1  0  0  3  0  0  0  0  0  0
  189.8740  176.7110  137.1580 C   0  0  0  0  0  3  0  0  0  0  0  0
  188.5480  176.6670  137.2890 C   0  0  0  0  0  3  0  0  0  0  0  0
  186.0520  178.7860  140.5280 N   0  0  0  0  0  0  0  0  0  0  0  0
  188.7160  177.9260  139.5330 C   0  0  1  0  0  3  0  0  0  0  0  0
  183.7650  179.4270  140.4800 N   0  0  0  0  0  2  0  0  0  0  0  0
  184.8400  178.2970  142.8250 S   0  0  0  0  0  0  0  0  0  0  0  0
  190.7280  177.1270  138.2830 C   0  0  0  0  0  3  0  0  0  0  0  0
  189.1830  177.4140  142.1060 C   0  0  1  0  0  3  0  0  0  0  0  0
  191.2540  177.8780  140.8190 S   0  0  0  0  0  0  0  0  0  0  0  0
  186.7120  176.7920  138.7560 O   0  0  0  0  0  0  0  0  0  0  0  0
  187.0140  176.7940  143.2470 O   0  0  0  0  0  0  0  0  0  0  0  0
  188.4330  176.6350  143.2190 C   0  0  2  0  0  3  0  0  0  0  0  0
  184.9160  178.8890  141.1310 C   0  0  0  0  0  0  0  0  0  0  0  0
  187.0480  178.2530  141.3810 C   0  0  0  0  0  0  0  0  0  0  0  0
  190.3100  176.7090  141.6600 O   0  0  0  0  0  0  0  0  0  0  0  0
  190.9440  176.7230  146.0550 C   0  0  0  0  0  0  0  0  0  0  0  0
  190.1990  177.3270  147.0730 C   0  0  0  0  0  3  0  0  0  0  0  0
  189.0360  176.8770  144.5660 C   0  0  0  0  0  0  0  0  0  0  0  0
  188.8750  177.7080  146.8410 C   0  0  0  0  0  3  0  0  0  0  0  0
  190.3620  176.4990  144.8030 C   0  0  0  0  0  3  0  0  0  0  0  0
  188.2930  177.4830  145.5890 C   0  0  0  0  0  3  0  0  0  0  0  0
  192.2590  176.3460  146.2860 O   0  0  0  0  0  1  0  0  0  0  0  0
  183.8050  179.8960  139.1030 C   0  0  0  0  0  2  0  0  0  0  0  0
  182.2350  178.0410  137.5580 F   0  0  0  0  0  0  0  0  0  0  0  0
  182.3960  180.1800  138.6090 C   0  0  2  0  0  3  0  0  0  0  0  0
  182.1250  179.3990  137.3190 C   0  0  2  0  0  3  0  0  0  0  0  0
  180.7020  181.1050  136.4700 C   0  0  0  0  0  2  0  0  0  0  0  0
  180.8770  181.9660  137.7180 C   0  0  0  0  0  2  0  0  0  0  0  0
  182.2360  181.6770  138.3430 C   0  0  0  0  0  2  0  0  0  0  0  0
  180.7780  179.6890  136.8290 N   0  0  0  0  0  2  0  0  0  0  0  0
  1  8  1  0  0  0  0
  1 13  1  0  0  0  0
  2 14  2  0  0  0  0
  3 18  2  0  0  0  0
  4 18  1  6  0  0  0
  4 10  1  0  0  0  0
  4 15  1  0  0  0  0
  5  6  2  0  0  0  0
  5 11  1  0  0  0  0
  6  2  1  0  0  0  0
  7 17  2  0  0  0  0
  7 18  1  0  0  0  0
  8  2  1  6  0  0  0
  8  3  1  0  0  0  0
  9 17  1  0  0  0  0
 11  1  2  0  0  0  0
 12  3  1  6  0  0  0
 12 16  1  0  0  0  0
 13 19  1  0  0  0  0
 16 15  1  0  0  0  0
 16 22  1  1  0  0  0
 17 10  1  0  0  0  0
 19 12  1  0  0  0  0
 20 26  1  0  0  0  0
 20 21  1  0  0  0  0
 22 24  1  0  0  0  0
 22 25  2  0  0  0  0
 23 21  2  0  0  0  0
 24 20  2  0  0  0  0
 25 23  1  0  0  0  0
 27  9  1  0  0  0  0
 29 27  1  6  0  0  0
 30 28  1  1  0  0  0
 30 29  1  0  0  0  0
 31 34  1  0  0  0  0
 31 32  1  0  0  0  0
 32 33  1  0  0  0  0
 33 29  1  0  0  0  0
 34 30  1  0  0  0  0
M  END
>  <MODEL>
5

>  <REMARK>
 VINA RESULT:      -8.1      1.332      1.842
  Name = 
  3 active torsions:
  status: ('A' for Active; 'I' for Inactive)
    1  A    between atoms: C_3  and  C_13
    2  A    between atoms: C_3  and  N_17
    3  A    between atoms: C_12  and  C_28
                            x       y       z     vdW  Elec       q    Type
                         _______ _______ _______ _____ _____    ______ ____

>  <TORSDO>
F 3

$$$$
=
 OpenBabel11052414163D

 34 39  0  0  1  0  0  0  0  0999 V2000
  186.3330  178.6160  144.8980 C   0  0  0  0  0  0  0  0  0  0  0  0
  187.5200  177.2130  143.2010 C   0  0  0  0  0  0  0  0  0  0  0  0
  185.4470  178.5630  142.5350 C   0  0  0  0  0  0  0  0  0  0  0  0
  184.2770  178.7590  140.4040 C   0  0  1  0  0  3  0  0  0  0  0  0
  188.1690  177.1230  145.5400 C   0  0  0  0  0  3  0  0  0  0  0  0
  188.3790  176.7200  144.2870 C   0  0  0  0  0  3  0  0  0  0  0  0
  186.7340  178.6980  140.4670 N   0  0  0  0  0  0  0  0  0  0  0  0
  186.6800  178.4590  143.4280 C   0  0  1  0  0  3  0  0  0  0  0  0
  187.5720  178.6040  138.2470 N   0  0  0  0  0  2  0  0  0  0  0  0
  184.7980  178.4210  138.6890 S   0  0  0  0  0  0  0  0  0  0  0  0
  187.0490  178.0230  145.8610 C   0  0  0  0  0  3  0  0  0  0  0  0
  184.0480  178.7220  143.1060 C   0  0  1  0  0  3  0  0  0  0  0  0
  184.8300  179.4660  145.3420 S   0  0  0  0  0  0  0  0  0  0  0  0
  187.5560  176.6340  142.0840 O   0  0  0  0  0  0  0  0  0  0  0  0
  183.3770  177.7720  140.8620 O   0  0  0  0  0  0  0  0  0  0  0  0
  182.9820  178.0380  142.2090 C   0  0  2  0  0  3  0  0  0  0  0  0
  186.5100  178.5980  139.2000 C   0  0  0  0  0  0  0  0  0  0  0  0
  185.5280  178.6990  141.2090 C   0  0  0  0  0  0  0  0  0  0  0  0
  183.9410  178.3000  144.4390 O   0  0  0  0  0  0  0  0  0  0  0  0
  179.6960  179.3970  143.5140 C   0  0  0  0  0  0  0  0  0  0  0  0
  179.2170  180.0960  142.4010 C   0  0  0  0  0  3  0  0  0  0  0  0
  181.6710  178.7550  142.2630 C   0  0  0  0  0  0  0  0  0  0  0  0
  179.9630  180.1280  141.2200 C   0  0  0  0  0  3  0  0  0  0  0  0
  180.9220  178.7270  143.4440 C   0  0  0  0  0  3  0  0  0  0  0  0
  181.1890  179.4580  141.1500 C   0  0  0  0  0  3  0  0  0  0  0  0
  178.9550  179.3670  144.6860 O   0  0  0  0  0  1  0  0  0  0  0  0
  188.9670  178.7290  138.6440 C   0  0  0  0  0  2  0  0  0  0  0  0
  190.3590  177.4700  140.8280 F   0  0  0  0  0  0  0  0  0  0  0  0
  189.6600  177.3800  138.5460 C   0  0  2  0  0  3  0  0  0  0  0  0
  190.8270  177.3160  139.5350 C   0  0  2  0  0  3  0  0  0  0  0  0
  192.1020  175.9200  138.0930 C   0  0  0  0  0  2  0  0  0  0  0  0
  191.0000  175.8890  137.0380 C   0  0  0  0  0  2  0  0  0  0  0  0
  190.1830  177.1730  137.1240 C   0  0  0  0  0  2  0  0  0  0  0  0
  191.5100  176.0280  139.4260 N   0  0  0  0  0  2  0  0  0  0  0  0
  1 13  1  0  0  0  0
  1 11  2  0  0  0  0
  2  8  1  0  0  0  0
  2  6  1  0  0  0  0
  4 10  1  6  0  0  0
  4 15  1  0  0  0  0
  4 18  1  0  0  0  0
  5 11  1  0  0  0  0
  6  5  2  0  0  0  0
  7 18  1  0  0  0  0
  8  3  1  6  0  0  0
  8  1  1  0  0  0  0
  9 27  1  0  0  0  0
  9 17  1  0  0  0  0
 10 17  1  0  0  0  0
 12  3  1  6  0  0  0
 12 19  1  0  0  0  0
 14  2  2  0  0  0  0
 15 16  1  0  0  0  0
 16 22  1  6  0  0  0
 16 12  1  0  0  0  0
 17  7  2  0  0  0  0
 18  3  2  0  0  0  0
 19 13  1  0  0  0  0
 20 26  1  0  0  0  0
 21 20  2  0  0  0  0
 22 24  2  0  0  0  0
 23 21  1  0  0  0  0
 24 20  1  0  0  0  0
 25 23  2  0  0  0  0
 25 22  1  0  0  0  0
 29 27  1  6  0  0  0
 29 30  1  0  0  0  0
 30 28  1  1  0  0  0
 31 34  1  0  0  0  0
 32 33  1  0  0  0  0
 32 31  1  0  0  0  0
 33 29  1  0  0  0  0
 34 30  1  0  0  0  0
M  END
>  <MODEL>
6

>  <REMARK>
 VINA RESULT:      -8.0      3.524      7.902
  Name = 
  3 active torsions:
  status: ('A' for Active; 'I' for Inactive)
    1  A    between atoms: C_3  and  C_13
    2  A    between atoms: C_3  and  N_17
    3  A    between atoms: C_12  and  C_28
                            x       y       z     vdW  Elec       q    Type
                         _______ _______ _______ _____ _____    ______ ____

>  <TORSDO>
F 3

$$$$
=
 OpenBabel11052414163D

 34 39  0  0  1  0  0  0  0  0999 V2000
  187.1150  177.4770  144.7570 C   0  0  0  0  0  0  0  0  0  0  0  0
  185.2700  179.0370  144.1070 C   0  0  0  0  0  0  0  0  0  0  0  0
  186.6860  177.8930  142.3050 C   0  0  0  0  0  0  0  0  0  0  0  0
  186.6130  178.0440  139.8710 C   0  0  1  0  0  3  0  0  0  0  0  0
  185.8960  178.7780  146.4390 C   0  0  0  0  0  3  0  0  0  0  0  0
  185.0910  179.3360  145.5350 C   0  0  0  0  0  3  0  0  0  0  0  0
  184.5280  177.9760  141.1710 N   0  0  0  0  0  0  0  0  0  0  0  0
  186.0770  177.8150  143.7010 C   0  0  1  0  0  3  0  0  0  0  0  0
  182.6840  178.3280  139.7150 N   0  0  0  0  0  2  0  0  0  0  0  0
  185.3060  178.5840  138.7190 S   0  0  0  0  0  0  0  0  0  0  0  0
  187.0010  177.8980  146.0220 C   0  0  0  0  0  3  0  0  0  0  0  0
  188.1770  177.7260  142.0630 C   0  0  1  0  0  3  0  0  0  0  0  0
  188.6140  176.6500  144.2570 S   0  0  0  0  0  0  0  0  0  0  0  0
  184.6900  179.7590  143.2550 O   0  0  0  0  0  0  0  0  0  0  0  0
  187.6470  179.0030  139.9470 O   0  0  0  0  0  0  0  0  0  0  0  0
  188.6610  178.5770  140.8590 C   0  0  2  0  0  3  0  0  0  0  0  0
  184.0820  178.2570  139.9930 C   0  0  0  0  0  0  0  0  0  0  0  0
  185.9420  177.9330  141.1960 C   0  0  0  0  0  0  0  0  0  0  0  0
  188.9540  177.9700  143.2050 O   0  0  0  0  0  0  0  0  0  0  0  0
  190.7120  176.9720  138.1080 C   0  0  0  0  0  0  0  0  0  0  0  0
  191.9170  176.7130  138.7680 C   0  0  0  0  0  3  0  0  0  0  0  0
  189.8000  177.9250  140.1420 C   0  0  0  0  0  0  0  0  0  0  0  0
  192.0680  177.0600  140.1140 C   0  0  0  0  0  3  0  0  0  0  0  0
  189.6550  177.5770  138.7960 C   0  0  0  0  0  3  0  0  0  0  0  0
  191.0100  177.6650  140.8010 C   0  0  0  0  0  3  0  0  0  0  0  0
  190.5650  176.6280  136.7720 O   0  0  0  0  0  1  0  0  0  0  0  0
  181.6790  178.0820  140.7380 C   0  0  0  0  0  2  0  0  0  0  0  0
  181.7470  178.8680  143.5080 F   0  0  0  0  0  0  0  0  0  0  0  0
  181.1350  179.4010  141.2610 C   0  0  2  0  0  3  0  0  0  0  0  0
  180.6760  179.2410  142.7140 C   0  0  2  0  0  3  0  0  0  0  0  0
  178.9310  180.8320  142.4420 C   0  0  0  0  0  2  0  0  0  0  0  0
  179.3050  181.0950  140.9860 C   0  0  0  0  0  2  0  0  0  0  0  0
  179.9530  179.8460  140.3990 C   0  0  0  0  0  2  0  0  0  0  0  0
  180.1300  180.5030  143.2120 N   0  0  0  0  0  2  0  0  0  0  0  0
  1 11  2  0  0  0  0
  2  6  1  0  0  0  0
  4 10  1  6  0  0  0
  4 15  1  0  0  0  0
  4 18  1  0  0  0  0
  6  5  2  0  0  0  0
  7 18  1  0  0  0  0
  8  3  1  6  0  0  0
  8  2  1  0  0  0  0
  8  1  1  0  0  0  0
  9 17  1  0  0  0  0
  9 27  1  0  0  0  0
 10 17  1  0  0  0  0
 11  5  1  0  0  0  0
 12  3  1  1  0  0  0
 12 19  1  0  0  0  0
 13  1  1  0  0  0  0
 14  2  2  0  0  0  0
 15 16  1  0  0  0  0
 16 22  1  6  0  0  0
 16 12  1  0  0  0  0
 17  7  2  0  0  0  0
 18  3  2  0  0  0  0
 19 13  1  0  0  0  0
 20 21  2  0  0  0  0
 20 24  1  0  0  0  0
 21 23  1  0  0  0  0
 22 25  1  0  0  0  0
 23 25  2  0  0  0  0
 24 22  2  0  0  0  0
 26 20  1  0  0  0  0
 29 27  1  6  0  0  0
 29 30  1  0  0  0  0
 30 34  1  0  0  0  0
 30 28  1  1  0  0  0
 31 34  1  0  0  0  0
 32 31  1  0  0  0  0
 33 32  1  0  0  0  0
 33 29  1  0  0  0  0
M  END
>  <MODEL>
7

>  <REMARK>
 VINA RESULT:      -8.0      2.856      5.691
  Name = 
  3 active torsions:
  status: ('A' for Active; 'I' for Inactive)
    1  A    between atoms: C_3  and  C_13
    2  A    between atoms: C_3  and  N_17
    3  A    between atoms: C_12  and  C_28
                            x       y       z     vdW  Elec       q    Type
                         _______ _______ _______ _____ _____    ______ ____

>  <TORSDO>
F 3

$$$$
=
 OpenBabel11052414163D

 34 39  0  0  1  0  0  0  0  0999 V2000
  185.9900  177.6600  144.1260 C   0  0  0  0  0  0  0  0  0  0  0  0
  186.4940  178.9260  142.0280 C   0  0  0  0  0  0  0  0  0  0  0  0
  188.2780  177.4240  143.0870 C   0  0  0  0  0  0  0  0  0  0  0  0
  190.5770  176.9510  142.4230 C   0  0  1  0  0  3  0  0  0  0  0  0
  184.4050  179.2920  143.2130 C   0  0  0  0  0  3  0  0  0  0  0  0
  185.1790  179.5690  142.1630 C   0  0  0  0  0  3  0  0  0  0  0  0
  188.8090  177.1270  140.7250 N   0  0  0  0  0  0  0  0  0  0  0  0
  186.7940  177.6760  142.8380 C   0  0  1  0  0  3  0  0  0  0  0  0
  189.7860  177.0220  138.5620 N   0  0  0  0  0  2  0  0  0  0  0  0
  191.4500  177.1280  140.8320 S   0  0  0  0  0  0  0  0  0  0  0  0
  184.8730  178.3820  144.2720 C   0  0  0  0  0  3  0  0  0  0  0  0
  188.8460  177.2640  144.4880 C   0  0  1  0  0  3  0  0  0  0  0  0
  186.6480  176.7970  145.5410 S   0  0  0  0  0  0  0  0  0  0  0  0
  187.3140  179.3850  141.1910 O   0  0  0  0  0  0  0  0  0  0  0  0
  190.9950  177.9410  143.3410 O   0  0  0  0  0  0  0  0  0  0  0  0
  190.2990  177.8020  144.5810 C   0  0  2  0  0  3  0  0  0  0  0  0
  189.8660  177.0820  139.9860 C   0  0  0  0  0  0  0  0  0  0  0  0
  189.1370  177.1510  142.1020 C   0  0  0  0  0  0  0  0  0  0  0  0
  188.0310  177.8200  145.4830 O   0  0  0  0  0  0  0  0  0  0  0  0
  192.0400  176.8600  147.8100 C   0  0  0  0  0  0  0  0  0  0  0  0
  192.6100  175.6280  147.4760 C   0  0  0  0  0  3  0  0  0  0  0  0
  191.1090  177.0380  145.5790 C   0  0  0  0  0  0  0  0  0  0  0  0
  192.4300  175.0970  146.1950 C   0  0  0  0  0  3  0  0  0  0  0  0
  191.2910  177.5640  146.8620 C   0  0  0  0  0  3  0  0  0  0  0  0
  191.6800  175.8010  145.2470 C   0  0  0  0  0  3  0  0  0  0  0  0
  192.2190  177.3850  149.0820 O   0  0  0  0  0  1  0  0  0  0  0  0
  188.5120  177.0010  137.8600 C   0  0  0  0  0  2  0  0  0  0  0  0
  186.0480  175.8190  136.9510 F   0  0  0  0  0  0  0  0  0  0  0  0
  188.4360  175.7830  136.9540 C   0  0  2  0  0  3  0  0  0  0  0  0
  187.1400  175.0120  137.2190 C   0  0  2  0  0  3  0  0  0  0  0  0
  188.1660  172.9230  136.7320 C   0  0  0  0  0  2  0  0  0  0  0  0
  189.5090  173.5790  136.4210 C   0  0  0  0  0  2  0  0  0  0  0  0
  189.6350  174.8710  137.2190 C   0  0  0  0  0  2  0  0  0  0  0  0
  187.0760  173.8250  136.3650 N   0  0  0  0  0  2  0  0  0  0  0  0
  1 11  2  0  0  0  0
  1 13  1  0  0  0  0
  2  6  1  0  0  0  0
  4 10  1  6  0  0  0
  4 15  1  0  0  0  0
  5 11  1  0  0  0  0
  6  5  2  0  0  0  0
  7 18  1  0  0  0  0
  8  2  1  1  0  0  0
  8  3  1  0  0  0  0
  8  1  1  0  0  0  0
  9 17  1  0  0  0  0
 12  3  1  6  0  0  0
 12 16  1  0  0  0  0
 12 19  1  0  0  0  0
 14  2  2  0  0  0  0
 15 16  1  0  0  0  0
 16 22  1  1  0  0  0
 17  7  2  0  0  0  0
 17 10  1  0  0  0  0
 18  4  1  0  0  0  0
 18  3  2  0  0  0  0
 19 13  1  0  0  0  0
 20 26  1  0  0  0  0
 21 20  1  0  0  0  0
 22 24  1  0  0  0  0
 23 21  2  0  0  0  0
 24 20  2  0  0  0  0
 25 22  2  0  0  0  0
 25 23  1  0  0  0  0
 27  9  1  0  0  0  0
 29 33  1  0  0  0  0
 29 30  1  0  0  0  0
 29 27  1  1  0  0  0
 30 28  1  6  0  0  0
 32 31  1  0  0  0  0
 32 33  1  0  0  0  0
 34 31  1  0  0  0  0
 34 30  1  0  0  0  0
M  END
>  <MODEL>
8

>  <REMARK>
 VINA RESULT:      -7.9      3.379      5.687
  Name = 
  3 active torsions:
  status: ('A' for Active; 'I' for Inactive)
    1  A    between atoms: C_3  and  C_13
    2  A    between atoms: C_3  and  N_17
    3  A    between atoms: C_12  and  C_28
                            x       y       z     vdW  Elec       q    Type
                         _______ _______ _______ _____ _____    ______ ____

>  <TORSDO>
F 3

$$$$
=
 OpenBabel11052414163D

 34 39  0  0  1  0  0  0  0  0999 V2000
  187.3180  176.8590  136.9810 C   0  0  0  0  0  0  0  0  0  0  0  0
  188.7600  178.1820  138.5390 C   0  0  0  0  0  0  0  0  0  0  0  0
  186.2660  177.8810  139.0350 C   0  0  0  0  0  0  0  0  0  0  0  0
  184.8820  178.7120  140.8650 C   0  0  1  0  0  3  0  0  0  0  0  0
  189.6480  177.3780  136.4260 C   0  0  0  0  0  3  0  0  0  0  0  0
  189.8590  178.0180  137.5760 C   0  0  0  0  0  3  0  0  0  0  0  0
  187.1590  177.8970  141.3050 N   0  0  0  0  0  0  0  0  0  0  0  0
  187.5320  177.2950  138.4200 C   0  0  1  0  0  3  0  0  0  0  0  0
  187.7160  178.3170  143.5760 N   0  0  0  0  0  2  0  0  0  0  0  0
  185.2990  179.3170  142.5330 S   0  0  0  0  0  0  0  0  0  0  0  0
  188.3090  176.8700  136.0830 C   0  0  0  0  0  3  0  0  0  0  0  0
  184.9880  178.0630  138.2330 C   0  0  1  0  0  3  0  0  0  0  0  0
  185.6610  176.4960  136.4300 S   0  0  0  0  0  0  0  0  0  0  0  0
  188.8950  179.0020  139.4840 O   0  0  0  0  0  0  0  0  0  0  0  0
  184.4940  179.7780  140.0230 O   0  0  0  0  0  0  0  0  0  0  0  0
  184.1800  179.2970  138.7150 C   0  0  2  0  0  3  0  0  0  0  0  0
  186.8530  178.4210  142.4440 C   0  0  0  0  0  0  0  0  0  0  0  0
  186.1390  178.1050  140.3460 C   0  0  0  0  0  0  0  0  0  0  0  0
  185.2030  178.1020  136.8480 O   0  0  0  0  0  0  0  0  0  0  0  0
  180.8080  177.5940  138.4440 C   0  0  0  0  0  0  0  0  0  0  0  0
  179.9550  178.6840  138.2460 C   0  0  0  0  0  3  0  0  0  0  0  0
  182.7080  179.0960  138.5460 C   0  0  0  0  0  0  0  0  0  0  0  0
  180.4750  179.9810  138.2010 C   0  0  0  0  0  3  0  0  0  0  0  0
  182.1830  177.8000  138.5930 C   0  0  0  0  0  3  0  0  0  0  0  0
  181.8500  180.1870  138.3500 C   0  0  0  0  0  3  0  0  0  0  0  0
  180.2900  176.3070  138.4900 O   0  0  0  0  0  1  0  0  0  0  0  0
  188.9860  177.6090  143.5170 C   0  0  0  0  0  2  0  0  0  0  0  0
  191.8180  177.1740  143.8090 F   0  0  0  0  0  0  0  0  0  0  0  0
  189.7430  177.7880  144.8220 C   0  0  2  0  0  3  0  0  0  0  0  0
  190.9640  176.8630  144.8520 C   0  0  2  0  0  3  0  0  0  0  0  0
  190.8110  176.5760  147.2080 C   0  0  0  0  0  2  0  0  0  0  0  0
  189.6000  177.4990  147.3100 C   0  0  0  0  0  2  0  0  0  0  0  0
  188.8240  177.4590  145.9990 C   0  0  0  0  0  2  0  0  0  0  0  0
  191.6810  177.0160  146.1180 N   0  0  0  0  0  2  0  0  0  0  0  0
  2 14  2  0  0  0  0
  3 18  2  0  0  0  0
  4 15  1  6  0  0  0
  4 10  1  0  0  0  0
  5  6  2  0  0  0  0
  6  2  1  0  0  0  0
  7 17  2  0  0  0  0
  8  1  1  6  0  0  0
  8  2  1  0  0  0  0
  8  3  1  0  0  0  0
 11  5  1  0  0  0  0
 11  1  2  0  0  0  0
 12 19  1  6  0  0  0
 12 16  1  0  0  0  0
 12  3  1  0  0  0  0
 13 19  1  0  0  0  0
 13  1  1  0  0  0  0
 16 22  1  1  0  0  0
 16 15  1  0  0  0  0
 17 10  1  0  0  0  0
 17  9  1  0  0  0  0
 18  4  1  0  0  0  0
 18  7  1  0  0  0  0
 20 26  1  0  0  0  0
 20 24  1  0  0  0  0
 21 20  2  0  0  0  0
 22 24  2  0  0  0  0
 23 21  1  0  0  0  0
 23 25  2  0  0  0  0
 25 22  1  0  0  0  0
 27  9  1  0  0  0  0
 29 27  1  6  0  0  0
 29 30  1  0  0  0  0
 29 33  1  0  0  0  0
 30 28  1  6  0  0  0
 30 34  1  0  0  0  0
 31 32  1  0  0  0  0
 33 32  1  0  0  0  0
 34 31  1  0  0  0  0
M  END
>  <MODEL>
9

>  <REMARK>
 VINA RESULT:      -7.8      3.446      8.318
  Name = 
  3 active torsions:
  status: ('A' for Active; 'I' for Inactive)
    1  A    between atoms: C_3  and  C_13
    2  A    between atoms: C_3  and  N_17
    3  A    between atoms: C_12  and  C_28
                            x       y       z     vdW  Elec       q    Type
                         _______ _______ _______ _____ _____    ______ ____

>  <TORSDO>
F 3

$$$$
