=
 OpenBabel11052412393D

 30 30  0  0  1  0  0  0  0  0999 V2000
  188.5850  177.8500  142.6540 C   0  0  2  0  0  3  0  0  0  0  0  0
  189.9540  177.2860  142.9210 C   0  0  0  0  0  0  0  0  0  0  0  0
  190.1910  175.6570  142.9810 S   0  0  0  0  0  0  0  0  0  0  0  0
  191.0540  178.1930  143.0470 N   0  0  0  0  0  2  0  0  0  0  0  0
  191.0060  179.4070  143.8460 C   0  0  0  0  0  2  0  0  0  0  0  0
  192.2550  179.6330  144.4240 O   0  0  0  0  0  1  0  0  0  0  0  0
  186.1210  177.5000  143.1510 C   0  0  0  0  0  1  0  0  0  0  0  0
  187.5470  177.3740  143.6850 C   0  0  2  0  0  3  0  0  0  0  0  0
  187.7050  178.0530  145.0600 C   0  0  1  0  0  3  0  0  0  0  0  0
  186.3870  178.5510  145.6390 C   0  0  0  0  0  2  0  0  0  0  0  0
  186.4140  178.4630  147.1520 C   0  0  0  0  0  1  0  0  0  0  0  0
  188.3800  177.1190  146.0520 C   0  0  0  0  0  2  0  0  0  0  0  0
  189.6370  177.6220  146.3950 O   0  0  0  0  0  0  0  0  0  0  0  0
  190.0450  176.8440  147.4810 C   0  0  0  0  0  2  0  0  0  0  0  0
  191.9710  176.7970  146.0610 O   0  0  0  0  0  1  0  0  0  0  0  0
  191.5090  176.4560  147.3340 C   0  0  0  0  0  3  0  0  0  0  0  0
  192.2780  177.1030  148.3030 O   0  0  0  0  0  1  0  0  0  0  0  0
  188.1490  177.4780  141.2400 C   0  0  0  0  0  2  0  0  0  0  0  0
  189.0090  178.1730  140.1910 C   0  0  0  0  0  2  0  0  0  0  0  0
  188.8190  177.5630  138.8020 C   0  0  2  0  0  0  0  0  0  0  0  0
  187.1360  177.0450  136.9970 O   0  0  0  0  0  1  0  0  0  0  0  0
  188.8170  178.6250  137.7130 C   0  0  0  0  0  2  0  0  0  0  0  0
  187.5390  177.8800  138.0450 C   0  0  2  0  0  0  0  0  0  0  0  0
  189.5900  176.3120  138.3900 C   0  0  0  0  0  2  0  0  0  0  0  0
  190.6230  176.0630  139.2960 O   0  0  0  0  0  0  0  0  0  0  0  0
  191.8580  175.0160  137.5560 C   0  0  0  0  0  1  0  0  0  0  0  0
  191.7880  176.1690  138.5360 C   0  0  0  0  0  2  0  0  0  0  0  0
  186.5760  178.7250  138.6130 O   0  0  0  0  0  0  0  0  0  0  0  0
  185.3340  178.2250  138.2100 C   0  0  0  0  0  2  0  0  0  0  0  0
  184.0150  179.0920  139.1050 S   0  0  0  0  0  1  0  0  0  0  0  0
  1 18  1  6  0  0  0
  1  2  1  0  0  0  0
  1  8  1  0  0  0  0
  2  3  2  0  0  0  0
  2  4  1  0  0  0  0
  4  5  1  0  0  0  0
  5  6  1  0  0  0  0
  8  7  1  6  0  0  0
  8  9  1  0  0  0  0
  9 10  1  1  0  0  0
  9 12  1  0  0  0  0
 10 11  1  0  0  0  0
 12 13  1  0  0  0  0
 13 14  1  0  0  0  0
 15 16  1  0  0  0  0
 16 14  1  0  0  0  0
 16 17  1  0  0  0  0
 19 18  1  0  0  0  0
 20 24  1  6  0  0  0
 20 19  1  0  0  0  0
 22 23  1  0  0  0  0
 22 20  1  0  0  0  0
 23 21  1  6  0  0  0
 23 28  1  0  0  0  0
 23 20  1  0  0  0  0
 24 25  1  0  0  0  0
 26 27  1  0  0  0  0
 27 25  1  0  0  0  0
 29 28  1  0  0  0  0
 29 30  1  0  0  0  0
M  END
>  <MODEL>
1

>  <REMARK>
 VINA RESULT:      -5.8      0.000      0.000
  Name = 
  18 active torsions:
  status: ('A' for Active; 'I' for Inactive)
    1  A    between atoms: C_1  and  C_4
    2  A    between atoms: C_1  and  C_22
    3  A    between atoms: C_2  and  N_14
    4  A    between atoms: C_2  and  C_29
    5  A    between atoms: C_3  and  C_11
    6  A    between atoms: C_4  and  C_5
    7  A    between atoms: C_5  and  O_21
    8  A    between atoms: C_11  and  C_23
    9  A    between atoms: C_11  and  C_24
   10  A    between atoms: C_12  and  O_27
   11  A    between atoms: C_13  and  O_27
   12  A    between atoms: N_14  and  C_20
   13  A    between atoms: O_15  and  C_24
   14  A    between atoms: O_15  and  C_25
   15  A    between atoms: C_16  and  C_25
   16  A    between atoms: C_17  and  O_21
   17  A    between atoms: C_22  and  C_29
   18  A    between atoms: C_23  and  C_29
                            x       y       z     vdW  Elec       q    Type
                         _______ _______ _______ _____ _____    ______ ____

>  <TORSDO>
F 18

$$$$
=
 OpenBabel11052412393D

 30 30  0  0  1  0  0  0  0  0999 V2000
  187.2890  178.1010  145.4110 C   0  0  2  0  0  3  0  0  0  0  0  0
  186.8030  178.1170  146.8340 C   0  0  0  0  0  0  0  0  0  0  0  0
  185.4530  178.9670  147.2490 S   0  0  0  0  0  0  0  0  0  0  0  0
  187.4950  177.3210  147.8020 N   0  0  0  0  0  2  0  0  0  0  0  0
  188.1740  177.8770  148.9610 C   0  0  0  0  0  2  0  0  0  0  0  0
  189.3830  178.4450  148.5630 O   0  0  0  0  0  1  0  0  0  0  0  0
  186.9340  176.4070  143.5560 C   0  0  0  0  0  1  0  0  0  0  0  0
  186.2740  177.4500  144.4550 C   0  0  2  0  0  3  0  0  0  0  0  0
  185.4650  178.4780  143.6400 C   0  0  1  0  0  3  0  0  0  0  0  0
  185.4070  178.1550  142.1520 C   0  0  0  0  0  2  0  0  0  0  0  0
  186.2020  179.1770  141.3640 C   0  0  0  0  0  1  0  0  0  0  0  0
  184.0540  178.6170  144.1890 C   0  0  0  0  0  2  0  0  0  0  0  0
  183.1290  178.5340  143.1470 O   0  0  0  0  0  0  0  0  0  0  0  0
  182.0080  179.2270  143.6110 C   0  0  0  0  0  2  0  0  0  0  0  0
  180.1740  180.4190  142.6410 O   0  0  0  0  0  1  0  0  0  0  0  0
  180.9180  179.2410  142.5500 C   0  0  0  0  0  3  0  0  0  0  0  0
  181.4850  179.1390  141.2780 O   0  0  0  0  0  1  0  0  0  0  0  0
  188.6330  177.3820  145.3400 C   0  0  0  0  0  2  0  0  0  0  0  0
  189.7700  178.3550  145.0500 C   0  0  0  0  0  2  0  0  0  0  0  0
  190.9730  177.6530  144.4180 C   0  0  2  0  0  0  0  0  0  0  0  0
  191.8320  176.5220  142.3360 O   0  0  0  0  0  1  0  0  0  0  0  0
  191.7950  178.6030  143.5600 C   0  0  0  0  0  2  0  0  0  0  0  0
  191.0000  177.4910  142.9070 C   0  0  2  0  0  0  0  0  0  0  0  0
  191.8480  176.7150  145.2450 C   0  0  0  0  0  2  0  0  0  0  0  0
  191.8540  177.1150  146.5820 O   0  0  0  0  0  0  0  0  0  0  0  0
  192.7550  175.6620  148.2330 C   0  0  0  0  0  1  0  0  0  0  0  0
  191.5970  175.9470  147.2990 C   0  0  0  0  0  2  0  0  0  0  0  0
  189.9480  177.9900  142.1260 O   0  0  0  0  0  0  0  0  0  0  0  0
  189.7670  177.0730  141.0870 C   0  0  0  0  0  2  0  0  0  0  0  0
  189.2830  177.9590  139.5780 S   0  0  0  0  0  1  0  0  0  0  0  0
  1 18  1  1  0  0  0
  1  2  1  0  0  0  0
  2  3  2  0  0  0  0
  2  4  1  0  0  0  0
  4  5  1  0  0  0  0
  6  5  1  0  0  0  0
  8  7  1  6  0  0  0
  8  1  1  0  0  0  0
  9 10  1  6  0  0  0
  9 12  1  0  0  0  0
  9  8  1  0  0  0  0
 11 10  1  0  0  0  0
 13 14  1  0  0  0  0
 13 12  1  0  0  0  0
 16 15  1  0  0  0  0
 16 14  1  0  0  0  0
 17 16  1  0  0  0  0
 19 18  1  0  0  0  0
 20 19  1  1  0  0  0
 20 24  1  0  0  0  0
 22 20  1  0  0  0  0
 23 21  1  6  0  0  0
 23 22  1  0  0  0  0
 23 20  1  0  0  0  0
 24 25  1  0  0  0  0
 25 27  1  0  0  0  0
 27 26  1  0  0  0  0
 28 23  1  0  0  0  0
 29 28  1  0  0  0  0
 30 29  1  0  0  0  0
M  END
>  <MODEL>
2

>  <REMARK>
 VINA RESULT:      -5.7      3.455      7.012
  Name = 
  18 active torsions:
  status: ('A' for Active; 'I' for Inactive)
    1  A    between atoms: C_1  and  C_4
    2  A    between atoms: C_1  and  C_22
    3  A    between atoms: C_2  and  N_14
    4  A    between atoms: C_2  and  C_29
    5  A    between atoms: C_3  and  C_11
    6  A    between atoms: C_4  and  C_5
    7  A    between atoms: C_5  and  O_21
    8  A    between atoms: C_11  and  C_23
    9  A    between atoms: C_11  and  C_24
   10  A    between atoms: C_12  and  O_27
   11  A    between atoms: C_13  and  O_27
   12  A    between atoms: N_14  and  C_20
   13  A    between atoms: O_15  and  C_24
   14  A    between atoms: O_15  and  C_25
   15  A    between atoms: C_16  and  C_25
   16  A    between atoms: C_17  and  O_21
   17  A    between atoms: C_22  and  C_29
   18  A    between atoms: C_23  and  C_29
                            x       y       z     vdW  Elec       q    Type
                         _______ _______ _______ _____ _____    ______ ____

>  <TORSDO>
F 18

$$$$
=
 OpenBabel11052412393D

 30 30  0  0  1  0  0  0  0  0999 V2000
  188.3330  178.0530  142.5100 C   0  0  2  0  0  3  0  0  0  0  0  0
  187.2570  178.2190  141.4720 C   0  0  0  0  0  0  0  0  0  0  0  0
  187.6250  178.1590  139.8670 S   0  0  0  0  0  0  0  0  0  0  0  0
  185.9010  178.3550  141.9100 N   0  0  0  0  0  2  0  0  0  0  0  0
  184.7900  178.6210  141.0100 C   0  0  0  0  0  2  0  0  0  0  0  0
  185.0300  179.8030  140.3100 O   0  0  0  0  0  1  0  0  0  0  0  0
  189.3930  175.7950  142.9700 C   0  0  0  0  0  1  0  0  0  0  0  0
  189.4050  177.0370  142.0810 C   0  0  2  0  0  3  0  0  0  0  0  0
  190.8150  177.6530  141.9780 C   0  0  1  0  0  3  0  0  0  0  0  0
  191.6800  177.3810  143.2020 C   0  0  0  0  0  2  0  0  0  0  0  0
  191.7260  178.6070  144.0920 C   0  0  0  0  0  1  0  0  0  0  0  0
  191.5290  177.1660  140.7270 C   0  0  0  0  0  2  0  0  0  0  0  0
  190.6740  176.3550  139.9780 O   0  0  0  0  0  0  0  0  0  0  0  0
  190.9740  176.6580  138.6480 C   0  0  0  0  0  2  0  0  0  0  0  0
  190.6030  175.9070  136.4060 O   0  0  0  0  0  1  0  0  0  0  0  0
  190.5850  175.5000  137.7410 C   0  0  0  0  0  3  0  0  0  0  0  0
  191.4660  174.4320  137.9200 O   0  0  0  0  0  1  0  0  0  0  0  0
  187.7010  177.6420  143.8370 C   0  0  0  0  0  2  0  0  0  0  0  0
  188.2360  178.4800  144.9920 C   0  0  0  0  0  2  0  0  0  0  0  0
  187.8090  177.9190  146.3490 C   0  0  2  0  0  0  0  0  0  0  0  0
  188.2400  176.1130  148.0540 O   0  0  0  0  0  1  0  0  0  0  0  0
  188.7110  178.4090  147.4730 C   0  0  0  0  0  2  0  0  0  0  0  0
  188.7450  176.9520  147.0560 C   0  0  2  0  0  0  0  0  0  0  0  0
  186.3380  177.9000  146.7540 C   0  0  0  0  0  2  0  0  0  0  0  0
  185.6900  179.0370  146.2670 O   0  0  0  0  0  0  0  0  0  0  0  0
  183.9300  179.2890  144.6890 C   0  0  0  0  0  1  0  0  0  0  0  0
  184.4040  178.5980  145.9510 C   0  0  0  0  0  2  0  0  0  0  0  0
  189.9720  176.6050  146.4720 O   0  0  0  0  0  0  0  0  0  0  0  0
  190.9470  176.8490  147.4430 C   0  0  0  0  0  2  0  0  0  0  0  0
  192.3060  175.6620  147.2440 S   0  0  0  0  0  1  0  0  0  0  0  0
  1 18  1  1  0  0  0
  2  4  1  0  0  0  0
  2  1  1  0  0  0  0
  3  2  2  0  0  0  0
  5  4  1  0  0  0  0
  6  5  1  0  0  0  0
  8  1  1  0  0  0  0
  8  7  1  1  0  0  0
  9 12  1  6  0  0  0
  9  8  1  0  0  0  0
  9 10  1  0  0  0  0
 10 11  1  0  0  0  0
 13 12  1  0  0  0  0
 14 13  1  0  0  0  0
 15 16  1  0  0  0  0
 16 17  1  0  0  0  0
 16 14  1  0  0  0  0
 18 19  1  0  0  0  0
 20 19  1  6  0  0  0
 20 24  1  0  0  0  0
 20 23  1  0  0  0  0
 20 22  1  0  0  0  0
 23 22  1  0  0  0  0
 23 21  1  1  0  0  0
 25 24  1  0  0  0  0
 26 27  1  0  0  0  0
 27 25  1  0  0  0  0
 28 23  1  0  0  0  0
 28 29  1  0  0  0  0
 30 29  1  0  0  0  0
M  END
>  <MODEL>
3

>  <REMARK>
 VINA RESULT:      -5.7      2.415      7.965
  Name = 
  18 active torsions:
  status: ('A' for Active; 'I' for Inactive)
    1  A    between atoms: C_1  and  C_4
    2  A    between atoms: C_1  and  C_22
    3  A    between atoms: C_2  and  N_14
    4  A    between atoms: C_2  and  C_29
    5  A    between atoms: C_3  and  C_11
    6  A    between atoms: C_4  and  C_5
    7  A    between atoms: C_5  and  O_21
    8  A    between atoms: C_11  and  C_23
    9  A    between atoms: C_11  and  C_24
   10  A    between atoms: C_12  and  O_27
   11  A    between atoms: C_13  and  O_27
   12  A    between atoms: N_14  and  C_20
   13  A    between atoms: O_15  and  C_24
   14  A    between atoms: O_15  and  C_25
   15  A    between atoms: C_16  and  C_25
   16  A    between atoms: C_17  and  O_21
   17  A    between atoms: C_22  and  C_29
   18  A    between atoms: C_23  and  C_29
                            x       y       z     vdW  Elec       q    Type
                         _______ _______ _______ _____ _____    ______ ____

>  <TORSDO>
F 18

$$$$
=
 OpenBabel11052412393D

 30 30  0  0  1  0  0  0  0  0999 V2000
  189.9790  177.2690  145.3000 C   0  0  2  0  0  3  0  0  0  0  0  0
  190.2570  177.2670  146.7780 C   0  0  0  0  0  0  0  0  0  0  0  0
  189.0200  177.3520  147.8630 S   0  0  0  0  0  0  0  0  0  0  0  0
  191.6110  177.1150  147.2190 N   0  0  0  0  0  2  0  0  0  0  0  0
  192.2090  175.8320  147.5490 C   0  0  0  0  0  2  0  0  0  0  0  0
  193.1040  175.9930  148.6060 O   0  0  0  0  0  1  0  0  0  0  0  0
  190.9730  179.2640  144.0870 C   0  0  0  0  0  1  0  0  0  0  0  0
  191.1690  177.8010  144.4830 C   0  0  2  0  0  3  0  0  0  0  0  0
  191.5090  176.9200  143.2650 C   0  0  1  0  0  3  0  0  0  0  0  0
  191.0240  175.4830  143.4100 C   0  0  0  0  0  2  0  0  0  0  0  0
  192.0120  174.6770  144.2290 C   0  0  0  0  0  1  0  0  0  0  0  0
  190.9510  177.5230  141.9860 C   0  0  0  0  0  2  0  0  0  0  0  0
  191.0960  176.6180  140.9330 O   0  0  0  0  0  0  0  0  0  0  0  0
  191.4980  177.3990  139.8470 C   0  0  0  0  0  2  0  0  0  0  0  0
  192.9540  176.2420  138.3400 O   0  0  0  0  0  1  0  0  0  0  0  0
  191.6140  176.5430  138.5940 C   0  0  0  0  0  3  0  0  0  0  0  0
  190.8870  175.3610  138.7500 O   0  0  0  0  0  1  0  0  0  0  0  0
  188.7230  178.0900  145.0200 C   0  0  0  0  0  2  0  0  0  0  0  0
  187.6360  177.2410  144.3710 C   0  0  0  0  0  2  0  0  0  0  0  0
  186.5460  178.1020  143.7310 C   0  0  2  0  0  0  0  0  0  0  0  0
  185.9590  179.5290  141.7380 O   0  0  0  0  0  1  0  0  0  0  0  0
  185.7440  177.3240  142.6990 C   0  0  0  0  0  2  0  0  0  0  0  0
  186.6690  178.4390  142.2550 C   0  0  2  0  0  0  0  0  0  0  0  0
  185.6650  179.0040  144.5910 C   0  0  0  0  0  2  0  0  0  0  0  0
  185.5250  178.4630  145.8700 O   0  0  0  0  0  0  0  0  0  0  0  0
  183.3780  178.9490  144.9740 C   0  0  0  0  0  1  0  0  0  0  0  0
  184.2050  178.7410  146.2250 C   0  0  0  0  0  2  0  0  0  0  0  0
  187.7520  177.9530  141.5080 O   0  0  0  0  0  0  0  0  0  0  0  0
  187.8980  178.8230  140.4240 C   0  0  0  0  0  2  0  0  0  0  0  0
  187.8220  177.8770  138.8770 S   0  0  0  0  0  1  0  0  0  0  0  0
  1 18  1  1  0  0  0
  1  2  1  0  0  0  0
  2  4  1  0  0  0  0
  2  3  2  0  0  0  0
  4  5  1  0  0  0  0
  5  6  1  0  0  0  0
  8  7  1  6  0  0  0
  8  1  1  0  0  0  0
  9 12  1  6  0  0  0
  9 10  1  0  0  0  0
  9  8  1  0  0  0  0
 10 11  1  0  0  0  0
 13 12  1  0  0  0  0
 14 13  1  0  0  0  0
 15 16  1  0  0  0  0
 16 17  1  0  0  0  0
 16 14  1  0  0  0  0
 19 18  1  0  0  0  0
 20 19  1  1  0  0  0
 20 24  1  0  0  0  0
 22 20  1  0  0  0  0
 23 21  1  6  0  0  0
 23 22  1  0  0  0  0
 23 20  1  0  0  0  0
 24 25  1  0  0  0  0
 25 27  1  0  0  0  0
 26 27  1  0  0  0  0
 28 23  1  0  0  0  0
 29 28  1  0  0  0  0
 30 29  1  0  0  0  0
M  END
>  <MODEL>
4

>  <REMARK>
 VINA RESULT:      -5.5      2.632      6.381
  Name = 
  18 active torsions:
  status: ('A' for Active; 'I' for Inactive)
    1  A    between atoms: C_1  and  C_4
    2  A    between atoms: C_1  and  C_22
    3  A    between atoms: C_2  and  N_14
    4  A    between atoms: C_2  and  C_29
    5  A    between atoms: C_3  and  C_11
    6  A    between atoms: C_4  and  C_5
    7  A    between atoms: C_5  and  O_21
    8  A    between atoms: C_11  and  C_23
    9  A    between atoms: C_11  and  C_24
   10  A    between atoms: C_12  and  O_27
   11  A    between atoms: C_13  and  O_27
   12  A    between atoms: N_14  and  C_20
   13  A    between atoms: O_15  and  C_24
   14  A    between atoms: O_15  and  C_25
   15  A    between atoms: C_16  and  C_25
   16  A    between atoms: C_17  and  O_21
   17  A    between atoms: C_22  and  C_29
   18  A    between atoms: C_23  and  C_29
                            x       y       z     vdW  Elec       q    Type
                         _______ _______ _______ _____ _____    ______ ____

>  <TORSDO>
F 18

$$$$
=
 OpenBabel11052412393D

 30 30  0  0  1  0  0  0  0  0999 V2000
  188.3730  177.3710  142.3430 C   0  0  2  0  0  3  0  0  0  0  0  0
  189.7910  177.1640  142.8030 C   0  0  0  0  0  0  0  0  0  0  0  0
  190.3600  175.6470  143.1070 S   0  0  0  0  0  0  0  0  0  0  0  0
  190.6510  178.3030  142.8990 N   0  0  0  0  0  2  0  0  0  0  0  0
  191.6890  178.4430  143.9080 C   0  0  0  0  0  2  0  0  0  0  0  0
  191.7770  179.7780  144.3030 O   0  0  0  0  0  1  0  0  0  0  0  0
  186.9290  178.7680  140.7950 C   0  0  0  0  0  1  0  0  0  0  0  0
  188.2980  178.1240  141.0040 C   0  0  2  0  0  3  0  0  0  0  0  0
  188.7130  177.2570  139.7990 C   0  0  1  0  0  3  0  0  0  0  0  0
  187.9180  177.5630  138.5360 C   0  0  0  0  0  2  0  0  0  0  0  0
  187.8850  176.3470  137.6320 C   0  0  0  0  0  1  0  0  0  0  0  0
  190.2000  177.3990  139.5150 C   0  0  0  0  0  2  0  0  0  0  0  0
  190.7900  176.1360  139.4370 O   0  0  0  0  0  0  0  0  0  0  0  0
  191.6760  176.2250  138.3600 C   0  0  0  0  0  2  0  0  0  0  0  0
  190.8590  174.5850  136.8210 O   0  0  0  0  0  1  0  0  0  0  0  0
  191.8830  174.8560  137.7310 C   0  0  0  0  0  3  0  0  0  0  0  0
  193.1170  174.8080  137.0780 O   0  0  0  0  0  1  0  0  0  0  0  0
  187.5910  178.1130  143.4230 C   0  0  0  0  0  2  0  0  0  0  0  0
  186.9790  177.1470  144.4310 C   0  0  0  0  0  2  0  0  0  0  0  0
  186.7990  177.7940  145.8050 C   0  0  2  0  0  0  0  0  0  0  0  0
  185.8560  179.7840  147.0320 O   0  0  0  0  0  1  0  0  0  0  0  0
  185.4300  177.4930  146.3970 C   0  0  0  0  0  2  0  0  0  0  0  0
  185.7690  178.9020  145.9490 C   0  0  2  0  0  0  0  0  0  0  0  0
  187.9100  177.7230  146.8490 C   0  0  0  0  0  2  0  0  0  0  0  0
  188.9780  176.9650  146.3650 O   0  0  0  0  0  0  0  0  0  0  0  0
  191.2370  176.4140  146.8580 C   0  0  0  0  0  1  0  0  0  0  0  0
  189.9790  177.1180  147.3230 C   0  0  0  0  0  2  0  0  0  0  0  0
  185.0000  179.2980  144.8460 O   0  0  0  0  0  0  0  0  0  0  0  0
  183.6850  178.9210  145.1330 C   0  0  0  0  0  2  0  0  0  0  0  0
  182.6810  179.0380  143.6250 S   0  0  0  0  0  1  0  0  0  0  0  0
  1  2  1  0  0  0  0
  1 18  1  1  0  0  0
  2  4  1  0  0  0  0
  2  3  2  0  0  0  0
  4  5  1  0  0  0  0
  5  6  1  0  0  0  0
  8  7  1  6  0  0  0
  8  1  1  0  0  0  0
  9 10  1  6  0  0  0
  9  8  1  0  0  0  0
 11 10  1  0  0  0  0
 12  9  1  0  0  0  0
 13 12  1  0  0  0  0
 14 13  1  0  0  0  0
 15 16  1  0  0  0  0
 16 14  1  0  0  0  0
 17 16  1  0  0  0  0
 18 19  1  0  0  0  0
 20 19  1  6  0  0  0
 20 23  1  0  0  0  0
 20 22  1  0  0  0  0
 20 24  1  0  0  0  0
 23 22  1  0  0  0  0
 23 21  1  1  0  0  0
 25 24  1  0  0  0  0
 25 27  1  0  0  0  0
 26 27  1  0  0  0  0
 28 29  1  0  0  0  0
 28 23  1  0  0  0  0
 30 29  1  0  0  0  0
M  END
>  <MODEL>
5

>  <REMARK>
 VINA RESULT:      -5.5      1.990      6.984
  Name = 
  18 active torsions:
  status: ('A' for Active; 'I' for Inactive)
    1  A    between atoms: C_1  and  C_4
    2  A    between atoms: C_1  and  C_22
    3  A    between atoms: C_2  and  N_14
    4  A    between atoms: C_2  and  C_29
    5  A    between atoms: C_3  and  C_11
    6  A    between atoms: C_4  and  C_5
    7  A    between atoms: C_5  and  O_21
    8  A    between atoms: C_11  and  C_23
    9  A    between atoms: C_11  and  C_24
   10  A    between atoms: C_12  and  O_27
   11  A    between atoms: C_13  and  O_27
   12  A    between atoms: N_14  and  C_20
   13  A    between atoms: O_15  and  C_24
   14  A    between atoms: O_15  and  C_25
   15  A    between atoms: C_16  and  C_25
   16  A    between atoms: C_17  and  O_21
   17  A    between atoms: C_22  and  C_29
   18  A    between atoms: C_23  and  C_29
                            x       y       z     vdW  Elec       q    Type
                         _______ _______ _______ _____ _____    ______ ____

>  <TORSDO>
F 18

$$$$
=
 OpenBabel11052412393D

 30 30  0  0  1  0  0  0  0  0999 V2000
  190.0950  176.7800  144.0910 C   0  0  2  0  0  3  0  0  0  0  0  0
  191.1690  176.1800  144.9570 C   0  0  0  0  0  0  0  0  0  0  0  0
  192.0560  174.8980  144.4240 S   0  0  0  0  0  0  0  0  0  0  0  0
  191.4500  176.7930  146.2200 N   0  0  0  0  0  2  0  0  0  0  0  0
  191.8810  176.0510  147.3940 C   0  0  0  0  0  2  0  0  0  0  0  0
  192.4070  176.9350  148.3350 O   0  0  0  0  0  1  0  0  0  0  0  0
  190.8680  179.0980  143.4090 C   0  0  0  0  0  1  0  0  0  0  0  0
  190.6750  177.6500  142.9620 C   0  0  2  0  0  3  0  0  0  0  0  0
  189.8670  177.5590  141.6530 C   0  0  1  0  0  3  0  0  0  0  0  0
  188.9490  178.7540  141.4280 C   0  0  0  0  0  2  0  0  0  0  0  0
  187.5950  178.2870  140.9320 C   0  0  0  0  0  1  0  0  0  0  0  0
  190.7900  177.3890  140.4570 C   0  0  0  0  0  2  0  0  0  0  0  0
  190.5480  176.1600  139.8410 O   0  0  0  0  0  0  0  0  0  0  0  0
  189.9360  176.4850  138.6290 C   0  0  0  0  0  2  0  0  0  0  0  0
  191.2290  174.5510  138.0690 O   0  0  0  0  0  1  0  0  0  0  0  0
  190.3210  175.4790  137.5550 C   0  0  0  0  0  3  0  0  0  0  0  0
  189.1850  174.8160  137.0860 O   0  0  0  0  0  1  0  0  0  0  0  0
  189.1350  177.5900  144.9570 C   0  0  0  0  0  2  0  0  0  0  0  0
  187.6830  177.2250  144.6710 C   0  0  0  0  0  2  0  0  0  0  0  0
  186.7160  177.9740  145.5890 C   0  0  2  0  0  0  0  0  0  0  0  0
  184.9710  179.7900  145.6920 O   0  0  0  0  0  1  0  0  0  0  0  0
  185.3070  177.4050  145.5100 C   0  0  0  0  0  2  0  0  0  0  0  0
  185.5990  178.7840  144.9510 C   0  0  2  0  0  0  0  0  0  0  0  0
  187.1180  178.3300  147.0170 C   0  0  0  0  0  2  0  0  0  0  0  0
  187.5200  177.1830  147.7050 O   0  0  0  0  0  0  0  0  0  0  0  0
  189.2890  178.5020  148.5860 C   0  0  0  0  0  1  0  0  0  0  0  0
  188.0680  177.6610  148.8940 C   0  0  0  0  0  2  0  0  0  0  0  0
  185.4640  178.8210  143.5560 O   0  0  0  0  0  0  0  0  0  0  0  0
  184.1100  178.5950  143.2910 C   0  0  0  0  0  2  0  0  0  0  0  0
  183.8810  178.3210  141.5120 S   0  0  0  0  0  1  0  0  0  0  0  0
  1  2  1  0  0  0  0
  1 18  1  1  0  0  0
  2  4  1  0  0  0  0
  3  2  2  0  0  0  0
  4  5  1  0  0  0  0
  5  6  1  0  0  0  0
  8  7  1  1  0  0  0
  8  1  1  0  0  0  0
  9 12  1  6  0  0  0
  9  8  1  0  0  0  0
 10  9  1  0  0  0  0
 11 10  1  0  0  0  0
 13 12  1  0  0  0  0
 14 13  1  0  0  0  0
 16 15  1  0  0  0  0
 16 14  1  0  0  0  0
 17 16  1  0  0  0  0
 19 18  1  0  0  0  0
 20 19  1  6  0  0  0
 20 24  1  0  0  0  0
 22 20  1  0  0  0  0
 23 22  1  0  0  0  0
 23 20  1  0  0  0  0
 23 21  1  1  0  0  0
 24 25  1  0  0  0  0
 25 27  1  0  0  0  0
 26 27  1  0  0  0  0
 28 23  1  0  0  0  0
 29 28  1  0  0  0  0
 30 29  1  0  0  0  0
M  END
>  <MODEL>
6

>  <REMARK>
 VINA RESULT:      -5.5      2.227      6.968
  Name = 
  18 active torsions:
  status: ('A' for Active; 'I' for Inactive)
    1  A    between atoms: C_1  and  C_4
    2  A    between atoms: C_1  and  C_22
    3  A    between atoms: C_2  and  N_14
    4  A    between atoms: C_2  and  C_29
    5  A    between atoms: C_3  and  C_11
    6  A    between atoms: C_4  and  C_5
    7  A    between atoms: C_5  and  O_21
    8  A    between atoms: C_11  and  C_23
    9  A    between atoms: C_11  and  C_24
   10  A    between atoms: C_12  and  O_27
   11  A    between atoms: C_13  and  O_27
   12  A    between atoms: N_14  and  C_20
   13  A    between atoms: O_15  and  C_24
   14  A    between atoms: O_15  and  C_25
   15  A    between atoms: C_16  and  C_25
   16  A    between atoms: C_17  and  O_21
   17  A    between atoms: C_22  and  C_29
   18  A    between atoms: C_23  and  C_29
                            x       y       z     vdW  Elec       q    Type
                         _______ _______ _______ _____ _____    ______ ____

>  <TORSDO>
F 18

$$$$
=
 OpenBabel11052412393D

 30 30  0  0  1  0  0  0  0  0999 V2000
  189.2240  178.1260  142.6720 C   0  0  2  0  0  3  0  0  0  0  0  0
  190.6360  178.1470  143.1890 C   0  0  0  0  0  0  0  0  0  0  0  0
  191.1580  179.3820  144.1470 S   0  0  0  0  0  0  0  0  0  0  0  0
  191.4900  177.0370  142.8920 N   0  0  0  0  0  2  0  0  0  0  0  0
  191.6210  175.8730  143.7530 C   0  0  0  0  0  2  0  0  0  0  0  0
  190.8800  174.8170  143.2230 O   0  0  0  0  0  1  0  0  0  0  0  0
  187.9540  176.0320  143.3360 C   0  0  0  0  0  1  0  0  0  0  0  0
  188.2440  177.4920  143.6750 C   0  0  2  0  0  3  0  0  0  0  0  0
  186.9480  178.3070  143.8510 C   0  0  1  0  0  3  0  0  0  0  0  0
  185.8530  177.9140  142.8680 C   0  0  0  0  0  2  0  0  0  0  0  0
  184.6020  178.7310  143.1250 C   0  0  0  0  0  1  0  0  0  0  0  0
  186.4240  178.1930  145.2740 C   0  0  0  0  0  2  0  0  0  0  0  0
  187.4400  178.5050  146.1790 O   0  0  0  0  0  0  0  0  0  0  0  0
  187.1110  177.7970  147.3380 C   0  0  0  0  0  2  0  0  0  0  0  0
  189.2150  176.7020  147.0170 O   0  0  0  0  0  1  0  0  0  0  0  0
  188.3670  177.2370  147.9890 C   0  0  0  0  0  3  0  0  0  0  0  0
  189.0330  178.2420  148.6930 O   0  0  0  0  0  1  0  0  0  0  0  0
  189.1810  177.3860  141.3380 C   0  0  0  0  0  2  0  0  0  0  0  0
  188.5020  178.2210  140.2590 C   0  0  0  0  0  2  0  0  0  0  0  0
  189.0600  177.9180  138.8680 C   0  0  2  0  0  0  0  0  0  0  0  0
  188.4530  177.3640  136.4850 O   0  0  0  0  0  1  0  0  0  0  0  0
  189.0720  179.1550  137.9820 C   0  0  0  0  0  2  0  0  0  0  0  0
  188.1200  178.0150  137.6780 C   0  0  2  0  0  0  0  0  0  0  0  0
  190.3220  177.0760  138.7030 C   0  0  0  0  0  2  0  0  0  0  0  0
  189.9840  175.7390  138.4870 O   0  0  0  0  0  0  0  0  0  0  0  0
  191.6970  176.1180  136.8830 C   0  0  0  0  0  1  0  0  0  0  0  0
  191.1280  175.1750  137.9230 C   0  0  0  0  0  2  0  0  0  0  0  0
  186.7820  178.3890  137.8650 O   0  0  0  0  0  0  0  0  0  0  0  0
  186.0110  177.3340  137.3670 C   0  0  0  0  0  2  0  0  0  0  0  0
  184.2840  177.5540  137.8820 S   0  0  0  0  0  1  0  0  0  0  0  0
  1 18  1  6  0  0  0
  1  2  1  0  0  0  0
  1  8  1  0  0  0  0
  2  3  2  0  0  0  0
  4  2  1  0  0  0  0
  4  5  1  0  0  0  0
  6  5  1  0  0  0  0
  8  7  1  6  0  0  0
  8  9  1  0  0  0  0
  9 10  1  6  0  0  0
  9 12  1  0  0  0  0
 10 11  1  0  0  0  0
 12 13  1  0  0  0  0
 13 14  1  0  0  0  0
 14 16  1  0  0  0  0
 15 16  1  0  0  0  0
 16 17  1  0  0  0  0
 19 18  1  0  0  0  0
 20 24  1  6  0  0  0
 20 19  1  0  0  0  0
 22 20  1  0  0  0  0
 23 21  1  6  0  0  0
 23 28  1  0  0  0  0
 23 22  1  0  0  0  0
 23 20  1  0  0  0  0
 25 24  1  0  0  0  0
 26 27  1  0  0  0  0
 27 25  1  0  0  0  0
 29 28  1  0  0  0  0
 29 30  1  0  0  0  0
M  END
>  <MODEL>
7

>  <REMARK>
 VINA RESULT:      -5.4      1.871      2.340
  Name = 
  18 active torsions:
  status: ('A' for Active; 'I' for Inactive)
    1  A    between atoms: C_1  and  C_4
    2  A    between atoms: C_1  and  C_22
    3  A    between atoms: C_2  and  N_14
    4  A    between atoms: C_2  and  C_29
    5  A    between atoms: C_3  and  C_11
    6  A    between atoms: C_4  and  C_5
    7  A    between atoms: C_5  and  O_21
    8  A    between atoms: C_11  and  C_23
    9  A    between atoms: C_11  and  C_24
   10  A    between atoms: C_12  and  O_27
   11  A    between atoms: C_13  and  O_27
   12  A    between atoms: N_14  and  C_20
   13  A    between atoms: O_15  and  C_24
   14  A    between atoms: O_15  and  C_25
   15  A    between atoms: C_16  and  C_25
   16  A    between atoms: C_17  and  O_21
   17  A    between atoms: C_22  and  C_29
   18  A    between atoms: C_23  and  C_29
                            x       y       z     vdW  Elec       q    Type
                         _______ _______ _______ _____ _____    ______ ____

>  <TORSDO>
F 18

$$$$
=
 OpenBabel11052412393D

 30 30  0  0  1  0  0  0  0  0999 V2000
  189.0500  178.0060  143.3470 C   0  0  2  0  0  3  0  0  0  0  0  0
  190.2540  178.3360  144.1860 C   0  0  0  0  0  0  0  0  0  0  0  0
  191.2380  179.5940  143.7800 S   0  0  0  0  0  0  0  0  0  0  0  0
  190.4820  177.5820  145.3810 N   0  0  0  0  0  2  0  0  0  0  0  0
  191.6530  176.7460  145.5920 C   0  0  0  0  0  2  0  0  0  0  0  0
  191.7550  175.8180  144.5560 O   0  0  0  0  0  1  0  0  0  0  0  0
  188.1320  175.6470  143.1790 C   0  0  0  0  0  1  0  0  0  0  0  0
  188.1600  176.9340  144.0000 C   0  0  2  0  0  3  0  0  0  0  0  0
  186.7400  177.4410  144.3180 C   0  0  1  0  0  3  0  0  0  0  0  0
  186.6460  178.1680  145.6540 C   0  0  0  0  0  2  0  0  0  0  0  0
  187.4620  177.4400  146.7040 C   0  0  0  0  0  1  0  0  0  0  0  0
  186.2230  178.3420  143.2080 C   0  0  0  0  0  2  0  0  0  0  0  0
  184.9780  177.8880  142.7700 O   0  0  0  0  0  0  0  0  0  0  0  0
  184.1190  178.9740  142.9560 C   0  0  0  0  0  2  0  0  0  0  0  0
  183.4810  179.3210  145.2370 O   0  0  0  0  0  1  0  0  0  0  0  0
  183.1140  178.6710  144.0570 C   0  0  0  0  0  3  0  0  0  0  0  0
  181.8370  179.0840  143.6700 O   0  0  0  0  0  1  0  0  0  0  0  0
  189.5040  177.5570  141.9610 C   0  0  0  0  0  2  0  0  0  0  0  0
  188.7730  178.3180  140.8610 C   0  0  0  0  0  2  0  0  0  0  0  0
  189.3140  177.9740  139.4730 C   0  0  2  0  0  0  0  0  0  0  0  0
  188.7110  177.0700  137.1980 O   0  0  0  0  0  1  0  0  0  0  0  0
  189.0570  179.0920  138.4730 C   0  0  0  0  0  2  0  0  0  0  0  0
  188.3190  177.7750  138.3420 C   0  0  2  0  0  0  0  0  0  0  0  0
  190.7010  177.3580  139.3100 C   0  0  0  0  0  2  0  0  0  0  0  0
  190.6270  175.9690  139.4270 O   0  0  0  0  0  0  0  0  0  0  0  0
  192.5160  176.1400  137.9950 C   0  0  0  0  0  1  0  0  0  0  0  0
  191.1710  175.4880  138.2360 C   0  0  0  0  0  2  0  0  0  0  0  0
  186.9440  177.9200  138.5780 O   0  0  0  0  0  0  0  0  0  0  0  0
  186.3410  178.0030  137.3200 C   0  0  0  0  0  2  0  0  0  0  0  0
  185.0270  176.7570  137.1990 S   0  0  0  0  0  1  0  0  0  0  0  0
  1 18  1  6  0  0  0
  1  8  1  0  0  0  0
  1  2  1  0  0  0  0
  2  4  1  0  0  0  0
  3  2  2  0  0  0  0
  4  5  1  0  0  0  0
  6  5  1  0  0  0  0
  8  7  1  6  0  0  0
  8  9  1  0  0  0  0
  9 12  1  6  0  0  0
  9 10  1  0  0  0  0
 10 11  1  0  0  0  0
 13 14  1  0  0  0  0
 13 12  1  0  0  0  0
 14 16  1  0  0  0  0
 16 15  1  0  0  0  0
 17 16  1  0  0  0  0
 19 18  1  0  0  0  0
 20 24  1  6  0  0  0
 20 19  1  0  0  0  0
 22 20  1  0  0  0  0
 23 21  1  6  0  0  0
 23 22  1  0  0  0  0
 23 28  1  0  0  0  0
 23 20  1  0  0  0  0
 24 25  1  0  0  0  0
 26 27  1  0  0  0  0
 27 25  1  0  0  0  0
 29 28  1  0  0  0  0
 30 29  1  0  0  0  0
M  END
>  <MODEL>
8

>  <REMARK>
 VINA RESULT:      -5.2      2.531      4.084
  Name = 
  18 active torsions:
  status: ('A' for Active; 'I' for Inactive)
    1  A    between atoms: C_1  and  C_4
    2  A    between atoms: C_1  and  C_22
    3  A    between atoms: C_2  and  N_14
    4  A    between atoms: C_2  and  C_29
    5  A    between atoms: C_3  and  C_11
    6  A    between atoms: C_4  and  C_5
    7  A    between atoms: C_5  and  O_21
    8  A    between atoms: C_11  and  C_23
    9  A    between atoms: C_11  and  C_24
   10  A    between atoms: C_12  and  O_27
   11  A    between atoms: C_13  and  O_27
   12  A    between atoms: N_14  and  C_20
   13  A    between atoms: O_15  and  C_24
   14  A    between atoms: O_15  and  C_25
   15  A    between atoms: C_16  and  C_25
   16  A    between atoms: C_17  and  O_21
   17  A    between atoms: C_22  and  C_29
   18  A    between atoms: C_23  and  C_29
                            x       y       z     vdW  Elec       q    Type
                         _______ _______ _______ _____ _____    ______ ____

>  <TORSDO>
F 18

$$$$
=
 OpenBabel11052412393D

 30 30  0  0  1  0  0  0  0  0999 V2000
  189.3150  177.0220  139.3610 C   0  0  2  0  0  3  0  0  0  0  0  0
  190.7420  176.5500  139.3030 C   0  0  0  0  0  0  0  0  0  0  0  0
  191.9370  177.4010  140.0540 S   0  0  0  0  0  0  0  0  0  0  0  0
  191.0250  175.3100  138.6470 N   0  0  0  0  0  2  0  0  0  0  0  0
  191.9800  175.1770  137.5590 C   0  0  0  0  0  2  0  0  0  0  0  0
  191.9300  173.8800  137.0510 O   0  0  0  0  0  1  0  0  0  0  0  0
  189.0520  178.8160  137.5860 C   0  0  0  0  0  1  0  0  0  0  0  0
  188.7580  177.3670  137.9690 C   0  0  2  0  0  3  0  0  0  0  0  0
  187.2620  177.0280  137.8150 C   0  0  1  0  0  3  0  0  0  0  0  0
  186.3890  178.2530  137.5750 C   0  0  0  0  0  2  0  0  0  0  0  0
  185.2070  178.2470  138.5240 C   0  0  0  0  0  1  0  0  0  0  0  0
  187.0460  176.0180  136.6990 C   0  0  0  0  0  2  0  0  0  0  0  0
  187.1080  174.7220  137.2140 O   0  0  0  0  0  0  0  0  0  0  0  0
  186.0700  174.0380  136.5760 C   0  0  0  0  0  2  0  0  0  0  0  0
  184.0220  174.4290  137.7510 O   0  0  0  0  0  1  0  0  0  0  0  0
  185.0710  173.5200  137.6000 C   0  0  0  0  0  3  0  0  0  0  0  0
  184.5660  172.2820  137.1950 O   0  0  0  0  0  1  0  0  0  0  0  0
  189.2150  178.2260  140.2940 C   0  0  0  0  0  2  0  0  0  0  0  0
  188.0750  178.0620  141.2930 C   0  0  0  0  0  2  0  0  0  0  0  0
  188.5860  177.6800  142.6830 C   0  0  2  0  0  0  0  0  0  0  0  0
  188.1400  177.8590  145.1580 O   0  0  0  0  0  1  0  0  0  0  0  0
  187.8880  176.4400  143.2200 C   0  0  0  0  0  2  0  0  0  0  0  0
  187.6280  177.7900  143.8570 C   0  0  2  0  0  0  0  0  0  0  0  0
  190.0810  177.6820  142.9890 C   0  0  0  0  0  2  0  0  0  0  0  0
  190.4680  178.9260  143.4910 O   0  0  0  0  0  0  0  0  0  0  0  0
  191.5920  177.4030  144.9290 C   0  0  0  0  0  1  0  0  0  0  0  0
  191.6860  178.6840  144.1250 C   0  0  0  0  0  2  0  0  0  0  0  0
  186.3080  178.2180  143.6530 O   0  0  0  0  0  0  0  0  0  0  0  0
  185.7010  178.2200  144.9120 C   0  0  0  0  0  2  0  0  0  0  0  0
  184.0690  179.0040  144.7930 S   0  0  0  0  0  1  0  0  0  0  0  0
  1 18  1  1  0  0  0
  2  1  1  0  0  0  0
  2  3  2  0  0  0  0
  4  2  1  0  0  0  0
  5  4  1  0  0  0  0
  6  5  1  0  0  0  0
  8  7  1  1  0  0  0
  8  1  1  0  0  0  0
  9 12  1  6  0  0  0
  9  8  1  0  0  0  0
 10  9  1  0  0  0  0
 10 11  1  0  0  0  0
 12 13  1  0  0  0  0
 14 13  1  0  0  0  0
 14 16  1  0  0  0  0
 16 15  1  0  0  0  0
 17 16  1  0  0  0  0
 18 19  1  0  0  0  0
 20 19  1  6  0  0  0
 20 24  1  0  0  0  0
 20 22  1  0  0  0  0
 20 23  1  0  0  0  0
 22 23  1  0  0  0  0
 23 21  1  1  0  0  0
 24 25  1  0  0  0  0
 25 27  1  0  0  0  0
 27 26  1  0  0  0  0
 28 23  1  0  0  0  0
 28 29  1  0  0  0  0
 30 29  1  0  0  0  0
M  END
>  <MODEL>
9

>  <REMARK>
 VINA RESULT:      -5.1      2.759      7.558
  Name = 
  18 active torsions:
  status: ('A' for Active; 'I' for Inactive)
    1  A    between atoms: C_1  and  C_4
    2  A    between atoms: C_1  and  C_22
    3  A    between atoms: C_2  and  N_14
    4  A    between atoms: C_2  and  C_29
    5  A    between atoms: C_3  and  C_11
    6  A    between atoms: C_4  and  C_5
    7  A    between atoms: C_5  and  O_21
    8  A    between atoms: C_11  and  C_23
    9  A    between atoms: C_11  and  C_24
   10  A    between atoms: C_12  and  O_27
   11  A    between atoms: C_13  and  O_27
   12  A    between atoms: N_14  and  C_20
   13  A    between atoms: O_15  and  C_24
   14  A    between atoms: O_15  and  C_25
   15  A    between atoms: C_16  and  C_25
   16  A    between atoms: C_17  and  O_21
   17  A    between atoms: C_22  and  C_29
   18  A    between atoms: C_23  and  C_29
                            x       y       z     vdW  Elec       q    Type
                         _______ _______ _______ _____ _____    ______ ____

>  <TORSDO>
F 18

$$$$
