=
 OpenBabel11052414333D

 32 34  0  0  1  0  0  0  0  0999 V2000
  189.2470  178.5180  140.1730 C   0  0  2  0  0  3  0  0  0  0  0  0
  187.7350  178.2830  140.2690 C   0  0  2  0  0  0  0  0  0  0  0  0
  189.9300  177.9960  138.8940 C   0  0  2  0  0  3  0  0  0  0  0  0
  188.6950  177.3660  141.0230 C   0  0  2  0  0  3  0  0  0  0  0  0
  188.9850  177.7940  137.7070 C   0  0  1  0  0  3  0  0  0  0  0  0
  190.6860  176.8450  139.1540 O   0  0  0  0  0  1  0  0  0  0  0  0
  186.9670  177.5710  139.1450 C   0  0  0  0  0  2  0  0  0  0  0  0
  189.7520  177.2680  136.5020 C   0  0  0  0  0  1  0  0  0  0  0  0
  187.8430  176.8680  138.1110 C   0  0  1  0  0  3  0  0  0  0  0  0
  191.3970  177.5960  142.5090 C   0  0  0  0  0  2  0  0  0  0  0  0
  189.9270  175.4850  143.1410 C   0  0  0  0  0  2  0  0  0  0  0  0
  188.7620  176.4390  143.3770 C   0  0  0  0  0  2  0  0  0  0  0  0
  188.8670  177.6960  142.5080 C   0  0  0  0  0  3  0  0  0  0  0  0
  191.4830  176.2370  143.7170 S   0  0  0  0  0  0  0  0  0  0  0  0
  190.1670  178.4580  142.7720 C   0  0  0  0  0  2  0  0  0  0  0  0
  186.9390  179.2890  141.1140 C   0  0  0  0  0  2  0  0  0  0  0  0
  185.5380  178.8220  141.5260 C   0  0  2  0  0  3  0  0  0  0  0  0
  184.5850  179.8790  139.6160 O   0  0  0  0  0  0  0  0  0  0  0  0
  184.5320  178.9040  140.4130 C   0  0  0  0  0  0  0  0  0  0  0  0
  183.0390  177.4910  139.0820 C   0  0  0  0  0  2  0  0  0  0  0  0
  183.4780  177.8860  140.2700 C   0  0  0  0  0  3  0  0  0  0  0  0
  185.0750  179.4630  142.8320 C   0  0  0  0  0  2  0  0  0  0  0  0
  185.2400  178.5230  143.9830 C   0  0  0  0  0  0  0  0  0  0  0  0
  185.6630  177.3550  143.7740 O   0  0  0  0  0  0  0  0  0  0  0  0
  184.9140  178.9480  145.3500 C   0  0  0  0  0  0  0  0  0  0  0  0
  183.7150  178.9500  145.7430 O   0  0  0  0  0  0  0  0  0  0  0  0
  185.9400  179.3530  146.2070 O   0  0  0  0  0  0  0  0  0  0  0  0
  187.5200  177.6270  146.7150 C   0  0  0  0  0  1  0  0  0  0  0  0
  186.4190  178.5180  147.2490 C   0  0  0  0  0  2  0  0  0  0  0  0
  187.0230  176.5280  136.9580 N   0  0  0  0  0  2  0  0  0  0  0  0
  186.0040  177.5570  136.8380 C   0  0  0  0  0  2  0  0  0  0  0  0
  184.9320  177.0950  135.8750 C   0  0  0  0  0  1  0  0  0  0  0  0
  1  2  1  0  0  0  0
  1  4  1  0  0  0  0
  2  4  1  0  0  0  0
  2 16  1  0  0  0  0
  3  6  1  0  0  0  0
  3  1  1  0  0  0  0
  4 13  1  0  0  0  0
  5  9  1  0  0  0  0
  5  3  1  0  0  0  0
  7  2  1  0  0  0  0
  8  5  1  0  0  0  0
  9  7  1  0  0  0  0
 10 15  1  0  0  0  0
 10 14  1  0  0  0  0
 11 12  1  0  0  0  0
 11 14  1  0  0  0  0
 13 15  1  0  0  0  0
 13 12  1  0  0  0  0
 16 17  1  0  0  0  0
 17 22  1  0  0  0  0
 18 19  2  0  0  0  0
 19 17  1  0  0  0  0
 20 21  2  0  0  0  0
 21 19  1  0  0  0  0
 22 23  1  0  0  0  0
 23 25  1  0  0  0  0
 24 23  2  0  0  0  0
 25 26  2  0  0  0  0
 25 27  1  0  0  0  0
 27 29  1  0  0  0  0
 28 29  1  0  0  0  0
 30  9  1  0  0  0  0
 31 30  1  0  0  0  0
 32 31  1  0  0  0  0
M  END
>  <MODEL>
1

>  <REMARK>
 VINA RESULT:      -6.1      0.000      0.000
  Name = 
  12 active torsions:
  status: ('A' for Active; 'I' for Inactive)
    1  A    between atoms: C_1  and  C_5
    2  A    between atoms: C_1  and  C_24
    3  A    between atoms: C_3  and  O_15
    4  A    between atoms: C_3  and  C_22
    5  A    between atoms: C_10  and  C_28
    6  A    between atoms: N_14  and  C_21
    7  A    between atoms: N_14  and  C_29
    8  A    between atoms: O_15  and  C_26
    9  A    between atoms: C_16  and  C_20
   10  A    between atoms: C_16  and  C_24
   11  A    between atoms: C_22  and  C_27
   12  A    between atoms: C_24  and  C_27
                            x       y       z     vdW  Elec       q    Type
                         _______ _______ _______ _____ _____    ______ ____

>  <TORSDO>
F 12

$$$$
=
 OpenBabel11052414333D

 32 34  0  0  1  0  0  0  0  0999 V2000
  182.4060  179.3350  139.4370 C   0  0  2  0  0  3  0  0  0  0  0  0
  182.3210  178.1010  140.3430 C   0  0  2  0  0  0  0  0  0  0  0  0
  181.1940  180.2860  139.4780 C   0  0  2  0  0  3  0  0  0  0  0  0
  182.0270  177.9690  138.8510 C   0  0  2  0  0  3  0  0  0  0  0  0
  180.3370  180.1680  140.7400 C   0  0  1  0  0  3  0  0  0  0  0  0
  180.4200  180.1730  138.3150 O   0  0  0  0  0  1  0  0  0  0  0  0
  181.0920  177.8490  141.2310 C   0  0  0  0  0  2  0  0  0  0  0  0
  179.1640  181.1370  140.6780 C   0  0  0  0  0  1  0  0  0  0  0  0
  179.8810  178.7240  140.9200 C   0  0  1  0  0  3  0  0  0  0  0  0
  181.8330  177.0330  135.9100 C   0  0  0  0  0  2  0  0  0  0  0  0
  182.2210  175.1120  137.6910 C   0  0  0  0  0  2  0  0  0  0  0  0
  183.3900  175.9280  138.2320 C   0  0  0  0  0  2  0  0  0  0  0  0
  183.1890  177.4300  138.0110 C   0  0  0  0  0  3  0  0  0  0  0  0
  182.1490  175.2410  135.8760 S   0  0  0  0  0  0  0  0  0  0  0  0
  183.0190  177.7660  136.5280 C   0  0  0  0  0  2  0  0  0  0  0  0
  183.6550  177.5200  140.8350 C   0  0  0  0  0  2  0  0  0  0  0  0
  184.4820  178.4600  141.7190 C   0  0  2  0  0  3  0  0  0  0  0  0
  185.6430  179.4820  139.9080 O   0  0  0  0  0  0  0  0  0  0  0  0
  185.7320  178.9600  141.0510 C   0  0  0  0  0  0  0  0  0  0  0  0
  188.0970  178.3240  141.0580 C   0  0  0  0  0  2  0  0  0  0  0  0
  187.0460  178.8150  141.7000 C   0  0  0  0  0  3  0  0  0  0  0  0
  184.7090  177.8900  143.1170 C   0  0  0  0  0  2  0  0  0  0  0  0
  184.4480  178.9200  144.1690 C   0  0  0  0  0  0  0  0  0  0  0  0
  183.6720  179.8790  143.9190 O   0  0  0  0  0  0  0  0  0  0  0  0
  185.0860  178.8230  145.4880 C   0  0  0  0  0  0  0  0  0  0  0  0
  184.3840  178.8580  146.5350 O   0  0  0  0  0  0  0  0  0  0  0  0
  186.4740  178.6960  145.5720 O   0  0  0  0  0  0  0  0  0  0  0  0
  188.5710  177.5580  145.7870 C   0  0  0  0  0  1  0  0  0  0  0  0
  187.0900  177.5340  146.1030 C   0  0  0  0  0  2  0  0  0  0  0  0
  178.9320  178.6160  142.0170 N   0  0  0  0  0  2  0  0  0  0  0  0
  179.7020  178.3950  143.2290 C   0  0  0  0  0  2  0  0  0  0  0  0
  179.1620  179.2730  144.3370 C   0  0  0  0  0  1  0  0  0  0  0  0
  1  3  1  0  0  0  0
  1  2  1  0  0  0  0
  2 16  1  0  0  0  0
  2  7  1  0  0  0  0
  3  5  1  0  0  0  0
  4  1  1  0  0  0  0
  4  2  1  0  0  0  0
  5  9  1  0  0  0  0
  6  3  1  0  0  0  0
  8  5  1  0  0  0  0
  9  7  1  0  0  0  0
  9 30  1  0  0  0  0
 10 15  1  0  0  0  0
 11 12  1  0  0  0  0
 13 12  1  0  0  0  0
 13  4  1  0  0  0  0
 14 10  1  0  0  0  0
 14 11  1  0  0  0  0
 15 13  1  0  0  0  0
 16 17  1  0  0  0  0
 17 22  1  0  0  0  0
 18 19  2  0  0  0  0
 19 21  1  0  0  0  0
 19 17  1  0  0  0  0
 20 21  2  0  0  0  0
 22 23  1  0  0  0  0
 23 25  1  0  0  0  0
 24 23  2  0  0  0  0
 25 27  1  0  0  0  0
 25 26  2  0  0  0  0
 27 29  1  0  0  0  0
 28 29  1  0  0  0  0
 30 31  1  0  0  0  0
 31 32  1  0  0  0  0
M  END
>  <MODEL>
2

>  <REMARK>
 VINA RESULT:      -6.0      3.741      7.111
  Name = 
  12 active torsions:
  status: ('A' for Active; 'I' for Inactive)
    1  A    between atoms: C_1  and  C_5
    2  A    between atoms: C_1  and  C_24
    3  A    between atoms: C_3  and  O_15
    4  A    between atoms: C_3  and  C_22
    5  A    between atoms: C_10  and  C_28
    6  A    between atoms: N_14  and  C_21
    7  A    between atoms: N_14  and  C_29
    8  A    between atoms: O_15  and  C_26
    9  A    between atoms: C_16  and  C_20
   10  A    between atoms: C_16  and  C_24
   11  A    between atoms: C_22  and  C_27
   12  A    between atoms: C_24  and  C_27
                            x       y       z     vdW  Elec       q    Type
                         _______ _______ _______ _____ _____    ______ ____

>  <TORSDO>
F 12

$$$$
=
 OpenBabel11052414333D

 32 34  0  0  1  0  0  0  0  0999 V2000
  183.1220  177.4550  139.4660 C   0  0  2  0  0  3  0  0  0  0  0  0
  184.3020  178.3960  139.1960 C   0  0  2  0  0  0  0  0  0  0  0  0
  183.0660  176.1800  138.6010 C   0  0  2  0  0  3  0  0  0  0  0  0
  182.9270  178.7170  138.6150 C   0  0  2  0  0  3  0  0  0  0  0  0
  184.4060  175.7720  137.9860 C   0  0  1  0  0  3  0  0  0  0  0  0
  182.0570  176.2670  137.6330 O   0  0  0  0  0  1  0  0  0  0  0  0
  185.3540  178.0670  138.1250 C   0  0  0  0  0  2  0  0  0  0  0  0
  184.2410  174.5130  137.1450 C   0  0  0  0  0  1  0  0  0  0  0  0
  184.9760  176.9320  137.1780 C   0  0  1  0  0  3  0  0  0  0  0  0
  179.8450  178.9630  138.6210 C   0  0  0  0  0  2  0  0  0  0  0  0
  181.1380  180.9140  137.3830 C   0  0  0  0  0  2  0  0  0  0  0  0
  181.9900  181.0680  138.6390 C   0  0  0  0  0  2  0  0  0  0  0  0
  182.1190  179.7500  139.4070 C   0  0  0  0  0  3  0  0  0  0  0  0
  179.4130  180.5460  137.8340 S   0  0  0  0  0  0  0  0  0  0  0  0
  180.7530  179.2010  139.8230 C   0  0  0  0  0  2  0  0  0  0  0  0
  184.7690  179.2620  140.3750 C   0  0  0  0  0  2  0  0  0  0  0  0
  185.5070  178.5020  141.4820 C   0  0  2  0  0  3  0  0  0  0  0  0
  185.2940  177.9560  143.7910 O   0  0  0  0  0  0  0  0  0  0  0  0
  184.7190  178.3930  142.7570 C   0  0  0  0  0  0  0  0  0  0  0  0
  182.6770  179.0560  143.9340 C   0  0  0  0  0  2  0  0  0  0  0  0
  183.2930  178.7570  142.7990 C   0  0  0  0  0  3  0  0  0  0  0  0
  186.9370  179.0030  141.6760 C   0  0  0  0  0  2  0  0  0  0  0  0
  187.9160  177.8740  141.6230 C   0  0  0  0  0  0  0  0  0  0  0  0
  188.3860  177.5120  140.5120 O   0  0  0  0  0  0  0  0  0  0  0  0
  188.3340  177.1860  142.8510 C   0  0  0  0  0  0  0  0  0  0  0  0
  188.2980  175.9270  142.9140 O   0  0  0  0  0  0  0  0  0  0  0  0
  188.7650  177.9370  143.9470 O   0  0  0  0  0  0  0  0  0  0  0  0
  190.8970  179.0270  143.9210 C   0  0  0  0  0  1  0  0  0  0  0  0
  190.0940  177.8520  144.4360 C   0  0  0  0  0  2  0  0  0  0  0  0
  186.1650  176.5160  136.4480 N   0  0  0  0  0  2  0  0  0  0  0  0
  187.3150  176.9530  137.2200 C   0  0  0  0  0  2  0  0  0  0  0  0
  188.5390  176.1770  136.7840 C   0  0  0  0  0  1  0  0  0  0  0  0
  2  1  1  0  0  0  0
  2 16  1  0  0  0  0
  3  1  1  0  0  0  0
  4  2  1  0  0  0  0
  4 13  1  0  0  0  0
  4  1  1  0  0  0  0
  5  3  1  0  0  0  0
  6  3  1  0  0  0  0
  7  2  1  0  0  0  0
  8  5  1  0  0  0  0
  9  5  1  0  0  0  0
  9  7  1  0  0  0  0
 10 15  1  0  0  0  0
 11 14  1  0  0  0  0
 11 12  1  0  0  0  0
 12 13  1  0  0  0  0
 13 15  1  0  0  0  0
 14 10  1  0  0  0  0
 16 17  1  0  0  0  0
 17 22  1  0  0  0  0
 17 19  1  0  0  0  0
 19 21  1  0  0  0  0
 19 18  2  0  0  0  0
 21 20  2  0  0  0  0
 23 22  1  0  0  0  0
 23 25  1  0  0  0  0
 24 23  2  0  0  0  0
 25 26  2  0  0  0  0
 25 27  1  0  0  0  0
 27 29  1  0  0  0  0
 28 29  1  0  0  0  0
 30  9  1  0  0  0  0
 30 31  1  0  0  0  0
 32 31  1  0  0  0  0
M  END
>  <MODEL>
3

>  <REMARK>
 VINA RESULT:      -5.9      3.347      6.302
  Name = 
  12 active torsions:
  status: ('A' for Active; 'I' for Inactive)
    1  A    between atoms: C_1  and  C_5
    2  A    between atoms: C_1  and  C_24
    3  A    between atoms: C_3  and  O_15
    4  A    between atoms: C_3  and  C_22
    5  A    between atoms: C_10  and  C_28
    6  A    between atoms: N_14  and  C_21
    7  A    between atoms: N_14  and  C_29
    8  A    between atoms: O_15  and  C_26
    9  A    between atoms: C_16  and  C_20
   10  A    between atoms: C_16  and  C_24
   11  A    between atoms: C_22  and  C_27
   12  A    between atoms: C_24  and  C_27
                            x       y       z     vdW  Elec       q    Type
                         _______ _______ _______ _____ _____    ______ ____

>  <TORSDO>
F 12

$$$$
=
 OpenBabel11052414333D

 32 34  0  0  1  0  0  0  0  0999 V2000
  188.1520  176.8050  142.7180 C   0  0  2  0  0  3  0  0  0  0  0  0
  188.3660  177.4700  141.3530 C   0  0  2  0  0  0  0  0  0  0  0  0
  186.8960  177.2480  143.4940 C   0  0  2  0  0  3  0  0  0  0  0  0
  189.1530  177.9580  142.5670 C   0  0  2  0  0  3  0  0  0  0  0  0
  185.7990  177.8670  142.6240 C   0  0  1  0  0  3  0  0  0  0  0  0
  187.2310  178.0780  144.5720 O   0  0  0  0  0  1  0  0  0  0  0  0
  187.3750  178.5110  140.8110 C   0  0  0  0  0  2  0  0  0  0  0  0
  184.6120  178.2810  143.4830 C   0  0  0  0  0  1  0  0  0  0  0  0
  186.3700  179.0380  141.8310 C   0  0  1  0  0  3  0  0  0  0  0  0
  190.2620  176.2540  144.8970 C   0  0  0  0  0  2  0  0  0  0  0  0
  191.2070  178.7230  144.7450 C   0  0  0  0  0  2  0  0  0  0  0  0
  191.5320  178.4470  143.2810 C   0  0  0  0  0  2  0  0  0  0  0  0
  190.5810  177.4140  142.6690 C   0  0  0  0  0  3  0  0  0  0  0  0
  191.5300  177.2400  145.7520 S   0  0  0  0  0  0  0  0  0  0  0  0
  190.6280  176.0850  143.4260 C   0  0  0  0  0  2  0  0  0  0  0  0
  189.1460  176.6560  140.3110 C   0  0  0  0  0  2  0  0  0  0  0  0
  189.8600  177.4900  139.2400 C   0  0  2  0  0  3  0  0  0  0  0  0
  189.3990  178.5050  137.1360 O   0  0  0  0  0  0  0  0  0  0  0  0
  189.0850  177.6030  137.9580 C   0  0  0  0  0  0  0  0  0  0  0  0
  186.8040  177.1490  137.1910 C   0  0  0  0  0  2  0  0  0  0  0  0
  187.9550  176.7030  137.6750 C   0  0  0  0  0  3  0  0  0  0  0  0
  191.3150  177.0670  139.0520 C   0  0  0  0  0  2  0  0  0  0  0  0
  191.4250  175.9190  138.1000 C   0  0  0  0  0  0  0  0  0  0  0  0
  190.8280  174.8410  138.3570 O   0  0  0  0  0  0  0  0  0  0  0  0
  192.2230  176.0380  136.8730 C   0  0  0  0  0  0  0  0  0  0  0  0
  191.6510  176.0890  135.7490 O   0  0  0  0  0  0  0  0  0  0  0  0
  193.6150  176.0870  136.9600 O   0  0  0  0  0  0  0  0  0  0  0  0
  194.1080  173.7450  136.8610 C   0  0  0  0  0  1  0  0  0  0  0  0
  194.3650  175.0530  137.5790 C   0  0  0  0  0  2  0  0  0  0  0  0
  185.3130  179.7460  141.1250 N   0  0  0  0  0  2  0  0  0  0  0  0
  185.0230  178.9890  139.9200 C   0  0  0  0  0  2  0  0  0  0  0  0
  183.6620  179.3870  139.3900 C   0  0  0  0  0  1  0  0  0  0  0  0
  1  3  1  0  0  0  0
  2  4  1  0  0  0  0
  2  1  1  0  0  0  0
  3  6  1  0  0  0  0
  4 13  1  0  0  0  0
  4  1  1  0  0  0  0
  5  8  1  0  0  0  0
  5  3  1  0  0  0  0
  7  2  1  0  0  0  0
  7  9  1  0  0  0  0
  9  5  1  0  0  0  0
 10 14  1  0  0  0  0
 11 14  1  0  0  0  0
 12 11  1  0  0  0  0
 13 12  1  0  0  0  0
 13 15  1  0  0  0  0
 15 10  1  0  0  0  0
 16  2  1  0  0  0  0
 17 16  1  0  0  0  0
 18 19  2  0  0  0  0
 19 17  1  0  0  0  0
 20 21  2  0  0  0  0
 21 19  1  0  0  0  0
 22 17  1  0  0  0  0
 23 24  2  0  0  0  0
 23 22  1  0  0  0  0
 25 27  1  0  0  0  0
 25 23  1  0  0  0  0
 26 25  2  0  0  0  0
 27 29  1  0  0  0  0
 28 29  1  0  0  0  0
 30  9  1  0  0  0  0
 31 30  1  0  0  0  0
 32 31  1  0  0  0  0
M  END
>  <MODEL>
4

>  <REMARK>
 VINA RESULT:      -5.7      2.392      6.767
  Name = 
  12 active torsions:
  status: ('A' for Active; 'I' for Inactive)
    1  A    between atoms: C_1  and  C_5
    2  A    between atoms: C_1  and  C_24
    3  A    between atoms: C_3  and  O_15
    4  A    between atoms: C_3  and  C_22
    5  A    between atoms: C_10  and  C_28
    6  A    between atoms: N_14  and  C_21
    7  A    between atoms: N_14  and  C_29
    8  A    between atoms: O_15  and  C_26
    9  A    between atoms: C_16  and  C_20
   10  A    between atoms: C_16  and  C_24
   11  A    between atoms: C_22  and  C_27
   12  A    between atoms: C_24  and  C_27
                            x       y       z     vdW  Elec       q    Type
                         _______ _______ _______ _____ _____    ______ ____

>  <TORSDO>
F 12

$$$$
=
 OpenBabel11052414333D

 32 34  0  0  1  0  0  0  0  0999 V2000
  183.7890  177.1230  136.2280 C   0  0  2  0  0  3  0  0  0  0  0  0
  184.9810  177.3370  137.1690 C   0  0  2  0  0  0  0  0  0  0  0  0
  182.4260  177.6300  136.7410 C   0  0  2  0  0  3  0  0  0  0  0  0
  184.3150  175.9660  137.0870 C   0  0  2  0  0  3  0  0  0  0  0  0
  182.5170  178.7000  137.8310 C   0  0  1  0  0  3  0  0  0  0  0  0
  181.6010  176.5660  137.1270 O   0  0  0  0  0  1  0  0  0  0  0  0
  184.8040  178.0200  138.5340 C   0  0  0  0  0  2  0  0  0  0  0  0
  181.1230  179.1230  138.2760 C   0  0  0  0  0  1  0  0  0  0  0  0
  183.3580  178.1800  138.9930 C   0  0  1  0  0  3  0  0  0  0  0  0
  183.1170  173.3090  136.0550 C   0  0  0  0  0  2  0  0  0  0  0  0
  185.0180  173.0650  137.8830 C   0  0  0  0  0  2  0  0  0  0  0  0
  185.8820  173.9800  137.0230 C   0  0  0  0  0  2  0  0  0  0  0  0
  185.0380  174.9520  136.1950 C   0  0  0  0  0  3  0  0  0  0  0  0
  184.0430  171.9450  136.8280 S   0  0  0  0  0  0  0  0  0  0  0  0
  184.0640  174.2130  135.2740 C   0  0  0  0  0  2  0  0  0  0  0  0
  186.3590  177.4730  136.5060 C   0  0  0  0  0  2  0  0  0  0  0  0
  187.4770  177.9660  137.4320 C   0  0  2  0  0  3  0  0  0  0  0  0
  189.1220  179.6600  137.1230 O   0  0  0  0  0  0  0  0  0  0  0  0
  188.6340  178.5790  136.6960 C   0  0  0  0  0  0  0  0  0  0  0  0
  189.9340  176.8660  135.5240 C   0  0  0  0  0  2  0  0  0  0  0  0
  189.1740  177.9520  135.4790 C   0  0  0  0  0  3  0  0  0  0  0  0
  187.8810  176.9140  138.4630 C   0  0  0  0  0  2  0  0  0  0  0  0
  188.5250  177.5460  139.6550 C   0  0  0  0  0  0  0  0  0  0  0  0
  188.0480  178.6120  140.1260 O   0  0  0  0  0  0  0  0  0  0  0  0
  189.7060  176.9370  140.2800 C   0  0  0  0  0  0  0  0  0  0  0  0
  190.4750  176.2040  139.5980 O   0  0  0  0  0  0  0  0  0  0  0  0
  189.9680  177.1720  141.6310 O   0  0  0  0  0  0  0  0  0  0  0  0
  188.6480  176.2220  143.3900 C   0  0  0  0  0  1  0  0  0  0  0  0
  189.9320  176.1290  142.5930 C   0  0  0  0  0  2  0  0  0  0  0  0
  183.3220  179.1110  140.1110 N   0  0  0  0  0  2  0  0  0  0  0  0
  184.6010  179.0100  140.7930 C   0  0  0  0  0  2  0  0  0  0  0  0
  184.3970  178.3840  142.1560 C   0  0  0  0  0  1  0  0  0  0  0  0
  1  3  1  0  0  0  0
  1  4  1  0  0  0  0
  1  2  1  0  0  0  0
  2  7  1  0  0  0  0
  3  6  1  0  0  0  0
  3  5  1  0  0  0  0
  4  2  1  0  0  0  0
  5  8  1  0  0  0  0
  5  9  1  0  0  0  0
  7  9  1  0  0  0  0
  9 30  1  0  0  0  0
 10 14  1  0  0  0  0
 12 11  1  0  0  0  0
 13 12  1  0  0  0  0
 13  4  1  0  0  0  0
 14 11  1  0  0  0  0
 15 10  1  0  0  0  0
 15 13  1  0  0  0  0
 16  2  1  0  0  0  0
 16 17  1  0  0  0  0
 17 22  1  0  0  0  0
 19 18  2  0  0  0  0
 19 17  1  0  0  0  0
 21 20  2  0  0  0  0
 21 19  1  0  0  0  0
 22 23  1  0  0  0  0
 23 24  2  0  0  0  0
 23 25  1  0  0  0  0
 25 27  1  0  0  0  0
 26 25  2  0  0  0  0
 27 29  1  0  0  0  0
 29 28  1  0  0  0  0
 30 31  1  0  0  0  0
 31 32  1  0  0  0  0
M  END
>  <MODEL>
5

>  <REMARK>
 VINA RESULT:      -5.7      3.413      7.010
  Name = 
  12 active torsions:
  status: ('A' for Active; 'I' for Inactive)
    1  A    between atoms: C_1  and  C_5
    2  A    between atoms: C_1  and  C_24
    3  A    between atoms: C_3  and  O_15
    4  A    between atoms: C_3  and  C_22
    5  A    between atoms: C_10  and  C_28
    6  A    between atoms: N_14  and  C_21
    7  A    between atoms: N_14  and  C_29
    8  A    between atoms: O_15  and  C_26
    9  A    between atoms: C_16  and  C_20
   10  A    between atoms: C_16  and  C_24
   11  A    between atoms: C_22  and  C_27
   12  A    between atoms: C_24  and  C_27
                            x       y       z     vdW  Elec       q    Type
                         _______ _______ _______ _____ _____    ______ ____

>  <TORSDO>
F 12

$$$$
=
 OpenBabel11052414333D

 32 34  0  0  1  0  0  0  0  0999 V2000
  184.3530  177.2940  136.5600 C   0  0  2  0  0  3  0  0  0  0  0  0
  185.7210  177.5060  137.2200 C   0  0  2  0  0  0  0  0  0  0  0  0
  183.1380  177.8430  137.3350 C   0  0  2  0  0  3  0  0  0  0  0  0
  185.0310  176.1480  137.3220 C   0  0  2  0  0  3  0  0  0  0  0  0
  183.4760  178.9370  138.3490 C   0  0  1  0  0  3  0  0  0  0  0  0
  182.3980  176.8060  137.9190 O   0  0  0  0  0  1  0  0  0  0  0  0
  185.8490  178.2280  138.5700 C   0  0  0  0  0  2  0  0  0  0  0  0
  182.2150  179.4020  139.0670 C   0  0  0  0  0  1  0  0  0  0  0  0
  184.5360  178.4310  139.3210 C   0  0  1  0  0  3  0  0  0  0  0  0
  183.3660  173.7900  136.2140 C   0  0  0  0  0  2  0  0  0  0  0  0
  185.2990  173.1250  137.8990 C   0  0  0  0  0  2  0  0  0  0  0  0
  186.2520  173.9490  137.0400 C   0  0  0  0  0  2  0  0  0  0  0  0
  185.5320  175.0960  136.3270 C   0  0  0  0  0  3  0  0  0  0  0  0
  184.1000  172.2480  136.8450 S   0  0  0  0  0  0  0  0  0  0  0  0
  184.4040  174.5850  135.4280 C   0  0  0  0  0  2  0  0  0  0  0  0
  186.9280  177.5960  136.2750 C   0  0  0  0  0  2  0  0  0  0  0  0
  188.2830  177.2970  136.9280 C   0  0  2  0  0  3  0  0  0  0  0  0
  188.7110  179.6220  137.2200 O   0  0  0  0  0  0  0  0  0  0  0  0
  188.8450  178.4620  137.6940 C   0  0  0  0  0  0  0  0  0  0  0  0
  189.0620  177.5360  139.9510 C   0  0  0  0  0  2  0  0  0  0  0  0
  189.5690  178.2560  138.9600 C   0  0  0  0  0  3  0  0  0  0  0  0
  189.2690  176.6620  135.9510 C   0  0  0  0  0  2  0  0  0  0  0  0
  189.9900  175.5130  136.5820 C   0  0  0  0  0  0  0  0  0  0  0  0
  189.4840  174.9370  137.5810 O   0  0  0  0  0  0  0  0  0  0  0  0
  191.2790  175.0530  136.0490 C   0  0  0  0  0  0  0  0  0  0  0  0
  191.4420  173.8390  135.7500 O   0  0  0  0  0  0  0  0  0  0  0  0
  192.3190  175.9690  135.8810 O   0  0  0  0  0  0  0  0  0  0  0  0
  192.9820  176.4010  138.1420 C   0  0  0  0  0  1  0  0  0  0  0  0
  193.4370  176.0010  136.7540 C   0  0  0  0  0  2  0  0  0  0  0  0
  184.7530  179.3900  140.3930 N   0  0  0  0  0  2  0  0  0  0  0  0
  185.5850  178.7370  141.3890 C   0  0  0  0  0  2  0  0  0  0  0  0
  184.7180  178.2580  142.5340 C   0  0  0  0  0  1  0  0  0  0  0  0
  1  2  1  0  0  0  0
  1  4  1  0  0  0  0
  1  3  1  0  0  0  0
  2  4  1  0  0  0  0
  2  7  1  0  0  0  0
  3  6  1  0  0  0  0
  3  5  1  0  0  0  0
  5  8  1  0  0  0  0
  5  9  1  0  0  0  0
  7  9  1  0  0  0  0
  9 30  1  0  0  0  0
 10 14  1  0  0  0  0
 12 11  1  0  0  0  0
 13 12  1  0  0  0  0
 13  4  1  0  0  0  0
 14 11  1  0  0  0  0
 15 10  1  0  0  0  0
 15 13  1  0  0  0  0
 16 17  1  0  0  0  0
 16  2  1  0  0  0  0
 17 19  1  0  0  0  0
 18 19  2  0  0  0  0
 19 21  1  0  0  0  0
 21 20  2  0  0  0  0
 22 23  1  0  0  0  0
 22 17  1  0  0  0  0
 23 24  2  0  0  0  0
 25 23  1  0  0  0  0
 26 25  2  0  0  0  0
 27 25  1  0  0  0  0
 27 29  1  0  0  0  0
 29 28  1  0  0  0  0
 30 31  1  0  0  0  0
 31 32  1  0  0  0  0
M  END
>  <MODEL>
6

>  <REMARK>
 VINA RESULT:      -5.3      3.985      8.041
  Name = 
  12 active torsions:
  status: ('A' for Active; 'I' for Inactive)
    1  A    between atoms: C_1  and  C_5
    2  A    between atoms: C_1  and  C_24
    3  A    between atoms: C_3  and  O_15
    4  A    between atoms: C_3  and  C_22
    5  A    between atoms: C_10  and  C_28
    6  A    between atoms: N_14  and  C_21
    7  A    between atoms: N_14  and  C_29
    8  A    between atoms: O_15  and  C_26
    9  A    between atoms: C_16  and  C_20
   10  A    between atoms: C_16  and  C_24
   11  A    between atoms: C_22  and  C_27
   12  A    between atoms: C_24  and  C_27
                            x       y       z     vdW  Elec       q    Type
                         _______ _______ _______ _____ _____    ______ ____

>  <TORSDO>
F 12

$$$$
=
 OpenBabel11052414333D

 32 34  0  0  1  0  0  0  0  0999 V2000
  186.6280  176.9260  144.8760 C   0  0  2  0  0  3  0  0  0  0  0  0
  187.5800  177.1730  143.6990 C   0  0  2  0  0  0  0  0  0  0  0  0
  185.3210  177.7430  144.8690 C   0  0  2  0  0  3  0  0  0  0  0  0
  187.8540  177.8320  145.0490 C   0  0  2  0  0  3  0  0  0  0  0  0
  184.9150  178.2770  143.4930 C   0  0  1  0  0  3  0  0  0  0  0  0
  185.3540  178.7620  145.8300 O   0  0  0  0  0  1  0  0  0  0  0  0
  187.2300  178.1780  142.5900 C   0  0  0  0  0  2  0  0  0  0  0  0
  183.6230  179.0760  143.5960 C   0  0  0  0  0  1  0  0  0  0  0  0
  186.0540  179.0990  142.9020 C   0  0  1  0  0  3  0  0  0  0  0  0
  187.6350  177.3370  148.0930 C   0  0  0  0  0  2  0  0  0  0  0  0
  189.4470  179.1240  147.3600 C   0  0  0  0  0  2  0  0  0  0  0  0
  189.9900  178.0870  146.3830 C   0  0  0  0  0  2  0  0  0  0  0  0
  188.9010  177.1200  145.9110 C   0  0  0  0  0  3  0  0  0  0  0  0
  188.9320  178.3190  148.9100 S   0  0  0  0  0  0  0  0  0  0  0  0
  188.2570  176.3770  147.0840 C   0  0  0  0  0  2  0  0  0  0  0  0
  188.4970  176.0060  143.3040 C   0  0  0  0  0  2  0  0  0  0  0  0
  189.6630  176.3830  142.3830 C   0  0  2  0  0  3  0  0  0  0  0  0
  191.3840  175.7090  143.8850 O   0  0  0  0  0  0  0  0  0  0  0  0
  190.9530  176.6120  143.1180 C   0  0  0  0  0  0  0  0  0  0  0  0
  191.4350  178.9310  143.7410 C   0  0  0  0  0  2  0  0  0  0  0  0
  191.6900  177.8780  142.9760 C   0  0  0  0  0  3  0  0  0  0  0  0
  189.2940  177.5010  141.4100 C   0  0  0  0  0  2  0  0  0  0  0  0
  189.6300  177.1240  140.0030 C   0  0  0  0  0  0  0  0  0  0  0  0
  190.5230  176.2630  139.7880 O   0  0  0  0  0  0  0  0  0  0  0  0
  188.9320  177.7490  138.8720 C   0  0  0  0  0  0  0  0  0  0  0  0
  188.9410  179.0040  138.7390 O   0  0  0  0  0  0  0  0  0  0  0  0
  188.2560  176.9450  137.9530 O   0  0  0  0  0  0  0  0  0  0  0  0
  187.4140  177.9140  135.9300 C   0  0  0  0  0  1  0  0  0  0  0  0
  187.0710  177.3810  137.3050 C   0  0  0  0  0  2  0  0  0  0  0  0
  185.6340  179.7540  141.6730 N   0  0  0  0  0  2  0  0  0  0  0  0
  185.7880  178.7880  140.5990 C   0  0  0  0  0  2  0  0  0  0  0  0
  184.5600  178.8150  139.7150 C   0  0  0  0  0  1  0  0  0  0  0  0
  1  4  1  0  0  0  0
  2  1  1  0  0  0  0
  2  4  1  0  0  0  0
  3  1  1  0  0  0  0
  3  6  1  0  0  0  0
  4 13  1  0  0  0  0
  5  8  1  0  0  0  0
  5  3  1  0  0  0  0
  7  9  1  0  0  0  0
  7  2  1  0  0  0  0
  9  5  1  0  0  0  0
 10 14  1  0  0  0  0
 11 14  1  0  0  0  0
 12 11  1  0  0  0  0
 13 12  1  0  0  0  0
 13 15  1  0  0  0  0
 15 10  1  0  0  0  0
 16  2  1  0  0  0  0
 17 19  1  0  0  0  0
 17 16  1  0  0  0  0
 19 18  2  0  0  0  0
 21 19  1  0  0  0  0
 21 20  2  0  0  0  0
 22 17  1  0  0  0  0
 23 22  1  0  0  0  0
 24 23  2  0  0  0  0
 25 23  1  0  0  0  0
 26 25  2  0  0  0  0
 27 25  1  0  0  0  0
 28 29  1  0  0  0  0
 29 27  1  0  0  0  0
 30  9  1  0  0  0  0
 31 30  1  0  0  0  0
 32 31  1  0  0  0  0
M  END
>  <MODEL>
7

>  <REMARK>
 VINA RESULT:      -5.3      2.286      6.834
  Name = 
  12 active torsions:
  status: ('A' for Active; 'I' for Inactive)
    1  A    between atoms: C_1  and  C_5
    2  A    between atoms: C_1  and  C_24
    3  A    between atoms: C_3  and  O_15
    4  A    between atoms: C_3  and  C_22
    5  A    between atoms: C_10  and  C_28
    6  A    between atoms: N_14  and  C_21
    7  A    between atoms: N_14  and  C_29
    8  A    between atoms: O_15  and  C_26
    9  A    between atoms: C_16  and  C_20
   10  A    between atoms: C_16  and  C_24
   11  A    between atoms: C_22  and  C_27
   12  A    between atoms: C_24  and  C_27
                            x       y       z     vdW  Elec       q    Type
                         _______ _______ _______ _____ _____    ______ ____

>  <TORSDO>
F 12

$$$$
=
 OpenBabel11052414333D

 32 34  0  0  1  0  0  0  0  0999 V2000
  188.3480  177.1270  140.7860 C   0  0  2  0  0  3  0  0  0  0  0  0
  188.3040  178.5450  141.3690 C   0  0  2  0  0  0  0  0  0  0  0  0
  189.4300  176.1940  141.3650 C   0  0  2  0  0  3  0  0  0  0  0  0
  188.9720  178.3000  140.0180 C   0  0  2  0  0  3  0  0  0  0  0  0
  189.9500  176.6050  142.7440 C   0  0  1  0  0  3  0  0  0  0  0  0
  190.4770  176.0030  140.4530 O   0  0  0  0  0  1  0  0  0  0  0  0
  189.2880  178.9860  142.4640 C   0  0  0  0  0  2  0  0  0  0  0  0
  191.0180  175.6300  143.2200 C   0  0  0  0  0  1  0  0  0  0  0  0
  190.4630  178.0400  142.6950 C   0  0  1  0  0  3  0  0  0  0  0  0
  188.1130  176.3010  137.8200 C   0  0  0  0  0  2  0  0  0  0  0  0
  189.8820  178.1240  137.0710 C   0  0  0  0  0  2  0  0  0  0  0  0
  188.9480  179.1840  137.6460 C   0  0  0  0  0  2  0  0  0  0  0  0
  188.1050  178.6360  138.8010 C   0  0  0  0  0  3  0  0  0  0  0  0
  188.9180  176.8050  136.2670 S   0  0  0  0  0  0  0  0  0  0  0  0
  187.2560  177.4400  138.3630 C   0  0  0  0  0  2  0  0  0  0  0  0
  186.9410  179.2530  141.3430 C   0  0  0  0  0  2  0  0  0  0  0  0
  185.7900  178.4610  141.9740 C   0  0  2  0  0  3  0  0  0  0  0  0
  183.6950  177.5010  141.3750 O   0  0  0  0  0  0  0  0  0  0  0  0
  184.5930  178.3320  141.0750 C   0  0  0  0  0  0  0  0  0  0  0  0
  183.3230  179.3020  139.2190 C   0  0  0  0  0  2  0  0  0  0  0  0
  184.4790  179.1350  139.8460 C   0  0  0  0  0  3  0  0  0  0  0  0
  185.4600  178.9440  143.3840 C   0  0  0  0  0  2  0  0  0  0  0  0
  186.0350  178.0290  144.4170 C   0  0  0  0  0  0  0  0  0  0  0  0
  186.7670  177.0690  144.0570 O   0  0  0  0  0  0  0  0  0  0  0  0
  185.7540  178.2370  145.8430 C   0  0  0  0  0  0  0  0  0  0  0  0
  184.6940  178.8210  146.2000 O   0  0  0  0  0  0  0  0  0  0  0  0
  186.6710  177.7890  146.7970 O   0  0  0  0  0  0  0  0  0  0  0  0
  188.1540  177.8790  148.6750 C   0  0  0  0  0  1  0  0  0  0  0  0
  187.1810  178.6470  147.8060 C   0  0  0  0  0  2  0  0  0  0  0  0
  191.1130  178.3980  143.9460 N   0  0  0  0  0  2  0  0  0  0  0  0
  190.0950  178.3630  144.9820 C   0  0  0  0  0  2  0  0  0  0  0  0
  190.5710  177.4960  146.1280 C   0  0  0  0  0  1  0  0  0  0  0  0
  1  3  1  0  0  0  0
  1  2  1  0  0  0  0
  2  7  1  0  0  0  0
  3  5  1  0  0  0  0
  4  1  1  0  0  0  0
  4  2  1  0  0  0  0
  5  8  1  0  0  0  0
  6  3  1  0  0  0  0
  7  9  1  0  0  0  0
  9  5  1  0  0  0  0
  9 30  1  0  0  0  0
 10 15  1  0  0  0  0
 11 12  1  0  0  0  0
 12 13  1  0  0  0  0
 13  4  1  0  0  0  0
 14 11  1  0  0  0  0
 14 10  1  0  0  0  0
 15 13  1  0  0  0  0
 16  2  1  0  0  0  0
 16 17  1  0  0  0  0
 17 22  1  0  0  0  0
 19 18  2  0  0  0  0
 19 17  1  0  0  0  0
 20 21  2  0  0  0  0
 21 19  1  0  0  0  0
 22 23  1  0  0  0  0
 23 25  1  0  0  0  0
 24 23  2  0  0  0  0
 25 26  2  0  0  0  0
 25 27  1  0  0  0  0
 27 29  1  0  0  0  0
 29 28  1  0  0  0  0
 30 31  1  0  0  0  0
 31 32  1  0  0  0  0
M  END
>  <MODEL>
8

>  <REMARK>
 VINA RESULT:      -5.2      2.447      4.643
  Name = 
  12 active torsions:
  status: ('A' for Active; 'I' for Inactive)
    1  A    between atoms: C_1  and  C_5
    2  A    between atoms: C_1  and  C_24
    3  A    between atoms: C_3  and  O_15
    4  A    between atoms: C_3  and  C_22
    5  A    between atoms: C_10  and  C_28
    6  A    between atoms: N_14  and  C_21
    7  A    between atoms: N_14  and  C_29
    8  A    between atoms: O_15  and  C_26
    9  A    between atoms: C_16  and  C_20
   10  A    between atoms: C_16  and  C_24
   11  A    between atoms: C_22  and  C_27
   12  A    between atoms: C_24  and  C_27
                            x       y       z     vdW  Elec       q    Type
                         _______ _______ _______ _____ _____    ______ ____

>  <TORSDO>
F 12

$$$$
=
 OpenBabel11052414333D

 32 34  0  0  1  0  0  0  0  0999 V2000
  187.6550  176.4020  136.3090 C   0  0  2  0  0  3  0  0  0  0  0  0
  186.4360  176.5080  137.2330 C   0  0  2  0  0  0  0  0  0  0  0  0
  187.9740  174.9930  135.7720 C   0  0  2  0  0  3  0  0  0  0  0  0
  187.8410  176.4770  137.8300 C   0  0  2  0  0  3  0  0  0  0  0  0
  186.7910  174.0220  135.7980 C   0  0  1  0  0  3  0  0  0  0  0  0
  189.1010  174.4510  136.4030 O   0  0  0  0  0  1  0  0  0  0  0  0
  185.5960  175.2700  137.5870 C   0  0  0  0  0  2  0  0  0  0  0  0
  187.2100  172.6610  135.2600 C   0  0  0  0  0  1  0  0  0  0  0  0
  186.2290  173.9330  137.2120 C   0  0  1  0  0  3  0  0  0  0  0  0
  190.7770  177.0490  138.6130 C   0  0  0  0  0  2  0  0  0  0  0  0
  189.0200  177.2210  140.5870 C   0  0  0  0  0  2  0  0  0  0  0  0
  188.1980  178.1480  139.6970 C   0  0  0  0  0  2  0  0  0  0  0  0
  188.4080  177.8480  138.2110 C   0  0  0  0  0  3  0  0  0  0  0  0
  190.7980  177.5480  140.3630 S   0  0  0  0  0  0  0  0  0  0  0  0
  189.8780  177.9830  137.8090 C   0  0  0  0  0  2  0  0  0  0  0  0
  185.7090  177.8600  137.2550 C   0  0  0  0  0  2  0  0  0  0  0  0
  184.3850  177.8710  138.0260 C   0  0  2  0  0  3  0  0  0  0  0  0
  182.1930  178.5970  137.4440 O   0  0  0  0  0  0  0  0  0  0  0  0
  183.1750  177.8710  137.1350 C   0  0  0  0  0  0  0  0  0  0  0  0
  182.1580  177.1390  135.0300 C   0  0  0  0  0  2  0  0  0  0  0  0
  183.1170  177.0150  135.9380 C   0  0  0  0  0  3  0  0  0  0  0  0
  184.3560  178.9430  139.1130 C   0  0  0  0  0  2  0  0  0  0  0  0
  184.1780  178.3340  140.4670 C   0  0  0  0  0  0  0  0  0  0  0  0
  183.2620  177.4900  140.6530 O   0  0  0  0  0  0  0  0  0  0  0  0
  185.0600  178.7110  141.5800 C   0  0  0  0  0  0  0  0  0  0  0  0
  185.7620  179.7570  141.5040 O   0  0  0  0  0  0  0  0  0  0  0  0
  185.1160  177.9030  142.7170 O   0  0  0  0  0  0  0  0  0  0  0  0
  183.4650  179.2180  143.8480 C   0  0  0  0  0  1  0  0  0  0  0  0
  184.7140  178.3750  143.9930 C   0  0  0  0  0  2  0  0  0  0  0  0
  185.2130  172.8950  137.2980 N   0  0  0  0  0  2  0  0  0  0  0  0
  183.9710  173.4700  136.8120 C   0  0  0  0  0  2  0  0  0  0  0  0
  183.1420  172.3920  136.1470 C   0  0  0  0  0  1  0  0  0  0  0  0
  1  2  1  0  0  0  0
  1  4  1  0  0  0  0
  2 16  1  0  0  0  0
  2  7  1  0  0  0  0
  2  4  1  0  0  0  0
  3  5  1  0  0  0  0
  3  1  1  0  0  0  0
  3  6  1  0  0  0  0
  4 13  1  0  0  0  0
  5  9  1  0  0  0  0
  8  5  1  0  0  0  0
  9 30  1  0  0  0  0
  9  7  1  0  0  0  0
 10 14  1  0  0  0  0
 12 11  1  0  0  0  0
 13 12  1  0  0  0  0
 14 11  1  0  0  0  0
 15 13  1  0  0  0  0
 15 10  1  0  0  0  0
 16 17  1  0  0  0  0
 17 22  1  0  0  0  0
 19 18  2  0  0  0  0
 19 17  1  0  0  0  0
 20 21  2  0  0  0  0
 21 19  1  0  0  0  0
 22 23  1  0  0  0  0
 23 24  2  0  0  0  0
 23 25  1  0  0  0  0
 25 27  1  0  0  0  0
 26 25  2  0  0  0  0
 27 29  1  0  0  0  0
 28 29  1  0  0  0  0
 31 30  1  0  0  0  0
 32 31  1  0  0  0  0
M  END
>  <MODEL>
9

>  <REMARK>
 VINA RESULT:      -5.1      2.581      4.163
  Name = 
  12 active torsions:
  status: ('A' for Active; 'I' for Inactive)
    1  A    between atoms: C_1  and  C_5
    2  A    between atoms: C_1  and  C_24
    3  A    between atoms: C_3  and  O_15
    4  A    between atoms: C_3  and  C_22
    5  A    between atoms: C_10  and  C_28
    6  A    between atoms: N_14  and  C_21
    7  A    between atoms: N_14  and  C_29
    8  A    between atoms: O_15  and  C_26
    9  A    between atoms: C_16  and  C_20
   10  A    between atoms: C_16  and  C_24
   11  A    between atoms: C_22  and  C_27
   12  A    between atoms: C_24  and  C_27
                            x       y       z     vdW  Elec       q    Type
                         _______ _______ _______ _____ _____    ______ ____

>  <TORSDO>
F 12

$$$$
