=
 OpenBabel11052415493D

 34 40  0  0  1  0  0  0  0  0999 V2000
  186.8990  178.2110  140.6000 C   0  0  0  0  0  0  0  0  0  0  0  0
  189.8530  176.5970  142.0190 C   0  0  0  0  0  2  0  0  0  0  0  0
  182.9950  175.9870  139.4750 C   0  0  0  0  0  3  0  0  0  0  0  0
  188.8610  177.5200  139.8550 C   0  0  0  0  0  0  0  0  0  0  0  0
  183.7480  177.6970  137.2080 C   0  0  0  0  0  2  0  0  0  0  0  0
  183.7100  173.4020  136.8190 C   0  0  0  0  0  0  0  0  0  0  0  0
  185.0800  178.9580  139.0830 C   0  0  2  0  0  0  0  0  0  0  0  0
  185.5410  178.8500  140.5580 C   0  0  0  0  0  2  0  0  0  0  0  0
  187.4200  178.5860  138.2290 C   0  0  0  0  0  0  0  0  0  0  0  0
  188.4160  178.4040  137.2520 C   0  0  0  0  0  3  0  0  0  0  0  0
  183.3410  173.9960  138.0340 C   0  0  0  0  0  3  0  0  0  0  0  0
  183.3740  175.3850  138.1830 C   0  0  0  0  0  0  0  0  0  0  0  0
  186.1140  179.2920  137.9760 C   0  0  0  0  0  2  0  0  0  0  0  0
  183.7290  179.6290  138.8990 C   0  0  0  0  0  2  0  0  0  0  0  0
  189.8710  177.3110  138.9140 C   0  0  0  0  0  3  0  0  0  0  0  0
  187.7040  178.1400  139.5070 C   0  0  0  0  0  0  0  0  0  0  0  0
  189.6350  177.7650  137.5950 C   0  0  0  0  0  3  0  0  0  0  0  0
  189.3990  176.0660  143.3730 C   0  0  0  0  0  2  0  0  0  0  0  0
  189.0280  177.2020  144.2780 C   0  0  0  0  0  0  0  0  0  0  0  0
  184.1370  175.6070  135.8880 C   0  0  0  0  0  3  0  0  0  0  0  0
  187.8900  177.8670  144.0750 C   0  0  0  0  0  3  0  0  0  0  0  0
  183.7800  176.1980  137.1020 C   0  0  0  0  0  0  0  0  0  0  0  0
  184.1080  174.2160  135.7480 C   0  0  0  0  0  3  0  0  0  0  0  0
  183.8660  178.1330  138.6710 C   0  0  1  0  0  0  0  0  0  0  0  0
  183.1970  177.2840  139.7140 C   0  0  0  0  0  3  0  0  0  0  0  0
  188.7470  177.2120  141.2020 C   0  0  0  0  0  0  0  0  0  0  0  0
  186.9370  177.4920  142.9840 C   0  0  0  0  0  2  0  0  0  0  0  0
  187.5370  177.6680  141.6620 N   0  0  0  0  0  0  0  0  0  0  0  0
  189.9490  177.6110  145.3550 C   0  0  0  0  0  0  0  0  0  0  0  0
  191.3480  177.7020  145.1060 N   0  0  0  0  0  1  0  0  0  0  0  0
  189.5080  177.8850  146.5040 O   0  0  0  0  0  0  0  0  0  0  0  0
  183.6790  171.9370  136.6670 C   0  0  0  0  0  0  0  0  0  0  0  0
  182.8340  171.2490  137.3010 O   0  0  0  0  0  0  0  0  0  0  0  0
  184.6020  171.2810  135.8030 N   0  0  0  0  0  1  0  0  0  0  0  0
  1 28  1  0  0  0  0
  2 18  1  0  0  0  0
  3 25  2  0  0  0  0
  4 26  2  0  0  0  0
  6 11  1  0  0  0  0
  7 13  1  6  0  0  0
  7  8  1  0  0  0  0
  8  1  1  0  0  0  0
  9 16  1  0  0  0  0
 10 17  1  0  0  0  0
 10  9  2  0  0  0  0
 11 12  2  0  0  0  0
 12  3  1  0  0  0  0
 13  9  1  0  0  0  0
 14  7  1  0  0  0  0
 15  4  1  0  0  0  0
 16  4  1  0  0  0  0
 16  1  2  0  0  0  0
 17 15  2  0  0  0  0
 18 19  1  0  0  0  0
 19 29  1  0  0  0  0
 20 22  2  0  0  0  0
 21 19  2  0  0  0  0
 22  5  1  0  0  0  0
 22 12  1  0  0  0  0
 23 20  1  0  0  0  0
 23  6  2  0  0  0  0
 24  5  1  6  0  0  0
 24 14  1  0  0  0  0
 24  7  1  0  0  0  0
 24 25  1  0  0  0  0
 26 28  1  0  0  0  0
 26  2  1  0  0  0  0
 27 21  1  0  0  0  0
 28 27  1  0  0  0  0
 29 31  2  0  0  0  0
 30 29  1  0  0  0  0
 32  6  1  0  0  0  0
 32 33  2  0  0  0  0
 34 32  1  0  0  0  0
M  END
>  <MODEL>
1

>  <REMARK>
 VINA RESULT:      -7.1      0.000      0.000
  Name = 
  2 active torsions:
  status: ('A' for Active; 'I' for Inactive)
    1  A    between atoms: C_3  and  C_25
    2  A    between atoms: C_7  and  C_11
                            x       y       z     vdW  Elec       q    Type
                         _______ _______ _______ _____ _____    ______ ____

>  <TORSDO>
F 2

$$$$
=
 OpenBabel11052415493D

 34 40  0  0  1  0  0  0  0  0999 V2000
  184.2000  177.4650  138.1200 C   0  0  0  0  0  0  0  0  0  0  0  0
  187.6570  178.5840  138.4980 C   0  0  0  0  0  2  0  0  0  0  0  0
  180.9300  179.8160  135.8340 C   0  0  0  0  0  3  0  0  0  0  0  0
  185.4080  178.4310  139.6980 C   0  0  0  0  0  0  0  0  0  0  0  0
  179.8190  179.0150  138.4320 C   0  0  0  0  0  2  0  0  0  0  0  0
  180.3900  183.1780  137.4620 C   0  0  0  0  0  0  0  0  0  0  0  0
  181.7330  177.2290  138.2800 C   0  0  2  0  0  0  0  0  0  0  0  0
  182.9980  176.8370  137.4770 C   0  0  0  0  0  2  0  0  0  0  0  0
  183.1070  177.9450  140.2660 C   0  0  0  0  0  0  0  0  0  0  0  0
  183.3270  178.4830  141.5470 C   0  0  0  0  0  3  0  0  0  0  0  0
  180.7190  182.1910  136.5230 C   0  0  0  0  0  3  0  0  0  0  0  0
  180.5650  180.8380  136.8330 C   0  0  0  0  0  0  0  0  0  0  0  0
  181.8050  177.3290  139.8270 C   0  0  0  0  0  2  0  0  0  0  0  0
  180.4450  176.6190  137.7530 C   0  0  0  0  0  2  0  0  0  0  0  0
  185.6670  178.9830  140.9540 C   0  0  0  0  0  3  0  0  0  0  0  0
  184.1810  177.9330  139.3960 C   0  0  0  0  0  0  0  0  0  0  0  0
  184.6020  179.0030  141.8870 C   0  0  0  0  0  3  0  0  0  0  0  0
  188.2220  178.6030  137.0840 C   0  0  0  0  0  2  0  0  0  0  0  0
  188.2580  177.2130  136.5210 C   0  0  0  0  0  0  0  0  0  0  0  0
  179.7340  181.4430  139.0330 C   0  0  0  0  0  3  0  0  0  0  0  0
  187.1240  176.6220  136.1400 C   0  0  0  0  0  3  0  0  0  0  0  0
  180.0710  180.4590  138.1010 C   0  0  0  0  0  0  0  0  0  0  0  0
  179.8980  182.7950  138.7180 C   0  0  0  0  0  3  0  0  0  0  0  0
  180.7050  178.1060  137.5760 C   0  0  1  0  0  0  0  0  0  0  0  0
  180.9780  178.5230  136.1590 C   0  0  0  0  0  3  0  0  0  0  0  0
  186.1890  178.2530  138.5660 C   0  0  0  0  0  0  0  0  0  0  0  0
  185.8020  177.3210  136.2190 C   0  0  0  0  0  2  0  0  0  0  0  0
  185.4390  177.6290  137.6020 N   0  0  0  0  0  0  0  0  0  0  0  0
  189.5390  176.4870  136.4420 C   0  0  0  0  0  0  0  0  0  0  0  0
  190.0400  175.7900  137.5790 N   0  0  0  0  0  1  0  0  0  0  0  0
  190.2030  176.4760  135.3710 O   0  0  0  0  0  0  0  0  0  0  0  0
  180.5600  184.6040  137.1330 C   0  0  0  0  0  0  0  0  0  0  0  0
  181.5550  184.9890  136.4630 O   0  0  0  0  0  0  0  0  0  0  0  0
  179.6010  185.5640  137.5680 N   0  0  0  0  0  1  0  0  0  0  0  0
  1 16  2  0  0  0  0
  2 26  1  0  0  0  0
  3 25  2  0  0  0  0
  3 12  1  0  0  0  0
  4 15  1  0  0  0  0
  6 23  1  0  0  0  0
  7  8  1  6  0  0  0
  7 13  1  0  0  0  0
  8  1  1  0  0  0  0
  9 10  2  0  0  0  0
 10 17  1  0  0  0  0
 11 12  1  0  0  0  0
 11  6  2  0  0  0  0
 12 22  2  0  0  0  0
 13  9  1  0  0  0  0
 14  7  1  0  0  0  0
 15 17  2  0  0  0  0
 16  4  1  0  0  0  0
 16  9  1  0  0  0  0
 18  2  1  0  0  0  0
 19 18  1  0  0  0  0
 21 27  1  0  0  0  0
 21 19  2  0  0  0  0
 22  5  1  0  0  0  0
 22 20  1  0  0  0  0
 23 20  2  0  0  0  0
 24 25  1  6  0  0  0
 24 14  1  0  0  0  0
 24  7  1  0  0  0  0
 24  5  1  0  0  0  0
 26  4  2  0  0  0  0
 27 28  1  0  0  0  0
 28  1  1  0  0  0  0
 28 26  1  0  0  0  0
 29 19  1  0  0  0  0
 29 30  1  0  0  0  0
 31 29  2  0  0  0  0
 32  6  1  0  0  0  0
 32 34  1  0  0  0  0
 33 32  2  0  0  0  0
M  END
>  <MODEL>
2

>  <REMARK>
 VINA RESULT:      -6.8      4.603      7.473
  Name = 
  2 active torsions:
  status: ('A' for Active; 'I' for Inactive)
    1  A    between atoms: C_3  and  C_25
    2  A    between atoms: C_7  and  C_11
                            x       y       z     vdW  Elec       q    Type
                         _______ _______ _______ _____ _____    ______ ____

>  <TORSDO>
F 2

$$$$
=
 OpenBabel11052415493D

 34 40  0  0  1  0  0  0  0  0999 V2000
  188.7790  177.7940  138.8900 C   0  0  0  0  0  0  0  0  0  0  0  0
  190.5620  176.2240  141.6660 C   0  0  0  0  0  2  0  0  0  0  0  0
  184.6930  176.3480  137.2600 C   0  0  0  0  0  3  0  0  0  0  0  0
  190.4760  176.3970  139.1190 C   0  0  0  0  0  0  0  0  0  0  0  0
  186.4940  176.7390  134.9720 C   0  0  0  0  0  2  0  0  0  0  0  0
  185.0050  172.8160  135.9660 C   0  0  0  0  0  0  0  0  0  0  0  0
  187.7360  178.2820  136.6900 C   0  0  2  0  0  0  0  0  0  0  0  0
  187.7880  178.6750  138.1880 C   0  0  0  0  0  2  0  0  0  0  0  0
  189.9140  177.0280  136.8520 C   0  0  0  0  0  0  0  0  0  0  0  0
  190.9690  176.2230  136.3840 C   0  0  0  0  0  3  0  0  0  0  0  0
  184.6140  173.9250  136.7280 C   0  0  0  0  0  3  0  0  0  0  0  0
  185.1090  175.1980  136.4350 C   0  0  0  0  0  0  0  0  0  0  0  0
  189.0400  177.8680  135.9580 C   0  0  0  0  0  2  0  0  0  0  0  0
  186.7940  179.1320  135.8540 C   0  0  0  0  0  2  0  0  0  0  0  0
  191.5260  175.5800  138.6980 C   0  0  0  0  0  3  0  0  0  0  0  0
  189.7270  177.0870  138.2200 C   0  0  0  0  0  0  0  0  0  0  0  0
  191.7690  175.5000  137.3060 C   0  0  0  0  0  3  0  0  0  0  0  0
  189.6590  176.4220  142.8760 C   0  0  0  0  0  2  0  0  0  0  0  0
  189.5290  177.8810  143.1930 C   0  0  0  0  0  0  0  0  0  0  0  0
  186.3910  174.2670  134.5940 C   0  0  0  0  0  3  0  0  0  0  0  0
  188.7810  178.6650  142.4150 C   0  0  0  0  0  3  0  0  0  0  0  0
  186.0090  175.3710  135.3600 C   0  0  0  0  0  0  0  0  0  0  0  0
  185.8970  172.9960  134.8980 C   0  0  0  0  0  3  0  0  0  0  0  0
  186.4310  177.6900  136.1700 C   0  0  1  0  0  0  0  0  0  0  0  0
  185.2880  177.5350  137.1320 C   0  0  0  0  0  3  0  0  0  0  0  0
  189.9620  176.7050  140.3700 C   0  0  0  0  0  0  0  0  0  0  0  0
  188.0250  178.1260  141.2410 C   0  0  0  0  0  2  0  0  0  0  0  0
  188.9270  177.5930  140.2200 N   0  0  0  0  0  0  0  0  0  0  0  0
  190.2700  178.4520  144.3330 C   0  0  0  0  0  0  0  0  0  0  0  0
  191.4160  179.2680  144.1060 N   0  0  0  0  0  1  0  0  0  0  0  0
  189.9000  178.2250  145.5170 O   0  0  0  0  0  0  0  0  0  0  0  0
  184.4850  171.4740  136.2820 C   0  0  0  0  0  0  0  0  0  0  0  0
  185.0040  170.4510  135.7610 O   0  0  0  0  0  0  0  0  0  0  0  0
  183.3900  171.3190  137.1800 N   0  0  0  0  0  1  0  0  0  0  0  0
  1 28  1  0  0  0  0
  2 18  1  0  0  0  0
  4 26  2  0  0  0  0
  5 22  1  0  0  0  0
  6 32  1  0  0  0  0
  6 11  1  0  0  0  0
  7 14  1  6  0  0  0
  7  8  1  0  0  0  0
  8  1  1  0  0  0  0
  9 16  1  0  0  0  0
 10  9  2  0  0  0  0
 10 17  1  0  0  0  0
 12 11  2  0  0  0  0
 12  3  1  0  0  0  0
 13  7  1  0  0  0  0
 13  9  1  0  0  0  0
 14 24  1  0  0  0  0
 15  4  1  0  0  0  0
 16  1  2  0  0  0  0
 16  4  1  0  0  0  0
 17 15  2  0  0  0  0
 18 19  1  0  0  0  0
 19 29  1  0  0  0  0
 20 23  1  0  0  0  0
 20 22  2  0  0  0  0
 21 19  2  0  0  0  0
 22 12  1  0  0  0  0
 23  6  2  0  0  0  0
 24  5  1  6  0  0  0
 24  7  1  0  0  0  0
 24 25  1  0  0  0  0
 25  3  2  0  0  0  0
 26  2  1  0  0  0  0
 27 21  1  0  0  0  0
 28 26  1  0  0  0  0
 28 27  1  0  0  0  0
 29 31  2  0  0  0  0
 30 29  1  0  0  0  0
 32 34  1  0  0  0  0
 33 32  2  0  0  0  0
M  END
>  <MODEL>
3

>  <REMARK>
 VINA RESULT:      -6.8      1.748      2.606
  Name = 
  2 active torsions:
  status: ('A' for Active; 'I' for Inactive)
    1  A    between atoms: C_3  and  C_25
    2  A    between atoms: C_7  and  C_11
                            x       y       z     vdW  Elec       q    Type
                         _______ _______ _______ _____ _____    ______ ____

>  <TORSDO>
F 2

$$$$
=
 OpenBabel11052415493D

 34 40  0  0  1  0  0  0  0  0999 V2000
  186.2000  175.6420  136.5120 C   0  0  0  0  0  0  0  0  0  0  0  0
  183.6240  173.2260  137.4470 C   0  0  0  0  0  2  0  0  0  0  0  0
  190.2330  176.1480  138.7320 C   0  0  0  0  0  3  0  0  0  0  0  0
  184.2810  175.6890  137.6070 C   0  0  0  0  0  0  0  0  0  0  0  0
  189.0580  178.8160  138.3700 C   0  0  0  0  0  2  0  0  0  0  0  0
  189.6070  177.1610  142.3140 C   0  0  0  0  0  0  0  0  0  0  0  0
  187.7580  177.5750  136.4600 C   0  0  2  0  0  0  0  0  0  0  0  0
  187.4550  176.1710  135.8810 C   0  0  0  0  0  2  0  0  0  0  0  0
  185.4140  177.8110  137.3520 C   0  0  0  0  0  0  0  0  0  0  0  0
  184.3630  178.4370  138.0460 C   0  0  0  0  0  3  0  0  0  0  0  0
  190.0100  176.4300  141.1880 C   0  0  0  0  0  3  0  0  0  0  0  0
  189.8140  176.9420  139.9030 C   0  0  0  0  0  0  0  0  0  0  0  0
  186.5900  178.5490  136.7670 C   0  0  0  0  0  2  0  0  0  0  0  0
  188.9880  178.2420  135.8680 C   0  0  0  0  0  2  0  0  0  0  0  0
  183.2220  176.2680  138.3070 C   0  0  0  0  0  3  0  0  0  0  0  0
  185.3120  176.4480  137.1510 C   0  0  0  0  0  0  0  0  0  0  0  0
  183.2730  177.6660  138.5240 C   0  0  0  0  0  3  0  0  0  0  0  0
  184.2670  171.8620  137.2340 C   0  0  0  0  0  2  0  0  0  0  0  0
  184.5730  171.6540  135.7820 C   0  0  0  0  0  0  0  0  0  0  0  0
  188.8160  178.9400  140.8580 C   0  0  0  0  0  3  0  0  0  0  0  0
  185.5920  172.3040  135.2180 C   0  0  0  0  0  3  0  0  0  0  0  0
  189.2080  178.2060  139.7350 C   0  0  0  0  0  0  0  0  0  0  0  0
  189.0090  178.4180  142.1400 C   0  0  0  0  0  3  0  0  0  0  0  0
  189.0230  177.7250  137.2970 C   0  0  1  0  0  0  0  0  0  0  0  0
  189.8900  176.5150  137.4970 C   0  0  0  0  0  3  0  0  0  0  0  0
  184.5600  174.3850  137.2240 C   0  0  0  0  0  0  0  0  0  0  0  0
  186.4790  173.2190  136.0050 C   0  0  0  0  0  2  0  0  0  0  0  0
  185.7390  174.3700  136.5230 N   0  0  0  0  0  0  0  0  0  0  0  0
  183.7130  170.7720  134.9710 C   0  0  0  0  0  0  0  0  0  0  0  0
  182.4060  171.1940  134.5940 N   0  0  0  0  0  1  0  0  0  0  0  0
  184.1240  169.6380  134.6030 O   0  0  0  0  0  0  0  0  0  0  0  0
  189.8110  176.6160  143.6680 C   0  0  0  0  0  0  0  0  0  0  0  0
  190.8880  176.0310  143.9630 O   0  0  0  0  0  0  0  0  0  0  0  0
  188.7950  176.7440  144.6580 N   0  0  0  0  0  1  0  0  0  0  0  0
  1 28  1  0  0  0  0
  1 16  2  0  0  0  0
  3 12  1  0  0  0  0
  4 15  1  0  0  0  0
  5 22  1  0  0  0  0
  6 32  1  0  0  0  0
  7 14  1  6  0  0  0
  7 13  1  0  0  0  0
  7 24  1  0  0  0  0
  8  7  1  0  0  0  0
  8  1  1  0  0  0  0
  9 10  2  0  0  0  0
 10 17  1  0  0  0  0
 11  6  2  0  0  0  0
 12 11  1  0  0  0  0
 13  9  1  0  0  0  0
 15 17  2  0  0  0  0
 16  9  1  0  0  0  0
 16  4  1  0  0  0  0
 18  2  1  0  0  0  0
 19 18  1  0  0  0  0
 20 23  2  0  0  0  0
 21 19  2  0  0  0  0
 21 27  1  0  0  0  0
 22 12  2  0  0  0  0
 22 20  1  0  0  0  0
 23  6  1  0  0  0  0
 24 14  1  6  0  0  0
 24 25  1  0  0  0  0
 24  5  1  0  0  0  0
 25  3  2  0  0  0  0
 26  2  1  0  0  0  0
 26  4  2  0  0  0  0
 27 28  1  0  0  0  0
 28 26  1  0  0  0  0
 29 19  1  0  0  0  0
 30 29  1  0  0  0  0
 31 29  2  0  0  0  0
 32 33  2  0  0  0  0
 32 34  1  0  0  0  0
M  END
>  <MODEL>
4

>  <REMARK>
 VINA RESULT:      -6.6      1.809      8.343
  Name = 
  2 active torsions:
  status: ('A' for Active; 'I' for Inactive)
    1  A    between atoms: C_3  and  C_25
    2  A    between atoms: C_7  and  C_11
                            x       y       z     vdW  Elec       q    Type
                         _______ _______ _______ _____ _____    ______ ____

>  <TORSDO>
F 2

$$$$
=
 OpenBabel11052415493D

 34 40  0  0  1  0  0  0  0  0999 V2000
  188.7570  177.7690  139.3910 C   0  0  0  0  0  0  0  0  0  0  0  0
  190.5630  176.0770  142.0780 C   0  0  0  0  0  2  0  0  0  0  0  0
  184.9360  176.1120  137.3660 C   0  0  0  0  0  3  0  0  0  0  0  0
  190.5820  176.5360  139.5660 C   0  0  0  0  0  0  0  0  0  0  0  0
  186.7920  176.9480  135.2490 C   0  0  0  0  0  2  0  0  0  0  0  0
  185.6910  172.8040  135.7110 C   0  0  0  0  0  0  0  0  0  0  0  0
  187.7740  178.4000  137.1990 C   0  0  2  0  0  0  0  0  0  0  0  0
  187.7110  178.6190  138.7310 C   0  0  0  0  0  2  0  0  0  0  0  0
  190.0660  177.3650  137.3520 C   0  0  0  0  0  0  0  0  0  0  0  0
  191.2230  176.7320  136.8630 C   0  0  0  0  0  3  0  0  0  0  0  0
  185.1450  173.7720  136.5660 C   0  0  0  0  0  3  0  0  0  0  0  0
  185.5130  175.1140  136.4460 C   0  0  0  0  0  0  0  0  0  0  0  0
  189.1500  178.2090  136.5060 C   0  0  0  0  0  2  0  0  0  0  0  0
  186.7870  179.2410  136.4060 C   0  0  0  0  0  2  0  0  0  0  0  0
  191.7340  175.8850  139.1210 C   0  0  0  0  0  3  0  0  0  0  0  0
  189.8070  177.2450  138.7050 C   0  0  0  0  0  0  0  0  0  0  0  0
  192.0510  175.9920  137.7460 C   0  0  0  0  0  3  0  0  0  0  0  0
  189.5860  176.0400  143.2460 C   0  0  0  0  0  2  0  0  0  0  0  0
  189.2830  177.4310  143.7140 C   0  0  0  0  0  0  0  0  0  0  0  0
  186.9750  174.5400  134.5940 C   0  0  0  0  0  3  0  0  0  0  0  0
  188.4940  178.2200  142.9830 C   0  0  0  0  0  3  0  0  0  0  0  0
  186.4400  175.5020  135.4530 C   0  0  0  0  0  0  0  0  0  0  0  0
  186.6080  173.1970  134.7260 C   0  0  0  0  0  3  0  0  0  0  0  0
  186.5690  177.7420  136.5380 C   0  0  1  0  0  0  0  0  0  0  0  0
  185.4040  177.3600  137.4060 C   0  0  0  0  0  3  0  0  0  0  0  0
  189.9780  176.6420  140.8100 C   0  0  0  0  0  0  0  0  0  0  0  0
  187.8580  177.7460  141.7130 C   0  0  0  0  0  2  0  0  0  0  0  0
  188.8610  177.4310  140.6960 N   0  0  0  0  0  0  0  0  0  0  0  0
  189.9020  177.9390  144.9520 C   0  0  0  0  0  0  0  0  0  0  0  0
  189.1410  178.0250  146.1530 N   0  0  0  0  0  1  0  0  0  0  0  0
  191.1100  178.3030  144.9620 O   0  0  0  0  0  0  0  0  0  0  0  0
  185.3040  171.3890  135.8460 C   0  0  0  0  0  0  0  0  0  0  0  0
  184.2690  171.0700  136.4890 O   0  0  0  0  0  0  0  0  0  0  0  0
  186.0960  170.3650  135.2490 N   0  0  0  0  0  1  0  0  0  0  0  0
  1 28  1  0  0  0  0
  2 18  1  0  0  0  0
  3 25  2  0  0  0  0
  4 26  2  0  0  0  0
  5 22  1  0  0  0  0
  6 32  1  0  0  0  0
  6 11  1  0  0  0  0
  7 14  1  6  0  0  0
  7  8  1  0  0  0  0
  8  1  1  0  0  0  0
  9 16  1  0  0  0  0
 10  9  2  0  0  0  0
 10 17  1  0  0  0  0
 12 11  2  0  0  0  0
 12  3  1  0  0  0  0
 13  7  1  0  0  0  0
 13  9  1  0  0  0  0
 14 24  1  0  0  0  0
 15  4  1  0  0  0  0
 16  1  2  0  0  0  0
 16  4  1  0  0  0  0
 17 15  2  0  0  0  0
 18 19  1  0  0  0  0
 19 29  1  0  0  0  0
 20 23  1  0  0  0  0
 20 22  2  0  0  0  0
 21 19  2  0  0  0  0
 22 12  1  0  0  0  0
 23  6  2  0  0  0  0
 24  5  1  6  0  0  0
 24  7  1  0  0  0  0
 24 25  1  0  0  0  0
 26  2  1  0  0  0  0
 27 21  1  0  0  0  0
 28 26  1  0  0  0  0
 28 27  1  0  0  0  0
 29 31  2  0  0  0  0
 29 30  1  0  0  0  0
 32 33  2  0  0  0  0
 34 32  1  0  0  0  0
M  END
>  <MODEL>
5

>  <REMARK>
 VINA RESULT:      -6.6      1.755      2.548
  Name = 
  2 active torsions:
  status: ('A' for Active; 'I' for Inactive)
    1  A    between atoms: C_3  and  C_25
    2  A    between atoms: C_7  and  C_11
                            x       y       z     vdW  Elec       q    Type
                         _______ _______ _______ _____ _____    ______ ____

>  <TORSDO>
F 2

$$$$
=
 OpenBabel11052415493D

 34 40  0  0  1  0  0  0  0  0999 V2000
  187.6650  178.1440  140.2720 C   0  0  0  0  0  0  0  0  0  0  0  0
  188.2390  176.7110  143.5830 C   0  0  0  0  0  2  0  0  0  0  0  0
  185.4630  175.9650  136.8300 C   0  0  0  0  0  3  0  0  0  0  0  0
  189.3510  177.1880  141.3340 C   0  0  0  0  0  0  0  0  0  0  0  0
  187.9550  177.0800  135.7470 C   0  0  0  0  0  2  0  0  0  0  0  0
  187.3280  172.8160  135.9030 C   0  0  0  0  0  0  0  0  0  0  0  0
  187.7270  178.6430  137.8400 C   0  0  2  0  0  0  0  0  0  0  0  0
  186.9370  178.8380  139.1590 C   0  0  0  0  0  2  0  0  0  0  0  0
  189.8060  177.9520  139.0840 C   0  0  0  0  0  0  0  0  0  0  0  0
  191.1310  177.4980  139.2160 C   0  0  0  0  0  3  0  0  0  0  0  0
  186.3260  173.6870  136.3560 C   0  0  0  0  0  3  0  0  0  0  0  0
  186.5260  175.0690  136.3360 C   0  0  0  0  0  0  0  0  0  0  0  0
  189.2780  178.6610  137.8640 C   0  0  0  0  0  2  0  0  0  0  0  0
  187.1130  179.3380  136.6360 C   0  0  0  0  0  2  0  0  0  0  0  0
  190.6530  176.7160  141.5040 C   0  0  0  0  0  3  0  0  0  0  0  0
  188.9720  177.7840  140.1740 C   0  0  0  0  0  0  0  0  0  0  0  0
  191.5500  176.8790  140.4210 C   0  0  0  0  0  3  0  0  0  0  0  0
  186.8490  176.5220  144.1770 C   0  0  0  0  0  2  0  0  0  0  0  0
  186.1830  177.8500  144.3710 C   0  0  0  0  0  0  0  0  0  0  0  0
  188.7380  174.7300  135.3940 C   0  0  0  0  0  3  0  0  0  0  0  0
  185.7210  178.5220  143.3150 C   0  0  0  0  0  3  0  0  0  0  0  0
  187.7440  175.5970  135.8550 C   0  0  0  0  0  0  0  0  0  0  0  0
  188.5340  173.3470  135.4230 C   0  0  0  0  0  3  0  0  0  0  0  0
  187.0600  177.8230  136.7430 C   0  0  1  0  0  0  0  0  0  0  0  0
  185.6890  177.2670  137.0050 C   0  0  0  0  0  3  0  0  0  0  0  0
  188.2340  177.1950  142.1570 C   0  0  0  0  0  0  0  0  0  0  0  0
  185.8100  177.9710  141.9260 C   0  0  0  0  0  2  0  0  0  0  0  0
  187.2010  177.8130  141.4990 N   0  0  0  0  0  0  0  0  0  0  0  0
  186.0890  178.4330  145.7230 C   0  0  0  0  0  0  0  0  0  0  0  0
  184.8530  178.9630  146.1910 N   0  0  0  0  0  1  0  0  0  0  0  0
  187.0990  178.4670  146.4760 O   0  0  0  0  0  0  0  0  0  0  0  0
  187.1150  171.3590  135.9300 C   0  0  0  0  0  0  0  0  0  0  0  0
  188.0850  170.5780  136.1260 O   0  0  0  0  0  0  0  0  0  0  0  0
  185.8120  170.8160  135.7360 N   0  0  0  0  0  1  0  0  0  0  0  0
  1 28  1  0  0  0  0
  2 18  1  0  0  0  0
  3 25  2  0  0  0  0
  4 15  1  0  0  0  0
  4 26  2  0  0  0  0
  5 22  1  0  0  0  0
  6 32  1  0  0  0  0
  6 11  1  0  0  0  0
  7 14  1  6  0  0  0
  7 13  1  0  0  0  0
  7  8  1  0  0  0  0
  8  1  1  0  0  0  0
  9 10  2  0  0  0  0
  9 16  1  0  0  0  0
 10 17  1  0  0  0  0
 12 11  2  0  0  0  0
 12  3  1  0  0  0  0
 13  9  1  0  0  0  0
 14 24  1  0  0  0  0
 16  1  2  0  0  0  0
 16  4  1  0  0  0  0
 17 15  2  0  0  0  0
 18 19  1  0  0  0  0
 19 29  1  0  0  0  0
 20 23  1  0  0  0  0
 20 22  2  0  0  0  0
 21 19  2  0  0  0  0
 22 12  1  0  0  0  0
 23  6  2  0  0  0  0
 24  5  1  6  0  0  0
 24 25  1  0  0  0  0
 24  7  1  0  0  0  0
 26  2  1  0  0  0  0
 27 21  1  0  0  0  0
 28 27  1  0  0  0  0
 28 26  1  0  0  0  0
 29 30  1  0  0  0  0
 29 31  2  0  0  0  0
 32 33  2  0  0  0  0
 34 32  1  0  0  0  0
M  END
>  <MODEL>
6

>  <REMARK>
 VINA RESULT:      -6.5      2.403      3.369
  Name = 
  2 active torsions:
  status: ('A' for Active; 'I' for Inactive)
    1  A    between atoms: C_3  and  C_25
    2  A    between atoms: C_7  and  C_11
                            x       y       z     vdW  Elec       q    Type
                         _______ _______ _______ _____ _____    ______ ____

>  <TORSDO>
F 2

$$$$
=
 OpenBabel11052415493D

 34 40  0  0  1  0  0  0  0  0999 V2000
  182.7130  179.0210  141.8190 C   0  0  0  0  0  0  0  0  0  0  0  0
  185.9470  177.8840  143.0820 C   0  0  0  0  0  2  0  0  0  0  0  0
  179.1470  176.2200  140.8760 C   0  0  0  0  0  3  0  0  0  0  0  0
  184.7190  178.6400  140.9740 C   0  0  0  0  0  0  0  0  0  0  0  0
  179.5140  178.0210  138.5840 C   0  0  0  0  0  2  0  0  0  0  0  0
  180.1190  173.7710  138.1720 C   0  0  0  0  0  0  0  0  0  0  0  0
  180.7270  179.4760  140.3980 C   0  0  2  0  0  0  0  0  0  0  0  0
  181.2730  179.4430  141.8480 C   0  0  0  0  0  2  0  0  0  0  0  0
  183.0520  179.4680  139.4280 C   0  0  0  0  0  0  0  0  0  0  0  0
  184.0140  179.4400  138.4020 C   0  0  0  0  0  3  0  0  0  0  0  0
  179.7240  174.3040  139.4070 C   0  0  0  0  0  3  0  0  0  0  0  0
  179.5500  175.6810  139.5630 C   0  0  0  0  0  0  0  0  0  0  0  0
  181.6420  179.9630  139.2430 C   0  0  0  0  0  2  0  0  0  0  0  0
  179.2820  179.9310  140.2850 C   0  0  0  0  0  2  0  0  0  0  0  0
  185.7010  178.5870  139.9840 C   0  0  0  0  0  3  0  0  0  0  0  0
  183.4630  179.0730  140.6870 C   0  0  0  0  0  0  0  0  0  0  0  0
  185.3320  178.9970  138.6810 C   0  0  0  0  0  3  0  0  0  0  0  0
  185.6470  177.2920  144.4530 C   0  0  0  0  0  2  0  0  0  0  0  0
  185.1520  178.3590  145.3830 C   0  0  0  0  0  0  0  0  0  0  0  0
  180.1550  176.0140  137.2340 C   0  0  0  0  0  3  0  0  0  0  0  0
  183.9160  178.8410  145.2400 C   0  0  0  0  0  3  0  0  0  0  0  0
  179.7710  176.5460  138.4680 C   0  0  0  0  0  0  0  0  0  0  0  0
  180.3340  174.6350  137.0880 C   0  0  0  0  0  3  0  0  0  0  0  0
  179.6360  178.4730  140.0420 C   0  0  1  0  0  0  0  0  0  0  0  0
  179.1580  177.5330  141.1110 C   0  0  0  0  0  3  0  0  0  0  0  0
  184.7200  178.3210  142.3240 C   0  0  0  0  0  0  0  0  0  0  0  0
  182.9790  178.3210  144.1950 C   0  0  0  0  0  2  0  0  0  0  0  0
  183.4790  178.5860  142.8450 N   0  0  0  0  0  0  0  0  0  0  0  0
  186.0500  178.9080  146.4150 C   0  0  0  0  0  0  0  0  0  0  0  0
  187.3680  178.3900  146.5670 N   0  0  0  0  0  1  0  0  0  0  0  0
  185.6630  179.8390  147.1720 O   0  0  0  0  0  0  0  0  0  0  0  0
  180.3070  172.3180  138.0140 C   0  0  0  0  0  0  0  0  0  0  0  0
  181.1170  171.6970  138.7520 O   0  0  0  0  0  0  0  0  0  0  0  0
  179.5740  171.6000  137.0260 N   0  0  0  0  0  1  0  0  0  0  0  0
  1  8  1  0  0  0  0
  1 28  1  0  0  0  0
  2 18  1  0  0  0  0
  3 25  2  0  0  0  0
  4 26  2  0  0  0  0
  6 11  1  0  0  0  0
  7 13  1  6  0  0  0
  7  8  1  0  0  0  0
  9 16  1  0  0  0  0
 10 17  1  0  0  0  0
 10  9  2  0  0  0  0
 11 12  2  0  0  0  0
 12  3  1  0  0  0  0
 13  9  1  0  0  0  0
 14  7  1  0  0  0  0
 15  4  1  0  0  0  0
 16  4  1  0  0  0  0
 16  1  2  0  0  0  0
 17 15  2  0  0  0  0
 18 19  1  0  0  0  0
 19 29  1  0  0  0  0
 20 22  2  0  0  0  0
 21 19  2  0  0  0  0
 22  5  1  0  0  0  0
 22 12  1  0  0  0  0
 23 20  1  0  0  0  0
 23  6  2  0  0  0  0
 24  5  1  6  0  0  0
 24 14  1  0  0  0  0
 24  7  1  0  0  0  0
 24 25  1  0  0  0  0
 26 28  1  0  0  0  0
 26  2  1  0  0  0  0
 27 21  1  0  0  0  0
 28 27  1  0  0  0  0
 29 30  1  0  0  0  0
 29 31  2  0  0  0  0
 32  6  1  0  0  0  0
 32 33  2  0  0  0  0
 34 32  1  0  0  0  0
M  END
>  <MODEL>
7

>  <REMARK>
 VINA RESULT:      -6.3      3.261      4.302
  Name = 
  2 active torsions:
  status: ('A' for Active; 'I' for Inactive)
    1  A    between atoms: C_3  and  C_25
    2  A    between atoms: C_7  and  C_11
                            x       y       z     vdW  Elec       q    Type
                         _______ _______ _______ _____ _____    ______ ____

>  <TORSDO>
F 2

$$$$
=
 OpenBabel11052415493D

 34 40  0  0  1  0  0  0  0  0999 V2000
  182.8540  175.8040  136.2870 C   0  0  0  0  0  0  0  0  0  0  0  0
  184.4140  172.6590  137.2980 C   0  0  0  0  0  2  0  0  0  0  0  0
  182.4200  179.5060  139.0350 C   0  0  0  0  0  3  0  0  0  0  0  0
  182.1620  173.8090  136.9410 C   0  0  0  0  0  0  0  0  0  0  0  0
  179.8140  179.0020  137.7770 C   0  0  0  0  0  2  0  0  0  0  0  0
  180.3160  178.6310  142.0440 C   0  0  0  0  0  0  0  0  0  0  0  0
  181.3160  177.7380  136.0390 C   0  0  2  0  0  0  0  0  0  0  0  0
  182.7540  177.2180  135.7940 C   0  0  0  0  0  2  0  0  0  0  0  0
  180.4320  175.4020  136.3700 C   0  0  0  0  0  0  0  0  0  0  0  0
  179.4610  174.4280  136.6630 C   0  0  0  0  0  3  0  0  0  0  0  0
  181.4010  179.0150  141.2440 C   0  0  0  0  0  3  0  0  0  0  0  0
  181.2600  179.1130  139.8580 C   0  0  0  0  0  0  0  0  0  0  0  0
  180.1100  176.7800  135.8530 C   0  0  0  0  0  2  0  0  0  0  0  0
  181.0710  179.1540  135.5430 C   0  0  0  0  0  2  0  0  0  0  0  0
  181.2320  172.8160  137.2510 C   0  0  0  0  0  3  0  0  0  0  0  0
  181.7570  175.0330  136.5120 C   0  0  0  0  0  0  0  0  0  0  0  0
  179.8620  173.1410  137.1050 C   0  0  0  0  0  3  0  0  0  0  0  0
  185.8690  173.0120  137.5730 C   0  0  0  0  0  2  0  0  0  0  0  0
  186.5420  173.4620  136.3100 C   0  0  0  0  0  0  0  0  0  0  0  0
  178.9310  178.4550  140.0540 C   0  0  0  0  0  3  0  0  0  0  0  0
  186.2680  174.6660  135.8060 C   0  0  0  0  0  3  0  0  0  0  0  0
  180.0150  178.8270  139.2560 C   0  0  0  0  0  0  0  0  0  0  0  0
  179.0810  178.3510  141.4400 C   0  0  0  0  0  3  0  0  0  0  0  0
  181.1470  178.8780  137.0360 C   0  0  1  0  0  0  0  0  0  0  0  0
  182.3770  179.4250  137.7040 C   0  0  0  0  0  3  0  0  0  0  0  0
  183.5480  173.8470  136.9680 C   0  0  0  0  0  0  0  0  0  0  0  0
  185.3290  175.6140  136.4850 C   0  0  0  0  0  2  0  0  0  0  0  0
  183.9690  175.0790  136.5360 N   0  0  0  0  0  0  0  0  0  0  0  0
  187.4600  172.5500  135.6040 C   0  0  0  0  0  0  0  0  0  0  0  0
  186.9910  171.2980  135.1130 N   0  0  0  0  0  1  0  0  0  0  0  0
  188.6680  172.8670  135.4290 O   0  0  0  0  0  0  0  0  0  0  0  0
  180.4700  178.5240  143.5060 C   0  0  0  0  0  0  0  0  0  0  0  0
  181.6170  178.5420  144.0280 O   0  0  0  0  0  0  0  0  0  0  0  0
  179.3250  178.3980  144.3440 N   0  0  0  0  0  1  0  0  0  0  0  0
  1 16  2  0  0  0  0
  1 28  1  0  0  0  0
  2 18  1  0  0  0  0
  3 12  1  0  0  0  0
  4 26  2  0  0  0  0
  4 15  1  0  0  0  0
  5 22  1  0  0  0  0
  6 32  1  0  0  0  0
  7 14  1  6  0  0  0
  7 24  1  0  0  0  0
  8  7  1  0  0  0  0
  8  1  1  0  0  0  0
  9 16  1  0  0  0  0
  9 10  2  0  0  0  0
 10 17  1  0  0  0  0
 11  6  2  0  0  0  0
 12 11  1  0  0  0  0
 13  7  1  0  0  0  0
 13  9  1  0  0  0  0
 16  4  1  0  0  0  0
 17 15  2  0  0  0  0
 19 18  1  0  0  0  0
 20 23  2  0  0  0  0
 21 19  2  0  0  0  0
 21 27  1  0  0  0  0
 22 12  2  0  0  0  0
 22 20  1  0  0  0  0
 23  6  1  0  0  0  0
 24 14  1  6  0  0  0
 24 25  1  0  0  0  0
 24  5  1  0  0  0  0
 25  3  2  0  0  0  0
 26  2  1  0  0  0  0
 27 28  1  0  0  0  0
 28 26  1  0  0  0  0
 29 19  1  0  0  0  0
 30 29  1  0  0  0  0
 31 29  2  0  0  0  0
 32 33  2  0  0  0  0
 32 34  1  0  0  0  0
M  END
>  <MODEL>
8

>  <REMARK>
 VINA RESULT:      -5.5      5.196      8.070
  Name = 
  2 active torsions:
  status: ('A' for Active; 'I' for Inactive)
    1  A    between atoms: C_3  and  C_25
    2  A    between atoms: C_7  and  C_11
                            x       y       z     vdW  Elec       q    Type
                         _______ _______ _______ _____ _____    ______ ____

>  <TORSDO>
F 2

$$$$
=
 OpenBabel11052415493D

 34 40  0  0  1  0  0  0  0  0999 V2000
  183.7840  176.3900  135.9240 C   0  0  0  0  0  0  0  0  0  0  0  0
  186.7500  174.6070  137.0920 C   0  0  0  0  0  2  0  0  0  0  0  0
  181.5580  179.6360  138.3660 C   0  0  0  0  0  3  0  0  0  0  0  0
  184.2220  174.4070  136.7940 C   0  0  0  0  0  0  0  0  0  0  0  0
  179.5590  177.7440  137.3410 C   0  0  0  0  0  2  0  0  0  0  0  0
  180.2470  178.1500  141.5790 C   0  0  0  0  0  0  0  0  0  0  0  0
  181.4680  177.2350  135.6180 C   0  0  2  0  0  0  0  0  0  0  0  0
  182.9660  177.4940  135.3190 C   0  0  0  0  0  2  0  0  0  0  0  0
  181.9110  174.8270  136.2110 C   0  0  0  0  0  0  0  0  0  0  0  0
  181.5810  173.5340  136.6540 C   0  0  0  0  0  3  0  0  0  0  0  0
  180.9700  178.9410  140.6750 C   0  0  0  0  0  3  0  0  0  0  0  0
  180.7770  178.8020  139.2990 C   0  0  0  0  0  0  0  0  0  0  0  0
  180.9210  175.7830  135.6000 C   0  0  0  0  0  2  0  0  0  0  0  0
  180.5250  178.2660  135.0200 C   0  0  0  0  0  2  0  0  0  0  0  0
  183.9370  173.1200  137.2530 C   0  0  0  0  0  3  0  0  0  0  0  0
  183.2400  175.2000  136.2910 C   0  0  0  0  0  0  0  0  0  0  0  0
  182.5910  172.6860  137.1760 C   0  0  0  0  0  3  0  0  0  0  0  0
  187.8240  175.6780  137.2320 C   0  0  0  0  0  2  0  0  0  0  0  0
  188.1500  176.2640  135.8920 C   0  0  0  0  0  0  0  0  0  0  0  0
  179.1170  177.0780  139.7130 C   0  0  0  0  0  3  0  0  0  0  0  0
  187.2900  177.0990  135.3050 C   0  0  0  0  0  3  0  0  0  0  0  0
  179.8450  177.8590  138.8120 C   0  0  0  0  0  0  0  0  0  0  0  0
  179.3210  177.2180  141.0890 C   0  0  0  0  0  3  0  0  0  0  0  0
  180.7550  178.2340  136.5220 C   0  0  1  0  0  0  0  0  0  0  0  0
  181.5410  179.3980  137.0540 C   0  0  0  0  0  3  0  0  0  0  0  0
  185.3930  175.1460  136.7220 C   0  0  0  0  0  0  0  0  0  0  0  0
  186.0090  177.5070  135.9640 C   0  0  0  0  0  2  0  0  0  0  0  0
  185.1160  176.3650  136.1560 N   0  0  0  0  0  0  0  0  0  0  0  0
  189.3950  175.8740  135.2040 C   0  0  0  0  0  0  0  0  0  0  0  0
  189.5880  174.5290  134.7790 N   0  0  0  0  0  1  0  0  0  0  0  0
  190.3000  176.7250  134.9870 O   0  0  0  0  0  0  0  0  0  0  0  0
  180.4580  178.2970  143.0300 C   0  0  0  0  0  0  0  0  0  0  0  0
  179.6150  177.8370  143.8450 O   0  0  0  0  0  0  0  0  0  0  0  0
  181.6170  178.9610  143.5270 N   0  0  0  0  0  1  0  0  0  0  0  0
  1 28  1  0  0  0  0
  1 16  2  0  0  0  0
  2 18  1  0  0  0  0
  3 12  1  0  0  0  0
  4 15  1  0  0  0  0
  5 22  1  0  0  0  0
  6 32  1  0  0  0  0
  7 14  1  6  0  0  0
  7 24  1  0  0  0  0
  8  7  1  0  0  0  0
  8  1  1  0  0  0  0
  9 16  1  0  0  0  0
  9 10  2  0  0  0  0
 10 17  1  0  0  0  0
 11  6  2  0  0  0  0
 12 11  1  0  0  0  0
 13  7  1  0  0  0  0
 13  9  1  0  0  0  0
 16  4  1  0  0  0  0
 17 15  2  0  0  0  0
 19 18  1  0  0  0  0
 20 23  2  0  0  0  0
 21 19  2  0  0  0  0
 21 27  1  0  0  0  0
 22 12  2  0  0  0  0
 22 20  1  0  0  0  0
 23  6  1  0  0  0  0
 24 14  1  6  0  0  0
 24 25  1  0  0  0  0
 24  5  1  0  0  0  0
 25  3  2  0  0  0  0
 26  4  2  0  0  0  0
 26  2  1  0  0  0  0
 27 28  1  0  0  0  0
 28 26  1  0  0  0  0
 29 19  1  0  0  0  0
 30 29  1  0  0  0  0
 31 29  2  0  0  0  0
 32 34  1  0  0  0  0
 32 33  2  0  0  0  0
M  END
>  <MODEL>
9

>  <REMARK>
 VINA RESULT:      -5.3      4.918      7.335
  Name = 
  2 active torsions:
  status: ('A' for Active; 'I' for Inactive)
    1  A    between atoms: C_3  and  C_25
    2  A    between atoms: C_7  and  C_11
                            x       y       z     vdW  Elec       q    Type
                         _______ _______ _______ _____ _____    ______ ____

>  <TORSDO>
F 2

$$$$
