=
 OpenBabel11052416453D

 43 47  0  0  1  0  0  0  0  0999 V2000
  189.0450  177.3750  141.9740 N   0  0  0  0  0  0  0  0  0  0  0  0
  188.8130  178.3770  139.8350 C   0  0  2  0  0  3  0  0  0  0  0  0
  190.9540  177.8510  140.7290 O   0  0  0  0  0  1  0  0  0  0  0  0
  189.6380  177.3930  140.6500 C   0  0  1  0  0  3  0  0  0  0  0  0
  189.5510  176.5350  143.0280 C   0  0  0  0  0  0  0  0  0  0  0  0
  190.2080  175.5030  142.7290 O   0  0  0  0  0  0  0  0  0  0  0  0
  187.9250  178.2980  142.1110 C   0  0  1  0  0  3  0  0  0  0  0  0
  187.9440  179.1300  140.8430 C   0  0  0  0  0  2  0  0  0  0  0  0
  188.8910  177.4990  147.1540 C   0  0  0  0  0  0  0  0  0  0  0  0
  190.4230  177.1910  145.3010 C   0  0  0  0  0  0  0  0  0  0  0  0
  187.8150  177.1900  146.3210 C   0  0  0  0  0  3  0  0  0  0  0  0
  188.6130  177.8700  148.8400 Cl  0  0  0  0  0  0  0  0  0  0  0  0
  189.3420  176.8700  144.4540 C   0  0  0  0  0  0  0  0  0  0  0  0
  190.1920  177.5000  146.6450 C   0  0  0  0  0  3  0  0  0  0  0  0
  188.0400  176.8780  144.9780 C   0  0  0  0  0  3  0  0  0  0  0  0
  191.7300  177.1880  144.8270 O   0  0  0  0  0  1  0  0  0  0  0  0
  187.9930  177.6360  138.8150 C   0  0  0  0  0  0  0  0  0  0  0  0
  186.7680  178.2110  138.3570 N   0  0  0  0  0  2  0  0  0  0  0  0
  188.3560  176.5030  138.3940 O   0  0  0  0  0  0  0  0  0  0  0  0
  185.9450  177.5780  137.3420 C   0  0  0  0  0  2  0  0  0  0  0  0
  184.6820  177.0420  137.9890 C   0  0  0  0  0  2  0  0  0  0  0  0
  183.6410  178.1120  138.0730 C   0  0  0  0  0  0  0  0  0  0  0  0
  181.4130  178.9690  137.6270 C   0  0  0  0  0  3  0  0  0  0  0  0
  183.9730  179.3240  138.6870 C   0  0  0  0  0  3  0  0  0  0  0  0
  183.0320  180.3540  138.7700 C   0  0  0  0  0  3  0  0  0  0  0  0
  182.3460  177.9270  137.5460 C   0  0  0  0  0  0  0  0  0  0  0  0
  181.7540  180.1780  138.2370 C   0  0  0  0  0  3  0  0  0  0  0  0
  181.9440  176.6330  136.9030 C   0  0  0  0  0  2  0  0  0  0  0  0
  181.0290  175.8550  137.7900 C   0  0  0  0  0  0  0  0  0  0  0  0
  179.3530  174.3590  139.4180 C   0  0  0  0  0  3  0  0  0  0  0  0
  179.1370  174.4410  138.0410 C   0  0  0  0  0  3  0  0  0  0  0  0
  180.4320  175.0420  139.9800 C   0  0  0  0  0  3  0  0  0  0  0  0
  179.9710  175.1800  137.2630 N   0  0  0  0  0  0  0  0  0  0  0  0
  181.2780  175.7950  139.1640 C   0  0  0  0  0  3  0  0  0  0  0  0
  186.6020  177.5370  142.1640 C   0  0  0  0  0  2  0  0  0  0  0  0
  183.0270  178.9800  142.2380 C   0  0  1  0  0  3  0  0  0  0  0  0
  182.9100  179.1070  143.7390 C   0  0  0  0  0  0  0  0  0  0  0  0
  181.8200  179.1770  144.2870 O   0  0  0  0  0  0  0  0  0  0  0  0
  185.2410  178.3160  144.0960 C   0  0  0  0  0  2  0  0  0  0  0  0
  184.1670  178.0340  141.8660 C   0  0  0  0  0  2  0  0  0  0  0  0
  185.4530  178.4330  142.5910 C   0  0  2  0  0  3  0  0  0  0  0  0
  181.7400  178.4830  141.6000 C   0  0  0  0  0  1  0  0  0  0  0  0
  184.1560  179.2890  144.5550 C   0  0  0  0  0  2  0  0  0  0  0  0
  1  7  1  0  0  0  0
  1  5  1  0  0  0  0
  2 17  1  6  0  0  0
  2  4  1  0  0  0  0
  2  8  1  0  0  0  0
  4  3  1  1  0  0  0
  4  1  1  0  0  0  0
  5 13  1  0  0  0  0
  6  5  2  0  0  0  0
  7 35  1  6  0  0  0
  8  7  1  0  0  0  0
  9 12  1  0  0  0  0
 10 14  2  0  0  0  0
 11  9  2  0  0  0  0
 13 15  2  0  0  0  0
 13 10  1  0  0  0  0
 14  9  1  0  0  0  0
 15 11  1  0  0  0  0
 16 10  1  0  0  0  0
 18 17  1  0  0  0  0
 19 17  2  0  0  0  0
 20 21  1  0  0  0  0
 20 18  1  0  0  0  0
 21 22  1  0  0  0  0
 22 24  1  0  0  0  0
 23 27  2  0  0  0  0
 24 25  2  0  0  0  0
 26 23  1  0  0  0  0
 26 22  2  0  0  0  0
 27 25  1  0  0  0  0
 28 26  1  0  0  0  0
 28 29  1  0  0  0  0
 29 34  1  0  0  0  0
 30 32  1  0  0  0  0
 31 30  2  0  0  0  0
 33 29  2  0  0  0  0
 33 31  1  0  0  0  0
 34 32  2  0  0  0  0
 36 42  1  1  0  0  0
 36 37  1  0  0  0  0
 37 38  2  0  0  0  0
 37 43  1  0  0  0  0
 39 43  1  0  0  0  0
 40 36  1  0  0  0  0
 40 41  1  0  0  0  0
 41 35  1  6  0  0  0
 41 39  1  0  0  0  0
M  END
>  <MODEL>
1

>  <REMARK>
 VINA RESULT:      -8.2      0.000      0.000
  Name = 
  9 active torsions:
  status: ('A' for Active; 'I' for Inactive)
    1  A    between atoms: C_1  and  C_34
    2  A    between atoms: C_1  and  C_35
    3  A    between atoms: C_2  and  C_13
    4  A    between atoms: C_3  and  C_4
    5  A    between atoms: C_3  and  C_12
    6  A    between atoms: N_6  and  C_12
    7  A    between atoms: C_11  and  C_14
    8  A    between atoms: C_14  and  C_41
    9  A    between atoms: C_21  and  C_30
                            x       y       z     vdW  Elec       q    Type
                         _______ _______ _______ _____ _____    ______ ____

>  <TORSDO>
F 9

$$$$
=
 OpenBabel11052416453D

 43 47  0  0  1  0  0  0  0  0999 V2000
  188.9290  177.3640  142.0140 N   0  0  0  0  0  0  0  0  0  0  0  0
  188.6390  178.3490  139.8750 C   0  0  2  0  0  3  0  0  0  0  0  0
  190.8050  177.8440  140.7210 O   0  0  0  0  0  1  0  0  0  0  0  0
  189.4900  177.3770  140.6750 C   0  0  1  0  0  3  0  0  0  0  0  0
  189.4660  176.5340  143.0610 C   0  0  0  0  0  0  0  0  0  0  0  0
  190.1230  175.5040  142.7530 O   0  0  0  0  0  0  0  0  0  0  0  0
  187.8070  178.2790  142.1710 C   0  0  1  0  0  3  0  0  0  0  0  0
  187.7900  179.1040  140.8980 C   0  0  0  0  0  2  0  0  0  0  0  0
  188.8990  177.5320  147.1930 C   0  0  0  0  0  0  0  0  0  0  0  0
  190.3900  176.9700  145.3660 C   0  0  0  0  0  0  0  0  0  0  0  0
  187.8050  177.4490  146.3300 C   0  0  0  0  0  3  0  0  0  0  0  0
  188.6530  177.9190  148.8800 Cl  0  0  0  0  0  0  0  0  0  0  0  0
  189.2890  176.8770  144.4900 C   0  0  0  0  0  0  0  0  0  0  0  0
  190.1880  177.2940  146.7120 C   0  0  0  0  0  3  0  0  0  0  0  0
  188.0000  177.1250  144.9860 C   0  0  0  0  0  3  0  0  0  0  0  0
  191.6840  176.7260  144.9200 O   0  0  0  0  0  1  0  0  0  0  0  0
  187.8000  177.5960  138.8800 C   0  0  0  0  0  0  0  0  0  0  0  0
  186.4920  178.0780  138.5670 N   0  0  0  0  0  2  0  0  0  0  0  0
  188.2240  176.5310  138.3520 O   0  0  0  0  0  0  0  0  0  0  0  0
  185.6400  177.4320  137.5840 C   0  0  0  0  0  2  0  0  0  0  0  0
  184.3210  178.1750  137.5050 C   0  0  0  0  0  2  0  0  0  0  0  0
  183.1840  177.2620  137.8340 C   0  0  0  0  0  0  0  0  0  0  0  0
  180.8400  176.6350  137.7190 C   0  0  0  0  0  3  0  0  0  0  0  0
  183.4320  176.1410  138.6340 C   0  0  0  0  0  3  0  0  0  0  0  0
  182.3920  175.2740  138.9760 C   0  0  0  0  0  3  0  0  0  0  0  0
  181.8770  177.5070  137.3620 C   0  0  0  0  0  0  0  0  0  0  0  0
  181.0960  175.5220  138.5230 C   0  0  0  0  0  3  0  0  0  0  0  0
  181.5750  178.6830  136.4820 C   0  0  0  0  0  2  0  0  0  0  0  0
  180.9240  179.7800  137.2580 C   0  0  0  0  0  0  0  0  0  0  0  0
  179.6980  181.7790  138.7400 C   0  0  0  0  0  3  0  0  0  0  0  0
  178.9460  180.8750  137.9870 C   0  0  0  0  0  3  0  0  0  0  0  0
  181.0890  181.6710  138.7450 C   0  0  0  0  0  3  0  0  0  0  0  0
  179.5680  179.9030  137.2690 N   0  0  0  0  0  0  0  0  0  0  0  0
  181.7100  180.6650  138.0010 C   0  0  0  0  0  3  0  0  0  0  0  0
  186.4910  177.5100  142.2610 C   0  0  0  0  0  2  0  0  0  0  0  0
  182.9710  179.0090  141.7750 C   0  0  1  0  0  3  0  0  0  0  0  0
  182.6430  179.1880  143.2390 C   0  0  0  0  0  0  0  0  0  0  0  0
  181.4870  179.2930  143.6210 O   0  0  0  0  0  0  0  0  0  0  0  0
  184.8820  178.3750  143.9520 C   0  0  0  0  0  2  0  0  0  0  0  0
  184.1340  178.0340  141.6010 C   0  0  0  0  0  2  0  0  0  0  0  0
  185.3100  178.4370  142.4900 C   0  0  2  0  0  3  0  0  0  0  0  0
  181.7790  178.5100  140.9740 C   0  0  0  0  0  1  0  0  0  0  0  0
  183.7620  179.3790  144.2190 C   0  0  0  0  0  2  0  0  0  0  0  0
  1  7  1  0  0  0  0
  1  5  1  0  0  0  0
  2 17  1  6  0  0  0
  2  4  1  0  0  0  0
  2  8  1  0  0  0  0
  4  3  1  1  0  0  0
  4  1  1  0  0  0  0
  5 13  1  0  0  0  0
  6  5  2  0  0  0  0
  7 35  1  6  0  0  0
  8  7  1  0  0  0  0
  9 12  1  0  0  0  0
 10 14  2  0  0  0  0
 11  9  2  0  0  0  0
 13 15  2  0  0  0  0
 13 10  1  0  0  0  0
 14  9  1  0  0  0  0
 15 11  1  0  0  0  0
 16 10  1  0  0  0  0
 18 17  1  0  0  0  0
 19 17  2  0  0  0  0
 20 18  1  0  0  0  0
 21 20  1  0  0  0  0
 21 22  1  0  0  0  0
 22 24  1  0  0  0  0
 23 27  2  0  0  0  0
 24 25  2  0  0  0  0
 26 23  1  0  0  0  0
 26 22  2  0  0  0  0
 27 25  1  0  0  0  0
 28 29  1  0  0  0  0
 28 26  1  0  0  0  0
 29 33  2  0  0  0  0
 29 34  1  0  0  0  0
 30 32  1  0  0  0  0
 31 30  2  0  0  0  0
 33 31  1  0  0  0  0
 34 32  2  0  0  0  0
 36 42  1  6  0  0  0
 36 37  1  0  0  0  0
 37 38  2  0  0  0  0
 37 43  1  0  0  0  0
 39 43  1  0  0  0  0
 40 36  1  0  0  0  0
 40 41  1  0  0  0  0
 41 35  1  1  0  0  0
 41 39  1  0  0  0  0
M  END
>  <MODEL>
2

>  <REMARK>
 VINA RESULT:      -8.0      1.125      2.559
  Name = 
  9 active torsions:
  status: ('A' for Active; 'I' for Inactive)
    1  A    between atoms: C_1  and  C_34
    2  A    between atoms: C_1  and  C_35
    3  A    between atoms: C_2  and  C_13
    4  A    between atoms: C_3  and  C_4
    5  A    between atoms: C_3  and  C_12
    6  A    between atoms: N_6  and  C_12
    7  A    between atoms: C_11  and  C_14
    8  A    between atoms: C_14  and  C_41
    9  A    between atoms: C_21  and  C_30
                            x       y       z     vdW  Elec       q    Type
                         _______ _______ _______ _____ _____    ______ ____

>  <TORSDO>
F 9

$$$$
=
 OpenBabel11052416453D

 43 47  0  0  1  0  0  0  0  0999 V2000
  188.3420  176.6790  136.4120 N   0  0  0  0  0  0  0  0  0  0  0  0
  186.7640  178.4090  136.7950 C   0  0  2  0  0  3  0  0  0  0  0  0
  187.1690  177.5660  134.6070 O   0  0  0  0  0  1  0  0  0  0  0  0
  187.0640  177.1840  135.9460 C   0  0  1  0  0  3  0  0  0  0  0  0
  188.9510  175.5010  135.8510 C   0  0  0  0  0  0  0  0  0  0  0  0
  188.2230  174.6490  135.2750 O   0  0  0  0  0  0  0  0  0  0  0  0
  188.9270  177.4940  137.4680 C   0  0  1  0  0  3  0  0  0  0  0  0
  188.0630  178.7400  137.5280 C   0  0  0  0  0  2  0  0  0  0  0  0
  193.1950  174.9040  135.9790 C   0  0  0  0  0  0  0  0  0  0  0  0
  190.9780  174.3100  136.7600 C   0  0  0  0  0  0  0  0  0  0  0  0
  192.6420  175.8620  135.1280 C   0  0  0  0  0  3  0  0  0  0  0  0
  194.9290  174.6830  136.0390 Cl  0  0  0  0  0  0  0  0  0  0  0  0
  190.4130  175.2810  135.9080 C   0  0  0  0  0  0  0  0  0  0  0  0
  192.3650  174.1300  136.7930 C   0  0  0  0  0  3  0  0  0  0  0  0
  191.2590  176.0480  135.0930 C   0  0  0  0  0  3  0  0  0  0  0  0
  190.1790  173.5330  137.5910 O   0  0  0  0  0  1  0  0  0  0  0  0
  185.6340  178.1100  137.7420 C   0  0  0  0  0  0  0  0  0  0  0  0
  185.1120  179.1620  138.5560 N   0  0  0  0  0  2  0  0  0  0  0  0
  185.1720  176.9410  137.8490 O   0  0  0  0  0  0  0  0  0  0  0  0
  183.9940  178.9640  139.4600 C   0  0  0  0  0  2  0  0  0  0  0  0
  184.5120  178.8930  140.8830 C   0  0  0  0  0  2  0  0  0  0  0  0
  183.3760  178.8280  141.8530 C   0  0  0  0  0  0  0  0  0  0  0  0
  182.4230  179.1780  144.0600 C   0  0  0  0  0  3  0  0  0  0  0  0
  182.1560  178.2970  141.4220 C   0  0  0  0  0  3  0  0  0  0  0  0
  181.0760  178.2040  142.3040 C   0  0  0  0  0  3  0  0  0  0  0  0
  183.5100  179.2840  143.1810 C   0  0  0  0  0  0  0  0  0  0  0  0
  181.2100  178.6410  143.6230 C   0  0  0  0  0  3  0  0  0  0  0  0
  184.7930  179.8830  143.6740 C   0  0  0  0  0  2  0  0  0  0  0  0
  185.3880  179.0550  144.7640 C   0  0  0  0  0  0  0  0  0  0  0  0
  186.4390  177.4980  146.8060 C   0  0  0  0  0  3  0  0  0  0  0  0
  185.8040  178.7120  147.0770 C   0  0  0  0  0  3  0  0  0  0  0  0
  186.5430  177.0640  145.4840 C   0  0  0  0  0  3  0  0  0  0  0  0
  185.2970  179.4580  146.0610 N   0  0  0  0  0  0  0  0  0  0  0  0
  186.0140  177.8440  144.4540 C   0  0  0  0  0  3  0  0  0  0  0  0
  188.8340  176.7820  138.8150 C   0  0  0  0  0  2  0  0  0  0  0  0
  189.9240  178.0320  142.2970 C   0  0  1  0  0  3  0  0  0  0  0  0
  191.3710  177.6070  142.2010 C   0  0  0  0  0  0  0  0  0  0  0  0
  192.0550  177.4530  143.2020 O   0  0  0  0  0  0  0  0  0  0  0  0
  191.0870  176.7860  139.8710 C   0  0  0  0  0  2  0  0  0  0  0  0
  189.0800  177.3060  141.2500 C   0  0  0  0  0  2  0  0  0  0  0  0
  189.7110  177.4410  139.8640 C   0  0  2  0  0  3  0  0  0  0  0  0
  189.3380  177.7740  143.6750 C   0  0  0  0  0  1  0  0  0  0  0  0
  192.0130  177.5060  140.8490 C   0  0  0  0  0  2  0  0  0  0  0  0
  1  7  1  0  0  0  0
  2  8  1  0  0  0  0
  2 17  1  1  0  0  0
  4  3  1  6  0  0  0
  4  1  1  0  0  0  0
  4  2  1  0  0  0  0
  5 13  1  0  0  0  0
  5  1  1  0  0  0  0
  6  5  2  0  0  0  0
  7  8  1  0  0  0  0
  7 35  1  1  0  0  0
  9 12  1  0  0  0  0
  9 14  1  0  0  0  0
 10 14  2  0  0  0  0
 10 16  1  0  0  0  0
 11  9  2  0  0  0  0
 13 10  1  0  0  0  0
 15 11  1  0  0  0  0
 15 13  2  0  0  0  0
 17 19  2  0  0  0  0
 17 18  1  0  0  0  0
 18 20  1  0  0  0  0
 20 21  1  0  0  0  0
 21 22  1  0  0  0  0
 22 26  1  0  0  0  0
 24 22  2  0  0  0  0
 24 25  1  0  0  0  0
 25 27  2  0  0  0  0
 26 28  1  0  0  0  0
 26 23  2  0  0  0  0
 27 23  1  0  0  0  0
 28 29  1  0  0  0  0
 29 33  1  0  0  0  0
 30 31  1  0  0  0  0
 32 30  2  0  0  0  0
 33 31  2  0  0  0  0
 34 29  2  0  0  0  0
 34 32  1  0  0  0  0
 36 42  1  1  0  0  0
 37 36  1  0  0  0  0
 37 38  2  0  0  0  0
 39 43  1  0  0  0  0
 40 36  1  0  0  0  0
 41 35  1  6  0  0  0
 41 39  1  0  0  0  0
 41 40  1  0  0  0  0
 43 37  1  0  0  0  0
M  END
>  <MODEL>
3

>  <REMARK>
 VINA RESULT:      -7.8      3.712      7.754
  Name = 
  9 active torsions:
  status: ('A' for Active; 'I' for Inactive)
    1  A    between atoms: C_1  and  C_34
    2  A    between atoms: C_1  and  C_35
    3  A    between atoms: C_2  and  C_13
    4  A    between atoms: C_3  and  C_4
    5  A    between atoms: C_3  and  C_12
    6  A    between atoms: N_6  and  C_12
    7  A    between atoms: C_11  and  C_14
    8  A    between atoms: C_14  and  C_41
    9  A    between atoms: C_21  and  C_30
                            x       y       z     vdW  Elec       q    Type
                         _______ _______ _______ _____ _____    ______ ____

>  <TORSDO>
F 9

$$$$
=
 OpenBabel11052416453D

 43 47  0  0  1  0  0  0  0  0999 V2000
  181.8440  176.8350  138.5930 N   0  0  0  0  0  0  0  0  0  0  0  0
  182.4270  179.1260  138.7940 C   0  0  2  0  0  3  0  0  0  0  0  0
  180.3040  178.3230  139.5080 O   0  0  0  0  0  1  0  0  0  0  0  0
  181.6590  177.9910  139.4510 C   0  0  1  0  0  3  0  0  0  0  0  0
  181.2720  175.5510  138.9050 C   0  0  0  0  0  0  0  0  0  0  0  0
  180.9830  175.2810  140.1010 O   0  0  0  0  0  0  0  0  0  0  0  0
  182.6340  177.1270  137.4040 C   0  0  1  0  0  3  0  0  0  0  0  0
  182.7780  178.6370  137.3890 C   0  0  0  0  0  2  0  0  0  0  0  0
  180.4970  172.6290  135.8630 C   0  0  0  0  0  0  0  0  0  0  0  0
  179.8470  174.6530  137.0290 C   0  0  0  0  0  0  0  0  0  0  0  0
  181.6330  172.5260  136.6680 C   0  0  0  0  0  3  0  0  0  0  0  0
  180.1790  171.4190  134.6410 Cl  0  0  0  0  0  0  0  0  0  0  0  0
  180.9880  174.5520  137.8500 C   0  0  0  0  0  0  0  0  0  0  0  0
  179.6060  173.6890  136.0440 C   0  0  0  0  0  3  0  0  0  0  0  0
  181.8770  173.4840  137.6550 C   0  0  0  0  0  3  0  0  0  0  0  0
  178.9350  175.6890  137.1920 O   0  0  0  0  0  1  0  0  0  0  0  0
  183.6490  179.4550  139.6060 C   0  0  0  0  0  0  0  0  0  0  0  0
  183.7640  178.9340  140.9320 N   0  0  0  0  0  2  0  0  0  0  0  0
  184.5480  180.2110  139.1460 O   0  0  0  0  0  0  0  0  0  0  0  0
  184.9320  179.1690  141.7620 C   0  0  0  0  0  2  0  0  0  0  0  0
  185.3710  177.8590  142.3850 C   0  0  0  0  0  2  0  0  0  0  0  0
  185.5720  178.0200  143.8580 C   0  0  0  0  0  0  0  0  0  0  0  0
  186.8050  177.6020  145.9080 C   0  0  0  0  0  3  0  0  0  0  0  0
  184.6330  178.7590  144.5860 C   0  0  0  0  0  3  0  0  0  0  0  0
  184.7780  178.9180  145.9670 C   0  0  0  0  0  3  0  0  0  0  0  0
  186.6750  177.4440  144.5220 C   0  0  0  0  0  0  0  0  0  0  0  0
  185.8610  178.3370  146.6280 C   0  0  0  0  0  3  0  0  0  0  0  0
  187.7160  176.6670  143.7730 C   0  0  0  0  0  2  0  0  0  0  0  0
  189.0790  177.2270  144.0140 C   0  0  0  0  0  0  0  0  0  0  0  0
  191.6360  178.2180  144.4360 C   0  0  0  0  0  3  0  0  0  0  0  0
  191.1220  177.1860  145.2250 C   0  0  0  0  0  3  0  0  0  0  0  0
  190.8460  178.7560  143.4200 C   0  0  0  0  0  3  0  0  0  0  0  0
  189.8670  176.7160  144.9990 N   0  0  0  0  0  0  0  0  0  0  0  0
  189.5590  178.2590  143.2030 C   0  0  0  0  0  3  0  0  0  0  0  0
  184.0280  176.5130  137.5180 C   0  0  0  0  0  2  0  0  0  0  0  0
  187.3090  178.4160  136.8230 C   0  0  1  0  0  3  0  0  0  0  0  0
  187.5720  177.8360  135.4530 C   0  0  0  0  0  0  0  0  0  0  0  0
  188.6910  177.8500  134.9630 O   0  0  0  0  0  0  0  0  0  0  0  0
  185.4550  176.5330  135.4790 C   0  0  0  0  0  2  0  0  0  0  0  0
  186.3010  177.5580  137.5850 C   0  0  0  0  0  2  0  0  0  0  0  0
  185.0580  177.3050  136.7320 C   0  0  2  0  0  3  0  0  0  0  0  0
  188.5790  178.5440  137.6480 C   0  0  0  0  0  1  0  0  0  0  0  0
  186.4130  177.3620  134.6270 C   0  0  0  0  0  2  0  0  0  0  0  0
  1  5  1  0  0  0  0
  1  4  1  0  0  0  0
  2  4  1  0  0  0  0
  2 17  1  1  0  0  0
  4  3  1  6  0  0  0
  5  6  2  0  0  0  0
  7 35  1  1  0  0  0
  7  1  1  0  0  0  0
  8  7  1  0  0  0  0
  8  2  1  0  0  0  0
  9 14  2  0  0  0  0
  9 11  1  0  0  0  0
 10 16  1  0  0  0  0
 10 13  2  0  0  0  0
 11 15  2  0  0  0  0
 12  9  1  0  0  0  0
 13  5  1  0  0  0  0
 14 10  1  0  0  0  0
 15 13  1  0  0  0  0
 17 18  1  0  0  0  0
 18 20  1  0  0  0  0
 19 17  2  0  0  0  0
 20 21  1  0  0  0  0
 21 22  1  0  0  0  0
 22 26  2  0  0  0  0
 22 24  1  0  0  0  0
 23 27  2  0  0  0  0
 24 25  2  0  0  0  0
 25 27  1  0  0  0  0
 26 23  1  0  0  0  0
 28 29  1  0  0  0  0
 28 26  1  0  0  0  0
 29 33  1  0  0  0  0
 30 31  1  0  0  0  0
 32 30  2  0  0  0  0
 33 31  2  0  0  0  0
 34 32  1  0  0  0  0
 34 29  2  0  0  0  0
 36 40  1  0  0  0  0
 36 42  1  1  0  0  0
 37 36  1  0  0  0  0
 38 37  2  0  0  0  0
 39 41  1  0  0  0  0
 41 35  1  1  0  0  0
 41 40  1  0  0  0  0
 43 37  1  0  0  0  0
 43 39  1  0  0  0  0
M  END
>  <MODEL>
4

>  <REMARK>
 VINA RESULT:      -7.8      3.939      9.873
  Name = 
  9 active torsions:
  status: ('A' for Active; 'I' for Inactive)
    1  A    between atoms: C_1  and  C_34
    2  A    between atoms: C_1  and  C_35
    3  A    between atoms: C_2  and  C_13
    4  A    between atoms: C_3  and  C_4
    5  A    between atoms: C_3  and  C_12
    6  A    between atoms: N_6  and  C_12
    7  A    between atoms: C_11  and  C_14
    8  A    between atoms: C_14  and  C_41
    9  A    between atoms: C_21  and  C_30
                            x       y       z     vdW  Elec       q    Type
                         _______ _______ _______ _____ _____    ______ ____

>  <TORSDO>
F 9

$$$$
=
 OpenBabel11052416453D

 43 47  0  0  1  0  0  0  0  0999 V2000
  189.1740  177.2570  141.9760 N   0  0  0  0  0  0  0  0  0  0  0  0
  189.1100  178.2160  139.8060 C   0  0  2  0  0  3  0  0  0  0  0  0
  191.1730  177.6550  140.8500 O   0  0  0  0  0  1  0  0  0  0  0  0
  189.8530  177.2300  140.6930 C   0  0  1  0  0  3  0  0  0  0  0  0
  189.5870  176.4280  143.0780 C   0  0  0  0  0  0  0  0  0  0  0  0
  190.2340  175.3730  142.8440 O   0  0  0  0  0  0  0  0  0  0  0  0
  188.0740  178.2110  142.0190 C   0  0  1  0  0  3  0  0  0  0  0  0
  188.1990  179.0140  140.7380 C   0  0  0  0  0  2  0  0  0  0  0  0
  188.6870  177.4990  147.1320 C   0  0  0  0  0  0  0  0  0  0  0  0
  190.3210  177.1830  145.3690 C   0  0  0  0  0  0  0  0  0  0  0  0
  187.6650  177.1290  146.2560 C   0  0  0  0  0  3  0  0  0  0  0  0
  188.3110  177.9130  148.7890 Cl  0  0  0  0  0  0  0  0  0  0  0  0
  189.2950  176.8010  144.4800 C   0  0  0  0  0  0  0  0  0  0  0  0
  190.0120  177.5260  146.6890 C   0  0  0  0  0  3  0  0  0  0  0  0
  187.9690  176.7830  144.9370 C   0  0  0  0  0  3  0  0  0  0  0  0
  191.6500  177.2070  144.9620 O   0  0  0  0  0  1  0  0  0  0  0  0
  188.3380  177.4730  138.7500 C   0  0  0  0  0  0  0  0  0  0  0  0
  187.1900  178.0900  138.1650 N   0  0  0  0  0  2  0  0  0  0  0  0
  188.6720  176.3060  138.4070 O   0  0  0  0  0  0  0  0  0  0  0  0
  186.4200  177.4570  137.1100 C   0  0  0  0  0  2  0  0  0  0  0  0
  185.0590  177.0680  137.6520 C   0  0  0  0  0  2  0  0  0  0  0  0
  184.7420  175.6490  137.3050 C   0  0  0  0  0  0  0  0  0  0  0  0
  183.1700  173.8750  136.7730 C   0  0  0  0  0  3  0  0  0  0  0  0
  185.7920  174.7280  137.2200 C   0  0  0  0  0  3  0  0  0  0  0  0
  185.5340  173.3890  136.9150 C   0  0  0  0  0  3  0  0  0  0  0  0
  183.4190  175.2220  137.0700 C   0  0  0  0  0  0  0  0  0  0  0  0
  184.2240  172.9620  136.6950 C   0  0  0  0  0  3  0  0  0  0  0  0
  182.2690  176.1820  137.1260 C   0  0  0  0  0  2  0  0  0  0  0  0
  181.1860  175.6700  138.0180 C   0  0  0  0  0  0  0  0  0  0  0  0
  179.1870  174.6630  139.6570 C   0  0  0  0  0  3  0  0  0  0  0  0
  179.0310  174.7040  138.2700 C   0  0  0  0  0  3  0  0  0  0  0  0
  180.3710  175.1360  140.2230 C   0  0  0  0  0  3  0  0  0  0  0  0
  180.0230  175.2020  137.4860 N   0  0  0  0  0  0  0  0  0  0  0  0
  181.3800  175.6430  139.4010 C   0  0  0  0  0  3  0  0  0  0  0  0
  186.7300  177.4860  142.0020 C   0  0  0  0  0  2  0  0  0  0  0  0
  183.1930  179.0240  141.9910 C   0  0  1  0  0  3  0  0  0  0  0  0
  183.0270  179.1140  143.4900 C   0  0  0  0  0  0  0  0  0  0  0  0
  181.9200  179.1990  144.0010 O   0  0  0  0  0  0  0  0  0  0  0  0
  185.3220  178.2510  143.9050 C   0  0  0  0  0  2  0  0  0  0  0  0
  184.3210  178.0570  141.6330 C   0  0  0  0  0  2  0  0  0  0  0  0
  185.5910  178.4020  142.4120 C   0  0  2  0  0  3  0  0  0  0  0  0
  181.9170  178.5790  141.2950 C   0  0  0  0  0  1  0  0  0  0  0  0
  184.2470  179.2410  144.3530 C   0  0  0  0  0  2  0  0  0  0  0  0
  1  7  1  0  0  0  0
  1  5  1  0  0  0  0
  2 17  1  6  0  0  0
  2  4  1  0  0  0  0
  2  8  1  0  0  0  0
  4  3  1  1  0  0  0
  4  1  1  0  0  0  0
  5 13  1  0  0  0  0
  6  5  2  0  0  0  0
  7 35  1  6  0  0  0
  8  7  1  0  0  0  0
  9 12  1  0  0  0  0
 10 14  2  0  0  0  0
 11  9  2  0  0  0  0
 13 15  2  0  0  0  0
 13 10  1  0  0  0  0
 14  9  1  0  0  0  0
 15 11  1  0  0  0  0
 16 10  1  0  0  0  0
 18 17  1  0  0  0  0
 19 17  2  0  0  0  0
 20 21  1  0  0  0  0
 20 18  1  0  0  0  0
 22 21  1  0  0  0  0
 23 26  1  0  0  0  0
 24 22  1  0  0  0  0
 25 24  2  0  0  0  0
 26 28  1  0  0  0  0
 26 22  2  0  0  0  0
 27 23  2  0  0  0  0
 27 25  1  0  0  0  0
 28 29  1  0  0  0  0
 29 34  1  0  0  0  0
 30 32  1  0  0  0  0
 31 30  2  0  0  0  0
 33 29  2  0  0  0  0
 33 31  1  0  0  0  0
 34 32  2  0  0  0  0
 36 42  1  6  0  0  0
 36 37  1  0  0  0  0
 37 38  2  0  0  0  0
 37 43  1  0  0  0  0
 39 43  1  0  0  0  0
 40 36  1  0  0  0  0
 40 41  1  0  0  0  0
 41 35  1  6  0  0  0
 41 39  1  0  0  0  0
M  END
>  <MODEL>
5

>  <REMARK>
 VINA RESULT:      -7.6      1.183      2.131
  Name = 
  9 active torsions:
  status: ('A' for Active; 'I' for Inactive)
    1  A    between atoms: C_1  and  C_34
    2  A    between atoms: C_1  and  C_35
    3  A    between atoms: C_2  and  C_13
    4  A    between atoms: C_3  and  C_4
    5  A    between atoms: C_3  and  C_12
    6  A    between atoms: N_6  and  C_12
    7  A    between atoms: C_11  and  C_14
    8  A    between atoms: C_14  and  C_41
    9  A    between atoms: C_21  and  C_30
                            x       y       z     vdW  Elec       q    Type
                         _______ _______ _______ _____ _____    ______ ____

>  <TORSDO>
F 9

$$$$
=
 OpenBabel11052416453D

 43 47  0  0  1  0  0  0  0  0999 V2000
  189.2650  177.2940  142.0160 N   0  0  0  0  0  0  0  0  0  0  0  0
  189.2320  178.2720  139.8540 C   0  0  2  0  0  3  0  0  0  0  0  0
  191.2810  177.7060  140.9240 O   0  0  0  0  0  1  0  0  0  0  0  0
  189.9640  177.2800  140.7430 C   0  0  1  0  0  3  0  0  0  0  0  0
  189.6640  176.4560  143.1170 C   0  0  0  0  0  0  0  0  0  0  0  0
  190.3160  175.4040  142.8830 O   0  0  0  0  0  0  0  0  0  0  0  0
  188.1630  178.2450  142.0510 C   0  0  1  0  0  3  0  0  0  0  0  0
  188.3050  179.0600  140.7790 C   0  0  0  0  0  2  0  0  0  0  0  0
  188.7000  177.4880  147.1650 C   0  0  0  0  0  0  0  0  0  0  0  0
  190.3620  177.1800  145.4280 C   0  0  0  0  0  0  0  0  0  0  0  0
  187.6910  177.1360  146.2680 C   0  0  0  0  0  3  0  0  0  0  0  0
  188.2970  177.8870  148.8200 Cl  0  0  0  0  0  0  0  0  0  0  0  0
  189.3500  176.8150  144.5170 C   0  0  0  0  0  0  0  0  0  0  0  0
  190.0320  177.5100  146.7470 C   0  0  0  0  0  3  0  0  0  0  0  0
  188.0150  176.8020  144.9500 C   0  0  0  0  0  3  0  0  0  0  0  0
  191.6980  177.1980  145.0450 O   0  0  0  0  0  1  0  0  0  0  0  0
  188.4780  177.5380  138.7800 C   0  0  0  0  0  0  0  0  0  0  0  0
  187.8090  178.2870  137.7630 N   0  0  0  0  0  2  0  0  0  0  0  0
  188.4010  176.2790  138.7900 O   0  0  0  0  0  0  0  0  0  0  0  0
  187.0990  177.6510  136.6690 C   0  0  0  0  0  2  0  0  0  0  0  0
  188.0620  177.4160  135.5210 C   0  0  0  0  0  2  0  0  0  0  0  0
  188.2320  175.9520  135.2700 C   0  0  0  0  0  0  0  0  0  0  0  0
  189.5660  174.0370  134.5960 C   0  0  0  0  0  3  0  0  0  0  0  0
  187.1340  175.1060  135.4620 C   0  0  0  0  0  3  0  0  0  0  0  0
  187.2500  173.7350  135.2210 C   0  0  0  0  0  3  0  0  0  0  0  0
  189.4630  175.4120  134.8430 C   0  0  0  0  0  0  0  0  0  0  0  0
  188.4630  173.2010  134.7850 C   0  0  0  0  0  3  0  0  0  0  0  0
  190.6700  176.2820  134.6510 C   0  0  0  0  0  2  0  0  0  0  0  0
  191.7050  176.0000  135.6900 C   0  0  0  0  0  0  0  0  0  0  0  0
  193.6580  175.5240  137.6020 C   0  0  0  0  0  3  0  0  0  0  0  0
  193.8960  175.2720  136.2490 C   0  0  0  0  0  3  0  0  0  0  0  0
  192.4160  176.0240  137.9930 C   0  0  0  0  0  3  0  0  0  0  0  0
  192.9240  175.5130  135.3290 N   0  0  0  0  0  0  0  0  0  0  0  0
  191.4310  176.2660  137.0340 C   0  0  0  0  0  3  0  0  0  0  0  0
  186.8210  177.5180  142.0060 C   0  0  0  0  0  2  0  0  0  0  0  0
  183.2890  179.0670  141.9910 C   0  0  1  0  0  3  0  0  0  0  0  0
  183.0950  179.0980  143.4890 C   0  0  0  0  0  0  0  0  0  0  0  0
  181.9790  179.1660  143.9830 O   0  0  0  0  0  0  0  0  0  0  0  0
  185.3790  178.2110  143.9120 C   0  0  0  0  0  2  0  0  0  0  0  0
  184.4210  178.1120  141.6160 C   0  0  0  0  0  2  0  0  0  0  0  0
  185.6760  178.4200  142.4320 C   0  0  2  0  0  3  0  0  0  0  0  0
  182.0250  178.6550  141.2550 C   0  0  0  0  0  1  0  0  0  0  0  0
  184.2990  179.1850  144.3790 C   0  0  0  0  0  2  0  0  0  0  0  0
  1  7  1  0  0  0  0
  1  5  1  0  0  0  0
  2 17  1  6  0  0  0
  2  4  1  0  0  0  0
  2  8  1  0  0  0  0
  4  3  1  1  0  0  0
  4  1  1  0  0  0  0
  5 13  1  0  0  0  0
  6  5  2  0  0  0  0
  7 35  1  6  0  0  0
  8  7  1  0  0  0  0
  9 12  1  0  0  0  0
 10 14  2  0  0  0  0
 11  9  2  0  0  0  0
 13 15  2  0  0  0  0
 13 10  1  0  0  0  0
 14  9  1  0  0  0  0
 15 11  1  0  0  0  0
 16 10  1  0  0  0  0
 17 19  2  0  0  0  0
 18 17  1  0  0  0  0
 20 18  1  0  0  0  0
 21 20  1  0  0  0  0
 22 24  1  0  0  0  0
 22 21  1  0  0  0  0
 23 27  2  0  0  0  0
 23 26  1  0  0  0  0
 25 24  2  0  0  0  0
 26 22  2  0  0  0  0
 27 25  1  0  0  0  0
 28 26  1  0  0  0  0
 28 29  1  0  0  0  0
 29 34  1  0  0  0  0
 30 32  1  0  0  0  0
 31 30  2  0  0  0  0
 33 29  2  0  0  0  0
 33 31  1  0  0  0  0
 34 32  2  0  0  0  0
 36 42  1  6  0  0  0
 36 37  1  0  0  0  0
 37 38  2  0  0  0  0
 37 43  1  0  0  0  0
 39 43  1  0  0  0  0
 40 36  1  0  0  0  0
 40 41  1  0  0  0  0
 41 35  1  6  0  0  0
 41 39  1  0  0  0  0
M  END
>  <MODEL>
6

>  <REMARK>
 VINA RESULT:      -7.4      2.883      5.903
  Name = 
  9 active torsions:
  status: ('A' for Active; 'I' for Inactive)
    1  A    between atoms: C_1  and  C_34
    2  A    between atoms: C_1  and  C_35
    3  A    between atoms: C_2  and  C_13
    4  A    between atoms: C_3  and  C_4
    5  A    between atoms: C_3  and  C_12
    6  A    between atoms: N_6  and  C_12
    7  A    between atoms: C_11  and  C_14
    8  A    between atoms: C_14  and  C_41
    9  A    between atoms: C_21  and  C_30
                            x       y       z     vdW  Elec       q    Type
                         _______ _______ _______ _____ _____    ______ ____

>  <TORSDO>
F 9

$$$$
=
 OpenBabel11052416453D

 43 47  0  0  1  0  0  0  0  0999 V2000
  189.0070  177.3580  141.9910 N   0  0  0  0  0  0  0  0  0  0  0  0
  188.7840  178.3220  139.8330 C   0  0  2  0  0  3  0  0  0  0  0  0
  190.9230  177.8350  140.7550 O   0  0  0  0  0  1  0  0  0  0  0  0
  189.6120  177.3610  140.6710 C   0  0  1  0  0  3  0  0  0  0  0  0
  189.5130  176.5410  143.0630 C   0  0  0  0  0  0  0  0  0  0  0  0
  190.1850  175.5120  142.7860 O   0  0  0  0  0  0  0  0  0  0  0  0
  187.8760  178.2700  142.1020 C   0  0  1  0  0  3  0  0  0  0  0  0
  187.8980  179.0820  140.8200 C   0  0  0  0  0  2  0  0  0  0  0  0
  188.8050  177.5710  147.1650 C   0  0  0  0  0  0  0  0  0  0  0  0
  190.3640  177.1320  145.3610 C   0  0  0  0  0  0  0  0  0  0  0  0
  187.7340  177.3470  146.2980 C   0  0  0  0  0  3  0  0  0  0  0  0
  188.5040  177.9690  148.8410 Cl  0  0  0  0  0  0  0  0  0  0  0  0
  189.2870  176.8970  144.4810 C   0  0  0  0  0  0  0  0  0  0  0  0
  190.1160  177.4630  146.6970 C   0  0  0  0  0  3  0  0  0  0  0  0
  187.9750  177.0140  144.9630 C   0  0  0  0  0  3  0  0  0  0  0  0
  191.6800  177.0190  144.9290 O   0  0  0  0  0  1  0  0  0  0  0  0
  187.9820  177.5550  138.8180 C   0  0  0  0  0  0  0  0  0  0  0  0
  186.7740  178.1260  138.3110 N   0  0  0  0  0  2  0  0  0  0  0  0
  188.3430  176.4060  138.4430 O   0  0  0  0  0  0  0  0  0  0  0  0
  185.9690  177.4680  137.2970 C   0  0  0  0  0  2  0  0  0  0  0  0
  184.7250  176.8940  137.9460 C   0  0  0  0  0  2  0  0  0  0  0  0
  183.7220  176.5090  136.9070 C   0  0  0  0  0  0  0  0  0  0  0  0
  182.3650  174.8600  135.7480 C   0  0  0  0  0  3  0  0  0  0  0  0
  183.2100  177.5040  136.0660 C   0  0  0  0  0  3  0  0  0  0  0  0
  182.2840  177.1800  135.0720 C   0  0  0  0  0  3  0  0  0  0  0  0
  183.2880  175.1750  136.7550 C   0  0  0  0  0  0  0  0  0  0  0  0
  181.8640  175.8590  134.9100 C   0  0  0  0  0  3  0  0  0  0  0  0
  183.7920  174.0850  137.6520 C   0  0  0  0  0  2  0  0  0  0  0  0
  184.2180  172.8930  136.8600 C   0  0  0  0  0  0  0  0  0  0  0  0
  184.9650  170.6900  135.3490 C   0  0  0  0  0  3  0  0  0  0  0  0
  183.7960  170.6780  136.1130 C   0  0  0  0  0  3  0  0  0  0  0  0
  185.7670  171.8320  135.3480 C   0  0  0  0  0  3  0  0  0  0  0  0
  183.4490  171.7690  136.8460 N   0  0  0  0  0  0  0  0  0  0  0  0
  185.3930  172.9430  136.1060 C   0  0  0  0  0  3  0  0  0  0  0  0
  186.5620  177.4960  142.1560 C   0  0  0  0  0  2  0  0  0  0  0  0
  183.0370  179.0030  141.7320 C   0  0  1  0  0  3  0  0  0  0  0  0
  182.7100  179.1240  143.2020 C   0  0  0  0  0  0  0  0  0  0  0  0
  181.5550  179.2100  143.5890 O   0  0  0  0  0  0  0  0  0  0  0  0
  184.9520  178.2890  143.8800 C   0  0  0  0  0  2  0  0  0  0  0  0
  184.2030  178.0380  141.5180 C   0  0  0  0  0  2  0  0  0  0  0  0
  185.3790  178.4100  142.4220 C   0  0  2  0  0  3  0  0  0  0  0  0
  181.8460  178.5330  140.9130 C   0  0  0  0  0  1  0  0  0  0  0  0
  183.8300  179.2790  144.1880 C   0  0  0  0  0  2  0  0  0  0  0  0
  1  7  1  0  0  0  0
  1  5  1  0  0  0  0
  2 17  1  6  0  0  0
  2  4  1  0  0  0  0
  2  8  1  0  0  0  0
  4  3  1  1  0  0  0
  4  1  1  0  0  0  0
  5 13  1  0  0  0  0
  6  5  2  0  0  0  0
  7 35  1  6  0  0  0
  8  7  1  0  0  0  0
  9 12  1  0  0  0  0
 10 14  2  0  0  0  0
 11  9  2  0  0  0  0
 13 15  2  0  0  0  0
 13 10  1  0  0  0  0
 14  9  1  0  0  0  0
 15 11  1  0  0  0  0
 16 10  1  0  0  0  0
 18 17  1  0  0  0  0
 19 17  2  0  0  0  0
 20 21  1  0  0  0  0
 20 18  1  0  0  0  0
 22 21  1  0  0  0  0
 23 26  2  0  0  0  0
 24 22  2  0  0  0  0
 25 24  1  0  0  0  0
 26 22  1  0  0  0  0
 26 28  1  0  0  0  0
 27 25  2  0  0  0  0
 27 23  1  0  0  0  0
 29 28  1  0  0  0  0
 30 31  1  0  0  0  0
 31 33  2  0  0  0  0
 32 30  2  0  0  0  0
 32 34  1  0  0  0  0
 33 29  1  0  0  0  0
 34 29  2  0  0  0  0
 36 42  1  6  0  0  0
 36 37  1  0  0  0  0
 37 38  2  0  0  0  0
 37 43  1  0  0  0  0
 39 43  1  0  0  0  0
 40 36  1  0  0  0  0
 40 41  1  0  0  0  0
 41 35  1  1  0  0  0
 41 39  1  0  0  0  0
M  END
>  <MODEL>
7

>  <REMARK>
 VINA RESULT:      -7.3      2.248      2.859
  Name = 
  9 active torsions:
  status: ('A' for Active; 'I' for Inactive)
    1  A    between atoms: C_1  and  C_34
    2  A    between atoms: C_1  and  C_35
    3  A    between atoms: C_2  and  C_13
    4  A    between atoms: C_3  and  C_4
    5  A    between atoms: C_3  and  C_12
    6  A    between atoms: N_6  and  C_12
    7  A    between atoms: C_11  and  C_14
    8  A    between atoms: C_14  and  C_41
    9  A    between atoms: C_21  and  C_30
                            x       y       z     vdW  Elec       q    Type
                         _______ _______ _______ _____ _____    ______ ____

>  <TORSDO>
F 9

$$$$
=
 OpenBabel11052416453D

 43 47  0  0  1  0  0  0  0  0999 V2000
  188.6960  176.8260  136.4490 N   0  0  0  0  0  0  0  0  0  0  0  0
  187.1130  178.5630  136.7780 C   0  0  2  0  0  3  0  0  0  0  0  0
  187.7230  177.8430  134.5940 O   0  0  0  0  0  1  0  0  0  0  0  0
  187.4780  177.3850  135.8890 C   0  0  1  0  0  3  0  0  0  0  0  0
  189.3390  175.6710  135.8800 C   0  0  0  0  0  0  0  0  0  0  0  0
  188.6600  174.8700  135.1830 O   0  0  0  0  0  0  0  0  0  0  0  0
  189.1840  177.5650  137.6050 C   0  0  1  0  0  3  0  0  0  0  0  0
  188.3380  178.8230  137.6550 C   0  0  0  0  0  2  0  0  0  0  0  0
  193.5390  174.9730  136.3880 C   0  0  0  0  0  0  0  0  0  0  0  0
  191.2480  174.4460  136.9800 C   0  0  0  0  0  0  0  0  0  0  0  0
  193.0880  175.9310  135.4780 C   0  0  0  0  0  3  0  0  0  0  0  0
  195.2550  174.7130  136.6030 Cl  0  0  0  0  0  0  0  0  0  0  0  0
  190.7840  175.4170  136.0680 C   0  0  0  0  0  0  0  0  0  0  0  0
  192.6220  174.2330  137.1370 C   0  0  0  0  0  3  0  0  0  0  0  0
  191.7180  176.1490  135.3190 C   0  0  0  0  0  3  0  0  0  0  0  0
  190.3600  173.7030  137.7490 O   0  0  0  0  0  1  0  0  0  0  0  0
  185.8900  178.2340  137.5880 C   0  0  0  0  0  0  0  0  0  0  0  0
  185.4620  179.1430  138.6040 N   0  0  0  0  0  2  0  0  0  0  0  0
  185.2650  177.1530  137.4050 O   0  0  0  0  0  0  0  0  0  0  0  0
  184.2670  178.9170  139.3960 C   0  0  0  0  0  2  0  0  0  0  0  0
  184.5670  177.8830  140.4640 C   0  0  0  0  0  2  0  0  0  0  0  0
  184.1750  178.3940  141.8140 C   0  0  0  0  0  0  0  0  0  0  0  0
  182.5070  179.0620  143.4480 C   0  0  0  0  0  3  0  0  0  0  0  0
  185.1840  178.7230  142.7260 C   0  0  0  0  0  3  0  0  0  0  0  0
  184.8580  179.2190  143.9900 C   0  0  0  0  0  3  0  0  0  0  0  0
  182.8230  178.5550  142.1810 C   0  0  0  0  0  0  0  0  0  0  0  0
  183.5210  179.3920  144.3510 C   0  0  0  0  0  3  0  0  0  0  0  0
  181.7120  178.1900  141.2420 C   0  0  0  0  0  2  0  0  0  0  0  0
  180.8160  179.3570  140.9920 C   0  0  0  0  0  0  0  0  0  0  0  0
  179.1790  181.5570  140.5710 C   0  0  0  0  0  3  0  0  0  0  0  0
  179.0300  180.7530  141.7030 C   0  0  0  0  0  3  0  0  0  0  0  0
  180.1690  181.2460  139.6390 C   0  0  0  0  0  3  0  0  0  0  0  0
  179.8440  179.6800  141.8890 N   0  0  0  0  0  0  0  0  0  0  0  0
  180.9960  180.1400  139.8490 C   0  0  0  0  0  3  0  0  0  0  0  0
  188.9450  176.7760  138.8910 C   0  0  0  0  0  2  0  0  0  0  0  0
  189.3910  177.9530  142.5360 C   0  0  1  0  0  3  0  0  0  0  0  0
  190.8500  177.5870  142.6710 C   0  0  0  0  0  0  0  0  0  0  0  0
  191.3650  177.4270  143.7680 O   0  0  0  0  0  0  0  0  0  0  0  0
  190.9910  176.8310  140.3060 C   0  0  0  0  0  2  0  0  0  0  0  0
  188.7630  177.2300  141.3450 C   0  0  0  0  0  2  0  0  0  0  0  0
  189.6080  177.4340  140.0870 C   0  0  2  0  0  3  0  0  0  0  0  0
  188.5960  177.6280  143.7900 C   0  0  0  0  0  1  0  0  0  0  0  0
  191.7110  177.5540  141.4430 C   0  0  0  0  0  2  0  0  0  0  0  0
  1  7  1  0  0  0  0
  2 17  1  1  0  0  0
  2  8  1  0  0  0  0
  4  3  1  6  0  0  0
  4  1  1  0  0  0  0
  4  2  1  0  0  0  0
  5 13  1  0  0  0  0
  5  1  1  0  0  0  0
  6  5  2  0  0  0  0
  7  8  1  0  0  0  0
  7 35  1  1  0  0  0
  9 12  1  0  0  0  0
  9 14  1  0  0  0  0
 10 14  2  0  0  0  0
 10 16  1  0  0  0  0
 11  9  2  0  0  0  0
 13 10  1  0  0  0  0
 15 11  1  0  0  0  0
 15 13  2  0  0  0  0
 17 18  1  0  0  0  0
 18 20  1  0  0  0  0
 19 17  2  0  0  0  0
 20 21  1  0  0  0  0
 21 22  1  0  0  0  0
 22 26  2  0  0  0  0
 22 24  1  0  0  0  0
 23 27  2  0  0  0  0
 24 25  2  0  0  0  0
 25 27  1  0  0  0  0
 26 23  1  0  0  0  0
 28 26  1  0  0  0  0
 29 28  1  0  0  0  0
 29 33  1  0  0  0  0
 30 31  1  0  0  0  0
 31 33  2  0  0  0  0
 32 34  1  0  0  0  0
 32 30  2  0  0  0  0
 34 29  2  0  0  0  0
 36 37  1  0  0  0  0
 36 42  1  1  0  0  0
 37 38  2  0  0  0  0
 39 43  1  0  0  0  0
 40 36  1  0  0  0  0
 41 35  1  6  0  0  0
 41 39  1  0  0  0  0
 41 40  1  0  0  0  0
 43 37  1  0  0  0  0
M  END
>  <MODEL>
8

>  <REMARK>
 VINA RESULT:      -7.2      3.680      6.946
  Name = 
  9 active torsions:
  status: ('A' for Active; 'I' for Inactive)
    1  A    between atoms: C_1  and  C_34
    2  A    between atoms: C_1  and  C_35
    3  A    between atoms: C_2  and  C_13
    4  A    between atoms: C_3  and  C_4
    5  A    between atoms: C_3  and  C_12
    6  A    between atoms: N_6  and  C_12
    7  A    between atoms: C_11  and  C_14
    8  A    between atoms: C_14  and  C_41
    9  A    between atoms: C_21  and  C_30
                            x       y       z     vdW  Elec       q    Type
                         _______ _______ _______ _____ _____    ______ ____

>  <TORSDO>
F 9

$$$$
=
 OpenBabel11052416453D

 43 47  0  0  1  0  0  0  0  0999 V2000
  180.4690  177.5290  140.8510 N   0  0  0  0  0  0  0  0  0  0  0  0
  181.2580  179.3910  142.0930 C   0  0  2  0  0  3  0  0  0  0  0  0
  178.9310  178.9490  141.8700 O   0  0  0  0  0  1  0  0  0  0  0  0
  180.1720  178.3300  142.0250 C   0  0  1  0  0  3  0  0  0  0  0  0
  179.6590  176.4020  140.4680 C   0  0  0  0  0  0  0  0  0  0  0  0
  178.9630  175.8210  141.3420 O   0  0  0  0  0  0  0  0  0  0  0  0
  181.6360  178.0030  140.1180 C   0  0  1  0  0  3  0  0  0  0  0  0
  181.9790  179.3400  140.7460 C   0  0  0  0  0  2  0  0  0  0  0  0
  179.4880  175.0800  136.3920 C   0  0  0  0  0  0  0  0  0  0  0  0
  179.7700  174.5650  138.7450 C   0  0  0  0  0  0  0  0  0  0  0  0
  179.3160  176.4290  136.7040 C   0  0  0  0  0  3  0  0  0  0  0  0
  179.4380  174.5550  134.7250 Cl  0  0  0  0  0  0  0  0  0  0  0  0
  179.6040  175.9280  139.0670 C   0  0  0  0  0  0  0  0  0  0  0  0
  179.7150  174.1510  137.4100 C   0  0  0  0  0  3  0  0  0  0  0  0
  179.3720  176.8500  138.0350 C   0  0  0  0  0  3  0  0  0  0  0  0
  180.0090  173.6190  139.7340 O   0  0  0  0  0  1  0  0  0  0  0  0
  182.1800  179.1060  143.2460 C   0  0  0  0  0  0  0  0  0  0  0  0
  183.4910  179.6730  143.2450 N   0  0  0  0  0  2  0  0  0  0  0  0
  181.8220  178.3470  144.1880 O   0  0  0  0  0  0  0  0  0  0  0  0
  184.4230  179.4820  144.3420 C   0  0  0  0  0  2  0  0  0  0  0  0
  185.2850  178.2680  144.0560 C   0  0  0  0  0  2  0  0  0  0  0  0
  186.2210  178.0090  145.1930 C   0  0  0  0  0  0  0  0  0  0  0  0
  188.2410  177.0320  146.1230 C   0  0  0  0  0  3  0  0  0  0  0  0
  185.8970  178.5140  146.4570 C   0  0  0  0  0  3  0  0  0  0  0  0
  186.7380  178.2790  147.5480 C   0  0  0  0  0  3  0  0  0  0  0  0
  187.4090  177.2700  145.0200 C   0  0  0  0  0  0  0  0  0  0  0  0
  187.9070  177.5360  147.3820 C   0  0  0  0  0  3  0  0  0  0  0  0
  187.8050  176.7340  143.6770 C   0  0  0  0  0  2  0  0  0  0  0  0
  189.2320  177.0490  143.3730 C   0  0  0  0  0  0  0  0  0  0  0  0
  191.8710  177.6340  142.7490 C   0  0  0  0  0  3  0  0  0  0  0  0
  191.3550  176.3500  142.5690 C   0  0  0  0  0  3  0  0  0  0  0  0
  191.0420  178.6380  143.2510 C   0  0  0  0  0  3  0  0  0  0  0  0
  190.0580  176.0860  142.8810 N   0  0  0  0  0  0  0  0  0  0  0  0
  189.7130  178.3470  143.5640 C   0  0  0  0  0  3  0  0  0  0  0  0
  182.8200  177.0600  140.3200 C   0  0  0  0  0  2  0  0  0  0  0  0
  183.7600  174.7100  137.4110 C   0  0  1  0  0  3  0  0  0  0  0  0
  183.4730  175.6810  136.2890 C   0  0  0  0  0  0  0  0  0  0  0  0
  183.2660  175.2900  135.1500 O   0  0  0  0  0  0  0  0  0  0  0  0
  182.8960  177.5080  137.8730 C   0  0  0  0  0  2  0  0  0  0  0  0
  183.0880  175.1680  138.7030 C   0  0  0  0  0  2  0  0  0  0  0  0
  183.4300  176.6290  138.9980 C   0  0  2  0  0  3  0  0  0  0  0  0
  183.3020  173.2990  137.0840 C   0  0  0  0  0  1  0  0  0  0  0  0
  183.5780  177.1540  136.5540 C   0  0  0  0  0  2  0  0  0  0  0  0
  1  4  1  0  0  0  0
  2 17  1  1  0  0  0
  4  3  1  6  0  0  0
  4  2  1  0  0  0  0
  5  1  1  0  0  0  0
  5  6  2  0  0  0  0
  7 35  1  1  0  0  0
  7  8  1  0  0  0  0
  7  1  1  0  0  0  0
  8  2  1  0  0  0  0
  9 11  2  0  0  0  0
  9 14  1  0  0  0  0
 10 13  1  0  0  0  0
 10 16  1  0  0  0  0
 11 15  1  0  0  0  0
 12  9  1  0  0  0  0
 13  5  1  0  0  0  0
 14 10  2  0  0  0  0
 15 13  2  0  0  0  0
 17 19  2  0  0  0  0
 18 17  1  0  0  0  0
 18 20  1  0  0  0  0
 21 20  1  0  0  0  0
 21 22  1  0  0  0  0
 22 24  1  0  0  0  0
 23 27  2  0  0  0  0
 24 25  2  0  0  0  0
 26 22  2  0  0  0  0
 26 23  1  0  0  0  0
 27 25  1  0  0  0  0
 28 26  1  0  0  0  0
 29 34  1  0  0  0  0
 29 28  1  0  0  0  0
 30 32  1  0  0  0  0
 31 30  2  0  0  0  0
 31 33  1  0  0  0  0
 32 34  2  0  0  0  0
 33 29  2  0  0  0  0
 36 42  1  6  0  0  0
 36 40  1  0  0  0  0
 37 43  1  0  0  0  0
 37 36  1  0  0  0  0
 38 37  2  0  0  0  0
 39 41  1  0  0  0  0
 40 41  1  0  0  0  0
 41 35  1  1  0  0  0
 43 39  1  0  0  0  0
M  END
>  <MODEL>
9

>  <REMARK>
 VINA RESULT:      -7.1      4.318     10.000
  Name = 
  9 active torsions:
  status: ('A' for Active; 'I' for Inactive)
    1  A    between atoms: C_1  and  C_34
    2  A    between atoms: C_1  and  C_35
    3  A    between atoms: C_2  and  C_13
    4  A    between atoms: C_3  and  C_4
    5  A    between atoms: C_3  and  C_12
    6  A    between atoms: N_6  and  C_12
    7  A    between atoms: C_11  and  C_14
    8  A    between atoms: C_14  and  C_41
    9  A    between atoms: C_21  and  C_30
                            x       y       z     vdW  Elec       q    Type
                         _______ _______ _______ _____ _____    ______ ____

>  <TORSDO>
F 9

$$$$
