=
 OpenBabel11052415463D

 34 37  0  0  1  0  0  0  0  0999 V2000
  189.2920  178.6500  136.9710 C   0  0  0  0  0  2  0  0  0  0  0  0
  187.2750  177.1850  136.6170 C   0  0  0  0  0  1  0  0  0  0  0  0
  188.9120  179.2160  138.3390 C   0  0  0  0  0  2  0  0  0  0  0  0
  189.0850  178.2030  139.4730 C   0  0  2  0  0  3  0  0  0  0  0  0
  188.7830  177.2130  136.7970 C   0  0  2  0  0  3  0  0  0  0  0  0
  189.8570  176.9530  139.0060 C   0  0  2  0  0  3  0  0  0  0  0  0
  189.1820  176.2850  137.8760 N   0  0  0  0  0  0  0  0  0  0  0  0
  190.2810  175.1330  137.1710 S   0  0  0  0  0  0  0  0  0  0  0  0
  191.0410  175.7790  136.0430 O   0  0  0  0  0  0  0  0  0  0  0  0
  191.2610  174.6530  138.2040 O   0  0  0  0  0  0  0  0  0  0  0  0
  188.1280  173.4330  137.0790 C   0  0  0  0  0  3  0  0  0  0  0  0
  187.9940  171.5200  135.6020 C   0  0  0  0  0  3  0  0  0  0  0  0
  187.4300  172.3210  136.5990 C   0  0  0  0  0  3  0  0  0  0  0  0
  189.9520  172.9430  135.5650 C   0  0  0  0  0  3  0  0  0  0  0  0
  189.3900  173.7470  136.5620 C   0  0  0  0  0  0  0  0  0  0  0  0
  189.2550  171.8300  135.0850 C   0  0  0  0  0  3  0  0  0  0  0  0
  190.0290  176.0610  140.0700 O   0  0  0  0  0  0  0  0  0  0  0  0
  190.5490  176.8360  141.1110 C   0  0  0  0  0  2  0  0  0  0  0  0
  190.5310  176.0490  142.4130 C   0  0  0  0  0  2  0  0  0  0  0  0
  191.7790  178.2560  144.0730 C   0  0  0  0  0  2  0  0  0  0  0  0
  187.7690  177.5380  145.7870 C   0  0  0  0  0  0  0  0  0  0  0  0
  189.0660  177.3900  146.4870 C   0  0  0  0  0  0  0  0  0  0  0  0
  190.2990  177.3580  145.8330 O   0  0  0  0  0  0  0  0  0  0  0  0
  186.7180  177.9900  146.5140 F   0  0  0  0  0  0  0  0  0  0  0  0
  190.4510  177.6410  144.4550 C   0  0  0  0  0  0  0  0  0  0  0  0
  189.0590  177.3190  147.7440 O   0  0  0  0  0  0  0  0  0  0  0  0
  188.4330  176.5820  143.5270 C   0  0  0  0  0  3  0  0  0  0  0  0
  189.7520  176.7640  143.4700 C   0  0  0  0  0  0  0  0  0  0  0  0
  187.5110  177.1450  144.5330 C   0  0  0  0  0  3  0  0  0  0  0  0
  190.5160  179.1140  144.1180 C   0  0  0  0  0  2  0  0  0  0  0  0
  187.7120  177.8570  140.0450 C   0  0  0  0  0  2  0  0  0  0  0  0
  187.3310  178.7880  141.1850 C   0  0  0  0  0  2  0  0  0  0  0  0
  185.5230  178.9390  141.3010 S   0  0  0  0  0  0  0  0  0  0  0  0
  185.3110  178.5880  139.5350 C   0  0  0  0  0  1  0  0  0  0  0  0
  1  3  1  0  0  0  0
  3  4  1  0  0  0  0
  4 31  1  6  0  0  0
  5  2  1  1  0  0  0
  5  1  1  0  0  0  0
  5  7  1  0  0  0  0
  6  4  1  0  0  0  0
  6 17  1  1  0  0  0
  7  6  1  0  0  0  0
  8  7  1  0  0  0  0
  8 10  2  0  0  0  0
  9  8  2  0  0  0  0
 12 13  2  0  0  0  0
 13 11  1  0  0  0  0
 14 15  1  0  0  0  0
 15 11  2  0  0  0  0
 15  8  1  0  0  0  0
 16 14  2  0  0  0  0
 16 12  1  0  0  0  0
 17 18  1  0  0  0  0
 18 19  1  0  0  0  0
 19 28  1  0  0  0  0
 20 30  1  0  0  0  0
 20 25  1  0  0  0  0
 21 22  1  0  0  0  0
 21 24  1  0  0  0  0
 22 26  2  0  0  0  0
 23 22  1  0  0  0  0
 25 23  1  0  0  0  0
 27 29  1  0  0  0  0
 28 27  2  0  0  0  0
 28 25  1  0  0  0  0
 29 21  2  0  0  0  0
 30 25  1  0  0  0  0
 31 32  1  0  0  0  0
 32 33  1  0  0  0  0
 34 33  1  0  0  0  0
M  END
>  <MODEL>
1

>  <REMARK>
 VINA RESULT:      -7.5      0.000      0.000
  Name = 
  9 active torsions:
  status: ('A' for Active; 'I' for Inactive)
    1  A    between atoms: S_1  and  C_20
    2  A    between atoms: S_1  and  N_34
    3  A    between atoms: S_3  and  C_13
    4  A    between atoms: C_6  and  O_18
    5  A    between atoms: C_6  and  C_30
    6  A    between atoms: C_13  and  C_27
    7  A    between atoms: O_18  and  C_33
    8  A    between atoms: C_25  and  C_27
    9  A    between atoms: C_28  and  C_30
                            x       y       z     vdW  Elec       q    Type
                         _______ _______ _______ _____ _____    ______ ____

>  <TORSDO>
F 9

$$$$
=
 OpenBabel11052415463D

 34 37  0  0  1  0  0  0  0  0999 V2000
  189.1970  178.5160  136.6290 C   0  0  0  0  0  2  0  0  0  0  0  0
  186.9920  177.3070  136.5010 C   0  0  0  0  0  1  0  0  0  0  0  0
  189.0010  179.1810  137.9910 C   0  0  0  0  0  2  0  0  0  0  0  0
  189.1380  178.2010  139.1590 C   0  0  2  0  0  3  0  0  0  0  0  0
  188.5010  177.1500  136.5670 C   0  0  2  0  0  3  0  0  0  0  0  0
  189.7090  176.8450  138.6990 C   0  0  2  0  0  3  0  0  0  0  0  0
  188.8680  176.2230  137.6580 N   0  0  0  0  0  0  0  0  0  0  0  0
  189.7550  174.9130  136.9310 S   0  0  0  0  0  0  0  0  0  0  0  0
  189.3410  173.6080  137.5570 O   0  0  0  0  0  0  0  0  0  0  0  0
  189.4750  174.8540  135.4550 O   0  0  0  0  0  0  0  0  0  0  0  0
  192.0590  176.4060  136.9160 C   0  0  0  0  0  3  0  0  0  0  0  0
  194.2330  175.5190  137.5040 C   0  0  0  0  0  3  0  0  0  0  0  0
  193.4340  176.5880  137.0890 C   0  0  0  0  0  3  0  0  0  0  0  0
  192.2820  174.0870  137.5760 C   0  0  0  0  0  3  0  0  0  0  0  0
  191.4800  175.1550  137.1610 C   0  0  0  0  0  0  0  0  0  0  0  0
  193.6580  174.2680  137.7490 C   0  0  0  0  0  3  0  0  0  0  0  0
  189.8550  175.9810  139.7900 O   0  0  0  0  0  0  0  0  0  0  0  0
  190.4960  176.7440  140.7710 C   0  0  0  0  0  2  0  0  0  0  0  0
  190.5780  175.9640  142.0740 C   0  0  0  0  0  2  0  0  0  0  0  0
  191.7730  178.1480  143.8030 C   0  0  0  0  0  2  0  0  0  0  0  0
  187.7870  177.2760  145.4980 C   0  0  0  0  0  0  0  0  0  0  0  0
  189.0880  177.1380  146.1920 C   0  0  0  0  0  0  0  0  0  0  0  0
  190.3200  177.1580  145.5350 O   0  0  0  0  0  0  0  0  0  0  0  0
  186.7250  177.6780  146.2410 F   0  0  0  0  0  0  0  0  0  0  0  0
  190.4620  177.4890  144.1660 C   0  0  0  0  0  0  0  0  0  0  0  0
  189.0860  177.0270  147.4460 O   0  0  0  0  0  0  0  0  0  0  0  0
  188.4690  176.4090  143.2080 C   0  0  0  0  0  3  0  0  0  0  0  0
  189.7830  176.6260  143.1550 C   0  0  0  0  0  0  0  0  0  0  0  0
  187.5350  176.9160  144.2320 C   0  0  0  0  0  3  0  0  0  0  0  0
  190.4890  178.9720  143.8760 C   0  0  0  0  0  2  0  0  0  0  0  0
  187.7830  178.0560  139.8480 C   0  0  0  0  0  2  0  0  0  0  0  0
  187.6780  178.9570  141.0680 C   0  0  0  0  0  2  0  0  0  0  0  0
  185.9700  178.9860  141.6880 S   0  0  0  0  0  0  0  0  0  0  0  0
  185.2870  178.8320  140.0160 C   0  0  0  0  0  1  0  0  0  0  0  0
  1  3  1  0  0  0  0
  3  4  1  0  0  0  0
  4 31  1  6  0  0  0
  5  2  1  1  0  0  0
  5  1  1  0  0  0  0
  5  7  1  0  0  0  0
  6  4  1  0  0  0  0
  6 17  1  1  0  0  0
  7  6  1  0  0  0  0
  8 15  1  0  0  0  0
  8  9  2  0  0  0  0
  8  7  1  0  0  0  0
 10  8  2  0  0  0  0
 11 13  2  0  0  0  0
 11 15  1  0  0  0  0
 12 16  2  0  0  0  0
 13 12  1  0  0  0  0
 14 16  1  0  0  0  0
 15 14  2  0  0  0  0
 17 18  1  0  0  0  0
 18 19  1  0  0  0  0
 19 28  1  0  0  0  0
 20 30  1  0  0  0  0
 20 25  1  0  0  0  0
 21 22  1  0  0  0  0
 21 24  1  0  0  0  0
 22 26  2  0  0  0  0
 23 22  1  0  0  0  0
 25 23  1  0  0  0  0
 27 29  1  0  0  0  0
 28 27  2  0  0  0  0
 28 25  1  0  0  0  0
 29 21  2  0  0  0  0
 30 25  1  0  0  0  0
 31 32  1  0  0  0  0
 32 33  1  0  0  0  0
 34 33  1  0  0  0  0
M  END
>  <MODEL>
2

>  <REMARK>
 VINA RESULT:      -7.2      1.848      2.497
  Name = 
  9 active torsions:
  status: ('A' for Active; 'I' for Inactive)
    1  A    between atoms: S_1  and  C_20
    2  A    between atoms: S_1  and  N_34
    3  A    between atoms: S_3  and  C_13
    4  A    between atoms: C_6  and  O_18
    5  A    between atoms: C_6  and  C_30
    6  A    between atoms: C_13  and  C_27
    7  A    between atoms: O_18  and  C_33
    8  A    between atoms: C_25  and  C_27
    9  A    between atoms: C_28  and  C_30
                            x       y       z     vdW  Elec       q    Type
                         _______ _______ _______ _____ _____    ______ ____

>  <TORSDO>
F 9

$$$$
=
 OpenBabel11052415463D

 34 37  0  0  1  0  0  0  0  0999 V2000
  189.3760  174.7920  136.8530 C   0  0  0  0  0  2  0  0  0  0  0  0
  190.2420  176.3900  135.1110 C   0  0  0  0  0  1  0  0  0  0  0  0
  190.7180  174.3790  137.4550 C   0  0  0  0  0  2  0  0  0  0  0  0
  191.3350  175.4660  138.3390 C   0  0  2  0  0  3  0  0  0  0  0  0
  189.4030  176.2480  136.3680 C   0  0  2  0  0  3  0  0  0  0  0  0
  190.3320  176.6010  138.6290 C   0  0  2  0  0  3  0  0  0  0  0  0
  189.8420  177.2270  137.3850 N   0  0  0  0  0  0  0  0  0  0  0  0
  188.4590  178.2150  137.7650 S   0  0  0  0  0  0  0  0  0  0  0  0
  188.0790  178.0260  139.2090 O   0  0  0  0  0  0  0  0  0  0  0  0
  188.7810  179.6650  137.5330 O   0  0  0  0  0  0  0  0  0  0  0  0
  187.0600  178.1960  135.4030 C   0  0  0  0  0  3  0  0  0  0  0  0
  184.9270  177.0870  135.1200 C   0  0  0  0  0  3  0  0  0  0  0  0
  185.9730  177.8520  134.5950 C   0  0  0  0  0  3  0  0  0  0  0  0
  186.0560  177.0090  137.2600 C   0  0  0  0  0  3  0  0  0  0  0  0
  187.1050  177.7740  136.7370 C   0  0  0  0  0  0  0  0  0  0  0  0
  184.9680  176.6650  136.4520 C   0  0  0  0  0  3  0  0  0  0  0  0
  190.9120  177.5620  139.4640 O   0  0  0  0  0  0  0  0  0  0  0  0
  190.9000  176.9880  140.7390 C   0  0  0  0  0  2  0  0  0  0  0  0
  190.7570  178.0670  141.8020 C   0  0  0  0  0  2  0  0  0  0  0  0
  187.9480  177.4980  142.7870 C   0  0  0  0  0  2  0  0  0  0  0  0
  190.6420  176.6610  146.1890 C   0  0  0  0  0  0  0  0  0  0  0  0
  189.5540  177.6650  146.1530 C   0  0  0  0  0  0  0  0  0  0  0  0
  188.9220  178.0790  144.9800 O   0  0  0  0  0  0  0  0  0  0  0  0
  190.8660  176.0260  147.3660 F   0  0  0  0  0  0  0  0  0  0  0  0
  189.1330  177.4570  143.7260 C   0  0  0  0  0  0  0  0  0  0  0  0
  189.1540  178.1480  147.2450 O   0  0  0  0  0  0  0  0  0  0  0  0
  191.5440  176.9780  143.8330 C   0  0  0  0  0  3  0  0  0  0  0  0
  190.5100  177.4700  143.1520 C   0  0  0  0  0  0  0  0  0  0  0  0
  191.5090  176.4160  145.1970 C   0  0  0  0  0  3  0  0  0  0  0  0
  188.3220  176.2010  143.5020 C   0  0  0  0  0  2  0  0  0  0  0  0
  192.6140  175.9760  137.6790 C   0  0  0  0  0  2  0  0  0  0  0  0
  193.7650  175.0000  137.8640 C   0  0  0  0  0  2  0  0  0  0  0  0
  194.5570  174.6470  136.2670 S   0  0  0  0  0  0  0  0  0  0  0  0
  194.0560  176.2500  135.5850 C   0  0  0  0  0  1  0  0  0  0  0  0
  1  3  1  0  0  0  0
  3  4  1  0  0  0  0
  4 31  1  6  0  0  0
  4  6  1  0  0  0  0
  5  2  1  6  0  0  0
  5  1  1  0  0  0  0
  5  7  1  0  0  0  0
  6 17  1  1  0  0  0
  7  8  1  0  0  0  0
  7  6  1  0  0  0  0
  8  9  2  0  0  0  0
 10  8  2  0  0  0  0
 11 15  1  0  0  0  0
 12 16  2  0  0  0  0
 13 12  1  0  0  0  0
 13 11  2  0  0  0  0
 15 14  2  0  0  0  0
 15  8  1  0  0  0  0
 16 14  1  0  0  0  0
 17 18  1  0  0  0  0
 18 19  1  0  0  0  0
 19 28  1  0  0  0  0
 20 30  1  0  0  0  0
 20 25  1  0  0  0  0
 21 24  1  0  0  0  0
 22 21  1  0  0  0  0
 22 26  2  0  0  0  0
 23 22  1  0  0  0  0
 25 23  1  0  0  0  0
 27 29  1  0  0  0  0
 28 25  1  0  0  0  0
 28 27  2  0  0  0  0
 29 21  2  0  0  0  0
 30 25  1  0  0  0  0
 31 32  1  0  0  0  0
 33 32  1  0  0  0  0
 34 33  1  0  0  0  0
M  END
>  <MODEL>
3

>  <REMARK>
 VINA RESULT:      -7.1      2.467      4.763
  Name = 
  9 active torsions:
  status: ('A' for Active; 'I' for Inactive)
    1  A    between atoms: S_1  and  C_20
    2  A    between atoms: S_1  and  N_34
    3  A    between atoms: S_3  and  C_13
    4  A    between atoms: C_6  and  O_18
    5  A    between atoms: C_6  and  C_30
    6  A    between atoms: C_13  and  C_27
    7  A    between atoms: O_18  and  C_33
    8  A    between atoms: C_25  and  C_27
    9  A    between atoms: C_28  and  C_30
                            x       y       z     vdW  Elec       q    Type
                         _______ _______ _______ _____ _____    ______ ____

>  <TORSDO>
F 9

$$$$
=
 OpenBabel11052415463D

 34 37  0  0  1  0  0  0  0  0999 V2000
  188.3700  174.8990  136.1270 C   0  0  0  0  0  2  0  0  0  0  0  0
  189.7980  176.2960  134.5950 C   0  0  0  0  0  1  0  0  0  0  0  0
  189.4070  174.6470  137.2210 C   0  0  0  0  0  2  0  0  0  0  0  0
  189.6590  175.8760  138.0990 C   0  0  2  0  0  3  0  0  0  0  0  0
  188.5630  176.2760  135.4780 C   0  0  2  0  0  3  0  0  0  0  0  0
  188.6130  176.9800  137.8440 C   0  0  2  0  0  3  0  0  0  0  0  0
  188.6010  177.4050  136.4310 N   0  0  0  0  0  0  0  0  0  0  0  0
  187.1700  178.3560  136.1460 S   0  0  0  0  0  0  0  0  0  0  0  0
  187.3740  179.7520  136.6690 O   0  0  0  0  0  0  0  0  0  0  0  0
  186.8800  178.4260  134.6730 O   0  0  0  0  0  0  0  0  0  0  0  0
  185.2620  176.4120  136.4860 C   0  0  0  0  0  3  0  0  0  0  0  0
  183.5770  176.4780  138.2240 C   0  0  0  0  0  3  0  0  0  0  0  0
  184.1570  175.8400  137.1230 C   0  0  0  0  0  3  0  0  0  0  0  0
  185.2090  178.2590  138.0510 C   0  0  0  0  0  3  0  0  0  0  0  0
  185.7920  177.6210  136.9500 C   0  0  0  0  0  0  0  0  0  0  0  0
  184.1030  177.6880  138.6880 C   0  0  0  0  0  3  0  0  0  0  0  0
  188.8490  178.0760  138.6820 O   0  0  0  0  0  0  0  0  0  0  0  0
  188.2070  177.7570  139.8830 C   0  0  0  0  0  2  0  0  0  0  0  0
  188.7920  178.5730  141.0250 C   0  0  0  0  0  2  0  0  0  0  0  0
  187.2000  177.7850  143.4810 C   0  0  0  0  0  2  0  0  0  0  0  0
  191.2860  176.2200  144.1040 C   0  0  0  0  0  0  0  0  0  0  0  0
  190.5790  177.2010  144.9590 C   0  0  0  0  0  0  0  0  0  0  0  0
  189.4130  177.8650  144.5730 O   0  0  0  0  0  0  0  0  0  0  0  0
  192.1120  175.3380  144.7200 F   0  0  0  0  0  0  0  0  0  0  0  0
  188.6910  177.5400  143.4000 C   0  0  0  0  0  0  0  0  0  0  0  0
  191.0360  177.4250  146.1100 O   0  0  0  0  0  0  0  0  0  0  0  0
  190.5240  177.0610  141.8290 C   0  0  0  0  0  3  0  0  0  0  0  0
  189.3750  177.6890  142.0820 C   0  0  0  0  0  0  0  0  0  0  0  0
  191.2820  176.2070  142.7640 C   0  0  0  0  0  3  0  0  0  0  0  0
  187.7530  176.3620  143.5430 C   0  0  0  0  0  2  0  0  0  0  0  0
  191.0880  176.3650  137.8700 C   0  0  0  0  0  2  0  0  0  0  0  0
  192.0080  175.2270  137.4570 C   0  0  0  0  0  2  0  0  0  0  0  0
  193.6210  175.8780  136.9290 S   0  0  0  0  0  0  0  0  0  0  0  0
  194.5110  174.7990  138.0830 C   0  0  0  0  0  1  0  0  0  0  0  0
  1  3  1  0  0  0  0
  3  4  1  0  0  0  0
  4 31  1  6  0  0  0
  5  2  1  1  0  0  0
  5  1  1  0  0  0  0
  5  7  1  0  0  0  0
  6  4  1  0  0  0  0
  6 17  1  1  0  0  0
  7  6  1  0  0  0  0
  8  7  1  0  0  0  0
  8  9  2  0  0  0  0
  8 15  1  0  0  0  0
 10  8  2  0  0  0  0
 11 15  2  0  0  0  0
 11 13  1  0  0  0  0
 12 16  1  0  0  0  0
 13 12  2  0  0  0  0
 14 16  2  0  0  0  0
 15 14  1  0  0  0  0
 17 18  1  0  0  0  0
 18 19  1  0  0  0  0
 19 28  1  0  0  0  0
 20 30  1  0  0  0  0
 21 24  1  0  0  0  0
 21 22  1  0  0  0  0
 22 26  2  0  0  0  0
 23 22  1  0  0  0  0
 25 20  1  0  0  0  0
 25 30  1  0  0  0  0
 25 23  1  0  0  0  0
 27 28  2  0  0  0  0
 27 29  1  0  0  0  0
 28 25  1  0  0  0  0
 29 21  2  0  0  0  0
 32 31  1  0  0  0  0
 33 32  1  0  0  0  0
 33 34  1  0  0  0  0
M  END
>  <MODEL>
4

>  <REMARK>
 VINA RESULT:      -7.0      2.687      4.976
  Name = 
  9 active torsions:
  status: ('A' for Active; 'I' for Inactive)
    1  A    between atoms: S_1  and  C_20
    2  A    between atoms: S_1  and  N_34
    3  A    between atoms: S_3  and  C_13
    4  A    between atoms: C_6  and  O_18
    5  A    between atoms: C_6  and  C_30
    6  A    between atoms: C_13  and  C_27
    7  A    between atoms: O_18  and  C_33
    8  A    between atoms: C_25  and  C_27
    9  A    between atoms: C_28  and  C_30
                            x       y       z     vdW  Elec       q    Type
                         _______ _______ _______ _____ _____    ______ ____

>  <TORSDO>
F 9

$$$$
=
 OpenBabel11052415463D

 34 37  0  0  1  0  0  0  0  0999 V2000
  185.1400  175.5790  137.3830 C   0  0  0  0  0  2  0  0  0  0  0  0
  184.3320  177.2410  135.6730 C   0  0  0  0  0  1  0  0  0  0  0  0
  186.6040  175.5190  136.9520 C   0  0  0  0  0  2  0  0  0  0  0  0
  187.3980  176.7630  137.3590 C   0  0  2  0  0  3  0  0  0  0  0  0
  184.5440  176.9750  137.1530 C   0  0  2  0  0  3  0  0  0  0  0  0
  186.6030  177.6490  138.3390 C   0  0  2  0  0  3  0  0  0  0  0  0
  185.3130  178.0790  137.7630 N   0  0  0  0  0  0  0  0  0  0  0  0
  184.3260  178.7400  139.0360 S   0  0  0  0  0  0  0  0  0  0  0  0
  184.7700  178.1880  140.3630 O   0  0  0  0  0  0  0  0  0  0  0  0
  184.4530  180.2380  139.0650 O   0  0  0  0  0  0  0  0  0  0  0  0
  182.0570  177.2440  139.4250 C   0  0  0  0  0  3  0  0  0  0  0  0
  179.9600  177.6710  138.2930 C   0  0  0  0  0  3  0  0  0  0  0  0
  180.7190  176.9160  139.1920 C   0  0  0  0  0  3  0  0  0  0  0  0
  181.8790  179.0840  137.8610 C   0  0  0  0  0  3  0  0  0  0  0  0
  182.6400  178.3300  138.7620 C   0  0  0  0  0  0  0  0  0  0  0  0
  180.5400  178.7560  137.6280 C   0  0  0  0  0  3  0  0  0  0  0  0
  187.3630  178.7600  138.7190 O   0  0  0  0  0  0  0  0  0  0  0  0
  188.3870  178.2420  139.5180 C   0  0  0  0  0  2  0  0  0  0  0  0
  188.1680  178.6310  140.9720 C   0  0  0  0  0  2  0  0  0  0  0  0
  187.0610  177.8440  143.6810 C   0  0  0  0  0  2  0  0  0  0  0  0
  191.1730  176.2320  143.5120 C   0  0  0  0  0  0  0  0  0  0  0  0
  190.6520  177.2150  144.4900 C   0  0  0  0  0  0  0  0  0  0  0  0
  189.4420  177.8940  144.3340 O   0  0  0  0  0  0  0  0  0  0  0  0
  192.0900  175.3380  143.9570 F   0  0  0  0  0  0  0  0  0  0  0  0
  188.5070  177.5840  143.3180 C   0  0  0  0  0  0  0  0  0  0  0  0
  191.3210  177.4270  145.5350 O   0  0  0  0  0  0  0  0  0  0  0  0
  190.0030  177.0950  141.4270 C   0  0  0  0  0  3  0  0  0  0  0  0
  188.9310  177.7340  141.8950 C   0  0  0  0  0  0  0  0  0  0  0  0
  190.9140  176.2280  142.1970 C   0  0  0  0  0  3  0  0  0  0  0  0
  187.6000  176.4160  143.6310 C   0  0  0  0  0  2  0  0  0  0  0  0
  187.8150  177.5200  136.1000 C   0  0  0  0  0  2  0  0  0  0  0  0
  189.3170  177.7520  136.0600 C   0  0  0  0  0  2  0  0  0  0  0  0
  190.1980  176.1700  135.9040 S   0  0  0  0  0  0  0  0  0  0  0  0
  191.1450  176.4670  137.4200 C   0  0  0  0  0  1  0  0  0  0  0  0
  3  4  1  0  0  0  0
  3  1  1  0  0  0  0
  4 31  1  6  0  0  0
  4  6  1  0  0  0  0
  5  2  1  6  0  0  0
  5  1  1  0  0  0  0
  5  7  1  0  0  0  0
  6 17  1  6  0  0  0
  7  6  1  0  0  0  0
  7  8  1  0  0  0  0
  8 10  2  0  0  0  0
  8  9  2  0  0  0  0
 12 13  2  0  0  0  0
 13 11  1  0  0  0  0
 14 15  1  0  0  0  0
 15  8  1  0  0  0  0
 15 11  2  0  0  0  0
 16 14  2  0  0  0  0
 16 12  1  0  0  0  0
 17 18  1  0  0  0  0
 18 19  1  0  0  0  0
 19 28  1  0  0  0  0
 21 24  1  0  0  0  0
 21 22  1  0  0  0  0
 22 26  2  0  0  0  0
 23 22  1  0  0  0  0
 25 30  1  0  0  0  0
 25 20  1  0  0  0  0
 25 23  1  0  0  0  0
 27 28  2  0  0  0  0
 27 29  1  0  0  0  0
 28 25  1  0  0  0  0
 29 21  2  0  0  0  0
 30 20  1  0  0  0  0
 32 31  1  0  0  0  0
 33 32  1  0  0  0  0
 33 34  1  0  0  0  0
M  END
>  <MODEL>
5

>  <REMARK>
 VINA RESULT:      -6.9      3.157      5.940
  Name = 
  9 active torsions:
  status: ('A' for Active; 'I' for Inactive)
    1  A    between atoms: S_1  and  C_20
    2  A    between atoms: S_1  and  N_34
    3  A    between atoms: S_3  and  C_13
    4  A    between atoms: C_6  and  O_18
    5  A    between atoms: C_6  and  C_30
    6  A    between atoms: C_13  and  C_27
    7  A    between atoms: O_18  and  C_33
    8  A    between atoms: C_25  and  C_27
    9  A    between atoms: C_28  and  C_30
                            x       y       z     vdW  Elec       q    Type
                         _______ _______ _______ _____ _____    ______ ____

>  <TORSDO>
F 9

$$$$
=
 OpenBabel11052415463D

 34 37  0  0  1  0  0  0  0  0999 V2000
  189.6980  176.9430  135.9910 C   0  0  0  0  0  2  0  0  0  0  0  0
  190.1770  174.9300  137.4250 C   0  0  0  0  0  1  0  0  0  0  0  0
  188.3490  176.4950  135.4320 C   0  0  0  0  0  2  0  0  0  0  0  0
  187.2160  176.5910  136.4560 C   0  0  2  0  0  3  0  0  0  0  0  0
  189.9130  176.4250  137.4200 C   0  0  2  0  0  3  0  0  0  0  0  0
  187.6510  177.3720  137.7130 C   0  0  2  0  0  3  0  0  0  0  0  0
  188.8230  176.7520  138.3620 N   0  0  0  0  0  0  0  0  0  0  0  0
  189.4770  177.8730  139.5230 S   0  0  0  0  0  0  0  0  0  0  0  0
  190.9800  177.8000  139.5100 O   0  0  0  0  0  0  0  0  0  0  0  0
  189.0560  179.2750  139.1830 O   0  0  0  0  0  0  0  0  0  0  0  0
  189.4850  176.4730  141.8850 C   0  0  0  0  0  3  0  0  0  0  0  0
  187.9080  176.8650  143.6790 C   0  0  0  0  0  3  0  0  0  0  0  0
  188.9990  176.1640  143.1580 C   0  0  0  0  0  3  0  0  0  0  0  0
  187.7910  178.1880  141.6540 C   0  0  0  0  0  3  0  0  0  0  0  0
  188.8830  177.4870  141.1310 C   0  0  0  0  0  0  0  0  0  0  0  0
  187.3030  177.8780  142.9270 C   0  0  0  0  0  3  0  0  0  0  0  0
  186.5880  177.4730  138.6170 O   0  0  0  0  0  0  0  0  0  0  0  0
  185.8660  178.5960  138.2010 C   0  0  0  0  0  2  0  0  0  0  0  0
  184.3900  178.2520  138.0670 C   0  0  0  0  0  2  0  0  0  0  0  0
  181.9140  176.5490  138.4630 C   0  0  0  0  0  2  0  0  0  0  0  0
  182.6090  178.6290  142.3000 C   0  0  0  0  0  0  0  0  0  0  0  0
  181.4060  178.7390  141.4440 C   0  0  0  0  0  0  0  0  0  0  0  0
  181.3510  178.2870  140.1250 O   0  0  0  0  0  0  0  0  0  0  0  0
  182.4250  178.6850  143.6430 F   0  0  0  0  0  0  0  0  0  0  0  0
  182.3790  177.5190  139.5270 C   0  0  0  0  0  0  0  0  0  0  0  0
  180.3640  179.2410  141.9430 O   0  0  0  0  0  0  0  0  0  0  0  0
  184.3820  178.5840  140.4800 C   0  0  0  0  0  3  0  0  0  0  0  0
  183.7380  178.1250  139.4070 C   0  0  0  0  0  0  0  0  0  0  0  0
  183.8760  178.6080  141.8650 C   0  0  0  0  0  3  0  0  0  0  0  0
  182.3270  176.0410  139.8430 C   0  0  0  0  0  2  0  0  0  0  0  0
  186.7250  175.1840  136.7880 C   0  0  0  0  0  2  0  0  0  0  0  0
  185.2550  175.0090  136.4390 C   0  0  0  0  0  2  0  0  0  0  0  0
  184.4830  173.7930  137.5470 S   0  0  0  0  0  0  0  0  0  0  0  0
  185.9840  172.7780  137.5940 C   0  0  0  0  0  1  0  0  0  0  0  0
  1  5  1  0  0  0  0
  3  1  1  0  0  0  0
  3  4  1  0  0  0  0
  4 31  1  1  0  0  0
  4  6  1  0  0  0  0
  5  2  1  6  0  0  0
  5  7  1  0  0  0  0
  6  7  1  0  0  0  0
  6 17  1  1  0  0  0
  7  8  1  0  0  0  0
  8 15  1  0  0  0  0
  9  8  2  0  0  0  0
 10  8  2  0  0  0  0
 11 13  1  0  0  0  0
 13 12  2  0  0  0  0
 14 16  2  0  0  0  0
 15 14  1  0  0  0  0
 15 11  2  0  0  0  0
 16 12  1  0  0  0  0
 18 17  1  0  0  0  0
 19 18  1  0  0  0  0
 19 28  1  0  0  0  0
 20 25  1  0  0  0  0
 20 30  1  0  0  0  0
 21 24  1  0  0  0  0
 22 26  2  0  0  0  0
 22 21  1  0  0  0  0
 23 22  1  0  0  0  0
 25 30  1  0  0  0  0
 25 23  1  0  0  0  0
 27 29  1  0  0  0  0
 28 25  1  0  0  0  0
 28 27  2  0  0  0  0
 29 21  2  0  0  0  0
 32 31  1  0  0  0  0
 32 33  1  0  0  0  0
 33 34  1  0  0  0  0
M  END
>  <MODEL>
6

>  <REMARK>
 VINA RESULT:      -6.8      3.541      6.781
  Name = 
  9 active torsions:
  status: ('A' for Active; 'I' for Inactive)
    1  A    between atoms: S_1  and  C_20
    2  A    between atoms: S_1  and  N_34
    3  A    between atoms: S_3  and  C_13
    4  A    between atoms: C_6  and  O_18
    5  A    between atoms: C_6  and  C_30
    6  A    between atoms: C_13  and  C_27
    7  A    between atoms: O_18  and  C_33
    8  A    between atoms: C_25  and  C_27
    9  A    between atoms: C_28  and  C_30
                            x       y       z     vdW  Elec       q    Type
                         _______ _______ _______ _____ _____    ______ ____

>  <TORSDO>
F 9

$$$$
=
 OpenBabel11052415463D

 34 37  0  0  1  0  0  0  0  0999 V2000
  188.8210  174.9090  136.1290 C   0  0  0  0  0  2  0  0  0  0  0  0
  190.4510  176.3230  134.8320 C   0  0  0  0  0  1  0  0  0  0  0  0
  189.7760  174.4210  137.2180 C   0  0  0  0  0  2  0  0  0  0  0  0
  190.1070  175.5030  138.2490 C   0  0  2  0  0  3  0  0  0  0  0  0
  189.1800  176.3260  135.6620 C   0  0  2  0  0  3  0  0  0  0  0  0
  189.1890  176.7330  138.0980 C   0  0  2  0  0  3  0  0  0  0  0  0
  189.2850  177.3230  136.7490 N   0  0  0  0  0  0  0  0  0  0  0  0
  187.9700  178.4440  136.5350 S   0  0  0  0  0  0  0  0  0  0  0  0
  188.3040  179.7530  137.1990 O   0  0  0  0  0  0  0  0  0  0  0  0
  187.7320  178.6890  135.0710 O   0  0  0  0  0  0  0  0  0  0  0  0
  185.8690  176.6810  136.6520 C   0  0  0  0  0  3  0  0  0  0  0  0
  184.1420  176.7670  138.3470 C   0  0  0  0  0  3  0  0  0  0  0  0
  184.6920  176.1710  137.2080 C   0  0  0  0  0  3  0  0  0  0  0  0
  185.9460  178.3820  138.3750 C   0  0  0  0  0  3  0  0  0  0  0  0
  186.5000  177.7860  137.2360 C   0  0  0  0  0  0  0  0  0  0  0  0
  184.7690  177.8720  138.9310 C   0  0  0  0  0  3  0  0  0  0  0  0
  189.4920  177.6900  139.0730 O   0  0  0  0  0  0  0  0  0  0  0  0
  188.9130  177.2040  140.2490 C   0  0  0  0  0  2  0  0  0  0  0  0
  189.9550  177.1260  141.3550 C   0  0  0  0  0  2  0  0  0  0  0  0
  191.6800  178.3990  143.4970 C   0  0  0  0  0  2  0  0  0  0  0  0
  187.7070  177.7680  145.3260 C   0  0  0  0  0  0  0  0  0  0  0  0
  188.9900  177.1860  145.7840 C   0  0  0  0  0  0  0  0  0  0  0  0
  190.1570  177.1900  145.0190 O   0  0  0  0  0  0  0  0  0  0  0  0
  186.7990  178.0990  146.2780 F   0  0  0  0  0  0  0  0  0  0  0  0
  190.2830  177.9050  143.8050 C   0  0  0  0  0  0  0  0  0  0  0  0
  189.0380  176.6860  146.9390 O   0  0  0  0  0  0  0  0  0  0  0  0
  188.0560  177.5620  142.8170 C   0  0  0  0  0  3  0  0  0  0  0  0
  189.3810  177.5440  142.6720 C   0  0  0  0  0  0  0  0  0  0  0  0
  187.3110  177.8780  144.0510 C   0  0  0  0  0  3  0  0  0  0  0  0
  190.6030  179.3740  143.9680 C   0  0  0  0  0  2  0  0  0  0  0  0
  191.5860  175.8640  138.1320 C   0  0  0  0  0  2  0  0  0  0  0  0
  192.3910  174.7310  137.5160 C   0  0  0  0  0  2  0  0  0  0  0  0
  194.1450  175.1920  137.4000 S   0  0  0  0  0  0  0  0  0  0  0  0
  194.6840  173.5550  137.9640 C   0  0  0  0  0  1  0  0  0  0  0  0
  1  3  1  0  0  0  0
  3  4  1  0  0  0  0
  4 31  1  6  0  0  0
  5  2  1  1  0  0  0
  5  1  1  0  0  0  0
  5  7  1  0  0  0  0
  6  4  1  0  0  0  0
  6 17  1  1  0  0  0
  7  6  1  0  0  0  0
  8  7  1  0  0  0  0
  8  9  2  0  0  0  0
  8 15  1  0  0  0  0
 10  8  2  0  0  0  0
 11 13  2  0  0  0  0
 11 15  1  0  0  0  0
 12 16  2  0  0  0  0
 13 12  1  0  0  0  0
 14 16  1  0  0  0  0
 15 14  2  0  0  0  0
 17 18  1  0  0  0  0
 18 19  1  0  0  0  0
 19 28  1  0  0  0  0
 20 25  1  0  0  0  0
 20 30  1  0  0  0  0
 21 22  1  0  0  0  0
 21 24  1  0  0  0  0
 22 26  2  0  0  0  0
 23 22  1  0  0  0  0
 25 30  1  0  0  0  0
 25 23  1  0  0  0  0
 27 29  1  0  0  0  0
 28 27  2  0  0  0  0
 28 25  1  0  0  0  0
 29 21  2  0  0  0  0
 32 31  1  0  0  0  0
 33 32  1  0  0  0  0
 33 34  1  0  0  0  0
M  END
>  <MODEL>
7

>  <REMARK>
 VINA RESULT:      -6.7      2.263      4.547
  Name = 
  9 active torsions:
  status: ('A' for Active; 'I' for Inactive)
    1  A    between atoms: S_1  and  C_20
    2  A    between atoms: S_1  and  N_34
    3  A    between atoms: S_3  and  C_13
    4  A    between atoms: C_6  and  O_18
    5  A    between atoms: C_6  and  C_30
    6  A    between atoms: C_13  and  C_27
    7  A    between atoms: O_18  and  C_33
    8  A    between atoms: C_25  and  C_27
    9  A    between atoms: C_28  and  C_30
                            x       y       z     vdW  Elec       q    Type
                         _______ _______ _______ _____ _____    ______ ____

>  <TORSDO>
F 9

$$$$
=
 OpenBabel11052415463D

 34 37  0  0  1  0  0  0  0  0999 V2000
  189.9350  175.6390  142.2820 C   0  0  0  0  0  2  0  0  0  0  0  0
  191.6570  177.4610  142.0490 C   0  0  0  0  0  1  0  0  0  0  0  0
  189.2750  176.1280  143.5700 C   0  0  0  0  0  2  0  0  0  0  0  0
  188.3780  177.3490  143.3540 C   0  0  2  0  0  3  0  0  0  0  0  0
  190.4340  176.8110  141.4270 C   0  0  2  0  0  3  0  0  0  0  0  0
  188.1400  177.6220  141.8550 C   0  0  2  0  0  3  0  0  0  0  0  0
  189.4090  177.8350  141.1310 N   0  0  0  0  0  0  0  0  0  0  0  0
  189.0970  177.7580  139.4200 S   0  0  0  0  0  0  0  0  0  0  0  0
  187.7260  177.1850  139.1790 O   0  0  0  0  0  0  0  0  0  0  0  0
  189.1610  179.1340  138.8200 O   0  0  0  0  0  0  0  0  0  0  0  0
  191.6460  177.1400  138.6130 C   0  0  0  0  0  3  0  0  0  0  0  0
  192.2070  175.1500  137.3530 C   0  0  0  0  0  3  0  0  0  0  0  0
  192.5980  176.3400  137.9740 C   0  0  0  0  0  3  0  0  0  0  0  0
  189.9130  175.5600  138.0110 C   0  0  0  0  0  3  0  0  0  0  0  0
  190.3020  176.7510  138.6340 C   0  0  0  0  0  0  0  0  0  0  0  0
  190.8650  174.7600  137.3710 C   0  0  0  0  0  3  0  0  0  0  0  0
  187.2920  178.7220  141.6880 O   0  0  0  0  0  0  0  0  0  0  0  0
  186.0210  178.2540  142.0330 C   0  0  0  0  0  2  0  0  0  0  0  0
  184.9520  179.0140  141.2630 C   0  0  0  0  0  2  0  0  0  0  0  0
  182.6090  178.1310  139.5550 C   0  0  0  0  0  2  0  0  0  0  0  0
  180.9670  178.9490  143.5760 C   0  0  0  0  0  0  0  0  0  0  0  0
  180.5850  179.6250  142.3140 C   0  0  0  0  0  0  0  0  0  0  0  0
  181.3200  179.5270  141.1310 O   0  0  0  0  0  0  0  0  0  0  0  0
  179.9910  178.7500  144.4950 F   0  0  0  0  0  0  0  0  0  0  0  0
  182.4060  178.6340  140.9670 C   0  0  0  0  0  0  0  0  0  0  0  0
  179.5220  180.2990  142.2980 O   0  0  0  0  0  0  0  0  0  0  0  0
  183.4720  178.7680  143.1810 C   0  0  0  0  0  3  0  0  0  0  0  0
  183.5950  178.7940  141.8540 C   0  0  0  0  0  0  0  0  0  0  0  0
  182.2160  178.6320  143.9430 C   0  0  0  0  0  3  0  0  0  0  0  0
  182.0090  177.2170  140.6210 C   0  0  0  0  0  2  0  0  0  0  0  0
  188.9900  178.5490  144.0730 C   0  0  0  0  0  2  0  0  0  0  0  0
  189.9620  178.1130  145.1580 C   0  0  0  0  0  2  0  0  0  0  0  0
  189.0800  177.8310  146.7210 S   0  0  0  0  0  0  0  0  0  0  0  0
  190.3900  176.7440  147.3450 C   0  0  0  0  0  1  0  0  0  0  0  0
  1  3  1  0  0  0  0
  4  3  1  0  0  0  0
  4 31  1  6  0  0  0
  5  2  1  1  0  0  0
  5  1  1  0  0  0  0
  6 17  1  1  0  0  0
  6  4  1  0  0  0  0
  7  5  1  0  0  0  0
  7  6  1  0  0  0  0
  8  7  1  0  0  0  0
  9  8  2  0  0  0  0
 10  8  2  0  0  0  0
 11 15  1  0  0  0  0
 12 16  2  0  0  0  0
 12 13  1  0  0  0  0
 13 11  2  0  0  0  0
 14 15  2  0  0  0  0
 15  8  1  0  0  0  0
 16 14  1  0  0  0  0
 17 18  1  0  0  0  0
 19 28  1  0  0  0  0
 19 18  1  0  0  0  0
 20 30  1  0  0  0  0
 20 25  1  0  0  0  0
 21 29  2  0  0  0  0
 21 24  1  0  0  0  0
 22 21  1  0  0  0  0
 23 22  1  0  0  0  0
 25 23  1  0  0  0  0
 25 28  1  0  0  0  0
 26 22  2  0  0  0  0
 27 29  1  0  0  0  0
 28 27  2  0  0  0  0
 30 25  1  0  0  0  0
 31 32  1  0  0  0  0
 32 33  1  0  0  0  0
 33 34  1  0  0  0  0
M  END
>  <MODEL>
8

>  <REMARK>
 VINA RESULT:      -6.6      4.117      6.568
  Name = 
  9 active torsions:
  status: ('A' for Active; 'I' for Inactive)
    1  A    between atoms: S_1  and  C_20
    2  A    between atoms: S_1  and  N_34
    3  A    between atoms: S_3  and  C_13
    4  A    between atoms: C_6  and  O_18
    5  A    between atoms: C_6  and  C_30
    6  A    between atoms: C_13  and  C_27
    7  A    between atoms: O_18  and  C_33
    8  A    between atoms: C_25  and  C_27
    9  A    between atoms: C_28  and  C_30
                            x       y       z     vdW  Elec       q    Type
                         _______ _______ _______ _____ _____    ______ ____

>  <TORSDO>
F 9

$$$$
=
 OpenBabel11052415463D

 34 37  0  0  1  0  0  0  0  0999 V2000
  183.5370  180.2490  143.8690 C   0  0  0  0  0  2  0  0  0  0  0  0
  182.2440  178.0920  143.9850 C   0  0  0  0  0  1  0  0  0  0  0  0
  184.8180  179.7710  144.5500 C   0  0  0  0  0  2  0  0  0  0  0  0
  185.6720  178.8720  143.6520 C   0  0  2  0  0  3  0  0  0  0  0  0
  182.8740  179.1220  143.0650 C   0  0  2  0  0  3  0  0  0  0  0  0
  185.1730  178.8890  142.1930 C   0  0  2  0  0  3  0  0  0  0  0  0
  183.7650  178.4570  142.0910 N   0  0  0  0  0  0  0  0  0  0  0  0
  183.1700  178.8580  140.5050 S   0  0  0  0  0  0  0  0  0  0  0  0
  181.7410  179.3190  140.5990 O   0  0  0  0  0  0  0  0  0  0  0  0
  183.9980  179.9600  139.9050 O   0  0  0  0  0  0  0  0  0  0  0  0
  184.1180  177.4580  138.3430 C   0  0  0  0  0  3  0  0  0  0  0  0
  183.3910  175.2200  137.7730 C   0  0  0  0  0  3  0  0  0  0  0  0
  184.1810  176.3410  137.5040 C   0  0  0  0  0  3  0  0  0  0  0  0
  182.4770  176.3300  139.7210 C   0  0  0  0  0  3  0  0  0  0  0  0
  183.2680  177.4540  139.4540 C   0  0  0  0  0  0  0  0  0  0  0  0
  182.5390  175.2140  138.8820 C   0  0  0  0  0  3  0  0  0  0  0  0
  185.9900  178.0860  141.3890 O   0  0  0  0  0  0  0  0  0  0  0  0
  187.1690  178.8200  141.2260 C   0  0  0  0  0  2  0  0  0  0  0  0
  188.2620  177.9370  140.6430 C   0  0  0  0  0  2  0  0  0  0  0  0
  190.8480  176.6000  139.7990 C   0  0  0  0  0  2  0  0  0  0  0  0
  191.2530  177.4560  144.1150 C   0  0  0  0  0  0  0  0  0  0  0  0
  191.3020  176.1220  143.4730 C   0  0  0  0  0  0  0  0  0  0  0  0
  190.8970  175.8800  142.1600 O   0  0  0  0  0  0  0  0  0  0  0  0
  192.0550  177.6590  145.1900 F   0  0  0  0  0  0  0  0  0  0  0  0
  190.5640  176.9130  141.2510 C   0  0  0  0  0  0  0  0  0  0  0  0
  191.7650  175.1580  144.1380 O   0  0  0  0  0  0  0  0  0  0  0  0
  189.3880  178.4880  142.7310 C   0  0  0  0  0  3  0  0  0  0  0  0
  189.4180  177.8090  141.5850 C   0  0  0  0  0  0  0  0  0  0  0  0
  190.3950  178.4370  143.8090 C   0  0  0  0  0  3  0  0  0  0  0  0
  191.7490  177.5610  140.5720 C   0  0  0  0  0  2  0  0  0  0  0  0
  185.6980  177.4630  144.2400 C   0  0  0  0  0  2  0  0  0  0  0  0
  187.0440  177.1480  144.8730 C   0  0  0  0  0  2  0  0  0  0  0  0
  187.1170  177.8100  146.5640 S   0  0  0  0  0  0  0  0  0  0  0  0
  188.7450  177.0680  146.8580 C   0  0  0  0  0  1  0  0  0  0  0  0
  1  3  1  0  0  0  0
  4 31  1  1  0  0  0
  4  3  1  0  0  0  0
  5  1  1  0  0  0  0
  5  2  1  1  0  0  0
  6 17  1  6  0  0  0
  6  4  1  0  0  0  0
  7  6  1  0  0  0  0
  7  5  1  0  0  0  0
  8  9  2  0  0  0  0
  8  7  1  0  0  0  0
 10  8  2  0  0  0  0
 11 15  1  0  0  0  0
 12 16  2  0  0  0  0
 13 12  1  0  0  0  0
 13 11  2  0  0  0  0
 15 14  2  0  0  0  0
 15  8  1  0  0  0  0
 16 14  1  0  0  0  0
 18 17  1  0  0  0  0
 19 18  1  0  0  0  0
 19 28  1  0  0  0  0
 20 30  1  0  0  0  0
 20 25  1  0  0  0  0
 21 24  1  0  0  0  0
 22 21  1  0  0  0  0
 22 26  2  0  0  0  0
 23 22  1  0  0  0  0
 25 28  1  0  0  0  0
 25 23  1  0  0  0  0
 27 29  1  0  0  0  0
 28 27  2  0  0  0  0
 29 21  2  0  0  0  0
 30 25  1  0  0  0  0
 31 32  1  0  0  0  0
 32 33  1  0  0  0  0
 33 34  1  0  0  0  0
M  END
>  <MODEL>
9

>  <REMARK>
 VINA RESULT:      -6.6      3.901      6.344
  Name = 
  9 active torsions:
  status: ('A' for Active; 'I' for Inactive)
    1  A    between atoms: S_1  and  C_20
    2  A    between atoms: S_1  and  N_34
    3  A    between atoms: S_3  and  C_13
    4  A    between atoms: C_6  and  O_18
    5  A    between atoms: C_6  and  C_30
    6  A    between atoms: C_13  and  C_27
    7  A    between atoms: O_18  and  C_33
    8  A    between atoms: C_25  and  C_27
    9  A    between atoms: C_28  and  C_30
                            x       y       z     vdW  Elec       q    Type
                         _______ _______ _______ _____ _____    ______ ____

>  <TORSDO>
F 9

$$$$
