=
 OpenBabel11052412283D

 30 31  0  0  1  0  0  0  0  0999 V2000
  190.4060  176.8430  144.5150 C   0  0  0  0  0  0  0  0  0  0  0  0
  190.2240  177.3180  145.7900 C   0  0  2  0  0  3  0  0  0  0  0  0
  191.2320  176.8030  146.5730 C   0  0  0  0  0  3  0  0  0  0  0  0
  191.5010  176.0630  144.4570 N   0  0  0  0  0  0  0  0  0  0  0  0
  192.0040  176.0380  145.7100 C   0  0  0  0  0  3  0  0  0  0  0  0
  188.9430  175.8780  142.7700 C   0  0  0  0  0  1  0  0  0  0  0  0
  189.5360  177.1540  143.3400 C   0  0  2  0  0  3  0  0  0  0  0  0
  190.3380  177.8870  142.2760 C   0  0  0  0  0  2  0  0  0  0  0  0
  189.8840  177.4820  140.8760 C   0  0  2  0  0  3  0  0  0  0  0  0
  192.1550  177.7270  140.2650 O   0  0  0  0  0  0  0  0  0  0  0  0
  188.6590  176.0470  138.5760 O   0  0  0  0  0  0  0  0  0  0  0  0
  190.9760  176.3700  138.8020 N   0  0  0  0  0  2  0  0  0  0  0  0
  191.0480  177.2060  139.9690 C   0  0  0  0  0  0  0  0  0  0  0  0
  190.0110  174.8420  137.0510 C   0  0  0  0  0  1  0  0  0  0  0  0
  189.8240  175.7780  138.1900 C   0  0  0  0  0  0  0  0  0  0  0  0
  189.1890  179.0910  139.0910 O   0  0  0  0  0  0  0  0  0  0  0  0
  188.8680  178.3990  140.2510 C   0  0  0  0  0  0  0  0  0  0  0  0
  187.7140  178.5230  140.7450 O   0  0  0  0  0  1  0  0  0  0  0  0
  189.1040  178.1830  146.2700 C   0  0  0  0  0  2  0  0  0  0  0  0
  187.9690  177.3610  146.6580 N   0  0  0  0  0  0  0  0  0  0  0  0
  188.2990  176.7530  147.9360 C   0  0  0  0  0  1  0  0  0  0  0  0
  186.8600  178.2680  146.9070 C   0  0  0  0  0  2  0  0  0  0  0  0
  184.5750  178.4820  142.9520 C   0  0  0  0  0  0  0  0  0  0  0  0
  183.9840  179.5370  143.8250 C   0  0  0  0  0  2  0  0  0  0  0  0
  183.8280  178.1740  141.3590 S   0  0  0  0  0  1  0  0  0  0  0  0
  185.9370  178.2830  145.7380 C   0  0  0  0  0  0  0  0  0  0  0  0
  183.6120  178.9990  145.1650 C   0  0  0  0  0  3  0  0  0  0  0  0
  185.7090  177.8530  143.2610 C   0  0  0  0  0  3  0  0  0  0  0  0
  184.5000  178.4810  146.0140 C   0  0  0  0  0  3  0  0  0  0  0  0
  186.4450  177.9720  144.5360 C   0  0  0  0  0  3  0  0  0  0  0  0
  1  2  1  0  0  0  0
  2 19  1  1  0  0  0
  2  3  1  0  0  0  0
  4  1  2  0  0  0  0
  4  5  1  0  0  0  0
  5  3  2  0  0  0  0
  7  6  1  6  0  0  0
  7  1  1  0  0  0  0
  8  7  1  0  0  0  0
  9  8  1  1  0  0  0
 12 13  1  0  0  0  0
 13 10  2  0  0  0  0
 13  9  1  0  0  0  0
 14 15  1  0  0  0  0
 15 11  2  0  0  0  0
 15 12  1  0  0  0  0
 16 17  2  0  0  0  0
 17 18  1  0  0  0  0
 17  9  1  0  0  0  0
 19 20  1  0  0  0  0
 20 22  1  0  0  0  0
 20 21  1  0  0  0  0
 23 28  2  0  0  0  0
 23 24  1  0  0  0  0
 24 27  1  0  0  0  0
 25 23  1  0  0  0  0
 26 29  1  0  0  0  0
 26 22  1  0  0  0  0
 27 29  2  0  0  0  0
 28 30  1  0  0  0  0
 30 26  2  0  0  0  0
M  END
>  <MODEL>
1

>  <REMARK>
 VINA RESULT:      -8.0      0.000      0.000
  Name = 
  9 active torsions:
  status: ('A' for Active; 'I' for Inactive)
    1  A    between atoms: C_3  and  N_11
    2  A    between atoms: C_3  and  C_19
    3  A    between atoms: C_4  and  C_8
    4  A    between atoms: C_7  and  C_30
    5  A    between atoms: C_8  and  C_12
    6  A    between atoms: C_8  and  C_13
    7  A    between atoms: C_10  and  C_25
    8  A    between atoms: N_11  and  C_25
    9  A    between atoms: C_13  and  C_30
                            x       y       z     vdW  Elec       q    Type
                         _______ _______ _______ _____ _____    ______ ____

>  <TORSDO>
F 9

$$$$
=
 OpenBabel11052412283D

 30 31  0  0  1  0  0  0  0  0999 V2000
  188.1060  177.5260  145.9030 C   0  0  0  0  0  0  0  0  0  0  0  0
  187.2750  178.3330  146.6390 C   0  0  0  0  0  0  0  0  0  0  0  0
  187.5690  178.1270  147.9690 C   0  0  0  0  0  3  0  0  0  0  0  0
  188.9250  176.8320  146.7130 N   0  0  0  0  0  2  0  0  0  0  0  0
  188.5980  177.1970  147.9710 C   0  0  0  0  0  3  0  0  0  0  0  0
  186.9760  176.5740  143.9190 C   0  0  0  0  0  1  0  0  0  0  0  0
  188.1270  177.4330  144.4110 C   0  0  2  0  0  3  0  0  0  0  0  0
  189.4540  176.8590  143.9420 C   0  0  0  0  0  2  0  0  0  0  0  0
  190.3200  177.9400  143.3000 C   0  0  2  0  0  3  0  0  0  0  0  0
  192.0890  177.0480  142.0110 O   0  0  0  0  0  0  0  0  0  0  0  0
  188.2840  178.7480  141.2880 O   0  0  0  0  0  0  0  0  0  0  0  0
  190.2000  177.4980  140.7470 N   0  0  0  0  0  2  0  0  0  0  0  0
  190.9090  177.4840  141.9970 C   0  0  0  0  0  0  0  0  0  0  0  0
  188.3280  177.8420  139.1000 C   0  0  0  0  0  1  0  0  0  0  0  0
  188.9160  178.0590  140.4480 C   0  0  0  0  0  0  0  0  0  0  0  0
  191.8890  177.8010  145.2430 O   0  0  0  0  0  1  0  0  0  0  0  0
  191.3440  178.5570  144.2150 C   0  0  0  0  0  0  0  0  0  0  0  0
  191.7410  179.7420  144.0410 O   0  0  0  0  0  0  0  0  0  0  0  0
  186.2010  179.2280  146.1140 C   0  0  0  0  0  2  0  0  0  0  0  0
  185.0410  178.4420  145.7270 N   0  0  0  0  0  0  0  0  0  0  0  0
  184.5350  177.8050  146.9320 C   0  0  0  0  0  1  0  0  0  0  0  0
  184.0190  179.3830  145.2990 C   0  0  0  0  0  2  0  0  0  0  0  0
  182.5410  178.3760  141.0900 C   0  0  0  0  0  0  0  0  0  0  0  0
  183.9120  177.7980  141.1920 C   0  0  0  0  0  2  0  0  0  0  0  0
  181.6980  178.3010  139.5170 S   0  0  0  0  0  1  0  0  0  0  0  0
  183.7060  179.1810  143.8560 C   0  0  0  0  0  0  0  0  0  0  0  0
  184.8970  178.8000  141.6920 C   0  0  0  0  0  3  0  0  0  0  0  0
  181.8770  178.8300  142.1530 C   0  0  0  0  0  3  0  0  0  0  0  0
  184.8080  179.3740  142.8920 C   0  0  0  0  0  3  0  0  0  0  0  0
  182.4250  178.9810  143.5160 C   0  0  0  0  0  3  0  0  0  0  0  0
  1  2  2  0  0  0  0
  1  4  1  0  0  0  0
  2  3  1  0  0  0  0
  3  5  2  0  0  0  0
  4  5  1  0  0  0  0
  7  6  1  1  0  0  0
  7  1  1  0  0  0  0
  8  7  1  0  0  0  0
  9  8  1  1  0  0  0
  9 17  1  0  0  0  0
 12 13  1  0  0  0  0
 13 10  2  0  0  0  0
 13  9  1  0  0  0  0
 14 15  1  0  0  0  0
 15 12  1  0  0  0  0
 15 11  2  0  0  0  0
 17 16  1  0  0  0  0
 18 17  2  0  0  0  0
 19  2  1  0  0  0  0
 20 19  1  0  0  0  0
 20 21  1  0  0  0  0
 22 20  1  0  0  0  0
 23 24  1  0  0  0  0
 23 28  2  0  0  0  0
 24 27  1  0  0  0  0
 25 23  1  0  0  0  0
 26 22  1  0  0  0  0
 27 29  2  0  0  0  0
 28 30  1  0  0  0  0
 29 26  1  0  0  0  0
 30 26  2  0  0  0  0
M  END
>  <MODEL>
2

>  <REMARK>
 VINA RESULT:      -7.9      1.996      3.562
  Name = 
  9 active torsions:
  status: ('A' for Active; 'I' for Inactive)
    1  A    between atoms: C_3  and  N_11
    2  A    between atoms: C_3  and  C_19
    3  A    between atoms: C_4  and  C_8
    4  A    between atoms: C_7  and  C_30
    5  A    between atoms: C_8  and  C_12
    6  A    between atoms: C_8  and  C_13
    7  A    between atoms: C_10  and  C_25
    8  A    between atoms: N_11  and  C_25
    9  A    between atoms: C_13  and  C_30
                            x       y       z     vdW  Elec       q    Type
                         _______ _______ _______ _____ _____    ______ ____

>  <TORSDO>
F 9

$$$$
=
 OpenBabel11052412283D

 30 31  0  0  1  0  0  0  0  0999 V2000
  184.4220  178.7440  144.4380 C   0  0  0  0  0  0  0  0  0  0  0  0
  185.7100  178.2690  144.4600 C   0  0  0  0  0  0  0  0  0  0  0  0
  186.0290  177.9990  145.7720 C   0  0  0  0  0  3  0  0  0  0  0  0
  183.9090  178.7660  145.6810 N   0  0  0  0  0  2  0  0  0  0  0  0
  184.8880  178.3140  146.4940 C   0  0  0  0  0  3  0  0  0  0  0  0
  182.1870  179.2590  143.5140 C   0  0  0  0  0  1  0  0  0  0  0  0
  183.6710  179.1600  143.2140 C   0  0  2  0  0  3  0  0  0  0  0  0
  183.9180  178.1680  142.0880 C   0  0  0  0  0  2  0  0  0  0  0  0
  183.4170  178.7190  140.7550 C   0  0  2  0  0  3  0  0  0  0  0  0
  183.1470  176.6390  139.6660 O   0  0  0  0  0  0  0  0  0  0  0  0
  180.8720  180.1630  140.2150 O   0  0  0  0  0  0  0  0  0  0  0  0
  181.2000  177.8960  139.6890 N   0  0  0  0  0  2  0  0  0  0  0  0
  182.5890  177.7130  140.0110 C   0  0  0  0  0  0  0  0  0  0  0  0
  178.9310  178.9770  139.5600 C   0  0  0  0  0  1  0  0  0  0  0  0
  180.3860  179.0630  139.8530 C   0  0  0  0  0  0  0  0  0  0  0  0
  185.7790  178.8780  139.9510 O   0  0  0  0  0  1  0  0  0  0  0  0
  184.4750  179.3510  139.8930 C   0  0  0  0  0  0  0  0  0  0  0  0
  184.1910  180.2830  139.0930 O   0  0  0  0  0  0  0  0  0  0  0  0
  186.6310  178.1270  143.2920 C   0  0  0  0  0  2  0  0  0  0  0  0
  187.7940  177.3390  143.6660 N   0  0  0  0  0  0  0  0  0  0  0  0
  188.2330  176.6350  142.4730 C   0  0  0  0  0  1  0  0  0  0  0  0
  188.8490  178.2810  144.0010 C   0  0  0  0  0  2  0  0  0  0  0  0
  191.4590  176.2240  147.1420 C   0  0  0  0  0  0  0  0  0  0  0  0
  190.0680  176.1890  147.6790 C   0  0  0  0  0  2  0  0  0  0  0  0
  192.7880  175.6300  148.1780 S   0  0  0  0  0  1  0  0  0  0  0  0
  189.6380  177.7760  145.1600 C   0  0  0  0  0  0  0  0  0  0  0  0
  189.4280  177.5350  147.6380 C   0  0  0  0  0  3  0  0  0  0  0  0
  191.7290  176.5610  145.8820 C   0  0  0  0  0  3  0  0  0  0  0  0
  189.2120  178.2060  146.5070 C   0  0  0  0  0  3  0  0  0  0  0  0
  190.7610  177.0890  144.9000 C   0  0  0  0  0  3  0  0  0  0  0  0
  1  2  2  0  0  0  0
  1  4  1  0  0  0  0
  2  3  1  0  0  0  0
  3  5  2  0  0  0  0
  4  5  1  0  0  0  0
  7  6  1  1  0  0  0
  7  1  1  0  0  0  0
  8  7  1  0  0  0  0
  9  8  1  1  0  0  0
 10 13  2  0  0  0  0
 12 15  1  0  0  0  0
 12 13  1  0  0  0  0
 13  9  1  0  0  0  0
 14 15  1  0  0  0  0
 15 11  2  0  0  0  0
 17 16  1  0  0  0  0
 17  9  1  0  0  0  0
 18 17  2  0  0  0  0
 19 20  1  0  0  0  0
 19  2  1  0  0  0  0
 20 22  1  0  0  0  0
 21 20  1  0  0  0  0
 22 26  1  0  0  0  0
 23 24  1  0  0  0  0
 23 25  1  0  0  0  0
 26 29  1  0  0  0  0
 27 24  1  0  0  0  0
 28 23  2  0  0  0  0
 29 27  2  0  0  0  0
 30 26  2  0  0  0  0
 30 28  1  0  0  0  0
M  END
>  <MODEL>
3

>  <REMARK>
 VINA RESULT:      -7.8      3.976      7.081
  Name = 
  9 active torsions:
  status: ('A' for Active; 'I' for Inactive)
    1  A    between atoms: C_3  and  N_11
    2  A    between atoms: C_3  and  C_19
    3  A    between atoms: C_4  and  C_8
    4  A    between atoms: C_7  and  C_30
    5  A    between atoms: C_8  and  C_12
    6  A    between atoms: C_8  and  C_13
    7  A    between atoms: C_10  and  C_25
    8  A    between atoms: N_11  and  C_25
    9  A    between atoms: C_13  and  C_30
                            x       y       z     vdW  Elec       q    Type
                         _______ _______ _______ _____ _____    ______ ____

>  <TORSDO>
F 9

$$$$
=
 OpenBabel11052412283D

 30 31  0  0  1  0  0  0  0  0999 V2000
  190.7900  177.1070  140.1870 C   0  0  0  0  0  0  0  0  0  0  0  0
  190.5200  177.3560  141.5100 C   0  0  2  0  0  3  0  0  0  0  0  0
  189.2090  177.7690  141.5940 C   0  0  0  0  0  3  0  0  0  0  0  0
  189.6960  177.3280  139.4360 N   0  0  0  0  0  0  0  0  0  0  0  0
  188.7340  177.7320  140.2920 C   0  0  0  0  0  3  0  0  0  0  0  0
  193.1980  177.6280  139.9770 C   0  0  0  0  0  1  0  0  0  0  0  0
  192.1000  176.6350  139.6430 C   0  0  2  0  0  3  0  0  0  0  0  0
  192.0010  176.4410  138.1380 C   0  0  0  0  0  2  0  0  0  0  0  0
  192.7840  175.2080  137.6950 C   0  0  2  0  0  3  0  0  0  0  0  0
  193.6520  176.2540  135.7610 O   0  0  0  0  0  0  0  0  0  0  0  0
  195.0740  173.6430  138.7710 O   0  0  0  0  0  0  0  0  0  0  0  0
  195.2860  175.1880  137.0120 N   0  0  0  0  0  2  0  0  0  0  0  0
  193.9190  175.5660  136.7810 C   0  0  0  0  0  0  0  0  0  0  0  0
  197.2940  174.1670  138.1340 C   0  0  0  0  0  1  0  0  0  0  0  0
  195.8200  174.3110  138.0110 C   0  0  0  0  0  0  0  0  0  0  0  0
  190.6220  173.9570  137.5720 O   0  0  0  0  0  1  0  0  0  0  0  0
  191.9420  174.0820  137.1590 C   0  0  0  0  0  0  0  0  0  0  0  0
  192.4040  173.2680  136.3150 O   0  0  0  0  0  0  0  0  0  0  0  0
  191.4790  177.2640  142.6510 C   0  0  0  0  0  2  0  0  0  0  0  0
  190.8840  176.5130  143.7450 N   0  0  0  0  0  0  0  0  0  0  0  0
  191.7420  175.3670  143.9910 C   0  0  0  0  0  1  0  0  0  0  0  0
  190.9710  177.3540  144.9280 C   0  0  0  0  0  2  0  0  0  0  0  0
  186.7740  178.1220  146.5730 C   0  0  0  0  0  0  0  0  0  0  0  0
  187.7090  178.3540  147.7120 C   0  0  0  0  0  2  0  0  0  0  0  0
  185.0170  178.1910  146.8840 S   0  0  0  0  0  1  0  0  0  0  0  0
  189.6430  177.4330  145.6000 C   0  0  0  0  0  0  0  0  0  0  0  0
  188.6580  177.2160  147.8860 C   0  0  0  0  0  3  0  0  0  0  0  0
  187.1980  177.9910  145.3170 C   0  0  0  0  0  3  0  0  0  0  0  0
  189.5340  176.8480  146.9510 C   0  0  0  0  0  3  0  0  0  0  0  0
  188.6070  177.8940  144.8840 C   0  0  0  0  0  3  0  0  0  0  0  0
  1  2  1  0  0  0  0
  2  3  1  0  0  0  0
  2 19  1  6  0  0  0
  4  1  2  0  0  0  0
  4  5  1  0  0  0  0
  5  3  2  0  0  0  0
  7  6  1  6  0  0  0
  7  1  1  0  0  0  0
  8  7  1  0  0  0  0
  9  8  1  6  0  0  0
 10 13  2  0  0  0  0
 12 15  1  0  0  0  0
 13 12  1  0  0  0  0
 13  9  1  0  0  0  0
 15 14  1  0  0  0  0
 15 11  2  0  0  0  0
 17 16  1  0  0  0  0
 17  9  1  0  0  0  0
 18 17  2  0  0  0  0
 19 20  1  0  0  0  0
 20 21  1  0  0  0  0
 20 22  1  0  0  0  0
 22 26  1  0  0  0  0
 23 25  1  0  0  0  0
 23 24  1  0  0  0  0
 24 27  1  0  0  0  0
 26 29  1  0  0  0  0
 28 23  2  0  0  0  0
 29 27  2  0  0  0  0
 30 28  1  0  0  0  0
 30 26  2  0  0  0  0
M  END
>  <MODEL>
4

>  <REMARK>
 VINA RESULT:      -7.7      3.108      5.295
  Name = 
  9 active torsions:
  status: ('A' for Active; 'I' for Inactive)
    1  A    between atoms: C_3  and  N_11
    2  A    between atoms: C_3  and  C_19
    3  A    between atoms: C_4  and  C_8
    4  A    between atoms: C_7  and  C_30
    5  A    between atoms: C_8  and  C_12
    6  A    between atoms: C_8  and  C_13
    7  A    between atoms: C_10  and  C_25
    8  A    between atoms: N_11  and  C_25
    9  A    between atoms: C_13  and  C_30
                            x       y       z     vdW  Elec       q    Type
                         _______ _______ _______ _____ _____    ______ ____

>  <TORSDO>
F 9

$$$$
=
 OpenBabel11052412283D

 30 31  0  0  1  0  0  0  0  0999 V2000
  183.9540  178.2920  140.3190 C   0  0  0  0  0  0  0  0  0  0  0  0
  184.7050  178.4570  141.4560 C   0  0  2  0  0  3  0  0  0  0  0  0
  185.9910  178.7540  141.0650 C   0  0  0  0  0  3  0  0  0  0  0  0
  184.7110  178.4920  139.2250 N   0  0  0  0  0  0  0  0  0  0  0  0
  185.9510  178.7730  139.6780 C   0  0  0  0  0  3  0  0  0  0  0  0
  182.2950  176.5330  139.8010 C   0  0  0  0  0  1  0  0  0  0  0  0
  182.4980  177.9590  140.2810 C   0  0  2  0  0  3  0  0  0  0  0  0
  181.7630  178.9330  139.3740 C   0  0  0  0  0  2  0  0  0  0  0  0
  180.7610  179.7680  140.1680 C   0  0  2  0  0  3  0  0  0  0  0  0
  178.9630  178.3120  139.6850 O   0  0  0  0  0  0  0  0  0  0  0  0
  180.3190  180.5600  143.0010 O   0  0  0  0  0  0  0  0  0  0  0  0
  179.0780  178.8760  141.9290 N   0  0  0  0  0  2  0  0  0  0  0  0
  179.5640  178.9630  140.5790 C   0  0  0  0  0  0  0  0  0  0  0  0
  178.9320  179.2590  144.4120 C   0  0  0  0  0  1  0  0  0  0  0  0
  179.5000  179.6110  143.0840 C   0  0  0  0  0  0  0  0  0  0  0  0
  181.1570  181.5820  138.4930 O   0  0  0  0  0  0  0  0  0  0  0  0
  180.3870  181.0810  139.5340 C   0  0  0  0  0  0  0  0  0  0  0  0
  179.3660  181.7170  139.9090 O   0  0  0  0  0  1  0  0  0  0  0  0
  184.2420  178.2840  142.8660 C   0  0  0  0  0  2  0  0  0  0  0  0
  185.1840  178.9080  143.7810 N   0  0  0  0  0  0  0  0  0  0  0  0
  184.5200  180.0680  144.3510 C   0  0  0  0  0  1  0  0  0  0  0  0
  185.3890  177.9720  144.8750 C   0  0  0  0  0  2  0  0  0  0  0  0
  189.8570  177.2350  145.5060 C   0  0  0  0  0  0  0  0  0  0  0  0
  189.6970  177.5700  144.0610 C   0  0  0  0  0  2  0  0  0  0  0  0
  191.4700  176.7410  146.0930 S   0  0  0  0  0  1  0  0  0  0  0  0
  186.8200  177.5620  144.9390 C   0  0  0  0  0  0  0  0  0  0  0  0
  188.6300  176.7490  143.4200 C   0  0  0  0  0  3  0  0  0  0  0  0
  188.8780  177.4110  146.3920 C   0  0  0  0  0  3  0  0  0  0  0  0
  187.3530  176.7880  143.8000 C   0  0  0  0  0  3  0  0  0  0  0  0
  187.4860  177.7940  146.0800 C   0  0  0  0  0  3  0  0  0  0  0  0
  1  2  1  0  0  0  0
  2 19  1  6  0  0  0
  3  2  1  0  0  0  0
  4  5  1  0  0  0  0
  4  1  2  0  0  0  0
  5  3  2  0  0  0  0
  7  6  1  6  0  0  0
  7  1  1  0  0  0  0
  8  7  1  0  0  0  0
  9  8  1  6  0  0  0
  9 13  1  0  0  0  0
 10 13  2  0  0  0  0
 11 15  2  0  0  0  0
 12 15  1  0  0  0  0
 13 12  1  0  0  0  0
 15 14  1  0  0  0  0
 16 17  2  0  0  0  0
 17 18  1  0  0  0  0
 17  9  1  0  0  0  0
 19 20  1  0  0  0  0
 20 21  1  0  0  0  0
 20 22  1  0  0  0  0
 22 26  1  0  0  0  0
 23 25  1  0  0  0  0
 23 28  2  0  0  0  0
 24 23  1  0  0  0  0
 26 30  2  0  0  0  0
 27 29  2  0  0  0  0
 27 24  1  0  0  0  0
 29 26  1  0  0  0  0
 30 28  1  0  0  0  0
M  END
>  <MODEL>
5

>  <REMARK>
 VINA RESULT:      -7.6      4.983      8.360
  Name = 
  9 active torsions:
  status: ('A' for Active; 'I' for Inactive)
    1  A    between atoms: C_3  and  N_11
    2  A    between atoms: C_3  and  C_19
    3  A    between atoms: C_4  and  C_8
    4  A    between atoms: C_7  and  C_30
    5  A    between atoms: C_8  and  C_12
    6  A    between atoms: C_8  and  C_13
    7  A    between atoms: C_10  and  C_25
    8  A    between atoms: N_11  and  C_25
    9  A    between atoms: C_13  and  C_30
                            x       y       z     vdW  Elec       q    Type
                         _______ _______ _______ _____ _____    ______ ____

>  <TORSDO>
F 9

$$$$
=
 OpenBabel11052412283D

 30 31  0  0  1  0  0  0  0  0999 V2000
  187.2730  177.7420  144.7990 C   0  0  0  0  0  0  0  0  0  0  0  0
  186.3190  178.6290  145.2340 C   0  0  0  0  0  0  0  0  0  0  0  0
  186.3390  178.6140  146.6110 C   0  0  0  0  0  3  0  0  0  0  0  0
  187.9060  177.1830  145.8450 N   0  0  0  0  0  2  0  0  0  0  0  0
  187.3370  177.7130  146.9490 C   0  0  0  0  0  3  0  0  0  0  0  0
  188.0440  176.0030  143.2190 C   0  0  0  0  0  1  0  0  0  0  0  0
  187.5920  177.4450  143.3690 C   0  0  2  0  0  3  0  0  0  0  0  0
  188.6690  178.3920  142.8660 C   0  0  0  0  0  2  0  0  0  0  0  0
  190.0580  177.7860  143.0500 C   0  0  2  0  0  3  0  0  0  0  0  0
  190.9940  179.7530  143.9680 O   0  0  0  0  0  0  0  0  0  0  0  0
  191.1690  175.5950  144.7270 O   0  0  0  0  0  0  0  0  0  0  0  0
  191.4300  177.8720  145.2500 N   0  0  0  0  0  2  0  0  0  0  0  0
  190.8490  178.5100  144.1000 C   0  0  0  0  0  0  0  0  0  0  0  0
  192.0570  176.0540  146.8740 C   0  0  0  0  0  1  0  0  0  0  0  0
  191.5160  176.4750  145.5540 C   0  0  0  0  0  0  0  0  0  0  0  0
  190.2130  177.7990  140.5540 O   0  0  0  0  0  0  0  0  0  0  0  0
  190.8340  177.5840  141.7760 C   0  0  0  0  0  0  0  0  0  0  0  0
  192.0510  177.2540  141.8010 O   0  0  0  0  0  1  0  0  0  0  0  0
  185.3800  179.4220  144.3850 C   0  0  0  0  0  2  0  0  0  0  0  0
  184.2470  178.6000  143.9920 N   0  0  0  0  0  0  0  0  0  0  0  0
  183.2990  178.6270  145.0930 C   0  0  0  0  0  1  0  0  0  0  0  0
  183.6040  179.2770  142.8780 C   0  0  0  0  0  2  0  0  0  0  0  0
  185.5630  178.2160  138.8850 C   0  0  0  0  0  0  0  0  0  0  0  0
  184.1020  178.3310  138.6070 C   0  0  0  0  0  2  0  0  0  0  0  0
  186.6410  177.6670  137.5710 S   0  0  0  0  0  1  0  0  0  0  0  0
  184.1220  178.7450  141.5860 C   0  0  0  0  0  0  0  0  0  0  0  0
  183.2940  177.5260  139.5680 C   0  0  0  0  0  3  0  0  0  0  0  0
  186.1060  178.6270  140.0300 C   0  0  0  0  0  3  0  0  0  0  0  0
  183.2880  177.7500  140.8820 C   0  0  0  0  0  3  0  0  0  0  0  0
  185.3660  179.0890  141.2220 C   0  0  0  0  0  3  0  0  0  0  0  0
  1  2  2  0  0  0  0
  1  4  1  0  0  0  0
  2  3  1  0  0  0  0
  3  5  2  0  0  0  0
  4  5  1  0  0  0  0
  7  6  1  1  0  0  0
  7  1  1  0  0  0  0
  8  7  1  0  0  0  0
  9  8  1  6  0  0  0
  9 13  1  0  0  0  0
 10 13  2  0  0  0  0
 11 15  2  0  0  0  0
 12 15  1  0  0  0  0
 13 12  1  0  0  0  0
 15 14  1  0  0  0  0
 16 17  2  0  0  0  0
 17 18  1  0  0  0  0
 17  9  1  0  0  0  0
 19  2  1  0  0  0  0
 20 19  1  0  0  0  0
 20 21  1  0  0  0  0
 22 20  1  0  0  0  0
 23 28  2  0  0  0  0
 24 23  1  0  0  0  0
 24 27  1  0  0  0  0
 25 23  1  0  0  0  0
 26 22  1  0  0  0  0
 27 29  2  0  0  0  0
 28 30  1  0  0  0  0
 29 26  1  0  0  0  0
 30 26  2  0  0  0  0
M  END
>  <MODEL>
6

>  <REMARK>
 VINA RESULT:      -7.5      2.487      4.871
  Name = 
  9 active torsions:
  status: ('A' for Active; 'I' for Inactive)
    1  A    between atoms: C_3  and  N_11
    2  A    between atoms: C_3  and  C_19
    3  A    between atoms: C_4  and  C_8
    4  A    between atoms: C_7  and  C_30
    5  A    between atoms: C_8  and  C_12
    6  A    between atoms: C_8  and  C_13
    7  A    between atoms: C_10  and  C_25
    8  A    between atoms: N_11  and  C_25
    9  A    between atoms: C_13  and  C_30
                            x       y       z     vdW  Elec       q    Type
                         _______ _______ _______ _____ _____    ______ ____

>  <TORSDO>
F 9

$$$$
=
 OpenBabel11052412283D

 30 31  0  0  1  0  0  0  0  0999 V2000
  186.3170  178.5040  141.3440 C   0  0  0  0  0  0  0  0  0  0  0  0
  185.2000  178.3620  142.1290 C   0  0  2  0  0  3  0  0  0  0  0  0
  184.1210  178.8060  141.3970 C   0  0  0  0  0  3  0  0  0  0  0  0
  185.9840  179.0030  140.1400 N   0  0  0  0  0  0  0  0  0  0  0  0
  184.6470  179.1880  140.1720 C   0  0  0  0  0  3  0  0  0  0  0  0
  188.5890  179.3790  141.7770 C   0  0  0  0  0  1  0  0  0  0  0  0
  187.7110  178.1410  141.7450 C   0  0  2  0  0  3  0  0  0  0  0  0
  188.2800  177.1120  140.7820 C   0  0  0  0  0  2  0  0  0  0  0  0
  189.7930  177.2700  140.6460 C   0  0  2  0  0  3  0  0  0  0  0  0
  191.0290  175.6360  139.4680 O   0  0  0  0  0  0  0  0  0  0  0  0
  189.0020  179.2350  138.5570 O   0  0  0  0  0  0  0  0  0  0  0  0
  190.0050  177.1680  138.0630 N   0  0  0  0  0  2  0  0  0  0  0  0
  190.3060  176.6610  139.3740 C   0  0  0  0  0  0  0  0  0  0  0  0
  189.0190  178.6310  136.2680 C   0  0  0  0  0  1  0  0  0  0  0  0
  189.3250  178.3750  137.7000 C   0  0  0  0  0  0  0  0  0  0  0  0
  190.2270  175.6890  142.5340 O   0  0  0  0  0  1  0  0  0  0  0  0
  190.5840  176.8440  141.8530 C   0  0  0  0  0  0  0  0  0  0  0  0
  191.5890  177.5020  142.2370 O   0  0  0  0  0  0  0  0  0  0  0  0
  185.1540  177.8780  143.5410 C   0  0  0  0  0  2  0  0  0  0  0  0
  185.2820  178.9990  144.4580 N   0  0  0  0  0  0  0  0  0  0  0  0
  184.0450  179.7580  144.3780 C   0  0  0  0  0  1  0  0  0  0  0  0
  185.3360  178.4400  145.7990 C   0  0  0  0  0  2  0  0  0  0  0  0
  189.6400  177.0380  146.4490 C   0  0  0  0  0  0  0  0  0  0  0  0
  188.9150  176.7380  147.7180 C   0  0  0  0  0  2  0  0  0  0  0  0
  191.4020  176.7530  146.3850 S   0  0  0  0  0  1  0  0  0  0  0  0
  186.7460  178.1370  146.1720 C   0  0  0  0  0  0  0  0  0  0  0  0
  188.1650  177.9250  148.2190 C   0  0  0  0  0  3  0  0  0  0  0  0
  189.0050  177.3890  145.3310 C   0  0  0  0  0  3  0  0  0  0  0  0
  187.1810  178.5080  147.5330 C   0  0  0  0  0  3  0  0  0  0  0  0
  187.5640  177.6840  145.2100 C   0  0  0  0  0  3  0  0  0  0  0  0
  1  7  1  0  0  0  0
  1  2  1  0  0  0  0
  2 19  1  1  0  0  0
  3  2  1  0  0  0  0
  4  5  1  0  0  0  0
  4  1  2  0  0  0  0
  5  3  2  0  0  0  0
  7  6  1  6  0  0  0
  8  7  1  0  0  0  0
  9  8  1  1  0  0  0
  9 17  1  0  0  0  0
 12 13  1  0  0  0  0
 13 10  2  0  0  0  0
 13  9  1  0  0  0  0
 14 15  1  0  0  0  0
 15 12  1  0  0  0  0
 15 11  2  0  0  0  0
 17 18  2  0  0  0  0
 17 16  1  0  0  0  0
 19 20  1  0  0  0  0
 20 22  1  0  0  0  0
 21 20  1  0  0  0  0
 22 26  1  0  0  0  0
 23 24  1  0  0  0  0
 24 27  1  0  0  0  0
 25 23  1  0  0  0  0
 26 29  1  0  0  0  0
 28 23  2  0  0  0  0
 29 27  2  0  0  0  0
 30 28  1  0  0  0  0
 30 26  2  0  0  0  0
M  END
>  <MODEL>
7

>  <REMARK>
 VINA RESULT:      -7.5      2.677      4.953
  Name = 
  9 active torsions:
  status: ('A' for Active; 'I' for Inactive)
    1  A    between atoms: C_3  and  N_11
    2  A    between atoms: C_3  and  C_19
    3  A    between atoms: C_4  and  C_8
    4  A    between atoms: C_7  and  C_30
    5  A    between atoms: C_8  and  C_12
    6  A    between atoms: C_8  and  C_13
    7  A    between atoms: C_10  and  C_25
    8  A    between atoms: N_11  and  C_25
    9  A    between atoms: C_13  and  C_30
                            x       y       z     vdW  Elec       q    Type
                         _______ _______ _______ _____ _____    ______ ____

>  <TORSDO>
F 9

$$$$
=
 OpenBabel11052412283D

 30 31  0  0  1  0  0  0  0  0999 V2000
  186.4730  177.9580  142.8450 C   0  0  0  0  0  0  0  0  0  0  0  0
  186.9070  178.5940  141.7080 C   0  0  0  0  0  0  0  0  0  0  0  0
  185.7930  179.0030  141.0100 C   0  0  0  0  0  3  0  0  0  0  0  0
  185.1290  177.9670  142.9020 N   0  0  0  0  0  2  0  0  0  0  0  0
  184.7150  178.6020  141.7850 C   0  0  0  0  0  3  0  0  0  0  0  0
  187.9340  176.0430  143.4020 C   0  0  0  0  0  1  0  0  0  0  0  0
  187.3530  177.3570  143.8920 C   0  0  2  0  0  3  0  0  0  0  0  0
  186.5650  177.1410  145.1750 C   0  0  0  0  0  2  0  0  0  0  0  0
  186.9800  178.1470  146.2460 C   0  0  2  0  0  3  0  0  0  0  0  0
  187.1920  177.2270  148.4130 O   0  0  0  0  0  0  0  0  0  0  0  0
  189.7700  178.2560  145.2210 O   0  0  0  0  0  0  0  0  0  0  0  0
  189.1760  177.1650  147.2170 N   0  0  0  0  0  2  0  0  0  0  0  0
  187.7830  177.5020  147.3370 C   0  0  0  0  0  0  0  0  0  0  0  0
  191.4640  176.9210  146.1990 C   0  0  0  0  0  1  0  0  0  0  0  0
  190.0900  177.4880  146.1630 C   0  0  0  0  0  0  0  0  0  0  0  0
  184.5440  178.6310  146.5440 O   0  0  0  0  0  0  0  0  0  0  0  0
  185.8620  179.0020  146.7770 C   0  0  0  0  0  0  0  0  0  0  0  0
  186.1010  180.0340  147.4610 O   0  0  0  0  0  1  0  0  0  0  0  0
  188.3230  178.7600  141.2620 C   0  0  0  0  0  2  0  0  0  0  0  0
  188.5980  177.8860  140.1330 N   0  0  0  0  0  0  0  0  0  0  0  0
  188.9360  178.7390  139.0060 C   0  0  0  0  0  1  0  0  0  0  0  0
  189.8030  177.1420  140.4630 C   0  0  0  0  0  2  0  0  0  0  0  0
  192.1840  176.0010  136.7300 C   0  0  0  0  0  0  0  0  0  0  0  0
  190.8240  176.3800  136.2480 C   0  0  0  0  0  2  0  0  0  0  0  0
  193.3580  175.3550  135.5490 S   0  0  0  0  0  1  0  0  0  0  0  0
  190.4300  176.6070  139.2220 C   0  0  0  0  0  0  0  0  0  0  0  0
  189.7540  175.6690  137.0060 C   0  0  0  0  0  3  0  0  0  0  0  0
  192.5940  176.2450  137.9740 C   0  0  0  0  0  3  0  0  0  0  0  0
  189.5730  175.8130  138.3190 C   0  0  0  0  0  3  0  0  0  0  0  0
  191.7550  176.7550  139.0770 C   0  0  0  0  0  3  0  0  0  0  0  0
  1  4  1  0  0  0  0
  1  7  1  0  0  0  0
  2  1  2  0  0  0  0
  3  2  1  0  0  0  0
  3  5  2  0  0  0  0
  5  4  1  0  0  0  0
  7  6  1  6  0  0  0
  7  8  1  0  0  0  0
  9  8  1  6  0  0  0
  9 17  1  0  0  0  0
  9 13  1  0  0  0  0
 11 15  2  0  0  0  0
 12 13  1  0  0  0  0
 13 10  2  0  0  0  0
 15 14  1  0  0  0  0
 15 12  1  0  0  0  0
 16 17  2  0  0  0  0
 17 18  1  0  0  0  0
 19  2  1  0  0  0  0
 20 22  1  0  0  0  0
 20 19  1  0  0  0  0
 21 20  1  0  0  0  0
 23 28  2  0  0  0  0
 24 23  1  0  0  0  0
 24 27  1  0  0  0  0
 25 23  1  0  0  0  0
 26 22  1  0  0  0  0
 27 29  2  0  0  0  0
 28 30  1  0  0  0  0
 29 26  1  0  0  0  0
 30 26  2  0  0  0  0
M  END
>  <MODEL>
8

>  <REMARK>
 VINA RESULT:      -7.5      3.603      7.927
  Name = 
  9 active torsions:
  status: ('A' for Active; 'I' for Inactive)
    1  A    between atoms: C_3  and  N_11
    2  A    between atoms: C_3  and  C_19
    3  A    between atoms: C_4  and  C_8
    4  A    between atoms: C_7  and  C_30
    5  A    between atoms: C_8  and  C_12
    6  A    between atoms: C_8  and  C_13
    7  A    between atoms: C_10  and  C_25
    8  A    between atoms: N_11  and  C_25
    9  A    between atoms: C_13  and  C_30
                            x       y       z     vdW  Elec       q    Type
                         _______ _______ _______ _____ _____    ______ ____

>  <TORSDO>
F 9

$$$$
=
 OpenBabel11052412283D

 30 31  0  0  1  0  0  0  0  0999 V2000
  186.7420  177.8570  143.7520 C   0  0  0  0  0  0  0  0  0  0  0  0
  185.7500  178.7680  143.4860 C   0  0  0  0  0  0  0  0  0  0  0  0
  185.0590  178.9810  144.6580 C   0  0  0  0  0  3  0  0  0  0  0  0
  186.7170  177.5010  145.0490 N   0  0  0  0  0  2  0  0  0  0  0  0
  185.6910  178.1840  145.6010 C   0  0  0  0  0  3  0  0  0  0  0  0
  188.2890  176.0030  143.2170 C   0  0  0  0  0  1  0  0  0  0  0  0
  187.7330  177.3400  142.7600 C   0  0  2  0  0  3  0  0  0  0  0  0
  188.8580  178.3450  142.5730 C   0  0  0  0  0  2  0  0  0  0  0  0
  190.2070  177.7280  142.9370 C   0  0  2  0  0  3  0  0  0  0  0  0
  190.9450  179.7210  143.9710 O   0  0  0  0  0  0  0  0  0  0  0  0
  191.3480  175.5620  144.6260 O   0  0  0  0  0  0  0  0  0  0  0  0
  191.4190  177.8330  145.2280 N   0  0  0  0  0  2  0  0  0  0  0  0
  190.8750  178.4680  144.0580 C   0  0  0  0  0  0  0  0  0  0  0  0
  192.0570  176.0090  146.8400 C   0  0  0  0  0  1  0  0  0  0  0  0
  191.5790  176.4350  145.4990 C   0  0  0  0  0  0  0  0  0  0  0  0
  190.6280  177.5580  140.4770 O   0  0  0  0  0  0  0  0  0  0  0  0
  191.1270  177.4870  141.7710 C   0  0  0  0  0  0  0  0  0  0  0  0
  192.3540  177.2550  141.9480 O   0  0  0  0  0  1  0  0  0  0  0  0
  185.4250  179.3760  142.1610 C   0  0  0  0  0  2  0  0  0  0  0  0
  184.9360  178.3550  141.2490 N   0  0  0  0  0  0  0  0  0  0  0  0
  183.5880  178.0150  141.6730 C   0  0  0  0  0  1  0  0  0  0  0  0
  184.8120  178.9830  139.9440 C   0  0  0  0  0  2  0  0  0  0  0  0
  187.9350  177.2690  137.0770 C   0  0  0  0  0  0  0  0  0  0  0  0
  186.8210  177.7670  136.2200 C   0  0  0  0  0  2  0  0  0  0  0  0
  189.2850  176.3940  136.3000 S   0  0  0  0  0  1  0  0  0  0  0  0
  185.6720  178.2780  138.9520 C   0  0  0  0  0  0  0  0  0  0  0  0
  185.4990  177.2530  136.6790 C   0  0  0  0  0  3  0  0  0  0  0  0
  188.0220  177.5610  138.3750 C   0  0  0  0  0  3  0  0  0  0  0  0
  184.9910  177.5230  137.8820 C   0  0  0  0  0  3  0  0  0  0  0  0
  186.9940  178.2550  139.1760 C   0  0  0  0  0  3  0  0  0  0  0  0
  1  4  1  0  0  0  0
  2  1  2  0  0  0  0
  2  3  1  0  0  0  0
  3  5  2  0  0  0  0
  4  5  1  0  0  0  0
  7  6  1  1  0  0  0
  7  1  1  0  0  0  0
  8  7  1  0  0  0  0
  9  8  1  6  0  0  0
  9 13  1  0  0  0  0
 10 13  2  0  0  0  0
 11 15  2  0  0  0  0
 12 15  1  0  0  0  0
 13 12  1  0  0  0  0
 15 14  1  0  0  0  0
 16 17  2  0  0  0  0
 17 18  1  0  0  0  0
 17  9  1  0  0  0  0
 19  2  1  0  0  0  0
 20 21  1  0  0  0  0
 20 19  1  0  0  0  0
 22 20  1  0  0  0  0
 23 28  2  0  0  0  0
 24 27  1  0  0  0  0
 24 23  1  0  0  0  0
 25 23  1  0  0  0  0
 26 30  2  0  0  0  0
 26 22  1  0  0  0  0
 27 29  2  0  0  0  0
 28 30  1  0  0  0  0
 29 26  1  0  0  0  0
M  END
>  <MODEL>
9

>  <REMARK>
 VINA RESULT:      -7.4      3.033      6.070
  Name = 
  9 active torsions:
  status: ('A' for Active; 'I' for Inactive)
    1  A    between atoms: C_3  and  N_11
    2  A    between atoms: C_3  and  C_19
    3  A    between atoms: C_4  and  C_8
    4  A    between atoms: C_7  and  C_30
    5  A    between atoms: C_8  and  C_12
    6  A    between atoms: C_8  and  C_13
    7  A    between atoms: C_10  and  C_25
    8  A    between atoms: N_11  and  C_25
    9  A    between atoms: C_13  and  C_30
                            x       y       z     vdW  Elec       q    Type
                         _______ _______ _______ _____ _____    ______ ____

>  <TORSDO>
F 9

$$$$
