=
 OpenBabel11052417043D

 32 33  0  0  1  0  0  0  0  0999 V2000
  186.4110  177.5990  143.8290 C   0  0  2  0  0  3  0  0  0  0  0  0
  186.7430  178.2570  145.1820 C   0  0  1  0  0  3  0  0  0  0  0  0
  185.7520  179.1610  145.6290 O   0  0  0  0  0  0  0  0  0  0  0  0
  184.8230  178.4670  146.4200 C   0  0  0  0  0  1  0  0  0  0  0  0
  187.1490  177.2570  146.2660 C   0  0  0  0  0  2  0  0  0  0  0  0
  188.3710  177.7720  147.0030 C   0  0  0  0  0  2  0  0  0  0  0  0
  189.5130  178.0030  146.0310 C   0  0  0  0  0  2  0  0  0  0  0  0
  190.3500  176.7460  145.8920 C   0  0  0  0  0  2  0  0  0  0  0  0
  191.3130  176.6500  147.0560 C   0  0  0  0  0  1  0  0  0  0  0  0
  187.6430  176.9660  143.1620 C   0  0  0  0  0  2  0  0  0  0  0  0
  188.3480  177.9050  142.1740 C   0  0  1  0  0  3  0  0  0  0  0  0
  190.5900  177.4420  142.2050 C   0  0  0  0  0  1  0  0  0  0  0  0
  189.6040  178.3370  142.6520 O   0  0  0  0  0  0  0  0  0  0  0  0
  188.4430  177.3380  140.8940 O   0  0  0  0  0  0  0  0  0  0  0  0
  187.9000  178.2260  140.0860 O   0  0  0  0  0  0  0  0  0  0  0  0
  189.3720  178.1970  138.2050 C   0  0  0  0  0  3  0  0  0  0  0  0
  187.0400  178.2620  137.8990 C   0  0  0  0  0  0  0  0  0  0  0  0
  187.5840  179.1010  136.9040 N   0  0  0  0  0  0  0  0  0  0  0  0
  189.0130  179.2130  137.1140 C   0  0  0  0  0  3  0  0  0  0  0  0
  185.7640  177.9090  137.9080 C   0  0  0  0  0  1  0  0  0  0  0  0
  188.0600  177.6920  138.8030 C   0  0  2  0  0  3  0  0  0  0  0  0
  185.7220  178.5910  142.8990 C   0  0  0  0  0  2  0  0  0  0  0  0
  184.2510  178.2450  142.7450 C   0  0  0  0  0  2  0  0  0  0  0  0
  183.9120  178.0180  141.2810 C   0  0  0  0  0  2  0  0  0  0  0  0
  182.5010  178.4930  140.9560 C   0  0  2  0  0  3  0  0  0  0  0  0
  181.7950  178.9080  142.2400 C   0  0  0  0  0  1  0  0  0  0  0  0
  181.7310  177.4380  140.1440 C   0  0  1  0  0  3  0  0  0  0  0  0
  181.3170  177.9870  138.4560 S   0  0  0  0  0  0  0  0  0  0  0  0
  182.4180  176.5510  138.2290 C   0  0  1  0  0  3  0  0  0  0  0  0
  182.6200  176.2910  139.7080 C   0  0  0  0  0  2  0  0  0  0  0  0
  181.6540  175.3950  137.6090 C   0  0  0  0  0  2  0  0  0  0  0  0
  182.5940  174.7040  136.2150 S   0  0  0  0  0  1  0  0  0  0  0  0
  1 22  1  6  0  0  0
  1  2  1  0  0  0  0
  2  3  1  0  0  0  0
  2  5  1  1  0  0  0
  3  4  1  0  0  0  0
  5  6  1  0  0  0  0
  7  6  1  0  0  0  0
  8  7  1  0  0  0  0
  8  9  1  0  0  0  0
 10  1  1  0  0  0  0
 11 13  1  0  0  0  0
 11 10  1  1  0  0  0
 12 13  1  0  0  0  0
 14 11  1  0  0  0  0
 15 14  1  0  0  0  0
 16 21  1  0  0  0  0
 17 20  1  0  0  0  0
 17 21  1  0  0  0  0
 18 19  1  0  0  0  0
 18 17  2  0  0  0  0
 19 16  2  0  0  0  0
 21 15  1  1  0  0  0
 23 22  1  0  0  0  0
 24 23  1  0  0  0  0
 25 24  1  0  0  0  0
 25 26  1  1  0  0  0
 27 25  1  1  0  0  0
 28 27  1  0  0  0  0
 29 31  1  1  0  0  0
 29 28  1  0  0  0  0
 29 30  1  0  0  0  0
 30 27  1  0  0  0  0
 32 31  1  0  0  0  0
M  END
>  <MODEL>
1

>  <REMARK>
 VINA RESULT:      -6.1      0.000      0.000
  Name = 
  18 active torsions:
  status: ('A' for Active; 'I' for Inactive)
    1  A    between atoms: C_1  and  C_20
    2  A    between atoms: C_2  and  C_9
    3  A    between atoms: C_2  and  C_23
    4  A    between atoms: O_3  and  C_14
    5  A    between atoms: C_4  and  C_5
    6  A    between atoms: C_4  and  C_15
    7  A    between atoms: C_8  and  C_23
    8  A    between atoms: C_8  and  C_28
    9  A    between atoms: C_9  and  C_10
   10  A    between atoms: C_13  and  C_28
   11  A    between atoms: C_13  and  C_31
   12  A    between atoms: C_14  and  C_26
   13  A    between atoms: C_14  and  C_28
   14  A    between atoms: C_15  and  C_26
   15  A    between atoms: O_16  and  O_27
   16  A    between atoms: O_16  and  C_31
   17  A    between atoms: O_27  and  C_32
   18  A    between atoms: O_29  and  C_31
                            x       y       z     vdW  Elec       q    Type
                         _______ _______ _______ _____ _____    ______ ____

>  <TORSDO>
F 18

$$$$
=
 OpenBabel11052417043D

 32 33  0  0  1  0  0  0  0  0999 V2000
  189.4280  176.6500  142.8430 C   0  0  2  0  0  3  0  0  0  0  0  0
  190.4580  176.6680  143.9890 C   0  0  1  0  0  3  0  0  0  0  0  0
  191.7450  176.2330  143.5990 O   0  0  0  0  0  0  0  0  0  0  0  0
  191.9990  174.9780  144.1730 C   0  0  0  0  0  1  0  0  0  0  0  0
  190.4980  177.9910  144.7570 C   0  0  0  0  0  2  0  0  0  0  0  0
  190.5780  177.7140  146.2460 C   0  0  0  0  0  2  0  0  0  0  0  0
  189.5370  176.6850  146.6460 C   0  0  0  0  0  2  0  0  0  0  0  0
  188.3940  177.3510  147.3880 C   0  0  0  0  0  2  0  0  0  0  0  0
  188.9530  178.2770  148.4470 C   0  0  0  0  0  1  0  0  0  0  0  0
  189.4900  177.9160  141.9730 C   0  0  0  0  0  2  0  0  0  0  0  0
  189.2770  177.6380  140.4790 C   0  0  1  0  0  3  0  0  0  0  0  0
  187.1860  178.2770  139.8010 C   0  0  0  0  0  1  0  0  0  0  0  0
  188.5370  178.6590  139.8450 O   0  0  0  0  0  0  0  0  0  0  0  0
  190.4890  177.3840  139.8190 O   0  0  0  0  0  0  0  0  0  0  0  0
  190.2170  177.5300  138.5370 O   0  0  0  0  0  0  0  0  0  0  0  0
  191.6880  175.7850  137.8320 C   0  0  0  0  0  3  0  0  0  0  0  0
  189.7180  176.2490  136.6320 C   0  0  0  0  0  0  0  0  0  0  0  0
  190.6990  175.9500  135.6640 N   0  0  0  0  0  0  0  0  0  0  0  0
  191.9770  175.7810  136.3260 C   0  0  0  0  0  3  0  0  0  0  0  0
  188.4350  176.3720  136.3260 C   0  0  0  0  0  1  0  0  0  0  0  0
  190.2380  176.2330  138.0150 C   0  0  2  0  0  3  0  0  0  0  0  0
  188.0220  176.4140  143.3820 C   0  0  0  0  0  2  0  0  0  0  0  0
  187.3210  177.7360  143.6420 C   0  0  0  0  0  2  0  0  0  0  0  0
  186.0500  177.5120  144.4470 C   0  0  0  0  0  2  0  0  0  0  0  0
  185.5690  178.8030  145.0980 C   0  0  2  0  0  3  0  0  0  0  0  0
  185.1440  178.5220  146.5330 C   0  0  0  0  0  1  0  0  0  0  0  0
  184.4740  179.4780  144.2540 C   0  0  1  0  0  3  0  0  0  0  0  0
  184.1650  178.6360  142.6670 S   0  0  0  0  0  0  0  0  0  0  0  0
  182.5960  178.5010  143.5860 C   0  0  1  0  0  3  0  0  0  0  0  0
  183.0880  179.2370  144.8160 C   0  0  0  0  0  2  0  0  0  0  0  0
  181.5150  179.3190  142.9030 C   0  0  0  0  0  2  0  0  0  0  0  0
  179.9610  178.3780  142.8510 S   0  0  0  0  0  1  0  0  0  0  0  0
  1 10  1  1  0  0  0
  1 22  1  0  0  0  0
  1  2  1  0  0  0  0
  2  5  1  6  0  0  0
  3  2  1  0  0  0  0
  3  4  1  0  0  0  0
  5  6  1  0  0  0  0
  6  7  1  0  0  0  0
  7  8  1  0  0  0  0
  8  9  1  0  0  0  0
 11 10  1  1  0  0  0
 12 13  1  0  0  0  0
 13 11  1  0  0  0  0
 14 11  1  0  0  0  0
 15 14  1  0  0  0  0
 16 21  1  0  0  0  0
 17 21  1  0  0  0  0
 18 19  1  0  0  0  0
 18 17  2  0  0  0  0
 19 16  2  0  0  0  0
 20 17  1  0  0  0  0
 21 15  1  6  0  0  0
 22 23  1  0  0  0  0
 23 24  1  0  0  0  0
 24 25  1  0  0  0  0
 25 26  1  1  0  0  0
 27 30  1  0  0  0  0
 27 25  1  1  0  0  0
 28 29  1  0  0  0  0
 28 27  1  0  0  0  0
 29 31  1  6  0  0  0
 29 30  1  0  0  0  0
 32 31  1  0  0  0  0
M  END
>  <MODEL>
2

>  <REMARK>
 VINA RESULT:      -6.0      3.152      4.482
  Name = 
  18 active torsions:
  status: ('A' for Active; 'I' for Inactive)
    1  A    between atoms: C_1  and  C_20
    2  A    between atoms: C_2  and  C_9
    3  A    between atoms: C_2  and  C_23
    4  A    between atoms: O_3  and  C_14
    5  A    between atoms: C_4  and  C_5
    6  A    between atoms: C_4  and  C_15
    7  A    between atoms: C_8  and  C_23
    8  A    between atoms: C_8  and  C_28
    9  A    between atoms: C_9  and  C_10
   10  A    between atoms: C_13  and  C_28
   11  A    between atoms: C_13  and  C_31
   12  A    between atoms: C_14  and  C_26
   13  A    between atoms: C_14  and  C_28
   14  A    between atoms: C_15  and  C_26
   15  A    between atoms: O_16  and  O_27
   16  A    between atoms: O_16  and  C_31
   17  A    between atoms: O_27  and  C_32
   18  A    between atoms: O_29  and  C_31
                            x       y       z     vdW  Elec       q    Type
                         _______ _______ _______ _____ _____    ______ ____

>  <TORSDO>
F 18

$$$$
=
 OpenBabel11052417043D

 32 33  0  0  1  0  0  0  0  0999 V2000
  184.5760  178.6510  141.6110 C   0  0  2  0  0  3  0  0  0  0  0  0
  183.5770  179.0550  142.7130 C   0  0  1  0  0  3  0  0  0  0  0  0
  182.2350  178.7350  142.4040 O   0  0  0  0  0  0  0  0  0  0  0  0
  181.4060  179.1830  143.4450 C   0  0  0  0  0  1  0  0  0  0  0  0
  183.9820  178.5800  144.1100 C   0  0  0  0  0  2  0  0  0  0  0  0
  184.7100  179.6960  144.8360 C   0  0  0  0  0  2  0  0  0  0  0  0
  185.4970  179.1360  146.0070 C   0  0  0  0  0  2  0  0  0  0  0  0
  186.0670  177.7750  145.6560 C   0  0  0  0  0  2  0  0  0  0  0  0
  187.3760  177.5730  146.3890 C   0  0  0  0  0  1  0  0  0  0  0  0
  183.9200  177.8230  140.4940 C   0  0  0  0  0  2  0  0  0  0  0  0
  184.0460  178.4680  139.1070 C   0  0  1  0  0  3  0  0  0  0  0  0
  183.1590  180.5660  138.8710 C   0  0  0  0  0  1  0  0  0  0  0  0
  184.3260  179.8500  139.1840 O   0  0  0  0  0  0  0  0  0  0  0  0
  184.9720  177.7910  138.3000 O   0  0  0  0  0  0  0  0  0  0  0  0
  186.0060  178.6040  138.2120 O   0  0  0  0  0  0  0  0  0  0  0  0
  186.1380  176.9210  136.5220 C   0  0  0  0  0  3  0  0  0  0  0  0
  188.0520  178.1320  137.1570 C   0  0  0  0  0  0  0  0  0  0  0  0
  188.4860  176.8070  136.9440 N   0  0  0  0  0  0  0  0  0  0  0  0
  187.3330  175.9720  136.6760 C   0  0  0  0  0  3  0  0  0  0  0  0
  188.8990  179.1340  137.3400 C   0  0  0  0  0  1  0  0  0  0  0  0
  186.5960  178.3050  136.9790 C   0  0  2  0  0  3  0  0  0  0  0  0
  185.7780  177.9290  142.2080 C   0  0  0  0  0  2  0  0  0  0  0  0
  187.0720  178.4910  141.6450 C   0  0  0  0  0  2  0  0  0  0  0  0
  188.2330  178.1790  142.5760 C   0  0  0  0  0  2  0  0  0  0  0  0
  189.5330  177.9950  141.8020 C   0  0  2  0  0  3  0  0  0  0  0  0
  189.2470  177.2820  140.4870 C   0  0  0  0  0  1  0  0  0  0  0  0
  190.5990  177.2950  142.6620 C   0  0  1  0  0  3  0  0  0  0  0  0
  191.5720  178.4480  143.6840 S   0  0  0  0  0  0  0  0  0  0  0  0
  190.7040  177.3770  144.8780 C   0  0  1  0  0  3  0  0  0  0  0  0
  189.9900  176.5470  143.8310 C   0  0  0  0  0  2  0  0  0  0  0  0
  191.6990  176.5070  145.6240 C   0  0  0  0  0  2  0  0  0  0  0  0
  191.3300  176.5240  147.4030 S   0  0  0  0  0  1  0  0  0  0  0  0
  1 10  1  6  0  0  0
  1 22  1  0  0  0  0
  1  2  1  0  0  0  0
  2  5  1  1  0  0  0
  3  2  1  0  0  0  0
  3  4  1  0  0  0  0
  5  6  1  0  0  0  0
  6  7  1  0  0  0  0
  8  7  1  0  0  0  0
  8  9  1  0  0  0  0
 11 13  1  0  0  0  0
 11 10  1  1  0  0  0
 12 13  1  0  0  0  0
 14 11  1  0  0  0  0
 15 14  1  0  0  0  0
 16 19  2  0  0  0  0
 16 21  1  0  0  0  0
 17 20  1  0  0  0  0
 18 17  2  0  0  0  0
 19 18  1  0  0  0  0
 21 17  1  0  0  0  0
 21 15  1  1  0  0  0
 23 22  1  0  0  0  0
 23 24  1  0  0  0  0
 25 26  1  6  0  0  0
 25 24  1  0  0  0  0
 27 25  1  1  0  0  0
 27 28  1  0  0  0  0
 27 30  1  0  0  0  0
 28 29  1  0  0  0  0
 29 31  1  6  0  0  0
 30 29  1  0  0  0  0
 31 32  1  0  0  0  0
M  END
>  <MODEL>
3

>  <REMARK>
 VINA RESULT:      -6.0      3.687      6.437
  Name = 
  18 active torsions:
  status: ('A' for Active; 'I' for Inactive)
    1  A    between atoms: C_1  and  C_20
    2  A    between atoms: C_2  and  C_9
    3  A    between atoms: C_2  and  C_23
    4  A    between atoms: O_3  and  C_14
    5  A    between atoms: C_4  and  C_5
    6  A    between atoms: C_4  and  C_15
    7  A    between atoms: C_8  and  C_23
    8  A    between atoms: C_8  and  C_28
    9  A    between atoms: C_9  and  C_10
   10  A    between atoms: C_13  and  C_28
   11  A    between atoms: C_13  and  C_31
   12  A    between atoms: C_14  and  C_26
   13  A    between atoms: C_14  and  C_28
   14  A    between atoms: C_15  and  C_26
   15  A    between atoms: O_16  and  O_27
   16  A    between atoms: O_16  and  C_31
   17  A    between atoms: O_27  and  C_32
   18  A    between atoms: O_29  and  C_31
                            x       y       z     vdW  Elec       q    Type
                         _______ _______ _______ _____ _____    ______ ____

>  <TORSDO>
F 18

$$$$
=
 OpenBabel11052417043D

 32 33  0  0  1  0  0  0  0  0999 V2000
  186.5960  177.5410  143.9510 C   0  0  2  0  0  3  0  0  0  0  0  0
  186.9510  178.2510  145.2720 C   0  0  1  0  0  3  0  0  0  0  0  0
  185.9070  179.0590  145.7770 O   0  0  0  0  0  0  0  0  0  0  0  0
  185.1320  178.3010  146.6690 C   0  0  0  0  0  1  0  0  0  0  0  0
  187.5270  177.3130  146.3350 C   0  0  0  0  0  2  0  0  0  0  0  0
  188.8910  177.8150  146.7710 C   0  0  0  0  0  2  0  0  0  0  0  0
  189.7520  176.6570  147.2390 C   0  0  0  0  0  2  0  0  0  0  0  0
  191.1670  176.8060  146.7140 C   0  0  0  0  0  2  0  0  0  0  0  0
  192.0460  175.7350  147.3240 C   0  0  0  0  0  1  0  0  0  0  0  0
  187.8310  176.9650  143.2390 C   0  0  0  0  0  2  0  0  0  0  0  0
  188.9040  178.0210  142.9370 C   0  0  1  0  0  3  0  0  0  0  0  0
  190.9370  178.7640  143.6840 C   0  0  0  0  0  1  0  0  0  0  0  0
  190.1860  177.6190  143.3700 O   0  0  0  0  0  0  0  0  0  0  0  0
  188.9030  178.3910  141.5830 O   0  0  0  0  0  0  0  0  0  0  0  0
  188.9870  177.2550  140.9180 O   0  0  0  0  0  0  0  0  0  0  0  0
  188.9000  176.9380  138.5520 C   0  0  0  0  0  3  0  0  0  0  0  0
  190.9610  176.9300  139.6860 C   0  0  0  0  0  0  0  0  0  0  0  0
  191.0590  175.9280  138.6980 N   0  0  0  0  0  0  0  0  0  0  0  0
  189.7750  175.7870  138.0430 C   0  0  0  0  0  3  0  0  0  0  0  0
  192.0070  177.3350  140.3900 C   0  0  0  0  0  1  0  0  0  0  0  0
  189.6370  177.5840  139.7250 C   0  0  2  0  0  3  0  0  0  0  0  0
  185.8060  178.4670  143.0340 C   0  0  0  0  0  2  0  0  0  0  0  0
  184.4660  177.8490  142.6770 C   0  0  0  0  0  2  0  0  0  0  0  0
  183.4470  178.9350  142.3680 C   0  0  0  0  0  2  0  0  0  0  0  0
  182.8320  178.7440  140.9870 C   0  0  2  0  0  3  0  0  0  0  0  0
  181.3880  178.2810  141.1330 C   0  0  0  0  0  1  0  0  0  0  0  0
  183.6920  177.8120  140.1170 C   0  0  1  0  0  3  0  0  0  0  0  0
  182.7100  176.7490  139.0100 S   0  0  0  0  0  0  0  0  0  0  0  0
  183.7080  177.7940  137.8980 C   0  0  1  0  0  3  0  0  0  0  0  0
  184.4020  178.5600  139.0070 C   0  0  0  0  0  2  0  0  0  0  0  0
  184.7240  176.9480  137.1520 C   0  0  0  0  0  2  0  0  0  0  0  0
  184.3030  176.8820  135.3860 S   0  0  0  0  0  1  0  0  0  0  0  0
  1 22  1  6  0  0  0
  1  2  1  0  0  0  0
  2  3  1  0  0  0  0
  2  5  1  1  0  0  0
  3  4  1  0  0  0  0
  5  6  1  0  0  0  0
  6  7  1  0  0  0  0
  8  7  1  0  0  0  0
  8  9  1  0  0  0  0
 10  1  1  0  0  0  0
 11 10  1  6  0  0  0
 11 13  1  0  0  0  0
 13 12  1  0  0  0  0
 14 11  1  0  0  0  0
 15 14  1  0  0  0  0
 16 21  1  0  0  0  0
 17 21  1  0  0  0  0
 17 20  1  0  0  0  0
 18 17  2  0  0  0  0
 19 16  2  0  0  0  0
 19 18  1  0  0  0  0
 21 15  1  1  0  0  0
 23 22  1  0  0  0  0
 24 23  1  0  0  0  0
 25 26  1  1  0  0  0
 25 24  1  0  0  0  0
 27 25  1  6  0  0  0
 28 27  1  0  0  0  0
 29 31  1  1  0  0  0
 29 30  1  0  0  0  0
 29 28  1  0  0  0  0
 30 27  1  0  0  0  0
 32 31  1  0  0  0  0
M  END
>  <MODEL>
4

>  <REMARK>
 VINA RESULT:      -6.0      1.688      2.321
  Name = 
  18 active torsions:
  status: ('A' for Active; 'I' for Inactive)
    1  A    between atoms: C_1  and  C_20
    2  A    between atoms: C_2  and  C_9
    3  A    between atoms: C_2  and  C_23
    4  A    between atoms: O_3  and  C_14
    5  A    between atoms: C_4  and  C_5
    6  A    between atoms: C_4  and  C_15
    7  A    between atoms: C_8  and  C_23
    8  A    between atoms: C_8  and  C_28
    9  A    between atoms: C_9  and  C_10
   10  A    between atoms: C_13  and  C_28
   11  A    between atoms: C_13  and  C_31
   12  A    between atoms: C_14  and  C_26
   13  A    between atoms: C_14  and  C_28
   14  A    between atoms: C_15  and  C_26
   15  A    between atoms: O_16  and  O_27
   16  A    between atoms: O_16  and  C_31
   17  A    between atoms: O_27  and  C_32
   18  A    between atoms: O_29  and  C_31
                            x       y       z     vdW  Elec       q    Type
                         _______ _______ _______ _____ _____    ______ ____

>  <TORSDO>
F 18

$$$$
=
 OpenBabel11052417043D

 32 33  0  0  1  0  0  0  0  0999 V2000
  188.9210  178.0540  141.3320 C   0  0  2  0  0  3  0  0  0  0  0  0
  189.7410  177.5790  140.1170 C   0  0  1  0  0  3  0  0  0  0  0  0
  190.7990  176.7040  140.4570 O   0  0  0  0  0  0  0  0  0  0  0  0
  191.9950  177.4360  140.5200 C   0  0  0  0  0  1  0  0  0  0  0  0
  188.8830  177.0370  138.9730 C   0  0  0  0  0  2  0  0  0  0  0  0
  189.4610  177.4880  137.6440 C   0  0  0  0  0  2  0  0  0  0  0  0
  188.9370  178.8650  137.2830 C   0  0  0  0  0  2  0  0  0  0  0  0
  187.5410  178.7610  136.7000 C   0  0  0  0  0  2  0  0  0  0  0  0
  187.5740  177.8840  135.4670 C   0  0  0  0  0  1  0  0  0  0  0  0
  188.8980  177.0210  142.4700 C   0  0  0  0  0  2  0  0  0  0  0  0
  189.8970  177.3330  143.5930 C   0  0  1  0  0  3  0  0  0  0  0  0
  191.6600  178.7250  144.0390 C   0  0  0  0  0  1  0  0  0  0  0  0
  190.3420  178.6730  143.5550 O   0  0  0  0  0  0  0  0  0  0  0  0
  189.3880  176.9880  144.8540 O   0  0  0  0  0  0  0  0  0  0  0  0
  188.5320  177.9450  145.1510 O   0  0  0  0  0  0  0  0  0  0  0  0
  186.1960  177.6800  145.5770 C   0  0  0  0  0  3  0  0  0  0  0  0
  187.7080  178.0090  147.3510 C   0  0  0  0  0  0  0  0  0  0  0  0
  186.5520  178.7440  147.6860 N   0  0  0  0  0  0  0  0  0  0  0  0
  185.6240  178.6940  146.5750 C   0  0  0  0  0  3  0  0  0  0  0  0
  188.6950  177.8090  148.2100 C   0  0  0  0  0  1  0  0  0  0  0  0
  187.6190  177.3530  146.0290 C   0  0  2  0  0  3  0  0  0  0  0  0
  187.5100  178.4500  140.9110 C   0  0  0  0  0  2  0  0  0  0  0  0
  186.5310  178.2270  142.0510 C   0  0  0  0  0  2  0  0  0  0  0  0
  185.6780  179.4660  142.2660 C   0  0  0  0  0  2  0  0  0  0  0  0
  184.1990  179.1700  142.0440 C   0  0  2  0  0  3  0  0  0  0  0  0
  183.6230  178.4990  143.2840 C   0  0  0  0  0  1  0  0  0  0  0  0
  183.9800  178.3670  140.7510 C   0  0  1  0  0  3  0  0  0  0  0  0
  182.2340  177.9360  140.4570 S   0  0  0  0  0  0  0  0  0  0  0  0
  182.6990  179.0060  139.0550 C   0  0  1  0  0  3  0  0  0  0  0  0
  184.1270  179.2260  139.5120 C   0  0  0  0  0  2  0  0  0  0  0  0
  182.6970  178.2090  137.7630 C   0  0  0  0  0  2  0  0  0  0  0  0
  181.3290  178.7550  136.6980 S   0  0  0  0  0  1  0  0  0  0  0  0
  1 22  1  6  0  0  0
  1 10  1  0  0  0  0
  2  5  1  6  0  0  0
  2  3  1  0  0  0  0
  2  1  1  0  0  0  0
  3  4  1  0  0  0  0
  6  5  1  0  0  0  0
  7  6  1  0  0  0  0
  8  7  1  0  0  0  0
  9  8  1  0  0  0  0
 11 10  1  6  0  0  0
 11 14  1  0  0  0  0
 13 11  1  0  0  0  0
 13 12  1  0  0  0  0
 14 15  1  0  0  0  0
 16 21  1  0  0  0  0
 16 19  2  0  0  0  0
 17 18  2  0  0  0  0
 17 20  1  0  0  0  0
 19 18  1  0  0  0  0
 21 15  1  6  0  0  0
 21 17  1  0  0  0  0
 22 23  1  0  0  0  0
 23 24  1  0  0  0  0
 25 24  1  0  0  0  0
 25 26  1  1  0  0  0
 27 25  1  1  0  0  0
 28 27  1  0  0  0  0
 29 31  1  6  0  0  0
 29 30  1  0  0  0  0
 29 28  1  0  0  0  0
 30 27  1  0  0  0  0
 32 31  1  0  0  0  0
M  END
>  <MODEL>
5

>  <REMARK>
 VINA RESULT:      -6.0      2.740      6.482
  Name = 
  18 active torsions:
  status: ('A' for Active; 'I' for Inactive)
    1  A    between atoms: C_1  and  C_20
    2  A    between atoms: C_2  and  C_9
    3  A    between atoms: C_2  and  C_23
    4  A    between atoms: O_3  and  C_14
    5  A    between atoms: C_4  and  C_5
    6  A    between atoms: C_4  and  C_15
    7  A    between atoms: C_8  and  C_23
    8  A    between atoms: C_8  and  C_28
    9  A    between atoms: C_9  and  C_10
   10  A    between atoms: C_13  and  C_28
   11  A    between atoms: C_13  and  C_31
   12  A    between atoms: C_14  and  C_26
   13  A    between atoms: C_14  and  C_28
   14  A    between atoms: C_15  and  C_26
   15  A    between atoms: O_16  and  O_27
   16  A    between atoms: O_16  and  C_31
   17  A    between atoms: O_27  and  C_32
   18  A    between atoms: O_29  and  C_31
                            x       y       z     vdW  Elec       q    Type
                         _______ _______ _______ _____ _____    ______ ____

>  <TORSDO>
F 18

$$$$
=
 OpenBabel11052417043D

 32 33  0  0  1  0  0  0  0  0999 V2000
  189.4020  176.9420  142.8860 C   0  0  2  0  0  3  0  0  0  0  0  0
  190.2950  177.3080  144.0880 C   0  0  1  0  0  3  0  0  0  0  0  0
  191.5230  177.9030  143.7190 O   0  0  0  0  0  0  0  0  0  0  0  0
  191.5350  179.2370  144.1540 C   0  0  0  0  0  1  0  0  0  0  0  0
  189.5660  178.1040  145.1720 C   0  0  0  0  0  2  0  0  0  0  0  0
  189.2110  177.1860  146.3270 C   0  0  0  0  0  2  0  0  0  0  0  0
  187.9370  177.6590  147.0030 C   0  0  0  0  0  2  0  0  0  0  0  0
  186.8930  178.0210  145.9640 C   0  0  0  0  0  2  0  0  0  0  0  0
  185.7950  178.8340  146.6170 C   0  0  0  0  0  1  0  0  0  0  0  0
  190.1910  176.2820  141.7440 C   0  0  0  0  0  2  0  0  0  0  0  0
  190.3460  177.1860  140.5130 C   0  0  1  0  0  3  0  0  0  0  0  0
  192.2220  176.9290  139.2260 C   0  0  0  0  0  1  0  0  0  0  0  0
  191.6790  177.6110  140.3270 O   0  0  0  0  0  0  0  0  0  0  0  0
  189.8240  176.5850  139.3570 O   0  0  0  0  0  0  0  0  0  0  0  0
  188.7770  177.3190  139.0340 O   0  0  0  0  0  0  0  0  0  0  0  0
  189.2640  175.6720  137.3740 C   0  0  0  0  0  3  0  0  0  0  0  0
  188.4000  177.7720  136.7590 C   0  0  0  0  0  0  0  0  0  0  0  0
  189.3520  177.4410  135.7720 N   0  0  0  0  0  0  0  0  0  0  0  0
  190.0210  176.2150  136.1570 C   0  0  0  0  0  3  0  0  0  0  0  0
  187.5760  178.8010  136.6330 C   0  0  0  0  0  1  0  0  0  0  0  0
  188.3060  176.7670  137.8390 C   0  0  2  0  0  3  0  0  0  0  0  0
  188.6260  178.1590  142.3970 C   0  0  0  0  0  2  0  0  0  0  0  0
  187.1380  177.8580  142.3480 C   0  0  0  0  0  2  0  0  0  0  0  0
  186.4420  178.7920  141.3700 C   0  0  0  0  0  2  0  0  0  0  0  0
  185.0450  179.1630  141.8520 C   0  0  2  0  0  3  0  0  0  0  0  0
  184.6520  178.2620  143.0150 C   0  0  0  0  0  1  0  0  0  0  0  0
  184.0330  179.1470  140.6930 C   0  0  1  0  0  3  0  0  0  0  0  0
  184.7280  178.4980  139.1380 S   0  0  0  0  0  0  0  0  0  0  0  0
  183.3960  177.3350  139.5820 C   0  0  1  0  0  3  0  0  0  0  0  0
  182.9960  178.0550  140.8540 C   0  0  0  0  0  2  0  0  0  0  0  0
  182.2650  177.4210  138.5720 C   0  0  0  0  0  2  0  0  0  0  0  0
  181.8020  175.7550  138.0120 S   0  0  0  0  0  1  0  0  0  0  0  0
  1 10  1  6  0  0  0
  1  2  1  0  0  0  0
  2  5  1  1  0  0  0
  3  2  1  0  0  0  0
  3  4  1  0  0  0  0
  5  6  1  0  0  0  0
  6  7  1  0  0  0  0
  8  9  1  0  0  0  0
  8  7  1  0  0  0  0
 11 10  1  1  0  0  0
 12 13  1  0  0  0  0
 13 11  1  0  0  0  0
 14 11  1  0  0  0  0
 15 14  1  0  0  0  0
 16 21  1  0  0  0  0
 17 21  1  0  0  0  0
 18 19  1  0  0  0  0
 18 17  2  0  0  0  0
 19 16  2  0  0  0  0
 20 17  1  0  0  0  0
 21 15  1  1  0  0  0
 22  1  1  0  0  0  0
 23 22  1  0  0  0  0
 24 25  1  0  0  0  0
 24 23  1  0  0  0  0
 25 26  1  1  0  0  0
 27 30  1  0  0  0  0
 27 25  1  1  0  0  0
 28 29  1  0  0  0  0
 28 27  1  0  0  0  0
 29 31  1  6  0  0  0
 29 30  1  0  0  0  0
 32 31  1  0  0  0  0
M  END
>  <MODEL>
6

>  <REMARK>
 VINA RESULT:      -5.9      1.913      3.253
  Name = 
  18 active torsions:
  status: ('A' for Active; 'I' for Inactive)
    1  A    between atoms: C_1  and  C_20
    2  A    between atoms: C_2  and  C_9
    3  A    between atoms: C_2  and  C_23
    4  A    between atoms: O_3  and  C_14
    5  A    between atoms: C_4  and  C_5
    6  A    between atoms: C_4  and  C_15
    7  A    between atoms: C_8  and  C_23
    8  A    between atoms: C_8  and  C_28
    9  A    between atoms: C_9  and  C_10
   10  A    between atoms: C_13  and  C_28
   11  A    between atoms: C_13  and  C_31
   12  A    between atoms: C_14  and  C_26
   13  A    between atoms: C_14  and  C_28
   14  A    between atoms: C_15  and  C_26
   15  A    between atoms: O_16  and  O_27
   16  A    between atoms: O_16  and  C_31
   17  A    between atoms: O_27  and  C_32
   18  A    between atoms: O_29  and  C_31
                            x       y       z     vdW  Elec       q    Type
                         _______ _______ _______ _____ _____    ______ ____

>  <TORSDO>
F 18

$$$$
=
 OpenBabel11052417043D

 32 33  0  0  1  0  0  0  0  0999 V2000
  185.0670  178.3710  142.9730 C   0  0  2  0  0  3  0  0  0  0  0  0
  185.8180  178.3570  144.3190 C   0  0  1  0  0  3  0  0  0  0  0  0
  184.9680  178.4920  145.4410 O   0  0  0  0  0  0  0  0  0  0  0  0
  185.7480  178.7650  146.5750 C   0  0  0  0  0  1  0  0  0  0  0  0
  186.7920  177.1860  144.4640 C   0  0  0  0  0  2  0  0  0  0  0  0
  188.1970  177.6470  144.1250 C   0  0  0  0  0  2  0  0  0  0  0  0
  189.0950  177.5370  145.3420 C   0  0  0  0  0  2  0  0  0  0  0  0
  190.5510  177.6630  144.9370 C   0  0  0  0  0  2  0  0  0  0  0  0
  190.7440  178.9340  144.1390 C   0  0  0  0  0  1  0  0  0  0  0  0
  185.6600  179.3800  141.9760 C   0  0  0  0  0  2  0  0  0  0  0  0
  186.1900  178.7260  140.6930 C   0  0  1  0  0  3  0  0  0  0  0  0
  184.8820  178.1840  138.8940 C   0  0  0  0  0  1  0  0  0  0  0  0
  185.5610  179.2330  139.5350 O   0  0  0  0  0  0  0  0  0  0  0  0
  187.5880  178.8080  140.6060 O   0  0  0  0  0  0  0  0  0  0  0  0
  187.9460  177.7810  139.8610 O   0  0  0  0  0  0  0  0  0  0  0  0
  189.5170  177.9480  138.0700 C   0  0  0  0  0  3  0  0  0  0  0  0
  190.0890  176.8400  140.0650 C   0  0  0  0  0  0  0  0  0  0  0  0
  190.6670  176.0840  139.0240 N   0  0  0  0  0  0  0  0  0  0  0  0
  190.2460  176.6370  137.7530 C   0  0  0  0  0  3  0  0  0  0  0  0
  190.3670  176.6170  141.3410 C   0  0  0  0  0  1  0  0  0  0  0  0
  189.3000  177.9910  139.5820 C   0  0  2  0  0  3  0  0  0  0  0  0
  183.5770  178.6090  143.1870 C   0  0  0  0  0  2  0  0  0  0  0  0
  182.8480  178.6610  141.8550 C   0  0  0  0  0  2  0  0  0  0  0  0
  181.3540  178.8390  142.0750 C   0  0  0  0  0  2  0  0  0  0  0  0
  180.5440  178.1130  141.0080 C   0  0  2  0  0  3  0  0  0  0  0  0
  181.4630  177.2090  140.1970 C   0  0  0  0  0  1  0  0  0  0  0  0
  179.7410  179.1040  140.1490 C   0  0  1  0  0  3  0  0  0  0  0  0
  179.6310  180.7690  140.8820 S   0  0  0  0  0  0  0  0  0  0  0  0
  180.5340  181.0010  139.3150 C   0  0  1  0  0  3  0  0  0  0  0  0
  180.5030  179.5400  138.9150 C   0  0  0  0  0  2  0  0  0  0  0  0
  179.6970  181.8120  138.3410 C   0  0  0  0  0  2  0  0  0  0  0  0
  180.7460  183.0080  137.4640 S   0  0  0  0  0  1  0  0  0  0  0  0
  1 10  1  6  0  0  0
  1 22  1  0  0  0  0
  1  2  1  0  0  0  0
  2  5  1  1  0  0  0
  2  3  1  0  0  0  0
  3  4  1  0  0  0  0
  6  5  1  0  0  0  0
  6  7  1  0  0  0  0
  8  7  1  0  0  0  0
  9  8  1  0  0  0  0
 11 10  1  1  0  0  0
 12 13  1  0  0  0  0
 13 11  1  0  0  0  0
 14 11  1  0  0  0  0
 15 14  1  0  0  0  0
 16 21  1  0  0  0  0
 17 20  1  0  0  0  0
 18 17  2  0  0  0  0
 19 16  2  0  0  0  0
 19 18  1  0  0  0  0
 21 15  1  6  0  0  0
 21 17  1  0  0  0  0
 23 24  1  0  0  0  0
 23 22  1  0  0  0  0
 25 26  1  6  0  0  0
 25 24  1  0  0  0  0
 27 28  1  0  0  0  0
 27 25  1  1  0  0  0
 29 31  1  6  0  0  0
 29 28  1  0  0  0  0
 30 29  1  0  0  0  0
 30 27  1  0  0  0  0
 32 31  1  0  0  0  0
M  END
>  <MODEL>
7

>  <REMARK>
 VINA RESULT:      -5.8      2.363      3.633
  Name = 
  18 active torsions:
  status: ('A' for Active; 'I' for Inactive)
    1  A    between atoms: C_1  and  C_20
    2  A    between atoms: C_2  and  C_9
    3  A    between atoms: C_2  and  C_23
    4  A    between atoms: O_3  and  C_14
    5  A    between atoms: C_4  and  C_5
    6  A    between atoms: C_4  and  C_15
    7  A    between atoms: C_8  and  C_23
    8  A    between atoms: C_8  and  C_28
    9  A    between atoms: C_9  and  C_10
   10  A    between atoms: C_13  and  C_28
   11  A    between atoms: C_13  and  C_31
   12  A    between atoms: C_14  and  C_26
   13  A    between atoms: C_14  and  C_28
   14  A    between atoms: C_15  and  C_26
   15  A    between atoms: O_16  and  O_27
   16  A    between atoms: O_16  and  C_31
   17  A    between atoms: O_27  and  C_32
   18  A    between atoms: O_29  and  C_31
                            x       y       z     vdW  Elec       q    Type
                         _______ _______ _______ _____ _____    ______ ____

>  <TORSDO>
F 18

$$$$
=
 OpenBabel11052417043D

 32 33  0  0  1  0  0  0  0  0999 V2000
  187.1030  177.4760  142.9840 C   0  0  2  0  0  3  0  0  0  0  0  0
  188.3320  176.8140  143.6380 C   0  0  1  0  0  3  0  0  0  0  0  0
  188.7370  175.6200  142.9980 O   0  0  0  0  0  0  0  0  0  0  0  0
  190.1330  175.6310  142.8510 C   0  0  0  0  0  1  0  0  0  0  0  0
  189.4980  177.7770  143.8650 C   0  0  0  0  0  2  0  0  0  0  0  0
  189.5030  178.2390  145.3100 C   0  0  0  0  0  2  0  0  0  0  0  0
  189.0920  177.1020  146.2270 C   0  0  0  0  0  2  0  0  0  0  0  0
  189.2870  177.4970  147.6780 C   0  0  0  0  0  2  0  0  0  0  0  0
  187.9460  177.8380  148.2920 C   0  0  0  0  0  1  0  0  0  0  0  0
  187.4800  178.6680  142.0900 C   0  0  0  0  0  2  0  0  0  0  0  0
  187.3240  178.3760  140.5920 C   0  0  1  0  0  3  0  0  0  0  0  0
  185.6310  178.1610  139.0660 C   0  0  0  0  0  1  0  0  0  0  0  0
  186.1880  179.0060  140.0400 O   0  0  0  0  0  0  0  0  0  0  0  0
  188.4910  178.6870  139.8770 O   0  0  0  0  0  0  0  0  0  0  0  0
  188.8700  177.5490  139.3290 O   0  0  0  0  0  0  0  0  0  0  0  0
  188.9780  178.5100  137.1450 C   0  0  0  0  0  3  0  0  0  0  0  0
  190.3680  176.7040  137.7280 C   0  0  0  0  0  0  0  0  0  0  0  0
  189.9720  176.4710  136.3950 N   0  0  0  0  0  0  0  0  0  0  0  0
  189.0060  177.4800  136.0090 C   0  0  0  0  0  3  0  0  0  0  0  0
  191.3090  175.9860  138.3230 C   0  0  0  0  0  1  0  0  0  0  0  0
  189.7600  177.9160  138.3150 C   0  0  2  0  0  3  0  0  0  0  0  0
  186.0770  177.8720  144.0390 C   0  0  0  0  0  2  0  0  0  0  0  0
  185.1500  178.9490  143.5030 C   0  0  0  0  0  2  0  0  0  0  0  0
  184.0510  178.3290  142.6540 C   0  0  0  0  0  2  0  0  0  0  0  0
  182.7050  178.9940  142.9110 C   0  0  2  0  0  3  0  0  0  0  0  0
  182.3060  178.7910  144.3670 C   0  0  0  0  0  1  0  0  0  0  0  0
  181.6430  178.5090  141.9090 C   0  0  1  0  0  3  0  0  0  0  0  0
  180.3680  179.7590  141.5470 S   0  0  0  0  0  0  0  0  0  0  0  0
  181.2050  179.4630  139.9540 C   0  0  1  0  0  3  0  0  0  0  0  0
  182.1820  178.4380  140.4950 C   0  0  0  0  0  2  0  0  0  0  0  0
  180.2540  178.7930  138.9780 C   0  0  0  0  0  2  0  0  0  0  0  0
  179.7280  179.9810  137.7070 S   0  0  0  0  0  1  0  0  0  0  0  0
  1 10  1  1  0  0  0
  1  2  1  0  0  0  0
  1 22  1  0  0  0  0
  2  5  1  6  0  0  0
  3  2  1  0  0  0  0
  4  3  1  0  0  0  0
  5  6  1  0  0  0  0
  6  7  1  0  0  0  0
  7  8  1  0  0  0  0
  8  9  1  0  0  0  0
 11 10  1  1  0  0  0
 12 13  1  0  0  0  0
 13 11  1  0  0  0  0
 14 11  1  0  0  0  0
 15 14  1  0  0  0  0
 16 21  1  0  0  0  0
 17 21  1  0  0  0  0
 17 20  1  0  0  0  0
 18 17  2  0  0  0  0
 19 18  1  0  0  0  0
 19 16  2  0  0  0  0
 21 15  1  1  0  0  0
 23 22  1  0  0  0  0
 24 25  1  0  0  0  0
 24 23  1  0  0  0  0
 25 26  1  1  0  0  0
 27 25  1  1  0  0  0
 28 27  1  0  0  0  0
 29 31  1  6  0  0  0
 29 30  1  0  0  0  0
 29 28  1  0  0  0  0
 30 27  1  0  0  0  0
 32 31  1  0  0  0  0
M  END
>  <MODEL>
8

>  <REMARK>
 VINA RESULT:      -5.8      2.302      3.366
  Name = 
  18 active torsions:
  status: ('A' for Active; 'I' for Inactive)
    1  A    between atoms: C_1  and  C_20
    2  A    between atoms: C_2  and  C_9
    3  A    between atoms: C_2  and  C_23
    4  A    between atoms: O_3  and  C_14
    5  A    between atoms: C_4  and  C_5
    6  A    between atoms: C_4  and  C_15
    7  A    between atoms: C_8  and  C_23
    8  A    between atoms: C_8  and  C_28
    9  A    between atoms: C_9  and  C_10
   10  A    between atoms: C_13  and  C_28
   11  A    between atoms: C_13  and  C_31
   12  A    between atoms: C_14  and  C_26
   13  A    between atoms: C_14  and  C_28
   14  A    between atoms: C_15  and  C_26
   15  A    between atoms: O_16  and  O_27
   16  A    between atoms: O_16  and  C_31
   17  A    between atoms: O_27  and  C_32
   18  A    between atoms: O_29  and  C_31
                            x       y       z     vdW  Elec       q    Type
                         _______ _______ _______ _____ _____    ______ ____

>  <TORSDO>
F 18

$$$$
=
 OpenBabel11052417043D

 32 33  0  0  1  0  0  0  0  0999 V2000
  184.5220  178.5900  141.8850 C   0  0  2  0  0  3  0  0  0  0  0  0
  185.6310  178.6350  140.8160 C   0  0  1  0  0  3  0  0  0  0  0  0
  185.2800  179.3830  139.6690 O   0  0  0  0  0  0  0  0  0  0  0  0
  185.2520  178.5270  138.5560 C   0  0  0  0  0  1  0  0  0  0  0  0
  187.0010  179.0300  141.3710 C   0  0  0  0  0  2  0  0  0  0  0  0
  187.9720  177.8760  141.2010 C   0  0  0  0  0  2  0  0  0  0  0  0
  188.9440  177.8320  142.3650 C   0  0  0  0  0  2  0  0  0  0  0  0
  189.6930  176.5130  142.3770 C   0  0  0  0  0  2  0  0  0  0  0  0
  191.1130  176.7440  142.8460 C   0  0  0  0  0  1  0  0  0  0  0  0
  183.1680  179.0840  141.3520 C   0  0  0  0  0  2  0  0  0  0  0  0
  181.9760  178.6170  142.1990 C   0  0  1  0  0  3  0  0  0  0  0  0
  180.1790  179.8110  142.9660 C   0  0  0  0  0  1  0  0  0  0  0  0
  181.5590  179.6000  143.1230 O   0  0  0  0  0  0  0  0  0  0  0  0
  180.9140  178.1690  141.3990 O   0  0  0  0  0  0  0  0  0  0  0  0
  181.4780  177.4310  140.4640 O   0  0  0  0  0  0  0  0  0  0  0  0
  179.2460  176.5980  140.6450 C   0  0  0  0  0  2  0  0  0  0  0  0
  180.7800  175.6010  139.1650 C   0  0  0  0  0  0  0  0  0  0  0  0
  180.0350  174.5410  139.7210 N   0  0  0  0  0  0  0  0  0  0  0  0
  179.1550  175.0710  140.7430 C   0  0  0  0  0  3  0  0  0  0  0  0
  181.6070  175.4270  138.1450 C   0  0  0  0  0  2  0  0  0  0  0  0
  180.4130  176.9240  139.7130 C   0  0  2  0  0  3  0  0  0  0  0  0
  184.9430  179.3570  143.1340 C   0  0  0  0  0  2  0  0  0  0  0  0
  184.8810  178.4590  144.3570 C   0  0  0  0  0  2  0  0  0  0  0  0
  186.2440  177.8440  144.6320 C   0  0  0  0  0  2  0  0  0  0  0  0
  186.5130  177.7320  146.1280 C   0  0  2  0  0  3  0  0  0  0  0  0
  185.4860  178.5550  146.8930 C   0  0  0  0  0  1  0  0  0  0  0  0
  187.9690  178.1020  146.4600 C   0  0  1  0  0  3  0  0  0  0  0  0
  188.3900  177.8620  148.2170 S   0  0  0  0  0  0  0  0  0  0  0  0
  189.4750  176.7110  147.3110 C   0  0  1  0  0  3  0  0  0  0  0  0
  188.9540  177.0770  145.9350 C   0  0  0  0  0  2  0  0  0  0  0  0
  190.9250  177.1450  147.4360 C   0  0  0  0  0  2  0  0  0  0  0  0
  192.0230  175.7100  147.2430 S   0  0  0  0  0  1  0  0  0  0  0  0
  1 10  1  6  0  0  0
  1 22  1  0  0  0  0
  2  5  1  1  0  0  0
  2  1  1  0  0  0  0
  3  2  1  0  0  0  0
  4  3  1  0  0  0  0
  6  5  1  0  0  0  0
  6  7  1  0  0  0  0
  7  8  1  0  0  0  0
  8  9  1  0  0  0  0
 11 10  1  6  0  0  0
 11 13  1  0  0  0  0
 12 13  1  0  0  0  0
 14 11  1  0  0  0  0
 15 14  1  0  0  0  0
 16 19  1  0  0  0  0
 17 21  1  0  0  0  0
 17 18  1  0  0  0  0
 18 19  2  0  0  0  0
 20 17  2  0  0  0  0
 21 15  1  1  0  0  0
 21 16  1  0  0  0  0
 22 23  1  0  0  0  0
 23 24  1  0  0  0  0
 24 25  1  0  0  0  0
 25 26  1  1  0  0  0
 27 25  1  1  0  0  0
 27 28  1  0  0  0  0
 29 31  1  6  0  0  0
 29 28  1  0  0  0  0
 30 27  1  0  0  0  0
 30 29  1  0  0  0  0
 32 31  1  0  0  0  0
M  END
>  <MODEL>
9

>  <REMARK>
 VINA RESULT:      -5.8      4.329      7.847
  Name = 
  18 active torsions:
  status: ('A' for Active; 'I' for Inactive)
    1  A    between atoms: C_1  and  C_20
    2  A    between atoms: C_2  and  C_9
    3  A    between atoms: C_2  and  C_23
    4  A    between atoms: O_3  and  C_14
    5  A    between atoms: C_4  and  C_5
    6  A    between atoms: C_4  and  C_15
    7  A    between atoms: C_8  and  C_23
    8  A    between atoms: C_8  and  C_28
    9  A    between atoms: C_9  and  C_10
   10  A    between atoms: C_13  and  C_28
   11  A    between atoms: C_13  and  C_31
   12  A    between atoms: C_14  and  C_26
   13  A    between atoms: C_14  and  C_28
   14  A    between atoms: C_15  and  C_26
   15  A    between atoms: O_16  and  O_27
   16  A    between atoms: O_16  and  C_31
   17  A    between atoms: O_27  and  C_32
   18  A    between atoms: O_29  and  C_31
                            x       y       z     vdW  Elec       q    Type
                         _______ _______ _______ _____ _____    ______ ____

>  <TORSDO>
F 18

$$$$
