=
 OpenBabel11052415033D

 55 60  0  0  1  0  0  0  0  0999 V2000
  186.6170  177.3590  143.3040 C   0  0  2  0  0  3  0  0  0  0  0  0
  187.1100  177.8540  138.6500 C   0  0  0  0  0  2  0  0  0  0  0  0
  184.7960  179.7820  139.0410 O   0  0  0  0  0  0  0  0  0  0  0  0
  181.3960  178.9580  140.6990 C   0  0  0  0  0  2  0  0  0  0  0  0
  185.2210  179.3190  146.2500 C   0  0  0  0  0  3  0  0  0  0  0  0
  180.0520  179.5710  141.1450 C   0  0  0  0  0  2  0  0  0  0  0  0
  182.0090  179.3010  143.1530 C   0  0  2  0  0  3  0  0  0  0  0  0
  180.5740  179.0640  143.5030 C   0  0  0  0  0  3  0  0  0  0  0  0
  184.1360  177.9240  140.2890 N   0  0  0  0  0  2  0  0  0  0  0  0
  179.6490  179.1730  142.5420 C   0  0  0  0  0  3  0  0  0  0  0  0
  188.6440  175.8810  143.5420 C   0  0  0  0  0  3  0  0  0  0  0  0
  182.3270  178.5340  141.8520 C   0  0  2  0  0  3  0  0  0  0  0  0
  189.8500  177.0340  141.2980 C   0  0  0  0  0  0  0  0  0  0  0  0
  186.0160  178.1940  142.3400 O   0  0  0  0  0  0  0  0  0  0  0  0
  188.6080  177.4990  141.7440 C   0  0  0  0  0  3  0  0  0  0  0  0
  187.3030  178.2980  146.9740 C   0  0  0  0  0  0  0  0  0  0  0  0
  184.3830  179.0710  143.8790 C   0  0  2  0  0  3  0  0  0  0  0  0
  186.5210  177.9910  144.6830 C   0  0  0  0  0  0  0  0  0  0  0  0
  187.9260  176.9770  137.8300 N   0  0  0  0  0  2  0  0  0  0  0  0
  182.9260  178.8770  144.3020 C   0  0  0  0  0  2  0  0  0  0  0  0
  185.6480  177.6940  138.2840 C   0  0  0  0  0  2  0  0  0  0  0  0
  187.4620  177.7490  145.6910 C   0  0  0  0  0  3  0  0  0  0  0  0
  184.8280  178.5330  139.1980 C   0  0  0  0  0  0  0  0  0  0  0  0
  189.8910  175.4230  143.1060 C   0  0  0  0  0  3  0  0  0  0  0  0
  189.2840  177.5110  137.8540 C   0  0  1  0  0  3  0  0  0  0  0  0
  188.0000  176.9340  142.8750 C   0  0  0  0  0  0  0  0  0  0  0  0
  183.8050  178.6930  141.4800 C   0  0  1  0  0  3  0  0  0  0  0  0
  186.1770  179.0860  147.2410 C   0  0  0  0  0  3  0  0  0  0  0  0
  184.6480  178.1960  142.6470 C   0  0  1  0  0  3  0  0  0  0  0  0
  190.1030  176.7140  138.8680 C   0  0  0  0  0  2  0  0  0  0  0  0
  185.3700  178.7530  144.9780 C   0  0  0  0  0  0  0  0  0  0  0  0
  190.4500  177.5940  140.0560 C   0  0  0  0  0  2  0  0  0  0  0  0
  190.4920  175.9960  141.9820 C   0  0  0  0  0  3  0  0  0  0  0  0
  188.3000  178.0540  148.0380 C   0  0  0  0  0  0  0  0  0  0  0  0
  189.5850  177.8770  147.7530 C   0  0  0  0  0  2  0  0  0  0  0  0
  187.8850  177.9840  149.3980 N   0  0  0  0  0  1  0  0  0  0  0  0
  188.9870  178.0680  135.5650 C   0  0  0  0  0  1  0  0  0  0  0  0
  189.8840  177.4250  136.5170 N   0  0  0  0  0  0  0  0  0  0  0  0
  189.9170  176.0230  136.1230 C   0  0  0  0  0  2  0  0  0  0  0  0
  191.3230  175.6270  135.6830 C   0  0  1  0  0  3  0  0  0  0  0  0
  192.1670  176.7380  135.6590 O   0  0  0  0  0  1  0  0  0  0  0  0
  191.9140  174.5080  136.5460 C   0  0  2  0  0  3  0  0  0  0  0  0
  190.8800  173.9310  137.2830 O   0  0  0  0  0  1  0  0  0  0  0  0
  193.1970  176.4260  137.6880 C   0  0  0  0  0  1  0  0  0  0  0  0
  193.0710  174.9120  137.4980 C   0  0  2  0  0  3  0  0  0  0  0  0
  194.1620  172.9050  136.5340 C   0  0  0  0  0  1  0  0  0  0  0  0
  194.4470  174.2720  137.1470 C   0  0  2  0  0  0  0  0  0  0  0  0
  195.6570  175.1940  139.2030 N   0  0  0  0  0  2  0  0  0  0  0  0
  196.4540  175.0500  140.4100 C   0  0  0  0  0  1  0  0  0  0  0  0
  195.3260  174.0750  138.3740 C   0  0  0  0  0  0  0  0  0  0  0  0
  195.7070  172.9190  138.7070 O   0  0  0  0  0  0  0  0  0  0  0  0
  195.1540  175.0690  136.0280 C   0  0  0  0  0  2  0  0  0  0  0  0
  196.6520  174.9690  135.9880 C   0  0  0  0  0  0  0  0  0  0  0  0
  197.3650  175.9130  136.4150 O   0  0  0  0  0  1  0  0  0  0  0  0
  197.2510  173.8140  135.5050 O   0  0  0  0  0  0  0  0  0  0  0  0
  1 14  1  6  0  0  0
  1 18  1  0  0  0  0
  3 23  2  0  0  0  0
  4  6  1  0  0  0  0
  5 28  1  0  0  0  0
  6 10  1  0  0  0  0
  7  8  1  1  0  0  0
  7 20  1  0  0  0  0
 10  8  2  0  0  0  0
 12  4  1  6  0  0  0
 12  7  1  0  0  0  0
 13 15  2  0  0  0  0
 13 33  1  0  0  0  0
 15 26  1  0  0  0  0
 16 28  2  0  0  0  0
 16 34  1  0  0  0  0
 17 20  1  1  0  0  0
 17 31  1  0  0  0  0
 18 31  1  0  0  0  0
 18 22  2  0  0  0  0
 19 25  1  0  0  0  0
 19  2  1  0  0  0  0
 21  2  1  0  0  0  0
 21 23  1  0  0  0  0
 22 16  1  0  0  0  0
 23  9  1  0  0  0  0
 24 11  1  0  0  0  0
 25 38  1  6  0  0  0
 25 30  1  0  0  0  0
 26  1  1  0  0  0  0
 26 11  2  0  0  0  0
 27  9  1  6  0  0  0
 27 12  1  0  0  0  0
 27 29  1  0  0  0  0
 29 14  1  6  0  0  0
 29 17  1  0  0  0  0
 30 32  1  0  0  0  0
 31  5  2  0  0  0  0
 32 13  1  0  0  0  0
 33 24  2  0  0  0  0
 34 36  1  0  0  0  0
 35 34  2  0  0  0  0
 37 38  1  0  0  0  0
 39 38  1  0  0  0  0
 40 41  1  1  0  0  0
 40 39  1  0  0  0  0
 40 42  1  0  0  0  0
 42 43  1  1  0  0  0
 42 45  1  0  0  0  0
 45 44  1  6  0  0  0
 47 46  1  6  0  0  0
 47 45  1  0  0  0  0
 47 50  1  0  0  0  0
 48 49  1  0  0  0  0
 50 51  2  0  0  0  0
 50 48  1  0  0  0  0
 52 47  1  0  0  0  0
 53 52  1  0  0  0  0
 53 54  1  0  0  0  0
 55 53  2  0  0  0  0
M  END
>  <MODEL>
1

>  <REMARK>
 VINA RESULT:     -11.5      0.000      0.000
  Name = 
  10 active torsions:
  status: ('A' for Active; 'I' for Inactive)
    1  A    between atoms: C_1  and  C_53
    2  A    between atoms: C_6  and  C_14
    3  A    between atoms: C_6  and  C_20
    4  A    between atoms: N_8  and  C_22
    5  A    between atoms: N_8  and  C_43
    6  A    between atoms: C_10  and  C_32
    7  A    between atoms: C_14  and  C_38
    8  A    between atoms: C_20  and  C_22
    9  A    between atoms: C_29  and  C_38
   10  A    between atoms: C_38  and  C_53
                            x       y       z     vdW  Elec       q    Type
                         _______ _______ _______ _____ _____    ______ ____

>  <TORSDO>
F 10

$$$$
=
 OpenBabel11052415033D

 55 60  0  0  1  0  0  0  0  0999 V2000
  185.6630  178.7150  141.9530 C   0  0  2  0  0  3  0  0  0  0  0  0
  189.3390  176.5280  139.9880 C   0  0  0  0  0  2  0  0  0  0  0  0
  189.6170  175.3940  142.7920 O   0  0  0  0  0  0  0  0  0  0  0  0
  189.9190  177.4440  146.0620 C   0  0  0  0  0  2  0  0  0  0  0  0
  183.3160  178.2530  144.9110 C   0  0  0  0  0  3  0  0  0  0  0  0
  190.0060  177.3250  147.5980 C   0  0  0  0  0  2  0  0  0  0  0  0
  187.4480  177.8610  146.5480 C   0  0  2  0  0  3  0  0  0  0  0  0
  187.8520  178.5040  147.8380 C   0  0  0  0  0  3  0  0  0  0  0  0
  189.2610  177.6660  143.1870 N   0  0  0  0  0  2  0  0  0  0  0  0
  189.0750  178.2630  148.3240 C   0  0  0  0  0  3  0  0  0  0  0  0
  184.8710  179.7190  139.7830 C   0  0  0  0  0  3  0  0  0  0  0  0
  188.5980  178.0390  145.5340 C   0  0  2  0  0  3  0  0  0  0  0  0
  185.9970  177.6260  138.3080 C   0  0  0  0  0  0  0  0  0  0  0  0
  186.5780  177.7410  142.4040 O   0  0  0  0  0  0  0  0  0  0  0  0
  186.0720  177.6200  139.7050 C   0  0  0  0  0  3  0  0  0  0  0  0
  181.9770  178.9990  143.0260 C   0  0  0  0  0  0  0  0  0  0  0  0
  185.7960  177.8250  144.6820 C   0  0  2  0  0  3  0  0  0  0  0  0
  184.3760  178.6410  142.7590 C   0  0  0  0  0  0  0  0  0  0  0  0
  189.8720  176.8690  138.6820 N   0  0  0  0  0  2  0  0  0  0  0  0
  186.1370  178.4580  146.0320 C   0  0  0  0  0  2  0  0  0  0  0  0
  190.3540  176.8550  141.0650 C   0  0  0  0  0  2  0  0  0  0  0  0
  183.1350  179.0170  142.2300 C   0  0  0  0  0  3  0  0  0  0  0  0
  189.7490  176.5830  142.3960 C   0  0  0  0  0  0  0  0  0  0  0  0
  184.7850  179.7210  138.3870 C   0  0  0  0  0  3  0  0  0  0  0  0
  189.1140  176.1040  137.6970 C   0  0  1  0  0  3  0  0  0  0  0  0
  185.5010  178.6610  140.4540 C   0  0  0  0  0  0  0  0  0  0  0  0
  188.2120  177.4510  144.1730 C   0  0  1  0  0  3  0  0  0  0  0  0
  182.0800  178.6110  144.3680 C   0  0  0  0  0  3  0  0  0  0  0  0
  186.9350  178.1360  143.7020 C   0  0  1  0  0  3  0  0  0  0  0  0
  188.0490  177.0130  137.0880 C   0  0  0  0  0  2  0  0  0  0  0  0
  184.4730  178.2920  144.1230 C   0  0  0  0  0  0  0  0  0  0  0  0
  186.6680  176.5540  137.5250 C   0  0  0  0  0  2  0  0  0  0  0  0
  185.3500  178.6770  137.6500 C   0  0  0  0  0  3  0  0  0  0  0  0
  180.6620  179.3840  142.4710 C   0  0  0  0  0  0  0  0  0  0  0  0
  180.0460  178.6290  141.5680 C   0  0  0  0  0  2  0  0  0  0  0  0
  180.0420  180.5950  142.8870 N   0  0  0  0  0  1  0  0  0  0  0  0
  189.3360  174.5030  135.9570 C   0  0  0  0  0  1  0  0  0  0  0  0
  190.0140  175.5870  136.6580 N   0  0  0  0  0  0  0  0  0  0  0  0
  191.1550  174.9640  137.3140 C   0  0  0  0  0  2  0  0  0  0  0  0
  192.4260  175.2010  136.5060 C   0  0  1  0  0  3  0  0  0  0  0  0
  192.3820  176.4370  135.8600 O   0  0  0  0  0  1  0  0  0  0  0  0
  193.6940  175.0720  137.3570 C   0  0  2  0  0  3  0  0  0  0  0  0
  193.8140  176.2210  138.1400 O   0  0  0  0  0  1  0  0  0  0  0  0
  194.8000  174.3700  135.1400 C   0  0  0  0  0  1  0  0  0  0  0  0
  195.0180  174.8260  136.5860 C   0  0  2  0  0  3  0  0  0  0  0  0
  195.2100  172.8960  138.1310 C   0  0  0  0  0  1  0  0  0  0  0  0
  196.0290  173.8980  137.3220 C   0  0  2  0  0  0  0  0  0  0  0  0
  196.6450  174.6700  139.6820 N   0  0  0  0  0  2  0  0  0  0  0  0
  197.5010  175.3480  140.6400 C   0  0  0  0  0  1  0  0  0  0  0  0
  196.9310  174.6650  138.2790 C   0  0  0  0  0  0  0  0  0  0  0  0
  197.9720  175.2370  137.8540 O   0  0  0  0  0  0  0  0  0  0  0  0
  196.8230  173.0390  136.3130 C   0  0  0  0  0  2  0  0  0  0  0  0
  197.4420  171.7830  136.8550 C   0  0  0  0  0  0  0  0  0  0  0  0
  196.9220  170.6620  136.6160 O   0  0  0  0  0  0  0  0  0  0  0  0
  198.6110  171.8570  137.5990 O   0  0  0  0  0  1  0  0  0  0  0  0
  1 26  1  6  0  0  0
  1 14  1  0  0  0  0
  1 18  1  0  0  0  0
  2 21  1  0  0  0  0
  4  6  1  0  0  0  0
  6 10  1  0  0  0  0
  7 20  1  6  0  0  0
  7  8  1  0  0  0  0
  8 10  2  0  0  0  0
 11 26  1  0  0  0  0
 12  4  1  1  0  0  0
 12  7  1  0  0  0  0
 13 15  1  0  0  0  0
 15 26  2  0  0  0  0
 16 28  2  0  0  0  0
 17 20  1  1  0  0  0
 18 31  1  0  0  0  0
 19  2  1  0  0  0  0
 21 23  1  0  0  0  0
 22 18  2  0  0  0  0
 22 16  1  0  0  0  0
 23  3  2  0  0  0  0
 23  9  1  0  0  0  0
 24 11  2  0  0  0  0
 25 38  1  6  0  0  0
 25 19  1  0  0  0  0
 27  9  1  6  0  0  0
 27 12  1  0  0  0  0
 28  5  1  0  0  0  0
 29 14  1  6  0  0  0
 29 27  1  0  0  0  0
 29 17  1  0  0  0  0
 30 32  1  0  0  0  0
 30 25  1  0  0  0  0
 31 17  1  0  0  0  0
 31  5  2  0  0  0  0
 32 13  1  0  0  0  0
 33 13  2  0  0  0  0
 33 24  1  0  0  0  0
 34 36  1  0  0  0  0
 34 16  1  0  0  0  0
 35 34  2  0  0  0  0
 37 38  1  0  0  0  0
 38 39  1  0  0  0  0
 40 41  1  1  0  0  0
 40 39  1  0  0  0  0
 40 42  1  0  0  0  0
 42 43  1  6  0  0  0
 45 44  1  6  0  0  0
 45 47  1  0  0  0  0
 45 42  1  0  0  0  0
 47 46  1  1  0  0  0
 47 50  1  0  0  0  0
 48 49  1  0  0  0  0
 50 48  1  0  0  0  0
 51 50  2  0  0  0  0
 52 53  1  0  0  0  0
 52 47  1  0  0  0  0
 53 55  1  0  0  0  0
 54 53  2  0  0  0  0
M  END
>  <MODEL>
2

>  <REMARK>
 VINA RESULT:      -9.6      1.883      5.401
  Name = 
  10 active torsions:
  status: ('A' for Active; 'I' for Inactive)
    1  A    between atoms: C_1  and  C_53
    2  A    between atoms: C_6  and  C_14
    3  A    between atoms: C_6  and  C_20
    4  A    between atoms: N_8  and  C_22
    5  A    between atoms: N_8  and  C_43
    6  A    between atoms: C_10  and  C_32
    7  A    between atoms: C_14  and  C_38
    8  A    between atoms: C_20  and  C_22
    9  A    between atoms: C_29  and  C_38
   10  A    between atoms: C_38  and  C_53
                            x       y       z     vdW  Elec       q    Type
                         _______ _______ _______ _____ _____    ______ ____

>  <TORSDO>
F 10

$$$$
