=
 OpenBabel11052414203D

 34 39  0  0  1  0  0  0  0  0999 V2000
  187.4420  178.2700  147.2940 C   0  0  0  0  0  0  0  0  0  0  0  0
  189.4980  177.1330  146.6170 C   0  0  0  0  0  0  0  0  0  0  0  0
  187.7050  177.8460  144.8870 C   0  0  0  0  0  0  0  0  0  0  0  0
  187.8650  177.5700  142.4670 C   0  0  0  0  0  0  0  0  0  0  0  0
  189.4470  178.0920  148.7950 C   0  0  0  0  0  3  0  0  0  0  0  0
  190.1190  177.5160  147.8460 N   0  0  0  0  0  0  0  0  0  0  0  0
  189.9730  177.7160  143.7460 C   0  0  0  0  0  3  0  0  0  0  0  0
  188.2190  177.7780  146.2240 C   0  0  0  0  0  0  0  0  0  0  0  0
  190.6970  177.6580  142.6320 C   0  0  0  0  0  3  0  0  0  0  0  0
  188.6370  177.2350  141.2210 C   0  0  0  0  0  3  0  0  0  0  0  0
  187.9570  178.2840  148.7080 C   0  0  0  0  0  2  0  0  0  0  0  0
  186.3280  178.1770  144.7080 C   0  0  1  0  0  3  0  0  0  0  0  0
  186.1170  178.6340  147.0850 C   0  0  0  0  0  3  0  0  0  0  0  0
  189.9870  176.1810  145.9540 O   0  0  0  0  0  0  0  0  0  0  0  0
  186.5320  177.7730  142.3600 N   0  0  0  0  0  0  0  0  0  0  0  0
  185.7470  178.1090  143.4160 C   0  0  0  0  0  0  0  0  0  0  0  0
  190.0660  177.5140  141.3550 N   0  0  0  0  0  0  0  0  0  0  0  0
  188.4970  177.6530  143.7210 C   0  0  0  0  0  0  0  0  0  0  0  0
  185.5630  178.5630  145.8160 C   0  0  0  0  0  3  0  0  0  0  0  0
  182.5140  178.6230  141.5130 C   0  0  0  0  0  0  0  0  0  0  0  0
  181.6230  178.9500  142.5370 C   0  0  0  0  0  3  0  0  0  0  0  0
  184.3100  178.3750  143.1380 C   0  0  0  0  0  0  0  0  0  0  0  0
  182.0690  179.0010  143.8590 C   0  0  0  0  0  3  0  0  0  0  0  0
  183.8500  178.3430  141.8110 C   0  0  0  0  0  3  0  0  0  0  0  0
  183.4060  178.7200  144.1560 C   0  0  0  0  0  3  0  0  0  0  0  0
  182.0840  178.5800  140.2280 F   0  0  0  0  0  0  0  0  0  0  0  0
  190.8760  177.5660  140.1490 C   0  0  0  0  0  2  0  0  0  0  0  0
  190.3290  176.2960  138.9660 S   0  0  0  0  0  0  0  0  0  0  0  0
  188.8810  179.3570  137.9650 N   0  0  0  0  0  1  0  0  0  0  0  0
  188.9140  177.9610  137.5670 C   0  0  2  0  0  3  0  0  0  0  0  0
  189.2480  176.6870  135.5970 C   0  0  0  0  0  2  0  0  0  0  0  0
  190.5260  176.7110  136.4070 C   0  0  0  0  0  2  0  0  0  0  0  0
  190.2810  177.4590  137.6380 N   0  0  0  0  0  0  0  0  0  0  0  0
  188.4390  177.8270  136.1410 C   0  0  0  0  0  2  0  0  0  0  0  0
  1 11  1  0  0  0  0
  2  6  1  0  0  0  0
  3  8  1  0  0  0  0
  4 18  1  0  0  0  0
  6  5  2  0  0  0  0
  8  2  1  0  0  0  0
  8  1  2  0  0  0  0
  9  7  2  0  0  0  0
 10 17  1  0  0  0  0
 10  4  2  0  0  0  0
 11  5  1  0  0  0  0
 12  3  1  0  0  0  0
 12 19  1  1  0  0  0
 13  1  1  0  0  0  0
 14  2  2  0  0  0  0
 15  4  1  0  0  0  0
 15 16  2  0  0  0  0
 16 12  1  0  0  0  0
 17  9  1  0  0  0  0
 18  7  1  0  0  0  0
 18  3  2  0  0  0  0
 19 13  2  0  0  0  0
 20 24  2  0  0  0  0
 20 21  1  0  0  0  0
 21 23  2  0  0  0  0
 22 16  1  0  0  0  0
 22 25  2  0  0  0  0
 23 25  1  0  0  0  0
 24 22  1  0  0  0  0
 26 20  1  0  0  0  0
 27 17  1  0  0  0  0
 28 27  1  0  0  0  0
 30 33  1  0  0  0  0
 30 29  1  6  0  0  0
 31 34  1  0  0  0  0
 31 32  1  0  0  0  0
 32 33  1  0  0  0  0
 33 28  1  0  0  0  0
 34 30  1  0  0  0  0
M  END
>  <MODEL>
1

>  <REMARK>
 VINA RESULT:     -11.2      0.000      0.000
  Name = 
  4 active torsions:
  status: ('A' for Active; 'I' for Inactive)
    1  A    between atoms: C_3  and  S_13
    2  A    between atoms: C_3  and  N_29
    3  A    between atoms: C_12  and  C_28
    4  A    between atoms: S_13  and  N_33
                            x       y       z     vdW  Elec       q    Type
                         _______ _______ _______ _____ _____    ______ ____

>  <TORSDO>
F 4

$$$$
=
 OpenBabel11052414203D

 34 39  0  0  1  0  0  0  0  0999 V2000
  189.4230  177.3150  146.5100 C   0  0  0  0  0  0  0  0  0  0  0  0
  191.1080  176.2490  145.0930 C   0  0  0  0  0  0  0  0  0  0  0  0
  188.9730  177.3250  144.0930 C   0  0  0  0  0  0  0  0  0  0  0  0
  188.4330  177.4860  141.7180 C   0  0  0  0  0  0  0  0  0  0  0  0
  191.7430  176.8000  147.3210 C   0  0  0  0  0  3  0  0  0  0  0  0
  192.0760  176.3830  146.1370 N   0  0  0  0  0  0  0  0  0  0  0  0
  190.8170  177.3260  142.3440 C   0  0  0  0  0  3  0  0  0  0  0  0
  189.8290  176.9990  145.1960 C   0  0  0  0  0  0  0  0  0  0  0  0
  191.1960  177.4460  141.0750 C   0  0  0  0  0  3  0  0  0  0  0  0
  188.7990  177.3560  140.2660 C   0  0  0  0  0  3  0  0  0  0  0  0
  190.3090  177.0550  147.6980 C   0  0  0  0  0  2  0  0  0  0  0  0
  187.6330  177.7290  144.3750 C   0  0  1  0  0  3  0  0  0  0  0  0
  188.1280  177.7560  146.7530 C   0  0  0  0  0  3  0  0  0  0  0  0
  191.3120  175.4170  144.1710 O   0  0  0  0  0  0  0  0  0  0  0  0
  187.1440  177.7510  142.0340 N   0  0  0  0  0  0  0  0  0  0  0  0
  186.7140  177.9170  143.3110 C   0  0  0  0  0  0  0  0  0  0  0  0
  190.2270  177.5580  140.0270 N   0  0  0  0  0  0  0  0  0  0  0  0
  189.3920  177.3190  142.7340 C   0  0  0  0  0  0  0  0  0  0  0  0
  187.2410  177.9340  145.7030 C   0  0  0  0  0  3  0  0  0  0  0  0
  183.0840  178.6680  142.5370 C   0  0  0  0  0  0  0  0  0  0  0  0
  182.5880  179.0300  143.7910 C   0  0  0  0  0  3  0  0  0  0  0  0
  185.2830  178.2770  143.5060 C   0  0  0  0  0  0  0  0  0  0  0  0
  183.4350  179.0280  144.9020 C   0  0  0  0  0  3  0  0  0  0  0  0
  184.4240  178.2990  142.3950 C   0  0  0  0  0  3  0  0  0  0  0  0
  184.7750  178.6580  144.7580 C   0  0  0  0  0  3  0  0  0  0  0  0
  182.2660  178.6770  141.4570 F   0  0  0  0  0  0  0  0  0  0  0  0
  190.6730  177.7980  138.6650 C   0  0  0  0  0  2  0  0  0  0  0  0
  190.0340  176.5070  137.5540 S   0  0  0  0  0  0  0  0  0  0  0  0
  187.9150  179.3100  137.2020 N   0  0  0  0  0  1  0  0  0  0  0  0
  188.0650  177.9610  136.6890 C   0  0  2  0  0  3  0  0  0  0  0  0
  188.0850  176.8520  134.5940 C   0  0  0  0  0  2  0  0  0  0  0  0
  189.5060  177.0640  135.0690 C   0  0  0  0  0  2  0  0  0  0  0  0
  189.4670  177.7020  136.3830 N   0  0  0  0  0  0  0  0  0  0  0  0
  187.2710  177.8080  135.4150 C   0  0  0  0  0  2  0  0  0  0  0  0
  1 13  1  0  0  0  0
  1 11  1  0  0  0  0
  2  8  1  0  0  0  0
  2  6  1  0  0  0  0
  3 12  1  0  0  0  0
  3  8  1  0  0  0  0
  4 15  1  0  0  0  0
  4 18  1  0  0  0  0
  5 11  1  0  0  0  0
  6  5  2  0  0  0  0
  7 18  1  0  0  0  0
  8  1  2  0  0  0  0
  9  7  2  0  0  0  0
 10  4  2  0  0  0  0
 12 19  1  1  0  0  0
 14  2  2  0  0  0  0
 15 16  2  0  0  0  0
 16 22  1  0  0  0  0
 16 12  1  0  0  0  0
 17 10  1  0  0  0  0
 17  9  1  0  0  0  0
 18  3  2  0  0  0  0
 19 13  2  0  0  0  0
 20 21  1  0  0  0  0
 21 23  2  0  0  0  0
 22 25  2  0  0  0  0
 24 20  2  0  0  0  0
 24 22  1  0  0  0  0
 25 23  1  0  0  0  0
 26 20  1  0  0  0  0
 27 17  1  0  0  0  0
 28 27  1  0  0  0  0
 30 29  1  6  0  0  0
 31 32  1  0  0  0  0
 31 34  1  0  0  0  0
 32 33  1  0  0  0  0
 33 30  1  0  0  0  0
 33 28  1  0  0  0  0
 34 30  1  0  0  0  0
M  END
>  <MODEL>
2

>  <REMARK>
 VINA RESULT:     -11.0      1.299      1.721
  Name = 
  4 active torsions:
  status: ('A' for Active; 'I' for Inactive)
    1  A    between atoms: C_3  and  S_13
    2  A    between atoms: C_3  and  N_29
    3  A    between atoms: C_12  and  C_28
    4  A    between atoms: S_13  and  N_33
                            x       y       z     vdW  Elec       q    Type
                         _______ _______ _______ _____ _____    ______ ____

>  <TORSDO>
F 4

$$$$
=
 OpenBabel11052414203D

 34 39  0  0  1  0  0  0  0  0999 V2000
  189.4130  177.3000  146.4820 C   0  0  0  0  0  0  0  0  0  0  0  0
  191.1040  176.2460  145.0650 C   0  0  0  0  0  0  0  0  0  0  0  0
  188.9710  177.3250  144.0640 C   0  0  0  0  0  0  0  0  0  0  0  0
  188.4390  177.5000  141.6880 C   0  0  0  0  0  0  0  0  0  0  0  0
  191.7300  176.7820  147.2980 C   0  0  0  0  0  3  0  0  0  0  0  0
  192.0670  176.3730  146.1130 N   0  0  0  0  0  0  0  0  0  0  0  0
  190.8210  177.3390  142.3210 C   0  0  0  0  0  3  0  0  0  0  0  0
  189.8240  176.9930  145.1680 C   0  0  0  0  0  0  0  0  0  0  0  0
  191.2050  177.4680  141.0550 C   0  0  0  0  0  3  0  0  0  0  0  0
  188.8100  177.3800  140.2360 C   0  0  0  0  0  3  0  0  0  0  0  0
  190.2940  177.0330  147.6720 C   0  0  0  0  0  2  0  0  0  0  0  0
  187.6300  177.7260  144.3430 C   0  0  1  0  0  3  0  0  0  0  0  0
  188.1160  177.7380  146.7240 C   0  0  0  0  0  3  0  0  0  0  0  0
  191.3120  175.4200  144.1380 O   0  0  0  0  0  0  0  0  0  0  0  0
  187.1490  177.7620  142.0010 N   0  0  0  0  0  0  0  0  0  0  0  0
  186.7140  177.9190  143.2770 C   0  0  0  0  0  0  0  0  0  0  0  0
  190.2390  177.5850  140.0040 N   0  0  0  0  0  0  0  0  0  0  0  0
  189.3950  177.3280  142.7060 C   0  0  0  0  0  0  0  0  0  0  0  0
  187.2320  177.9220  145.6710 C   0  0  0  0  0  3  0  0  0  0  0  0
  183.0840  178.6620  142.4970 C   0  0  0  0  0  0  0  0  0  0  0  0
  182.5850  179.0250  143.7500 C   0  0  0  0  0  3  0  0  0  0  0  0
  185.2820  178.2770  143.4690 C   0  0  0  0  0  0  0  0  0  0  0  0
  183.4300  179.0250  144.8620 C   0  0  0  0  0  3  0  0  0  0  0  0
  184.4250  178.2960  142.3570 C   0  0  0  0  0  3  0  0  0  0  0  0
  184.7710  178.6580  144.7200 C   0  0  0  0  0  3  0  0  0  0  0  0
  182.2680  178.6680  141.4150 F   0  0  0  0  0  0  0  0  0  0  0  0
  190.6900  177.8350  138.6450 C   0  0  0  0  0  2  0  0  0  0  0  0
  190.1570  176.4870  137.5450 S   0  0  0  0  0  0  0  0  0  0  0  0
  193.5920  176.7130  138.3320 N   0  0  0  0  0  1  0  0  0  0  0  0
  192.7200  176.1550  137.3130 C   0  0  2  0  0  3  0  0  0  0  0  0
  192.4130  174.1000  136.1750 C   0  0  0  0  0  2  0  0  0  0  0  0
  191.3980  174.2170  137.2890 C   0  0  0  0  0  2  0  0  0  0  0  0
  191.5730  175.5110  137.9440 N   0  0  0  0  0  0  0  0  0  0  0  0
  193.4660  175.1110  136.5200 C   0  0  0  0  0  2  0  0  0  0  0  0
  1 13  1  0  0  0  0
  1 11  1  0  0  0  0
  2  8  1  0  0  0  0
  2  6  1  0  0  0  0
  3 12  1  0  0  0  0
  3  8  1  0  0  0  0
  4 15  1  0  0  0  0
  4 18  1  0  0  0  0
  5 11  1  0  0  0  0
  6  5  2  0  0  0  0
  7 18  1  0  0  0  0
  8  1  2  0  0  0  0
  9  7  2  0  0  0  0
 10  4  2  0  0  0  0
 12 19  1  1  0  0  0
 14  2  2  0  0  0  0
 15 16  2  0  0  0  0
 16 22  1  0  0  0  0
 16 12  1  0  0  0  0
 17 10  1  0  0  0  0
 17  9  1  0  0  0  0
 18  3  2  0  0  0  0
 19 13  2  0  0  0  0
 20 21  1  0  0  0  0
 21 23  2  0  0  0  0
 22 25  2  0  0  0  0
 24 20  2  0  0  0  0
 24 22  1  0  0  0  0
 25 23  1  0  0  0  0
 26 20  1  0  0  0  0
 27 17  1  0  0  0  0
 28 33  1  0  0  0  0
 28 27  1  0  0  0  0
 30 33  1  0  0  0  0
 30 29  1  1  0  0  0
 31 34  1  0  0  0  0
 31 32  1  0  0  0  0
 32 33  1  0  0  0  0
 34 30  1  0  0  0  0
M  END
>  <MODEL>
3

>  <REMARK>
 VINA RESULT:     -10.9      1.727      2.418
  Name = 
  4 active torsions:
  status: ('A' for Active; 'I' for Inactive)
    1  A    between atoms: C_3  and  S_13
    2  A    between atoms: C_3  and  N_29
    3  A    between atoms: C_12  and  C_28
    4  A    between atoms: S_13  and  N_33
                            x       y       z     vdW  Elec       q    Type
                         _______ _______ _______ _____ _____    ______ ____

>  <TORSDO>
F 4

$$$$
=
 OpenBabel11052414203D

 34 39  0  0  1  0  0  0  0  0999 V2000
  187.4570  178.2550  147.2720 C   0  0  0  0  0  0  0  0  0  0  0  0
  189.5350  177.1120  146.6750 C   0  0  0  0  0  0  0  0  0  0  0  0
  187.8040  177.8160  144.8790 C   0  0  0  0  0  0  0  0  0  0  0  0
  188.0480  177.5240  142.4680 C   0  0  0  0  0  0  0  0  0  0  0  0
  189.4090  178.0850  148.8440 C   0  0  0  0  0  3  0  0  0  0  0  0
  190.1130  177.5030  147.9220 N   0  0  0  0  0  0  0  0  0  0  0  0
  190.1100  177.6760  143.8190 C   0  0  0  0  0  3  0  0  0  0  0  0
  188.2710  177.7560  146.2330 C   0  0  0  0  0  0  0  0  0  0  0  0
  190.8720  177.6110  142.7310 C   0  0  0  0  0  3  0  0  0  0  0  0
  188.8630  177.1810  141.2520 C   0  0  0  0  0  3  0  0  0  0  0  0
  187.9230  178.2770  148.7030 C   0  0  0  0  0  2  0  0  0  0  0  0
  186.4340  178.1470  144.6500 C   0  0  1  0  0  3  0  0  0  0  0  0
  186.1410  178.6190  147.0150 C   0  0  0  0  0  3  0  0  0  0  0  0
  190.0450  176.1560  146.0350 O   0  0  0  0  0  0  0  0  0  0  0  0
  186.7200  177.7280  142.3130 N   0  0  0  0  0  0  0  0  0  0  0  0
  185.8990  178.0720  143.3390 C   0  0  0  0  0  0  0  0  0  0  0  0
  190.2870  177.4600  141.4330 N   0  0  0  0  0  0  0  0  0  0  0  0
  188.6360  177.6140  143.7430 C   0  0  0  0  0  0  0  0  0  0  0  0
  185.6320  178.5400  145.7280 C   0  0  0  0  0  3  0  0  0  0  0  0
  182.7270  178.5390  141.3240 C   0  0  0  0  0  0  0  0  0  0  0  0
  181.8090  178.9080  142.3090 C   0  0  0  0  0  3  0  0  0  0  0  0
  184.4730  178.3370  143.0100 C   0  0  0  0  0  0  0  0  0  0  0  0
  182.2170  179.0030  143.6410 C   0  0  0  0  0  3  0  0  0  0  0  0
  184.0510  178.2610  141.6710 C   0  0  0  0  0  3  0  0  0  0  0  0
  183.5420  178.7230  143.9870 C   0  0  0  0  0  3  0  0  0  0  0  0
  182.3350  178.4540  140.0290 F   0  0  0  0  0  0  0  0  0  0  0  0
  191.1390  177.5030  140.2570 C   0  0  0  0  0  2  0  0  0  0  0  0
  190.1740  177.1120  138.7640 S   0  0  0  0  0  0  0  0  0  0  0  0
  193.5560  176.4260  138.0120 N   0  0  0  0  0  1  0  0  0  0  0  0
  192.2470  176.3780  137.3850 C   0  0  2  0  0  3  0  0  0  0  0  0
  190.9430  174.8580  136.1180 C   0  0  0  0  0  2  0  0  0  0  0  0
  190.4940  174.8280  137.5620 C   0  0  0  0  0  2  0  0  0  0  0  0
  191.2760  175.8080  138.3130 N   0  0  0  0  0  0  0  0  0  0  0  0
  192.3000  175.4970  136.1620 C   0  0  0  0  0  2  0  0  0  0  0  0
  1 11  1  0  0  0  0
  2  6  1  0  0  0  0
  3  8  1  0  0  0  0
  4 18  1  0  0  0  0
  6  5  2  0  0  0  0
  8  2  1  0  0  0  0
  8  1  2  0  0  0  0
  9  7  2  0  0  0  0
 10 17  1  0  0  0  0
 10  4  2  0  0  0  0
 11  5  1  0  0  0  0
 12  3  1  0  0  0  0
 12 19  1  1  0  0  0
 13  1  1  0  0  0  0
 14  2  2  0  0  0  0
 15  4  1  0  0  0  0
 15 16  2  0  0  0  0
 16 12  1  0  0  0  0
 17  9  1  0  0  0  0
 18  7  1  0  0  0  0
 18  3  2  0  0  0  0
 19 13  2  0  0  0  0
 20 24  2  0  0  0  0
 20 21  1  0  0  0  0
 21 23  2  0  0  0  0
 22 16  1  0  0  0  0
 22 25  2  0  0  0  0
 23 25  1  0  0  0  0
 24 22  1  0  0  0  0
 26 20  1  0  0  0  0
 27 17  1  0  0  0  0
 28 27  1  0  0  0  0
 30 29  1  1  0  0  0
 30 33  1  0  0  0  0
 31 34  1  0  0  0  0
 31 32  1  0  0  0  0
 32 33  1  0  0  0  0
 33 28  1  0  0  0  0
 34 30  1  0  0  0  0
M  END
>  <MODEL>
4

>  <REMARK>
 VINA RESULT:     -10.9      1.340      1.550
  Name = 
  4 active torsions:
  status: ('A' for Active; 'I' for Inactive)
    1  A    between atoms: C_3  and  S_13
    2  A    between atoms: C_3  and  N_29
    3  A    between atoms: C_12  and  C_28
    4  A    between atoms: S_13  and  N_33
                            x       y       z     vdW  Elec       q    Type
                         _______ _______ _______ _____ _____    ______ ____

>  <TORSDO>
F 4

$$$$
=
 OpenBabel11052414203D

 34 39  0  0  1  0  0  0  0  0999 V2000
  185.3370  178.1120  143.8260 C   0  0  0  0  0  0  0  0  0  0  0  0
  185.4480  179.0070  141.5530 C   0  0  0  0  0  0  0  0  0  0  0  0
  187.5060  177.9140  142.6870 C   0  0  0  0  0  0  0  0  0  0  0  0
  189.6920  177.5730  141.6560 C   0  0  0  0  0  0  0  0  0  0  0  0
  183.2850  178.6250  142.4720 C   0  0  0  0  0  3  0  0  0  0  0  0
  184.0240  178.9320  141.4500 N   0  0  0  0  0  0  0  0  0  0  0  0
  187.7290  177.7140  140.1640 C   0  0  0  0  0  3  0  0  0  0  0  0
  186.1270  178.3060  142.6740 C   0  0  1  0  0  3  0  0  0  0  0  0
  188.4800  177.4780  139.0920 C   0  0  0  0  0  3  0  0  0  0  0  0
  190.6070  177.5710  140.4630 C   0  0  0  0  0  3  0  0  0  0  0  0
  183.8690  178.4440  143.8470 C   0  0  0  0  0  2  0  0  0  0  0  0
  188.0990  177.5740  143.9410 C   0  0  0  0  0  0  0  0  0  0  0  0
  185.9300  177.7310  145.0240 C   0  0  0  0  0  3  0  0  0  0  0  0
  186.0820  179.7530  140.7620 O   0  0  0  0  0  0  0  0  0  0  0  0
  190.2330  177.3720  142.8800 N   0  0  0  0  0  0  0  0  0  0  0  0
  189.4940  177.3260  144.0180 C   0  0  0  0  0  0  0  0  0  0  0  0
  189.8970  177.3080  139.2120 N   0  0  0  0  0  0  0  0  0  0  0  0
  188.3090  177.7950  141.5200 C   0  0  0  0  0  0  0  0  0  0  0  0
  187.2940  177.4920  145.0830 C   0  0  0  0  0  3  0  0  0  0  0  0
  190.4240  177.3550  147.6880 C   0  0  0  0  0  0  0  0  0  0  0  0
  191.5760  176.5650  147.7020 C   0  0  0  0  0  3  0  0  0  0  0  0
  190.2130  177.0250  145.2850 C   0  0  0  0  0  0  0  0  0  0  0  0
  192.0550  176.0110  146.5130 C   0  0  0  0  0  3  0  0  0  0  0  0
  189.7510  177.5880  146.4860 C   0  0  0  0  0  3  0  0  0  0  0  0
  191.3800  176.2450  145.3120 C   0  0  0  0  0  3  0  0  0  0  0  0
  189.9620  177.8990  148.8400 F   0  0  0  0  0  0  0  0  0  0  0  0
  190.6740  176.9420  138.0400 C   0  0  0  0  0  2  0  0  0  0  0  0
  190.3850  175.1980  137.6100 S   0  0  0  0  0  0  0  0  0  0  0  0
  192.3030  173.0430  135.5730 N   0  0  0  0  0  1  0  0  0  0  0  0
  192.3970  173.7530  136.8360 C   0  0  2  0  0  3  0  0  0  0  0  0
  193.9270  175.1670  137.9660 C   0  0  0  0  0  2  0  0  0  0  0  0
  192.8410  176.0040  137.3270 C   0  0  0  0  0  2  0  0  0  0  0  0
  191.8840  175.1090  136.6810 N   0  0  0  0  0  0  0  0  0  0  0  0
  193.8410  173.8440  137.2630 C   0  0  0  0  0  2  0  0  0  0  0  0
  1 11  1  0  0  0  0
  1 13  2  0  0  0  0
  3 12  1  0  0  0  0
  4 15  1  0  0  0  0
  5 11  1  0  0  0  0
  6  2  1  0  0  0  0
  6  5  2  0  0  0  0
  7 18  1  0  0  0  0
  8  2  1  1  0  0  0
  8  3  1  0  0  0  0
  8  1  1  0  0  0  0
  9 17  1  0  0  0  0
  9  7  2  0  0  0  0
 10  4  2  0  0  0  0
 12 16  1  0  0  0  0
 12 19  2  0  0  0  0
 13 19  1  0  0  0  0
 14  2  2  0  0  0  0
 15 16  2  0  0  0  0
 16 22  1  0  0  0  0
 17 10  1  0  0  0  0
 18  4  1  0  0  0  0
 18  3  2  0  0  0  0
 20 21  1  0  0  0  0
 20 26  1  0  0  0  0
 22 25  2  0  0  0  0
 22 24  1  0  0  0  0
 23 21  2  0  0  0  0
 24 20  2  0  0  0  0
 25 23  1  0  0  0  0
 27 17  1  0  0  0  0
 28 27  1  0  0  0  0
 30 29  1  6  0  0  0
 30 34  1  0  0  0  0
 32 31  1  0  0  0  0
 33 30  1  0  0  0  0
 33 32  1  0  0  0  0
 33 28  1  0  0  0  0
 34 31  1  0  0  0  0
M  END
>  <MODEL>
5

>  <REMARK>
 VINA RESULT:     -10.3      3.170      6.129
  Name = 
  4 active torsions:
  status: ('A' for Active; 'I' for Inactive)
    1  A    between atoms: C_3  and  S_13
    2  A    between atoms: C_3  and  N_29
    3  A    between atoms: C_12  and  C_28
    4  A    between atoms: S_13  and  N_33
                            x       y       z     vdW  Elec       q    Type
                         _______ _______ _______ _____ _____    ______ ____

>  <TORSDO>
F 4

$$$$
=
 OpenBabel11052414203D

 34 39  0  0  1  0  0  0  0  0999 V2000
  183.5850  178.6280  142.1540 C   0  0  0  0  0  0  0  0  0  0  0  0
  183.8160  179.4530  139.8640 C   0  0  0  0  0  0  0  0  0  0  0  0
  185.8390  178.5130  141.1810 C   0  0  0  0  0  0  0  0  0  0  0  0
  188.1090  178.2580  140.3220 C   0  0  0  0  0  0  0  0  0  0  0  0
  181.6140  178.9840  140.6380 C   0  0  0  0  0  3  0  0  0  0  0  0
  182.4090  179.2980  139.6610 N   0  0  0  0  0  0  0  0  0  0  0  0
  186.2570  178.2440  138.6890 C   0  0  0  0  0  3  0  0  0  0  0  0
  184.4460  178.8270  141.0550 C   0  0  1  0  0  3  0  0  0  0  0  0
  187.0960  178.0140  137.6830 C   0  0  0  0  0  3  0  0  0  0  0  0
  189.1090  178.2670  139.1980 C   0  0  0  0  0  3  0  0  0  0  0  0
  182.1040  178.8800  142.0570 C   0  0  0  0  0  2  0  0  0  0  0  0
  186.3560  178.2460  142.4850 C   0  0  0  0  0  0  0  0  0  0  0  0
  184.1070  178.3190  143.4040 C   0  0  0  0  0  3  0  0  0  0  0  0
  184.4660  180.2070  139.0930 O   0  0  0  0  0  0  0  0  0  0  0  0
  188.5690  178.1270  141.5880 N   0  0  0  0  0  0  0  0  0  0  0  0
  187.7520  178.0770  142.6710 C   0  0  0  0  0  0  0  0  0  0  0  0
  188.5070  177.9260  137.9100 N   0  0  0  0  0  0  0  0  0  0  0  0
  186.7310  178.4000  140.0790 C   0  0  0  0  0  0  0  0  0  0  0  0
  185.4740  178.1570  143.5690 C   0  0  0  0  0  3  0  0  0  0  0  0
  190.4110  177.4470  145.2920 C   0  0  0  0  0  0  0  0  0  0  0  0
  189.6520  177.3540  146.4600 C   0  0  0  0  0  3  0  0  0  0  0  0
  188.3910  177.8570  143.9960 C   0  0  0  0  0  0  0  0  0  0  0  0
  188.2650  177.5020  146.4020 C   0  0  0  0  0  3  0  0  0  0  0  0
  189.7840  177.6910  144.0670 C   0  0  0  0  0  3  0  0  0  0  0  0
  187.6390  177.7470  145.1770 C   0  0  0  0  0  3  0  0  0  0  0  0
  191.7570  177.2960  145.3440 F   0  0  0  0  0  0  0  0  0  0  0  0
  189.3860  177.5650  136.8110 C   0  0  0  0  0  2  0  0  0  0  0  0
  188.5730  176.3530  135.7240 S   0  0  0  0  0  0  0  0  0  0  0  0
  190.5790  174.1280  137.5940 N   0  0  0  0  0  1  0  0  0  0  0  0
  189.4660  174.1040  136.6610 C   0  0  2  0  0  3  0  0  0  0  0  0
  187.3230  173.1080  136.4830 C   0  0  0  0  0  2  0  0  0  0  0  0
  187.1790  174.5370  136.9560 C   0  0  0  0  0  2  0  0  0  0  0  0
  188.5070  175.1450  137.0100 N   0  0  0  0  0  0  0  0  0  0  0  0
  188.7630  172.7720  136.7410 C   0  0  0  0  0  2  0  0  0  0  0  0
  1 13  2  0  0  0  0
  3 12  1  0  0  0  0
  4 15  1  0  0  0  0
  5 11  1  0  0  0  0
  6  2  1  0  0  0  0
  6  5  2  0  0  0  0
  7 18  1  0  0  0  0
  8  2  1  1  0  0  0
  8  3  1  0  0  0  0
  8  1  1  0  0  0  0
  9 17  1  0  0  0  0
  9  7  2  0  0  0  0
 10  4  2  0  0  0  0
 11  1  1  0  0  0  0
 12 16  1  0  0  0  0
 12 19  2  0  0  0  0
 13 19  1  0  0  0  0
 14  2  2  0  0  0  0
 15 16  2  0  0  0  0
 16 22  1  0  0  0  0
 17 10  1  0  0  0  0
 18  4  1  0  0  0  0
 18  3  2  0  0  0  0
 20 26  1  0  0  0  0
 20 21  1  0  0  0  0
 22 24  1  0  0  0  0
 22 25  2  0  0  0  0
 23 21  2  0  0  0  0
 24 20  2  0  0  0  0
 25 23  1  0  0  0  0
 27 17  1  0  0  0  0
 28 27  1  0  0  0  0
 28 33  1  0  0  0  0
 30 34  1  0  0  0  0
 30 33  1  0  0  0  0
 30 29  1  1  0  0  0
 31 34  1  0  0  0  0
 31 32  1  0  0  0  0
 32 33  1  0  0  0  0
M  END
>  <MODEL>
6

>  <REMARK>
 VINA RESULT:     -10.2      3.321      6.233
  Name = 
  4 active torsions:
  status: ('A' for Active; 'I' for Inactive)
    1  A    between atoms: C_3  and  S_13
    2  A    between atoms: C_3  and  N_29
    3  A    between atoms: C_12  and  C_28
    4  A    between atoms: S_13  and  N_33
                            x       y       z     vdW  Elec       q    Type
                         _______ _______ _______ _____ _____    ______ ____

>  <TORSDO>
F 4

$$$$
=
 OpenBabel11052414203D

 34 39  0  0  1  0  0  0  0  0999 V2000
  188.5920  177.4840  146.1600 C   0  0  0  0  0  0  0  0  0  0  0  0
  186.6150  178.6950  146.9400 C   0  0  0  0  0  0  0  0  0  0  0  0
  186.9780  178.1560  144.4320 C   0  0  0  0  0  0  0  0  0  0  0  0
  185.4310  178.6810  142.6190 C   0  0  0  0  0  0  0  0  0  0  0  0
  187.8870  177.5150  148.5710 C   0  0  0  0  0  3  0  0  0  0  0  0
  186.8210  178.1890  148.2610 N   0  0  0  0  0  0  0  0  0  0  0  0
  184.4910  178.4130  144.8870 C   0  0  0  0  0  3  0  0  0  0  0  0
  187.3650  178.0870  145.8110 C   0  0  0  0  0  0  0  0  0  0  0  0
  183.2530  178.5880  144.4350 C   0  0  0  0  0  3  0  0  0  0  0  0
  184.0940  179.1460  142.1130 C   0  0  0  0  0  3  0  0  0  0  0  0
  189.0170  177.3270  147.5950 C   0  0  0  0  0  2  0  0  0  0  0  0
  187.9550  177.8390  143.4390 C   0  0  1  0  0  3  0  0  0  0  0  0
  189.5060  177.1380  145.1730 C   0  0  0  0  0  3  0  0  0  0  0  0
  185.8910  179.7120  146.7790 O   0  0  0  0  0  0  0  0  0  0  0  0
  186.4240  178.4840  141.7210 N   0  0  0  0  0  0  0  0  0  0  0  0
  187.6580  178.0370  142.0670 C   0  0  0  0  0  0  0  0  0  0  0  0
  183.0090  178.8610  143.0500 N   0  0  0  0  0  0  0  0  0  0  0  0
  185.6640  178.4720  143.9900 C   0  0  0  0  0  0  0  0  0  0  0  0
  189.2010  177.3380  143.8360 C   0  0  0  0  0  3  0  0  0  0  0  0
  189.3070  178.2000  138.6620 C   0  0  0  0  0  0  0  0  0  0  0  0
  190.3780  177.3170  138.8160 C   0  0  0  0  0  3  0  0  0  0  0  0
  188.6280  177.7960  140.9660 C   0  0  0  0  0  0  0  0  0  0  0  0
  190.5740  176.6640  140.0350 C   0  0  0  0  0  3  0  0  0  0  0  0
  188.4350  178.4320  139.7280 C   0  0  0  0  0  3  0  0  0  0  0  0
  189.7010  176.8990  141.1010 C   0  0  0  0  0  3  0  0  0  0  0  0
  189.1110  178.8280  137.4780 F   0  0  0  0  0  0  0  0  0  0  0  0
  181.6400  178.9380  142.5690 C   0  0  0  0  0  2  0  0  0  0  0  0
  181.6110  178.9630  140.7500 S   0  0  0  0  0  0  0  0  0  0  0  0
  182.7390  175.9180  139.3620 N   0  0  0  0  0  1  0  0  0  0  0  0
  181.5870  176.7990  139.3160 C   0  0  2  0  0  3  0  0  0  0  0  0
  179.2280  176.6440  139.4800 C   0  0  0  0  0  2  0  0  0  0  0  0
  179.7980  177.1000  140.8040 C   0  0  0  0  0  2  0  0  0  0  0  0
  181.2460  177.2370  140.6650 N   0  0  0  0  0  0  0  0  0  0  0  0
  180.4010  176.0590  138.7500 C   0  0  0  0  0  2  0  0  0  0  0  0
  1 11  1  0  0  0  0
  2  6  1  0  0  0  0
  3  8  1  0  0  0  0
  4 18  1  0  0  0  0
  6  5  2  0  0  0  0
  8  1  2  0  0  0  0
  8  2  1  0  0  0  0
  9  7  2  0  0  0  0
 10  4  2  0  0  0  0
 10 17  1  0  0  0  0
 11  5  1  0  0  0  0
 12 19  1  1  0  0  0
 12  3  1  0  0  0  0
 13  1  1  0  0  0  0
 14  2  2  0  0  0  0
 15 16  2  0  0  0  0
 15  4  1  0  0  0  0
 16 12  1  0  0  0  0
 17  9  1  0  0  0  0
 18  3  2  0  0  0  0
 18  7  1  0  0  0  0
 19 13  2  0  0  0  0
 20 21  2  0  0  0  0
 20 24  1  0  0  0  0
 21 23  1  0  0  0  0
 22 25  1  0  0  0  0
 22 16  1  0  0  0  0
 23 25  2  0  0  0  0
 24 22  2  0  0  0  0
 26 20  1  0  0  0  0
 27 17  1  0  0  0  0
 28 27  1  0  0  0  0
 30 29  1  1  0  0  0
 30 33  1  0  0  0  0
 31 32  1  0  0  0  0
 33 28  1  0  0  0  0
 33 32  1  0  0  0  0
 34 30  1  0  0  0  0
 34 31  1  0  0  0  0
M  END
>  <MODEL>
7

>  <REMARK>
 VINA RESULT:     -10.2      3.140      6.417
  Name = 
  4 active torsions:
  status: ('A' for Active; 'I' for Inactive)
    1  A    between atoms: C_3  and  S_13
    2  A    between atoms: C_3  and  N_29
    3  A    between atoms: C_12  and  C_28
    4  A    between atoms: S_13  and  N_33
                            x       y       z     vdW  Elec       q    Type
                         _______ _______ _______ _____ _____    ______ ____

>  <TORSDO>
F 4

$$$$
=
 OpenBabel11052414203D

 34 39  0  0  1  0  0  0  0  0999 V2000
  188.5910  177.4010  146.1250 C   0  0  0  0  0  0  0  0  0  0  0  0
  186.6140  178.6160  146.8960 C   0  0  0  0  0  0  0  0  0  0  0  0
  187.0020  178.1040  144.3860 C   0  0  0  0  0  0  0  0  0  0  0  0
  185.4790  178.6610  142.5620 C   0  0  0  0  0  0  0  0  0  0  0  0
  187.8590  177.4080  148.5270 C   0  0  0  0  0  3  0  0  0  0  0  0
  186.8020  178.0930  148.2140 N   0  0  0  0  0  0  0  0  0  0  0  0
  184.5120  178.3730  144.8160 C   0  0  0  0  0  3  0  0  0  0  0  0
  187.3730  178.0160  145.7680 C   0  0  0  0  0  0  0  0  0  0  0  0
  183.2800  178.5630  144.3530 C   0  0  0  0  0  3  0  0  0  0  0  0
  184.1510  179.1420  142.0470 C   0  0  0  0  0  3  0  0  0  0  0  0
  189.0000  177.2240  147.5620 C   0  0  0  0  0  2  0  0  0  0  0  0
  187.9880  177.7920  143.4010 C   0  0  1  0  0  3  0  0  0  0  0  0
  189.5140  177.0590  145.1440 C   0  0  0  0  0  3  0  0  0  0  0  0
  185.8990  179.6400  146.7400 O   0  0  0  0  0  0  0  0  0  0  0  0
  186.4800  178.4680  141.6730 N   0  0  0  0  0  0  0  0  0  0  0  0
  187.7070  178.0080  142.0280 C   0  0  0  0  0  0  0  0  0  0  0  0
  183.0530  178.8530  142.9690 N   0  0  0  0  0  0  0  0  0  0  0  0
  185.6950  178.4340  143.9340 C   0  0  0  0  0  0  0  0  0  0  0  0
  189.2250  177.2770  143.8050 C   0  0  0  0  0  3  0  0  0  0  0  0
  189.4190  178.2310  138.6570 C   0  0  0  0  0  0  0  0  0  0  0  0
  190.4590  177.3110  138.7980 C   0  0  0  0  0  3  0  0  0  0  0  0
  188.6890  177.7730  140.9340 C   0  0  0  0  0  0  0  0  0  0  0  0
  190.6140  176.6120  139.9980 C   0  0  0  0  0  3  0  0  0  0  0  0
  188.5360  178.4560  139.7160 C   0  0  0  0  0  3  0  0  0  0  0  0
  189.7300  176.8390  141.0570 C   0  0  0  0  0  3  0  0  0  0  0  0
  189.2620  178.9040  137.4920 F   0  0  0  0  0  0  0  0  0  0  0  0
  181.6910  178.9450  142.4730 C   0  0  0  0  0  2  0  0  0  0  0  0
  181.5780  178.2360  140.8010 S   0  0  0  0  0  0  0  0  0  0  0  0
  179.5510  181.1140  140.5200 N   0  0  0  0  0  1  0  0  0  0  0  0
  180.1130  180.0650  139.6870 C   0  0  2  0  0  3  0  0  0  0  0  0
  181.3050  179.8670  137.6490 C   0  0  0  0  0  2  0  0  0  0  0  0
  182.2680  179.7600  138.8110 C   0  0  0  0  0  2  0  0  0  0  0  0
  181.5050  179.8340  140.0550 N   0  0  0  0  0  0  0  0  0  0  0  0
  180.0740  180.4880  138.2400 C   0  0  0  0  0  2  0  0  0  0  0  0
  1 11  1  0  0  0  0
  2  6  1  0  0  0  0
  3  8  1  0  0  0  0
  4 18  1  0  0  0  0
  6  5  2  0  0  0  0
  8  1  2  0  0  0  0
  8  2  1  0  0  0  0
  9  7  2  0  0  0  0
 10  4  2  0  0  0  0
 10 17  1  0  0  0  0
 11  5  1  0  0  0  0
 12 19  1  1  0  0  0
 12  3  1  0  0  0  0
 13  1  1  0  0  0  0
 14  2  2  0  0  0  0
 15 16  2  0  0  0  0
 15  4  1  0  0  0  0
 16 12  1  0  0  0  0
 17  9  1  0  0  0  0
 18  3  2  0  0  0  0
 18  7  1  0  0  0  0
 19 13  2  0  0  0  0
 20 21  2  0  0  0  0
 20 24  1  0  0  0  0
 21 23  1  0  0  0  0
 22 25  1  0  0  0  0
 22 16  1  0  0  0  0
 23 25  2  0  0  0  0
 24 22  2  0  0  0  0
 26 20  1  0  0  0  0
 27 17  1  0  0  0  0
 28 27  1  0  0  0  0
 30 33  1  0  0  0  0
 30 29  1  1  0  0  0
 31 34  1  0  0  0  0
 31 32  1  0  0  0  0
 32 33  1  0  0  0  0
 33 28  1  0  0  0  0
 34 30  1  0  0  0  0
M  END
>  <MODEL>
8

>  <REMARK>
 VINA RESULT:     -10.2      3.326      6.397
  Name = 
  4 active torsions:
  status: ('A' for Active; 'I' for Inactive)
    1  A    between atoms: C_3  and  S_13
    2  A    between atoms: C_3  and  N_29
    3  A    between atoms: C_12  and  C_28
    4  A    between atoms: S_13  and  N_33
                            x       y       z     vdW  Elec       q    Type
                         _______ _______ _______ _____ _____    ______ ____

>  <TORSDO>
F 4

$$$$
=
 OpenBabel11052414203D

 34 39  0  0  1  0  0  0  0  0999 V2000
  183.1490  178.6720  142.0670 C   0  0  0  0  0  0  0  0  0  0  0  0
  183.7740  179.4200  139.8250 C   0  0  0  0  0  0  0  0  0  0  0  0
  185.5330  178.5060  141.4930 C   0  0  0  0  0  0  0  0  0  0  0  0
  187.9120  178.2030  141.0390 C   0  0  0  0  0  0  0  0  0  0  0  0
  181.4670  178.9950  140.2300 C   0  0  0  0  0  3  0  0  0  0  0  0
  182.4200  179.2700  139.3920 N   0  0  0  0  0  0  0  0  0  0  0  0
  186.3620  178.1510  139.1170 C   0  0  0  0  0  3  0  0  0  0  0  0
  184.1860  178.8280  141.1240 C   0  0  1  0  0  3  0  0  0  0  0  0
  187.3550  177.8810  138.2750 C   0  0  0  0  0  3  0  0  0  0  0  0
  189.0860  178.1670  140.1010 C   0  0  0  0  0  3  0  0  0  0  0  0
  181.7090  178.9330  141.7140 C   0  0  0  0  0  2  0  0  0  0  0  0
  185.8190  178.2770  142.8740 C   0  0  0  0  0  0  0  0  0  0  0  0
  183.4490  178.4000  143.3970 C   0  0  0  0  0  3  0  0  0  0  0  0
  184.5550  180.1420  139.1520 O   0  0  0  0  0  0  0  0  0  0  0  0
  188.1490  178.1100  142.3680 N   0  0  0  0  0  0  0  0  0  0  0  0
  187.1610  178.1030  143.2980 C   0  0  0  0  0  0  0  0  0  0  0  0
  188.7060  177.7890  138.7400 N   0  0  0  0  0  0  0  0  0  0  0  0
  186.5970  178.3490  140.5620 C   0  0  0  0  0  0  0  0  0  0  0  0
  184.7660  178.2320  143.7960 C   0  0  0  0  0  3  0  0  0  0  0  0
  189.2150  177.1470  146.3320 C   0  0  0  0  0  0  0  0  0  0  0  0
  188.3530  177.4730  147.3810 C   0  0  0  0  0  3  0  0  0  0  0  0
  187.5640  177.9210  144.7190 C   0  0  0  0  0  0  0  0  0  0  0  0
  187.0950  178.0120  147.1060 C   0  0  0  0  0  3  0  0  0  0  0  0
  188.8200  177.3640  145.0100 C   0  0  0  0  0  3  0  0  0  0  0  0
  186.7020  178.2300  145.7830 C   0  0  0  0  0  3  0  0  0  0  0  0
  190.4330  176.6160  146.5960 F   0  0  0  0  0  0  0  0  0  0  0  0
  189.7530  177.3850  137.8170 C   0  0  0  0  0  2  0  0  0  0  0  0
  191.1970  176.7620  138.7330 S   0  0  0  0  0  0  0  0  0  0  0  0
  190.8090  173.8590  136.7590 N   0  0  0  0  0  1  0  0  0  0  0  0
  191.8030  174.5100  137.5940 C   0  0  2  0  0  3  0  0  0  0  0  0
  194.0930  175.1120  137.4820 C   0  0  0  0  0  2  0  0  0  0  0  0
  193.2360  176.3220  137.1810 C   0  0  0  0  0  2  0  0  0  0  0  0
  191.8310  175.9400  137.3050 N   0  0  0  0  0  0  0  0  0  0  0  0
  193.1690  173.9450  137.2950 C   0  0  0  0  0  2  0  0  0  0  0  0
  1 13  2  0  0  0  0
  3 12  1  0  0  0  0
  4 15  1  0  0  0  0
  5 11  1  0  0  0  0
  6  2  1  0  0  0  0
  6  5  2  0  0  0  0
  7 18  1  0  0  0  0
  8  2  1  1  0  0  0
  8  3  1  0  0  0  0
  8  1  1  0  0  0  0
  9 17  1  0  0  0  0
  9  7  2  0  0  0  0
 10  4  2  0  0  0  0
 11  1  1  0  0  0  0
 12 16  1  0  0  0  0
 12 19  2  0  0  0  0
 13 19  1  0  0  0  0
 14  2  2  0  0  0  0
 15 16  2  0  0  0  0
 16 22  1  0  0  0  0
 17 10  1  0  0  0  0
 18  4  1  0  0  0  0
 18  3  2  0  0  0  0
 20 26  1  0  0  0  0
 20 21  1  0  0  0  0
 22 24  1  0  0  0  0
 22 25  2  0  0  0  0
 23 21  2  0  0  0  0
 24 20  2  0  0  0  0
 25 23  1  0  0  0  0
 27 28  1  0  0  0  0
 27 17  1  0  0  0  0
 30 29  1  6  0  0  0
 32 33  1  0  0  0  0
 32 31  1  0  0  0  0
 33 30  1  0  0  0  0
 33 28  1  0  0  0  0
 34 31  1  0  0  0  0
 34 30  1  0  0  0  0
M  END
>  <MODEL>
9

>  <REMARK>
 VINA RESULT:     -10.1      3.211      6.106
  Name = 
  4 active torsions:
  status: ('A' for Active; 'I' for Inactive)
    1  A    between atoms: C_3  and  S_13
    2  A    between atoms: C_3  and  N_29
    3  A    between atoms: C_12  and  C_28
    4  A    between atoms: S_13  and  N_33
                            x       y       z     vdW  Elec       q    Type
                         _______ _______ _______ _____ _____    ______ ____

>  <TORSDO>
F 4

$$$$
