=
 OpenBabel11052413563D

 34 39  0  0  1  0  0  0  0  0999 V2000
  189.3330  177.1720  146.1250 C   0  0  0  0  0  0  0  0  0  0  0  0
  191.1130  176.5030  144.4790 C   0  0  2  0  0  3  0  0  0  0  0  0
  188.8190  177.4810  143.7640 C   0  0  0  0  0  0  0  0  0  0  0  0
  188.2760  177.9930  141.4590 C   0  0  0  0  0  0  0  0  0  0  0  0
  191.6680  177.0090  146.8410 N   0  0  0  0  0  2  0  0  0  0  0  0
  191.8900  176.0820  145.7370 C   0  0  0  0  0  2  0  0  0  0  0  0
  190.4850  177.5340  141.8630 N   0  0  0  0  0  2  0  0  0  0  0  0
  189.7310  177.0730  144.7800 C   0  0  0  0  0  0  0  0  0  0  0  0
  188.9170  178.1160  140.1270 C   0  0  0  0  0  2  0  0  0  0  0  0
  190.3010  176.9710  147.1560 N   0  0  0  0  0  2  0  0  0  0  0  0
  187.4640  177.7800  144.1140 C   0  0  0  0  0  0  0  0  0  0  0  0
  188.0230  177.4970  146.4640 C   0  0  0  0  0  3  0  0  0  0  0  0
  190.9880  175.2540  143.6200 C   0  0  0  0  0  1  0  0  0  0  0  0
  186.9460  178.2370  141.7700 C   0  0  0  0  0  3  0  0  0  0  0  0
  186.5150  178.1260  143.1030 C   0  0  0  0  0  0  0  0  0  0  0  0
  190.3970  177.8100  140.4300 C   0  0  2  0  0  3  0  0  0  0  0  0
  189.1840  177.6330  142.4120 C   0  0  0  0  0  0  0  0  0  0  0  0
  187.0970  177.7800  145.4670 C   0  0  0  0  0  3  0  0  0  0  0  0
  182.7790  178.6640  142.6380 C   0  0  0  0  0  0  0  0  0  0  0  0
  182.3820  178.9630  143.9430 C   0  0  0  0  0  3  0  0  0  0  0  0
  185.0790  178.3900  143.3880 C   0  0  0  0  0  0  0  0  0  0  0  0
  183.3270  178.9830  144.9720 C   0  0  0  0  0  3  0  0  0  0  0  0
  184.1200  178.3850  142.3620 C   0  0  0  0  0  3  0  0  0  0  0  0
  184.6670  178.7030  144.6950 C   0  0  0  0  0  3  0  0  0  0  0  0
  181.8420  178.6480  141.6140 O   0  0  0  0  0  1  0  0  0  0  0  0
  190.9080  176.6220  139.6160 C   0  0  0  0  0  2  0  0  0  0  0  0
  190.4540  176.6780  138.1630 C   0  0  0  0  0  2  0  0  0  0  0  0
  190.5310  173.9110  137.5690 O   0  0  0  0  0  0  0  0  0  0  0  0
  191.5210  176.0930  137.2530 C   0  0  2  0  0  3  0  0  0  0  0  0
  191.5770  174.5900  137.3900 C   0  0  0  0  0  0  0  0  0  0  0  0
  194.0580  174.7140  137.0530 C   0  0  0  0  0  2  0  0  0  0  0  0
  193.7150  176.1530  136.6610 C   0  0  0  0  0  2  0  0  0  0  0  0
  192.7720  176.6670  137.5690 O   0  0  0  0  0  0  0  0  0  0  0  0
  192.8300  173.9340  137.1900 N   0  0  0  0  0  2  0  0  0  0  0  0
  1 12  1  0  0  0  0
  1 10  1  0  0  0  0
  2 13  1  6  0  0  0
  2  8  1  0  0  0  0
  2  6  1  0  0  0  0
  3 11  1  0  0  0  0
  3  8  1  0  0  0  0
  4 14  2  0  0  0  0
  4 17  1  0  0  0  0
  5 10  1  0  0  0  0
  6  5  1  0  0  0  0
  7 17  1  0  0  0  0
  8  1  2  0  0  0  0
  9 16  1  0  0  0  0
  9  4  1  0  0  0  0
 11 18  1  0  0  0  0
 14 15  1  0  0  0  0
 15 21  1  0  0  0  0
 15 11  2  0  0  0  0
 16 26  1  6  0  0  0
 16  7  1  0  0  0  0
 17  3  2  0  0  0  0
 18 12  2  0  0  0  0
 19 20  1  0  0  0  0
 20 22  2  0  0  0  0
 21 24  2  0  0  0  0
 23 19  2  0  0  0  0
 23 21  1  0  0  0  0
 24 22  1  0  0  0  0
 25 19  1  0  0  0  0
 27 26  1  0  0  0  0
 29 30  1  0  0  0  0
 29 33  1  0  0  0  0
 29 27  1  1  0  0  0
 30 28  2  0  0  0  0
 31 34  1  0  0  0  0
 32 31  1  0  0  0  0
 32 33  1  0  0  0  0
 34 30  1  0  0  0  0
M  END
>  <MODEL>
1

>  <REMARK>
 VINA RESULT:     -11.7      0.000      0.000
  Name = 
  4 active torsions:
  status: ('A' for Active; 'I' for Inactive)
    1  A    between atoms: C_3  and  C_13
    2  A    between atoms: C_3  and  C_17
    3  A    between atoms: C_12  and  C_28
    4  A    between atoms: C_17  and  C_29
                            x       y       z     vdW  Elec       q    Type
                         _______ _______ _______ _____ _____    ______ ____

>  <TORSDO>
F 4

$$$$
=
 OpenBabel11052413563D

 34 39  0  0  1  0  0  0  0  0999 V2000
  189.3310  177.1970  146.0790 C   0  0  0  0  0  0  0  0  0  0  0  0
  191.0960  176.4880  144.4330 C   0  0  2  0  0  3  0  0  0  0  0  0
  188.8020  177.4640  143.7150 C   0  0  0  0  0  0  0  0  0  0  0  0
  188.2470  177.9350  141.4040 C   0  0  0  0  0  0  0  0  0  0  0  0
  191.6690  177.0370  146.7820 N   0  0  0  0  0  2  0  0  0  0  0  0
  191.8790  176.0880  145.6940 C   0  0  0  0  0  2  0  0  0  0  0  0
  190.4570  177.4730  141.8030 N   0  0  0  0  0  2  0  0  0  0  0  0
  189.7190  177.0710  144.7330 C   0  0  0  0  0  0  0  0  0  0  0  0
  188.8800  178.0290  140.0660 C   0  0  0  0  0  2  0  0  0  0  0  0
  190.3040  177.0120  147.1060 N   0  0  0  0  0  2  0  0  0  0  0  0
  187.4510  177.7760  144.0680 C   0  0  0  0  0  0  0  0  0  0  0  0
  188.0240  177.5360  146.4190 C   0  0  0  0  0  3  0  0  0  0  0  0
  190.9610  175.2240  143.6000 C   0  0  0  0  0  1  0  0  0  0  0  0
  186.9210  178.1910  141.7190 C   0  0  0  0  0  3  0  0  0  0  0  0
  186.4970  178.1070  143.0560 C   0  0  0  0  0  0  0  0  0  0  0  0
  190.3610  177.7220  140.3650 C   0  0  2  0  0  3  0  0  0  0  0  0
  189.1590  177.5890  142.3580 C   0  0  0  0  0  0  0  0  0  0  0  0
  187.0930  177.8040  145.4230 C   0  0  0  0  0  3  0  0  0  0  0  0
  182.7680  178.6930  142.6000 C   0  0  0  0  0  0  0  0  0  0  0  0
  182.3740  178.9790  143.9090 C   0  0  0  0  0  3  0  0  0  0  0  0
  185.0640  178.3840  143.3450 C   0  0  0  0  0  0  0  0  0  0  0  0
  183.3200  178.9750  144.9380 C   0  0  0  0  0  3  0  0  0  0  0  0
  184.1060  178.4040  142.3190 C   0  0  0  0  0  3  0  0  0  0  0  0
  184.6570  178.6840  144.6560 C   0  0  0  0  0  3  0  0  0  0  0  0
  181.8300  178.7010  141.5760 O   0  0  0  0  0  1  0  0  0  0  0  0
  190.8610  176.5170  139.5710 C   0  0  0  0  0  2  0  0  0  0  0  0
  191.1610  176.8650  138.1190 C   0  0  0  0  0  2  0  0  0  0  0  0
  188.9330  177.4850  136.4850 O   0  0  0  0  0  0  0  0  0  0  0  0
  190.5480  175.8300  137.1900 C   0  0  2  0  0  3  0  0  0  0  0  0
  189.1810  176.2730  136.7230 C   0  0  0  0  0  0  0  0  0  0  0  0
  188.4570  173.8740  136.7700 C   0  0  0  0  0  2  0  0  0  0  0  0
  189.9600  173.6470  136.9450 C   0  0  0  0  0  2  0  0  0  0  0  0
  190.4660  174.5900  137.8590 O   0  0  0  0  0  0  0  0  0  0  0  0
  188.2040  175.2720  136.4330 N   0  0  0  0  0  2  0  0  0  0  0  0
  1 12  1  0  0  0  0
  1 10  1  0  0  0  0
  2 13  1  6  0  0  0
  2  8  1  0  0  0  0
  2  6  1  0  0  0  0
  3 11  1  0  0  0  0
  3  8  1  0  0  0  0
  4 14  2  0  0  0  0
  4 17  1  0  0  0  0
  5 10  1  0  0  0  0
  6  5  1  0  0  0  0
  7 17  1  0  0  0  0
  8  1  2  0  0  0  0
  9 16  1  0  0  0  0
  9  4  1  0  0  0  0
 11 18  1  0  0  0  0
 14 15  1  0  0  0  0
 15 21  1  0  0  0  0
 15 11  2  0  0  0  0
 16 26  1  6  0  0  0
 16  7  1  0  0  0  0
 17  3  2  0  0  0  0
 18 12  2  0  0  0  0
 19 20  1  0  0  0  0
 20 22  2  0  0  0  0
 21 24  2  0  0  0  0
 23 19  2  0  0  0  0
 23 21  1  0  0  0  0
 24 22  1  0  0  0  0
 25 19  1  0  0  0  0
 27 26  1  0  0  0  0
 28 30  2  0  0  0  0
 29 33  1  0  0  0  0
 29 27  1  1  0  0  0
 30 29  1  0  0  0  0
 31 32  1  0  0  0  0
 32 33  1  0  0  0  0
 34 30  1  0  0  0  0
 34 31  1  0  0  0  0
M  END
>  <MODEL>
2

>  <REMARK>
 VINA RESULT:     -11.5      1.340      1.825
  Name = 
  4 active torsions:
  status: ('A' for Active; 'I' for Inactive)
    1  A    between atoms: C_3  and  C_13
    2  A    between atoms: C_3  and  C_17
    3  A    between atoms: C_12  and  C_28
    4  A    between atoms: C_17  and  C_29
                            x       y       z     vdW  Elec       q    Type
                         _______ _______ _______ _____ _____    ______ ____

>  <TORSDO>
F 4

$$$$
=
 OpenBabel11052413563D

 34 39  0  0  1  0  0  0  0  0999 V2000
  184.3440  178.7960  144.8100 C   0  0  0  0  0  0  0  0  0  0  0  0
  186.7390  178.0620  145.0340 C   0  0  2  0  0  3  0  0  0  0  0  0
  185.6050  178.5130  142.7450 C   0  0  0  0  0  0  0  0  0  0  0  0
  186.8160  178.4350  140.6470 C   0  0  0  0  0  0  0  0  0  0  0  0
  185.5390  179.1370  146.9180 N   0  0  0  0  0  2  0  0  0  0  0  0
  186.4220  178.0390  146.5380 C   0  0  0  0  0  2  0  0  0  0  0  0
  188.1230  178.4060  142.5310 N   0  0  0  0  0  2  0  0  0  0  0  0
  185.5520  178.4720  144.1680 C   0  0  0  0  0  0  0  0  0  0  0  0
  188.2010  178.3640  140.1210 C   0  0  0  0  0  2  0  0  0  0  0  0
  184.3300  178.9650  146.2270 N   0  0  0  0  0  2  0  0  0  0  0  0
  184.3940  178.6770  142.0000 C   0  0  0  0  0  0  0  0  0  0  0  0
  183.1740  178.9880  144.0810 C   0  0  0  0  0  3  0  0  0  0  0  0
  187.1880  176.6540  144.6750 C   0  0  0  0  0  1  0  0  0  0  0  0
  185.6470  178.5400  139.9070 C   0  0  0  0  0  3  0  0  0  0  0  0
  184.4140  178.6540  140.5710 C   0  0  0  0  0  0  0  0  0  0  0  0
  189.0550  178.3530  141.4050 C   0  0  2  0  0  3  0  0  0  0  0  0
  186.8050  178.4260  142.0110 C   0  0  0  0  0  0  0  0  0  0  0  0
  183.1980  178.9110  142.6940 C   0  0  0  0  0  3  0  0  0  0  0  0
  181.2230  177.7490  138.7120 C   0  0  0  0  0  0  0  0  0  0  0  0
  180.9120  178.9640  138.0960 C   0  0  0  0  0  3  0  0  0  0  0  0
  183.1870  178.7570  139.7360 C   0  0  0  0  0  0  0  0  0  0  0  0
  181.7370  180.0740  138.2900 C   0  0  0  0  0  3  0  0  0  0  0  0
  182.3560  177.6460  139.5230 C   0  0  0  0  0  3  0  0  0  0  0  0
  182.8700  179.9700  139.1010 C   0  0  0  0  0  3  0  0  0  0  0  0
  180.4060  176.6440  138.5170 O   0  0  0  0  0  1  0  0  0  0  0  0
  189.9360  177.1090  141.4880 C   0  0  0  0  0  2  0  0  0  0  0  0
  191.1620  177.3250  142.3670 C   0  0  0  0  0  2  0  0  0  0  0  0
  190.4180  178.7070  144.7240 O   0  0  0  0  0  0  0  0  0  0  0  0
  190.9970  176.5990  143.6920 C   0  0  2  0  0  3  0  0  0  0  0  0
  190.9700  177.5800  144.8400 C   0  0  0  0  0  0  0  0  0  0  0  0
  192.1770  175.8830  146.2360 C   0  0  0  0  0  2  0  0  0  0  0  0
  191.8240  174.9780  145.0540 C   0  0  0  0  0  2  0  0  0  0  0  0
  192.0520  175.6750  143.8540 O   0  0  0  0  0  0  0  0  0  0  0  0
  191.4740  177.1570  146.1090 N   0  0  0  0  0  2  0  0  0  0  0  0
  1 10  1  0  0  0  0
  2 13  1  6  0  0  0
  2  6  1  0  0  0  0
  3  8  2  0  0  0  0
  4 17  2  0  0  0  0
  6  5  1  0  0  0  0
  8  1  1  0  0  0  0
  8  2  1  0  0  0  0
  9  4  1  0  0  0  0
  9 16  1  0  0  0  0
 10  5  1  0  0  0  0
 11 18  2  0  0  0  0
 11  3  1  0  0  0  0
 12  1  2  0  0  0  0
 14 15  2  0  0  0  0
 14  4  1  0  0  0  0
 15 11  1  0  0  0  0
 16 26  1  1  0  0  0
 16  7  1  0  0  0  0
 17  7  1  0  0  0  0
 17  3  1  0  0  0  0
 18 12  1  0  0  0  0
 19 23  1  0  0  0  0
 20 22  1  0  0  0  0
 20 19  2  0  0  0  0
 21 15  1  0  0  0  0
 22 24  2  0  0  0  0
 23 21  2  0  0  0  0
 24 21  1  0  0  0  0
 25 19  1  0  0  0  0
 26 27  1  0  0  0  0
 28 30  2  0  0  0  0
 29 27  1  6  0  0  0
 29 33  1  0  0  0  0
 29 30  1  0  0  0  0
 30 34  1  0  0  0  0
 32 31  1  0  0  0  0
 33 32  1  0  0  0  0
 34 31  1  0  0  0  0
M  END
>  <MODEL>
3

>  <REMARK>
 VINA RESULT:     -10.8      3.224      5.450
  Name = 
  4 active torsions:
  status: ('A' for Active; 'I' for Inactive)
    1  A    between atoms: C_3  and  C_13
    2  A    between atoms: C_3  and  C_17
    3  A    between atoms: C_12  and  C_28
    4  A    between atoms: C_17  and  C_29
                            x       y       z     vdW  Elec       q    Type
                         _______ _______ _______ _____ _____    ______ ____

>  <TORSDO>
F 4

$$$$
=
 OpenBabel11052413563D

 34 39  0  0  1  0  0  0  0  0999 V2000
  186.7070  178.3370  140.3090 C   0  0  0  0  0  0  0  0  0  0  0  0
  184.1980  178.4350  140.1750 C   0  0  2  0  0  3  0  0  0  0  0  0
  185.4940  178.3740  142.4220 C   0  0  0  0  0  0  0  0  0  0  0  0
  184.3960  178.5860  144.5710 C   0  0  0  0  0  0  0  0  0  0  0  0
  185.6190  179.1570  138.2770 N   0  0  0  0  0  2  0  0  0  0  0  0
  184.4400  178.3880  138.6580 C   0  0  0  0  0  2  0  0  0  0  0  0
  183.0880  179.0810  142.7540 N   0  0  0  0  0  2  0  0  0  0  0  0
  185.4820  178.3910  140.9970 C   0  0  0  0  0  0  0  0  0  0  0  0
  183.0820  178.9430  145.1610 C   0  0  0  0  0  2  0  0  0  0  0  0
  186.7290  178.5660  138.9010 N   0  0  0  0  0  2  0  0  0  0  0  0
  186.7160  178.0950  143.1120 C   0  0  0  0  0  0  0  0  0  0  0  0
  187.9000  178.1000  140.9870 C   0  0  0  0  0  3  0  0  0  0  0  0
  183.3250  177.2340  140.5020 C   0  0  0  0  0  1  0  0  0  0  0  0
  185.5580  178.2660  145.2570 C   0  0  0  0  0  3  0  0  0  0  0  0
  186.7380  178.0060  144.5380 C   0  0  0  0  0  0  0  0  0  0  0  0
  182.2290  179.2770  143.9210 C   0  0  2  0  0  3  0  0  0  0  0  0
  184.3560  178.6440  143.2090 C   0  0  0  0  0  0  0  0  0  0  0  0
  187.8980  177.9630  142.3700 C   0  0  0  0  0  3  0  0  0  0  0  0
  190.3290  177.1210  145.4200 C   0  0  0  0  0  0  0  0  0  0  0  0
  190.2340  176.9420  146.8020 C   0  0  0  0  0  3  0  0  0  0  0  0
  187.9580  177.6610  145.3160 C   0  0  0  0  0  0  0  0  0  0  0  0
  189.0060  177.1150  147.4450 C   0  0  0  0  0  3  0  0  0  0  0  0
  189.1960  177.4720  144.6810 C   0  0  0  0  0  3  0  0  0  0  0  0
  187.8740  177.4680  146.7050 C   0  0  0  0  0  3  0  0  0  0  0  0
  191.5470  176.9450  144.7790 O   0  0  0  0  0  1  0  0  0  0  0  0
  180.9860  178.3930  143.8330 C   0  0  0  0  0  2  0  0  0  0  0  0
  179.6980  179.2050  143.8300 C   0  0  0  0  0  2  0  0  0  0  0  0
  179.2150  177.1910  141.8990 O   0  0  0  0  0  0  0  0  0  0  0  0
  179.2960  179.5530  142.4050 C   0  0  2  0  0  3  0  0  0  0  0  0
  179.4610  178.3590  141.4960 C   0  0  0  0  0  0  0  0  0  0  0  0
  180.1420  179.9270  139.6630 C   0  0  0  0  0  2  0  0  0  0  0  0
  179.6300  180.9700  140.6590 C   0  0  0  0  0  2  0  0  0  0  0  0
  180.0790  180.6360  141.9490 O   0  0  0  0  0  0  0  0  0  0  0  0
  179.7850  178.5870  140.1230 N   0  0  0  0  0  2  0  0  0  0  0  0
  1 12  2  0  0  0  0
  1  8  1  0  0  0  0
  2 13  1  1  0  0  0
  2  8  1  0  0  0  0
  3 11  1  0  0  0  0
  3 17  1  0  0  0  0
  4  9  1  0  0  0  0
  4 14  1  0  0  0  0
  5  6  1  0  0  0  0
  5 10  1  0  0  0  0
  6  2  1  0  0  0  0
  7 17  1  0  0  0  0
  7 16  1  0  0  0  0
  8  3  2  0  0  0  0
 10  1  1  0  0  0  0
 11 15  1  0  0  0  0
 12 18  1  0  0  0  0
 15 14  2  0  0  0  0
 15 21  1  0  0  0  0
 16 26  1  6  0  0  0
 16  9  1  0  0  0  0
 17  4  2  0  0  0  0
 18 11  2  0  0  0  0
 19 20  1  0  0  0  0
 20 22  2  0  0  0  0
 21 24  2  0  0  0  0
 23 21  1  0  0  0  0
 23 19  2  0  0  0  0
 24 22  1  0  0  0  0
 25 19  1  0  0  0  0
 27 26  1  0  0  0  0
 29 27  1  1  0  0  0
 30 28  2  0  0  0  0
 30 29  1  0  0  0  0
 31 34  1  0  0  0  0
 31 32  1  0  0  0  0
 32 33  1  0  0  0  0
 33 29  1  0  0  0  0
 34 30  1  0  0  0  0
M  END
>  <MODEL>
4

>  <REMARK>
 VINA RESULT:     -10.6      4.298      9.168
  Name = 
  4 active torsions:
  status: ('A' for Active; 'I' for Inactive)
    1  A    between atoms: C_3  and  C_13
    2  A    between atoms: C_3  and  C_17
    3  A    between atoms: C_12  and  C_28
    4  A    between atoms: C_17  and  C_29
                            x       y       z     vdW  Elec       q    Type
                         _______ _______ _______ _____ _____    ______ ____

>  <TORSDO>
F 4

$$$$
=
 OpenBabel11052413563D

 34 39  0  0  1  0  0  0  0  0999 V2000
  184.0040  178.8030  144.8380 C   0  0  0  0  0  0  0  0  0  0  0  0
  186.4510  178.2700  144.6030 C   0  0  2  0  0  3  0  0  0  0  0  0
  184.8670  178.5790  142.5710 C   0  0  0  0  0  0  0  0  0  0  0  0
  185.6590  178.5540  140.2810 C   0  0  0  0  0  0  0  0  0  0  0  0
  185.5460  179.2860  146.6750 N   0  0  0  0  0  2  0  0  0  0  0  0
  186.4280  178.2550  146.1400 C   0  0  0  0  0  2  0  0  0  0  0  0
  187.2980  178.6720  141.8790 N   0  0  0  0  0  2  0  0  0  0  0  0
  185.0900  178.5650  143.9780 C   0  0  0  0  0  0  0  0  0  0  0  0
  186.9190  178.5840  139.4990 C   0  0  0  0  0  2  0  0  0  0  0  0
  184.2450  179.0020  146.2300 N   0  0  0  0  0  2  0  0  0  0  0  0
  183.5270  178.6280  142.0710 C   0  0  0  0  0  0  0  0  0  0  0  0
  182.7040  178.8840  144.3460 C   0  0  0  0  0  3  0  0  0  0  0  0
  186.9390  176.8960  144.1720 C   0  0  0  0  0  1  0  0  0  0  0  0
  184.3660  178.5480  139.7780 C   0  0  0  0  0  3  0  0  0  0  0  0
  183.2770  178.5760  140.6650 C   0  0  0  0  0  0  0  0  0  0  0  0
  188.0000  178.6700  140.5960 C   0  0  2  0  0  3  0  0  0  0  0  0
  185.9090  178.5740  141.6220 C   0  0  0  0  0  0  0  0  0  0  0  0
  182.4710  178.7800  142.9800 C   0  0  0  0  0  3  0  0  0  0  0  0
  179.9510  177.3540  139.2850 C   0  0  0  0  0  0  0  0  0  0  0  0
  179.3530  178.5590  138.9080 C   0  0  0  0  0  3  0  0  0  0  0  0
  181.9090  178.5610  140.0800 C   0  0  0  0  0  0  0  0  0  0  0  0
  180.0290  179.7650  139.1070 C   0  0  0  0  0  3  0  0  0  0  0  0
  181.2230  177.3560  139.8620 C   0  0  0  0  0  3  0  0  0  0  0  0
  181.3010  179.7650  139.6860 C   0  0  0  0  0  3  0  0  0  0  0  0
  179.2820  176.1550  139.0830 O   0  0  0  0  0  1  0  0  0  0  0  0
  188.9820  177.5030  140.5160 C   0  0  0  0  0  2  0  0  0  0  0  0
  189.0850  176.7420  141.8320 C   0  0  0  0  0  2  0  0  0  0  0  0
  190.5830  174.7800  143.2190 O   0  0  0  0  0  0  0  0  0  0  0  0
  190.3810  177.0930  142.5450 C   0  0  2  0  0  3  0  0  0  0  0  0
  190.7810  175.9920  143.4990 C   0  0  0  0  0  0  0  0  0  0  0  0
  191.6800  177.7470  145.0460 C   0  0  0  0  0  2  0  0  0  0  0  0
  191.4590  178.6350  143.8210 C   0  0  0  0  0  2  0  0  0  0  0  0
  190.2210  178.3140  143.2350 O   0  0  0  0  0  0  0  0  0  0  0  0
  191.5070  176.3440  144.6780 N   0  0  0  0  0  2  0  0  0  0  0  0
  1 10  1  0  0  0  0
  2 13  1  6  0  0  0
  2  6  1  0  0  0  0
  3  8  1  0  0  0  0
  4 17  1  0  0  0  0
  6  5  1  0  0  0  0
  8  2  1  0  0  0  0
  8  1  2  0  0  0  0
  9  4  1  0  0  0  0
  9 16  1  0  0  0  0
 10  5  1  0  0  0  0
 11  3  1  0  0  0  0
 11 18  1  0  0  0  0
 12  1  1  0  0  0  0
 14  4  2  0  0  0  0
 14 15  1  0  0  0  0
 15 11  2  0  0  0  0
 16 26  1  1  0  0  0
 16  7  1  0  0  0  0
 17  7  1  0  0  0  0
 17  3  2  0  0  0  0
 18 12  2  0  0  0  0
 19 23  1  0  0  0  0
 20 22  1  0  0  0  0
 20 19  2  0  0  0  0
 21 15  1  0  0  0  0
 22 24  2  0  0  0  0
 23 21  2  0  0  0  0
 24 21  1  0  0  0  0
 25 19  1  0  0  0  0
 26 27  1  0  0  0  0
 28 30  2  0  0  0  0
 29 27  1  1  0  0  0
 29 33  1  0  0  0  0
 29 30  1  0  0  0  0
 30 34  1  0  0  0  0
 32 31  1  0  0  0  0
 33 32  1  0  0  0  0
 34 31  1  0  0  0  0
M  END
>  <MODEL>
5

>  <REMARK>
 VINA RESULT:     -10.4      3.246      5.308
  Name = 
  4 active torsions:
  status: ('A' for Active; 'I' for Inactive)
    1  A    between atoms: C_3  and  C_13
    2  A    between atoms: C_3  and  C_17
    3  A    between atoms: C_12  and  C_28
    4  A    between atoms: C_17  and  C_29
                            x       y       z     vdW  Elec       q    Type
                         _______ _______ _______ _____ _____    ______ ____

>  <TORSDO>
F 4

$$$$
=
 OpenBabel11052413563D

 34 39  0  0  1  0  0  0  0  0999 V2000
  187.4410  177.8400  145.7430 C   0  0  0  0  0  0  0  0  0  0  0  0
  189.3950  177.2890  144.2570 C   0  0  2  0  0  3  0  0  0  0  0  0
  187.0920  178.0580  143.3410 C   0  0  0  0  0  0  0  0  0  0  0  0
  186.6940  178.4770  140.9880 C   0  0  0  0  0  0  0  0  0  0  0  0
  189.7170  177.8870  146.6410 N   0  0  0  0  0  2  0  0  0  0  0  0
  190.1010  176.9600  145.5820 C   0  0  0  0  0  2  0  0  0  0  0  0
  188.8950  178.2120  141.5740 N   0  0  0  0  0  2  0  0  0  0  0  0
  187.9510  177.7480  144.4350 C   0  0  0  0  0  0  0  0  0  0  0  0
  187.4260  178.6260  139.7070 C   0  0  0  0  0  2  0  0  0  0  0  0
  188.3370  177.7410  146.8490 N   0  0  0  0  0  2  0  0  0  0  0  0
  185.6940  178.2500  143.5770 C   0  0  0  0  0  0  0  0  0  0  0  0
  186.0870  178.0620  145.9700 C   0  0  0  0  0  3  0  0  0  0  0  0
  189.4410  176.0170  143.4240 C   0  0  0  0  0  1  0  0  0  0  0  0
  185.3290  178.6150  141.1890 C   0  0  0  0  0  3  0  0  0  0  0  0
  184.8030  178.4950  142.4870 C   0  0  0  0  0  0  0  0  0  0  0  0
  188.8980  178.4510  140.1310 C   0  0  2  0  0  3  0  0  0  0  0  0
  187.5500  178.2130  142.0170 C   0  0  0  0  0  0  0  0  0  0  0  0
  185.2220  178.2460  144.8970 C   0  0  0  0  0  3  0  0  0  0  0  0
  181.0960  178.8320  141.7100 C   0  0  0  0  0  0  0  0  0  0  0  0
  180.5630  178.9980  142.9900 C   0  0  0  0  0  3  0  0  0  0  0  0
  183.3320  178.6440  142.6520 C   0  0  0  0  0  0  0  0  0  0  0  0
  181.4080  178.9960  144.1020 C   0  0  0  0  0  3  0  0  0  0  0  0
  182.4730  178.6620  141.5420 C   0  0  0  0  0  3  0  0  0  0  0  0
  182.7840  178.8240  143.9340 C   0  0  0  0  0  3  0  0  0  0  0  0
  180.2580  178.8390  140.6030 O   0  0  0  0  0  1  0  0  0  0  0  0
  189.5670  177.2940  139.3910 C   0  0  0  0  0  2  0  0  0  0  0  0
  191.0250  177.1150  139.7960 C   0  0  0  0  0  2  0  0  0  0  0  0
  193.8460  177.1700  139.5540 O   0  0  0  0  0  0  0  0  0  0  0  0
  191.7500  176.2420  138.7840 C   0  0  2  0  0  3  0  0  0  0  0  0
  193.1720  176.7160  138.5910 C   0  0  0  0  0  0  0  0  0  0  0  0
  192.9950  176.0620  136.1780 C   0  0  0  0  0  2  0  0  0  0  0  0
  191.7130  175.3930  136.6760 C   0  0  0  0  0  2  0  0  0  0  0  0
  191.0500  176.2640  137.5590 O   0  0  0  0  0  0  0  0  0  0  0  0
  193.7860  176.5220  137.3160 N   0  0  0  0  0  2  0  0  0  0  0  0
  1 12  1  0  0  0  0
  1 10  1  0  0  0  0
  2 13  1  6  0  0  0
  2  8  1  0  0  0  0
  2  6  1  0  0  0  0
  3 11  1  0  0  0  0
  3  8  1  0  0  0  0
  4 14  2  0  0  0  0
  4 17  1  0  0  0  0
  5 10  1  0  0  0  0
  6  5  1  0  0  0  0
  7 17  1  0  0  0  0
  8  1  2  0  0  0  0
  9 16  1  0  0  0  0
  9  4  1  0  0  0  0
 11 18  1  0  0  0  0
 14 15  1  0  0  0  0
 15 21  1  0  0  0  0
 15 11  2  0  0  0  0
 16 26  1  6  0  0  0
 16  7  1  0  0  0  0
 17  3  2  0  0  0  0
 18 12  2  0  0  0  0
 19 20  1  0  0  0  0
 20 22  2  0  0  0  0
 21 24  2  0  0  0  0
 23 19  2  0  0  0  0
 23 21  1  0  0  0  0
 24 22  1  0  0  0  0
 25 19  1  0  0  0  0
 26 27  1  0  0  0  0
 29 27  1  1  0  0  0
 30 29  1  0  0  0  0
 30 28  2  0  0  0  0
 31 32  1  0  0  0  0
 31 34  1  0  0  0  0
 32 33  1  0  0  0  0
 33 29  1  0  0  0  0
 34 30  1  0  0  0  0
M  END
>  <MODEL>
6

>  <REMARK>
 VINA RESULT:     -10.4      1.365      2.118
  Name = 
  4 active torsions:
  status: ('A' for Active; 'I' for Inactive)
    1  A    between atoms: C_3  and  C_13
    2  A    between atoms: C_3  and  C_17
    3  A    between atoms: C_12  and  C_28
    4  A    between atoms: C_17  and  C_29
                            x       y       z     vdW  Elec       q    Type
                         _______ _______ _______ _____ _____    ______ ____

>  <TORSDO>
F 4

$$$$
=
 OpenBabel11052413563D

 34 39  0  0  1  0  0  0  0  0999 V2000
  184.3000  178.8060  144.9660 C   0  0  0  0  0  0  0  0  0  0  0  0
  186.7270  178.1450  144.9690 C   0  0  2  0  0  3  0  0  0  0  0  0
  185.3640  178.5190  142.7930 C   0  0  0  0  0  0  0  0  0  0  0  0
  186.3680  178.4350  140.5900 C   0  0  0  0  0  0  0  0  0  0  0  0
  185.6820  179.2220  146.9420 N   0  0  0  0  0  2  0  0  0  0  0  0
  186.5560  178.1430  146.4970 C   0  0  0  0  0  2  0  0  0  0  0  0
  187.8510  178.4800  142.3380 N   0  0  0  0  0  2  0  0  0  0  0  0
  185.4500  178.5040  144.2150 C   0  0  0  0  0  0  0  0  0  0  0  0
  187.6980  178.3940  139.9330 C   0  0  0  0  0  2  0  0  0  0  0  0
  184.4170  179.0020  146.3750 N   0  0  0  0  0  2  0  0  0  0  0  0
  184.0820  178.6330  142.1670 C   0  0  0  0  0  0  0  0  0  0  0  0
  183.0600  178.9500  144.3510 C   0  0  0  0  0  3  0  0  0  0  0  0
  187.1810  176.7440  144.5910 C   0  0  0  0  0  1  0  0  0  0  0  0
  185.1320  178.4920  139.9650 C   0  0  0  0  0  3  0  0  0  0  0  0
  183.9650  178.5830  140.7440 C   0  0  0  0  0  0  0  0  0  0  0  0
  188.6710  178.4330  141.1280 C   0  0  2  0  0  3  0  0  0  0  0  0
  186.4900  178.4520  141.9490 C   0  0  0  0  0  0  0  0  0  0  0  0
  182.9520  178.8470  142.9690 C   0  0  0  0  0  3  0  0  0  0  0  0
  180.9750  179.8590  138.7710 C   0  0  0  0  0  0  0  0  0  0  0  0
  180.1600  178.7250  138.7470 C   0  0  0  0  0  3  0  0  0  0  0  0
  182.6610  178.6350  140.0300 C   0  0  0  0  0  0  0  0  0  0  0  0
  180.5850  177.5480  139.3670 C   0  0  0  0  0  3  0  0  0  0  0  0
  182.2150  179.8150  139.4130 C   0  0  0  0  0  3  0  0  0  0  0  0
  181.8260  177.5050  140.0080 C   0  0  0  0  0  3  0  0  0  0  0  0
  180.5520  181.0310  138.1590 O   0  0  0  0  0  1  0  0  0  0  0  0
  189.5940  177.2160  141.1470 C   0  0  0  0  0  2  0  0  0  0  0  0
  190.9410  177.5010  140.4940 C   0  0  0  0  0  2  0  0  0  0  0  0
  193.5550  177.1310  139.4690 O   0  0  0  0  0  0  0  0  0  0  0  0
  191.2280  176.4780  139.4070 C   0  0  2  0  0  3  0  0  0  0  0  0
  192.5800  176.7280  138.7810 C   0  0  0  0  0  0  0  0  0  0  0  0
  191.6330  175.9760  136.5850 C   0  0  0  0  0  2  0  0  0  0  0  0
  190.4770  175.5290  137.4820 C   0  0  0  0  0  2  0  0  0  0  0  0
  190.2110  176.5350  138.4300 O   0  0  0  0  0  0  0  0  0  0  0  0
  192.7710  176.3770  137.4090 N   0  0  0  0  0  2  0  0  0  0  0  0
  1 10  1  0  0  0  0
  2 13  1  6  0  0  0
  2  6  1  0  0  0  0
  3  8  1  0  0  0  0
  4 17  1  0  0  0  0
  6  5  1  0  0  0  0
  8  1  2  0  0  0  0
  8  2  1  0  0  0  0
  9  4  1  0  0  0  0
  9 16  1  0  0  0  0
 10  5  1  0  0  0  0
 11  3  1  0  0  0  0
 11 18  1  0  0  0  0
 12  1  1  0  0  0  0
 14  4  2  0  0  0  0
 14 15  1  0  0  0  0
 15 11  2  0  0  0  0
 16 26  1  1  0  0  0
 16  7  1  0  0  0  0
 17  7  1  0  0  0  0
 17  3  2  0  0  0  0
 18 12  2  0  0  0  0
 19 23  1  0  0  0  0
 20 19  2  0  0  0  0
 20 22  1  0  0  0  0
 21 15  1  0  0  0  0
 22 24  2  0  0  0  0
 23 21  2  0  0  0  0
 24 21  1  0  0  0  0
 25 19  1  0  0  0  0
 27 26  1  0  0  0  0
 29 27  1  1  0  0  0
 30 29  1  0  0  0  0
 30 28  2  0  0  0  0
 31 34  1  0  0  0  0
 31 32  1  0  0  0  0
 32 33  1  0  0  0  0
 33 29  1  0  0  0  0
 34 30  1  0  0  0  0
M  END
>  <MODEL>
7

>  <REMARK>
 VINA RESULT:     -10.2      2.566      4.158
  Name = 
  4 active torsions:
  status: ('A' for Active; 'I' for Inactive)
    1  A    between atoms: C_3  and  C_13
    2  A    between atoms: C_3  and  C_17
    3  A    between atoms: C_12  and  C_28
    4  A    between atoms: C_17  and  C_29
                            x       y       z     vdW  Elec       q    Type
                         _______ _______ _______ _____ _____    ______ ____

>  <TORSDO>
F 4

$$$$
=
 OpenBabel11052413563D

 34 39  0  0  1  0  0  0  0  0999 V2000
  186.9340  177.9150  146.1440 C   0  0  0  0  0  0  0  0  0  0  0  0
  188.9410  177.3660  144.7310 C   0  0  2  0  0  3  0  0  0  0  0  0
  186.6630  178.1000  143.7300 C   0  0  0  0  0  0  0  0  0  0  0  0
  186.3400  178.4860  141.3590 C   0  0  0  0  0  0  0  0  0  0  0  0
  189.1780  177.9960  147.1170 N   0  0  0  0  0  2  0  0  0  0  0  0
  189.6060  177.0610  146.0830 C   0  0  0  0  0  2  0  0  0  0  0  0
  188.5230  178.2520  142.0220 N   0  0  0  0  0  2  0  0  0  0  0  0
  187.4880  177.8120  144.8550 C   0  0  0  0  0  0  0  0  0  0  0  0
  187.1140  178.6280  140.1010 C   0  0  0  0  0  2  0  0  0  0  0  0
  187.7930  177.8390  147.2810 N   0  0  0  0  0  2  0  0  0  0  0  0
  185.2560  178.2800  143.9160 C   0  0  0  0  0  0  0  0  0  0  0  0
  185.5700  178.1250  146.3230 C   0  0  0  0  0  3  0  0  0  0  0  0
  189.0290  176.0850  143.9170 C   0  0  0  0  0  1  0  0  0  0  0  0
  184.9680  178.6120  141.5130 C   0  0  0  0  0  3  0  0  0  0  0  0
  184.4000  178.5020  142.7930 C   0  0  0  0  0  0  0  0  0  0  0  0
  188.5720  178.4740  140.5770 C   0  0  2  0  0  3  0  0  0  0  0  0
  187.1640  178.2440  142.4200 C   0  0  0  0  0  0  0  0  0  0  0  0
  184.7400  178.2870  145.2190 C   0  0  0  0  0  3  0  0  0  0  0  0
  180.7170  178.7850  141.8890 C   0  0  0  0  0  0  0  0  0  0  0  0
  180.1400  178.9670  143.1470 C   0  0  0  0  0  3  0  0  0  0  0  0
  182.9230  178.6380  142.9080 C   0  0  0  0  0  0  0  0  0  0  0  0
  180.9480  178.9920  144.2870 C   0  0  0  0  0  3  0  0  0  0  0  0
  182.1010  178.6280  141.7700 C   0  0  0  0  0  3  0  0  0  0  0  0
  182.3310  178.8330  144.1670 C   0  0  0  0  0  3  0  0  0  0  0  0
  179.9170  178.7650  140.7550 O   0  0  0  0  0  1  0  0  0  0  0  0
  189.2780  177.3150  139.8750 C   0  0  0  0  0  2  0  0  0  0  0  0
  190.2880  177.7950  138.8400 C   0  0  0  0  0  2  0  0  0  0  0  0
  189.0400  179.7530  137.2200 O   0  0  0  0  0  0  0  0  0  0  0  0
  189.8020  177.4690  137.4370 C   0  0  2  0  0  3  0  0  0  0  0  0
  188.8610  178.5390  136.9350 C   0  0  0  0  0  0  0  0  0  0  0  0
  187.5690  176.7530  135.7420 C   0  0  0  0  0  2  0  0  0  0  0  0
  188.7940  175.9170  136.1170 C   0  0  0  0  0  2  0  0  0  0  0  0
  189.1650  176.2100  137.4420 O   0  0  0  0  0  0  0  0  0  0  0  0
  187.8280  178.1630  136.0220 N   0  0  0  0  0  2  0  0  0  0  0  0
  1 12  1  0  0  0  0
  1 10  1  0  0  0  0
  2 13  1  6  0  0  0
  2  8  1  0  0  0  0
  2  6  1  0  0  0  0
  3 11  1  0  0  0  0
  3  8  1  0  0  0  0
  4 14  2  0  0  0  0
  4 17  1  0  0  0  0
  5 10  1  0  0  0  0
  6  5  1  0  0  0  0
  7 17  1  0  0  0  0
  8  1  2  0  0  0  0
  9 16  1  0  0  0  0
  9  4  1  0  0  0  0
 11 18  1  0  0  0  0
 14 15  1  0  0  0  0
 15 21  1  0  0  0  0
 15 11  2  0  0  0  0
 16 26  1  6  0  0  0
 16  7  1  0  0  0  0
 17  3  2  0  0  0  0
 18 12  2  0  0  0  0
 19 20  1  0  0  0  0
 20 22  2  0  0  0  0
 21 24  2  0  0  0  0
 23 19  2  0  0  0  0
 23 21  1  0  0  0  0
 24 22  1  0  0  0  0
 25 19  1  0  0  0  0
 27 26  1  0  0  0  0
 29 33  1  0  0  0  0
 29 27  1  1  0  0  0
 30 28  2  0  0  0  0
 30 29  1  0  0  0  0
 31 34  1  0  0  0  0
 31 32  1  0  0  0  0
 32 33  1  0  0  0  0
 34 30  1  0  0  0  0
M  END
>  <MODEL>
8

>  <REMARK>
 VINA RESULT:     -10.2      2.289      3.115
  Name = 
  4 active torsions:
  status: ('A' for Active; 'I' for Inactive)
    1  A    between atoms: C_3  and  C_13
    2  A    between atoms: C_3  and  C_17
    3  A    between atoms: C_12  and  C_28
    4  A    between atoms: C_17  and  C_29
                            x       y       z     vdW  Elec       q    Type
                         _______ _______ _______ _____ _____    ______ ____

>  <TORSDO>
F 4

$$$$
=
 OpenBabel11052413563D

 34 39  0  0  1  0  0  0  0  0999 V2000
  187.5010  178.4480  139.6870 C   0  0  0  0  0  0  0  0  0  0  0  0
  185.4120  178.2620  138.2970 C   0  0  2  0  0  3  0  0  0  0  0  0
  185.3780  178.5040  140.8800 C   0  0  0  0  0  0  0  0  0  0  0  0
  183.3250  178.7490  142.1440 C   0  0  0  0  0  0  0  0  0  0  0  0
  187.5610  178.9970  137.3030 N   0  0  0  0  0  2  0  0  0  0  0  0
  186.3990  178.1340  137.1250 C   0  0  0  0  0  2  0  0  0  0  0  0
  183.1050  178.9670  139.8720 N   0  0  0  0  0  2  0  0  0  0  0  0
  186.0950  178.4180  139.6530 C   0  0  0  0  0  0  0  0  0  0  0  0
  181.8760  179.0020  141.9460 C   0  0  0  0  0  2  0  0  0  0  0  0
  188.2270  178.5760  138.4640 N   0  0  0  0  0  2  0  0  0  0  0  0
  186.0880  178.4100  142.1190 C   0  0  0  0  0  0  0  0  0  0  0  0
  188.1900  178.3910  140.8940 C   0  0  0  0  0  3  0  0  0  0  0  0
  184.5660  177.0000  138.2790 C   0  0  0  0  0  1  0  0  0  0  0  0
  183.9890  178.6070  143.3530 C   0  0  0  0  0  3  0  0  0  0  0  0
  185.3820  178.4260  143.3610 C   0  0  0  0  0  0  0  0  0  0  0  0
  181.7600  179.1510  140.4160 C   0  0  2  0  0  3  0  0  0  0  0  0
  183.9850  178.7050  140.9500 C   0  0  0  0  0  0  0  0  0  0  0  0
  187.4890  178.3550  142.0940 C   0  0  0  0  0  3  0  0  0  0  0  0
  187.8730  177.4260  146.0550 C   0  0  0  0  0  0  0  0  0  0  0  0
  187.2570  177.9370  147.1990 C   0  0  0  0  0  3  0  0  0  0  0  0
  186.0510  178.2730  144.6820 C   0  0  0  0  0  0  0  0  0  0  0  0
  186.0380  178.6100  147.0930 C   0  0  0  0  0  3  0  0  0  0  0  0
  187.2700  177.5880  144.8050 C   0  0  0  0  0  3  0  0  0  0  0  0
  185.4360  178.7730  145.8420 C   0  0  0  0  0  3  0  0  0  0  0  0
  189.0820  176.7530  146.1600 O   0  0  0  0  0  1  0  0  0  0  0  0
  180.7900  178.1340  139.8190 C   0  0  0  0  0  2  0  0  0  0  0  0
  181.3110  176.7060  139.9270 C   0  0  0  0  0  2  0  0  0  0  0  0
  179.0570  175.3020  140.9110 O   0  0  0  0  0  0  0  0  0  0  0  0
  180.5020  175.7800  139.0330 C   0  0  2  0  0  3  0  0  0  0  0  0
  179.6090  174.8840  139.8590 C   0  0  0  0  0  0  0  0  0  0  0  0
  179.9870  173.0640  138.1770 C   0  0  0  0  0  2  0  0  0  0  0  0
  180.5940  174.2210  137.3810 C   0  0  0  0  0  2  0  0  0  0  0  0
  181.3800  175.0100  138.2400 O   0  0  0  0  0  0  0  0  0  0  0  0
  179.2990  173.5830  139.3560 N   0  0  0  0  0  2  0  0  0  0  0  0
  1 12  1  0  0  0  0
  2 13  1  1  0  0  0
  2  8  1  0  0  0  0
  3 17  2  0  0  0  0
  3 11  1  0  0  0  0
  4 14  2  0  0  0  0
  5 10  1  0  0  0  0
  6  5  1  0  0  0  0
  6  2  1  0  0  0  0
  7 16  1  0  0  0  0
  7 17  1  0  0  0  0
  8  1  2  0  0  0  0
  8  3  1  0  0  0  0
  9  4  1  0  0  0  0
 10  1  1  0  0  0  0
 11 15  2  0  0  0  0
 12 18  2  0  0  0  0
 14 15  1  0  0  0  0
 15 21  1  0  0  0  0
 16 26  1  6  0  0  0
 16  9  1  0  0  0  0
 17  4  1  0  0  0  0
 18 11  1  0  0  0  0
 19 25  1  0  0  0  0
 19 20  1  0  0  0  0
 21 23  1  0  0  0  0
 21 24  2  0  0  0  0
 22 20  2  0  0  0  0
 23 19  2  0  0  0  0
 24 22  1  0  0  0  0
 26 27  1  0  0  0  0
 29 30  1  0  0  0  0
 29 27  1  1  0  0  0
 30 28  2  0  0  0  0
 31 34  1  0  0  0  0
 32 31  1  0  0  0  0
 32 33  1  0  0  0  0
 33 29  1  0  0  0  0
 34 30  1  0  0  0  0
M  END
>  <MODEL>
9

>  <REMARK>
 VINA RESULT:      -9.7      4.578      8.334
  Name = 
  4 active torsions:
  status: ('A' for Active; 'I' for Inactive)
    1  A    between atoms: C_3  and  C_13
    2  A    between atoms: C_3  and  C_17
    3  A    between atoms: C_12  and  C_28
    4  A    between atoms: C_17  and  C_29
                            x       y       z     vdW  Elec       q    Type
                         _______ _______ _______ _____ _____    ______ ____

>  <TORSDO>
F 4

$$$$
