=
 OpenBabel11052412543D

 25 27  0  0  1  0  0  0  0  0999 V2000
  187.8110  176.6960  143.2440 C   0  0  1  0  0  3  0  0  0  0  0  0
  188.0550  177.7230  144.3480 C   0  0  1  0  0  0  0  0  0  0  0  0
  191.3750  176.8350  144.8710 O   0  0  0  0  0  0  0  0  0  0  0  0
  188.4500  178.0600  142.9000 C   0  0  1  0  0  3  0  0  0  0  0  0
  186.3350  177.7290  145.8290 C   0  0  1  0  0  3  0  0  0  0  0  0
  190.1290  176.4720  145.3950 C   0  0  0  0  0  2  0  0  0  0  0  0
  191.8990  176.5840  142.5350 C   0  0  0  0  0  2  0  0  0  0  0  0
  190.5980  177.0500  141.8840 C   0  0  1  0  0  3  0  0  0  0  0  0
  188.6720  177.8900  146.7710 N   0  0  0  0  0  0  0  0  0  0  0  0
  189.5800  178.2390  147.8540 C   0  0  0  0  0  1  0  0  0  0  0  0
  186.8900  178.4150  144.7280 O   0  0  0  0  0  0  0  0  0  0  0  0
  188.7150  175.6360  143.2770 O   0  0  0  0  0  1  0  0  0  0  0  0
  191.6490  175.8910  143.8740 C   0  0  0  0  0  2  0  0  0  0  0  0
  187.2620  177.8040  147.0150 C   0  0  0  0  0  0  0  0  0  0  0  0
  189.9770  178.1590  142.7230 C   0  0  0  0  0  2  0  0  0  0  0  0
  186.8160  177.7370  148.1930 O   0  0  0  0  0  0  0  0  0  0  0  0
  189.2040  177.6910  145.4210 C   0  0  2  0  0  3  0  0  0  0  0  0
  190.8850  177.5470  140.4780 C   0  0  0  0  0  2  0  0  0  0  0  0
  189.8520  177.0070  139.5070 C   0  0  0  0  0  1  0  0  0  0  0  0
  184.9310  178.2570  146.1360 C   0  0  0  0  0  2  0  0  0  0  0  0
  184.4410  179.2570  145.0970 C   0  0  0  0  0  2  0  0  0  0  0  0
  183.0930  178.8300  144.5450 C   0  0  0  0  0  2  0  0  0  0  0  0
  183.1540  178.7520  143.0610 C   0  0  0  0  0  0  0  0  0  0  0  0
  181.9950  178.8910  142.3070 O   0  0  0  0  0  1  0  0  0  0  0  0
  184.3120  178.5450  142.4550 C   0  0  0  0  0  2  0  0  0  0  0  0
  1 12  1  1  0  0  0
  1  2  1  0  0  0  0
  2 11  1  1  0  0  0
  2 17  1  0  0  0  0
  3  6  1  0  0  0  0
  4 15  1  1  0  0  0
  4  1  1  0  0  0  0
  4  2  1  0  0  0  0
  5 20  1  1  0  0  0
  5 14  1  0  0  0  0
  7 13  1  0  0  0  0
  8 18  1  6  0  0  0
  8  7  1  0  0  0  0
  8 15  1  0  0  0  0
  9 14  1  0  0  0  0
  9 10  1  0  0  0  0
 11  5  1  0  0  0  0
 13  3  1  0  0  0  0
 14 16  2  0  0  0  0
 17  6  1  1  0  0  0
 17  9  1  0  0  0  0
 19 18  1  0  0  0  0
 21 20  1  0  0  0  0
 22 21  1  0  0  0  0
 23 22  1  0  0  0  0
 24 23  1  0  0  0  0
 25 23  2  0  0  0  0
M  END
>  <MODEL>
1

>  <REMARK>
 VINA RESULT:      -7.1      0.000      0.000
  Name = 
  5 active torsions:
  status: ('A' for Active; 'I' for Inactive)
    1  A    between atoms: C_2  and  C_21
    2  A    between atoms: C_6  and  C_15
    3  A    between atoms: C_8  and  C_11
    4  A    between atoms: C_15  and  C_25
    5  A    between atoms: C_21  and  C_25
                            x       y       z     vdW  Elec       q    Type
                         _______ _______ _______ _____ _____    ______ ____

>  <TORSDO>
F 5

$$$$
=
 OpenBabel11052412543D

 25 27  0  0  1  0  0  0  0  0999 V2000
  190.1680  176.4140  142.3640 C   0  0  1  0  0  3  0  0  0  0  0  0
  189.4800  177.6980  141.9050 C   0  0  1  0  0  0  0  0  0  0  0  0
  187.2240  177.8060  144.5470 O   0  0  0  0  0  0  0  0  0  0  0  0
  190.6010  177.7740  142.9540 C   0  0  1  0  0  3  0  0  0  0  0  0
  189.0560  177.6240  139.6760 C   0  0  1  0  0  3  0  0  0  0  0  0
  187.2500  177.2780  143.2510 C   0  0  0  0  0  2  0  0  0  0  0  0
  188.8270  177.1540  146.2210 C   0  0  0  0  0  2  0  0  0  0  0  0
  190.1160  177.1180  145.4040 C   0  0  1  0  0  3  0  0  0  0  0  0
  187.2510  178.5730  141.1640 N   0  0  0  0  0  0  0  0  0  0  0  0
  186.0520  179.3780  141.3470 C   0  0  0  0  0  1  0  0  0  0  0  0
  189.9300  178.1490  140.6500 O   0  0  0  0  0  0  0  0  0  0  0  0
  189.3770  175.6480  143.2180 O   0  0  0  0  0  1  0  0  0  0  0  0
  187.6120  176.7530  145.3840 C   0  0  0  0  0  2  0  0  0  0  0  0
  187.6740  178.2000  139.8470 C   0  0  0  0  0  0  0  0  0  0  0  0
  190.0740  178.2030  144.3360 C   0  0  0  0  0  2  0  0  0  0  0  0
  186.8860  178.3020  138.8660 O   0  0  0  0  0  0  0  0  0  0  0  0
  188.0540  178.2020  142.3330 C   0  0  2  0  0  3  0  0  0  0  0  0
  191.3050  177.3290  146.3260 C   0  0  0  0  0  2  0  0  0  0  0  0
  191.9780  176.0030  146.6290 C   0  0  0  0  0  1  0  0  0  0  0  0
  189.6240  177.8440  138.2710 C   0  0  0  0  0  2  0  0  0  0  0  0
  190.2030  176.5720  137.6670 C   0  0  0  0  0  2  0  0  0  0  0  0
  191.2820  176.0010  138.5690 C   0  0  0  0  0  2  0  0  0  0  0  0
  192.6260  176.3780  138.0540 C   0  0  0  0  0  0  0  0  0  0  0  0
  193.5550  176.9690  138.9000 O   0  0  0  0  0  1  0  0  0  0  0  0
  192.9370  176.1550  136.7870 C   0  0  0  0  0  2  0  0  0  0  0  0
  1  4  1  0  0  0  0
  1 12  1  1  0  0  0
  2 11  1  6  0  0  0
  2 17  1  0  0  0  0
  2  1  1  0  0  0  0
  2  4  1  0  0  0  0
  3 13  1  0  0  0  0
  4 15  1  1  0  0  0
  5 20  1  6  0  0  0
  5 14  1  0  0  0  0
  5 11  1  0  0  0  0
  6  3  1  0  0  0  0
  8  7  1  0  0  0  0
  8 18  1  1  0  0  0
  9 10  1  0  0  0  0
  9 17  1  0  0  0  0
 13  7  1  0  0  0  0
 14  9  1  0  0  0  0
 15  8  1  0  0  0  0
 16 14  2  0  0  0  0
 17  6  1  6  0  0  0
 18 19  1  0  0  0  0
 21 20  1  0  0  0  0
 21 22  1  0  0  0  0
 23 22  1  0  0  0  0
 23 24  1  0  0  0  0
 25 23  2  0  0  0  0
M  END
>  <MODEL>
2

>  <REMARK>
 VINA RESULT:      -7.1      2.740      6.880
  Name = 
  5 active torsions:
  status: ('A' for Active; 'I' for Inactive)
    1  A    between atoms: C_2  and  C_21
    2  A    between atoms: C_6  and  C_15
    3  A    between atoms: C_8  and  C_11
    4  A    between atoms: C_15  and  C_25
    5  A    between atoms: C_21  and  C_25
                            x       y       z     vdW  Elec       q    Type
                         _______ _______ _______ _____ _____    ______ ____

>  <TORSDO>
F 5

$$$$
=
 OpenBabel11052412543D

 25 27  0  0  1  0  0  0  0  0999 V2000
  188.5890  177.9970  143.9380 C   0  0  1  0  0  3  0  0  0  0  0  0
  187.8480  177.4930  142.7010 C   0  0  1  0  0  0  0  0  0  0  0  0
  190.6390  177.5260  140.6300 O   0  0  0  0  0  0  0  0  0  0  0  0
  188.6070  176.4920  143.5870 C   0  0  1  0  0  3  0  0  0  0  0  0
  185.8770  178.5900  142.4470 C   0  0  1  0  0  3  0  0  0  0  0  0
  189.6100  178.4130  140.9650 C   0  0  0  0  0  2  0  0  0  0  0  0
  192.1410  176.6300  142.2840 C   0  0  0  0  0  2  0  0  0  0  0  0
  191.1800  176.3320  143.4320 C   0  0  1  0  0  3  0  0  0  0  0  0
  187.2410  178.1710  140.3650 N   0  0  0  0  0  0  0  0  0  0  0  0
  187.3410  178.0550  138.9170 C   0  0  0  0  0  1  0  0  0  0  0  0
  186.4570  177.3850  142.8930 O   0  0  0  0  0  0  0  0  0  0  0  0
  189.7700  178.6690  143.6290 O   0  0  0  0  0  1  0  0  0  0  0  0
  191.7030  177.8540  141.4780 C   0  0  0  0  0  2  0  0  0  0  0  0
  186.0730  178.7490  140.9610 C   0  0  0  0  0  0  0  0  0  0  0  0
  189.8330  175.8960  142.8700 C   0  0  0  0  0  2  0  0  0  0  0  0
  185.2620  179.4210  140.2660 O   0  0  0  0  0  0  0  0  0  0  0  0
  188.3140  177.6340  141.2060 C   0  0  2  0  0  3  0  0  0  0  0  0
  191.7650  175.2400  144.3110 C   0  0  0  0  0  2  0  0  0  0  0  0
  191.9220  175.7390  145.7360 C   0  0  0  0  0  1  0  0  0  0  0  0
  184.4060  178.6630  142.8650 C   0  0  0  0  0  2  0  0  0  0  0  0
  184.2240  178.6600  144.3770 C   0  0  0  0  0  2  0  0  0  0  0  0
  185.2610  179.5520  145.0360 C   0  0  0  0  0  2  0  0  0  0  0  0
  185.7120  178.9450  146.3170 C   0  0  0  0  0  0  0  0  0  0  0  0
  185.7280  179.7040  147.4800 O   0  0  0  0  0  1  0  0  0  0  0  0
  186.1040  177.6810  146.3500 C   0  0  0  0  0  2  0  0  0  0  0  0
  1 12  1  6  0  0  0
  2 11  1  1  0  0  0
  2  4  1  0  0  0  0
  2  1  1  0  0  0  0
  3  6  1  0  0  0  0
  3 13  1  0  0  0  0
  4 15  1  6  0  0  0
  4  1  1  0  0  0  0
  5 20  1  6  0  0  0
  5 11  1  0  0  0  0
  7  8  1  0  0  0  0
  8 18  1  1  0  0  0
  9 14  1  0  0  0  0
  9 17  1  0  0  0  0
 10  9  1  0  0  0  0
 13  7  1  0  0  0  0
 14  5  1  0  0  0  0
 15  8  1  0  0  0  0
 16 14  2  0  0  0  0
 17  6  1  1  0  0  0
 17  2  1  0  0  0  0
 18 19  1  0  0  0  0
 20 21  1  0  0  0  0
 21 22  1  0  0  0  0
 22 23  1  0  0  0  0
 23 25  2  0  0  0  0
 23 24  1  0  0  0  0
M  END
>  <MODEL>
3

>  <REMARK>
 VINA RESULT:      -7.0      2.250      4.522
  Name = 
  5 active torsions:
  status: ('A' for Active; 'I' for Inactive)
    1  A    between atoms: C_2  and  C_21
    2  A    between atoms: C_6  and  C_15
    3  A    between atoms: C_8  and  C_11
    4  A    between atoms: C_15  and  C_25
    5  A    between atoms: C_21  and  C_25
                            x       y       z     vdW  Elec       q    Type
                         _______ _______ _______ _____ _____    ______ ____

>  <TORSDO>
F 5

$$$$
=
 OpenBabel11052412543D

 25 27  0  0  1  0  0  0  0  0999 V2000
  190.1300  176.3850  142.1930 C   0  0  1  0  0  3  0  0  0  0  0  0
  189.4380  177.6680  141.7380 C   0  0  1  0  0  0  0  0  0  0  0  0
  187.2580  177.8220  144.4410 O   0  0  0  0  0  0  0  0  0  0  0  0
  190.5880  177.7500  142.7550 C   0  0  1  0  0  3  0  0  0  0  0  0
  188.9510  177.5710  139.5230 C   0  0  1  0  0  3  0  0  0  0  0  0
  187.2430  177.2790  143.1510 C   0  0  0  0  0  2  0  0  0  0  0  0
  188.9020  177.1800  146.0770 C   0  0  0  0  0  2  0  0  0  0  0  0
  190.1680  177.1260  145.2250 C   0  0  1  0  0  3  0  0  0  0  0  0
  187.1940  178.5490  141.0500 N   0  0  0  0  0  0  0  0  0  0  0  0
  186.0060  179.3640  141.2560 C   0  0  0  0  0  1  0  0  0  0  0  0
  189.8550  178.1010  140.4660 O   0  0  0  0  0  0  0  0  0  0  0  0
  189.3590  175.6350  143.0790 O   0  0  0  0  0  1  0  0  0  0  0  0
  187.6620  176.7770  145.2800 C   0  0  0  0  0  2  0  0  0  0  0  0
  187.5770  178.1580  139.7260 C   0  0  0  0  0  0  0  0  0  0  0  0
  190.1020  178.1980  144.1460 C   0  0  0  0  0  2  0  0  0  0  0  0
  186.7630  178.2530  138.7670 O   0  0  0  0  0  0  0  0  0  0  0  0
  188.0270  178.1870  142.2000 C   0  0  2  0  0  3  0  0  0  0  0  0
  191.3840  177.3390  146.1110 C   0  0  0  0  0  2  0  0  0  0  0  0
  191.9880  176.0050  146.5060 C   0  0  0  0  0  1  0  0  0  0  0  0
  189.4800  177.7710  138.1010 C   0  0  0  0  0  2  0  0  0  0  0  0
  190.1040  176.5070  137.5240 C   0  0  0  0  0  2  0  0  0  0  0  0
  189.0230  175.5280  137.1010 C   0  0  0  0  0  2  0  0  0  0  0  0
  189.5590  174.1400  137.1220 C   0  0  0  0  0  0  0  0  0  0  0  0
  190.8650  173.9030  137.5310 O   0  0  0  0  0  1  0  0  0  0  0  0
  188.7930  173.1290  136.7450 C   0  0  0  0  0  2  0  0  0  0  0  0
  1  4  1  0  0  0  0
  1 12  1  1  0  0  0
  2 11  1  6  0  0  0
  2  1  1  0  0  0  0
  2 17  1  0  0  0  0
  2  4  1  0  0  0  0
  3 13  1  0  0  0  0
  4 15  1  1  0  0  0
  5 20  1  6  0  0  0
  5 14  1  0  0  0  0
  5 11  1  0  0  0  0
  6  3  1  0  0  0  0
  8  7  1  0  0  0  0
  8 18  1  1  0  0  0
  9 10  1  0  0  0  0
  9 17  1  0  0  0  0
 13  7  1  0  0  0  0
 14  9  1  0  0  0  0
 15  8  1  0  0  0  0
 16 14  2  0  0  0  0
 17  6  1  6  0  0  0
 18 19  1  0  0  0  0
 21 20  1  0  0  0  0
 22 23  1  0  0  0  0
 22 21  1  0  0  0  0
 23 24  1  0  0  0  0
 25 23  2  0  0  0  0
M  END
>  <MODEL>
4

>  <REMARK>
 VINA RESULT:      -6.9      2.874      6.646
  Name = 
  5 active torsions:
  status: ('A' for Active; 'I' for Inactive)
    1  A    between atoms: C_2  and  C_21
    2  A    between atoms: C_6  and  C_15
    3  A    between atoms: C_8  and  C_11
    4  A    between atoms: C_15  and  C_25
    5  A    between atoms: C_21  and  C_25
                            x       y       z     vdW  Elec       q    Type
                         _______ _______ _______ _____ _____    ______ ____

>  <TORSDO>
F 5

$$$$
=
 OpenBabel11052412543D

 25 27  0  0  1  0  0  0  0  0999 V2000
  191.0850  176.0960  142.7110 C   0  0  1  0  0  3  0  0  0  0  0  0
  190.8220  177.2650  141.7640 C   0  0  1  0  0  0  0  0  0  0  0  0
  187.5660  177.8170  142.8480 O   0  0  0  0  0  0  0  0  0  0  0  0
  191.2730  177.5470  143.2070 C   0  0  1  0  0  3  0  0  0  0  0  0
  191.5610  176.7820  139.6730 C   0  0  1  0  0  3  0  0  0  0  0  0
  188.1920  177.0640  141.8480 C   0  0  0  0  0  2  0  0  0  0  0  0
  188.0630  177.5040  145.1820 C   0  0  0  0  0  2  0  0  0  0  0  0
  189.5800  177.3390  145.1470 C   0  0  1  0  0  3  0  0  0  0  0  0
  189.3360  177.9590  139.8680 N   0  0  0  0  0  0  0  0  0  0  0  0
  188.2740  178.7660  139.2860 C   0  0  0  0  0  1  0  0  0  0  0  0
  191.8720  177.4880  140.8540 O   0  0  0  0  0  0  0  0  0  0  0  0
  189.9160  175.4860  143.1610 O   0  0  0  0  0  1  0  0  0  0  0  0
  187.3990  176.9400  143.9260 C   0  0  0  0  0  2  0  0  0  0  0  0
  190.3280  177.3600  139.0260 C   0  0  0  0  0  0  0  0  0  0  0  0
  190.1620  178.2120  144.0420 C   0  0  0  0  0  2  0  0  0  0  0  0
  190.1450  177.2700  137.7810 O   0  0  0  0  0  0  0  0  0  0  0  0
  189.4170  177.8180  141.3250 C   0  0  2  0  0  3  0  0  0  0  0  0
  190.1640  177.7300  146.4930 C   0  0  0  0  0  2  0  0  0  0  0  0
  189.1270  177.5580  147.5870 C   0  0  0  0  0  1  0  0  0  0  0  0
  192.7690  176.7520  138.7330 C   0  0  0  0  0  2  0  0  0  0  0  0
  192.9290  175.4130  138.0260 C   0  0  0  0  0  2  0  0  0  0  0  0
  194.3460  175.2530  137.5080 C   0  0  0  0  0  2  0  0  0  0  0  0
  195.1560  174.4660  138.4780 C   0  0  0  0  0  0  0  0  0  0  0  0
  195.8050  175.1070  139.5250 O   0  0  0  0  0  1  0  0  0  0  0  0
  195.2620  173.1540  138.3410 C   0  0  0  0  0  2  0  0  0  0  0  0
  1 12  1  1  0  0  0
  1  4  1  0  0  0  0
  2 11  1  6  0  0  0
  2  1  1  0  0  0  0
  2  4  1  0  0  0  0
  3 13  1  0  0  0  0
  4 15  1  1  0  0  0
  5 20  1  6  0  0  0
  5 11  1  0  0  0  0
  6  3  1  0  0  0  0
  8  7  1  0  0  0  0
  8 18  1  1  0  0  0
  9 17  1  0  0  0  0
 10  9  1  0  0  0  0
 13  7  1  0  0  0  0
 14  5  1  0  0  0  0
 14  9  1  0  0  0  0
 15  8  1  0  0  0  0
 16 14  2  0  0  0  0
 17  2  1  0  0  0  0
 17  6  1  6  0  0  0
 18 19  1  0  0  0  0
 21 20  1  0  0  0  0
 22 21  1  0  0  0  0
 22 23  1  0  0  0  0
 23 24  1  0  0  0  0
 25 23  2  0  0  0  0
M  END
>  <MODEL>
5

>  <REMARK>
 VINA RESULT:      -6.7      3.453      8.190
  Name = 
  5 active torsions:
  status: ('A' for Active; 'I' for Inactive)
    1  A    between atoms: C_2  and  C_21
    2  A    between atoms: C_6  and  C_15
    3  A    between atoms: C_8  and  C_11
    4  A    between atoms: C_15  and  C_25
    5  A    between atoms: C_21  and  C_25
                            x       y       z     vdW  Elec       q    Type
                         _______ _______ _______ _____ _____    ______ ____

>  <TORSDO>
F 5

$$$$
=
 OpenBabel11052412543D

 25 27  0  0  1  0  0  0  0  0999 V2000
  190.0990  178.0270  143.2390 C   0  0  1  0  0  3  0  0  0  0  0  0
  188.7310  177.3690  143.4080 C   0  0  1  0  0  0  0  0  0  0  0  0
  187.5430  178.3090  140.2800 O   0  0  0  0  0  0  0  0  0  0  0  0
  189.8500  176.6110  142.6750 C   0  0  1  0  0  3  0  0  0  0  0  0
  187.8670  177.8350  145.4550 C   0  0  1  0  0  3  0  0  0  0  0  0
  187.5230  178.8350  141.5760 C   0  0  0  0  0  2  0  0  0  0  0  0
  189.6030  177.8460  139.1220 C   0  0  0  0  0  2  0  0  0  0  0  0
  190.4430  177.2340  140.2400 C   0  0  1  0  0  3  0  0  0  0  0  0
  186.2860  177.9170  143.4880 N   0  0  0  0  0  0  0  0  0  0  0  0
  184.9360  177.8880  142.9460 C   0  0  0  0  0  1  0  0  0  0  0  0
  188.5250  176.8440  144.6970 O   0  0  0  0  0  0  0  0  0  0  0  0
  190.1040  179.0320  142.2730 O   0  0  0  0  0  1  0  0  0  0  0  0
  188.6410  178.9100  139.6510 C   0  0  0  0  0  2  0  0  0  0  0  0
  186.4930  178.0970  144.8950 C   0  0  0  0  0  0  0  0  0  0  0  0
  189.5450  176.4350  141.1750 C   0  0  0  0  0  2  0  0  0  0  0  0
  185.5600  178.5200  145.6320 O   0  0  0  0  0  0  0  0  0  0  0  0
  187.4260  177.6960  142.5940 C   0  0  2  0  0  3  0  0  0  0  0  0
  191.5110  176.3370  139.6370 C   0  0  0  0  0  2  0  0  0  0  0  0
  191.0440  175.7860  138.3020 C   0  0  0  0  0  1  0  0  0  0  0  0
  187.8430  177.4490  146.9360 C   0  0  0  0  0  2  0  0  0  0  0  0
  189.0270  176.5760  147.3340 C   0  0  0  0  0  2  0  0  0  0  0  0
  190.2280  177.4380  147.6780 C   0  0  0  0  0  2  0  0  0  0  0  0
  191.4830  176.7380  147.2910 C   0  0  0  0  0  0  0  0  0  0  0  0
  192.4470  176.4550  148.2500 O   0  0  0  0  0  1  0  0  0  0  0  0
  191.6850  176.3880  146.0310 C   0  0  0  0  0  2  0  0  0  0  0  0
  1 12  1  6  0  0  0
  1  2  1  0  0  0  0
  2 11  1  1  0  0  0
  3  6  1  0  0  0  0
  4 15  1  6  0  0  0
  4  1  1  0  0  0  0
  4  2  1  0  0  0  0
  5 20  1  1  0  0  0
  7 13  1  0  0  0  0
  7  8  1  0  0  0  0
  8 18  1  6  0  0  0
  8 15  1  0  0  0  0
  9 14  1  0  0  0  0
 10  9  1  0  0  0  0
 11  5  1  0  0  0  0
 13  3  1  0  0  0  0
 14  5  1  0  0  0  0
 14 16  2  0  0  0  0
 17  6  1  1  0  0  0
 17  2  1  0  0  0  0
 17  9  1  0  0  0  0
 19 18  1  0  0  0  0
 20 21  1  0  0  0  0
 21 22  1  0  0  0  0
 23 22  1  0  0  0  0
 23 24  1  0  0  0  0
 25 23  2  0  0  0  0
M  END
>  <MODEL>
6

>  <REMARK>
 VINA RESULT:      -6.4      2.074      5.200
  Name = 
  5 active torsions:
  status: ('A' for Active; 'I' for Inactive)
    1  A    between atoms: C_2  and  C_21
    2  A    between atoms: C_6  and  C_15
    3  A    between atoms: C_8  and  C_11
    4  A    between atoms: C_15  and  C_25
    5  A    between atoms: C_21  and  C_25
                            x       y       z     vdW  Elec       q    Type
                         _______ _______ _______ _____ _____    ______ ____

>  <TORSDO>
F 5

$$$$
=
 OpenBabel11052412543D

 25 27  0  0  1  0  0  0  0  0999 V2000
  188.3330  178.7280  141.7570 C   0  0  1  0  0  3  0  0  0  0  0  0
  188.6830  177.5590  140.8380 C   0  0  1  0  0  0  0  0  0  0  0  0
  191.6500  176.7620  142.4630 O   0  0  0  0  0  0  0  0  0  0  0  0
  187.9650  177.2860  142.1700 C   0  0  1  0  0  3  0  0  0  0  0  0
  188.3610  178.1270  138.6640 C   0  0  1  0  0  3  0  0  0  0  0  0
  191.2630  177.5730  141.3910 C   0  0  0  0  0  2  0  0  0  0  0  0
  190.7670  177.0710  144.6810 C   0  0  0  0  0  2  0  0  0  0  0  0
  189.2950  177.3420  144.3830 C   0  0  1  0  0  3  0  0  0  0  0  0
  190.4320  176.7940  139.2150 N   0  0  0  0  0  0  0  0  0  0  0  0
  191.5250  175.9230  138.8070 C   0  0  0  0  0  1  0  0  0  0  0  0
  187.7990  177.4260  139.7510 O   0  0  0  0  0  0  0  0  0  0  0  0
  189.4410  179.2470  142.4240 O   0  0  0  0  0  1  0  0  0  0  0  0
  191.6800  177.6070  143.5780 C   0  0  0  0  0  2  0  0  0  0  0  0
  189.6480  177.4750  138.2280 C   0  0  0  0  0  0  0  0  0  0  0  0
  188.8620  176.5310  143.1690 C   0  0  0  0  0  2  0  0  0  0  0  0
  190.0550  177.5710  137.0380 O   0  0  0  0  0  0  0  0  0  0  0  0
  190.1030  176.9160  140.6380 C   0  0  2  0  0  3  0  0  0  0  0  0
  188.4560  176.9710  145.5940 C   0  0  0  0  0  2  0  0  0  0  0  0
  187.2410  177.8740  145.6900 C   0  0  0  0  0  1  0  0  0  0  0  0
  187.3440  178.2570  137.5270 C   0  0  0  0  0  2  0  0  0  0  0  0
  186.0160  177.5840  137.8480 C   0  0  0  0  0  2  0  0  0  0  0  0
  184.9400  178.6260  138.0940 C   0  0  0  0  0  2  0  0  0  0  0  0
  184.5910  178.6640  139.5400 C   0  0  0  0  0  0  0  0  0  0  0  0
  185.2680  179.5210  140.3980 O   0  0  0  0  0  1  0  0  0  0  0  0
  183.6360  177.8780  140.0120 C   0  0  0  0  0  2  0  0  0  0  0  0
  1  4  1  0  0  0  0
  1 12  1  1  0  0  0
  2 11  1  6  0  0  0
  2  1  1  0  0  0  0
  2  4  1  0  0  0  0
  3 13  1  0  0  0  0
  4 15  1  1  0  0  0
  5 20  1  6  0  0  0
  5 11  1  0  0  0  0
  6  3  1  0  0  0  0
  8  7  1  0  0  0  0
  8 18  1  1  0  0  0
  9 17  1  0  0  0  0
 10  9  1  0  0  0  0
 13  7  1  0  0  0  0
 14  5  1  0  0  0  0
 14  9  1  0  0  0  0
 15  8  1  0  0  0  0
 16 14  2  0  0  0  0
 17  2  1  0  0  0  0
 17  6  1  1  0  0  0
 18 19  1  0  0  0  0
 20 21  1  0  0  0  0
 21 22  1  0  0  0  0
 22 23  1  0  0  0  0
 23 25  2  0  0  0  0
 23 24  1  0  0  0  0
M  END
>  <MODEL>
7

>  <REMARK>
 VINA RESULT:      -6.4      3.142      5.847
  Name = 
  5 active torsions:
  status: ('A' for Active; 'I' for Inactive)
    1  A    between atoms: C_2  and  C_21
    2  A    between atoms: C_6  and  C_15
    3  A    between atoms: C_8  and  C_11
    4  A    between atoms: C_15  and  C_25
    5  A    between atoms: C_21  and  C_25
                            x       y       z     vdW  Elec       q    Type
                         _______ _______ _______ _____ _____    ______ ____

>  <TORSDO>
F 5

$$$$
=
 OpenBabel11052412543D

 25 27  0  0  1  0  0  0  0  0999 V2000
  187.8700  176.9320  142.8650 C   0  0  1  0  0  3  0  0  0  0  0  0
  187.4220  178.1100  143.7290 C   0  0  1  0  0  0  0  0  0  0  0  0
  189.6100  177.4310  146.3430 O   0  0  0  0  0  0  0  0  0  0  0  0
  188.6600  178.2600  142.8280 C   0  0  1  0  0  3  0  0  0  0  0  0
  185.1570  178.2550  143.7720 C   0  0  1  0  0  3  0  0  0  0  0  0
  188.2940  177.0960  146.0030 C   0  0  0  0  0  2  0  0  0  0  0  0
  191.4740  176.8810  144.9220 C   0  0  0  0  0  2  0  0  0  0  0  0
  190.9050  177.2020  143.5420 C   0  0  1  0  0  3  0  0  0  0  0  0
  186.3810  178.6340  145.9480 N   0  0  0  0  0  0  0  0  0  0  0  0
  186.4220  179.1630  147.3030 C   0  0  0  0  0  1  0  0  0  0  0  0
  186.3200  178.8030  143.1920 O   0  0  0  0  0  0  0  0  0  0  0  0
  188.4870  175.9220  143.6010 O   0  0  0  0  0  1  0  0  0  0  0  0
  190.3960  176.3700  145.8780 C   0  0  0  0  0  2  0  0  0  0  0  0
  185.1310  178.5280  145.2540 C   0  0  0  0  0  0  0  0  0  0  0  0
  189.9590  178.3910  143.6450 C   0  0  0  0  0  2  0  0  0  0  0  0
  184.0390  178.6070  145.8810 O   0  0  0  0  0  0  0  0  0  0  0  0
  187.6330  178.2710  145.2780 C   0  0  2  0  0  3  0  0  0  0  0  0
  192.0420  177.5110  142.5850 C   0  0  0  0  0  2  0  0  0  0  0  0
  191.6020  177.2800  141.1510 C   0  0  0  0  0  1  0  0  0  0  0  0
  183.9070  178.7650  143.0500 C   0  0  0  0  0  2  0  0  0  0  0  0
  183.8130  178.2630  141.6150 C   0  0  0  0  0  2  0  0  0  0  0  0
  184.8040  178.9980  140.7310 C   0  0  0  0  0  2  0  0  0  0  0  0
  184.2280  179.1870  139.3720 C   0  0  0  0  0  0  0  0  0  0  0  0
  183.4500  180.3030  139.0930 O   0  0  0  0  0  1  0  0  0  0  0  0
  184.4530  178.2880  138.4260 C   0  0  0  0  0  2  0  0  0  0  0  0
  1 12  1  1  0  0  0
  1  2  1  0  0  0  0
  2 11  1  6  0  0  0
  2 17  1  0  0  0  0
  4  1  1  0  0  0  0
  4 15  1  1  0  0  0
  4  2  1  0  0  0  0
  5 20  1  6  0  0  0
  5 14  1  0  0  0  0
  6  3  1  0  0  0  0
  7 13  1  0  0  0  0
  8 18  1  6  0  0  0
  8 15  1  0  0  0  0
  8  7  1  0  0  0  0
  9 10  1  0  0  0  0
 11  5  1  0  0  0  0
 13  3  1  0  0  0  0
 14 16  2  0  0  0  0
 14  9  1  0  0  0  0
 17  9  1  0  0  0  0
 17  6  1  1  0  0  0
 19 18  1  0  0  0  0
 21 20  1  0  0  0  0
 22 21  1  0  0  0  0
 23 22  1  0  0  0  0
 24 23  1  0  0  0  0
 25 23  2  0  0  0  0
M  END
>  <MODEL>
8

>  <REMARK>
 VINA RESULT:      -6.2      1.878      2.662
  Name = 
  5 active torsions:
  status: ('A' for Active; 'I' for Inactive)
    1  A    between atoms: C_2  and  C_21
    2  A    between atoms: C_6  and  C_15
    3  A    between atoms: C_8  and  C_11
    4  A    between atoms: C_15  and  C_25
    5  A    between atoms: C_21  and  C_25
                            x       y       z     vdW  Elec       q    Type
                         _______ _______ _______ _____ _____    ______ ____

>  <TORSDO>
F 5

$$$$
=
 OpenBabel11052412543D

 25 27  0  0  1  0  0  0  0  0999 V2000
  184.3220  179.1530  139.9700 C   0  0  1  0  0  3  0  0  0  0  0  0
  183.5710  178.4100  141.0730 C   0  0  1  0  0  0  0  0  0  0  0  0
  180.4040  179.2670  139.9260 O   0  0  0  0  0  0  0  0  0  0  0  0
  183.7970  177.7220  139.7170 C   0  0  1  0  0  3  0  0  0  0  0  0
  184.5090  178.8260  143.0980 C   0  0  1  0  0  3  0  0  0  0  0  0
  181.3370  179.7940  140.8260 C   0  0  0  0  0  2  0  0  0  0  0  0
  180.9230  178.9320  137.5990 C   0  0  0  0  0  2  0  0  0  0  0  0
  182.3420  178.3750  137.6860 C   0  0  1  0  0  3  0  0  0  0  0  0
  181.9880  178.8030  142.9760 N   0  0  0  0  0  0  0  0  0  0  0  0
  180.6890  178.6880  143.6230 C   0  0  0  0  0  1  0  0  0  0  0  0
  184.4210  177.8760  142.0590 O   0  0  0  0  0  0  0  0  0  0  0  0
  183.5600  180.1540  139.3710 O   0  0  0  0  0  1  0  0  0  0  0  0
  180.6350  179.9340  138.7170 C   0  0  0  0  0  2  0  0  0  0  0  0
  183.1680  179.0000  143.7640 C   0  0  0  0  0  0  0  0  0  0  0  0
  182.4810  177.5240  138.9410 C   0  0  0  0  0  2  0  0  0  0  0  0
  183.0840  179.3650  144.9690 O   0  0  0  0  0  0  0  0  0  0  0  0
  182.0840  178.6530  141.5220 C   0  0  2  0  0  3  0  0  0  0  0  0
  182.6370  177.5460  136.4480 C   0  0  0  0  0  2  0  0  0  0  0  0
  181.7060  177.9390  135.3160 C   0  0  0  0  0  1  0  0  0  0  0  0
  185.6180  178.4420  144.0820 C   0  0  0  0  0  2  0  0  0  0  0  0
  186.8110  177.7910  143.3960 C   0  0  0  0  0  2  0  0  0  0  0  0
  187.4950  176.8150  144.3350 C   0  0  0  0  0  2  0  0  0  0  0  0
  188.4810  177.5350  145.1870 C   0  0  0  0  0  0  0  0  0  0  0  0
  189.5160  178.2520  144.6010 O   0  0  0  0  0  1  0  0  0  0  0  0
  188.3760  177.4880  146.5050 C   0  0  0  0  0  2  0  0  0  0  0  0
  1 12  1  6  0  0  0
  1  2  1  0  0  0  0
  2 17  1  0  0  0  0
  2 11  1  1  0  0  0
  3  6  1  0  0  0  0
  4 15  1  6  0  0  0
  4  1  1  0  0  0  0
  4  2  1  0  0  0  0
  5 14  1  0  0  0  0
  5 20  1  1  0  0  0
  7  8  1  0  0  0  0
  7 13  1  0  0  0  0
  8 18  1  6  0  0  0
  8 15  1  0  0  0  0
  9 10  1  0  0  0  0
  9 14  1  0  0  0  0
 11  5  1  0  0  0  0
 13  3  1  0  0  0  0
 14 16  2  0  0  0  0
 17  6  1  6  0  0  0
 17  9  1  0  0  0  0
 19 18  1  0  0  0  0
 21 20  1  0  0  0  0
 21 22  1  0  0  0  0
 22 23  1  0  0  0  0
 23 25  2  0  0  0  0
 24 23  1  0  0  0  0
M  END
>  <MODEL>
9

>  <REMARK>
 VINA RESULT:      -6.0      3.749      7.826
  Name = 
  5 active torsions:
  status: ('A' for Active; 'I' for Inactive)
    1  A    between atoms: C_2  and  C_21
    2  A    between atoms: C_6  and  C_15
    3  A    between atoms: C_8  and  C_11
    4  A    between atoms: C_15  and  C_25
    5  A    between atoms: C_21  and  C_25
                            x       y       z     vdW  Elec       q    Type
                         _______ _______ _______ _____ _____    ______ ____

>  <TORSDO>
F 5

$$$$
