=
 OpenBabel11052413503D

 27 31  0  0  0  0  0  0  0  0999 V2000
  188.1370  177.3390  143.3890 C   0  0  0  0  0  3  0  0  0  0  0  0
  185.9770  178.3800  144.1130 C   0  0  0  0  0  0  0  0  0  0  0  0
  186.2050  178.7880  141.6110 C   0  0  0  0  0  3  0  0  0  0  0  0
  181.7930  178.9270  143.5950 C   0  0  0  0  0  3  0  0  0  0  0  0
  179.8310  178.9150  142.1920 O   0  0  0  0  0  1  0  0  0  0  0  0
  185.0800  178.7320  145.2440 C   0  0  0  0  0  3  0  0  0  0  0  0
  182.0060  178.5480  141.2150 C   0  0  0  0  0  3  0  0  0  0  0  0
  189.2980  178.5250  138.2980 O   0  0  0  0  0  0  0  0  0  0  0  0
  183.3910  178.4320  141.3570 C   0  0  0  0  0  3  0  0  0  0  0  0
  188.9760  178.2000  139.4710 C   0  0  0  0  0  0  0  0  0  0  0  0
  183.9960  178.5640  142.6210 C   0  0  0  0  0  0  0  0  0  0  0  0
  187.2030  177.8820  144.3890 C   0  0  0  0  0  0  0  0  0  0  0  0
  181.2070  178.7980  142.3340 C   0  0  0  0  0  0  0  0  0  0  0  0
  183.1780  178.8080  143.7400 C   0  0  0  0  0  0  0  0  0  0  0  0
  188.2570  177.5520  142.0810 C   0  0  0  0  0  0  0  0  0  0  0  0
  185.4320  178.4630  142.7760 N   0  0  0  0  0  0  0  0  0  0  0  0
  187.8390  178.6970  140.0240 N   0  0  0  0  0  2  0  0  0  0  0  0
  183.7790  178.9370  145.0680 C   0  0  0  0  0  3  0  0  0  0  0  0
  189.7690  177.3170  140.1920 C   0  0  0  0  0  3  0  0  0  0  0  0
  189.4050  177.0030  141.4990 C   0  0  0  0  0  3  0  0  0  0  0  0
  187.4310  178.3820  141.2870 C   0  0  0  0  0  0  0  0  0  0  0  0
  188.6700  177.6170  148.4140 C   0  0  0  0  0  3  0  0  0  0  0  0
  187.6960  177.7700  145.7860 C   0  0  0  0  0  0  0  0  0  0  0  0
  186.9410  178.2800  146.8550 C   0  0  0  0  0  3  0  0  0  0  0  0
  187.4240  178.1990  148.1630 C   0  0  0  0  0  3  0  0  0  0  0  0
  189.4340  177.1200  147.3560 C   0  0  0  0  0  3  0  0  0  0  0  0
  188.9520  177.2000  146.0460 C   0  0  0  0  0  3  0  0  0  0  0  0
  1 12  1  0  0  0  0
  2 12  2  0  0  0  0
  2  6  1  0  0  0  0
  3 16  1  0  0  0  0
  4 14  1  0  0  0  0
  5 13  1  0  0  0  0
  7  9  2  0  0  0  0
  7 13  1  0  0  0  0
  8 10  2  0  0  0  0
  9 11  1  0  0  0  0
 10 17  1  0  0  0  0
 10 19  1  0  0  0  0
 11 16  1  0  0  0  0
 11 14  2  0  0  0  0
 12 23  1  0  0  0  0
 13  4  2  0  0  0  0
 14 18  1  0  0  0  0
 15  1  2  0  0  0  0
 16  2  1  0  0  0  0
 17 21  1  0  0  0  0
 18  6  2  0  0  0  0
 19 20  2  0  0  0  0
 20 15  1  0  0  0  0
 21  3  2  0  0  0  0
 21 15  1  0  0  0  0
 23 27  2  0  0  0  0
 23 24  1  0  0  0  0
 24 25  2  0  0  0  0
 25 22  1  0  0  0  0
 26 22  2  0  0  0  0
 27 26  1  0  0  0  0
M  END
>  <MODEL>
1

>  <REMARK>
 VINA RESULT:     -12.4      0.000      0.000
  Name = 
  1 active torsions:
  status: ('A' for Active; 'I' for Inactive)
    1  A    between atoms: C_9  and  C_15
                            x       y       z     vdW  Elec       q    Type
                         _______ _______ _______ _____ _____    ______ ____

>  <TORSDO>
F 1

$$$$
=
 OpenBabel11052413503D

 27 31  0  0  0  0  0  0  0  0999 V2000
  189.3230  176.9340  142.5930 C   0  0  0  0  0  3  0  0  0  0  0  0
  187.4790  177.9720  143.9340 C   0  0  0  0  0  0  0  0  0  0  0  0
  187.1270  178.6650  141.5100 C   0  0  0  0  0  3  0  0  0  0  0  0
  183.3420  178.7520  144.5250 C   0  0  0  0  0  3  0  0  0  0  0  0
  181.1050  178.9900  143.6560 O   0  0  0  0  0  1  0  0  0  0  0  0
  186.9070  178.2240  145.2820 C   0  0  0  0  0  3  0  0  0  0  0  0
  182.9500  178.6510  142.1400 C   0  0  0  0  0  3  0  0  0  0  0  0
  189.3070  178.6690  137.5280 O   0  0  0  0  0  0  0  0  0  0  0  0
  184.3170  178.4610  141.9230 C   0  0  0  0  0  3  0  0  0  0  0  0
  189.2540  178.2210  138.7030 C   0  0  0  0  0  0  0  0  0  0  0  0
  185.2150  178.4160  143.0050 C   0  0  0  0  0  0  0  0  0  0  0  0
  188.6980  177.3930  143.8440 C   0  0  0  0  0  0  0  0  0  0  0  0
  182.4630  178.7990  143.4410 C   0  0  0  0  0  0  0  0  0  0  0  0
  184.7090  178.5580  144.3110 C   0  0  0  0  0  0  0  0  0  0  0  0
  189.1400  177.2970  141.3260 C   0  0  0  0  0  0  0  0  0  0  0  0
  186.6360  178.2370  142.7890 N   0  0  0  0  0  0  0  0  0  0  0  0
  188.3210  178.6950  139.5690 N   0  0  0  0  0  2  0  0  0  0  0  0
  185.6200  178.5030  145.4550 C   0  0  0  0  0  3  0  0  0  0  0  0
  190.1330  177.2250  139.1090 C   0  0  0  0  0  3  0  0  0  0  0  0
  190.0730  176.7740  140.4250 C   0  0  0  0  0  3  0  0  0  0  0  0
  188.2080  178.2490  140.8530 C   0  0  0  0  0  0  0  0  0  0  0  0
  191.0480  176.6010  147.3470 C   0  0  0  0  0  3  0  0  0  0  0  0
  189.5030  177.0950  145.0570 C   0  0  0  0  0  0  0  0  0  0  0  0
  188.9070  177.0860  146.3290 C   0  0  0  0  0  3  0  0  0  0  0  0
  189.6760  176.8360  147.4680 C   0  0  0  0  0  3  0  0  0  0  0  0
  191.6520  176.6210  146.0880 C   0  0  0  0  0  3  0  0  0  0  0  0
  190.8840  176.8720  144.9480 C   0  0  0  0  0  3  0  0  0  0  0  0
  1 12  1  0  0  0  0
  2  6  1  0  0  0  0
  3 16  1  0  0  0  0
  6 18  2  0  0  0  0
  7 13  1  0  0  0  0
  8 10  2  0  0  0  0
  9  7  2  0  0  0  0
  9 11  1  0  0  0  0
 10 19  1  0  0  0  0
 10 17  1  0  0  0  0
 11 14  2  0  0  0  0
 12  2  2  0  0  0  0
 12 23  1  0  0  0  0
 13  5  1  0  0  0  0
 13  4  2  0  0  0  0
 14  4  1  0  0  0  0
 14 18  1  0  0  0  0
 15  1  2  0  0  0  0
 16 11  1  0  0  0  0
 16  2  1  0  0  0  0
 17 21  1  0  0  0  0
 19 20  2  0  0  0  0
 20 15  1  0  0  0  0
 21 15  1  0  0  0  0
 21  3  2  0  0  0  0
 22 25  1  0  0  0  0
 23 24  1  0  0  0  0
 24 25  2  0  0  0  0
 26 22  2  0  0  0  0
 27 23  2  0  0  0  0
 27 26  1  0  0  0  0
M  END
>  <MODEL>
2

>  <REMARK>
 VINA RESULT:     -12.3      1.135      1.701
  Name = 
  1 active torsions:
  status: ('A' for Active; 'I' for Inactive)
    1  A    between atoms: C_9  and  C_15
                            x       y       z     vdW  Elec       q    Type
                         _______ _______ _______ _____ _____    ______ ____

>  <TORSDO>
F 1

$$$$
=
 OpenBabel11052413503D

 27 31  0  0  0  0  0  0  0  0999 V2000
  187.1750  178.5230  141.3140 C   0  0  0  0  0  3  0  0  0  0  0  0
  187.4210  177.6040  143.6320 C   0  0  0  0  0  0  0  0  0  0  0  0
  189.4220  176.7910  142.2840 C   0  0  0  0  0  3  0  0  0  0  0  0
  189.7810  176.9580  147.1080 C   0  0  0  0  0  3  0  0  0  0  0  0
  191.9340  176.7280  148.1720 O   0  0  0  0  0  1  0  0  0  0  0  0
  186.8160  177.4400  144.9780 C   0  0  0  0  0  3  0  0  0  0  0  0
  191.7990  176.9400  145.7730 C   0  0  0  0  0  3  0  0  0  0  0  0
  190.8590  176.5190  137.9870 O   0  0  0  0  0  0  0  0  0  0  0  0
  191.0340  177.0840  144.6130 C   0  0  0  0  0  3  0  0  0  0  0  0
  190.0440  177.0310  138.7980 C   0  0  0  0  0  0  0  0  0  0  0  0
  189.6310  177.1660  144.6850 C   0  0  0  0  0  0  0  0  0  0  0  0
  186.6720  178.1480  142.6460 C   0  0  0  0  0  0  0  0  0  0  0  0
  191.1730  176.8740  147.0200 C   0  0  0  0  0  0  0  0  0  0  0  0
  189.0140  177.1070  145.9490 C   0  0  0  0  0  0  0  0  0  0  0  0
  188.2200  178.0980  140.6090 C   0  0  0  0  0  0  0  0  0  0  0  0
  188.8280  177.2990  143.4880 N   0  0  0  0  0  0  0  0  0  0  0  0
  190.0330  176.6270  140.0940 N   0  0  0  0  0  2  0  0  0  0  0  0
  187.5570  177.2010  146.0550 C   0  0  0  0  0  3  0  0  0  0  0  0
  189.1720  178.0250  138.3740 C   0  0  0  0  0  3  0  0  0  0  0  0
  188.2590  178.5480  139.2850 C   0  0  0  0  0  3  0  0  0  0  0  0
  189.1790  177.1440  141.0230 C   0  0  0  0  0  0  0  0  0  0  0  0
  182.5290  179.0700  143.2860 C   0  0  0  0  0  3  0  0  0  0  0  0
  185.2430  178.4910  142.8610 C   0  0  0  0  0  0  0  0  0  0  0  0
  184.8220  179.0870  144.0610 C   0  0  0  0  0  3  0  0  0  0  0  0
  183.4720  179.3790  144.2700 C   0  0  0  0  0  3  0  0  0  0  0  0
  182.9360  178.4640  142.0950 C   0  0  0  0  0  3  0  0  0  0  0  0
  184.2870  178.1720  141.8850 C   0  0  0  0  0  3  0  0  0  0  0  0
  1 12  1  0  0  0  0
  2  6  1  0  0  0  0
  3 16  1  0  0  0  0
  6 18  2  0  0  0  0
  7 13  2  0  0  0  0
  8 10  2  0  0  0  0
  9 11  2  0  0  0  0
  9  7  1  0  0  0  0
 10 17  1  0  0  0  0
 11 14  1  0  0  0  0
 12 23  1  0  0  0  0
 12  2  2  0  0  0  0
 13  4  1  0  0  0  0
 13  5  1  0  0  0  0
 14 18  1  0  0  0  0
 14  4  2  0  0  0  0
 15 21  1  0  0  0  0
 15  1  2  0  0  0  0
 16  2  1  0  0  0  0
 16 11  1  0  0  0  0
 17 21  1  0  0  0  0
 19 10  1  0  0  0  0
 19 20  2  0  0  0  0
 20 15  1  0  0  0  0
 21  3  2  0  0  0  0
 22 25  1  0  0  0  0
 23 24  1  0  0  0  0
 24 25  2  0  0  0  0
 26 22  2  0  0  0  0
 27 26  1  0  0  0  0
 27 23  2  0  0  0  0
M  END
>  <MODEL>
3

>  <REMARK>
 VINA RESULT:     -12.0      2.748      6.094
  Name = 
  1 active torsions:
  status: ('A' for Active; 'I' for Inactive)
    1  A    between atoms: C_9  and  C_15
                            x       y       z     vdW  Elec       q    Type
                         _______ _______ _______ _____ _____    ______ ____

>  <TORSDO>
F 1

$$$$
=
 OpenBabel11052413503D

 27 31  0  0  0  0  0  0  0  0999 V2000
  187.2760  177.3010  144.8970 C   0  0  0  0  0  3  0  0  0  0  0  0
  187.4570  178.1080  142.5320 C   0  0  0  0  0  0  0  0  0  0  0  0
  189.8290  177.7970  143.4040 C   0  0  0  0  0  3  0  0  0  0  0  0
  189.0820  177.7250  138.6230 C   0  0  0  0  0  3  0  0  0  0  0  0
  190.8170  176.9520  137.1360 O   0  0  0  0  0  1  0  0  0  0  0  0
  186.7470  178.6100  141.3280 C   0  0  0  0  0  3  0  0  0  0  0  0
  191.0860  176.7080  139.5200 C   0  0  0  0  0  3  0  0  0  0  0  0
  192.0560  177.1280  147.3030 O   0  0  0  0  0  0  0  0  0  0  0  0
  190.5960  176.8880  140.8170 C   0  0  0  0  0  3  0  0  0  0  0  0
  190.9510  177.1100  146.7010 C   0  0  0  0  0  0  0  0  0  0  0  0
  189.3430  177.4900  141.0330 C   0  0  0  0  0  0  0  0  0  0  0  0
  186.7560  177.9390  143.6760 C   0  0  0  0  0  0  0  0  0  0  0  0
  190.3300  177.1280  138.4240 C   0  0  0  0  0  0  0  0  0  0  0  0
  188.5890  177.9010  139.9180 C   0  0  0  0  0  0  0  0  0  0  0  0
  188.5150  177.1390  145.3530 C   0  0  0  0  0  0  0  0  0  0  0  0
  188.8350  177.6960  142.3730 N   0  0  0  0  0  0  0  0  0  0  0  0
  190.8720  177.5360  145.4140 N   0  0  0  0  0  2  0  0  0  0  0  0
  187.2770  178.5200  140.1140 C   0  0  0  0  0  3  0  0  0  0  0  0
  189.8150  176.6330  147.3440 C   0  0  0  0  0  3  0  0  0  0  0  0
  188.6000  176.6580  146.6640 C   0  0  0  0  0  3  0  0  0  0  0  0
  189.7070  177.5380  144.7050 C   0  0  0  0  0  0  0  0  0  0  0  0
  182.6080  179.0030  143.9520 C   0  0  0  0  0  3  0  0  0  0  0  0
  185.3270  178.3320  143.7710 C   0  0  0  0  0  0  0  0  0  0  0  0
  184.7640  178.6970  145.0050 C   0  0  0  0  0  3  0  0  0  0  0  0
  183.4120  179.0360  145.0930 C   0  0  0  0  0  3  0  0  0  0  0  0
  183.1540  178.6280  142.7220 C   0  0  0  0  0  3  0  0  0  0  0  0
  184.5070  178.2890  142.6330 C   0  0  0  0  0  3  0  0  0  0  0  0
  1 15  2  0  0  0  0
  2 12  2  0  0  0  0
  3 21  2  0  0  0  0
  4 14  1  0  0  0  0
  5 13  1  0  0  0  0
  6  2  1  0  0  0  0
  7  9  2  0  0  0  0
  9 11  1  0  0  0  0
 10  8  2  0  0  0  0
 10 19  1  0  0  0  0
 11 16  1  0  0  0  0
 12 23  1  0  0  0  0
 12  1  1  0  0  0  0
 13  4  2  0  0  0  0
 13  7  1  0  0  0  0
 14 18  1  0  0  0  0
 14 11  2  0  0  0  0
 15 20  1  0  0  0  0
 16  2  1  0  0  0  0
 16  3  1  0  0  0  0
 17 10  1  0  0  0  0
 18  6  2  0  0  0  0
 20 19  2  0  0  0  0
 21 15  1  0  0  0  0
 21 17  1  0  0  0  0
 22 25  1  0  0  0  0
 23 24  1  0  0  0  0
 24 25  2  0  0  0  0
 26 22  2  0  0  0  0
 27 26  1  0  0  0  0
 27 23  2  0  0  0  0
M  END
>  <MODEL>
4

>  <REMARK>
 VINA RESULT:     -11.4      2.795      6.493
  Name = 
  1 active torsions:
  status: ('A' for Active; 'I' for Inactive)
    1  A    between atoms: C_9  and  C_15
                            x       y       z     vdW  Elec       q    Type
                         _______ _______ _______ _____ _____    ______ ____

>  <TORSDO>
F 1

$$$$
=
 OpenBabel11052413503D

 27 31  0  0  0  0  0  0  0  0999 V2000
  186.7330  178.5540  141.2640 C   0  0  0  0  0  3  0  0  0  0  0  0
  186.4740  177.9270  143.6750 C   0  0  0  0  0  0  0  0  0  0  0  0
  188.7790  177.1370  142.9360 C   0  0  0  0  0  3  0  0  0  0  0  0
  187.9770  177.8780  147.6520 C   0  0  0  0  0  3  0  0  0  0  0  0
  189.8260  177.9510  149.1990 O   0  0  0  0  0  1  0  0  0  0  0  0
  185.5780  177.8660  144.8580 C   0  0  0  0  0  3  0  0  0  0  0  0
  190.2510  177.8780  146.8260 C   0  0  0  0  0  3  0  0  0  0  0  0
  191.2050  176.5020  139.1530 O   0  0  0  0  0  0  0  0  0  0  0  0
  189.7750  177.8260  145.5130 C   0  0  0  0  0  3  0  0  0  0  0  0
  190.1940  177.0320  139.6830 C   0  0  0  0  0  0  0  0  0  0  0  0
  188.3930  177.7970  145.2530 C   0  0  0  0  0  0  0  0  0  0  0  0
  185.9510  178.2910  142.4830 C   0  0  0  0  0  0  0  0  0  0  0  0
  189.3520  177.9020  147.8950 C   0  0  0  0  0  0  0  0  0  0  0  0
  187.4980  177.8300  146.3400 C   0  0  0  0  0  0  0  0  0  0  0  0
  187.9370  178.1410  140.8770 C   0  0  0  0  0  0  0  0  0  0  0  0
  187.8900  177.7260  143.8970 N   0  0  0  0  0  0  0  0  0  0  0  0
  189.8990  176.7780  140.9840 N   0  0  0  0  0  2  0  0  0  0  0  0
  186.0550  177.8140  146.0970 C   0  0  0  0  0  3  0  0  0  0  0  0
  189.3940  177.8960  138.9470 C   0  0  0  0  0  3  0  0  0  0  0  0
  188.2630  178.4410  139.5500 C   0  0  0  0  0  3  0  0  0  0  0  0
  188.8220  177.3240  141.6190 C   0  0  0  0  0  0  0  0  0  0  0  0
  181.7310  178.9260  142.0220 C   0  0  0  0  0  3  0  0  0  0  0  0
  184.4950  178.5360  142.3200 C   0  0  0  0  0  0  0  0  0  0  0  0
  183.7220  179.0030  143.3960 C   0  0  0  0  0  3  0  0  0  0  0  0
  182.3480  179.2020  143.2450 C   0  0  0  0  0  3  0  0  0  0  0  0
  182.4890  178.4480  140.9500 C   0  0  0  0  0  3  0  0  0  0  0  0
  183.8640  178.2490  141.1000 C   0  0  0  0  0  3  0  0  0  0  0  0
  1 12  1  0  0  0  0
  2 16  1  0  0  0  0
  2  6  1  0  0  0  0
  3 16  1  0  0  0  0
  4 13  1  0  0  0  0
  6 18  2  0  0  0  0
  7 13  2  0  0  0  0
  8 10  2  0  0  0  0
  9  7  1  0  0  0  0
 10 17  1  0  0  0  0
 11  9  2  0  0  0  0
 11 14  1  0  0  0  0
 12  2  2  0  0  0  0
 13  5  1  0  0  0  0
 14  4  2  0  0  0  0
 15  1  2  0  0  0  0
 15 21  1  0  0  0  0
 16 11  1  0  0  0  0
 17 21  1  0  0  0  0
 18 14  1  0  0  0  0
 19 20  2  0  0  0  0
 19 10  1  0  0  0  0
 20 15  1  0  0  0  0
 21  3  2  0  0  0  0
 22 25  1  0  0  0  0
 23 12  1  0  0  0  0
 23 24  1  0  0  0  0
 25 24  2  0  0  0  0
 26 27  1  0  0  0  0
 26 22  2  0  0  0  0
 27 23  2  0  0  0  0
M  END
>  <MODEL>
5

>  <REMARK>
 VINA RESULT:     -10.5      2.625      5.841
  Name = 
  1 active torsions:
  status: ('A' for Active; 'I' for Inactive)
    1  A    between atoms: C_9  and  C_15
                            x       y       z     vdW  Elec       q    Type
                         _______ _______ _______ _____ _____    ______ ____

>  <TORSDO>
F 1

$$$$
=
 OpenBabel11052413503D

 27 31  0  0  0  0  0  0  0  0999 V2000
  187.0550  177.5900  142.0330 C   0  0  0  0  0  3  0  0  0  0  0  0
  189.3500  177.6320  143.0360 C   0  0  0  0  0  0  0  0  0  0  0  0
  187.7080  178.2120  144.8930 C   0  0  0  0  0  3  0  0  0  0  0  0
  192.0550  176.4610  146.0990 C   0  0  0  0  0  3  0  0  0  0  0  0
  192.4810  175.7190  148.3550 O   0  0  0  0  0  1  0  0  0  0  0  0
  190.8150  177.5380  142.8040 C   0  0  0  0  0  3  0  0  0  0  0  0
  190.2390  176.3110  147.6900 C   0  0  0  0  0  3  0  0  0  0  0  0
  183.3590  179.3780  145.4690 O   0  0  0  0  0  0  0  0  0  0  0  0
  189.3460  176.7600  146.7140 C   0  0  0  0  0  3  0  0  0  0  0  0
  184.2300  178.8970  144.6990 C   0  0  0  0  0  0  0  0  0  0  0  0
  189.7970  177.0670  145.4170 C   0  0  0  0  0  0  0  0  0  0  0  0
  188.5240  177.6610  141.9670 C   0  0  0  0  0  0  0  0  0  0  0  0
  191.5940  176.1630  147.3840 C   0  0  0  0  0  0  0  0  0  0  0  0
  191.1640  176.9060  145.1200 C   0  0  0  0  0  0  0  0  0  0  0  0
  186.1970  177.8930  143.0030 C   0  0  0  0  0  0  0  0  0  0  0  0
  188.8830  177.5490  144.4030 N   0  0  0  0  0  0  0  0  0  0  0  0
  185.5320  178.8640  145.0840 N   0  0  0  0  0  2  0  0  0  0  0  0
  191.6580  177.2060  143.7760 C   0  0  0  0  0  3  0  0  0  0  0  0
  183.8600  178.3780  143.4650 C   0  0  0  0  0  3  0  0  0  0  0  0
  184.8510  177.8840  142.6200 C   0  0  0  0  0  3  0  0  0  0  0  0
  186.5240  178.3530  144.3000 C   0  0  0  0  0  0  0  0  0  0  0  0
  190.0180  177.7000  137.9430 C   0  0  0  0  0  3  0  0  0  0  0  0
  189.0560  177.6940  140.5800 C   0  0  0  0  0  0  0  0  0  0  0  0
  188.5730  178.6280  139.6490 C   0  0  0  0  0  3  0  0  0  0  0  0
  189.0560  178.6330  138.3380 C   0  0  0  0  0  3  0  0  0  0  0  0
  190.4950  176.7590  138.8580 C   0  0  0  0  0  3  0  0  0  0  0  0
  190.0130  176.7530  140.1700 C   0  0  0  0  0  3  0  0  0  0  0  0
  1 15  2  0  0  0  0
  2 16  1  0  0  0  0
  4 13  1  0  0  0  0
  6  2  1  0  0  0  0
  6 18  2  0  0  0  0
  9  7  1  0  0  0  0
 10 17  1  0  0  0  0
 10  8  2  0  0  0  0
 11  9  2  0  0  0  0
 12  1  1  0  0  0  0
 12  2  2  0  0  0  0
 13  7  2  0  0  0  0
 13  5  1  0  0  0  0
 14 11  1  0  0  0  0
 14  4  2  0  0  0  0
 15 21  1  0  0  0  0
 16  3  1  0  0  0  0
 16 11  1  0  0  0  0
 18 14  1  0  0  0  0
 19 10  1  0  0  0  0
 20 15  1  0  0  0  0
 20 19  2  0  0  0  0
 21  3  2  0  0  0  0
 21 17  1  0  0  0  0
 22 25  2  0  0  0  0
 22 26  1  0  0  0  0
 23 12  1  0  0  0  0
 24 23  2  0  0  0  0
 25 24  1  0  0  0  0
 26 27  2  0  0  0  0
 27 23  1  0  0  0  0
M  END
>  <MODEL>
6

>  <REMARK>
 VINA RESULT:     -10.4      2.843      7.644
  Name = 
  1 active torsions:
  status: ('A' for Active; 'I' for Inactive)
    1  A    between atoms: C_9  and  C_15
                            x       y       z     vdW  Elec       q    Type
                         _______ _______ _______ _____ _____    ______ ____

>  <TORSDO>
F 1

$$$$
=
 OpenBabel11052413503D

 27 31  0  0  0  0  0  0  0  0999 V2000
  187.7640  178.2000  145.4290 C   0  0  0  0  0  3  0  0  0  0  0  0
  189.0330  177.1850  143.5220 C   0  0  0  0  0  0  0  0  0  0  0  0
  186.6550  177.5930  142.7100 C   0  0  0  0  0  3  0  0  0  0  0  0
  190.1990  177.2280  139.4340 C   0  0  0  0  0  3  0  0  0  0  0  0
  189.8060  177.8780  137.1440 O   0  0  0  0  0  1  0  0  0  0  0  0
  190.3030  176.5710  143.0560 C   0  0  0  0  0  3  0  0  0  0  0  0
  188.1370  178.3370  138.8240 C   0  0  0  0  0  3  0  0  0  0  0  0
  182.5420  178.6280  144.3290 O   0  0  0  0  0  0  0  0  0  0  0  0
  187.7080  178.2710  140.1530 C   0  0  0  0  0  3  0  0  0  0  0  0
  183.7810  178.5830  144.5440 C   0  0  0  0  0  0  0  0  0  0  0  0
  188.5200  177.6810  141.1390 C   0  0  0  0  0  0  0  0  0  0  0  0
  188.8860  177.4510  144.8390 C   0  0  0  0  0  0  0  0  0  0  0  0
  189.3810  177.8140  138.4650 C   0  0  0  0  0  0  0  0  0  0  0  0
  189.7740  177.1650  140.7640 C   0  0  0  0  0  0  0  0  0  0  0  0
  186.5210  178.4130  145.0050 C   0  0  0  0  0  0  0  0  0  0  0  0
  188.0770  177.5920  142.5150 N   0  0  0  0  0  0  0  0  0  0  0  0
  184.6120  178.0420  143.6150 N   0  0  0  0  0  2  0  0  0  0  0  0
  190.6430  176.5560  141.7720 C   0  0  0  0  0  3  0  0  0  0  0  0
  184.3040  179.1060  145.7190 C   0  0  0  0  0  3  0  0  0  0  0  0
  185.6750  179.0110  145.9440 C   0  0  0  0  0  3  0  0  0  0  0  0
  185.9630  177.9660  143.7840 C   0  0  0  0  0  0  0  0  0  0  0  0
  191.9250  176.3680  147.6700 C   0  0  0  0  0  3  0  0  0  0  0  0
  189.9230  177.0570  145.8270 C   0  0  0  0  0  0  0  0  0  0  0  0
  189.8080  177.4320  147.1760 C   0  0  0  0  0  3  0  0  0  0  0  0
  190.8020  177.0840  148.0940 C   0  0  0  0  0  3  0  0  0  0  0  0
  192.0560  176.0030  146.3290 C   0  0  0  0  0  3  0  0  0  0  0  0
  191.0610  176.3500  145.4100 C   0  0  0  0  0  3  0  0  0  0  0  0
  2 12  2  0  0  0  0
  3 21  2  0  0  0  0
  4 14  1  0  0  0  0
  5 13  1  0  0  0  0
  6  2  1  0  0  0  0
  7  9  2  0  0  0  0
  8 10  2  0  0  0  0
  9 11  1  0  0  0  0
 10 19  1  0  0  0  0
 11 16  1  0  0  0  0
 12  1  1  0  0  0  0
 12 23  1  0  0  0  0
 13  7  1  0  0  0  0
 13  4  2  0  0  0  0
 14 11  2  0  0  0  0
 14 18  1  0  0  0  0
 15  1  2  0  0  0  0
 15 20  1  0  0  0  0
 16  3  1  0  0  0  0
 16  2  1  0  0  0  0
 17 21  1  0  0  0  0
 17 10  1  0  0  0  0
 18  6  2  0  0  0  0
 19 20  2  0  0  0  0
 21 15  1  0  0  0  0
 22 25  1  0  0  0  0
 23 24  1  0  0  0  0
 24 25  2  0  0  0  0
 26 22  2  0  0  0  0
 27 23  2  0  0  0  0
 27 26  1  0  0  0  0
M  END
>  <MODEL>
7

>  <REMARK>
 VINA RESULT:     -10.3      1.869      5.798
  Name = 
  1 active torsions:
  status: ('A' for Active; 'I' for Inactive)
    1  A    between atoms: C_9  and  C_15
                            x       y       z     vdW  Elec       q    Type
                         _______ _______ _______ _____ _____    ______ ____

>  <TORSDO>
F 1

$$$$
=
 OpenBabel11052413503D

 27 31  0  0  0  0  0  0  0  0999 V2000
  185.9480  178.7940  144.9080 C   0  0  0  0  0  3  0  0  0  0  0  0
  187.7890  177.6530  143.6500 C   0  0  0  0  0  0  0  0  0  0  0  0
  185.7890  177.8050  142.0820 C   0  0  0  0  0  3  0  0  0  0  0  0
  190.2070  177.3020  140.1710 C   0  0  0  0  0  3  0  0  0  0  0  0
  190.5560  177.6550  137.8100 O   0  0  0  0  0  1  0  0  0  0  0  0
  189.1570  177.0740  143.6930 C   0  0  0  0  0  3  0  0  0  0  0  0
  188.4240  178.1930  138.8020 C   0  0  0  0  0  3  0  0  0  0  0  0
  181.3490  178.7440  142.1680 O   0  0  0  0  0  0  0  0  0  0  0  0
  187.5920  178.2530  139.9230 C   0  0  0  0  0  3  0  0  0  0  0  0
  182.4530  178.8060  142.7670 C   0  0  0  0  0  0  0  0  0  0  0  0
  188.0570  177.8350  141.1840 C   0  0  0  0  0  0  0  0  0  0  0  0
  187.2190  178.0580  144.8060 C   0  0  0  0  0  0  0  0  0  0  0  0
  189.7300  177.7160  138.9250 C   0  0  0  0  0  0  0  0  0  0  0  0
  189.3790  177.3640  141.2950 C   0  0  0  0  0  0  0  0  0  0  0  0
  184.9020  178.8730  144.0890 C   0  0  0  0  0  0  0  0  0  0  0  0
  187.1980  177.8760  142.3480 N   0  0  0  0  0  0  0  0  0  0  0  0
  183.5520  178.2180  142.2280 N   0  0  0  0  0  2  0  0  0  0  0  0
  189.8930  176.9340  142.5960 C   0  0  0  0  0  3  0  0  0  0  0  0
  182.5560  179.4950  143.9690 C   0  0  0  0  0  3  0  0  0  0  0  0
  183.7830  179.5180  144.6260 C   0  0  0  0  0  3  0  0  0  0  0  0
  184.7790  178.2530  142.8240 C   0  0  0  0  0  0  0  0  0  0  0  0
  189.2060  177.5180  148.5720 C   0  0  0  0  0  3  0  0  0  0  0  0
  187.8930  177.8510  146.1140 C   0  0  0  0  0  0  0  0  0  0  0  0
  187.2770  178.2530  147.3100 C   0  0  0  0  0  3  0  0  0  0  0  0
  187.9290  178.0820  148.5340 C   0  0  0  0  0  3  0  0  0  0  0  0
  189.8340  177.1280  147.3870 C   0  0  0  0  0  3  0  0  0  0  0  0
  189.1820  177.2970  146.1620 C   0  0  0  0  0  3  0  0  0  0  0  0
  2  6  1  0  0  0  0
  2 12  2  0  0  0  0
  3 16  1  0  0  0  0
  3 21  2  0  0  0  0
  4 14  1  0  0  0  0
  5 13  1  0  0  0  0
  7 13  1  0  0  0  0
  7  9  2  0  0  0  0
  8 10  2  0  0  0  0
  9 11  1  0  0  0  0
 10 19  1  0  0  0  0
 11 14  2  0  0  0  0
 11 16  1  0  0  0  0
 12  1  1  0  0  0  0
 12 23  1  0  0  0  0
 13  4  2  0  0  0  0
 14 18  1  0  0  0  0
 15 20  1  0  0  0  0
 15  1  2  0  0  0  0
 16  2  1  0  0  0  0
 17 10  1  0  0  0  0
 17 21  1  0  0  0  0
 18  6  2  0  0  0  0
 19 20  2  0  0  0  0
 21 15  1  0  0  0  0
 23 27  2  0  0  0  0
 23 24  1  0  0  0  0
 24 25  2  0  0  0  0
 25 22  1  0  0  0  0
 26 22  2  0  0  0  0
 27 26  1  0  0  0  0
M  END
>  <MODEL>
8

>  <REMARK>
 VINA RESULT:     -10.1      1.112      5.540
  Name = 
  1 active torsions:
  status: ('A' for Active; 'I' for Inactive)
    1  A    between atoms: C_9  and  C_15
                            x       y       z     vdW  Elec       q    Type
                         _______ _______ _______ _____ _____    ______ ____

>  <TORSDO>
F 1

$$$$
=
 OpenBabel11052413503D

 27 31  0  0  0  0  0  0  0  0999 V2000
  188.3190  177.3090  139.4590 C   0  0  0  0  0  3  0  0  0  0  0  0
  189.3880  177.5650  141.7100 C   0  0  0  0  0  0  0  0  0  0  0  0
  187.0890  178.6510  141.8410 C   0  0  0  0  0  3  0  0  0  0  0  0
  189.2050  177.1870  145.9410 C   0  0  0  0  0  3  0  0  0  0  0  0
  187.9310  177.0590  147.9850 O   0  0  0  0  0  1  0  0  0  0  0  0
  190.6060  177.3810  142.5410 C   0  0  0  0  0  3  0  0  0  0  0  0
  186.8070  177.5030  145.8970 C   0  0  0  0  0  3  0  0  0  0  0  0
  183.7150  180.0220  139.1310 O   0  0  0  0  0  0  0  0  0  0  0  0
  186.8570  177.6970  144.5140 C   0  0  0  0  0  3  0  0  0  0  0  0
  184.7640  179.3360  139.2480 C   0  0  0  0  0  0  0  0  0  0  0  0
  188.0830  177.6400  143.8260 C   0  0  0  0  0  0  0  0  0  0  0  0
  189.4660  177.3280  140.3810 C   0  0  0  0  0  0  0  0  0  0  0  0
  187.9810  177.2500  146.6100 C   0  0  0  0  0  0  0  0  0  0  0  0
  189.2570  177.3760  144.5570 C   0  0  0  0  0  0  0  0  0  0  0  0
  187.1180  177.8770  139.5270 C   0  0  0  0  0  0  0  0  0  0  0  0
  188.1480  177.8560  142.3960 N   0  0  0  0  0  0  0  0  0  0  0  0
  185.4770  179.3780  140.4030 N   0  0  0  0  0  2  0  0  0  0  0  0
  190.5440  177.3000  143.8650 C   0  0  0  0  0  3  0  0  0  0  0  0
  185.1800  178.5170  138.2060 C   0  0  0  0  0  3  0  0  0  0  0  0
  186.3630  177.7960  138.3520 C   0  0  0  0  0  3  0  0  0  0  0  0
  186.6180  178.6560  140.5960 C   0  0  0  0  0  0  0  0  0  0  0  0
  193.1830  176.3780  138.4570 C   0  0  0  0  0  3  0  0  0  0  0  0
  190.7570  176.9820  139.7340 C   0  0  0  0  0  0  0  0  0  0  0  0
  191.9670  177.5030  140.2210 C   0  0  0  0  0  3  0  0  0  0  0  0
  193.1740  177.1980  139.5890 C   0  0  0  0  0  3  0  0  0  0  0  0
  191.9840  175.8660  137.9560 C   0  0  0  0  0  3  0  0  0  0  0  0
  190.7750  176.1700  138.5890 C   0  0  0  0  0  3  0  0  0  0  0  0
  1 15  2  0  0  0  0
  1 12  1  0  0  0  0
  2 16  1  0  0  0  0
  2  6  1  0  0  0  0
  3 16  1  0  0  0  0
  4 13  1  0  0  0  0
  6 18  2  0  0  0  0
  7 13  2  0  0  0  0
  8 10  2  0  0  0  0
  9  7  1  0  0  0  0
 10 17  1  0  0  0  0
 11  9  2  0  0  0  0
 11 14  1  0  0  0  0
 12  2  2  0  0  0  0
 13  5  1  0  0  0  0
 14  4  2  0  0  0  0
 15 21  1  0  0  0  0
 16 11  1  0  0  0  0
 17 21  1  0  0  0  0
 18 14  1  0  0  0  0
 19 20  2  0  0  0  0
 19 10  1  0  0  0  0
 20 15  1  0  0  0  0
 21  3  2  0  0  0  0
 22 25  1  0  0  0  0
 23 24  1  0  0  0  0
 23 12  1  0  0  0  0
 25 24  2  0  0  0  0
 26 22  2  0  0  0  0
 26 27  1  0  0  0  0
 27 23  2  0  0  0  0
M  END
>  <MODEL>
9

>  <REMARK>
 VINA RESULT:      -9.8      2.951      6.468
  Name = 
  1 active torsions:
  status: ('A' for Active; 'I' for Inactive)
    1  A    between atoms: C_9  and  C_15
                            x       y       z     vdW  Elec       q    Type
                         _______ _______ _______ _____ _____    ______ ____

>  <TORSDO>
F 1

$$$$
