=
 OpenBabel11052415203D

 37 40  0  0  1  0  0  0  0  0999 V2000
  184.3810  174.7860  135.1150 C   0  0  2  0  0  3  0  0  0  0  0  0
  188.1780  174.0000  135.5670 C   0  0  0  0  0  0  0  0  0  0  0  0
  187.7840  176.7890  138.0390 C   0  0  0  0  0  2  0  0  0  0  0  0
  183.8570  174.6160  136.4740 N   0  0  0  0  0  0  0  0  0  0  0  0
  181.8930  178.5020  136.7190 C   0  0  0  0  0  2  0  0  0  0  0  0
  188.4480  176.3030  134.9230 C   0  0  0  0  0  2  0  0  0  0  0  0
  179.6610  178.1840  135.7000 C   0  0  0  0  0  1  0  0  0  0  0  0
  180.1220  174.5430  135.8490 C   0  0  0  0  0  1  0  0  0  0  0  0
  188.5860  175.7140  137.2870 C   0  0  0  0  0  2  0  0  0  0  0  0
  183.5790  177.9540  138.3520 C   0  0  0  0  0  0  0  0  0  0  0  0
  188.7210  177.7420  135.3940 C   0  0  0  0  0  2  0  0  0  0  0  0
  182.4610  174.8540  136.7280 C   0  0  0  0  0  0  0  0  0  0  0  0
  186.1810  173.1890  135.3940 O   0  0  0  0  0  0  0  0  0  0  0  0
  188.8640  173.0110  136.4980 C   0  0  0  0  0  2  0  0  0  0  0  0
  185.9150  178.4710  137.9650 C   0  0  0  0  0  2  0  0  0  0  0  0
  187.5210  178.4190  136.0600 C   0  0  0  0  0  2  0  0  0  0  0  0
  187.2460  173.4670  134.6660 O   0  0  0  0  0  0  0  0  0  0  0  0
  181.5120  175.1080  135.5910 C   0  0  2  0  0  3  0  0  0  0  0  0
  180.8700  177.4720  136.2690 C   0  0  1  0  0  3  0  0  0  0  0  0
  186.8210  177.5790  137.1370 C   0  0  1  0  0  3  0  0  0  0  0  0
  185.0880  173.5360  134.5940 C   0  0  0  0  0  2  0  0  0  0  0  0
  187.9710  175.4010  135.9880 N   0  0  2  0  0  0  0  0  0  0  0  0
  182.3230  178.2480  138.1310 C   0  0  0  0  0  0  0  0  0  0  0  0
  189.6120  173.5830  135.2960 C   0  0  0  0  0  2  0  0  0  0  0  0
  181.4740  176.5820  135.1910 C   0  0  0  0  0  2  0  0  0  0  0  0
  182.0380  174.9080  137.9170 O   0  0  0  0  0  0  0  0  0  0  0  0
  185.2150  175.9020  135.0480 O   0  0  0  0  0  1  0  0  0  0  0  0
  184.8280  177.6660  138.5880 C   0  0  0  0  0  3  0  0  0  0  0  0
  180.9240  177.3730  140.0180 C   0  0  0  0  0  3  0  0  0  0  0  0
  181.3990  178.4610  139.2710 C   0  0  0  0  0  0  0  0  0  0  0  0
  180.9950  179.7210  139.6030 N   0  0  0  0  0  0  0  0  0  0  0  0
  179.7770  181.2290  140.9320 F   0  0  0  0  0  0  0  0  0  0  0  0
  179.6640  178.8970  141.4050 C   0  0  0  0  0  3  0  0  0  0  0  0
  180.1480  179.9600  140.6410 C   0  0  0  0  0  0  0  0  0  0  0  0
  180.0560  177.5960  141.0880 C   0  0  0  0  0  3  0  0  0  0  0  0
  184.9000  172.9920  137.9710 C   0  0  0  0  0  1  0  0  0  0  0  0
  184.7830  174.4570  137.5920 C   0  0  0  0  0  2  0  0  0  0  0  0
  1 27  1  1  0  0  0
  1  4  1  0  0  0  0
  2 22  1  0  0  0  0
  2 14  1  0  0  0  0
  4 12  1  0  0  0  0
  4 37  1  0  0  0  0
  5 23  1  0  0  0  0
  6 11  1  0  0  0  0
  9  3  1  0  0  0  0
 10 28  2  0  0  0  0
 11 16  1  0  0  0  0
 12 26  2  0  0  0  0
 15 28  1  0  0  0  0
 17 13  1  0  0  0  0
 17  2  1  0  0  0  0
 18  8  1  1  0  0  0
 18 12  1  0  0  0  0
 19  7  1  6  0  0  0
 19  5  1  0  0  0  0
 20 16  1  6  0  0  0
 20 15  1  0  0  0  0
 20  3  1  0  0  0  0
 21  1  1  0  0  0  0
 21 13  1  0  0  0  0
 22  6  1  6  0  0  0
 22  9  1  0  0  0  0
 23 10  2  0  0  0  0
 23 30  1  0  0  0  0
 24  2  1  0  0  0  0
 24 14  1  0  0  0  0
 25 18  1  0  0  0  0
 25 19  1  0  0  0  0
 29 35  1  0  0  0  0
 30 31  1  0  0  0  0
 30 29  2  0  0  0  0
 31 34  2  0  0  0  0
 34 32  1  0  0  0  0
 34 33  1  0  0  0  0
 35 33  2  0  0  0  0
 37 36  1  0  0  0  0
M  END
>  <MODEL>
1

>  <REMARK>
 VINA RESULT:      -5.5      0.000      0.000
  Name = 
  2 active torsions:
  status: ('A' for Active; 'I' for Inactive)
    1  A    between atoms: N_5  and  C_23
    2  A    between atoms: C_6  and  C_31
                            x       y       z     vdW  Elec       q    Type
                         _______ _______ _______ _____ _____    ______ ____

>  <TORSDO>
F 2

$$$$
=
 OpenBabel11052415203D

 37 40  0  0  1  0  0  0  0  0999 V2000
  184.7910  174.8200  135.0670 C   0  0  2  0  0  3  0  0  0  0  0  0
  188.5750  174.3640  135.9120 C   0  0  0  0  0  0  0  0  0  0  0  0
  187.6590  177.0150  138.3980 C   0  0  0  0  0  2  0  0  0  0  0  0
  184.1430  174.5550  136.3550 N   0  0  0  0  0  0  0  0  0  0  0  0
  181.8100  178.2350  136.4850 C   0  0  0  0  0  2  0  0  0  0  0  0
  188.6960  176.7040  135.3630 C   0  0  0  0  0  2  0  0  0  0  0  0
  179.7390  177.7540  135.2190 C   0  0  0  0  0  1  0  0  0  0  0  0
  180.5200  174.1670  135.3210 C   0  0  0  0  0  1  0  0  0  0  0  0
  188.6350  176.0450  137.7110 C   0  0  0  0  0  2  0  0  0  0  0  0
  183.3550  177.7830  138.2780 C   0  0  0  0  0  0  0  0  0  0  0  0
  188.7810  178.1440  135.8990 C   0  0  0  0  0  2  0  0  0  0  0  0
  182.7130  174.6560  136.4610 C   0  0  0  0  0  0  0  0  0  0  0  0
  186.6940  173.3830  135.5000 O   0  0  0  0  0  0  0  0  0  0  0  0
  189.2480  173.4080  136.8860 C   0  0  0  0  0  2  0  0  0  0  0  0
  185.6600  178.5230  138.1640 C   0  0  0  0  0  2  0  0  0  0  0  0
  187.4580  178.6850  136.4470 C   0  0  0  0  0  2  0  0  0  0  0  0
  187.7990  173.7820  134.9010 O   0  0  0  0  0  0  0  0  0  0  0  0
  181.8710  174.8640  135.2330 C   0  0  2  0  0  3  0  0  0  0  0  0
  180.9420  177.1350  135.8980 C   0  0  1  0  0  3  0  0  0  0  0  0
  186.7290  177.7470  137.4170 C   0  0  1  0  0  3  0  0  0  0  0  0
  185.6650  173.6590  134.5940 C   0  0  0  0  0  2  0  0  0  0  0  0
  188.1940  175.7250  136.3450 N   0  0  2  0  0  0  0  0  0  0  0  0
  182.1080  177.9700  137.9290 C   0  0  0  0  0  0  0  0  0  0  0  0
  190.0630  174.0890  135.7890 C   0  0  0  0  0  2  0  0  0  0  0  0
  181.7380  176.3420  134.8700 C   0  0  0  0  0  2  0  0  0  0  0  0
  182.1610  174.6280  137.5970 O   0  0  0  0  0  0  0  0  0  0  0  0
  185.5200  176.0090  135.1210 O   0  0  0  0  0  1  0  0  0  0  0  0
  184.5930  177.6000  138.6430 C   0  0  0  0  0  3  0  0  0  0  0  0
  180.4260  179.2820  139.2460 C   0  0  0  0  0  3  0  0  0  0  0  0
  181.0510  178.0580  138.9650 C   0  0  0  0  0  0  0  0  0  0  0  0
  180.6780  176.9470  139.6640 N   0  0  0  0  0  0  0  0  0  0  0  0
  179.3770  175.8550  141.2890 F   0  0  0  0  0  0  0  0  0  0  0  0
  179.0720  178.1890  140.9200 C   0  0  0  0  0  3  0  0  0  0  0  0
  179.7140  176.9850  140.6230 C   0  0  0  0  0  0  0  0  0  0  0  0
  179.4340  179.3440  140.2250 C   0  0  0  0  0  3  0  0  0  0  0  0
  185.0950  172.9810  137.9640 C   0  0  0  0  0  1  0  0  0  0  0  0
  184.9550  174.4390  137.5640 C   0  0  0  0  0  2  0  0  0  0  0  0
  1 27  1  1  0  0  0
  1  4  1  0  0  0  0
  2 22  1  0  0  0  0
  2 14  1  0  0  0  0
  4 12  1  0  0  0  0
  4 37  1  0  0  0  0
  5 23  1  0  0  0  0
  6 11  1  0  0  0  0
  9  3  1  0  0  0  0
 10 28  2  0  0  0  0
 11 16  1  0  0  0  0
 12 26  2  0  0  0  0
 15 28  1  0  0  0  0
 17 13  1  0  0  0  0
 17  2  1  0  0  0  0
 18  8  1  1  0  0  0
 18 12  1  0  0  0  0
 19  7  1  6  0  0  0
 19  5  1  0  0  0  0
 20 16  1  1  0  0  0
 20 15  1  0  0  0  0
 20  3  1  0  0  0  0
 21  1  1  0  0  0  0
 21 13  1  0  0  0  0
 22  6  1  6  0  0  0
 22  9  1  0  0  0  0
 23 10  2  0  0  0  0
 23 30  1  0  0  0  0
 24  2  1  0  0  0  0
 24 14  1  0  0  0  0
 25 18  1  0  0  0  0
 25 19  1  0  0  0  0
 29 35  1  0  0  0  0
 30 29  2  0  0  0  0
 30 31  1  0  0  0  0
 31 34  2  0  0  0  0
 34 33  1  0  0  0  0
 34 32  1  0  0  0  0
 35 33  2  0  0  0  0
 37 36  1  0  0  0  0
M  END
>  <MODEL>
2

>  <REMARK>
 VINA RESULT:      -5.5      1.158      1.315
  Name = 
  2 active torsions:
  status: ('A' for Active; 'I' for Inactive)
    1  A    between atoms: N_5  and  C_23
    2  A    between atoms: C_6  and  C_31
                            x       y       z     vdW  Elec       q    Type
                         _______ _______ _______ _____ _____    ______ ____

>  <TORSDO>
F 2

$$$$
=
 OpenBabel11052415203D

 37 40  0  0  1  0  0  0  0  0999 V2000
  182.4370  175.2340  137.3410 C   0  0  2  0  0  3  0  0  0  0  0  0
  180.1510  178.1710  138.5210 C   0  0  0  0  0  0  0  0  0  0  0  0
  183.5270  179.7210  139.0210 C   0  0  0  0  0  2  0  0  0  0  0  0
  183.2260  175.8550  136.2730 N   0  0  0  0  0  0  0  0  0  0  0  0
  187.1320  174.7220  137.8450 C   0  0  0  0  0  2  0  0  0  0  0  0
  181.3610  177.9170  140.5850 C   0  0  0  0  0  2  0  0  0  0  0  0
  187.5580  172.4410  136.9860 C   0  0  0  0  0  1  0  0  0  0  0  0
  184.7810  172.8250  134.6140 C   0  0  0  0  0  1  0  0  0  0  0  0
  181.9900  179.7180  139.0630 C   0  0  0  0  0  2  0  0  0  0  0  0
  186.6550  177.0610  137.5130 C   0  0  0  0  0  0  0  0  0  0  0  0
  182.4790  178.4630  141.4910 C   0  0  0  0  0  2  0  0  0  0  0  0
  184.2290  175.0790  135.5930 C   0  0  0  0  0  0  0  0  0  0  0  0
  180.5050  176.6600  137.0160 O   0  0  0  0  0  0  0  0  0  0  0  0
  179.5330  179.3070  137.7190 C   0  0  0  0  0  2  0  0  0  0  0  0
  185.6520  178.3970  139.2680 C   0  0  0  0  0  2  0  0  0  0  0  0
  183.8930  178.1250  141.0120 C   0  0  0  0  0  2  0  0  0  0  0  0
  179.8160  176.8700  138.1210 O   0  0  0  0  0  0  0  0  0  0  0  0
  184.3560  173.6040  135.8510 C   0  0  2  0  0  3  0  0  0  0  0  0
  186.7010  173.6790  136.8270 C   0  0  1  0  0  3  0  0  0  0  0  0
  184.1570  178.4120  139.5280 C   0  0  1  0  0  3  0  0  0  0  0  0
  180.9320  175.3300  137.0960 C   0  0  0  0  0  2  0  0  0  0  0  0
  181.4620  178.3490  139.1790 N   0  0  2  0  0  0  0  0  0  0  0  0
  187.4010  176.0380  137.1820 C   0  0  0  0  0  0  0  0  0  0  0  0
  178.9930  178.9590  139.1040 C   0  0  0  0  0  2  0  0  0  0  0  0
  185.2430  173.3050  137.0590 C   0  0  0  0  0  2  0  0  0  0  0  0
  185.0470  175.6480  134.8170 O   0  0  0  0  0  0  0  0  0  0  0  0
  182.7810  175.7740  138.5810 O   0  0  0  0  0  1  0  0  0  0  0  0
  185.9230  178.0900  137.8360 C   0  0  0  0  0  3  0  0  0  0  0  0
  188.6350  177.3390  135.4310 C   0  0  0  0  0  3  0  0  0  0  0  0
  188.5660  176.2280  136.2850 C   0  0  0  0  0  0  0  0  0  0  0  0
  189.5840  175.3200  136.2740 N   0  0  0  0  0  0  0  0  0  0  0  0
  191.6540  174.5290  135.4940 F   0  0  0  0  0  0  0  0  0  0  0  0
  190.7670  176.5560  134.6100 C   0  0  0  0  0  3  0  0  0  0  0  0
  190.6690  175.4580  135.4660 C   0  0  0  0  0  0  0  0  0  0  0  0
  189.7400  177.5010  134.5940 C   0  0  0  0  0  3  0  0  0  0  0  0
  182.5260  177.6260  134.7420 C   0  0  0  0  0  1  0  0  0  0  0  0
  183.1710  177.3020  136.0780 C   0  0  0  0  0  2  0  0  0  0  0  0
  1 27  1  1  0  0  0
  2 24  1  0  0  0  0
  2 22  1  0  0  0  0
  3  9  1  0  0  0  0
  4  1  1  0  0  0  0
  6 11  1  0  0  0  0
 10 28  2  0  0  0  0
 12 18  1  0  0  0  0
 12  4  1  0  0  0  0
 13 21  1  0  0  0  0
 13 17  1  0  0  0  0
 14  2  1  0  0  0  0
 14 24  1  0  0  0  0
 15 20  1  0  0  0  0
 16 11  1  0  0  0  0
 17  2  1  0  0  0  0
 18  8  1  6  0  0  0
 18 25  1  0  0  0  0
 19  7  1  1  0  0  0
 19 25  1  0  0  0  0
 19  5  1  0  0  0  0
 20  3  1  1  0  0  0
 20 16  1  0  0  0  0
 21  1  1  0  0  0  0
 22  9  1  1  0  0  0
 22  6  1  0  0  0  0
 23 10  2  0  0  0  0
 23  5  1  0  0  0  0
 26 12  2  0  0  0  0
 28 15  1  0  0  0  0
 29 30  1  0  0  0  0
 30 23  1  0  0  0  0
 31 30  2  0  0  0  0
 33 34  2  0  0  0  0
 34 32  1  0  0  0  0
 34 31  1  0  0  0  0
 35 33  1  0  0  0  0
 35 29  2  0  0  0  0
 36 37  1  0  0  0  0
 37  4  1  0  0  0  0
M  END
>  <MODEL>
3

>  <REMARK>
 VINA RESULT:      -5.1      2.905      7.762
  Name = 
  2 active torsions:
  status: ('A' for Active; 'I' for Inactive)
    1  A    between atoms: N_5  and  C_23
    2  A    between atoms: C_6  and  C_31
                            x       y       z     vdW  Elec       q    Type
                         _______ _______ _______ _____ _____    ______ ____

>  <TORSDO>
F 2

$$$$
=
 OpenBabel11052415203D

 37 40  0  0  1  0  0  0  0  0999 V2000
  183.6520  174.6510  137.9380 C   0  0  2  0  0  3  0  0  0  0  0  0
  183.0390  171.3380  135.9650 C   0  0  0  0  0  0  0  0  0  0  0  0
  180.1050  173.3550  134.7950 C   0  0  0  0  0  2  0  0  0  0  0  0
  183.7130  175.6510  136.8680 N   0  0  0  0  0  0  0  0  0  0  0  0
  180.7230  178.3390  138.5560 C   0  0  0  0  0  2  0  0  0  0  0  0
  180.9510  171.3370  137.1610 C   0  0  0  0  0  2  0  0  0  0  0  0
  181.9520  179.7920  140.1360 C   0  0  0  0  0  1  0  0  0  0  0  0
  185.1330  178.6450  138.7030 C   0  0  0  0  0  1  0  0  0  0  0  0
  180.9810  172.0920  134.8410 C   0  0  0  0  0  2  0  0  0  0  0  0
  180.3510  177.4350  136.3530 C   0  0  0  0  0  0  0  0  0  0  0  0
  179.4390  171.6170  137.1010 C   0  0  0  0  0  2  0  0  0  0  0  0
  183.9020  177.0370  137.2060 C   0  0  0  0  0  0  0  0  0  0  0  0
  184.4790  172.8360  136.5620 O   0  0  0  0  0  0  0  0  0  0  0  0
  183.5430  170.9140  134.5940 C   0  0  0  0  0  2  0  0  0  0  0  0
  179.1820  175.3350  136.0410 C   0  0  0  0  0  2  0  0  0  0  0  0
  179.0770  173.1040  137.1450 C   0  0  0  0  0  2  0  0  0  0  0  0
  184.0160  171.6540  136.9190 O   0  0  0  0  0  0  0  0  0  0  0  0
  184.2050  177.4410  138.6220 C   0  0  2  0  0  3  0  0  0  0  0  0
  182.0990  178.8170  138.9880 C   0  0  1  0  0  3  0  0  0  0  0  0
  179.8700  173.9900  136.1760 C   0  0  1  0  0  3  0  0  0  0  0  0
  184.6770  173.5310  137.7590 C   0  0  0  0  0  2  0  0  0  0  0  0
  181.7300  172.0090  136.1050 N   0  0  2  0  0  0  0  0  0  0  0  0
  180.5370  178.5070  137.0790 C   0  0  0  0  0  0  0  0  0  0  0  0
  183.0060  169.8720  135.5730 C   0  0  0  0  0  2  0  0  0  0  0  0
  182.9350  177.6300  139.4500 C   0  0  0  0  0  2  0  0  0  0  0  0
  183.7570  177.9260  136.3210 O   0  0  0  0  0  0  0  0  0  0  0  0
  182.3600  174.1370  138.0550 O   0  0  0  0  0  1  0  0  0  0  0  0
  180.1600  176.3760  135.6180 C   0  0  0  0  0  3  0  0  0  0  0  0
  180.8770  180.0800  135.1570 C   0  0  0  0  0  3  0  0  0  0  0  0
  180.4180  179.8510  136.4630 C   0  0  0  0  0  0  0  0  0  0  0  0
  179.8660  180.8840  137.1620 N   0  0  0  0  0  0  0  0  0  0  0  0
  179.1830  183.1230  137.3670 F   0  0  0  0  0  0  0  0  0  0  0  0
  180.1830  182.3860  135.3340 C   0  0  0  0  0  3  0  0  0  0  0  0
  179.7400  182.1300  136.6330 C   0  0  0  0  0  0  0  0  0  0  0  0
  180.7560  181.3510  134.5940 C   0  0  0  0  0  3  0  0  0  0  0  0
  184.5460  175.3300  134.5940 C   0  0  0  0  0  1  0  0  0  0  0  0
  183.3340  175.2800  135.5070 C   0  0  0  0  0  2  0  0  0  0  0  0
  1 27  1  6  0  0  0
  2 22  1  0  0  0  0
  2 17  1  0  0  0  0
  3  9  1  0  0  0  0
  4 12  1  0  0  0  0
  4  1  1  0  0  0  0
  5 19  1  0  0  0  0
 10 23  2  0  0  0  0
 11 16  1  0  0  0  0
 11  6  1  0  0  0  0
 12 18  1  0  0  0  0
 13 17  1  0  0  0  0
 13 21  1  0  0  0  0
 14 24  1  0  0  0  0
 14  2  1  0  0  0  0
 15 20  1  0  0  0  0
 18  8  1  6  0  0  0
 18 25  1  0  0  0  0
 19 25  1  0  0  0  0
 19  7  1  1  0  0  0
 20  3  1  6  0  0  0
 20 16  1  0  0  0  0
 21  1  1  0  0  0  0
 22  9  1  6  0  0  0
 22  6  1  0  0  0  0
 23  5  1  0  0  0  0
 24  2  1  0  0  0  0
 26 12  2  0  0  0  0
 28 15  1  0  0  0  0
 28 10  2  0  0  0  0
 29 30  1  0  0  0  0
 30 23  1  0  0  0  0
 30 31  2  0  0  0  0
 33 34  2  0  0  0  0
 34 31  1  0  0  0  0
 34 32  1  0  0  0  0
 35 29  2  0  0  0  0
 35 33  1  0  0  0  0
 36 37  1  0  0  0  0
 37  4  1  0  0  0  0
M  END
>  <MODEL>
4

>  <REMARK>
 VINA RESULT:      -4.7      2.693      5.838
  Name = 
  2 active torsions:
  status: ('A' for Active; 'I' for Inactive)
    1  A    between atoms: N_5  and  C_23
    2  A    between atoms: C_6  and  C_31
                            x       y       z     vdW  Elec       q    Type
                         _______ _______ _______ _____ _____    ______ ____

>  <TORSDO>
F 2

$$$$
=
 OpenBabel11052415203D

 37 40  0  0  1  0  0  0  0  0999 V2000
  184.2630  176.2950  135.3140 C   0  0  2  0  0  3  0  0  0  0  0  0
  187.9080  175.0440  135.9340 C   0  0  0  0  0  0  0  0  0  0  0  0
  187.4950  177.3490  138.8600 C   0  0  0  0  0  2  0  0  0  0  0  0
  183.5850  175.9310  136.5610 N   0  0  0  0  0  0  0  0  0  0  0  0
  181.9490  179.8870  137.3900 C   0  0  0  0  0  2  0  0  0  0  0  0
  188.4430  177.3850  135.7800 C   0  0  0  0  0  2  0  0  0  0  0  0
  179.8190  180.0010  136.1370 C   0  0  0  0  0  1  0  0  0  0  0  0
  179.9450  176.3680  135.6090 C   0  0  0  0  0  1  0  0  0  0  0  0
  188.2780  176.3550  137.9860 C   0  0  0  0  0  2  0  0  0  0  0  0
  183.3980  178.8700  139.0260 C   0  0  0  0  0  0  0  0  0  0  0  0
  188.7870  178.6750  136.5460 C   0  0  0  0  0  2  0  0  0  0  0  0
  182.1960  176.2620  136.7340 C   0  0  0  0  0  0  0  0  0  0  0  0
  185.8790  174.4940  135.4310 O   0  0  0  0  0  0  0  0  0  0  0  0
  188.4040  173.8320  136.7090 C   0  0  0  0  0  2  0  0  0  0  0  0
  185.7970  179.2020  138.9540 C   0  0  0  0  0  2  0  0  0  0  0  0
  187.5860  179.3380  137.2240 C   0  0  0  0  0  2  0  0  0  0  0  0
  187.0350  174.7890  134.8680 O   0  0  0  0  0  0  0  0  0  0  0  0
  181.3980  176.8220  135.5900 C   0  0  2  0  0  3  0  0  0  0  0  0
  180.8940  179.0720  136.6590 C   0  0  1  0  0  3  0  0  0  0  0  0
  186.7060  178.3900  138.0500 C   0  0  1  0  0  3  0  0  0  0  0  0
  184.9110  175.0970  134.6210 C   0  0  0  0  0  2  0  0  0  0  0  0
  187.7800  176.3560  136.6010 N   0  0  2  0  0  0  0  0  0  0  0  0
  182.2020  179.3300  138.7570 C   0  0  0  0  0  0  0  0  0  0  0  0
  189.3220  174.5370  135.7130 C   0  0  0  0  0  2  0  0  0  0  0  0
  181.5310  178.3410  135.4850 C   0  0  0  0  0  2  0  0  0  0  0  0
  181.6550  176.1370  137.8690 O   0  0  0  0  0  0  0  0  0  0  0  0
  185.1930  177.3100  135.5400 O   0  0  0  0  0  1  0  0  0  0  0  0
  184.5850  178.4130  139.3090 C   0  0  0  0  0  3  0  0  0  0  0  0
  180.4230  180.5900  139.9950 C   0  0  0  0  0  3  0  0  0  0  0  0
  181.1840  179.4230  139.8320 C   0  0  0  0  0  0  0  0  0  0  0  0
  180.9800  178.3740  140.6800 N   0  0  0  0  0  0  0  0  0  0  0  0
  179.8900  177.3510  142.4930 F   0  0  0  0  0  0  0  0  0  0  0  0
  179.2820  179.5660  141.8600 C   0  0  0  0  0  3  0  0  0  0  0  0
  180.0570  178.4190  141.6770 C   0  0  0  0  0  0  0  0  0  0  0  0
  179.4690  180.6570  141.0110 C   0  0  0  0  0  3  0  0  0  0  0  0
  184.1280  173.9900  137.9420 C   0  0  0  0  0  1  0  0  0  0  0  0
  184.3700  175.4700  137.7040 C   0  0  0  0  0  2  0  0  0  0  0  0
  1 27  1  1  0  0  0
  1  4  1  0  0  0  0
  2 22  1  0  0  0  0
  2 14  1  0  0  0  0
  4 12  1  0  0  0  0
  4 37  1  0  0  0  0
  5 23  1  0  0  0  0
  6 11  1  0  0  0  0
  9  3  1  0  0  0  0
 10 28  2  0  0  0  0
 11 16  1  0  0  0  0
 12 26  2  0  0  0  0
 15 28  1  0  0  0  0
 17 13  1  0  0  0  0
 17  2  1  0  0  0  0
 18  8  1  1  0  0  0
 18 12  1  0  0  0  0
 19  7  1  6  0  0  0
 19  5  1  0  0  0  0
 20 16  1  1  0  0  0
 20  3  1  0  0  0  0
 20 15  1  0  0  0  0
 21  1  1  0  0  0  0
 21 13  1  0  0  0  0
 22  6  1  6  0  0  0
 22  9  1  0  0  0  0
 23 10  2  0  0  0  0
 23 30  1  0  0  0  0
 24  2  1  0  0  0  0
 24 14  1  0  0  0  0
 25 18  1  0  0  0  0
 25 19  1  0  0  0  0
 29 35  1  0  0  0  0
 30 29  2  0  0  0  0
 30 31  1  0  0  0  0
 31 34  2  0  0  0  0
 34 33  1  0  0  0  0
 34 32  1  0  0  0  0
 35 33  2  0  0  0  0
 37 36  1  0  0  0  0
M  END
>  <MODEL>
5

>  <REMARK>
 VINA RESULT:      -4.4      1.415      1.674
  Name = 
  2 active torsions:
  status: ('A' for Active; 'I' for Inactive)
    1  A    between atoms: N_5  and  C_23
    2  A    between atoms: C_6  and  C_31
                            x       y       z     vdW  Elec       q    Type
                         _______ _______ _______ _____ _____    ______ ____

>  <TORSDO>
F 2

$$$$
=
 OpenBabel11052415203D

 37 40  0  0  1  0  0  0  0  0999 V2000
  184.6230  176.6570  135.7120 C   0  0  2  0  0  3  0  0  0  0  0  0
  188.2320  175.1760  135.5590 C   0  0  0  0  0  0  0  0  0  0  0  0
  188.3650  176.8950  138.8870 C   0  0  0  0  0  2  0  0  0  0  0  0
  184.0980  176.0880  136.9560 N   0  0  0  0  0  0  0  0  0  0  0  0
  182.8440  179.8720  138.7230 C   0  0  0  0  0  2  0  0  0  0  0  0
  188.8890  177.4820  135.7610 C   0  0  0  0  0  2  0  0  0  0  0  0
  180.5760  180.3020  137.8330 C   0  0  0  0  0  1  0  0  0  0  0  0
  180.3990  176.8340  136.6360 C   0  0  0  0  0  1  0  0  0  0  0  0
  188.9580  176.0580  137.7410 C   0  0  0  0  0  2  0  0  0  0  0  0
  184.4330  178.5090  139.9180 C   0  0  0  0  0  0  0  0  0  0  0  0
  189.4150  178.5880  136.6930 C   0  0  0  0  0  2  0  0  0  0  0  0
  182.7690  176.4320  137.3860 C   0  0  0  0  0  0  0  0  0  0  0  0
  186.1230  174.8080  135.2630 O   0  0  0  0  0  0  0  0  0  0  0  0
  188.7490  173.8210  136.0200 C   0  0  0  0  0  2  0  0  0  0  0  0
  186.8170  178.7590  139.5620 C   0  0  0  0  0  2  0  0  0  0  0  0
  188.3610  179.1540  137.6470 C   0  0  0  0  0  2  0  0  0  0  0  0
  187.2080  175.1610  134.6020 O   0  0  0  0  0  0  0  0  0  0  0  0
  181.8610  177.2290  136.4900 C   0  0  2  0  0  3  0  0  0  0  0  0
  181.6510  179.2520  138.0150 C   0  0  1  0  0  3  0  0  0  0  0  0
  187.5420  178.1000  138.4030 C   0  0  1  0  0  3  0  0  0  0  0  0
  185.0950  175.5900  134.7250 C   0  0  0  0  0  2  0  0  0  0  0  0
  188.2780  176.3410  136.4670 N   0  0  2  0  0  0  0  0  0  0  0  0
  183.2440  179.0560  139.9140 C   0  0  0  0  0  0  0  0  0  0  0  0
  189.5670  174.6670  135.0480 C   0  0  0  0  0  2  0  0  0  0  0  0
  182.0750  178.7330  136.6470 C   0  0  0  0  0  2  0  0  0  0  0  0
  182.3790  176.1140  138.5440 O   0  0  0  0  0  0  0  0  0  0  0  0
  185.6380  177.5750  135.9830 O   0  0  0  0  0  1  0  0  0  0  0  0
  185.6160  177.9620  139.9390 C   0  0  0  0  0  3  0  0  0  0  0  0
  182.9270  179.2260  142.3950 C   0  0  0  0  0  3  0  0  0  0  0  0
  182.3880  178.9810  141.1220 C   0  0  0  0  0  0  0  0  0  0  0  0
  181.0650  178.6660  141.0110 N   0  0  0  0  0  0  0  0  0  0  0  0
  178.9400  178.2720  141.9330 F   0  0  0  0  0  0  0  0  0  0  0  0
  180.7540  178.8300  143.3720 C   0  0  0  0  0  3  0  0  0  0  0  0
  180.2470  178.5870  142.0950 C   0  0  0  0  0  0  0  0  0  0  0  0
  182.1040  179.1510  143.5200 C   0  0  0  0  0  3  0  0  0  0  0  0
  184.7160  173.8970  137.8440 C   0  0  0  0  0  1  0  0  0  0  0  0
  184.9990  175.3880  137.8700 C   0  0  0  0  0  2  0  0  0  0  0  0
  1 27  1  1  0  0  0
  1  4  1  0  0  0  0
  2 14  1  0  0  0  0
  2 22  1  0  0  0  0
  4 12  1  0  0  0  0
  4 37  1  0  0  0  0
  5 23  1  0  0  0  0
  6 11  1  0  0  0  0
  9  3  1  0  0  0  0
 10 28  2  0  0  0  0
 11 16  1  0  0  0  0
 12 26  2  0  0  0  0
 15 28  1  0  0  0  0
 17 13  1  0  0  0  0
 17  2  1  0  0  0  0
 18  8  1  1  0  0  0
 18 25  1  0  0  0  0
 18 12  1  0  0  0  0
 19  7  1  6  0  0  0
 19  5  1  0  0  0  0
 20 16  1  1  0  0  0
 20  3  1  0  0  0  0
 20 15  1  0  0  0  0
 21 13  1  0  0  0  0
 21  1  1  0  0  0  0
 22  6  1  6  0  0  0
 22  9  1  0  0  0  0
 23 10  2  0  0  0  0
 23 30  1  0  0  0  0
 24  2  1  0  0  0  0
 24 14  1  0  0  0  0
 25 19  1  0  0  0  0
 29 35  1  0  0  0  0
 30 29  2  0  0  0  0
 31 30  1  0  0  0  0
 31 34  2  0  0  0  0
 32 34  1  0  0  0  0
 33 35  2  0  0  0  0
 34 33  1  0  0  0  0
 36 37  1  0  0  0  0
M  END
>  <MODEL>
6

>  <REMARK>
 VINA RESULT:      -4.1      1.715      2.037
  Name = 
  2 active torsions:
  status: ('A' for Active; 'I' for Inactive)
    1  A    between atoms: N_5  and  C_23
    2  A    between atoms: C_6  and  C_31
                            x       y       z     vdW  Elec       q    Type
                         _______ _______ _______ _____ _____    ______ ____

>  <TORSDO>
F 2

$$$$
=
 OpenBabel11052415203D

 37 40  0  0  1  0  0  0  0  0999 V2000
  186.9770  177.2430  137.8620 C   0  0  2  0  0  3  0  0  0  0  0  0
  190.2300  176.2350  135.9530 C   0  0  0  0  0  0  0  0  0  0  0  0
  187.8490  173.6800  134.5940 C   0  0  0  0  0  2  0  0  0  0  0  0
  186.0330  177.4950  136.7700 N   0  0  0  0  0  0  0  0  0  0  0  0
  182.8840  174.8630  138.2450 C   0  0  0  0  0  2  0  0  0  0  0  0
  189.8880  174.1200  137.0510 C   0  0  0  0  0  2  0  0  0  0  0  0
  181.5730  176.2250  139.8400 C   0  0  0  0  0  1  0  0  0  0  0  0
  183.2180  179.2610  138.5870 C   0  0  0  0  0  1  0  0  0  0  0  0
  189.2230  174.3590  134.7150 C   0  0  0  0  0  2  0  0  0  0  0  0
  183.7980  174.4560  136.0520 C   0  0  0  0  0  0  0  0  0  0  0  0
  189.3930  172.6700  136.9130 C   0  0  0  0  0  2  0  0  0  0  0  0
  184.6790  177.8710  137.0790 C   0  0  0  0  0  0  0  0  0  0  0  0
  188.9380  177.8520  136.5750 O   0  0  0  0  0  0  0  0  0  0  0  0
  190.7690  176.7270  134.6180 C   0  0  0  0  0  2  0  0  0  0  0  0
  185.7140  173.0050  135.7420 C   0  0  0  0  0  2  0  0  0  0  0  0
  187.8690  172.5280  136.9000 C   0  0  0  0  0  2  0  0  0  0  0  0
  190.0280  177.2060  136.9430 O   0  0  0  0  0  0  0  0  0  0  0  0
  184.2760  178.1710  138.4960 C   0  0  2  0  0  3  0  0  0  0  0  0
  182.5970  176.2760  138.7270 C   0  0  1  0  0  3  0  0  0  0  0  0
  187.1400  173.4830  135.9450 C   0  0  1  0  0  3  0  0  0  0  0  0
  188.2390  178.0990  137.7620 C   0  0  0  0  0  2  0  0  0  0  0  0
  189.3720  175.0330  136.0140 N   0  0  2  0  0  0  0  0  0  0  0  0
  182.7400  174.7660  136.7570 C   0  0  0  0  0  0  0  0  0  0  0  0
  191.6880  176.0030  135.5990 C   0  0  0  0  0  2  0  0  0  0  0  0
  183.8770  176.9090  139.2590 C   0  0  0  0  0  2  0  0  0  0  0  0
  183.8080  177.8950  136.1650 O   0  0  0  0  0  0  0  0  0  0  0  0
  187.2940  175.8860  137.9340 O   0  0  0  0  0  1  0  0  0  0  0  0
  184.8420  174.1420  135.3370 C   0  0  0  0  0  3  0  0  0  0  0  0
  180.6390  173.7260  135.8690 C   0  0  0  0  0  3  0  0  0  0  0  0
  181.4150  174.8720  136.1000 C   0  0  0  0  0  0  0  0  0  0  0  0
  180.9370  176.0870  135.7050 N   0  0  0  0  0  0  0  0  0  0  0  0
  179.2960  177.4560  134.7270 F   0  0  0  0  0  0  0  0  0  0  0  0
  178.9320  175.1050  134.8610 C   0  0  0  0  0  3  0  0  0  0  0  0
  179.7280  176.2270  135.0990 C   0  0  0  0  0  0  0  0  0  0  0  0
  179.3940  173.8470  135.2490 C   0  0  0  0  0  3  0  0  0  0  0  0
  186.7260  178.3630  134.5940 C   0  0  0  0  0  1  0  0  0  0  0  0
  186.3900  177.1230  135.4030 C   0  0  0  0  0  2  0  0  0  0  0  0
  1 27  1  6  0  0  0
  2 22  1  0  0  0  0
  2 17  1  0  0  0  0
  3  9  1  0  0  0  0
  4 12  1  0  0  0  0
  4  1  1  0  0  0  0
  5 19  1  0  0  0  0
 10 23  2  0  0  0  0
 11  6  1  0  0  0  0
 12 18  1  0  0  0  0
 13 17  1  0  0  0  0
 13 21  1  0  0  0  0
 14 24  1  0  0  0  0
 14  2  1  0  0  0  0
 15 20  1  0  0  0  0
 16 11  1  0  0  0  0
 18  8  1  6  0  0  0
 18 25  1  0  0  0  0
 19 25  1  0  0  0  0
 19  7  1  1  0  0  0
 20  3  1  6  0  0  0
 20 16  1  0  0  0  0
 21  1  1  0  0  0  0
 22  9  1  6  0  0  0
 22  6  1  0  0  0  0
 23  5  1  0  0  0  0
 24  2  1  0  0  0  0
 26 12  2  0  0  0  0
 28 15  1  0  0  0  0
 28 10  2  0  0  0  0
 29 30  1  0  0  0  0
 30 23  1  0  0  0  0
 31 30  2  0  0  0  0
 32 34  1  0  0  0  0
 33 34  2  0  0  0  0
 33 35  1  0  0  0  0
 34 31  1  0  0  0  0
 35 29  2  0  0  0  0
 36 37  1  0  0  0  0
 37  4  1  0  0  0  0
M  END
>  <MODEL>
7

>  <REMARK>
 VINA RESULT:      -3.9      2.566      4.968
  Name = 
  2 active torsions:
  status: ('A' for Active; 'I' for Inactive)
    1  A    between atoms: N_5  and  C_23
    2  A    between atoms: C_6  and  C_31
                            x       y       z     vdW  Elec       q    Type
                         _______ _______ _______ _____ _____    ______ ____

>  <TORSDO>
F 2

$$$$
