=
 OpenBabel11052412533D

 25 28  0  0  1  0  0  0  0  0999 V2000
  187.6230  177.6090  146.0390 C   0  0  0  0  0  0  0  0  0  0  0  0
  187.1020  177.8020  144.7420 C   0  0  0  0  0  0  0  0  0  0  0  0
  185.7520  178.7190  147.0630 C   0  0  0  0  0  3  0  0  0  0  0  0
  188.9000  176.9420  146.4280 C   0  0  2  0  0  3  0  0  0  0  0  0
  187.9070  177.6320  142.3340 C   0  0  0  0  0  0  0  0  0  0  0  0
  185.2010  178.9250  145.7970 C   0  0  0  0  0  3  0  0  0  0  0  0
  188.9530  177.0280  147.9720 C   0  0  1  0  0  3  0  0  0  0  0  0
  188.9990  178.4610  148.4880 C   0  0  0  0  0  2  0  0  0  0  0  0
  185.1070  178.7190  143.3470 C   0  0  0  0  0  0  0  0  0  0  0  0
  184.0110  179.3430  143.3710 O   0  0  0  0  0  0  0  0  0  0  0  0
  187.9230  177.2780  143.6200 C   0  0  0  0  0  3  0  0  0  0  0  0
  186.9660  178.0540  147.1580 C   0  0  0  0  0  0  0  0  0  0  0  0
  187.6680  177.7350  148.4260 C   0  0  1  0  0  3  0  0  0  0  0  0
  185.5800  178.2400  142.0200 C   0  0  0  0  0  2  0  0  0  0  0  0
  187.0040  178.6820  141.7980 C   0  0  0  0  0  2  0  0  0  0  0  0
  185.8410  178.4750  144.6220 C   0  0  0  0  0  0  0  0  0  0  0  0
  188.8460  176.9550  141.3900 C   0  0  0  0  0  2  0  0  0  0  0  0
  190.2900  175.5100  142.6650 N   0  0  0  0  0  2  0  0  0  0  0  0
  190.1500  176.6420  142.0570 C   0  0  0  0  0  0  0  0  0  0  0  0
  191.2960  177.5540  141.9350 C   0  0  0  0  0  0  0  0  0  0  0  0
  192.0600  177.5660  140.7720 O   0  0  0  0  0  0  0  0  0  0  0  0
  191.6010  178.3270  142.8810 O   0  0  0  0  0  1  0  0  0  0  0  0
  190.1140  177.6160  145.7940 C   0  0  0  0  0  2  0  0  0  0  0  0
  192.0420  176.9070  147.0020 O   0  0  0  0  0  1  0  0  0  0  0  0
  191.3150  176.6870  145.8340 C   0  0  0  0  0  2  0  0  0  0  0  0
  1  4  1  0  0  0  0
  1 12  1  0  0  0  0
  2  1  2  0  0  0  0
  3 12  2  0  0  0  0
  4 23  1  6  0  0  0
  4  7  1  0  0  0  0
  5 11  2  0  0  0  0
  6  3  1  0  0  0  0
  7 13  1  0  0  0  0
  7  8  1  6  0  0  0
  9 10  2  0  0  0  0
  9 16  1  0  0  0  0
 11  2  1  0  0  0  0
 12 13  1  0  0  0  0
 13  8  1  6  0  0  0
 14  9  1  0  0  0  0
 15 14  1  0  0  0  0
 15  5  1  0  0  0  0
 16  2  1  0  0  0  0
 16  6  2  0  0  0  0
 17 19  1  0  0  0  0
 17  5  1  0  0  0  0
 19 18  2  0  0  0  0
 20 19  1  0  0  0  0
 20 22  1  0  0  0  0
 21 20  2  0  0  0  0
 23 25  1  0  0  0  0
 25 24  1  0  0  0  0
M  END
>  <MODEL>
1

>  <REMARK>
 VINA RESULT:     -10.1      0.000      0.000
  Name = 
  5 active torsions:
  status: ('A' for Active; 'I' for Inactive)
    1  A    between atoms: C_2  and  CA_25
    2  A    between atoms: C_5  and  C_22
    3  A    between atoms: C_6  and  C_15
    4  A    between atoms: C_15  and  CA_25
    5  A    between atoms: C_17  and  C_22
                            x       y       z     vdW  Elec       q    Type
                         _______ _______ _______ _____ _____    ______ ____

>  <TORSDO>
F 5

$$$$
=
 OpenBabel11052412533D

 25 28  0  0  1  0  0  0  0  0999 V2000
  188.4200  177.1780  144.3020 C   0  0  0  0  0  0  0  0  0  0  0  0
  187.1130  177.6580  144.5250 C   0  0  0  0  0  0  0  0  0  0  0  0
  189.0800  177.6300  146.5700 C   0  0  0  0  0  3  0  0  0  0  0  0
  188.9980  176.6360  143.0370 C   0  0  2  0  0  3  0  0  0  0  0  0
  185.0820  178.3310  143.1470 C   0  0  0  0  0  0  0  0  0  0  0  0
  187.7950  178.1090  146.8320 C   0  0  0  0  0  3  0  0  0  0  0  0
  190.4630  176.2720  143.3800 C   0  0  1  0  0  3  0  0  0  0  0  0
  191.2960  177.4790  143.7940 C   0  0  0  0  0  2  0  0  0  0  0  0
  185.4510  178.6180  146.2820 C   0  0  0  0  0  0  0  0  0  0  0  0
  185.2980  179.0270  147.4660 O   0  0  0  0  0  0  0  0  0  0  0  0
  186.1930  177.6220  143.3590 C   0  0  0  0  0  3  0  0  0  0  0  0
  189.3680  177.1660  145.2940 C   0  0  0  0  0  0  0  0  0  0  0  0
  190.6720  176.6040  144.8640 C   0  0  1  0  0  3  0  0  0  0  0  0
  184.2490  178.6300  145.4050 C   0  0  0  0  0  2  0  0  0  0  0  0
  184.5700  179.3360  144.1130 C   0  0  0  0  0  2  0  0  0  0  0  0
  186.7890  178.1300  145.8410 C   0  0  0  0  0  0  0  0  0  0  0  0
  184.3250  178.1170  141.8780 C   0  0  0  0  0  2  0  0  0  0  0  0
  186.0610  179.4000  140.8100 N   0  0  0  0  0  2  0  0  0  0  0  0
  184.8260  179.0180  140.7910 C   0  0  0  0  0  0  0  0  0  0  0  0
  183.9650  179.3800  139.6560 C   0  0  0  0  0  0  0  0  0  0  0  0
  182.8920  178.5670  139.3050 O   0  0  0  0  0  1  0  0  0  0  0  0
  184.1930  180.4210  138.9880 O   0  0  0  0  0  0  0  0  0  0  0  0
  188.9310  177.6480  141.8980 C   0  0  0  0  0  2  0  0  0  0  0  0
  189.5600  178.0310  139.6300 O   0  0  0  0  0  1  0  0  0  0  0  0
  189.5470  177.0670  140.6370 C   0  0  0  0  0  2  0  0  0  0  0  0
  1  2  2  0  0  0  0
  1 12  1  0  0  0  0
  2 16  1  0  0  0  0
  3  6  1  0  0  0  0
  4 23  1  6  0  0  0
  4  7  1  0  0  0  0
  4  1  1  0  0  0  0
  5 11  2  0  0  0  0
  5 15  1  0  0  0  0
  7  8  1  6  0  0  0
  7 13  1  0  0  0  0
  9 10  2  0  0  0  0
 11  2  1  0  0  0  0
 12  3  2  0  0  0  0
 13  8  1  6  0  0  0
 13 12  1  0  0  0  0
 14  9  1  0  0  0  0
 15 14  1  0  0  0  0
 16  9  1  0  0  0  0
 16  6  2  0  0  0  0
 17  5  1  0  0  0  0
 19 18  2  0  0  0  0
 19 17  1  0  0  0  0
 20 19  1  0  0  0  0
 21 20  1  0  0  0  0
 22 20  2  0  0  0  0
 24 25  1  0  0  0  0
 25 23  1  0  0  0  0
M  END
>  <MODEL>
2

>  <REMARK>
 VINA RESULT:      -9.8      2.523      4.962
  Name = 
  5 active torsions:
  status: ('A' for Active; 'I' for Inactive)
    1  A    between atoms: C_2  and  CA_25
    2  A    between atoms: C_5  and  C_22
    3  A    between atoms: C_6  and  C_15
    4  A    between atoms: C_15  and  CA_25
    5  A    between atoms: C_17  and  C_22
                            x       y       z     vdW  Elec       q    Type
                         _______ _______ _______ _____ _____    ______ ____

>  <TORSDO>
F 5

$$$$
=
 OpenBabel11052412533D

 25 28  0  0  1  0  0  0  0  0999 V2000
  187.4740  177.6380  145.7080 C   0  0  0  0  0  0  0  0  0  0  0  0
  186.8510  177.8690  144.4630 C   0  0  0  0  0  0  0  0  0  0  0  0
  185.5890  178.5040  146.9240 C   0  0  0  0  0  3  0  0  0  0  0  0
  188.8280  177.0660  145.9670 C   0  0  2  0  0  3  0  0  0  0  0  0
  187.5000  177.9330  142.0040 C   0  0  0  0  0  0  0  0  0  0  0  0
  184.9360  178.7430  145.7130 C   0  0  0  0  0  3  0  0  0  0  0  0
  188.9780  177.0540  147.5070 C   0  0  1  0  0  3  0  0  0  0  0  0
  188.9360  178.4480  148.1210 C   0  0  0  0  0  2  0  0  0  0  0  0
  184.6930  178.6920  143.2650 C   0  0  0  0  0  0  0  0  0  0  0  0
  183.5510  179.2110  143.4020 O   0  0  0  0  0  0  0  0  0  0  0  0
  187.6350  177.4970  143.2580 C   0  0  0  0  0  3  0  0  0  0  0  0
  186.8590  177.9470  146.8940 C   0  0  0  0  0  0  0  0  0  0  0  0
  187.6710  177.6100  148.0900 C   0  0  1  0  0  3  0  0  0  0  0  0
  185.1140  178.3460  141.8800 C   0  0  0  0  0  2  0  0  0  0  0  0
  186.4750  178.9300  141.6020 C   0  0  0  0  0  2  0  0  0  0  0  0
  185.5310  178.4320  144.4710 C   0  0  0  0  0  0  0  0  0  0  0  0
  188.4270  177.4080  140.9560 C   0  0  0  0  0  2  0  0  0  0  0  0
  189.0660  179.2070  139.4890 N   0  0  0  0  0  2  0  0  0  0  0  0
  188.2990  178.1850  139.6830 C   0  0  0  0  0  0  0  0  0  0  0  0
  187.3920  177.7370  138.6150 C   0  0  0  0  0  0  0  0  0  0  0  0
  187.6220  176.5300  137.9640 O   0  0  0  0  0  0  0  0  0  0  0  0
  186.4070  178.4430  138.2770 O   0  0  0  0  0  1  0  0  0  0  0  0
  189.9320  177.8880  145.3090 C   0  0  0  0  0  2  0  0  0  0  0  0
  191.9430  176.9740  146.2070 O   0  0  0  0  0  1  0  0  0  0  0  0
  191.1550  177.0230  145.0570 C   0  0  0  0  0  2  0  0  0  0  0  0
  1  4  1  0  0  0  0
  1 12  1  0  0  0  0
  2 16  1  0  0  0  0
  2  1  2  0  0  0  0
  4 23  1  6  0  0  0
  4  7  1  0  0  0  0
  5 11  2  0  0  0  0
  6  3  1  0  0  0  0
  7 13  1  0  0  0  0
  7  8  1  6  0  0  0
  9 10  2  0  0  0  0
  9 16  1  0  0  0  0
 11  2  1  0  0  0  0
 12  3  2  0  0  0  0
 12 13  1  0  0  0  0
 13  8  1  6  0  0  0
 14  9  1  0  0  0  0
 15 14  1  0  0  0  0
 15  5  1  0  0  0  0
 16  6  2  0  0  0  0
 17  5  1  0  0  0  0
 18 19  2  0  0  0  0
 19 17  1  0  0  0  0
 20 19  1  0  0  0  0
 21 20  2  0  0  0  0
 22 20  1  0  0  0  0
 25 23  1  0  0  0  0
 25 24  1  0  0  0  0
M  END
>  <MODEL>
3

>  <REMARK>
 VINA RESULT:      -9.6      2.068      2.410
  Name = 
  5 active torsions:
  status: ('A' for Active; 'I' for Inactive)
    1  A    between atoms: C_2  and  CA_25
    2  A    between atoms: C_5  and  C_22
    3  A    between atoms: C_6  and  C_15
    4  A    between atoms: C_15  and  CA_25
    5  A    between atoms: C_17  and  C_22
                            x       y       z     vdW  Elec       q    Type
                         _______ _______ _______ _____ _____    ______ ____

>  <TORSDO>
F 5

$$$$
=
 OpenBabel11052412533D

 25 28  0  0  1  0  0  0  0  0999 V2000
  186.3190  177.9350  144.6230 C   0  0  0  0  0  0  0  0  0  0  0  0
  186.6800  177.9810  143.2600 C   0  0  0  0  0  0  0  0  0  0  0  0
  184.3810  179.3090  144.2590 C   0  0  0  0  0  3  0  0  0  0  0  0
  187.0260  177.2390  145.7380 C   0  0  2  0  0  3  0  0  0  0  0  0
  188.6970  177.4180  141.8150 C   0  0  0  0  0  0  0  0  0  0  0  0
  184.7000  179.3750  142.9020 C   0  0  0  0  0  3  0  0  0  0  0  0
  186.1860  177.5360  147.0030 C   0  0  1  0  0  3  0  0  0  0  0  0
  186.1250  179.0200  147.3440 C   0  0  0  0  0  2  0  0  0  0  0  0
  186.0150  178.8350  140.8940 C   0  0  0  0  0  0  0  0  0  0  0  0
  185.2100  179.5340  140.2200 O   0  0  0  0  0  0  0  0  0  0  0  0
  187.9150  177.2470  142.8820 C   0  0  0  0  0  3  0  0  0  0  0  0
  185.2070  178.5780  145.1010 C   0  0  0  0  0  0  0  0  0  0  0  0
  184.9910  178.3910  146.5570 C   0  0  1  0  0  3  0  0  0  0  0  0
  187.0970  178.1420  140.1430 C   0  0  0  0  0  2  0  0  0  0  0  0
  188.4300  178.4450  140.7750 C   0  0  0  0  0  2  0  0  0  0  0  0
  185.8320  178.7200  142.3690 C   0  0  0  0  0  0  0  0  0  0  0  0
  189.9020  176.5490  141.6600 C   0  0  0  0  0  2  0  0  0  0  0  0
  191.9870  177.5820  141.0380 N   0  0  0  0  0  2  0  0  0  0  0  0
  191.1560  177.3020  141.9870 C   0  0  0  0  0  0  0  0  0  0  0  0
  191.3940  177.8140  143.3440 C   0  0  0  0  0  0  0  0  0  0  0  0
  191.6680  176.9330  144.3860 O   0  0  0  0  0  1  0  0  0  0  0  0
  191.3460  179.0500  143.5780 O   0  0  0  0  0  0  0  0  0  0  0  0
  188.4620  177.7280  145.9000 C   0  0  0  0  0  2  0  0  0  0  0  0
  189.5350  177.9220  148.0200 O   0  0  0  0  0  1  0  0  0  0  0  0
  189.1420  177.0030  147.0480 C   0  0  0  0  0  2  0  0  0  0  0  0
  1 12  1  0  0  0  0
  1  4  1  0  0  0  0
  2  1  2  0  0  0  0
  3 12  2  0  0  0  0
  4 23  1  1  0  0  0
  4  7  1  0  0  0  0
  5 11  2  0  0  0  0
  6  3  1  0  0  0  0
  7  8  1  1  0  0  0
  9 16  1  0  0  0  0
 10  9  2  0  0  0  0
 11  2  1  0  0  0  0
 12 13  1  0  0  0  0
 13  7  1  0  0  0  0
 13  8  1  1  0  0  0
 14 15  1  0  0  0  0
 14  9  1  0  0  0  0
 15  5  1  0  0  0  0
 16  6  2  0  0  0  0
 16  2  1  0  0  0  0
 17  5  1  0  0  0  0
 17 19  1  0  0  0  0
 18 19  2  0  0  0  0
 19 20  1  0  0  0  0
 20 22  2  0  0  0  0
 20 21  1  0  0  0  0
 23 25  1  0  0  0  0
 25 24  1  0  0  0  0
M  END
>  <MODEL>
4

>  <REMARK>
 VINA RESULT:      -9.6      1.636      2.427
  Name = 
  5 active torsions:
  status: ('A' for Active; 'I' for Inactive)
    1  A    between atoms: C_2  and  CA_25
    2  A    between atoms: C_5  and  C_22
    3  A    between atoms: C_6  and  C_15
    4  A    between atoms: C_15  and  CA_25
    5  A    between atoms: C_17  and  C_22
                            x       y       z     vdW  Elec       q    Type
                         _______ _______ _______ _____ _____    ______ ____

>  <TORSDO>
F 5

$$$$
=
 OpenBabel11052412533D

 25 28  0  0  1  0  0  0  0  0999 V2000
  186.5860  177.8530  144.4720 C   0  0  0  0  0  0  0  0  0  0  0  0
  187.5240  177.6680  143.4340 C   0  0  0  0  0  0  0  0  0  0  0  0
  185.0500  178.9930  143.0160 C   0  0  0  0  0  3  0  0  0  0  0  0
  186.6990  177.4310  145.9000 C   0  0  2  0  0  3  0  0  0  0  0  0
  189.9630  176.9890  143.1850 C   0  0  0  0  0  0  0  0  0  0  0  0
  185.9480  178.8250  141.9610 C   0  0  0  0  0  3  0  0  0  0  0  0
  185.3850  177.9000  146.5690 C   0  0  1  0  0  3  0  0  0  0  0  0
  185.2090  179.4130  146.5430 C   0  0  0  0  0  2  0  0  0  0  0  0
  188.0160  178.0130  140.9030 C   0  0  0  0  0  0  0  0  0  0  0  0
  187.6160  178.5130  139.8160 O   0  0  0  0  0  0  0  0  0  0  0  0
  188.7800  176.9660  143.8020 C   0  0  0  0  0  3  0  0  0  0  0  0
  185.3920  178.4940  144.2650 C   0  0  0  0  0  0  0  0  0  0  0  0
  184.5390  178.5680  145.4770 C   0  0  1  0  0  3  0  0  0  0  0  0
  189.3050  177.2700  140.8680 C   0  0  0  0  0  2  0  0  0  0  0  0
  190.2160  177.7810  141.9540 C   0  0  0  0  0  2  0  0  0  0  0  0
  187.1840  178.1640  142.1310 C   0  0  0  0  0  0  0  0  0  0  0  0
  191.0900  176.1950  143.7610 C   0  0  0  0  0  2  0  0  0  0  0  0
  191.9330  178.1680  144.8550 N   0  0  0  0  0  2  0  0  0  0  0  0
  191.7020  176.8990  144.9330 C   0  0  0  0  0  0  0  0  0  0  0  0
  191.9400  176.1870  146.1970 C   0  0  0  0  0  0  0  0  0  0  0  0
  192.3500  174.8580  146.1850 O   0  0  0  0  0  0  0  0  0  0  0  0
  191.7700  176.7700  147.3000 O   0  0  0  0  0  1  0  0  0  0  0  0
  187.9180  178.0430  146.5830 C   0  0  0  0  0  2  0  0  0  0  0  0
  188.1260  178.0370  148.9580 O   0  0  0  0  0  1  0  0  0  0  0  0
  188.2860  177.2450  147.8220 C   0  0  0  0  0  2  0  0  0  0  0  0
  1  4  1  0  0  0  0
  2 11  1  0  0  0  0
  2  1  2  0  0  0  0
  3 12  2  0  0  0  0
  4  7  1  0  0  0  0
  4 23  1  1  0  0  0
  5 17  1  0  0  0  0
  5 11  2  0  0  0  0
  6 16  2  0  0  0  0
  6  3  1  0  0  0  0
  7  8  1  1  0  0  0
  9 16  1  0  0  0  0
 10  9  2  0  0  0  0
 12  1  1  0  0  0  0
 12 13  1  0  0  0  0
 13  8  1  1  0  0  0
 13  7  1  0  0  0  0
 14  9  1  0  0  0  0
 14 15  1  0  0  0  0
 15  5  1  0  0  0  0
 16  2  1  0  0  0  0
 17 19  1  0  0  0  0
 18 19  2  0  0  0  0
 19 20  1  0  0  0  0
 20 22  1  0  0  0  0
 21 20  2  0  0  0  0
 23 25  1  0  0  0  0
 25 24  1  0  0  0  0
M  END
>  <MODEL>
5

>  <REMARK>
 VINA RESULT:      -9.3      2.048      3.720
  Name = 
  5 active torsions:
  status: ('A' for Active; 'I' for Inactive)
    1  A    between atoms: C_2  and  CA_25
    2  A    between atoms: C_5  and  C_22
    3  A    between atoms: C_6  and  C_15
    4  A    between atoms: C_15  and  CA_25
    5  A    between atoms: C_17  and  C_22
                            x       y       z     vdW  Elec       q    Type
                         _______ _______ _______ _____ _____    ______ ____

>  <TORSDO>
F 5

$$$$
=
 OpenBabel11052412533D

 25 28  0  0  1  0  0  0  0  0999 V2000
  186.4060  178.0040  144.4680 C   0  0  0  0  0  0  0  0  0  0  0  0
  186.7560  178.0220  143.1010 C   0  0  0  0  0  0  0  0  0  0  0  0
  184.4560  179.3590  144.0880 C   0  0  0  0  0  3  0  0  0  0  0  0
  187.1250  177.3370  145.5930 C   0  0  2  0  0  3  0  0  0  0  0  0
  188.7670  177.4380  141.6540 C   0  0  0  0  0  0  0  0  0  0  0  0
  184.7660  179.3960  142.7270 C   0  0  0  0  0  3  0  0  0  0  0  0
  186.2920  177.6580  146.8570 C   0  0  1  0  0  3  0  0  0  0  0  0
  186.2250  179.1490  147.1650 C   0  0  0  0  0  2  0  0  0  0  0  0
  186.0700  178.8190  140.7220 C   0  0  0  0  0  0  0  0  0  0  0  0
  185.2550  179.4970  140.0380 O   0  0  0  0  0  0  0  0  0  0  0  0
  187.9930  177.2870  142.7310 C   0  0  0  0  0  3  0  0  0  0  0  0
  185.2930  178.6520  144.9390 C   0  0  0  0  0  0  0  0  0  0  0  0
  185.0890  178.4960  146.4010 C   0  0  1  0  0  3  0  0  0  0  0  0
  187.1500  178.1150  139.9780 C   0  0  0  0  0  2  0  0  0  0  0  0
  188.4860  178.4400  140.5940 C   0  0  0  0  0  2  0  0  0  0  0  0
  185.8970  178.7360  142.2000 C   0  0  0  0  0  0  0  0  0  0  0  0
  189.9760  176.5740  141.5110 C   0  0  0  0  0  2  0  0  0  0  0  0
  191.8640  177.7650  140.6080 N   0  0  0  0  0  2  0  0  0  0  0  0
  190.8310  177.0270  140.3670 C   0  0  0  0  0  0  0  0  0  0  0  0
  190.5700  176.5560  138.9990 C   0  0  0  0  0  0  0  0  0  0  0  0
  190.2600  177.4660  137.9940 O   0  0  0  0  0  0  0  0  0  0  0  0
  190.6180  175.3280  138.7270 O   0  0  0  0  0  1  0  0  0  0  0  0
  188.5590  177.8390  145.7330 C   0  0  0  0  0  2  0  0  0  0  0  0
  189.6130  177.5630  147.8540 O   0  0  0  0  0  1  0  0  0  0  0  0
  189.3530  176.9190  146.6440 C   0  0  0  0  0  2  0  0  0  0  0  0
  1 12  1  0  0  0  0
  1  4  1  0  0  0  0
  2  1  2  0  0  0  0
  3 12  2  0  0  0  0
  4 23  1  1  0  0  0
  4  7  1  0  0  0  0
  5 11  2  0  0  0  0
  6  3  1  0  0  0  0
  7  8  1  1  0  0  0
  9 16  1  0  0  0  0
 10  9  2  0  0  0  0
 11  2  1  0  0  0  0
 12 13  1  0  0  0  0
 13  7  1  0  0  0  0
 13  8  1  1  0  0  0
 14 15  1  0  0  0  0
 14  9  1  0  0  0  0
 15  5  1  0  0  0  0
 16  6  2  0  0  0  0
 16  2  1  0  0  0  0
 17  5  1  0  0  0  0
 19 18  2  0  0  0  0
 19 17  1  0  0  0  0
 20 19  1  0  0  0  0
 21 20  2  0  0  0  0
 22 20  1  0  0  0  0
 23 25  1  0  0  0  0
 25 24  1  0  0  0  0
M  END
>  <MODEL>
6

>  <REMARK>
 VINA RESULT:      -8.9      1.983      2.740
  Name = 
  5 active torsions:
  status: ('A' for Active; 'I' for Inactive)
    1  A    between atoms: C_2  and  CA_25
    2  A    between atoms: C_5  and  C_22
    3  A    between atoms: C_6  and  C_15
    4  A    between atoms: C_15  and  CA_25
    5  A    between atoms: C_17  and  C_22
                            x       y       z     vdW  Elec       q    Type
                         _______ _______ _______ _____ _____    ______ ____

>  <TORSDO>
F 5

$$$$
=
 OpenBabel11052412533D

 25 28  0  0  1  0  0  0  0  0999 V2000
  187.5500  178.0790  145.4230 C   0  0  0  0  0  0  0  0  0  0  0  0
  188.7390  177.5300  144.8990 C   0  0  0  0  0  0  0  0  0  0  0  0
  188.2640  177.7160  147.6890 C   0  0  0  0  0  3  0  0  0  0  0  0
  186.3800  178.6240  144.6730 C   0  0  2  0  0  3  0  0  0  0  0  0
  189.6190  176.7120  142.6550 C   0  0  0  0  0  0  0  0  0  0  0  0
  189.4570  177.1720  147.2110 C   0  0  0  0  0  3  0  0  0  0  0  0
  185.3750  179.0770  145.7590 C   0  0  1  0  0  3  0  0  0  0  0  0
  184.8770  177.9290  146.6290 C   0  0  0  0  0  2  0  0  0  0  0  0
  191.0670  176.5170  145.4690 C   0  0  0  0  0  0  0  0  0  0  0  0
  191.8450  176.1270  146.3820 O   0  0  0  0  0  0  0  0  0  0  0  0
  188.8450  177.4870  143.4170 C   0  0  0  0  0  3  0  0  0  0  0  0
  187.3250  178.1670  146.7730 C   0  0  0  0  0  0  0  0  0  0  0  0
  186.0250  178.7920  147.1200 C   0  0  1  0  0  3  0  0  0  0  0  0
  191.5660  176.4170  144.0700 C   0  0  0  0  0  2  0  0  0  0  0  0
  190.5510  175.7010  143.2180 C   0  0  0  0  0  2  0  0  0  0  0  0
  189.7300  177.0710  145.8290 C   0  0  0  0  0  0  0  0  0  0  0  0
  189.5390  176.8530  141.1710 C   0  0  0  0  0  2  0  0  0  0  0  0
  191.7170  177.8790  141.2240 N   0  0  0  0  0  2  0  0  0  0  0  0
  190.8880  177.1240  140.5800 C   0  0  0  0  0  0  0  0  0  0  0  0
  191.3150  176.4590  139.3400 C   0  0  0  0  0  0  0  0  0  0  0  0
  192.5580  176.7450  138.7850 O   0  0  0  0  0  1  0  0  0  0  0  0
  190.5590  175.6330  138.7670 O   0  0  0  0  0  0  0  0  0  0  0  0
  185.7600  177.5830  143.7450 C   0  0  0  0  0  2  0  0  0  0  0  0
  185.6220  179.3240  142.1220 O   0  0  0  0  0  1  0  0  0  0  0  0
  184.9140  178.2620  142.6810 C   0  0  0  0  0  2  0  0  0  0  0  0
  1 12  1  0  0  0  0
  2  1  2  0  0  0  0
  2 16  1  0  0  0  0
  4 23  1  6  0  0  0
  4  1  1  0  0  0  0
  4  7  1  0  0  0  0
  5 15  1  0  0  0  0
  5 11  2  0  0  0  0
  6  3  1  0  0  0  0
  7  8  1  1  0  0  0
  7 13  1  0  0  0  0
  9 16  1  0  0  0  0
  9 10  2  0  0  0  0
 11  2  1  0  0  0  0
 12 13  1  0  0  0  0
 12  3  2  0  0  0  0
 13  8  1  1  0  0  0
 14  9  1  0  0  0  0
 15 14  1  0  0  0  0
 16  6  2  0  0  0  0
 17  5  1  0  0  0  0
 19 17  1  0  0  0  0
 19 18  2  0  0  0  0
 20 19  1  0  0  0  0
 21 20  1  0  0  0  0
 22 20  2  0  0  0  0
 24 25  1  0  0  0  0
 25 23  1  0  0  0  0
M  END
>  <MODEL>
7

>  <REMARK>
 VINA RESULT:      -8.8      1.519      4.515
  Name = 
  5 active torsions:
  status: ('A' for Active; 'I' for Inactive)
    1  A    between atoms: C_2  and  CA_25
    2  A    between atoms: C_5  and  C_22
    3  A    between atoms: C_6  and  C_15
    4  A    between atoms: C_15  and  CA_25
    5  A    between atoms: C_17  and  C_22
                            x       y       z     vdW  Elec       q    Type
                         _______ _______ _______ _____ _____    ______ ____

>  <TORSDO>
F 5

$$$$
=
 OpenBabel11052412533D

 25 28  0  0  1  0  0  0  0  0999 V2000
  186.5960  178.5360  144.4520 C   0  0  0  0  0  0  0  0  0  0  0  0
  187.5710  178.2430  145.4290 C   0  0  0  0  0  0  0  0  0  0  0  0
  184.7990  178.2920  146.0300 C   0  0  0  0  0  3  0  0  0  0  0  0
  186.8060  178.8460  143.0070 C   0  0  2  0  0  3  0  0  0  0  0  0
  190.0440  177.6490  145.5180 C   0  0  0  0  0  0  0  0  0  0  0  0
  185.7330  178.0030  147.0270 C   0  0  0  0  0  3  0  0  0  0  0  0
  185.3890  179.0740  142.4290 C   0  0  1  0  0  3  0  0  0  0  0  0
  184.5020  177.8380  142.5160 C   0  0  0  0  0  2  0  0  0  0  0  0
  187.9990  177.7080  147.9390 C   0  0  0  0  0  0  0  0  0  0  0  0
  187.4780  177.4690  149.0630 O   0  0  0  0  0  0  0  0  0  0  0  0
  188.9830  178.2430  144.9680 C   0  0  0  0  0  3  0  0  0  0  0  0
  185.2570  178.5580  144.7480 C   0  0  0  0  0  0  0  0  0  0  0  0
  184.3980  178.9060  143.5890 C   0  0  1  0  0  3  0  0  0  0  0  0
  189.4850  177.7300  147.8760 C   0  0  0  0  0  2  0  0  0  0  0  0
  189.9600  176.8370  146.7590 C   0  0  0  0  0  2  0  0  0  0  0  0
  187.1200  177.9780  146.7650 C   0  0  0  0  0  0  0  0  0  0  0  0
  191.3730  177.7920  144.8530 C   0  0  0  0  0  2  0  0  0  0  0  0
  191.6870  177.7090  142.4670 N   0  0  0  0  0  2  0  0  0  0  0  0
  191.4060  177.0580  143.5470 C   0  0  0  0  0  0  0  0  0  0  0  0
  191.2300  175.6000  143.4990 C   0  0  0  0  0  0  0  0  0  0  0  0
  192.1130  174.7660  144.1780 O   0  0  0  0  0  1  0  0  0  0  0  0
  190.2870  175.0920  142.8390 O   0  0  0  0  0  0  0  0  0  0  0  0
  187.5260  177.7160  142.2780 C   0  0  0  0  0  2  0  0  0  0  0  0
  187.6790  178.5220  140.0390 O   0  0  0  0  0  1  0  0  0  0  0  0
  188.4260  178.2780  141.1910 C   0  0  0  0  0  2  0  0  0  0  0  0
  1 12  2  0  0  0  0
  1  2  1  0  0  0  0
  2 16  2  0  0  0  0
  3  6  2  0  0  0  0
  4 23  1  6  0  0  0
  4  1  1  0  0  0  0
  5 15  1  0  0  0  0
  7  8  1  6  0  0  0
  7  4  1  0  0  0  0
  7 13  1  0  0  0  0
  9 10  2  0  0  0  0
 11  2  1  0  0  0  0
 11  5  2  0  0  0  0
 12  3  1  0  0  0  0
 13  8  1  6  0  0  0
 13 12  1  0  0  0  0
 14  9  1  0  0  0  0
 15 14  1  0  0  0  0
 16  6  1  0  0  0  0
 16  9  1  0  0  0  0
 17  5  1  0  0  0  0
 18 19  2  0  0  0  0
 19 17  1  0  0  0  0
 20 19  1  0  0  0  0
 20 21  1  0  0  0  0
 22 20  2  0  0  0  0
 24 25  1  0  0  0  0
 25 23  1  0  0  0  0
M  END
>  <MODEL>
8

>  <REMARK>
 VINA RESULT:      -8.7      2.016      4.723
  Name = 
  5 active torsions:
  status: ('A' for Active; 'I' for Inactive)
    1  A    between atoms: C_2  and  CA_25
    2  A    between atoms: C_5  and  C_22
    3  A    between atoms: C_6  and  C_15
    4  A    between atoms: C_15  and  CA_25
    5  A    between atoms: C_17  and  C_22
                            x       y       z     vdW  Elec       q    Type
                         _______ _______ _______ _____ _____    ______ ____

>  <TORSDO>
F 5

$$$$
=
 OpenBabel11052412533D

 25 28  0  0  1  0  0  0  0  0999 V2000
  187.1360  177.7970  143.2530 C   0  0  0  0  0  0  0  0  0  0  0  0
  188.4920  177.4090  143.2790 C   0  0  0  0  0  0  0  0  0  0  0  0
  187.3130  178.6250  141.0030 C   0  0  0  0  0  3  0  0  0  0  0  0
  186.1210  177.6670  144.3400 C   0  0  2  0  0  3  0  0  0  0  0  0
  190.2240  176.6940  145.0010 C   0  0  0  0  0  0  0  0  0  0  0  0
  188.6580  178.2510  140.9870 C   0  0  0  0  0  3  0  0  0  0  0  0
  184.8170  178.2600  143.7540 C   0  0  1  0  0  3  0  0  0  0  0  0
  184.9380  179.7380  143.4050 C   0  0  0  0  0  2  0  0  0  0  0  0
  190.7020  177.2440  141.9160 C   0  0  0  0  0  0  0  0  0  0  0  0
  191.2880  177.5190  140.8330 O   0  0  0  0  0  0  0  0  0  0  0  0
  188.9750  176.7940  144.5430 C   0  0  0  0  0  3  0  0  0  0  0  0
  186.5710  178.3840  142.1500 C   0  0  0  0  0  0  0  0  0  0  0  0
  185.1300  178.6980  142.3170 C   0  0  1  0  0  3  0  0  0  0  0  0
  191.4910  176.5090  142.9410 C   0  0  0  0  0  2  0  0  0  0  0  0
  191.3990  177.2250  144.2640 C   0  0  0  0  0  2  0  0  0  0  0  0
  189.2750  177.6370  142.0980 C   0  0  0  0  0  0  0  0  0  0  0  0
  190.4550  176.0300  146.3190 C   0  0  0  0  0  2  0  0  0  0  0  0
  191.5740  177.5060  147.8580 N   0  0  0  0  0  2  0  0  0  0  0  0
  190.4500  177.0290  147.4350 C   0  0  0  0  0  0  0  0  0  0  0  0
  189.1850  177.5470  147.9750 C   0  0  0  0  0  0  0  0  0  0  0  0
  188.0840  176.7060  148.1080 O   0  0  0  0  0  0  0  0  0  0  0  0
  189.0820  178.7550  148.3150 O   0  0  0  0  0  1  0  0  0  0  0  0
  186.5430  178.4030  145.6090 C   0  0  0  0  0  2  0  0  0  0  0  0
  185.6800  179.3700  147.6090 O   0  0  0  0  0  1  0  0  0  0  0  0
  185.3900  178.4570  146.5960 C   0  0  0  0  0  2  0  0  0  0  0  0
  1  2  1  0  0  0  0
  1  4  1  0  0  0  0
  2 11  1  0  0  0  0
  3 12  1  0  0  0  0
  4 23  1  1  0  0  0
  5 17  1  0  0  0  0
  6  3  2  0  0  0  0
  6 16  1  0  0  0  0
  7  8  1  1  0  0  0
  7  4  1  0  0  0  0
  9 16  1  0  0  0  0
  9 14  1  0  0  0  0
 10  9  2  0  0  0  0
 11  5  2  0  0  0  0
 12 13  1  0  0  0  0
 12  1  2  0  0  0  0
 13  8  1  1  0  0  0
 13  7  1  0  0  0  0
 14 15  1  0  0  0  0
 15  5  1  0  0  0  0
 16  2  2  0  0  0  0
 17 19  1  0  0  0  0
 19 18  2  0  0  0  0
 19 20  1  0  0  0  0
 20 21  2  0  0  0  0
 20 22  1  0  0  0  0
 23 25  1  0  0  0  0
 25 24  1  0  0  0  0
M  END
>  <MODEL>
9

>  <REMARK>
 VINA RESULT:      -8.4      2.082      5.603
  Name = 
  5 active torsions:
  status: ('A' for Active; 'I' for Inactive)
    1  A    between atoms: C_2  and  CA_25
    2  A    between atoms: C_5  and  C_22
    3  A    between atoms: C_6  and  C_15
    4  A    between atoms: C_15  and  CA_25
    5  A    between atoms: C_17  and  C_22
                            x       y       z     vdW  Elec       q    Type
                         _______ _______ _______ _____ _____    ______ ____

>  <TORSDO>
F 5

$$$$
