=
 OpenBabel11052412493D

 25 29  0  0  1  0  0  0  0  0999 V2000
  185.6480  178.1730  144.5940 C   0  0  0  0  0  0  0  0  0  0  0  0
  186.8740  177.3140  144.6570 C   0  0  1  0  0  3  0  0  0  0  0  0
  185.7170  178.7910  146.9420 C   0  0  0  0  0  3  0  0  0  0  0  0
  184.7060  178.3030  143.6780 C   0  0  0  0  0  0  0  0  0  0  0  0
  182.4510  178.8180  142.1500 C   0  0  0  0  0  3  0  0  0  0  0  0
  187.0610  178.1660  147.0210 C   0  0  0  0  0  3  0  0  0  0  0  0
  183.6420  179.0120  144.2260 C   0  0  0  0  0  0  0  0  0  0  0  0
  182.5010  179.2860  143.4740 C   0  0  0  0  0  3  0  0  0  0  0  0
  189.0120  177.0490  146.0060 C   0  0  0  0  0  0  0  0  0  0  0  0
  189.6990  176.7620  147.2970 C   0  0  0  0  0  1  0  0  0  0  0  0
  187.7910  177.4930  143.4820 C   0  0  0  0  0  3  0  0  0  0  0  0
  183.5250  178.0830  141.6050 C   0  0  0  0  0  3  0  0  0  0  0  0
  185.0930  178.7990  145.7670 C   0  0  0  0  0  0  0  0  0  0  0  0
  183.8070  179.3360  145.4740 N   0  0  0  0  0  0  0  0  0  0  0  0
  189.6720  176.9230  144.8900 N   0  0  0  0  0  0  0  0  0  0  0  0
  184.6690  177.8120  142.3740 C   0  0  0  0  0  3  0  0  0  0  0  0
  189.1060  177.2390  143.5980 C   0  0  0  0  0  0  0  0  0  0  0  0
  187.6180  177.5280  145.9670 C   0  0  0  0  0  0  0  0  0  0  0  0
  190.2720  177.4230  140.0040 C   0  0  0  0  0  0  0  0  0  0  0  0
  189.9950  177.3310  142.4190 C   0  0  0  0  0  0  0  0  0  0  0  0
  189.4460  177.3370  141.1290 C   0  0  0  0  0  3  0  0  0  0  0  0
  189.7150  177.4270  138.7330 O   0  0  0  0  0  1  0  0  0  0  0  0
  191.3910  177.4160  142.5640 C   0  0  0  0  0  3  0  0  0  0  0  0
  191.6580  177.5070  140.1600 C   0  0  0  0  0  3  0  0  0  0  0  0
  192.2170  177.5030  141.4400 C   0  0  0  0  0  3  0  0  0  0  0  0
  1  2  1  0  0  0  0
  1 13  1  0  0  0  0
  2 11  1  6  0  0  0
  2 18  1  0  0  0  0
  3  6  1  0  0  0  0
  4  7  1  0  0  0  0
  4  1  2  0  0  0  0
  5  8  2  0  0  0  0
  7 14  2  0  0  0  0
  8  7  1  0  0  0  0
  9 10  1  0  0  0  0
 11 17  2  0  0  0  0
 12  5  1  0  0  0  0
 12 16  2  0  0  0  0
 13  3  2  0  0  0  0
 14 13  1  0  0  0  0
 15  9  2  0  0  0  0
 16  4  1  0  0  0  0
 17 15  1  0  0  0  0
 18  9  1  0  0  0  0
 18  6  2  0  0  0  0
 19 24  2  0  0  0  0
 19 21  1  0  0  0  0
 20 23  1  0  0  0  0
 20 17  1  0  0  0  0
 21 20  2  0  0  0  0
 22 19  1  0  0  0  0
 24 25  1  0  0  0  0
 25 23  2  0  0  0  0
M  END
>  <MODEL>
1

>  <REMARK>
 VINA RESULT:     -11.1      0.000      0.000
  Name = 
  1 active torsions:
  status: ('A' for Active; 'I' for Inactive)
    1  A    between atoms: C_6  and  C_23
                            x       y       z     vdW  Elec       q    Type
                         _______ _______ _______ _____ _____    ______ ____

>  <TORSDO>
F 1

$$$$
=
 OpenBabel11052412493D

 25 29  0  0  1  0  0  0  0  0999 V2000
  186.8170  178.0030  145.4180 C   0  0  0  0  0  0  0  0  0  0  0  0
  187.9960  177.1140  145.1670 C   0  0  1  0  0  3  0  0  0  0  0  0
  187.3990  178.4590  147.7320 C   0  0  0  0  0  3  0  0  0  0  0  0
  185.7100  178.2170  144.7320 C   0  0  0  0  0  0  0  0  0  0  0  0
  183.2050  178.8860  143.7500 C   0  0  0  0  0  3  0  0  0  0  0  0
  188.7060  177.7980  147.4860 C   0  0  0  0  0  3  0  0  0  0  0  0
  184.8110  178.9120  145.5350 C   0  0  0  0  0  0  0  0  0  0  0  0
  183.5490  179.2620  145.0590 C   0  0  0  0  0  3  0  0  0  0  0  0
  190.3590  176.7070  146.0140 C   0  0  0  0  0  0  0  0  0  0  0  0
  191.2890  176.3180  147.1110 C   0  0  0  0  0  1  0  0  0  0  0  0
  188.6530  177.3500  143.8380 C   0  0  0  0  0  3  0  0  0  0  0  0
  184.1130  178.1650  142.9460 C   0  0  0  0  0  3  0  0  0  0  0  0
  186.5440  178.5600  146.7180 C   0  0  0  0  0  0  0  0  0  0  0  0
  185.2460  179.1460  146.7380 N   0  0  0  0  0  0  0  0  0  0  0  0
  190.7650  176.6430  144.7790 N   0  0  0  0  0  0  0  0  0  0  0  0
  185.3820  177.8170  143.4370 C   0  0  0  0  0  3  0  0  0  0  0  0
  189.9530  177.0580  143.6570 C   0  0  0  0  0  0  0  0  0  0  0  0
  189.0060  177.2210  146.3010 C   0  0  0  0  0  0  0  0  0  0  0  0
  190.3570  177.3080  139.9050 C   0  0  0  0  0  0  0  0  0  0  0  0
  190.5780  177.2090  142.3250 C   0  0  0  0  0  0  0  0  0  0  0  0
  189.7820  177.1670  141.1710 C   0  0  0  0  0  3  0  0  0  0  0  0
  189.5570  177.2620  138.7710 O   0  0  0  0  0  1  0  0  0  0  0  0
  191.9640  177.4000  142.1880 C   0  0  0  0  0  3  0  0  0  0  0  0
  191.7360  177.4960  139.7810 C   0  0  0  0  0  3  0  0  0  0  0  0
  192.5390  177.5410  140.9220 C   0  0  0  0  0  3  0  0  0  0  0  0
  1 13  1  0  0  0  0
  2 11  1  6  0  0  0
  2  1  1  0  0  0  0
  2 18  1  0  0  0  0
  4  1  2  0  0  0  0
  4  7  1  0  0  0  0
  5  8  2  0  0  0  0
  6  3  1  0  0  0  0
  7 14  2  0  0  0  0
  8  7  1  0  0  0  0
  9 18  1  0  0  0  0
  9 10  1  0  0  0  0
 12 16  2  0  0  0  0
 12  5  1  0  0  0  0
 13 14  1  0  0  0  0
 13  3  2  0  0  0  0
 15  9  2  0  0  0  0
 16  4  1  0  0  0  0
 17 11  2  0  0  0  0
 17 15  1  0  0  0  0
 18  6  2  0  0  0  0
 19 21  1  0  0  0  0
 20 17  1  0  0  0  0
 21 20  2  0  0  0  0
 22 19  1  0  0  0  0
 23 20  1  0  0  0  0
 24 19  2  0  0  0  0
 24 25  1  0  0  0  0
 25 23  2  0  0  0  0
M  END
>  <MODEL>
2

>  <REMARK>
 VINA RESULT:     -11.1      0.916      1.328
  Name = 
  1 active torsions:
  status: ('A' for Active; 'I' for Inactive)
    1  A    between atoms: C_6  and  C_23
                            x       y       z     vdW  Elec       q    Type
                         _______ _______ _______ _____ _____    ______ ____

>  <TORSDO>
F 1

$$$$
=
 OpenBabel11052412493D

 25 29  0  0  0  0  0  0  0  0999 V2000
  187.0780  177.7230  144.2090 C   0  0  0  0  0  0  0  0  0  0  0  0
  188.0270  176.8230  143.4790 C   0  0  0  0  0  0  0  0  0  0  0  0
  188.4170  177.8260  146.2330 C   0  0  0  0  0  3  0  0  0  0  0  0
  185.8320  178.0810  143.9600 C   0  0  0  0  0  0  0  0  0  0  0  0
  183.2150  178.9970  143.9530 C   0  0  0  0  0  3  0  0  0  0  0  0
  189.5090  177.1460  145.4920 C   0  0  0  0  0  3  0  0  0  0  0  0
  185.3080  178.7000  145.0920 C   0  0  0  0  0  0  0  0  0  0  0  0
  183.9970  179.1710  145.1070 C   0  0  0  0  0  3  0  0  0  0  0  0
  190.4900  176.1940  143.4380 C   0  0  0  0  0  0  0  0  0  0  0  0
  191.6870  175.6130  144.1100 C   0  0  0  0  0  1  0  0  0  0  0  0
  188.2370  177.2110  142.0440 C   0  0  0  0  0  2  0  0  0  0  0  0
  183.7450  178.3520  142.8150 C   0  0  0  0  0  3  0  0  0  0  0  0
  187.2920  178.1070  145.5810 C   0  0  0  0  0  0  0  0  0  0  0  0
  186.1280  178.7440  146.0990 N   0  0  0  0  0  0  0  0  0  0  0  0
  190.4660  176.2820  142.1390 N   0  0  0  0  0  0  0  0  0  0  0  0
  185.0670  177.8800  142.8120 C   0  0  0  0  0  3  0  0  0  0  0  0
  189.3760  176.8860  141.4080 C   0  0  0  0  0  0  0  0  0  0  0  0
  189.3550  176.7250  144.2160 C   0  0  0  0  0  0  0  0  0  0  0  0
  188.8680  178.4430  137.9980 C   0  0  0  0  0  0  0  0  0  0  0  0
  189.5460  177.1910  139.9710 C   0  0  0  0  0  0  0  0  0  0  0  0
  188.7190  178.1430  139.3560 C   0  0  0  0  0  3  0  0  0  0  0  0
  188.0420  179.3860  137.4020 O   0  0  0  0  0  1  0  0  0  0  0  0
  190.5290  176.5460  139.2000 C   0  0  0  0  0  3  0  0  0  0  0  0
  189.8470  177.7950  137.2420 C   0  0  0  0  0  3  0  0  0  0  0  0
  190.6780  176.8460  137.8430 C   0  0  0  0  0  3  0  0  0  0  0  0
  1 13  1  0  0  0  0
  2  1  2  0  0  0  0
  2 18  1  0  0  0  0
  4  1  1  0  0  0  0
  4  7  1  0  0  0  0
  5  8  1  0  0  0  0
  6  3  2  0  0  0  0
  7  8  2  0  0  0  0
  7 14  1  0  0  0  0
  9 10  1  0  0  0  0
  9 18  2  0  0  0  0
 11  2  1  0  0  0  0
 12  5  2  0  0  0  0
 13 14  2  0  0  0  0
 13  3  1  0  0  0  0
 15  9  1  0  0  0  0
 16 12  1  0  0  0  0
 16  4  2  0  0  0  0
 17 11  1  0  0  0  0
 17 15  2  0  0  0  0
 18  6  1  0  0  0  0
 19 21  1  0  0  0  0
 20 17  1  0  0  0  0
 21 20  2  0  0  0  0
 22 19  1  0  0  0  0
 23 20  1  0  0  0  0
 24 25  1  0  0  0  0
 24 19  2  0  0  0  0
 25 23  2  0  0  0  0
M  END
>  <MODEL>
3

>  <REMARK>
 VINA RESULT:     -11.0      1.637      2.567
  Name = 
  1 active torsions:
  status: ('A' for Active; 'I' for Inactive)
    1  A    between atoms: C_6  and  C_23
                            x       y       z     vdW  Elec       q    Type
                         _______ _______ _______ _____ _____    ______ ____

>  <TORSDO>
F 1

$$$$
=
 OpenBabel11052412493D

 25 29  0  0  1  0  0  0  0  0999 V2000
  187.5040  177.9600  141.6260 C   0  0  0  0  0  0  0  0  0  0  0  0
  186.8310  177.5380  142.8970 C   0  0  1  0  0  3  0  0  0  0  0  0
  185.5770  179.1670  140.7720 C   0  0  0  0  0  3  0  0  0  0  0  0
  188.6230  177.5670  141.0470 C   0  0  0  0  0  0  0  0  0  0  0  0
  190.7730  176.9900  139.3940 C   0  0  0  0  0  3  0  0  0  0  0  0
  184.9380  178.9980  142.1010 C   0  0  0  0  0  3  0  0  0  0  0  0
  188.6510  178.0580  139.7450 C   0  0  0  0  0  0  0  0  0  0  0  0
  189.7240  177.7840  138.9000 C   0  0  0  0  0  3  0  0  0  0  0  0
  184.9590  178.2640  144.4560 C   0  0  0  0  0  0  0  0  0  0  0  0
  183.5150  178.5380  144.7020 C   0  0  0  0  0  1  0  0  0  0  0  0
  187.7090  177.6570  144.1080 C   0  0  0  0  0  3  0  0  0  0  0  0
  190.7300  176.4780  140.7080 C   0  0  0  0  0  3  0  0  0  0  0  0
  186.8050  178.6850  140.5970 C   0  0  0  0  0  0  0  0  0  0  0  0
  187.5910  178.7320  139.4100 N   0  0  0  0  0  0  0  0  0  0  0  0
  185.7490  178.0440  145.4670 N   0  0  0  0  0  0  0  0  0  0  0  0
  189.6430  176.7610  141.5510 C   0  0  0  0  0  3  0  0  0  0  0  0
  187.1720  177.8310  145.3280 C   0  0  0  0  0  0  0  0  0  0  0  0
  185.5250  178.2940  143.0950 C   0  0  0  0  0  0  0  0  0  0  0  0
  190.1940  177.4640  147.5720 C   0  0  0  0  0  0  0  0  0  0  0  0
  188.0320  177.8610  146.5310 C   0  0  0  0  0  0  0  0  0  0  0  0
  189.3680  177.4420  146.4440 C   0  0  0  0  0  3  0  0  0  0  0  0
  191.5140  177.0450  147.4730 O   0  0  0  0  0  1  0  0  0  0  0  0
  187.5380  178.3080  147.7690 C   0  0  0  0  0  3  0  0  0  0  0  0
  189.6920  177.9090  148.7980 C   0  0  0  0  0  3  0  0  0  0  0  0
  188.3640  178.3300  148.8960 C   0  0  0  0  0  3  0  0  0  0  0  0
  1  2  1  0  0  0  0
  2 18  1  0  0  0  0
  2 11  1  1  0  0  0
  3  6  1  0  0  0  0
  4 16  1  0  0  0  0
  4  1  2  0  0  0  0
  5 12  1  0  0  0  0
  6 18  2  0  0  0  0
  7  4  1  0  0  0  0
  8  5  2  0  0  0  0
  8  7  1  0  0  0  0
  9 10  1  0  0  0  0
  9 15  2  0  0  0  0
 11 17  2  0  0  0  0
 12 16  2  0  0  0  0
 13  3  2  0  0  0  0
 13  1  1  0  0  0  0
 14  7  2  0  0  0  0
 14 13  1  0  0  0  0
 17 15  1  0  0  0  0
 17 20  1  0  0  0  0
 18  9  1  0  0  0  0
 19 24  1  0  0  0  0
 20 23  2  0  0  0  0
 21 20  1  0  0  0  0
 21 19  2  0  0  0  0
 22 19  1  0  0  0  0
 23 25  1  0  0  0  0
 24 25  2  0  0  0  0
M  END
>  <MODEL>
4

>  <REMARK>
 VINA RESULT:      -9.9      2.578      6.182
  Name = 
  1 active torsions:
  status: ('A' for Active; 'I' for Inactive)
    1  A    between atoms: C_6  and  C_23
                            x       y       z     vdW  Elec       q    Type
                         _______ _______ _______ _____ _____    ______ ____

>  <TORSDO>
F 1

$$$$
=
 OpenBabel11052412493D

 25 29  0  0  1  0  0  0  0  0999 V2000
  188.6100  177.4790  142.3690 C   0  0  0  0  0  0  0  0  0  0  0  0
  187.7230  178.2600  143.2900 C   0  0  1  0  0  3  0  0  0  0  0  0
  189.8390  176.3840  144.1540 C   0  0  0  0  0  3  0  0  0  0  0  0
  188.8430  177.5790  141.0730 C   0  0  0  0  0  0  0  0  0  0  0  0
  189.7640  177.4780  138.4600 C   0  0  0  0  0  3  0  0  0  0  0  0
  188.8440  176.9290  145.1120 C   0  0  0  0  0  3  0  0  0  0  0  0
  189.9600  176.8110  140.7580 C   0  0  0  0  0  0  0  0  0  0  0  0
  190.4370  176.7440  139.4500 C   0  0  0  0  0  3  0  0  0  0  0  0
  186.7720  178.1580  145.6460 C   0  0  0  0  0  0  0  0  0  0  0  0
  186.9760  178.1430  147.1220 C   0  0  0  0  0  1  0  0  0  0  0  0
  186.2870  178.2950  142.8530 C   0  0  0  0  0  3  0  0  0  0  0  0
  188.6430  178.2700  138.7880 C   0  0  0  0  0  3  0  0  0  0  0  0
  189.6750  176.6450  142.8600 C   0  0  0  0  0  0  0  0  0  0  0  0
  190.5090  176.2290  141.7830 N   0  0  0  0  0  0  0  0  0  0  0  0
  185.6090  178.4880  145.1650 N   0  0  0  0  0  0  0  0  0  0  0  0
  188.1730  178.3310  140.1100 C   0  0  0  0  0  3  0  0  0  0  0  0
  185.3030  178.4700  143.7520 C   0  0  0  0  0  0  0  0  0  0  0  0
  187.8440  177.7500  144.7190 C   0  0  0  0  0  0  0  0  0  0  0  0
  182.2610  178.6510  141.5120 C   0  0  0  0  0  0  0  0  0  0  0  0
  183.8960  178.5920  143.3120 C   0  0  0  0  0  0  0  0  0  0  0  0
  183.5850  178.5370  141.9450 C   0  0  0  0  0  3  0  0  0  0  0  0
  181.9670  178.5960  140.1570 O   0  0  0  0  0  1  0  0  0  0  0  0
  182.8540  178.7600  144.2400 C   0  0  0  0  0  3  0  0  0  0  0  0
  181.2330  178.8180  142.4440 C   0  0  0  0  0  3  0  0  0  0  0  0
  181.5300  178.8730  143.8070 C   0  0  0  0  0  3  0  0  0  0  0  0
  1 13  1  0  0  0  0
  1  2  1  0  0  0  0
  2 11  1  6  0  0  0
  2 18  1  0  0  0  0
  3  6  1  0  0  0  0
  4  1  2  0  0  0  0
  5 12  1  0  0  0  0
  5  8  2  0  0  0  0
  7  4  1  0  0  0  0
  7 14  2  0  0  0  0
  8  7  1  0  0  0  0
  9 10  1  0  0  0  0
 11 17  2  0  0  0  0
 12 16  2  0  0  0  0
 13  3  2  0  0  0  0
 14 13  1  0  0  0  0
 15  9  2  0  0  0  0
 16  4  1  0  0  0  0
 17 15  1  0  0  0  0
 18  6  2  0  0  0  0
 18  9  1  0  0  0  0
 19 21  2  0  0  0  0
 19 24  1  0  0  0  0
 20 17  1  0  0  0  0
 20 23  2  0  0  0  0
 21 20  1  0  0  0  0
 22 19  1  0  0  0  0
 24 25  2  0  0  0  0
 25 23  1  0  0  0  0
M  END
>  <MODEL>
5

>  <REMARK>
 VINA RESULT:      -9.9      2.136      6.401
  Name = 
  1 active torsions:
  status: ('A' for Active; 'I' for Inactive)
    1  A    between atoms: C_6  and  C_23
                            x       y       z     vdW  Elec       q    Type
                         _______ _______ _______ _____ _____    ______ ____

>  <TORSDO>
F 1

$$$$
=
 OpenBabel11052412493D

 25 29  0  0  0  0  0  0  0  0999 V2000
  188.3180  177.6360  144.1980 C   0  0  0  0  0  0  0  0  0  0  0  0
  188.2170  178.2800  142.8490 C   0  0  0  0  0  0  0  0  0  0  0  0
  185.9340  177.7430  144.6490 C   0  0  0  0  0  3  0  0  0  0  0  0
  189.3500  177.3820  144.9810 C   0  0  0  0  0  0  0  0  0  0  0  0
  191.1430  176.7800  147.0080 C   0  0  0  0  0  3  0  0  0  0  0  0
  185.7310  178.1550  143.2370 C   0  0  0  0  0  3  0  0  0  0  0  0
  188.8810  177.0370  146.2440 C   0  0  0  0  0  0  0  0  0  0  0  0
  189.7650  176.7260  147.2760 C   0  0  0  0  0  3  0  0  0  0  0  0
  186.5530  178.6120  140.9560 C   0  0  0  0  0  0  0  0  0  0  0  0
  185.2650  179.1630  140.4490 C   0  0  0  0  0  1  0  0  0  0  0  0
  189.0740  177.6240  141.8060 C   0  0  0  0  0  2  0  0  0  0  0  0
  191.6140  177.1490  145.7300 C   0  0  0  0  0  3  0  0  0  0  0  0
  187.1720  177.4790  145.0560 C   0  0  0  0  0  0  0  0  0  0  0  0
  187.5860  177.0790  146.3590 N   0  0  0  0  0  0  0  0  0  0  0  0
  187.4910  178.2980  140.1090 N   0  0  0  0  0  0  0  0  0  0  0  0
  190.7130  177.4610  144.6990 C   0  0  0  0  0  3  0  0  0  0  0  0
  188.7460  177.7000  140.5050 C   0  0  0  0  0  0  0  0  0  0  0  0
  186.7680  178.3570  142.3930 C   0  0  0  0  0  0  0  0  0  0  0  0
  191.8830  176.6560  138.6670 C   0  0  0  0  0  0  0  0  0  0  0  0
  189.6360  177.1290  139.4710 C   0  0  0  0  0  0  0  0  0  0  0  0
  191.0280  177.1910  139.6350 C   0  0  0  0  0  3  0  0  0  0  0  0
  193.2580  176.7260  138.8420 O   0  0  0  0  0  1  0  0  0  0  0  0
  189.1140  176.5150  138.3190 C   0  0  0  0  0  3  0  0  0  0  0  0
  191.3530  176.0490  137.5250 C   0  0  0  0  0  3  0  0  0  0  0  0
  189.9690  175.9800  137.3510 C   0  0  0  0  0  3  0  0  0  0  0  0
  1  4  1  0  0  0  0
  1 13  1  0  0  0  0
  2  1  2  0  0  0  0
  3 13  1  0  0  0  0
  4  7  1  0  0  0  0
  5  8  1  0  0  0  0
  6  3  2  0  0  0  0
  7 14  1  0  0  0  0
  7  8  2  0  0  0  0
  9 18  2  0  0  0  0
 10  9  1  0  0  0  0
 11  2  1  0  0  0  0
 12  5  2  0  0  0  0
 13 14  2  0  0  0  0
 15 17  2  0  0  0  0
 15  9  1  0  0  0  0
 16  4  2  0  0  0  0
 16 12  1  0  0  0  0
 17 11  1  0  0  0  0
 18  2  1  0  0  0  0
 18  6  1  0  0  0  0
 19 22  1  0  0  0  0
 19 21  1  0  0  0  0
 20 21  2  0  0  0  0
 20 17  1  0  0  0  0
 23 20  1  0  0  0  0
 24 19  2  0  0  0  0
 25 24  1  0  0  0  0
 25 23  2  0  0  0  0
M  END
>  <MODEL>
6

>  <REMARK>
 VINA RESULT:      -9.8      2.106      5.208
  Name = 
  1 active torsions:
  status: ('A' for Active; 'I' for Inactive)
    1  A    between atoms: C_6  and  C_23
                            x       y       z     vdW  Elec       q    Type
                         _______ _______ _______ _____ _____    ______ ____

>  <TORSDO>
F 1

$$$$
=
 OpenBabel11052412493D

 25 29  0  0  1  0  0  0  0  0999 V2000
  188.2660  177.6160  142.8860 C   0  0  0  0  0  0  0  0  0  0  0  0
  187.2490  178.4370  143.6190 C   0  0  1  0  0  3  0  0  0  0  0  0
  189.2850  176.7150  144.8980 C   0  0  0  0  0  3  0  0  0  0  0  0
  188.6600  177.6180  141.6260 C   0  0  0  0  0  0  0  0  0  0  0  0
  189.9080  177.3370  139.1660 C   0  0  0  0  0  3  0  0  0  0  0  0
  188.1630  177.3000  145.6740 C   0  0  0  0  0  3  0  0  0  0  0  0
  189.8270  176.8680  141.5200 C   0  0  0  0  0  0  0  0  0  0  0  0
  190.4680  176.7100  140.2920 C   0  0  0  0  0  3  0  0  0  0  0  0
  186.0100  178.4940  145.8380 C   0  0  0  0  0  0  0  0  0  0  0  0
  186.0240  178.6070  147.3240 C   0  0  0  0  0  1  0  0  0  0  0  0
  185.8810  178.3850  143.0050 C   0  0  0  0  0  3  0  0  0  0  0  0
  188.7350  178.1120  139.2830 C   0  0  0  0  0  3  0  0  0  0  0  0
  189.2810  176.8630  143.5760 C   0  0  0  0  0  0  0  0  0  0  0  0
  190.2560  176.3910  142.6510 N   0  0  0  0  0  0  0  0  0  0  0  0
  184.9090  178.7420  145.1890 N   0  0  0  0  0  0  0  0  0  0  0  0
  188.0990  178.2640  140.5250 C   0  0  0  0  0  3  0  0  0  0  0  0
  184.7860  178.5980  143.7560 C   0  0  0  0  0  0  0  0  0  0  0  0
  187.2010  178.0500  145.0900 C   0  0  0  0  0  0  0  0  0  0  0  0
  181.0300  178.8170  143.3690 C   0  0  0  0  0  0  0  0  0  0  0  0
  183.4450  178.6330  143.1350 C   0  0  0  0  0  0  0  0  0  0  0  0
  182.3060  178.7820  143.9400 C   0  0  0  0  0  3  0  0  0  0  0  0
  179.9120  178.9630  144.1780 O   0  0  0  0  0  1  0  0  0  0  0  0
  183.2830  178.5230  141.7430 C   0  0  0  0  0  3  0  0  0  0  0  0
  180.8820  178.7060  141.9840 C   0  0  0  0  0  3  0  0  0  0  0  0
  182.0070  178.5590  141.1710 C   0  0  0  0  0  3  0  0  0  0  0  0
  1 13  1  0  0  0  0
  1  2  1  0  0  0  0
  2 11  1  6  0  0  0
  2 18  1  0  0  0  0
  3  6  1  0  0  0  0
  4  1  2  0  0  0  0
  5 12  1  0  0  0  0
  5  8  2  0  0  0  0
  7  4  1  0  0  0  0
  7 14  2  0  0  0  0
  8  7  1  0  0  0  0
  9 10  1  0  0  0  0
 11 17  2  0  0  0  0
 12 16  2  0  0  0  0
 13  3  2  0  0  0  0
 14 13  1  0  0  0  0
 15  9  2  0  0  0  0
 16  4  1  0  0  0  0
 17 15  1  0  0  0  0
 18  6  2  0  0  0  0
 18  9  1  0  0  0  0
 19 21  1  0  0  0  0
 19 22  1  0  0  0  0
 20 17  1  0  0  0  0
 20 21  2  0  0  0  0
 23 20  1  0  0  0  0
 24 19  2  0  0  0  0
 25 23  2  0  0  0  0
 25 24  1  0  0  0  0
M  END
>  <MODEL>
7

>  <REMARK>
 VINA RESULT:      -9.8      2.579      6.617
  Name = 
  1 active torsions:
  status: ('A' for Active; 'I' for Inactive)
    1  A    between atoms: C_6  and  C_23
                            x       y       z     vdW  Elec       q    Type
                         _______ _______ _______ _____ _____    ______ ____

>  <TORSDO>
F 1

$$$$
=
 OpenBabel11052412493D

 25 29  0  0  1  0  0  0  0  0999 V2000
  187.9580  177.6490  142.4190 C   0  0  0  0  0  0  0  0  0  0  0  0
  186.8280  178.4200  143.0290 C   0  0  1  0  0  3  0  0  0  0  0  0
  188.7530  176.7520  144.5310 C   0  0  0  0  0  3  0  0  0  0  0  0
  188.5050  177.6860  141.2180 C   0  0  0  0  0  0  0  0  0  0  0  0
  190.0590  177.4920  138.9300 C   0  0  0  0  0  3  0  0  0  0  0  0
  187.5210  177.2830  145.1690 C   0  0  0  0  0  3  0  0  0  0  0  0
  189.7040  176.9810  141.2490 C   0  0  0  0  0  0  0  0  0  0  0  0
  190.4980  176.8670  140.1090 C   0  0  0  0  0  3  0  0  0  0  0  0
  185.3210  178.3960  145.0770 C   0  0  0  0  0  0  0  0  0  0  0  0
  185.1460  178.4850  146.5540 C   0  0  0  0  0  1  0  0  0  0  0  0
  185.5490  178.3290  142.2490 C   0  0  0  0  0  3  0  0  0  0  0  0
  188.8510  178.2220  138.9080 C   0  0  0  0  0  3  0  0  0  0  0  0
  188.9070  176.9220  143.2210 C   0  0  0  0  0  0  0  0  0  0  0  0
  190.0070  176.5010  142.4190 N   0  0  0  0  0  0  0  0  0  0  0  0
  184.3000  178.6140  144.2980 N   0  0  0  0  0  0  0  0  0  0  0  0
  188.0610  178.3300  140.0640 C   0  0  0  0  0  3  0  0  0  0  0  0
  184.3630  178.4900  142.8600 C   0  0  0  0  0  0  0  0  0  0  0  0
  186.6120  178.0080  144.4780 C   0  0  0  0  0  0  0  0  0  0  0  0
  181.9400  178.0370  139.9900 C   0  0  0  0  0  0  0  0  0  0  0  0
  183.1080  178.4860  142.0760 C   0  0  0  0  0  0  0  0  0  0  0  0
  183.1170  178.0460  140.7440 C   0  0  0  0  0  3  0  0  0  0  0  0
  181.9640  177.6010  138.6730 O   0  0  0  0  0  1  0  0  0  0  0  0
  181.8940  178.9140  142.6420 C   0  0  0  0  0  3  0  0  0  0  0  0
  180.7400  178.4660  140.5630 C   0  0  0  0  0  3  0  0  0  0  0  0
  180.7170  178.9050  141.8880 C   0  0  0  0  0  3  0  0  0  0  0  0
  1  2  1  0  0  0  0
  1 13  1  0  0  0  0
  2 11  1  6  0  0  0
  2 18  1  0  0  0  0
  3  6  1  0  0  0  0
  4  7  1  0  0  0  0
  4  1  2  0  0  0  0
  5  8  2  0  0  0  0
  7 14  2  0  0  0  0
  8  7  1  0  0  0  0
  9 10  1  0  0  0  0
 11 17  2  0  0  0  0
 12  5  1  0  0  0  0
 12 16  2  0  0  0  0
 13  3  2  0  0  0  0
 14 13  1  0  0  0  0
 15  9  2  0  0  0  0
 16  4  1  0  0  0  0
 17 15  1  0  0  0  0
 18  9  1  0  0  0  0
 18  6  2  0  0  0  0
 19 24  2  0  0  0  0
 19 21  1  0  0  0  0
 20 23  1  0  0  0  0
 20 17  1  0  0  0  0
 21 20  2  0  0  0  0
 22 19  1  0  0  0  0
 24 25  1  0  0  0  0
 25 23  2  0  0  0  0
M  END
>  <MODEL>
8

>  <REMARK>
 VINA RESULT:      -9.3      2.081      6.534
  Name = 
  1 active torsions:
  status: ('A' for Active; 'I' for Inactive)
    1  A    between atoms: C_6  and  C_23
                            x       y       z     vdW  Elec       q    Type
                         _______ _______ _______ _____ _____    ______ ____

>  <TORSDO>
F 1

$$$$
=
 OpenBabel11052412493D

 25 29  0  0  0  0  0  0  0  0999 V2000
  185.5690  178.2450  143.8820 C   0  0  0  0  0  0  0  0  0  0  0  0
  184.5550  178.7760  142.9140 C   0  0  0  0  0  0  0  0  0  0  0  0
  184.1910  178.6280  145.8450 C   0  0  0  0  0  3  0  0  0  0  0  0
  186.8510  177.9590  143.7490 C   0  0  0  0  0  0  0  0  0  0  0  0
  189.5450  177.3610  144.0130 C   0  0  0  0  0  3  0  0  0  0  0  0
  183.0580  178.9330  144.9350 C   0  0  0  0  0  3  0  0  0  0  0  0
  187.4020  177.7740  145.0140 C   0  0  0  0  0  0  0  0  0  0  0  0
  188.7530  177.4680  145.1680 C   0  0  0  0  0  3  0  0  0  0  0  0
  182.0440  179.1050  142.6920 C   0  0  0  0  0  0  0  0  0  0  0  0
  180.7770  179.7360  143.1580 C   0  0  0  0  0  1  0  0  0  0  0  0
  184.4260  177.9490  141.6680 C   0  0  0  0  0  2  0  0  0  0  0  0
  188.9850  177.5680  142.7340 C   0  0  0  0  0  3  0  0  0  0  0  0
  185.3560  178.2790  145.3060 C   0  0  0  0  0  0  0  0  0  0  0  0
  186.5620  177.9550  145.9900 N   0  0  0  0  0  0  0  0  0  0  0  0
  182.1130  178.6270  141.4830 N   0  0  0  0  0  0  0  0  0  0  0  0
  187.6230  177.8770  142.5920 C   0  0  0  0  0  3  0  0  0  0  0  0
  183.2780  177.9440  140.9680 C   0  0  0  0  0  0  0  0  0  0  0  0
  183.2040  178.9570  143.5910 C   0  0  0  0  0  0  0  0  0  0  0  0
  183.8860  176.8850  137.3880 C   0  0  0  0  0  0  0  0  0  0  0  0
  183.1790  177.1990  139.6940 C   0  0  0  0  0  0  0  0  0  0  0  0
  183.9680  177.5800  138.5990 C   0  0  0  0  0  3  0  0  0  0  0  0
  184.6710  177.2740  136.3110 O   0  0  0  0  0  1  0  0  0  0  0  0
  182.3070  176.1050  139.5560 C   0  0  0  0  0  3  0  0  0  0  0  0
  183.0150  175.8000  137.2620 C   0  0  0  0  0  3  0  0  0  0  0  0
  182.2250  175.4110  138.3460 C   0  0  0  0  0  3  0  0  0  0  0  0
  1 13  1  0  0  0  0
  2 18  1  0  0  0  0
  2  1  2  0  0  0  0
  4  1  1  0  0  0  0
  4  7  1  0  0  0  0
  5  8  1  0  0  0  0
  6  3  2  0  0  0  0
  7  8  2  0  0  0  0
  7 14  1  0  0  0  0
  9 10  1  0  0  0  0
  9 18  2  0  0  0  0
 11  2  1  0  0  0  0
 12  5  2  0  0  0  0
 13  3  1  0  0  0  0
 13 14  2  0  0  0  0
 15  9  1  0  0  0  0
 16 12  1  0  0  0  0
 16  4  2  0  0  0  0
 17 15  2  0  0  0  0
 17 11  1  0  0  0  0
 18  6  1  0  0  0  0
 19 21  1  0  0  0  0
 20 17  1  0  0  0  0
 21 20  2  0  0  0  0
 22 19  1  0  0  0  0
 23 20  1  0  0  0  0
 24 19  2  0  0  0  0
 24 25  1  0  0  0  0
 25 23  2  0  0  0  0
M  END
>  <MODEL>
9

>  <REMARK>
 VINA RESULT:      -9.0      2.539      6.310
  Name = 
  1 active torsions:
  status: ('A' for Active; 'I' for Inactive)
    1  A    between atoms: C_6  and  C_23
                            x       y       z     vdW  Elec       q    Type
                         _______ _______ _______ _____ _____    ______ ____

>  <TORSDO>
F 1

$$$$
