=
 OpenBabel11052412233D

 30 33  0  0  1  0  0  0  0  0999 V2000
  187.0460  177.6540  136.6010 C   0  0  1  0  0  0  0  0  0  0  0  0
  188.6800  175.7260  136.8860 C   0  0  0  0  0  0  0  0  0  0  0  0
  187.5300  178.6760  137.6370 C   0  0  2  0  0  3  0  0  0  0  0  0
  189.9890  176.7620  139.8740 C   0  0  0  0  0  3  0  0  0  0  0  0
  191.6500  173.4960  136.9600 C   0  0  0  0  0  1  0  0  0  0  0  0
  189.3300  177.2140  138.7160 C   0  0  0  0  0  0  0  0  0  0  0  0
  187.8850  178.5680  140.1220 C   0  0  0  0  0  3  0  0  0  0  0  0
  188.2270  178.0900  138.8500 C   0  0  0  0  0  0  0  0  0  0  0  0
  189.7210  176.7100  137.3430 C   0  0  1  0  0  3  0  0  0  0  0  0
  190.6670  174.6160  137.0370 C   0  0  0  0  0  0  0  0  0  0  0  0
  189.6070  177.2140  141.1370 C   0  0  0  0  0  3  0  0  0  0  0  0
  187.1830  178.1940  135.1880 C   0  0  0  0  0  1  0  0  0  0  0  0
  188.5600  178.1260  141.2600 C   0  0  0  0  0  3  0  0  0  0  0  0
  187.2050  176.1200  136.8140 C   0  0  2  0  0  3  0  0  0  0  0  0
  189.2370  174.5090  136.7840 C   0  0  0  0  0  0  0  0  0  0  0  0
  192.3360  176.3890  137.5970 C   0  0  0  0  0  1  0  0  0  0  0  0
  186.0160  178.4020  137.4520 C   0  0  2  0  0  3  0  0  0  0  0  0
  190.9620  175.8710  137.3320 C   0  0  0  0  0  0  0  0  0  0  0  0
  187.0650  175.0220  134.6670 F   0  0  0  0  0  0  0  0  0  0  0  0
  185.2220  176.0440  135.4300 F   0  0  0  0  0  0  0  0  0  0  0  0
  185.8950  174.1400  136.4040 O   0  0  0  0  0  1  0  0  0  0  0  0
  186.3400  175.3190  135.8080 C   0  0  0  0  0  0  0  0  0  0  0  0
  188.9600  172.6550  135.1720 C   0  0  0  0  0  1  0  0  0  0  0  0
  188.5460  173.2120  136.5210 C   0  0  0  0  0  2  0  0  0  0  0  0
  184.3650  176.7800  138.1830 O   0  0  0  0  0  1  0  0  0  0  0  0
  185.3630  177.6470  138.6310 C   0  0  2  0  0  3  0  0  0  0  0  0
  184.7540  178.6130  139.6560 C   0  0  1  0  0  3  0  0  0  0  0  0
  183.9170  179.6940  138.9930 C   0  0  0  0  0  1  0  0  0  0  0  0
  183.9510  177.8960  140.6990 C   0  0  0  0  0  3  0  0  0  0  0  0
  184.2830  177.9390  141.8730 O   0  0  0  0  0  0  0  0  0  0  0  0
  1 12  1  6  0  0  0
  1 14  1  0  0  0  0
  1 17  1  0  0  0  0
  1  3  1  0  0  0  0
  3  8  1  1  0  0  0
  4 11  1  0  0  0  0
  5 10  1  0  0  0  0
  6  8  1  0  0  0  0
  6  4  2  0  0  0  0
  7 13  1  0  0  0  0
  8  7  2  0  0  0  0
  9  2  1  1  0  0  0
  9  6  1  0  0  0  0
 10 18  2  0  0  0  0
 11 13  2  0  0  0  0
 14 22  1  6  0  0  0
 14  2  1  0  0  0  0
 15  2  2  0  0  0  0
 15 10  1  0  0  0  0
 17  3  1  0  0  0  0
 17 26  1  1  0  0  0
 18  9  1  0  0  0  0
 18 16  1  0  0  0  0
 19 22  1  0  0  0  0
 20 22  1  0  0  0  0
 22 21  1  0  0  0  0
 23 24  1  0  0  0  0
 24 15  1  0  0  0  0
 26 25  1  6  0  0  0
 26 27  1  0  0  0  0
 27 28  1  6  0  0  0
 27 29  1  0  0  0  0
 29 30  2  0  0  0  0
M  END
>  <MODEL>
1

>  <REMARK>
 VINA RESULT:      -5.1      0.000      0.000
  Name = 
  5 active torsions:
  status: ('A' for Active; 'I' for Inactive)
    1  A    between atoms: C_2  and  C_14
    2  A    between atoms: C_2  and  C_22
    3  A    between atoms: C_11  and  C_25
    4  A    between atoms: C_22  and  C_29
    5  A    between atoms: C_23  and  C_26
                            x       y       z     vdW  Elec       q    Type
                         _______ _______ _______ _____ _____    ______ ____

>  <TORSDO>
F 5

$$$$
=
 OpenBabel11052412233D

 30 33  0  0  1  0  0  0  0  0999 V2000
  181.9070  178.9450  138.2870 C   0  0  1  0  0  0  0  0  0  0  0  0
  182.4260  178.6250  140.7550 C   0  0  0  0  0  0  0  0  0  0  0  0
  180.4720  178.4190  138.1610 C   0  0  2  0  0  3  0  0  0  0  0  0
  179.7890  176.5530  141.4420 C   0  0  0  0  0  3  0  0  0  0  0  0
  182.5710  178.8020  144.4630 C   0  0  0  0  0  1  0  0  0  0  0  0
  180.2380  177.5480  140.5540 C   0  0  0  0  0  0  0  0  0  0  0  0
  179.3960  176.2150  138.7070 C   0  0  0  0  0  3  0  0  0  0  0  0
  180.0850  177.3480  139.1630 C   0  0  0  0  0  0  0  0  0  0  0  0
  180.9610  178.7810  141.0560 C   0  0  1  0  0  3  0  0  0  0  0  0
  182.1920  178.7560  143.0200 C   0  0  0  0  0  0  0  0  0  0  0  0
  179.1450  175.4110  140.9690 C   0  0  0  0  0  3  0  0  0  0  0  0
  181.9810  180.4290  137.9690 C   0  0  0  0  0  1  0  0  0  0  0  0
  178.9400  175.2460  139.6010 C   0  0  0  0  0  3  0  0  0  0  0  0
  182.9120  178.3720  139.3290 C   0  0  2  0  0  3  0  0  0  0  0  0
  183.1080  178.5430  141.9090 C   0  0  0  0  0  0  0  0  0  0  0  0
  179.7620  179.2170  143.3760 C   0  0  0  0  0  1  0  0  0  0  0  0
  181.5330  178.0740  137.0840 C   0  0  2  0  0  3  0  0  0  0  0  0
  180.9680  178.9190  142.5480 C   0  0  0  0  0  0  0  0  0  0  0  0
  184.6180  178.7520  137.6610 F   0  0  0  0  0  0  0  0  0  0  0  0
  185.2810  178.0160  139.6720 F   0  0  0  0  0  0  0  0  0  0  0  0
  184.5550  180.1280  139.4680 O   0  0  0  0  0  1  0  0  0  0  0  0
  184.3620  178.8220  139.0190 C   0  0  0  0  0  0  0  0  0  0  0  0
  185.2860  179.4080  142.6960 C   0  0  0  0  0  1  0  0  0  0  0  0
  184.5560  178.2250  142.0880 C   0  0  0  0  0  2  0  0  0  0  0  0
  183.3360  176.4780  136.7800 O   0  0  0  0  0  1  0  0  0  0  0  0
  181.9810  176.5950  137.0920 C   0  0  2  0  0  3  0  0  0  0  0  0
  181.1710  175.7510  136.0990 C   0  0  1  0  0  3  0  0  0  0  0  0
  181.2950  176.2700  134.6760 C   0  0  0  0  0  1  0  0  0  0  0  0
  181.5400  174.2990  136.1590 C   0  0  0  0  0  3  0  0  0  0  0  0
  181.5150  173.6990  137.2210 O   0  0  0  0  0  0  0  0  0  0  0  0
  1 12  1  6  0  0  0
  1 14  1  0  0  0  0
  2  9  1  0  0  0  0
  2 15  2  0  0  0  0
  3  1  1  0  0  0  0
  3  8  1  1  0  0  0
  6  4  2  0  0  0  0
  7  8  2  0  0  0  0
  7 13  1  0  0  0  0
  8  6  1  0  0  0  0
  9  6  1  1  0  0  0
  9 18  1  0  0  0  0
 10  5  1  0  0  0  0
 11  4  1  0  0  0  0
 13 11  2  0  0  0  0
 14 22  1  1  0  0  0
 14  2  1  0  0  0  0
 15 24  1  0  0  0  0
 15 10  1  0  0  0  0
 17 26  1  1  0  0  0
 17  3  1  0  0  0  0
 17  1  1  0  0  0  0
 18 10  2  0  0  0  0
 18 16  1  0  0  0  0
 19 22  1  0  0  0  0
 22 21  1  0  0  0  0
 22 20  1  0  0  0  0
 24 23  1  0  0  0  0
 26 25  1  6  0  0  0
 27 28  1  6  0  0  0
 27 29  1  0  0  0  0
 27 26  1  0  0  0  0
 29 30  2  0  0  0  0
M  END
>  <MODEL>
2

>  <REMARK>
 VINA RESULT:      -5.1      5.176      8.325
  Name = 
  5 active torsions:
  status: ('A' for Active; 'I' for Inactive)
    1  A    between atoms: C_2  and  C_14
    2  A    between atoms: C_2  and  C_22
    3  A    between atoms: C_11  and  C_25
    4  A    between atoms: C_22  and  C_29
    5  A    between atoms: C_23  and  C_26
                            x       y       z     vdW  Elec       q    Type
                         _______ _______ _______ _____ _____    ______ ____

>  <TORSDO>
F 5

$$$$
=
 OpenBabel11052412233D

 30 33  0  0  1  0  0  0  0  0999 V2000
  183.2890  177.4020  137.2750 C   0  0  1  0  0  0  0  0  0  0  0  0
  185.6440  176.4440  137.2700 C   0  0  0  0  0  0  0  0  0  0  0  0
  183.4280  178.6650  138.1340 C   0  0  2  0  0  3  0  0  0  0  0  0
  186.8460  178.3490  139.8470 C   0  0  0  0  0  3  0  0  0  0  0  0
  189.2650  175.7720  136.7760 C   0  0  0  0  0  1  0  0  0  0  0  0
  185.8580  178.3020  138.8460 C   0  0  0  0  0  0  0  0  0  0  0  0
  184.2320  179.0660  140.4800 C   0  0  0  0  0  3  0  0  0  0  0  0
  184.5210  178.6160  139.1850 C   0  0  0  0  0  0  0  0  0  0  0  0
  186.1830  177.8370  137.4430 C   0  0  1  0  0  3  0  0  0  0  0  0
  187.9100  176.3480  137.0230 C   0  0  0  0  0  0  0  0  0  0  0  0
  186.5320  178.7570  141.1430 C   0  0  0  0  0  3  0  0  0  0  0  0
  182.9080  177.7460  135.8450 C   0  0  0  0  0  1  0  0  0  0  0  0
  185.2250  179.1250  141.4570 C   0  0  0  0  0  3  0  0  0  0  0  0
  184.1660  176.1380  137.5110 C   0  0  2  0  0  3  0  0  0  0  0  0
  186.6680  175.5920  137.0980 C   0  0  0  0  0  0  0  0  0  0  0  0
  188.6540  178.7310  137.1230 C   0  0  0  0  0  1  0  0  0  0  0  0
  182.2010  177.7320  138.3000 C   0  0  2  0  0  3  0  0  0  0  0  0
  187.6460  177.6320  137.1920 C   0  0  0  0  0  0  0  0  0  0  0  0
  184.1390  174.8220  135.4850 F   0  0  0  0  0  0  0  0  0  0  0  0
  182.2220  174.9960  136.6330 F   0  0  0  0  0  0  0  0  0  0  0  0
  183.8840  173.7460  137.4690 O   0  0  0  0  0  1  0  0  0  0  0  0
  183.5990  174.9090  136.7560 C   0  0  0  0  0  0  0  0  0  0  0  0
  186.9700  173.6020  135.6620 C   0  0  0  0  0  1  0  0  0  0  0  0
  186.6110  174.1010  137.0490 C   0  0  0  0  0  2  0  0  0  0  0  0
  182.0020  175.5750  139.3930 O   0  0  0  0  0  1  0  0  0  0  0  0
  182.1890  176.9380  139.6260 C   0  0  2  0  0  3  0  0  0  0  0  0
  181.0870  177.4330  140.5730 C   0  0  1  0  0  3  0  0  0  0  0  0
  180.6330  178.8420  140.2330 C   0  0  0  0  0  1  0  0  0  0  0  0
  179.9140  176.5000  140.6090 C   0  0  0  0  0  3  0  0  0  0  0  0
  179.1520  176.5010  141.5630 O   0  0  0  0  0  0  0  0  0  0  0  0
  1 12  1  6  0  0  0
  1 14  1  0  0  0  0
  1  3  1  0  0  0  0
  1 17  1  0  0  0  0
  2  9  1  0  0  0  0
  2 14  1  0  0  0  0
  3 17  1  0  0  0  0
  3  8  1  1  0  0  0
  4 11  1  0  0  0  0
  5 10  1  0  0  0  0
  6  8  1  0  0  0  0
  6  4  2  0  0  0  0
  7 13  1  0  0  0  0
  8  7  2  0  0  0  0
  9 18  1  1  0  0  0
  9  6  1  0  0  0  0
 10 15  1  0  0  0  0
 10 18  2  0  0  0  0
 11 13  2  0  0  0  0
 14 22  1  6  0  0  0
 15  2  2  0  0  0  0
 16 18  1  0  0  0  0
 17 26  1  1  0  0  0
 19 22  1  0  0  0  0
 20 22  1  0  0  0  0
 22 21  1  0  0  0  0
 23 24  1  0  0  0  0
 24 15  1  0  0  0  0
 26 25  1  6  0  0  0
 26 27  1  0  0  0  0
 27 28  1  6  0  0  0
 27 29  1  0  0  0  0
 29 30  2  0  0  0  0
M  END
>  <MODEL>
3

>  <REMARK>
 VINA RESULT:      -5.1      2.349      3.560
  Name = 
  5 active torsions:
  status: ('A' for Active; 'I' for Inactive)
    1  A    between atoms: C_2  and  C_14
    2  A    between atoms: C_2  and  C_22
    3  A    between atoms: C_11  and  C_25
    4  A    between atoms: C_22  and  C_29
    5  A    between atoms: C_23  and  C_26
                            x       y       z     vdW  Elec       q    Type
                         _______ _______ _______ _____ _____    ______ ____

>  <TORSDO>
F 5

$$$$
=
 OpenBabel11052412233D

 30 33  0  0  1  0  0  0  0  0999 V2000
  187.3650  177.8650  137.0280 C   0  0  1  0  0  0  0  0  0  0  0  0
  186.4420  178.2720  139.3620 C   0  0  0  0  0  0  0  0  0  0  0  0
  186.1500  177.3290  136.2610 C   0  0  2  0  0  3  0  0  0  0  0  0
  183.5450  176.4950  138.9510 C   0  0  0  0  0  3  0  0  0  0  0  0
  184.6340  179.5140  142.3600 C   0  0  0  0  0  1  0  0  0  0  0  0
  184.5500  177.1890  138.2510 C   0  0  0  0  0  0  0  0  0  0  0  0
  184.6070  175.3810  136.6320 C   0  0  0  0  0  3  0  0  0  0  0  0
  185.1240  176.5950  137.1040 C   0  0  0  0  0  0  0  0  0  0  0  0
  185.0870  178.5120  138.7560 C   0  0  1  0  0  3  0  0  0  0  0  0
  185.0720  179.0530  141.0100 C   0  0  0  0  0  0  0  0  0  0  0  0
  183.0720  175.2670  138.4910 C   0  0  0  0  0  3  0  0  0  0  0  0
  187.8350  179.1930  136.4590 C   0  0  0  0  0  1  0  0  0  0  0  0
  183.5970  174.7140  137.3250 C   0  0  0  0  0  3  0  0  0  0  0  0
  187.5600  177.6150  138.5520 C   0  0  2  0  0  3  0  0  0  0  0  0
  186.3880  178.5250  140.6790 C   0  0  0  0  0  0  0  0  0  0  0  0
  182.9340  179.6050  139.8410 C   0  0  0  0  0  1  0  0  0  0  0  0
  187.5460  176.6840  136.0700 C   0  0  2  0  0  3  0  0  0  0  0  0
  184.3280  179.0760  139.9180 C   0  0  0  0  0  0  0  0  0  0  0  0
  189.0850  179.2540  139.4600 F   0  0  0  0  0  0  0  0  0  0  0  0
  189.8930  177.8150  137.9440 F   0  0  0  0  0  0  0  0  0  0  0  0
  189.4050  177.0700  140.0010 O   0  0  0  0  0  1  0  0  0  0  0  0
  189.0050  177.9520  138.9980 C   0  0  0  0  0  0  0  0  0  0  0  0
  186.8730  177.5220  142.8870 C   0  0  0  0  0  1  0  0  0  0  0  0
  187.4490  178.2690  141.6980 C   0  0  0  0  0  2  0  0  0  0  0  0
  188.9200  175.0960  137.2850 O   0  0  0  0  0  1  0  0  0  0  0  0
  187.6750  175.2700  136.6780 C   0  0  2  0  0  3  0  0  0  0  0  0
  187.4860  174.1770  135.6180 C   0  0  1  0  0  3  0  0  0  0  0  0
  188.6080  174.1750  134.5940 C   0  0  0  0  0  1  0  0  0  0  0  0
  187.3360  172.8160  136.2300 C   0  0  0  0  0  3  0  0  0  0  0  0
  186.6620  172.6620  137.2360 O   0  0  0  0  0  0  0  0  0  0  0  0
  1 12  1  6  0  0  0
  1 14  1  0  0  0  0
  2 15  2  0  0  0  0
  3  1  1  0  0  0  0
  3  8  1  1  0  0  0
  6  4  2  0  0  0  0
  7  8  2  0  0  0  0
  7 13  1  0  0  0  0
  8  6  1  0  0  0  0
  9  6  1  1  0  0  0
  9  2  1  0  0  0  0
  9 18  1  0  0  0  0
 10  5  1  0  0  0  0
 11  4  1  0  0  0  0
 13 11  2  0  0  0  0
 14 22  1  1  0  0  0
 14  2  1  0  0  0  0
 15 10  1  0  0  0  0
 15 24  1  0  0  0  0
 16 18  1  0  0  0  0
 17  3  1  0  0  0  0
 17 26  1  1  0  0  0
 17  1  1  0  0  0  0
 18 10  2  0  0  0  0
 20 22  1  0  0  0  0
 22 19  1  0  0  0  0
 22 21  1  0  0  0  0
 24 23  1  0  0  0  0
 26 25  1  6  0  0  0
 27 28  1  6  0  0  0
 27 29  1  0  0  0  0
 27 26  1  0  0  0  0
 29 30  2  0  0  0  0
M  END
>  <MODEL>
4

>  <REMARK>
 VINA RESULT:      -5.0      2.638      6.357
  Name = 
  5 active torsions:
  status: ('A' for Active; 'I' for Inactive)
    1  A    between atoms: C_2  and  C_14
    2  A    between atoms: C_2  and  C_22
    3  A    between atoms: C_11  and  C_25
    4  A    between atoms: C_22  and  C_29
    5  A    between atoms: C_23  and  C_26
                            x       y       z     vdW  Elec       q    Type
                         _______ _______ _______ _____ _____    ______ ____

>  <TORSDO>
F 5

$$$$
=
 OpenBabel11052412233D

 30 33  0  0  1  0  0  0  0  0999 V2000
  188.0660  176.6880  135.7700 C   0  0  1  0  0  0  0  0  0  0  0  0
  185.9170  177.2630  137.0020 C   0  0  0  0  0  0  0  0  0  0  0  0
  187.8220  175.2490  135.2970 C   0  0  2  0  0  3  0  0  0  0  0  0
  184.7300  174.0610  137.2320 C   0  0  0  0  0  3  0  0  0  0  0  0
  182.4250  178.0660  137.9820 C   0  0  0  0  0  1  0  0  0  0  0  0
  185.5870  174.8940  136.4890 C   0  0  0  0  0  0  0  0  0  0  0  0
  187.2460  173.1200  136.5010 C   0  0  0  0  0  3  0  0  0  0  0  0
  186.8840  174.4330  136.1660 C   0  0  0  0  0  0  0  0  0  0  0  0
  185.1800  176.3030  136.1110 C   0  0  1  0  0  3  0  0  0  0  0  0
  183.6860  177.5240  137.3950 C   0  0  0  0  0  0  0  0  0  0  0  0
  185.1220  172.7730  137.5950 C   0  0  0  0  0  3  0  0  0  0  0  0
  188.2130  177.6380  134.5940 C   0  0  0  0  0  1  0  0  0  0  0  0
  186.3780  172.2990  137.2210 C   0  0  0  0  0  3  0  0  0  0  0  0
  187.4430  177.2460  137.0840 C   0  0  2  0  0  3  0  0  0  0  0  0
  185.0350  177.9070  137.7840 C   0  0  0  0  0  0  0  0  0  0  0  0
  182.5750  176.0380  135.7210 C   0  0  0  0  0  1  0  0  0  0  0  0
  189.1970  175.6620  135.8820 C   0  0  2  0  0  3  0  0  0  0  0  0
  183.7520  176.6300  136.4240 C   0  0  0  0  0  0  0  0  0  0  0  0
  187.4410  179.6580  136.9560 F   0  0  0  0  0  0  0  0  0  0  0  0
  189.4290  178.6290  137.0720 F   0  0  0  0  0  0  0  0  0  0  0  0
  188.1220  178.6850  138.8920 O   0  0  0  0  0  1  0  0  0  0  0  0
  188.1130  178.5790  137.5020 C   0  0  0  0  0  0  0  0  0  0  0  0
  184.8340  178.2330  140.2270 C   0  0  0  0  0  1  0  0  0  0  0  0
  185.3320  178.8270  138.9220 C   0  0  0  0  0  2  0  0  0  0  0  0
  189.8220  176.0600  138.1930 O   0  0  0  0  0  1  0  0  0  0  0  0
  189.4970  175.0610  137.2730 C   0  0  2  0  0  3  0  0  0  0  0  0
  190.6480  174.0480  137.2170 C   0  0  1  0  0  3  0  0  0  0  0  0
  190.7520  173.3770  135.8590 C   0  0  0  0  0  1  0  0  0  0  0  0
  191.9610  174.6640  137.5970 C   0  0  0  0  0  3  0  0  0  0  0  0
  192.6970  175.1280  136.7410 O   0  0  0  0  0  0  0  0  0  0  0  0
  1 12  1  6  0  0  0
  1 17  1  0  0  0  0
  1 14  1  0  0  0  0
  2 14  1  0  0  0  0
  2 15  2  0  0  0  0
  3  1  1  0  0  0  0
  3 17  1  0  0  0  0
  3  8  1  1  0  0  0
  4 11  1  0  0  0  0
  6  4  2  0  0  0  0
  7 13  1  0  0  0  0
  8  6  1  0  0  0  0
  8  7  2  0  0  0  0
  9 18  1  1  0  0  0
  9  6  1  0  0  0  0
  9  2  1  0  0  0  0
 10 15  1  0  0  0  0
 10  5  1  0  0  0  0
 13 11  2  0  0  0  0
 14 22  1  6  0  0  0
 15 24  1  0  0  0  0
 16 18  1  0  0  0  0
 17 26  1  1  0  0  0
 18 10  2  0  0  0  0
 19 22  1  0  0  0  0
 20 22  1  0  0  0  0
 22 21  1  0  0  0  0
 24 23  1  0  0  0  0
 26 25  1  1  0  0  0
 27 28  1  6  0  0  0
 27 26  1  0  0  0  0
 27 29  1  0  0  0  0
 30 29  2  0  0  0  0
M  END
>  <MODEL>
5

>  <REMARK>
 VINA RESULT:      -4.8      2.666      6.554
  Name = 
  5 active torsions:
  status: ('A' for Active; 'I' for Inactive)
    1  A    between atoms: C_2  and  C_14
    2  A    between atoms: C_2  and  C_22
    3  A    between atoms: C_11  and  C_25
    4  A    between atoms: C_22  and  C_29
    5  A    between atoms: C_23  and  C_26
                            x       y       z     vdW  Elec       q    Type
                         _______ _______ _______ _____ _____    ______ ____

>  <TORSDO>
F 5

$$$$
=
 OpenBabel11052412233D

 30 33  0  0  1  0  0  0  0  0999 V2000
  182.4740  178.6900  138.3400 C   0  0  1  0  0  0  0  0  0  0  0  0
  184.2670  177.1330  137.4300 C   0  0  0  0  0  0  0  0  0  0  0  0
  183.2720  179.6750  139.2030 C   0  0  2  0  0  3  0  0  0  0  0  0
  186.7480  178.0960  139.5820 C   0  0  0  0  0  3  0  0  0  0  0  0
  187.1370  175.5880  135.6480 C   0  0  0  0  0  1  0  0  0  0  0  0
  185.5450  178.5200  138.9890 C   0  0  0  0  0  0  0  0  0  0  0  0
  184.8360  179.3780  141.1480 C   0  0  0  0  0  3  0  0  0  0  0  0
  184.5540  179.1230  139.7990 C   0  0  0  0  0  0  0  0  0  0  0  0
  185.2570  178.2610  137.5250 C   0  0  1  0  0  3  0  0  0  0  0  0
  186.1880  176.4600  136.4010 C   0  0  0  0  0  0  0  0  0  0  0  0
  186.9950  178.3190  140.9360 C   0  0  0  0  0  3  0  0  0  0  0  0
  181.8110  179.3950  137.1690 C   0  0  0  0  0  1  0  0  0  0  0  0
  186.0410  178.9690  141.7180 C   0  0  0  0  0  3  0  0  0  0  0  0
  182.9170  177.2110  138.1440 C   0  0  2  0  0  3  0  0  0  0  0  0
  184.8520  176.0800  136.8390 C   0  0  0  0  0  0  0  0  0  0  0  0
  187.6630  178.4760  136.4430 C   0  0  0  0  0  1  0  0  0  0  0  0
  181.9200  179.1070  139.7060 C   0  0  2  0  0  3  0  0  0  0  0  0
  186.4230  177.7100  136.7620 C   0  0  0  0  0  0  0  0  0  0  0  0
  180.5410  176.8520  137.9020 F   0  0  0  0  0  0  0  0  0  0  0  0
  181.8610  175.0420  137.9550 F   0  0  0  0  0  0  0  0  0  0  0  0
  181.8880  176.3580  136.1400 O   0  0  0  0  0  1  0  0  0  0  0  0
  181.7780  176.3580  137.5300 C   0  0  0  0  0  0  0  0  0  0  0  0
  184.9250  173.7610  137.6950 C   0  0  0  0  0  1  0  0  0  0  0  0
  184.2990  174.7020  136.6820 C   0  0  0  0  0  2  0  0  0  0  0  0
  181.5300  176.8600  140.5360 O   0  0  0  0  0  1  0  0  0  0  0  0
  182.0530  178.1080  140.8780 C   0  0  2  0  0  3  0  0  0  0  0  0
  181.3380  178.6150  142.1380 C   0  0  1  0  0  3  0  0  0  0  0  0
  182.3180  179.0040  143.2310 C   0  0  0  0  0  1  0  0  0  0  0  0
  180.4080  179.7530  141.8410 C   0  0  0  0  0  3  0  0  0  0  0  0
  180.0920  180.5390  142.7190 O   0  0  0  0  0  0  0  0  0  0  0  0
  1 12  1  6  0  0  0
  1  3  1  0  0  0  0
  1 17  1  0  0  0  0
  2  9  1  0  0  0  0
  2 14  1  0  0  0  0
  3 17  1  0  0  0  0
  3  8  1  1  0  0  0
  4 11  1  0  0  0  0
  5 10  1  0  0  0  0
  6  4  2  0  0  0  0
  6  8  1  0  0  0  0
  7 13  1  0  0  0  0
  8  7  2  0  0  0  0
  9 18  1  6  0  0  0
  9  6  1  0  0  0  0
 10 18  2  0  0  0  0
 10 15  1  0  0  0  0
 11 13  2  0  0  0  0
 14 22  1  6  0  0  0
 14  1  1  0  0  0  0
 15  2  2  0  0  0  0
 16 18  1  0  0  0  0
 17 26  1  1  0  0  0
 21 22  1  0  0  0  0
 22 19  1  0  0  0  0
 22 20  1  0  0  0  0
 24 15  1  0  0  0  0
 24 23  1  0  0  0  0
 26 25  1  6  0  0  0
 26 27  1  0  0  0  0
 27 28  1  1  0  0  0
 29 27  1  0  0  0  0
 29 30  2  0  0  0  0
M  END
>  <MODEL>
6

>  <REMARK>
 VINA RESULT:      -4.8      3.007      4.615
  Name = 
  5 active torsions:
  status: ('A' for Active; 'I' for Inactive)
    1  A    between atoms: C_2  and  C_14
    2  A    between atoms: C_2  and  C_22
    3  A    between atoms: C_11  and  C_25
    4  A    between atoms: C_22  and  C_29
    5  A    between atoms: C_23  and  C_26
                            x       y       z     vdW  Elec       q    Type
                         _______ _______ _______ _____ _____    ______ ____

>  <TORSDO>
F 5

$$$$
=
 OpenBabel11052412233D

 30 33  0  0  1  0  0  0  0  0999 V2000
  183.6300  177.0750  136.1030 C   0  0  1  0  0  0  0  0  0  0  0  0
  182.2150  175.2720  137.2040 C   0  0  0  0  0  0  0  0  0  0  0  0
  184.8240  176.2890  135.5460 C   0  0  2  0  0  3  0  0  0  0  0  0
  184.6160  172.8320  137.1960 C   0  0  0  0  0  3  0  0  0  0  0  0
  180.0210  172.3730  137.9690 C   0  0  0  0  0  1  0  0  0  0  0  0
  184.2150  174.0200  136.5570 C   0  0  0  0  0  0  0  0  0  0  0  0
  186.5240  174.7700  136.6030 C   0  0  0  0  0  3  0  0  0  0  0  0
  185.1780  175.0250  136.3050 C   0  0  0  0  0  0  0  0  0  0  0  0
  182.7610  174.2770  136.2180 C   0  0  1  0  0  3  0  0  0  0  0  0
  181.0380  173.3330  137.4480 C   0  0  0  0  0  0  0  0  0  0  0  0
  185.9530  172.6140  137.5240 C   0  0  0  0  0  3  0  0  0  0  0  0
  182.8170  177.7080  134.9870 C   0  0  0  0  0  1  0  0  0  0  0  0
  186.9090  173.5800  137.2190 C   0  0  0  0  0  3  0  0  0  0  0  0
  182.8780  176.6360  137.3940 C   0  0  2  0  0  3  0  0  0  0  0  0
  181.2680  174.6800  137.9500 C   0  0  0  0  0  0  0  0  0  0  0  0
  181.8920  171.8470  135.6300 C   0  0  0  0  0  1  0  0  0  0  0  0
  185.0400  177.6550  136.2470 C   0  0  2  0  0  3  0  0  0  0  0  0
  181.8640  173.0990  136.4430 C   0  0  0  0  0  0  0  0  0  0  0  0
  180.6910  177.6630  137.3780 F   0  0  0  0  0  0  0  0  0  0  0  0
  182.4680  179.0120  137.5930 F   0  0  0  0  0  0  0  0  0  0  0  0
  181.8820  177.6980  139.3130 O   0  0  0  0  0  1  0  0  0  0  0  0
  181.9590  177.7670  137.9220 C   0  0  0  0  0  0  0  0  0  0  0  0
  179.1040  175.4650  138.8540 C   0  0  0  0  0  1  0  0  0  0  0  0
  180.5750  175.2380  139.1490 C   0  0  0  0  0  2  0  0  0  0  0  0
  185.2650  178.5450  138.4930 O   0  0  0  0  0  1  0  0  0  0  0  0
  185.7290  177.5550  137.6260 C   0  0  2  0  0  3  0  0  0  0  0  0
  187.2540  177.6770  137.5080 C   0  0  1  0  0  3  0  0  0  0  0  0
  187.6660  178.6280  136.3970 C   0  0  0  0  0  1  0  0  0  0  0  0
  187.8900  178.0800  138.8050 C   0  0  0  0  0  3  0  0  0  0  0  0
  188.6880  179.0030  138.8410 O   0  0  0  0  0  0  0  0  0  0  0  0
  1 12  1  6  0  0  0
  1 17  1  0  0  0  0
  1 14  1  0  0  0  0
  2 14  1  0  0  0  0
  2 15  2  0  0  0  0
  3  1  1  0  0  0  0
  3 17  1  0  0  0  0
  3  8  1  1  0  0  0
  4 11  1  0  0  0  0
  6  4  2  0  0  0  0
  7 13  1  0  0  0  0
  8  6  1  0  0  0  0
  8  7  2  0  0  0  0
  9 18  1  1  0  0  0
  9  6  1  0  0  0  0
  9  2  1  0  0  0  0
 10 15  1  0  0  0  0
 10  5  1  0  0  0  0
 13 11  2  0  0  0  0
 14 22  1  6  0  0  0
 15 24  1  0  0  0  0
 16 18  1  0  0  0  0
 17 26  1  1  0  0  0
 18 10  2  0  0  0  0
 19 22  1  0  0  0  0
 20 22  1  0  0  0  0
 22 21  1  0  0  0  0
 23 24  1  0  0  0  0
 26 25  1  1  0  0  0
 27 28  1  6  0  0  0
 27 26  1  0  0  0  0
 27 29  1  0  0  0  0
 29 30  2  0  0  0  0
M  END
>  <MODEL>
7

>  <REMARK>
 VINA RESULT:      -4.6      3.763      6.704
  Name = 
  5 active torsions:
  status: ('A' for Active; 'I' for Inactive)
    1  A    between atoms: C_2  and  C_14
    2  A    between atoms: C_2  and  C_22
    3  A    between atoms: C_11  and  C_25
    4  A    between atoms: C_22  and  C_29
    5  A    between atoms: C_23  and  C_26
                            x       y       z     vdW  Elec       q    Type
                         _______ _______ _______ _____ _____    ______ ____

>  <TORSDO>
F 5

$$$$
=
 OpenBabel11052412233D

 30 33  0  0  1  0  0  0  0  0999 V2000
  183.3440  178.5320  138.7690 C   0  0  1  0  0  0  0  0  0  0  0  0
  184.3350  176.7040  137.3060 C   0  0  0  0  0  0  0  0  0  0  0  0
  184.5660  179.3810  139.1420 C   0  0  2  0  0  3  0  0  0  0  0  0
  187.6070  177.2680  138.1380 C   0  0  0  0  0  3  0  0  0  0  0  0
  185.9170  174.7110  134.5990 C   0  0  0  0  0  1  0  0  0  0  0  0
  186.3390  177.8760  138.0770 C   0  0  0  0  0  0  0  0  0  0  0  0
  186.7500  178.8470  140.2650 C   0  0  0  0  0  3  0  0  0  0  0  0
  185.8860  178.6340  139.1820 C   0  0  0  0  0  0  0  0  0  0  0  0
  185.4210  177.6590  136.8930 C   0  0  1  0  0  3  0  0  0  0  0  0
  185.5150  175.7270  135.6160 C   0  0  0  0  0  0  0  0  0  0  0  0
  188.4370  177.4550  139.2430 C   0  0  0  0  0  3  0  0  0  0  0  0
  182.3530  179.3290  137.9380 C   0  0  0  0  0  1  0  0  0  0  0  0
  188.0110  178.2530  140.3030 C   0  0  0  0  0  3  0  0  0  0  0  0
  183.4460  177.0000  138.5130 C   0  0  2  0  0  3  0  0  0  0  0  0
  184.4550  175.5680  136.6010 C   0  0  0  0  0  0  0  0  0  0  0  0
  187.1380  177.4810  134.8870 C   0  0  0  0  0  1  0  0  0  0  0  0
  183.4920  179.0390  140.2070 C   0  0  2  0  0  3  0  0  0  0  0  0
  186.0570  176.9250  135.7530 C   0  0  0  0  0  0  0  0  0  0  0  0
  182.1000  175.0630  139.0330 F   0  0  0  0  0  0  0  0  0  0  0  0
  181.5550  176.2420  137.2060 F   0  0  0  0  0  0  0  0  0  0  0  0
  181.1490  177.1170  139.2300 O   0  0  0  0  0  1  0  0  0  0  0  0
  182.0450  176.3380  138.4990 C   0  0  0  0  0  0  0  0  0  0  0  0
  184.5200  173.3050  137.5960 C   0  0  0  0  0  1  0  0  0  0  0  0
  183.6970  174.2950  136.7930 C   0  0  0  0  0  2  0  0  0  0  0  0
  183.0280  177.0260  141.4780 O   0  0  0  0  0  1  0  0  0  0  0  0
  183.9680  178.0380  141.2830 C   0  0  2  0  0  3  0  0  0  0  0  0
  184.2320  178.7330  142.6260 C   0  0  1  0  0  3  0  0  0  0  0  0
  182.9470  179.0050  143.3890 C   0  0  0  0  0  1  0  0  0  0  0  0
  185.1940  177.9620  143.4800 C   0  0  0  0  0  3  0  0  0  0  0  0
  186.3750  178.2680  143.5110 O   0  0  0  0  0  0  0  0  0  0  0  0
  1 12  1  6  0  0  0
  1  3  1  0  0  0  0
  1 17  1  0  0  0  0
  2 14  1  0  0  0  0
  3  8  1  1  0  0  0
  3 17  1  0  0  0  0
  4 11  1  0  0  0  0
  5 10  1  0  0  0  0
  6  4  2  0  0  0  0
  6  8  1  0  0  0  0
  7 13  1  0  0  0  0
  8  7  2  0  0  0  0
  9 18  1  6  0  0  0
  9  2  1  0  0  0  0
  9  6  1  0  0  0  0
 10 18  2  0  0  0  0
 10 15  1  0  0  0  0
 11 13  2  0  0  0  0
 14 22  1  6  0  0  0
 14  1  1  0  0  0  0
 15 24  1  0  0  0  0
 15  2  2  0  0  0  0
 16 18  1  0  0  0  0
 17 26  1  1  0  0  0
 20 22  1  0  0  0  0
 22 19  1  0  0  0  0
 22 21  1  0  0  0  0
 24 23  1  0  0  0  0
 26 25  1  1  0  0  0
 26 27  1  0  0  0  0
 27 28  1  1  0  0  0
 27 29  1  0  0  0  0
 29 30  2  0  0  0  0
M  END
>  <MODEL>
8

>  <REMARK>
 VINA RESULT:      -4.5      2.954      4.356
  Name = 
  5 active torsions:
  status: ('A' for Active; 'I' for Inactive)
    1  A    between atoms: C_2  and  C_14
    2  A    between atoms: C_2  and  C_22
    3  A    between atoms: C_11  and  C_25
    4  A    between atoms: C_22  and  C_29
    5  A    between atoms: C_23  and  C_26
                            x       y       z     vdW  Elec       q    Type
                         _______ _______ _______ _____ _____    ______ ____

>  <TORSDO>
F 5

$$$$
=
 OpenBabel11052412233D

 30 33  0  0  1  0  0  0  0  0999 V2000
  188.5560  176.5910  136.0740 C   0  0  1  0  0  0  0  0  0  0  0  0
  186.9130  177.4380  137.8210 C   0  0  0  0  0  0  0  0  0  0  0  0
  187.7760  175.4700  135.3770 C   0  0  2  0  0  3  0  0  0  0  0  0
  184.7440  174.7980  137.6280 C   0  0  0  0  0  3  0  0  0  0  0  0
  184.0650  178.9640  139.6540 C   0  0  0  0  0  1  0  0  0  0  0  0
  185.7290  175.5000  136.9110 C   0  0  0  0  0  0  0  0  0  0  0  0
  186.6680  173.3740  136.2090 C   0  0  0  0  0  3  0  0  0  0  0  0
  186.7360  174.7730  136.2350 C   0  0  0  0  0  0  0  0  0  0  0  0
  185.7820  177.0140  136.9250 C   0  0  1  0  0  3  0  0  0  0  0  0
  184.9770  178.2440  138.7170 C   0  0  0  0  0  0  0  0  0  0  0  0
  184.7160  173.4040  137.6280 C   0  0  0  0  0  3  0  0  0  0  0  0
  188.8650  177.7280  135.1150 C   0  0  0  0  0  1  0  0  0  0  0  0
  185.6740  172.6910  136.9090 C   0  0  0  0  0  3  0  0  0  0  0  0
  188.3380  176.9430  137.5750 C   0  0  2  0  0  3  0  0  0  0  0  0
  186.4150  178.0870  138.8850 C   0  0  0  0  0  0  0  0  0  0  0  0
  183.2170  177.6560  137.0440 C   0  0  0  0  0  1  0  0  0  0  0  0
  189.2730  175.2820  135.7320 C   0  0  2  0  0  3  0  0  0  0  0  0
  184.6060  177.6590  137.5910 C   0  0  0  0  0  0  0  0  0  0  0  0
  189.1510  179.1890  137.9370 F   0  0  0  0  0  0  0  0  0  0  0  0
  190.6610  177.6080  137.4440 F   0  0  0  0  0  0  0  0  0  0  0  0
  189.6860  177.5930  139.4630 O   0  0  0  0  0  1  0  0  0  0  0  0
  189.4720  177.8540  138.1100 C   0  0  0  0  0  0  0  0  0  0  0  0
  186.3140  178.3160  141.3450 C   0  0  0  0  0  1  0  0  0  0  0  0
  187.1530  178.5410  140.1010 C   0  0  0  0  0  2  0  0  0  0  0  0
  190.2140  174.8750  137.9320 O   0  0  0  0  0  1  0  0  0  0  0  0
  189.5270  174.2740  136.8760 C   0  0  2  0  0  3  0  0  0  0  0  0
  190.3300  173.0590  136.3920 C   0  0  1  0  0  3  0  0  0  0  0  0
  189.8520  172.5610  135.0400 C   0  0  0  0  0  1  0  0  0  0  0  0
  191.8040  173.3350  136.3570 C   0  0  0  0  0  3  0  0  0  0  0  0
  192.6020  172.4180  136.2420 O   0  0  0  0  0  0  0  0  0  0  0  0
  1 12  1  6  0  0  0
  1 14  1  0  0  0  0
  2 15  2  0  0  0  0
  3 17  1  0  0  0  0
  3  1  1  0  0  0  0
  3  8  1  1  0  0  0
  6  4  2  0  0  0  0
  7  8  2  0  0  0  0
  7 13  1  0  0  0  0
  8  6  1  0  0  0  0
  9  6  1  1  0  0  0
  9 18  1  0  0  0  0
  9  2  1  0  0  0  0
 10 15  1  0  0  0  0
 10  5  1  0  0  0  0
 11  4  1  0  0  0  0
 13 11  2  0  0  0  0
 14  2  1  0  0  0  0
 14 22  1  6  0  0  0
 15 24  1  0  0  0  0
 16 18  1  0  0  0  0
 17  1  1  0  0  0  0
 17 26  1  1  0  0  0
 18 10  2  0  0  0  0
 19 22  1  0  0  0  0
 20 22  1  0  0  0  0
 22 21  1  0  0  0  0
 24 23  1  0  0  0  0
 26 25  1  1  0  0  0
 27 28  1  6  0  0  0
 27 26  1  0  0  0  0
 29 27  1  0  0  0  0
 30 29  2  0  0  0  0
M  END
>  <MODEL>
9

>  <REMARK>
 VINA RESULT:      -4.4      2.731      6.627
  Name = 
  5 active torsions:
  status: ('A' for Active; 'I' for Inactive)
    1  A    between atoms: C_2  and  C_14
    2  A    between atoms: C_2  and  C_22
    3  A    between atoms: C_11  and  C_25
    4  A    between atoms: C_22  and  C_29
    5  A    between atoms: C_23  and  C_26
                            x       y       z     vdW  Elec       q    Type
                         _______ _______ _______ _____ _____    ______ ____

>  <TORSDO>
F 5

$$$$
