=
 OpenBabel11052415233D

 37 42  0  0  1  0  0  0  0  0999 V2000
  182.3020  178.0750  139.9300 C   0  0  0  0  0  2  0  0  0  0  0  0
  186.4360  178.7200  141.5820 C   0  0  1  0  0  3  0  0  0  0  0  0
  189.7220  177.7930  139.8220 C   0  0  0  0  0  2  0  0  0  0  0  0
  184.5950  178.8300  140.1160 C   0  0  2  0  0  0  0  0  0  0  0  0
  187.2230  177.8740  140.5570 C   0  0  2  0  0  3  0  0  0  0  0  0
  185.4180  179.5420  141.0250 O   0  0  0  0  0  0  0  0  0  0  0  0
  188.7140  177.8810  140.9710 C   0  0  1  0  0  3  0  0  0  0  0  0
  185.3400  178.1240  138.9840 C   0  0  1  0  0  3  0  0  0  0  0  0
  183.8710  179.7940  139.2010 C   0  0  1  0  0  3  0  0  0  0  0  0
  187.1530  177.4280  143.6250 C   0  0  0  0  0  2  0  0  0  0  0  0
  184.6340  179.1670  137.6690 S   0  0  0  0  0  0  0  0  0  0  0  0
  189.6430  176.4730  139.0500 C   0  0  0  0  0  2  0  0  0  0  0  0
  185.9640  177.9170  142.8030 C   0  0  1  0  0  3  0  0  0  0  0  0
  186.8550  178.2930  139.1090 C   0  0  2  0  0  3  0  0  0  0  0  0
  183.5430  177.9610  140.7880 C   0  0  0  0  0  2  0  0  0  0  0  0
  189.0590  176.8280  142.0460 C   0  0  2  0  0  3  0  0  0  0  0  0
  182.3960  179.4270  139.2500 C   0  0  0  0  0  2  0  0  0  0  0  0
  188.2440  176.2200  138.4780 C   0  0  1  0  0  3  0  0  0  0  0  0
  187.5200  177.4840  137.9710 C   0  0  2  0  0  3  0  0  0  0  0  0
  187.8960  176.3110  142.9070 C   0  0  0  0  0  2  0  0  0  0  0  0
  191.2020  176.1810  143.3590 C   0  0  0  0  0  2  0  0  0  0  0  0
  190.2460  177.2310  142.8730 C   0  0  0  0  0  0  0  0  0  0  0  0
  190.4560  178.5080  143.2250 C   0  0  0  0  0  3  0  0  0  0  0  0
  191.4870  180.4950  144.7180 Cl  0  0  0  0  0  0  0  0  0  0  0  0
  191.8160  177.8440  145.2270 C   0  0  0  0  0  2  0  0  0  0  0  0
  191.6480  178.8470  144.0740 C   0  0  1  0  0  3  0  0  0  0  0  0
  191.4840  176.3830  144.8520 C   0  0  0  0  0  2  0  0  0  0  0  0
  185.5070  178.6420  145.1470 C   0  0  0  0  0  1  0  0  0  0  0  0
  185.0810  178.7770  143.6980 C   0  0  0  0  0  2  0  0  0  0  0  0
  187.0220  175.0740  136.5850 C   0  0  0  0  0  1  0  0  0  0  0  0
  188.2120  175.0180  137.5300 C   0  0  1  0  0  3  0  0  0  0  0  0
  190.1540  173.6000  137.2820 O   0  0  0  0  0  1  0  0  0  0  0  0
  189.5260  174.7480  136.7940 C   0  0  0  0  0  2  0  0  0  0  0  0
  188.4300  178.3690  137.1110 C   0  0  0  0  0  2  0  0  0  0  0  0
  188.2510  178.1150  135.6550 C   0  0  0  0  0  0  0  0  0  0  0  0
  187.0050  178.2950  135.0700 O   0  0  0  0  0  1  0  0  0  0  0  0
  189.2220  177.7230  134.9580 O   0  0  0  0  0  0  0  0  0  0  0  0
  1 15  1  0  0  0  0
  2  6  1  6  0  0  0
  2 13  1  0  0  0  0
  3  7  1  0  0  0  0
  4 15  1  1  0  0  0
  4  6  1  0  0  0  0
  5  7  1  0  0  0  0
  5  2  1  0  0  0  0
  7 16  1  0  0  0  0
  8 14  1  0  0  0  0
  8  4  1  0  0  0  0
  9 17  1  0  0  0  0
  9  4  1  0  0  0  0
 11  8  1  0  0  0  0
 11  9  1  0  0  0  0
 12  3  1  0  0  0  0
 13 10  1  0  0  0  0
 13 29  1  0  0  0  0
 14  5  1  0  0  0  0
 16 22  1  0  0  0  0
 16 20  1  0  0  0  0
 17  1  1  0  0  0  0
 18 12  1  0  0  0  0
 19 18  1  0  0  0  0
 19 14  1  0  0  0  0
 20 10  1  0  0  0  0
 21 27  1  0  0  0  0
 22 23  2  0  0  0  0
 22 21  1  0  0  0  0
 23 26  1  0  0  0  0
 26 24  1  0  0  0  0
 26 25  1  0  0  0  0
 27 25  1  0  0  0  0
 29 28  1  0  0  0  0
 30 31  1  0  0  0  0
 31 18  1  0  0  0  0
 33 32  1  0  0  0  0
 33 31  1  0  0  0  0
 34 19  1  0  0  0  0
 35 34  1  0  0  0  0
 36 35  1  0  0  0  0
 37 35  2  0  0  0  0
M  END
>  <MODEL>
1

>  <REMARK>
 VINA RESULT:      -6.3      0.000      0.000
  Name = 
  6 active torsions:
  status: ('A' for Active; 'I' for Inactive)
    1  A    between atoms: C_1  and  C_5
    2  A    between atoms: C_1  and  C_36
    3  A    between atoms: C_6  and  C_31
    4  A    between atoms: C_24  and  C_28
    5  A    between atoms: C_26  and  C_33
    6  A    between atoms: C_26  and  C_34
                            x       y       z     vdW  Elec       q    Type
                         _______ _______ _______ _____ _____    ______ ____

>  <TORSDO>
F 6

$$$$
=
 OpenBabel11052415233D

 37 42  0  0  1  0  0  0  0  0999 V2000
  186.2590  172.1310  136.8000 C   0  0  0  0  0  2  0  0  0  0  0  0
  183.4150  175.6030  137.1150 C   0  0  1  0  0  3  0  0  0  0  0  0
  184.3490  179.1750  138.1760 C   0  0  0  0  0  2  0  0  0  0  0  0
  185.2730  174.3150  136.4500 C   0  0  2  0  0  0  0  0  0  0  0  0
  184.3440  176.5880  137.8590 C   0  0  2  0  0  3  0  0  0  0  0  0
  184.0330  174.8800  136.0570 O   0  0  0  0  0  0  0  0  0  0  0  0
  183.5390  177.8760  138.1570 C   0  0  1  0  0  3  0  0  0  0  0  0
  186.2810  175.3060  137.0320 C   0  0  1  0  0  3  0  0  0  0  0  0
  186.1100  173.9940  135.2310 C   0  0  1  0  0  3  0  0  0  0  0  0
  181.6020  175.5450  138.8660 C   0  0  0  0  0  2  0  0  0  0  0  0
  187.4680  175.1290  135.6620 S   0  0  0  0  0  0  0  0  0  0  0  0
  185.3910  179.2200  139.2970 C   0  0  0  0  0  2  0  0  0  0  0  0
  182.5910  174.7120  138.0550 C   0  0  1  0  0  3  0  0  0  0  0  0
  185.7020  176.7180  137.1210 C   0  0  2  0  0  3  0  0  0  0  0  0
  185.1370  173.0370  137.2620 C   0  0  0  0  0  2  0  0  0  0  0  0
  182.6790  177.7810  139.4360 C   0  0  2  0  0  3  0  0  0  0  0  0
  186.5600  172.5480  135.3730 C   0  0  0  0  0  2  0  0  0  0  0  0
  186.3740  178.0460  139.2210 C   0  0  1  0  0  3  0  0  0  0  0  0
  186.7610  177.6250  137.7890 C   0  0  2  0  0  3  0  0  0  0  0  0
  182.3180  176.3710  139.9250 C   0  0  0  0  0  2  0  0  0  0  0  0
  180.9300  179.1080  138.0500 C   0  0  0  0  0  2  0  0  0  0  0  0
  181.4840  178.6900  139.3820 C   0  0  0  0  0  0  0  0  0  0  0  0
  180.9170  179.1730  140.4970 C   0  0  0  0  0  3  0  0  0  0  0  0
  179.4300  180.8910  141.9370 Cl  0  0  0  0  0  0  0  0  0  0  0  0
  179.9630  181.1510  139.2840 C   0  0  0  0  0  2  0  0  0  0  0  0
  179.7380  180.0960  140.3780 C   0  0  1  0  0  3  0  0  0  0  0  0
  180.7010  180.6240  138.0340 C   0  0  0  0  0  2  0  0  0  0  0  0
  180.5340  174.2890  136.7040 C   0  0  0  0  0  1  0  0  0  0  0  0
  181.8070  173.6770  137.2580 C   0  0  0  0  0  2  0  0  0  0  0  0
  187.0630  178.2450  141.6450 C   0  0  0  0  0  1  0  0  0  0  0  0
  187.5400  178.1990  140.2020 C   0  0  1  0  0  3  0  0  0  0  0  0
  189.9190  177.8490  139.9510 O   0  0  0  0  0  1  0  0  0  0  0  0
  188.6820  177.2030  139.9980 C   0  0  0  0  0  2  0  0  0  0  0  0
  187.1080  178.8290  136.9040 C   0  0  0  0  0  2  0  0  0  0  0  0
  188.5780  179.0410  136.7930 C   0  0  0  0  0  0  0  0  0  0  0  0
  189.3370  178.2130  135.9780 O   0  0  0  0  0  0  0  0  0  0  0  0
  189.1350  179.9590  137.4480 O   0  0  0  0  0  1  0  0  0  0  0  0
  1 15  1  0  0  0  0
  2  6  1  6  0  0  0
  2  5  1  0  0  0  0
  2 13  1  0  0  0  0
  3 12  1  0  0  0  0
  4  8  1  0  0  0  0
  4 15  1  1  0  0  0
  5  7  1  0  0  0  0
  6  4  1  0  0  0  0
  7  3  1  0  0  0  0
  7 16  1  0  0  0  0
  8 14  1  0  0  0  0
  9 17  1  0  0  0  0
  9 11  1  0  0  0  0
  9  4  1  0  0  0  0
 10 20  1  0  0  0  0
 11  8  1  0  0  0  0
 13 10  1  0  0  0  0
 14 19  1  0  0  0  0
 14  5  1  0  0  0  0
 16 20  1  0  0  0  0
 17  1  1  0  0  0  0
 18 12  1  0  0  0  0
 18 31  1  0  0  0  0
 19 18  1  0  0  0  0
 21 22  1  0  0  0  0
 22 16  1  0  0  0  0
 22 23  2  0  0  0  0
 25 26  1  0  0  0  0
 26 23  1  0  0  0  0
 26 24  1  0  0  0  0
 27 21  1  0  0  0  0
 27 25  1  0  0  0  0
 28 29  1  0  0  0  0
 29 13  1  0  0  0  0
 31 30  1  0  0  0  0
 32 33  1  0  0  0  0
 33 31  1  0  0  0  0
 34 19  1  0  0  0  0
 35 34  1  0  0  0  0
 35 37  1  0  0  0  0
 36 35  2  0  0  0  0
M  END
>  <MODEL>
2

>  <REMARK>
 VINA RESULT:      -5.2      3.505      7.414
  Name = 
  6 active torsions:
  status: ('A' for Active; 'I' for Inactive)
    1  A    between atoms: C_1  and  C_5
    2  A    between atoms: C_1  and  C_36
    3  A    between atoms: C_6  and  C_31
    4  A    between atoms: C_24  and  C_28
    5  A    between atoms: C_26  and  C_33
    6  A    between atoms: C_26  and  C_34
                            x       y       z     vdW  Elec       q    Type
                         _______ _______ _______ _____ _____    ______ ____

>  <TORSDO>
F 6

$$$$
=
 OpenBabel11052415233D

 37 42  0  0  1  0  0  0  0  0999 V2000
  188.4520  176.0290  136.4530 C   0  0  0  0  0  2  0  0  0  0  0  0
  185.4200  178.4160  138.7660 C   0  0  1  0  0  3  0  0  0  0  0  0
  185.6070  179.2470  142.5110 C   0  0  0  0  0  2  0  0  0  0  0  0
  187.4900  177.7520  137.8570 C   0  0  2  0  0  0  0  0  0  0  0  0
  185.9270  178.1050  140.1910 C   0  0  2  0  0  3  0  0  0  0  0  0
  186.4400  178.7040  137.8160 O   0  0  0  0  0  0  0  0  0  0  0  0
  184.9690  178.7790  141.2010 C   0  0  1  0  0  3  0  0  0  0  0  0
  188.1300  177.5520  139.2300 C   0  0  1  0  0  3  0  0  0  0  0  0
  188.7390  178.3260  137.2230 C   0  0  1  0  0  3  0  0  0  0  0  0
  183.1020  177.4750  139.0790 C   0  0  0  0  0  2  0  0  0  0  0  0
  189.7470  178.2300  138.7380 S   0  0  0  0  0  0  0  0  0  0  0  0
  186.1570  178.0980  143.3590 C   0  0  0  0  0  2  0  0  0  0  0  0
  184.3830  177.4070  138.2520 C   0  0  1  0  0  3  0  0  0  0  0  0
  187.4470  178.3990  140.3030 C   0  0  2  0  0  3  0  0  0  0  0  0
  187.1700  176.4510  137.1380 C   0  0  0  0  0  2  0  0  0  0  0  0
  183.7100  177.9390  141.5080 C   0  0  2  0  0  3  0  0  0  0  0  0
  189.2210  177.3110  136.1980 C   0  0  0  0  0  2  0  0  0  0  0  0
  187.1910  177.2600  142.5980 C   0  0  1  0  0  3  0  0  0  0  0  0
  188.1100  178.0710  141.6620 C   0  0  2  0  0  3  0  0  0  0  0  0
  183.3100  176.8850  140.4650 C   0  0  0  0  0  2  0  0  0  0  0  0
  182.3670  179.1350  143.3800 C   0  0  0  0  0  2  0  0  0  0  0  0
  182.5490  178.7940  141.9290 C   0  0  0  0  0  0  0  0  0  0  0  0
  181.6410  179.2320  141.0440 C   0  0  0  0  0  3  0  0  0  0  0  0
  179.2470  180.1790  140.2620 Cl  0  0  0  0  0  0  0  0  0  0  0  0
  179.8780  179.4780  142.8130 C   0  0  0  0  0  2  0  0  0  0  0  0
  180.4880  180.0640  141.5290 C   0  0  1  0  0  3  0  0  0  0  0  0
  180.9120  178.8860  143.7950 C   0  0  0  0  0  2  0  0  0  0  0  0
  182.5290  177.7420  136.6150 C   0  0  0  0  0  1  0  0  0  0  0  0
  184.0340  177.6950  136.7980 C   0  0  0  0  0  2  0  0  0  0  0  0
  189.1580  175.6930  142.8530 C   0  0  0  0  0  1  0  0  0  0  0  0
  187.8990  176.2470  143.5020 C   0  0  1  0  0  3  0  0  0  0  0  0
  189.5110  176.7800  145.2230 O   0  0  0  0  0  1  0  0  0  0  0  0
  188.1460  176.7300  144.9320 C   0  0  0  0  0  2  0  0  0  0  0  0
  188.6580  179.3340  142.3380 C   0  0  0  0  0  2  0  0  0  0  0  0
  190.0520  179.1480  142.8300 C   0  0  0  0  0  0  0  0  0  0  0  0
  190.9010  178.2590  142.1870 O   0  0  0  0  0  0  0  0  0  0  0  0
  190.4550  179.7850  143.8370 O   0  0  0  0  0  1  0  0  0  0  0  0
  1 15  1  0  0  0  0
  2  6  1  6  0  0  0
  2  5  1  0  0  0  0
  3 12  1  0  0  0  0
  4 15  1  6  0  0  0
  4  8  1  0  0  0  0
  5 14  1  0  0  0  0
  5  7  1  0  0  0  0
  6  4  1  0  0  0  0
  7 16  1  0  0  0  0
  7  3  1  0  0  0  0
  8 14  1  0  0  0  0
  9  4  1  0  0  0  0
  9 11  1  0  0  0  0
 10 20  1  0  0  0  0
 11  8  1  0  0  0  0
 13  2  1  0  0  0  0
 13 10  1  0  0  0  0
 14 19  1  0  0  0  0
 16 22  1  0  0  0  0
 17  1  1  0  0  0  0
 17  9  1  0  0  0  0
 18 12  1  0  0  0  0
 18 31  1  0  0  0  0
 19 34  1  0  0  0  0
 19 18  1  0  0  0  0
 20 16  1  0  0  0  0
 21 27  1  0  0  0  0
 22 21  1  0  0  0  0
 23 26  1  0  0  0  0
 23 22  2  0  0  0  0
 24 26  1  0  0  0  0
 25 27  1  0  0  0  0
 26 25  1  0  0  0  0
 28 29  1  0  0  0  0
 29 13  1  0  0  0  0
 30 31  1  0  0  0  0
 31 33  1  0  0  0  0
 33 32  1  0  0  0  0
 34 35  1  0  0  0  0
 35 37  1  0  0  0  0
 36 35  2  0  0  0  0
M  END
>  <MODEL>
3

>  <REMARK>
 VINA RESULT:      -5.1      3.363      7.116
  Name = 
  6 active torsions:
  status: ('A' for Active; 'I' for Inactive)
    1  A    between atoms: C_1  and  C_5
    2  A    between atoms: C_1  and  C_36
    3  A    between atoms: C_6  and  C_31
    4  A    between atoms: C_24  and  C_28
    5  A    between atoms: C_26  and  C_33
    6  A    between atoms: C_26  and  C_34
                            x       y       z     vdW  Elec       q    Type
                         _______ _______ _______ _____ _____    ______ ____

>  <TORSDO>
F 6

$$$$
=
 OpenBabel11052415233D

 37 42  0  0  1  0  0  0  0  0999 V2000
  189.6740  175.0860  136.8470 C   0  0  0  0  0  2  0  0  0  0  0  0
  186.4910  178.0180  138.0780 C   0  0  1  0  0  3  0  0  0  0  0  0
  185.9430  179.3710  141.6300 C   0  0  0  0  0  2  0  0  0  0  0  0
  188.6230  177.0670  137.7630 C   0  0  2  0  0  0  0  0  0  0  0  0
  186.6360  177.8800  139.6090 C   0  0  2  0  0  3  0  0  0  0  0  0
  187.7190  178.0820  137.3620 O   0  0  0  0  0  0  0  0  0  0  0  0
  185.5600  178.7680  140.2770 C   0  0  1  0  0  3  0  0  0  0  0  0
  188.9220  177.0200  139.2610 C   0  0  1  0  0  3  0  0  0  0  0  0
  190.0360  177.4420  137.3710 C   0  0  1  0  0  3  0  0  0  0  0  0
  184.0710  177.3190  137.9590 C   0  0  0  0  0  2  0  0  0  0  0  0
  190.6710  177.4890  139.0780 S   0  0  0  0  0  0  0  0  0  0  0  0
  186.1650  178.3190  142.7190 C   0  0  0  0  0  2  0  0  0  0  0  0
  185.4860  177.0290  137.4670 C   0  0  1  0  0  3  0  0  0  0  0  0
  188.1170  178.0670  140.0330 C   0  0  2  0  0  3  0  0  0  0  0  0
  188.3270  175.7040  137.1580 C   0  0  0  0  0  2  0  0  0  0  0  0
  184.1800  178.0840  140.3860 C   0  0  2  0  0  3  0  0  0  0  0  0
  190.6160  176.2520  136.6200 C   0  0  0  0  0  2  0  0  0  0  0  0
  187.2410  177.3000  142.3290 C   0  0  1  0  0  3  0  0  0  0  0  0
  188.4270  177.8900  141.5380 C   0  0  2  0  0  3  0  0  0  0  0  0
  183.9040  176.9230  139.4190 C   0  0  0  0  0  2  0  0  0  0  0  0
  182.1560  179.1460  141.6160 C   0  0  0  0  0  2  0  0  0  0  0  0
  183.0560  179.0800  140.4160 C   0  0  0  0  0  0  0  0  0  0  0  0
  182.8070  179.8920  139.3780 C   0  0  0  0  0  3  0  0  0  0  0  0
  181.3020  181.5140  137.8460 Cl  0  0  0  0  0  0  0  0  0  0  0  0
  180.4020  180.1710  140.0330 C   0  0  0  0  0  2  0  0  0  0  0  0
  181.6540  180.8510  139.4570 C   0  0  1  0  0  3  0  0  0  0  0  0
  180.6900  179.1640  141.1670 C   0  0  0  0  0  2  0  0  0  0  0  0
  184.0810  177.1160  135.4060 C   0  0  0  0  0  1  0  0  0  0  0  0
  185.4980  177.1280  135.9470 C   0  0  0  0  0  2  0  0  0  0  0  0
  188.9140  175.6280  143.2220 C   0  0  0  0  0  1  0  0  0  0  0  0
  187.6190  176.3780  143.4920 C   0  0  1  0  0  3  0  0  0  0  0  0
  188.8970  177.1220  145.4040 O   0  0  0  0  0  1  0  0  0  0  0  0
  187.6100  177.0470  144.8680 C   0  0  0  0  0  2  0  0  0  0  0  0
  188.9500  179.1900  142.1600 C   0  0  0  0  0  2  0  0  0  0  0  0
  190.2410  178.9930  142.8740 C   0  0  0  0  0  0  0  0  0  0  0  0
  190.5550  179.7880  143.9680 O   0  0  0  0  0  1  0  0  0  0  0  0
  191.0540  178.1190  142.4790 O   0  0  0  0  0  0  0  0  0  0  0  0
  1 15  1  0  0  0  0
  2  6  1  6  0  0  0
  2  5  1  0  0  0  0
  3 12  1  0  0  0  0
  4 15  1  6  0  0  0
  4  8  1  0  0  0  0
  5 14  1  0  0  0  0
  5  7  1  0  0  0  0
  6  4  1  0  0  0  0
  7 16  1  0  0  0  0
  7  3  1  0  0  0  0
  8 14  1  0  0  0  0
  9  4  1  0  0  0  0
  9 11  1  0  0  0  0
 10 20  1  0  0  0  0
 11  8  1  0  0  0  0
 13 10  1  0  0  0  0
 13  2  1  0  0  0  0
 14 19  1  0  0  0  0
 16 22  1  0  0  0  0
 17  1  1  0  0  0  0
 17  9  1  0  0  0  0
 18 12  1  0  0  0  0
 18 31  1  0  0  0  0
 19 34  1  0  0  0  0
 19 18  1  0  0  0  0
 20 16  1  0  0  0  0
 22 21  1  0  0  0  0
 23 26  1  0  0  0  0
 23 22  2  0  0  0  0
 24 26  1  0  0  0  0
 25 27  1  0  0  0  0
 26 25  1  0  0  0  0
 27 21  1  0  0  0  0
 28 29  1  0  0  0  0
 29 13  1  0  0  0  0
 30 31  1  0  0  0  0
 31 33  1  0  0  0  0
 33 32  1  0  0  0  0
 34 35  1  0  0  0  0
 35 36  1  0  0  0  0
 37 35  2  0  0  0  0
M  END
>  <MODEL>
4

>  <REMARK>
 VINA RESULT:      -5.0      3.214      7.405
  Name = 
  6 active torsions:
  status: ('A' for Active; 'I' for Inactive)
    1  A    between atoms: C_1  and  C_5
    2  A    between atoms: C_1  and  C_36
    3  A    between atoms: C_6  and  C_31
    4  A    between atoms: C_24  and  C_28
    5  A    between atoms: C_26  and  C_33
    6  A    between atoms: C_26  and  C_34
                            x       y       z     vdW  Elec       q    Type
                         _______ _______ _______ _____ _____    ______ ____

>  <TORSDO>
F 6

$$$$
=
 OpenBabel11052415233D

 37 42  0  0  1  0  0  0  0  0999 V2000
  187.1440  178.6250  135.0500 C   0  0  0  0  0  2  0  0  0  0  0  0
  186.4840  177.4360  139.3380 C   0  0  1  0  0  3  0  0  0  0  0  0
  183.1540  177.6610  141.2390 C   0  0  0  0  0  2  0  0  0  0  0  0
  186.2260  177.5170  136.9980 C   0  0  2  0  0  0  0  0  0  0  0  0
  185.0820  178.0550  139.5310 C   0  0  2  0  0  3  0  0  0  0  0  0
  186.6730  176.7530  138.1050 O   0  0  0  0  0  0  0  0  0  0  0  0
  184.6560  177.8330  141.0010 C   0  0  1  0  0  3  0  0  0  0  0  0
  184.7780  177.9970  137.0840 C   0  0  1  0  0  3  0  0  0  0  0  0
  185.9840  176.6160  135.8050 C   0  0  1  0  0  3  0  0  0  0  0  0
  187.6260  178.7490  141.1620 C   0  0  0  0  0  2  0  0  0  0  0  0
  184.2030  176.9840  135.6840 S   0  0  0  0  0  0  0  0  0  0  0  0
  182.3400  178.9100  140.8880 C   0  0  0  0  0  2  0  0  0  0  0  0
  187.6300  178.4010  139.6770 C   0  0  1  0  0  3  0  0  0  0  0  0
  184.1230  177.5890  138.4040 C   0  0  2  0  0  3  0  0  0  0  0  0
  187.2010  178.5990  136.5620 C   0  0  0  0  0  2  0  0  0  0  0  0
  185.2160  178.8970  141.9710 C   0  0  2  0  0  3  0  0  0  0  0  0
  186.7340  177.2260  134.6310 C   0  0  0  0  0  2  0  0  0  0  0  0
  182.5470  179.3450  139.4330 C   0  0  1  0  0  3  0  0  0  0  0  0
  182.6950  178.1830  138.4300 C   0  0  2  0  0  3  0  0  0  0  0  0
  186.4630  179.6660  141.5090 C   0  0  0  0  0  2  0  0  0  0  0  0
  184.1910  178.4470  144.3130 C   0  0  0  0  0  2  0  0  0  0  0  0
  185.3570  178.3690  143.3700 C   0  0  0  0  0  0  0  0  0  0  0  0
  186.5150  177.8610  143.8170 C   0  0  0  0  0  3  0  0  0  0  0  0
  188.3020  177.1230  145.6880 Cl  0  0  0  0  0  0  0  0  0  0  0  0
  185.9340  178.3550  146.2070 C   0  0  0  0  0  2  0  0  0  0  0  0
  186.6020  177.3710  145.2340 C   0  0  1  0  0  3  0  0  0  0  0  0
  184.6480  179.0150  145.6610 C   0  0  0  0  0  2  0  0  0  0  0  0
  189.6970  177.3450  140.5950 C   0  0  0  0  0  1  0  0  0  0  0  0
  188.9740  177.7730  139.3330 C   0  0  0  0  0  2  0  0  0  0  0  0
  181.5040  180.6020  137.5030 C   0  0  0  0  0  1  0  0  0  0  0  0
  181.5800  180.4570  139.0150 C   0  0  1  0  0  3  0  0  0  0  0  0
  179.7760  181.6290  140.1180 O   0  0  0  0  0  1  0  0  0  0  0  0
  180.1960  180.3780  139.6630 C   0  0  0  0  0  2  0  0  0  0  0  0
  181.6370  177.0930  138.6450 C   0  0  0  0  0  2  0  0  0  0  0  0
  181.0300  176.6380  137.3630 C   0  0  0  0  0  0  0  0  0  0  0  0
  181.1400  175.3080  136.9800 O   0  0  0  0  0  1  0  0  0  0  0  0
  180.4310  177.4590  136.6220 O   0  0  0  0  0  0  0  0  0  0  0  0
  1 15  1  0  0  0  0
  2  6  1  6  0  0  0
  2  5  1  0  0  0  0
  2 13  1  0  0  0  0
  4 15  1  6  0  0  0
  4  8  1  0  0  0  0
  4  6  1  0  0  0  0
  5  7  1  0  0  0  0
  7  3  1  0  0  0  0
  7 16  1  0  0  0  0
  8 14  1  0  0  0  0
  9  4  1  0  0  0  0
 10 20  1  0  0  0  0
 11  9  1  0  0  0  0
 11  8  1  0  0  0  0
 12  3  1  0  0  0  0
 13 10  1  0  0  0  0
 14 19  1  0  0  0  0
 14  5  1  0  0  0  0
 16 22  1  0  0  0  0
 17  1  1  0  0  0  0
 17  9  1  0  0  0  0
 18 12  1  0  0  0  0
 19 34  1  0  0  0  0
 19 18  1  0  0  0  0
 20 16  1  0  0  0  0
 21 27  1  0  0  0  0
 22 23  2  0  0  0  0
 22 21  1  0  0  0  0
 23 26  1  0  0  0  0
 26 24  1  0  0  0  0
 26 25  1  0  0  0  0
 27 25  1  0  0  0  0
 29 13  1  0  0  0  0
 29 28  1  0  0  0  0
 30 31  1  0  0  0  0
 31 18  1  0  0  0  0
 31 33  1  0  0  0  0
 33 32  1  0  0  0  0
 35 34  1  0  0  0  0
 36 35  1  0  0  0  0
 37 35  2  0  0  0  0
M  END
>  <MODEL>
5

>  <REMARK>
 VINA RESULT:      -4.9      2.639      6.272
  Name = 
  6 active torsions:
  status: ('A' for Active; 'I' for Inactive)
    1  A    between atoms: C_1  and  C_5
    2  A    between atoms: C_1  and  C_36
    3  A    between atoms: C_6  and  C_31
    4  A    between atoms: C_24  and  C_28
    5  A    between atoms: C_26  and  C_33
    6  A    between atoms: C_26  and  C_34
                            x       y       z     vdW  Elec       q    Type
                         _______ _______ _______ _____ _____    ______ ____

>  <TORSDO>
F 6

$$$$
=
 OpenBabel11052415233D

 37 42  0  0  1  0  0  0  0  0999 V2000
  187.8220  179.0470  148.8210 C   0  0  0  0  0  2  0  0  0  0  0  0
  186.0880  177.7440  144.8790 C   0  0  1  0  0  3  0  0  0  0  0  0
  188.1020  176.7520  141.7630 C   0  0  0  0  0  2  0  0  0  0  0  0
  187.3600  177.7000  146.8620 C   0  0  2  0  0  0  0  0  0  0  0  0
  187.3780  177.8080  144.0330 C   0  0  2  0  0  3  0  0  0  0  0  0
  186.2450  177.1650  146.1690 O   0  0  0  0  0  0  0  0  0  0  0  0
  187.0120  177.4600  142.5710 C   0  0  1  0  0  3  0  0  0  0  0  0
  188.6890  177.6160  146.1130 C   0  0  1  0  0  3  0  0  0  0  0  0
  187.7870  176.7600  147.9700 C   0  0  1  0  0  3  0  0  0  0  0  0
  184.7710  179.4040  143.5130 C   0  0  0  0  0  2  0  0  0  0  0  0
  189.4470  176.4480  147.2870 S   0  0  0  0  0  0  0  0  0  0  0  0
  189.3510  177.6120  141.5520 C   0  0  0  0  0  2  0  0  0  0  0  0
  185.3060  179.0650  144.9020 C   0  0  1  0  0  3  0  0  0  0  0  0
  188.5180  177.0100  144.7200 C   0  0  2  0  0  3  0  0  0  0  0  0
  187.1000  179.0590  147.4910 C   0  0  0  0  0  2  0  0  0  0  0  0
  186.4730  178.6660  141.7690 C   0  0  2  0  0  3  0  0  0  0  0  0
  187.8810  177.5910  149.2410 C   0  0  0  0  0  2  0  0  0  0  0  0
  189.9650  178.0770  142.8770 C   0  0  1  0  0  3  0  0  0  0  0  0
  189.8950  177.0390  144.0160 C   0  0  2  0  0  3  0  0  0  0  0  0
  185.8940  179.8340  142.5810 C   0  0  0  0  0  2  0  0  0  0  0  0
  186.0700  178.2530  139.2390 C   0  0  0  0  0  2  0  0  0  0  0  0
  185.5640  178.2410  140.6520 C   0  0  0  0  0  0  0  0  0  0  0  0
  184.2900  177.8860  140.8780 C   0  0  0  0  0  3  0  0  0  0  0  0
  181.7180  177.4550  140.2180 Cl  0  0  0  0  0  0  0  0  0  0  0  0
  183.6020  178.4590  138.5340 C   0  0  0  0  0  2  0  0  0  0  0  0
  183.4220  177.4940  139.7170 C   0  0  1  0  0  3  0  0  0  0  0  0
  185.0520  178.9460  138.3260 C   0  0  0  0  0  2  0  0  0  0  0  0
  182.8210  178.9170  145.0920 C   0  0  0  0  0  1  0  0  0  0  0  0
  184.1270  178.9710  145.8620 C   0  0  0  0  0  2  0  0  0  0  0  0
  191.8350  179.3790  143.9710 C   0  0  0  0  0  1  0  0  0  0  0  0
  191.3260  178.7520  142.6830 C   0  0  1  0  0  3  0  0  0  0  0  0
  192.2260  177.8780  140.6160 O   0  0  0  0  0  1  0  0  0  0  0  0
  192.3820  177.8780  142.0040 C   0  0  0  0  0  2  0  0  0  0  0  0
  190.3190  175.6400  143.5530 C   0  0  0  0  0  2  0  0  0  0  0  0
  191.5130  175.1400  144.2890 C   0  0  0  0  0  0  0  0  0  0  0  0
  192.0560  175.8950  145.3200 O   0  0  0  0  0  1  0  0  0  0  0  0
  192.0390  174.0430  143.9680 O   0  0  0  0  0  0  0  0  0  0  0  0
  1 17  1  0  0  0  0
  2 13  1  0  0  0  0
  2  6  1  1  0  0  0
  3  7  1  0  0  0  0
  4 15  1  1  0  0  0
  4  9  1  0  0  0  0
  5 14  1  0  0  0  0
  5  2  1  0  0  0  0
  6  4  1  0  0  0  0
  7  5  1  0  0  0  0
  8  4  1  0  0  0  0
  8 11  1  0  0  0  0
  9 17  1  0  0  0  0
 10 13  1  0  0  0  0
 11  9  1  0  0  0  0
 12  3  1  0  0  0  0
 12 18  1  0  0  0  0
 13 29  1  0  0  0  0
 14  8  1  0  0  0  0
 15  1  1  0  0  0  0
 16  7  1  0  0  0  0
 16 20  1  0  0  0  0
 18 19  1  0  0  0  0
 19 14  1  0  0  0  0
 20 10  1  0  0  0  0
 21 22  1  0  0  0  0
 22 23  2  0  0  0  0
 22 16  1  0  0  0  0
 25 26  1  0  0  0  0
 26 24  1  0  0  0  0
 26 23  1  0  0  0  0
 27 25  1  0  0  0  0
 27 21  1  0  0  0  0
 28 29  1  0  0  0  0
 31 18  1  0  0  0  0
 31 30  1  0  0  0  0
 32 33  1  0  0  0  0
 33 31  1  0  0  0  0
 34 19  1  0  0  0  0
 34 35  1  0  0  0  0
 35 36  1  0  0  0  0
 37 35  2  0  0  0  0
M  END
>  <MODEL>
6

>  <REMARK>
 VINA RESULT:      -4.6      3.891      7.403
  Name = 
  6 active torsions:
  status: ('A' for Active; 'I' for Inactive)
    1  A    between atoms: C_1  and  C_5
    2  A    between atoms: C_1  and  C_36
    3  A    between atoms: C_6  and  C_31
    4  A    between atoms: C_24  and  C_28
    5  A    between atoms: C_26  and  C_33
    6  A    between atoms: C_26  and  C_34
                            x       y       z     vdW  Elec       q    Type
                         _______ _______ _______ _____ _____    ______ ____

>  <TORSDO>
F 6

$$$$
=
 OpenBabel11052415233D

 37 42  0  0  1  0  0  0  0  0999 V2000
  189.2190  176.4260  137.8990 C   0  0  0  0  0  2  0  0  0  0  0  0
  185.4440  174.9890  135.9180 C   0  0  1  0  0  3  0  0  0  0  0  0
  181.8750  176.0570  136.8560 C   0  0  0  0  0  2  0  0  0  0  0  0
  187.0970  176.4570  136.7310 C   0  0  2  0  0  0  0  0  0  0  0  0
  184.4270  175.5390  136.9430 C   0  0  2  0  0  3  0  0  0  0  0  0
  186.4990  175.8820  135.5820 O   0  0  0  0  0  0  0  0  0  0  0  0
  183.0120  175.0950  136.5040 C   0  0  1  0  0  3  0  0  0  0  0  0
  186.1300  177.1640  137.6800 C   0  0  1  0  0  3  0  0  0  0  0  0
  187.8420  177.7210  136.3560 C   0  0  1  0  0  3  0  0  0  0  0  0
  184.7890  172.5650  136.1440 C   0  0  0  0  0  2  0  0  0  0  0  0
  186.8230  178.8230  137.3890 S   0  0  0  0  0  0  0  0  0  0  0  0
  181.6700  176.2230  138.3640 C   0  0  0  0  0  2  0  0  0  0  0  0
  185.9330  173.5700  136.2430 C   0  0  1  0  0  3  0  0  0  0  0  0
  184.6820  177.0470  137.2050 C   0  0  2  0  0  3  0  0  0  0  0  0
  188.0820  175.5390  137.4380 C   0  0  0  0  0  2  0  0  0  0  0  0
  182.6460  173.6670  136.9650 C   0  0  2  0  0  3  0  0  0  0  0  0
  189.2430  177.5950  136.9330 C   0  0  0  0  0  2  0  0  0  0  0  0
  182.9410  176.7080  139.0710 C   0  0  1  0  0  3  0  0  0  0  0  0
  183.7780  177.7210  138.2640 C   0  0  2  0  0  3  0  0  0  0  0  0
  183.8130  172.7270  137.2990 C   0  0  0  0  0  2  0  0  0  0  0  0
  181.2830  173.6780  134.7550 C   0  0  0  0  0  2  0  0  0  0  0  0
  181.6350  173.0230  136.0600 C   0  0  0  0  0  0  0  0  0  0  0  0
  181.0040  171.8900  136.4040 C   0  0  0  0  0  3  0  0  0  0  0  0
  179.0320  170.0630  136.3060 Cl  0  0  0  0  0  0  0  0  0  0  0  0
  179.0560  172.3930  134.9040 C   0  0  0  0  0  2  0  0  0  0  0  0
  179.9850  171.3060  135.4670 C   0  0  1  0  0  3  0  0  0  0  0  0
  179.7590  173.7320  134.5940 C   0  0  0  0  0  2  0  0  0  0  0  0
  186.8680  171.6910  134.8920 C   0  0  0  0  0  1  0  0  0  0  0  0
  187.0300  173.1500  135.2740 C   0  0  0  0  0  2  0  0  0  0  0  0
  183.8280  177.9010  141.1160 C   0  0  0  0  0  1  0  0  0  0  0  0
  182.6870  177.0800  140.5340 C   0  0  1  0  0  3  0  0  0  0  0  0
  181.4130  178.7420  141.7420 O   0  0  0  0  0  1  0  0  0  0  0  0
  181.3200  177.7100  140.8060 C   0  0  0  0  0  2  0  0  0  0  0  0
  182.9120  178.8240  137.6420 C   0  0  0  0  0  2  0  0  0  0  0  0
  182.9310  180.0760  138.4490 C   0  0  0  0  0  0  0  0  0  0  0  0
  184.1380  180.6990  138.7310 O   0  0  0  0  0  0  0  0  0  0  0  0
  181.8560  180.5610  138.8870 O   0  0  0  0  0  1  0  0  0  0  0  0
  2  6  1  1  0  0  0
  2 13  1  0  0  0  0
  2  5  1  0  0  0  0
  3 12  1  0  0  0  0
  4 15  1  1  0  0  0
  4  8  1  0  0  0  0
  5 14  1  0  0  0  0
  6  4  1  0  0  0  0
  7  3  1  0  0  0  0
  7  5  1  0  0  0  0
  7 16  1  0  0  0  0
  9  4  1  0  0  0  0
  9 17  1  0  0  0  0
  9 11  1  0  0  0  0
 10 13  1  0  0  0  0
 10 20  1  0  0  0  0
 11  8  1  0  0  0  0
 12 18  1  0  0  0  0
 14  8  1  0  0  0  0
 14 19  1  0  0  0  0
 15  1  1  0  0  0  0
 16 20  1  0  0  0  0
 17  1  1  0  0  0  0
 18 31  1  0  0  0  0
 19 18  1  0  0  0  0
 21 22  1  0  0  0  0
 22 23  2  0  0  0  0
 22 16  1  0  0  0  0
 25 26  1  0  0  0  0
 26 24  1  0  0  0  0
 26 23  1  0  0  0  0
 27 21  1  0  0  0  0
 27 25  1  0  0  0  0
 28 29  1  0  0  0  0
 29 13  1  0  0  0  0
 31 33  1  0  0  0  0
 31 30  1  0  0  0  0
 33 32  1  0  0  0  0
 34 19  1  0  0  0  0
 34 35  1  0  0  0  0
 35 36  2  0  0  0  0
 35 37  1  0  0  0  0
M  END
>  <MODEL>
7

>  <REMARK>
 VINA RESULT:      -4.4      4.765      9.362
  Name = 
  6 active torsions:
  status: ('A' for Active; 'I' for Inactive)
    1  A    between atoms: C_1  and  C_5
    2  A    between atoms: C_1  and  C_36
    3  A    between atoms: C_6  and  C_31
    4  A    between atoms: C_24  and  C_28
    5  A    between atoms: C_26  and  C_33
    6  A    between atoms: C_26  and  C_34
                            x       y       z     vdW  Elec       q    Type
                         _______ _______ _______ _____ _____    ______ ____

>  <TORSDO>
F 6

$$$$
=
 OpenBabel11052415233D

 37 42  0  0  1  0  0  0  0  0999 V2000
  181.6720  179.6140  139.0020 C   0  0  0  0  0  2  0  0  0  0  0  0
  182.9010  175.3970  138.0300 C   0  0  1  0  0  3  0  0  0  0  0  0
  186.3050  174.3250  136.6110 C   0  0  0  0  0  2  0  0  0  0  0  0
  182.9310  177.5450  138.9970 C   0  0  2  0  0  0  0  0  0  0  0  0
  184.1930  175.7130  137.2460 C   0  0  2  0  0  3  0  0  0  0  0  0
  182.7170  176.1610  139.2160 O   0  0  0  0  0  0  0  0  0  0  0  0
  184.7800  174.3790  136.7270 C   0  0  1  0  0  3  0  0  0  0  0  0
  184.2820  177.9020  138.3790 C   0  0  1  0  0  3  0  0  0  0  0  0
  183.2100  178.2450  140.3100 C   0  0  1  0  0  3  0  0  0  0  0  0
  181.7260  174.1790  136.1610 C   0  0  0  0  0  2  0  0  0  0  0  0
  184.8870  178.7880  139.8500 S   0  0  0  0  0  0  0  0  0  0  0  0
  186.8670  175.3080  135.5800 C   0  0  0  0  0  2  0  0  0  0  0  0
  181.6460  175.3420  137.1460 C   0  0  1  0  0  3  0  0  0  0  0  0
  185.1110  176.6550  138.0690 C   0  0  2  0  0  3  0  0  0  0  0  0
  181.7550  178.2540  138.3430 C   0  0  0  0  0  2  0  0  0  0  0  0
  184.1410  173.9000  135.4050 C   0  0  2  0  0  3  0  0  0  0  0  0
  182.2670  179.4360  140.3850 C   0  0  0  0  0  2  0  0  0  0  0  0
  186.4620  176.7550  135.8800 C   0  0  1  0  0  3  0  0  0  0  0  0
  186.4180  177.1120  137.3790 C   0  0  2  0  0  3  0  0  0  0  0  0
  182.7490  174.4530  135.0690 C   0  0  0  0  0  2  0  0  0  0  0  0
  182.9810  171.5780  135.4600 C   0  0  0  0  0  2  0  0  0  0  0  0
  184.2150  172.4070  135.2500 C   0  0  0  0  0  0  0  0  0  0  0  0
  185.3690  171.7860  134.9650 C   0  0  0  0  0  3  0  0  0  0  0  0
  187.0600  169.6960  134.8590 Cl  0  0  0  0  0  0  0  0  0  0  0  0
  184.5840  169.6300  135.9800 C   0  0  0  0  0  2  0  0  0  0  0  0
  185.3850  170.2890  134.8460 C   0  0  1  0  0  3  0  0  0  0  0  0
  183.3000  170.3920  136.3770 C   0  0  0  0  0  2  0  0  0  0  0  0
  180.1710  173.6970  138.3070 C   0  0  0  0  0  1  0  0  0  0  0  0
  180.3980  175.1650  138.0010 C   0  0  0  0  0  2  0  0  0  0  0  0
  187.1250  179.1720  135.5470 C   0  0  0  0  0  1  0  0  0  0  0  0
  187.1910  177.7610  134.9840 C   0  0  1  0  0  3  0  0  0  0  0  0
  189.5550  177.8970  135.4740 O   0  0  0  0  0  1  0  0  0  0  0  0
  188.6140  177.3560  134.5950 C   0  0  0  0  0  2  0  0  0  0  0  0
  187.6550  176.6090  138.1320 C   0  0  0  0  0  2  0  0  0  0  0  0
  188.2790  177.6730  138.9660 C   0  0  0  0  0  0  0  0  0  0  0  0
  188.6960  177.3840  140.2590 O   0  0  0  0  0  1  0  0  0  0  0  0
  188.4150  178.8360  138.5070 O   0  0  0  0  0  0  0  0  0  0  0  0
  1 17  1  0  0  0  0
  2  6  1  1  0  0  0
  3  7  1  0  0  0  0
  4 15  1  6  0  0  0
  4  6  1  0  0  0  0
  4  9  1  0  0  0  0
  5  2  1  0  0  0  0
  5 14  1  0  0  0  0
  7  5  1  0  0  0  0
  8  4  1  0  0  0  0
  8 11  1  0  0  0  0
  9 17  1  0  0  0  0
 10 13  1  0  0  0  0
 11  9  1  0  0  0  0
 12 18  1  0  0  0  0
 12  3  1  0  0  0  0
 13 29  1  0  0  0  0
 13  2  1  0  0  0  0
 14  8  1  0  0  0  0
 15  1  1  0  0  0  0
 16  7  1  0  0  0  0
 18 19  1  0  0  0  0
 19 14  1  0  0  0  0
 19 34  1  0  0  0  0
 20 16  1  0  0  0  0
 20 10  1  0  0  0  0
 21 27  1  0  0  0  0
 22 16  1  0  0  0  0
 22 21  1  0  0  0  0
 23 22  2  0  0  0  0
 25 27  1  0  0  0  0
 26 24  1  0  0  0  0
 26 23  1  0  0  0  0
 26 25  1  0  0  0  0
 29 28  1  0  0  0  0
 31 30  1  0  0  0  0
 31 18  1  0  0  0  0
 33 31  1  0  0  0  0
 33 32  1  0  0  0  0
 34 35  1  0  0  0  0
 35 36  1  0  0  0  0
 37 35  2  0  0  0  0
M  END
>  <MODEL>
8

>  <REMARK>
 VINA RESULT:      -3.7      4.226      7.478
  Name = 
  6 active torsions:
  status: ('A' for Active; 'I' for Inactive)
    1  A    between atoms: C_1  and  C_5
    2  A    between atoms: C_1  and  C_36
    3  A    between atoms: C_6  and  C_31
    4  A    between atoms: C_24  and  C_28
    5  A    between atoms: C_26  and  C_33
    6  A    between atoms: C_26  and  C_34
                            x       y       z     vdW  Elec       q    Type
                         _______ _______ _______ _____ _____    ______ ____

>  <TORSDO>
F 6

$$$$
