=
 OpenBabel11052412543D

 25 28  0  0  1  0  0  0  0  0999 V2000
  188.0700  177.9340  143.3360 C   0  0  0  0  0  0  0  0  0  0  0  0
  187.7210  178.3530  141.9300 C   0  0  0  0  0  0  0  0  0  0  0  0
  185.6200  177.4070  143.6270 C   0  0  0  0  0  2  0  0  0  0  0  0
  189.3790  178.0260  143.8990 C   0  0  0  0  0  0  0  0  0  0  0  0
  188.4970  177.3900  139.7910 C   0  0  1  0  0  3  0  0  0  0  0  0
  185.3910  178.6030  142.7110 C   0  0  0  0  0  2  0  0  0  0  0  0
  189.5800  177.6050  145.2270 C   0  0  0  0  0  3  0  0  0  0  0  0
  188.5370  177.0970  145.9940 C   0  0  0  0  0  3  0  0  0  0  0  0
  185.9290  179.0170  140.2650 C   0  0  0  0  0  0  0  0  0  0  0  0
  184.9190  179.7650  140.1960 O   0  0  0  0  0  0  0  0  0  0  0  0
  188.7910  178.3860  140.8870 C   0  0  0  0  0  2  0  0  0  0  0  0
  187.0160  177.4600  144.1560 C   0  0  0  0  0  0  0  0  0  0  0  0
  187.2550  177.0290  145.4590 C   0  0  0  0  0  3  0  0  0  0  0  0
  186.4220  178.4520  139.0400 N   0  0  0  0  0  2  0  0  0  0  0  0
  187.8040  178.1530  138.6920 C   0  0  0  0  0  2  0  0  0  0  0  0
  186.4270  178.6330  141.6170 C   0  0  0  0  0  0  0  0  0  0  0  0
  191.0250  175.3210  137.7970 N   0  0  0  0  0  0  0  0  0  0  0  0
  191.0760  174.3430  136.7230 C   0  0  0  0  0  1  0  0  0  0  0  0
  192.2680  175.7070  138.4430 C   0  0  0  0  0  1  0  0  0  0  0  0
  189.7420  176.8410  139.2810 N   0  0  0  0  0  2  0  0  0  0  0  0
  188.7040  175.5400  137.6480 O   0  0  0  0  0  0  0  0  0  0  0  0
  189.7760  175.8850  138.2170 C   0  0  0  0  0  0  0  0  0  0  0  0
  191.8400  178.2980  143.8120 C   0  0  0  0  0  2  0  0  0  0  0  0
  191.3000  179.6990  143.9730 C   0  0  0  0  0  2  0  0  0  0  0  0
  190.5240  178.6740  143.1530 C   0  0  0  0  0  3  0  0  0  0  0  0
  1  4  2  0  0  0  0
  1 12  1  0  0  0  0
  2  1  1  0  0  0  0
  3 12  1  0  0  0  0
  4  7  1  0  0  0  0
  5 20  1  6  0  0  0
  5 11  1  0  0  0  0
  6  3  1  0  0  0  0
  7  8  2  0  0  0  0
  9 16  1  0  0  0  0
 10  9  2  0  0  0  0
 11  2  1  0  0  0  0
 12 13  2  0  0  0  0
 13  8  1  0  0  0  0
 14  9  1  0  0  0  0
 15 14  1  0  0  0  0
 15  5  1  0  0  0  0
 16  2  2  0  0  0  0
 16  6  1  0  0  0  0
 17 22  1  0  0  0  0
 17 19  1  0  0  0  0
 18 17  1  0  0  0  0
 21 22  2  0  0  0  0
 22 20  1  0  0  0  0
 23 24  1  0  0  0  0
 25 23  1  0  0  0  0
 25  4  1  0  0  0  0
 25 24  1  0  0  0  0
M  END
>  <MODEL>
1

>  <REMARK>
 VINA RESULT:      -8.0      0.000      0.000
  Name = 
  2 active torsions:
  status: ('A' for Active; 'I' for Inactive)
    1  A    between atoms: C_5  and  C_22
    2  A    between atoms: C_6  and  N_15
                            x       y       z     vdW  Elec       q    Type
                         _______ _______ _______ _____ _____    ______ ____

>  <TORSDO>
F 2

$$$$
=
 OpenBabel11052412543D

 25 28  0  0  1  0  0  0  0  0999 V2000
  187.3520  177.6770  142.4100 C   0  0  0  0  0  0  0  0  0  0  0  0
  185.9990  178.3410  142.4440 C   0  0  0  0  0  0  0  0  0  0  0  0
  186.8330  176.8340  144.7290 C   0  0  0  0  0  2  0  0  0  0  0  0
  188.2750  177.7930  141.3260 C   0  0  0  0  0  0  0  0  0  0  0  0
  184.0400  177.9390  140.9920 C   0  0  1  0  0  3  0  0  0  0  0  0
  186.1080  178.1620  144.9060 C   0  0  0  0  0  2  0  0  0  0  0  0
  189.5120  177.1280  141.4100 C   0  0  0  0  0  3  0  0  0  0  0  0
  189.8480  176.3580  142.5190 C   0  0  0  0  0  3  0  0  0  0  0  0
  184.0280  179.1370  143.8260 C   0  0  0  0  0  0  0  0  0  0  0  0
  183.8010  179.7670  144.8930 O   0  0  0  0  0  0  0  0  0  0  0  0
  185.3280  178.7100  141.1610 C   0  0  0  0  0  2  0  0  0  0  0  0
  187.7410  176.9280  143.5480 C   0  0  0  0  0  0  0  0  0  0  0  0
  188.9640  176.2620  143.5880 C   0  0  0  0  0  3  0  0  0  0  0  0
  182.9180  178.9000  142.9460 N   0  0  0  0  0  2  0  0  0  0  0  0
  182.9360  178.8350  141.4910 C   0  0  0  0  0  2  0  0  0  0  0  0
  185.3790  178.5350  143.6400 C   0  0  0  0  0  0  0  0  0  0  0  0
  182.8720  176.2810  137.7460 N   0  0  0  0  0  0  0  0  0  0  0  0
  182.0440  175.1790  137.2840 C   0  0  0  0  0  1  0  0  0  0  0  0
  183.5790  177.0800  136.7590 C   0  0  0  0  0  1  0  0  0  0  0  0
  183.8240  177.6510  139.5840 N   0  0  0  0  0  2  0  0  0  0  0  0
  182.3800  175.8660  139.9920 O   0  0  0  0  0  0  0  0  0  0  0  0
  182.9990  176.5680  139.1450 C   0  0  0  0  0  0  0  0  0  0  0  0
  187.8380  177.8750  138.8880 C   0  0  0  0  0  2  0  0  0  0  0  0
  189.1020  178.6790  139.0840 C   0  0  0  0  0  2  0  0  0  0  0  0
  188.0100  178.7060  140.1480 C   0  0  0  0  0  3  0  0  0  0  0  0
  1  2  1  0  0  0  0
  1 12  1  0  0  0  0
  2 16  2  0  0  0  0
  3  6  1  0  0  0  0
  4  7  1  0  0  0  0
  4  1  2  0  0  0  0
  5 20  1  6  0  0  0
  5 11  1  0  0  0  0
  5 15  1  0  0  0  0
  7  8  2  0  0  0  0
  8 13  1  0  0  0  0
  9 10  2  0  0  0  0
 11  2  1  0  0  0  0
 12 13  2  0  0  0  0
 12  3  1  0  0  0  0
 14  9  1  0  0  0  0
 15 14  1  0  0  0  0
 16  9  1  0  0  0  0
 16  6  1  0  0  0  0
 17 22  1  0  0  0  0
 18 17  1  0  0  0  0
 19 17  1  0  0  0  0
 22 20  1  0  0  0  0
 22 21  2  0  0  0  0
 23 24  1  0  0  0  0
 23 25  1  0  0  0  0
 24 25  1  0  0  0  0
 25  4  1  0  0  0  0
M  END
>  <MODEL>
2

>  <REMARK>
 VINA RESULT:      -7.6      3.342      5.064
  Name = 
  2 active torsions:
  status: ('A' for Active; 'I' for Inactive)
    1  A    between atoms: C_5  and  C_22
    2  A    between atoms: C_6  and  N_15
                            x       y       z     vdW  Elec       q    Type
                         _______ _______ _______ _____ _____    ______ ____

>  <TORSDO>
F 2

$$$$
=
 OpenBabel11052412543D

 25 28  0  0  1  0  0  0  0  0999 V2000
  189.2780  177.5460  145.8080 C   0  0  0  0  0  0  0  0  0  0  0  0
  187.9710  178.1190  145.3220 C   0  0  0  0  0  0  0  0  0  0  0  0
  187.9290  176.3640  147.5810 C   0  0  0  0  0  2  0  0  0  0  0  0
  190.5510  177.8620  145.2440 C   0  0  0  0  0  0  0  0  0  0  0  0
  186.8610  177.8090  143.1360 C   0  0  1  0  0  3  0  0  0  0  0  0
  187.0560  177.6110  147.5600 C   0  0  0  0  0  2  0  0  0  0  0  0
  191.7040  177.2640  145.7860 C   0  0  0  0  0  3  0  0  0  0  0  0
  191.6260  176.3700  146.8490 C   0  0  0  0  0  3  0  0  0  0  0  0
  185.5270  178.6040  145.7920 C   0  0  0  0  0  0  0  0  0  0  0  0
  184.8050  179.0680  146.7140 O   0  0  0  0  0  0  0  0  0  0  0  0
  187.8650  178.6220  143.9190 C   0  0  0  0  0  2  0  0  0  0  0  0
  189.2330  176.6720  146.9210 C   0  0  0  0  0  0  0  0  0  0  0  0
  190.3920  176.0780  147.4180 C   0  0  0  0  0  3  0  0  0  0  0  0
  184.9240  178.4260  144.5010 N   0  0  0  0  0  2  0  0  0  0  0  0
  185.5580  178.5620  143.1970 C   0  0  0  0  0  2  0  0  0  0  0  0
  186.8890  178.1120  146.1470 C   0  0  0  0  0  0  0  0  0  0  0  0
  188.9510  177.1030  140.0080 N   0  0  0  0  0  0  0  0  0  0  0  0
  190.2240  176.5210  139.6170 C   0  0  0  0  0  1  0  0  0  0  0  0
  188.1050  177.6790  138.9750 C   0  0  0  0  0  1  0  0  0  0  0  0
  187.2890  177.7040  141.7510 N   0  0  0  0  0  2  0  0  0  0  0  0
  189.2870  176.6170  142.2680 O   0  0  0  0  0  0  0  0  0  0  0  0
  188.5420  177.1200  141.3820 C   0  0  0  0  0  0  0  0  0  0  0  0
  191.8870  178.5570  143.2760 C   0  0  0  0  0  2  0  0  0  0  0  0
  192.0060  179.7040  144.2510 C   0  0  0  0  0  2  0  0  0  0  0  0
  190.7070  178.9110  144.1640 C   0  0  0  0  0  3  0  0  0  0  0  0
  1 12  1  0  0  0  0
  2  1  1  0  0  0  0
  2 16  2  0  0  0  0
  4  7  1  0  0  0  0
  4  1  2  0  0  0  0
  5 20  1  6  0  0  0
  5 15  1  0  0  0  0
  5 11  1  0  0  0  0
  6  3  1  0  0  0  0
  7  8  2  0  0  0  0
  8 13  1  0  0  0  0
  9 16  1  0  0  0  0
  9 10  2  0  0  0  0
 11  2  1  0  0  0  0
 12 13  2  0  0  0  0
 12  3  1  0  0  0  0
 14  9  1  0  0  0  0
 15 14  1  0  0  0  0
 16  6  1  0  0  0  0
 17 22  1  0  0  0  0
 18 17  1  0  0  0  0
 19 17  1  0  0  0  0
 22 20  1  0  0  0  0
 22 21  2  0  0  0  0
 23 25  1  0  0  0  0
 23 24  1  0  0  0  0
 25 24  1  0  0  0  0
 25  4  1  0  0  0  0
M  END
>  <MODEL>
3

>  <REMARK>
 VINA RESULT:      -7.4      2.506      3.952
  Name = 
  2 active torsions:
  status: ('A' for Active; 'I' for Inactive)
    1  A    between atoms: C_5  and  C_22
    2  A    between atoms: C_6  and  N_15
                            x       y       z     vdW  Elec       q    Type
                         _______ _______ _______ _____ _____    ______ ____

>  <TORSDO>
F 2

$$$$
=
 OpenBabel11052412543D

 25 28  0  0  1  0  0  0  0  0999 V2000
  187.3980  178.0430  142.4490 C   0  0  0  0  0  0  0  0  0  0  0  0
  187.0800  178.4450  141.0300 C   0  0  0  0  0  0  0  0  0  0  0  0
  184.9060  177.8910  142.8060 C   0  0  0  0  0  2  0  0  0  0  0  0
  188.7200  177.9700  142.9840 C   0  0  0  0  0  0  0  0  0  0  0  0
  187.6570  177.2840  138.9260 C   0  0  1  0  0  3  0  0  0  0  0  0
  184.8290  179.0640  141.8390 C   0  0  0  0  0  2  0  0  0  0  0  0
  188.8900  177.5850  144.3260 C   0  0  0  0  0  3  0  0  0  0  0  0
  187.8030  177.2690  145.1350 C   0  0  0  0  0  3  0  0  0  0  0  0
  185.3620  179.2850  139.3660 C   0  0  0  0  0  0  0  0  0  0  0  0
  184.4690  180.1690  139.2790 O   0  0  0  0  0  0  0  0  0  0  0  0
  188.1180  178.2750  139.9690 C   0  0  0  0  0  2  0  0  0  0  0  0
  186.3070  177.7650  143.3080 C   0  0  0  0  0  0  0  0  0  0  0  0
  186.5130  177.3630  144.6260 C   0  0  0  0  0  3  0  0  0  0  0  0
  185.7390  178.6010  138.1620 N   0  0  0  0  0  2  0  0  0  0  0  0
  187.0550  178.0890  137.8040 C   0  0  0  0  0  2  0  0  0  0  0  0
  185.8320  178.8940  140.7260 C   0  0  0  0  0  0  0  0  0  0  0  0
  189.8020  174.6360  137.1830 N   0  0  0  0  0  0  0  0  0  0  0  0
  189.6660  173.4510  136.3530 C   0  0  0  0  0  1  0  0  0  0  0  0
  191.1340  175.0460  137.5940 C   0  0  0  0  0  1  0  0  0  0  0  0
  188.7980  176.5380  138.4220 N   0  0  0  0  0  2  0  0  0  0  0  0
  187.4960  175.0100  137.2350 O   0  0  0  0  0  0  0  0  0  0  0  0
  188.6480  175.3780  137.5980 C   0  0  0  0  0  0  0  0  0  0  0  0
  190.7560  177.1970  141.8020 C   0  0  0  0  0  2  0  0  0  0  0  0
  191.2610  178.1330  142.8740 C   0  0  0  0  0  2  0  0  0  0  0  0
  189.9290  178.4110  142.1870 C   0  0  0  0  0  3  0  0  0  0  0  0
  1  4  2  0  0  0  0
  1 12  1  0  0  0  0
  2  1  1  0  0  0  0
  3 12  1  0  0  0  0
  4  7  1  0  0  0  0
  5 20  1  6  0  0  0
  5 11  1  0  0  0  0
  6  3  1  0  0  0  0
  7  8  2  0  0  0  0
  9 16  1  0  0  0  0
 10  9  2  0  0  0  0
 11  2  1  0  0  0  0
 12 13  2  0  0  0  0
 13  8  1  0  0  0  0
 14  9  1  0  0  0  0
 15 14  1  0  0  0  0
 15  5  1  0  0  0  0
 16  2  2  0  0  0  0
 16  6  1  0  0  0  0
 17 19  1  0  0  0  0
 17 22  1  0  0  0  0
 18 17  1  0  0  0  0
 21 22  2  0  0  0  0
 22 20  1  0  0  0  0
 23 25  1  0  0  0  0
 23 24  1  0  0  0  0
 25 24  1  0  0  0  0
 25  4  1  0  0  0  0
M  END
>  <MODEL>
4

>  <REMARK>
 VINA RESULT:      -7.4      1.124      1.348
  Name = 
  2 active torsions:
  status: ('A' for Active; 'I' for Inactive)
    1  A    between atoms: C_5  and  C_22
    2  A    between atoms: C_6  and  N_15
                            x       y       z     vdW  Elec       q    Type
                         _______ _______ _______ _____ _____    ______ ____

>  <TORSDO>
F 2

$$$$
=
 OpenBabel11052412543D

 25 28  0  0  1  0  0  0  0  0999 V2000
  181.9180  177.4370  140.4760 C   0  0  0  0  0  0  0  0  0  0  0  0
  183.2580  178.1260  140.4270 C   0  0  0  0  0  0  0  0  0  0  0  0
  182.7580  175.9920  138.5880 C   0  0  0  0  0  2  0  0  0  0  0  0
  180.8540  177.8150  141.3510 C   0  0  0  0  0  0  0  0  0  0  0  0
  185.0010  178.2490  142.1740 C   0  0  1  0  0  3  0  0  0  0  0  0
  183.4900  177.2470  138.1300 C   0  0  0  0  0  2  0  0  0  0  0  0
  179.6450  177.0960  141.3030 C   0  0  0  0  0  3  0  0  0  0  0  0
  179.4700  176.0270  140.4310 C   0  0  0  0  0  3  0  0  0  0  0  0
  185.3940  178.5860  139.1420 C   0  0  0  0  0  0  0  0  0  0  0  0
  185.7610  178.8950  137.9770 O   0  0  0  0  0  0  0  0  0  0  0  0
  183.7430  178.8780  141.6240 C   0  0  0  0  0  2  0  0  0  0  0  0
  181.6950  176.3770  139.5630 C   0  0  0  0  0  0  0  0  0  0  0  0
  180.4940  175.6710  139.5590 C   0  0  0  0  0  3  0  0  0  0  0  0
  186.3740  178.6620  140.1880 N   0  0  0  0  0  2  0  0  0  0  0  0
  186.1570  179.0150  141.5850 C   0  0  0  0  0  2  0  0  0  0  0  0
  184.0350  178.0000  139.3160 C   0  0  0  0  0  0  0  0  0  0  0  0
  186.0560  177.9990  145.8450 N   0  0  0  0  0  0  0  0  0  0  0  0
  187.1480  177.5060  146.6670 C   0  0  0  0  0  1  0  0  0  0  0  0
  184.8980  178.5810  146.5050 C   0  0  0  0  0  1  0  0  0  0  0  0
  185.0240  178.3850  143.6210 N   0  0  0  0  0  2  0  0  0  0  0  0
  187.1220  177.3950  143.8560 O   0  0  0  0  0  0  0  0  0  0  0  0
  186.1120  177.9030  144.4160 C   0  0  0  0  0  0  0  0  0  0  0  0
  179.6490  179.2080  143.0090 C   0  0  0  0  0  2  0  0  0  0  0  0
  179.9690  180.1480  141.8700 C   0  0  0  0  0  2  0  0  0  0  0  0
  180.9470  179.0380  142.2380 C   0  0  0  0  0  3  0  0  0  0  0  0
  1  4  1  0  0  0  0
  2  1  1  0  0  0  0
  2 11  1  0  0  0  0
  3 12  1  0  0  0  0
  4 25  1  0  0  0  0
  5 20  1  1  0  0  0
  6  3  1  0  0  0  0
  6 16  1  0  0  0  0
  7  4  2  0  0  0  0
  8  7  1  0  0  0  0
  9 16  1  0  0  0  0
  9 14  1  0  0  0  0
 10  9  2  0  0  0  0
 11  5  1  0  0  0  0
 12  1  2  0  0  0  0
 13 12  1  0  0  0  0
 13  8  2  0  0  0  0
 14 15  1  0  0  0  0
 15  5  1  0  0  0  0
 16  2  2  0  0  0  0
 17 19  1  0  0  0  0
 17 18  1  0  0  0  0
 20 22  1  0  0  0  0
 21 22  2  0  0  0  0
 22 17  1  0  0  0  0
 24 25  1  0  0  0  0
 24 23  1  0  0  0  0
 25 23  1  0  0  0  0
M  END
>  <MODEL>
5

>  <REMARK>
 VINA RESULT:      -7.1      4.228      7.790
  Name = 
  2 active torsions:
  status: ('A' for Active; 'I' for Inactive)
    1  A    between atoms: C_5  and  C_22
    2  A    between atoms: C_6  and  N_15
                            x       y       z     vdW  Elec       q    Type
                         _______ _______ _______ _____ _____    ______ ____

>  <TORSDO>
F 2

$$$$
=
 OpenBabel11052412543D

 25 28  0  0  1  0  0  0  0  0999 V2000
  188.3280  177.9880  144.9780 C   0  0  0  0  0  0  0  0  0  0  0  0
  187.3150  178.5970  144.0420 C   0  0  0  0  0  0  0  0  0  0  0  0
  186.3650  177.0410  146.2470 C   0  0  0  0  0  2  0  0  0  0  0  0
  189.7390  178.1790  144.8660 C   0  0  0  0  0  0  0  0  0  0  0  0
  186.9850  178.1740  141.6300 C   0  0  1  0  0  3  0  0  0  0  0  0
  185.6600  178.3330  145.8570 C   0  0  0  0  0  2  0  0  0  0  0  0
  190.5860  177.5580  145.8040 C   0  0  0  0  0  3  0  0  0  0  0  0
  190.0790  176.7620  146.8260 C   0  0  0  0  0  3  0  0  0  0  0  0
  184.9070  179.2660  143.6190 C   0  0  0  0  0  0  0  0  0  0  0  0
  183.9590  179.8470  144.2100 O   0  0  0  0  0  0  0  0  0  0  0  0
  187.7320  178.9870  142.6610 C   0  0  0  0  0  2  0  0  0  0  0  0
  187.8360  177.2130  146.0570 C   0  0  0  0  0  0  0  0  0  0  0  0
  188.7050  176.5940  146.9530 C   0  0  0  0  0  3  0  0  0  0  0  0
  184.7610  179.0190  142.2120 N   0  0  0  0  0  2  0  0  0  0  0  0
  185.8060  179.0080  141.1980 C   0  0  0  0  0  2  0  0  0  0  0  0
  186.0220  178.7240  144.4470 C   0  0  0  0  0  0  0  0  0  0  0  0
  189.9030  177.0180  139.4410 N   0  0  0  0  0  0  0  0  0  0  0  0
  191.1400  176.2600  139.5290 C   0  0  0  0  0  1  0  0  0  0  0  0
  189.5520  177.6270  138.1680 C   0  0  0  0  0  1  0  0  0  0  0  0
  187.8440  177.9300  140.4840 N   0  0  0  0  0  2  0  0  0  0  0  0
  189.3720  176.6400  141.6840 O   0  0  0  0  0  0  0  0  0  0  0  0
  189.0540  177.1730  140.5850 C   0  0  0  0  0  0  0  0  0  0  0  0
  191.6590  178.5630  143.3480 C   0  0  0  0  0  2  0  0  0  0  0  0
  191.6580  179.7500  144.2820 C   0  0  0  0  0  2  0  0  0  0  0  0
  190.3380  179.1230  143.8470 C   0  0  0  0  0  3  0  0  0  0  0  0
  1 12  1  0  0  0  0
  2 16  2  0  0  0  0
  2  1  1  0  0  0  0
  4  1  2  0  0  0  0
  4  7  1  0  0  0  0
  5 20  1  6  0  0  0
  5 11  1  0  0  0  0
  6  3  1  0  0  0  0
  7  8  2  0  0  0  0
  8 13  1  0  0  0  0
  9 10  2  0  0  0  0
  9 16  1  0  0  0  0
 11  2  1  0  0  0  0
 12  3  1  0  0  0  0
 12 13  2  0  0  0  0
 14  9  1  0  0  0  0
 15  5  1  0  0  0  0
 15 14  1  0  0  0  0
 16  6  1  0  0  0  0
 17 18  1  0  0  0  0
 17 22  1  0  0  0  0
 19 17  1  0  0  0  0
 20 22  1  0  0  0  0
 22 21  2  0  0  0  0
 23 25  1  0  0  0  0
 23 24  1  0  0  0  0
 25 24  1  0  0  0  0
 25  4  1  0  0  0  0
M  END
>  <MODEL>
6

>  <REMARK>
 VINA RESULT:      -6.9      1.822      2.645
  Name = 
  2 active torsions:
  status: ('A' for Active; 'I' for Inactive)
    1  A    between atoms: C_5  and  C_22
    2  A    between atoms: C_6  and  N_15
                            x       y       z     vdW  Elec       q    Type
                         _______ _______ _______ _____ _____    ______ ____

>  <TORSDO>
F 2

$$$$
=
 OpenBabel11052412543D

 25 28  0  0  1  0  0  0  0  0999 V2000
  189.2730  175.5380  137.4980 C   0  0  0  0  0  0  0  0  0  0  0  0
  190.4150  176.2820  138.1430 C   0  0  0  0  0  0  0  0  0  0  0  0
  190.9880  173.8360  136.7740 C   0  0  0  0  0  2  0  0  0  0  0  0
  187.9230  176.0020  137.4810 C   0  0  0  0  0  0  0  0  0  0  0  0
  190.7700  176.8050  140.5320 C   0  0  1  0  0  3  0  0  0  0  0  0
  191.9220  175.0310  136.6370 C   0  0  0  0  0  2  0  0  0  0  0  0
  186.9430  175.2180  136.8430 C   0  0  0  0  0  3  0  0  0  0  0  0
  187.2610  174.0060  136.2410 C   0  0  0  0  0  3  0  0  0  0  0  0
  192.9190  176.6310  138.3380 C   0  0  0  0  0  0  0  0  0  0  0  0
  193.9270  176.7530  137.5930 O   0  0  0  0  0  0  0  0  0  0  0  0
  190.1310  177.2560  139.2400 C   0  0  0  0  0  2  0  0  0  0  0  0
  189.5780  174.3250  136.8340 C   0  0  0  0  0  0  0  0  0  0  0  0
  188.5780  173.5620  136.2330 C   0  0  0  0  0  3  0  0  0  0  0  0
  193.0790  176.9430  139.7300 N   0  0  0  0  0  2  0  0  0  0  0  0
  192.0920  177.5210  140.6310 C   0  0  0  0  0  2  0  0  0  0  0  0
  191.6930  176.0080  137.7620 C   0  0  0  0  0  0  0  0  0  0  0  0
  189.4010  177.2580  144.0780 N   0  0  0  0  0  0  0  0  0  0  0  0
  189.7530  176.9790  145.4600 C   0  0  0  0  0  1  0  0  0  0  0  0
  188.1160  177.8780  143.8000 C   0  0  0  0  0  1  0  0  0  0  0  0
  189.9300  177.1920  141.6540 N   0  0  0  0  0  2  0  0  0  0  0  0
  191.4080  176.3790  143.2650 O   0  0  0  0  0  0  0  0  0  0  0  0
  190.2950  176.9180  143.0100 C   0  0  0  0  0  0  0  0  0  0  0  0
  186.2130  177.7930  137.4180 C   0  0  0  0  0  2  0  0  0  0  0  0
  187.4890  178.4580  136.9590 C   0  0  0  0  0  2  0  0  0  0  0  0
  187.5400  177.3630  138.0190 C   0  0  0  0  0  3  0  0  0  0  0  0
  1  2  1  0  0  0  0
  2 11  1  0  0  0  0
  3 12  1  0  0  0  0
  4  1  1  0  0  0  0
  4 25  1  0  0  0  0
  5 15  1  0  0  0  0
  5 20  1  1  0  0  0
  6  3  1  0  0  0  0
  6 16  1  0  0  0  0
  7  4  2  0  0  0  0
  8  7  1  0  0  0  0
  9 14  1  0  0  0  0
 10  9  2  0  0  0  0
 11  5  1  0  0  0  0
 12  1  2  0  0  0  0
 13  8  2  0  0  0  0
 13 12  1  0  0  0  0
 14 15  1  0  0  0  0
 16  2  2  0  0  0  0
 16  9  1  0  0  0  0
 17 18  1  0  0  0  0
 19 17  1  0  0  0  0
 20 22  1  0  0  0  0
 22 21  2  0  0  0  0
 22 17  1  0  0  0  0
 23 25  1  0  0  0  0
 24 23  1  0  0  0  0
 24 25  1  0  0  0  0
M  END
>  <MODEL>
7

>  <REMARK>
 VINA RESULT:      -6.9      2.867      7.392
  Name = 
  2 active torsions:
  status: ('A' for Active; 'I' for Inactive)
    1  A    between atoms: C_5  and  C_22
    2  A    between atoms: C_6  and  N_15
                            x       y       z     vdW  Elec       q    Type
                         _______ _______ _______ _____ _____    ______ ____

>  <TORSDO>
F 2

$$$$
=
 OpenBabel11052412543D

 25 28  0  0  1  0  0  0  0  0999 V2000
  187.8200  177.8350  145.9240 C   0  0  0  0  0  0  0  0  0  0  0  0
  189.0220  177.1400  145.3360 C   0  0  0  0  0  0  0  0  0  0  0  0
  189.3030  178.4300  147.8750 C   0  0  0  0  0  2  0  0  0  0  0  0
  186.5270  177.8490  145.3180 C   0  0  0  0  0  0  0  0  0  0  0  0
  190.2270  177.6400  143.2370 C   0  0  1  0  0  3  0  0  0  0  0  0
  189.9510  177.0750  147.6250 C   0  0  0  0  0  2  0  0  0  0  0  0
  185.4790  178.5300  145.9650 C   0  0  0  0  0  3  0  0  0  0  0  0
  185.6790  179.1930  147.1710 C   0  0  0  0  0  3  0  0  0  0  0  0
  191.3340  176.1660  145.7000 C   0  0  0  0  0  0  0  0  0  0  0  0
  191.9420  175.4270  146.5200 O   0  0  0  0  0  0  0  0  0  0  0  0
  189.0780  176.8860  143.8650 C   0  0  0  0  0  2  0  0  0  0  0  0
  187.9840  178.4750  147.1770 C   0  0  0  0  0  0  0  0  0  0  0  0
  186.9300  179.1610  147.7780 C   0  0  0  0  0  3  0  0  0  0  0  0
  191.9930  176.4640  144.4600 N   0  0  0  0  0  2  0  0  0  0  0  0
  191.3810  176.6740  143.1560 C   0  0  0  0  0  2  0  0  0  0  0  0
  190.0670  176.8130  146.1450 C   0  0  0  0  0  0  0  0  0  0  0  0
  189.6980  177.6940  139.4470 N   0  0  0  0  0  0  0  0  0  0  0  0
  189.8520  176.8400  138.2810 C   0  0  0  0  0  1  0  0  0  0  0  0
  189.2340  179.0580  139.2530 C   0  0  0  0  0  1  0  0  0  0  0  0
  189.8600  178.0630  141.8960 N   0  0  0  0  0  2  0  0  0  0  0  0
  190.4120  176.0210  140.9140 O   0  0  0  0  0  0  0  0  0  0  0  0
  190.0090  177.2070  140.7590 C   0  0  0  0  0  0  0  0  0  0  0  0
  186.5440  177.8890  142.8410 C   0  0  0  0  0  2  0  0  0  0  0  0
  185.1020  177.6370  143.2150 C   0  0  0  0  0  2  0  0  0  0  0  0
  186.2230  177.0520  144.0670 C   0  0  0  0  0  3  0  0  0  0  0  0
  1 12  1  0  0  0  0
  2  1  1  0  0  0  0
  2 16  2  0  0  0  0
  4  1  2  0  0  0  0
  4  7  1  0  0  0  0
  5 20  1  6  0  0  0
  5 11  1  0  0  0  0
  6  3  1  0  0  0  0
  7  8  2  0  0  0  0
  8 13  1  0  0  0  0
  9 16  1  0  0  0  0
  9 10  2  0  0  0  0
 11  2  1  0  0  0  0
 12 13  2  0  0  0  0
 12  3  1  0  0  0  0
 14  9  1  0  0  0  0
 15  5  1  0  0  0  0
 15 14  1  0  0  0  0
 16  6  1  0  0  0  0
 17 22  1  0  0  0  0
 18 17  1  0  0  0  0
 19 17  1  0  0  0  0
 22 21  2  0  0  0  0
 22 20  1  0  0  0  0
 23 24  1  0  0  0  0
 23 25  1  0  0  0  0
 24 25  1  0  0  0  0
 25  4  1  0  0  0  0
M  END
>  <MODEL>
8

>  <REMARK>
 VINA RESULT:      -6.8      2.896      5.171
  Name = 
  2 active torsions:
  status: ('A' for Active; 'I' for Inactive)
    1  A    between atoms: C_5  and  C_22
    2  A    between atoms: C_6  and  N_15
                            x       y       z     vdW  Elec       q    Type
                         _______ _______ _______ _____ _____    ______ ____

>  <TORSDO>
F 2

$$$$
=
 OpenBabel11052412543D

 25 28  0  0  1  0  0  0  0  0999 V2000
  187.4360  177.6040  142.4980 C   0  0  0  0  0  0  0  0  0  0  0  0
  186.0850  178.2580  142.6380 C   0  0  0  0  0  0  0  0  0  0  0  0
  187.1110  176.7700  144.8560 C   0  0  0  0  0  2  0  0  0  0  0  0
  188.2670  177.7200  141.3420 C   0  0  0  0  0  0  0  0  0  0  0  0
  184.0180  177.8350  141.3500 C   0  0  1  0  0  3  0  0  0  0  0  0
  186.3930  178.0940  145.0830 C   0  0  0  0  0  2  0  0  0  0  0  0
  189.5120  177.0640  141.3300 C   0  0  0  0  0  3  0  0  0  0  0  0
  189.9420  176.3030  142.4120 C   0  0  0  0  0  3  0  0  0  0  0  0
  184.2250  179.0480  144.1690 C   0  0  0  0  0  0  0  0  0  0  0  0
  184.0810  179.6830  145.2480 O   0  0  0  0  0  0  0  0  0  0  0  0
  185.3100  178.6160  141.4110 C   0  0  0  0  0  2  0  0  0  0  0  0
  187.9200  176.8640  143.6040 C   0  0  0  0  0  0  0  0  0  0  0  0
  189.1480  176.2070  143.5490 C   0  0  0  0  0  3  0  0  0  0  0  0
  183.0510  178.7990  143.3830 N   0  0  0  0  0  2  0  0  0  0  0  0
  182.9510  178.7260  141.9320 C   0  0  0  0  0  2  0  0  0  0  0  0
  185.5620  178.4550  143.8790 C   0  0  0  0  0  0  0  0  0  0  0  0
  182.5220  178.0320  137.8330 N   0  0  0  0  0  0  0  0  0  0  0  0
  181.6860  178.8960  137.0160 C   0  0  0  0  0  1  0  0  0  0  0  0
  182.9840  176.7760  137.2660 C   0  0  0  0  0  1  0  0  0  0  0  0
  183.6910  177.5380  139.9660 N   0  0  0  0  0  2  0  0  0  0  0  0
  182.4650  179.4970  139.6520 O   0  0  0  0  0  0  0  0  0  0  0  0
  182.8740  178.4030  139.1710 C   0  0  0  0  0  0  0  0  0  0  0  0
  187.7470  177.7970  138.9210 C   0  0  0  0  0  2  0  0  0  0  0  0
  188.9580  178.6850  139.0870 C   0  0  0  0  0  2  0  0  0  0  0  0
  187.9020  178.6250  140.1850 C   0  0  0  0  0  3  0  0  0  0  0  0
  1  2  1  0  0  0  0
  1 12  1  0  0  0  0
  2 16  2  0  0  0  0
  3  6  1  0  0  0  0
  4  1  2  0  0  0  0
  5 20  1  6  0  0  0
  5 11  1  0  0  0  0
  5 15  1  0  0  0  0
  7  4  1  0  0  0  0
  7  8  2  0  0  0  0
  8 13  1  0  0  0  0
  9 10  2  0  0  0  0
 11  2  1  0  0  0  0
 12  3  1  0  0  0  0
 13 12  2  0  0  0  0
 14  9  1  0  0  0  0
 15 14  1  0  0  0  0
 16  9  1  0  0  0  0
 16  6  1  0  0  0  0
 17 22  1  0  0  0  0
 18 17  1  0  0  0  0
 19 17  1  0  0  0  0
 22 21  2  0  0  0  0
 22 20  1  0  0  0  0
 23 24  1  0  0  0  0
 23 25  1  0  0  0  0
 24 25  1  0  0  0  0
 25  4  1  0  0  0  0
M  END
>  <MODEL>
9

>  <REMARK>
 VINA RESULT:      -6.8      3.370      5.400
  Name = 
  2 active torsions:
  status: ('A' for Active; 'I' for Inactive)
    1  A    between atoms: C_5  and  C_22
    2  A    between atoms: C_6  and  N_15
                            x       y       z     vdW  Elec       q    Type
                         _______ _______ _______ _____ _____    ______ ____

>  <TORSDO>
F 2

$$$$
