=
 OpenBabel11052413553D

 27 30  0  0  1  0  0  0  0  0999 V2000
  190.0380  177.1590  139.9580 C   0  0  2  0  0  3  0  0  0  0  0  0
  190.6880  176.2800  140.8440 O   0  0  0  0  0  0  0  0  0  0  0  0
  188.6920  176.6300  141.7270 C   0  0  1  0  0  3  0  0  0  0  0  0
  186.7410  178.6830  141.0750 C   0  0  0  0  0  0  0  0  0  0  0  0
  185.6330  179.4300  140.6950 O   0  0  0  0  0  1  0  0  0  0  0  0
  188.7050  177.2950  140.4570 N   0  0  0  0  0  0  0  0  0  0  0  0
  190.0390  176.3420  142.0130 O   0  0  0  0  0  0  0  0  0  0  0  0
  186.8730  178.2810  142.3420 C   0  0  0  0  0  3  0  0  0  0  0  0
  187.8010  178.8490  138.9560 O   0  0  0  0  0  0  0  0  0  0  0  0
  187.7610  178.3060  140.0920 C   0  0  0  0  0  0  0  0  0  0  0  0
  188.1050  177.5490  142.8170 C   0  0  1  0  0  3  0  0  0  0  0  0
  187.7620  176.7580  144.0720 C   0  0  0  0  0  2  0  0  0  0  0  0
  188.8600  176.9440  147.6700 C   0  0  0  0  0  2  0  0  0  0  0  0
  187.9700  178.0580  148.1470 C   0  0  0  0  0  3  0  0  0  0  0  0
  186.9120  178.4140  147.4120 C   0  0  0  0  0  3  0  0  0  0  0  0
  187.9620  177.5960  145.3260 C   0  0  1  0  0  3  0  0  0  0  0  0
  186.6520  177.7030  146.1170 C   0  0  0  0  0  2  0  0  0  0  0  0
  189.1340  177.0280  146.1540 C   0  0  1  0  0  3  0  0  0  0  0  0
  191.4390  177.0000  145.1970 C   0  0  0  0  0  1  0  0  0  0  0  0
  190.3840  177.8510  145.8780 C   0  0  0  0  0  2  0  0  0  0  0  0
  190.0440  176.5880  138.5370 C   0  0  0  0  0  2  0  0  0  0  0  0
  193.7510  174.6900  137.4880 C   0  0  0  0  0  3  0  0  0  0  0  0
  191.3360  175.9200  138.1840 C   0  0  0  0  0  0  0  0  0  0  0  0
  191.3340  174.6390  137.6230 C   0  0  0  0  0  3  0  0  0  0  0  0
  192.5410  174.0230  137.2760 C   0  0  0  0  0  3  0  0  0  0  0  0
  193.7550  175.9720  138.0480 C   0  0  0  0  0  3  0  0  0  0  0  0
  192.5490  176.5860  138.3940 C   0  0  0  0  0  3  0  0  0  0  0  0
  1 21  1  6  0  0  0
  1  6  1  0  0  0  0
  1  2  1  0  0  0  0
  2  7  1  0  0  0  0
  3  7  1  1  0  0  0
  3 11  1  0  0  0  0
  4  8  2  0  0  0  0
  5  4  1  0  0  0  0
  6  3  1  0  0  0  0
  8 11  1  0  0  0  0
  9 10  2  0  0  0  0
 10  6  1  0  0  0  0
 10  4  1  0  0  0  0
 11 12  1  1  0  0  0
 13 14  1  0  0  0  0
 15 14  2  0  0  0  0
 16 12  1  6  0  0  0
 16 17  1  0  0  0  0
 16 18  1  0  0  0  0
 17 15  1  0  0  0  0
 18 20  1  1  0  0  0
 18 13  1  0  0  0  0
 19 20  1  0  0  0  0
 22 26  1  0  0  0  0
 23 27  1  0  0  0  0
 23 21  1  0  0  0  0
 24 23  2  0  0  0  0
 25 22  2  0  0  0  0
 25 24  1  0  0  0  0
 26 27  2  0  0  0  0
M  END
>  <MODEL>
1

>  <REMARK>
 VINA RESULT:      -9.0      0.000      0.000
  Name = 
  5 active torsions:
  status: ('A' for Active; 'I' for Inactive)
    1  A    between atoms: C_1  and  C_15
    2  A    between atoms: C_9  and  C_15
    3  A    between atoms: C_12  and  C_14
    4  A    between atoms: C_12  and  C_26
    5  A    between atoms: C_17  and  C_21
                            x       y       z     vdW  Elec       q    Type
                         _______ _______ _______ _____ _____    ______ ____

>  <TORSDO>
F 5

$$$$
=
 OpenBabel11052413553D

 27 30  0  0  1  0  0  0  0  0999 V2000
  188.0330  178.6280  140.5360 C   0  0  2  0  0  3  0  0  0  0  0  0
  189.1130  177.9940  141.1780 O   0  0  0  0  0  0  0  0  0  0  0  0
  187.3460  177.5560  142.4330 C   0  0  1  0  0  3  0  0  0  0  0  0
  184.7210  178.8030  142.3910 C   0  0  0  0  0  0  0  0  0  0  0  0
  183.3720  179.1210  142.3050 O   0  0  0  0  0  1  0  0  0  0  0  0
  186.8680  178.2480  141.2720 N   0  0  0  0  0  0  0  0  0  0  0  0
  188.7390  177.7560  142.4410 O   0  0  0  0  0  0  0  0  0  0  0  0
  185.2420  178.4070  143.5550 C   0  0  0  0  0  3  0  0  0  0  0  0
  185.1980  179.4530  140.1560 O   0  0  0  0  0  0  0  0  0  0  0  0
  185.5820  178.8710  141.2050 C   0  0  0  0  0  0  0  0  0  0  0  0
  186.7200  178.1410  143.7140 C   0  0  1  0  0  3  0  0  0  0  0  0
  186.9350  177.2130  144.9010 C   0  0  0  0  0  2  0  0  0  0  0  0
  189.6430  176.8680  147.4970 C   0  0  0  0  0  2  0  0  0  0  0  0
  189.2200  177.9540  148.4470 C   0  0  0  0  0  3  0  0  0  0  0  0
  187.9840  178.4560  148.3610 C   0  0  0  0  0  3  0  0  0  0  0  0
  187.8040  177.8670  145.9640 C   0  0  1  0  0  3  0  0  0  0  0  0
  187.0580  177.9370  147.3020 C   0  0  0  0  0  2  0  0  0  0  0  0
  189.1610  177.1360  146.0560 C   0  0  1  0  0  3  0  0  0  0  0  0
  191.3380  177.0120  144.8430 C   0  0  0  0  0  1  0  0  0  0  0  0
  190.2040  177.9210  145.2770 C   0  0  0  0  0  2  0  0  0  0  0  0
  187.9400  178.1760  139.0750 C   0  0  0  0  0  2  0  0  0  0  0  0
  191.1590  175.5640  137.9520 C   0  0  0  0  0  3  0  0  0  0  0  0
  189.0640  177.2740  138.6720 C   0  0  0  0  0  0  0  0  0  0  0  0
  190.3760  177.5750  139.0530 C   0  0  0  0  0  3  0  0  0  0  0  0
  191.4240  176.7210  138.6920 C   0  0  0  0  0  3  0  0  0  0  0  0
  189.8480  175.2620  137.5730 C   0  0  0  0  0  3  0  0  0  0  0  0
  188.8010  176.1150  137.9330 C   0  0  0  0  0  3  0  0  0  0  0  0
  1 21  1  6  0  0  0
  1  2  1  0  0  0  0
  1  6  1  0  0  0  0
  2  7  1  0  0  0  0
  3  7  1  1  0  0  0
  3 11  1  0  0  0  0
  4  8  2  0  0  0  0
  5  4  1  0  0  0  0
  6  3  1  0  0  0  0
  8 11  1  0  0  0  0
  9 10  2  0  0  0  0
 10  6  1  0  0  0  0
 10  4  1  0  0  0  0
 11 12  1  1  0  0  0
 13 14  1  0  0  0  0
 15 14  2  0  0  0  0
 16 12  1  6  0  0  0
 16 18  1  0  0  0  0
 16 17  1  0  0  0  0
 17 15  1  0  0  0  0
 18 20  1  1  0  0  0
 18 13  1  0  0  0  0
 19 20  1  0  0  0  0
 22 25  1  0  0  0  0
 23 24  1  0  0  0  0
 23 21  1  0  0  0  0
 25 24  2  0  0  0  0
 26 27  1  0  0  0  0
 26 22  2  0  0  0  0
 27 23  2  0  0  0  0
M  END
>  <MODEL>
2

>  <REMARK>
 VINA RESULT:      -8.6      1.461      2.302
  Name = 
  5 active torsions:
  status: ('A' for Active; 'I' for Inactive)
    1  A    between atoms: C_1  and  C_15
    2  A    between atoms: C_9  and  C_15
    3  A    between atoms: C_12  and  C_14
    4  A    between atoms: C_12  and  C_26
    5  A    between atoms: C_17  and  C_21
                            x       y       z     vdW  Elec       q    Type
                         _______ _______ _______ _____ _____    ______ ____

>  <TORSDO>
F 5

$$$$
=
 OpenBabel11052413553D

 27 30  0  0  1  0  0  0  0  0999 V2000
  184.6310  179.0570  142.3790 C   0  0  2  0  0  3  0  0  0  0  0  0
  185.5120  178.5350  141.4140 O   0  0  0  0  0  0  0  0  0  0  0  0
  186.1380  177.6270  143.3300 C   0  0  1  0  0  3  0  0  0  0  0  0
  185.4180  178.3970  146.0380 C   0  0  0  0  0  0  0  0  0  0  0  0
  184.9600  178.4870  147.3460 O   0  0  0  0  0  1  0  0  0  0  0  0
  184.9500  178.3830  143.5990 N   0  0  0  0  0  0  0  0  0  0  0  0
  186.5800  178.0600  142.0660 O   0  0  0  0  0  0  0  0  0  0  0  0
  186.6470  177.9370  145.7910 C   0  0  0  0  0  3  0  0  0  0  0  0
  183.4910  179.4270  145.1040 O   0  0  0  0  0  0  0  0  0  0  0  0
  184.5550  178.7780  144.9150 C   0  0  0  0  0  0  0  0  0  0  0  0
  187.2180  177.9100  144.3930 C   0  0  1  0  0  3  0  0  0  0  0  0
  188.3320  176.8750  144.3300 C   0  0  0  0  0  2  0  0  0  0  0  0
  191.7750  176.0890  145.6420 C   0  0  0  0  0  2  0  0  0  0  0  0
  191.6960  176.7720  146.9790 C   0  0  0  0  0  3  0  0  0  0  0  0
  190.5020  177.1220  147.4680 C   0  0  0  0  0  3  0  0  0  0  0  0
  189.5090  177.2740  145.2070 C   0  0  1  0  0  3  0  0  0  0  0  0
  189.2720  176.8400  146.6590 C   0  0  0  0  0  2  0  0  0  0  0  0
  190.8210  176.7230  144.6080 C   0  0  1  0  0  3  0  0  0  0  0  0
  190.9290  179.1810  144.1920 C   0  0  0  0  0  1  0  0  0  0  0  0
  191.5220  177.8310  143.8380 C   0  0  0  0  0  2  0  0  0  0  0  0
  183.1770  178.8060  141.9690 C   0  0  0  0  0  2  0  0  0  0  0  0
  182.7460  177.5900  137.8720 C   0  0  0  0  0  3  0  0  0  0  0  0
  183.0410  178.3810  140.5410 C   0  0  0  0  0  0  0  0  0  0  0  0
  183.0150  177.0220  140.2110 C   0  0  0  0  0  3  0  0  0  0  0  0
  182.8680  176.6270  138.8770 C   0  0  0  0  0  3  0  0  0  0  0  0
  182.7700  178.9500  138.2010 C   0  0  0  0  0  3  0  0  0  0  0  0
  182.9170  179.3450  139.5330 C   0  0  0  0  0  3  0  0  0  0  0  0
  1 21  1  6  0  0  0
  1  6  1  0  0  0  0
  2  7  1  0  0  0  0
  2  1  1  0  0  0  0
  3  7  1  6  0  0  0
  3  6  1  0  0  0  0
  3 11  1  0  0  0  0
  4  5  1  0  0  0  0
  6 10  1  0  0  0  0
  8  4  2  0  0  0  0
 10  9  2  0  0  0  0
 10  4  1  0  0  0  0
 11 12  1  1  0  0  0
 11  8  1  0  0  0  0
 13 14  1  0  0  0  0
 14 15  2  0  0  0  0
 16 12  1  6  0  0  0
 16 17  1  0  0  0  0
 17 15  1  0  0  0  0
 18 20  1  1  0  0  0
 18 16  1  0  0  0  0
 18 13  1  0  0  0  0
 20 19  1  0  0  0  0
 22 26  2  0  0  0  0
 22 25  1  0  0  0  0
 23 21  1  0  0  0  0
 24 23  1  0  0  0  0
 25 24  2  0  0  0  0
 26 27  1  0  0  0  0
 27 23  2  0  0  0  0
M  END
>  <MODEL>
3

>  <REMARK>
 VINA RESULT:      -8.6      4.047      6.269
  Name = 
  5 active torsions:
  status: ('A' for Active; 'I' for Inactive)
    1  A    between atoms: C_1  and  C_15
    2  A    between atoms: C_9  and  C_15
    3  A    between atoms: C_12  and  C_14
    4  A    between atoms: C_12  and  C_26
    5  A    between atoms: C_17  and  C_21
                            x       y       z     vdW  Elec       q    Type
                         _______ _______ _______ _____ _____    ______ ____

>  <TORSDO>
F 5

$$$$
=
 OpenBabel11052413553D

 27 30  0  0  1  0  0  0  0  0999 V2000
  188.1720  177.8240  142.1180 C   0  0  2  0  0  3  0  0  0  0  0  0
  186.9620  178.4020  141.6920 O   0  0  0  0  0  0  0  0  0  0  0  0
  188.0320  177.8480  139.8380 C   0  0  1  0  0  3  0  0  0  0  0  0
  190.8240  177.1180  139.4890 C   0  0  0  0  0  0  0  0  0  0  0  0
  192.0430  176.5100  139.2220 O   0  0  0  0  0  1  0  0  0  0  0  0
  188.8160  177.3540  140.9320 N   0  0  0  0  0  0  0  0  0  0  0  0
  187.1200  178.7540  140.4100 O   0  0  0  0  0  0  0  0  0  0  0  0
  190.2040  177.8200  138.5370 C   0  0  0  0  0  3  0  0  0  0  0  0
  190.8330  176.5300  141.7910 O   0  0  0  0  0  0  0  0  0  0  0  0
  190.1900  176.9770  140.8040 C   0  0  0  0  0  0  0  0  0  0  0  0
  188.9250  178.5730  138.8110 C   0  0  1  0  0  3  0  0  0  0  0  0
  188.1830  178.7920  137.5000 C   0  0  0  0  0  2  0  0  0  0  0  0
  186.4950  176.7550  134.8190 C   0  0  0  0  0  2  0  0  0  0  0  0
  185.3660  176.1690  135.6220 C   0  0  0  0  0  3  0  0  0  0  0  0
  185.0550  176.7060  136.8050 C   0  0  0  0  0  3  0  0  0  0  0  0
  187.3490  177.5760  137.1260 C   0  0  1  0  0  3  0  0  0  0  0  0
  185.8550  177.8690  137.3110 C   0  0  0  0  0  2  0  0  0  0  0  0
  187.7110  177.1100  135.6990 C   0  0  1  0  0  3  0  0  0  0  0  0
  188.3940  175.1130  137.0300 C   0  0  0  0  0  1  0  0  0  0  0  0
  188.6740  175.9360  135.7870 C   0  0  0  0  0  2  0  0  0  0  0  0
  187.9030  176.6780  143.0970 C   0  0  0  0  0  2  0  0  0  0  0  0
  187.9320  177.9050  147.2130 C   0  0  0  0  0  3  0  0  0  0  0  0
  187.9140  177.1190  144.5270 C   0  0  0  0  0  0  0  0  0  0  0  0
  186.7160  177.4570  145.1670 C   0  0  0  0  0  3  0  0  0  0  0  0
  186.7260  177.8510  146.5090 C   0  0  0  0  0  3  0  0  0  0  0  0
  189.1300  177.5650  146.5750 C   0  0  0  0  0  3  0  0  0  0  0  0
  189.1200  177.1720  145.2340 C   0  0  0  0  0  3  0  0  0  0  0  0
  1 21  1  1  0  0  0
  2  1  1  0  0  0  0
  3  7  1  1  0  0  0
  3  6  1  0  0  0  0
  4 10  1  0  0  0  0
  5  4  1  0  0  0  0
  6  1  1  0  0  0  0
  7  2  1  0  0  0  0
  8 11  1  0  0  0  0
  8  4  2  0  0  0  0
 10  6  1  0  0  0  0
 10  9  2  0  0  0  0
 11 12  1  6  0  0  0
 11  3  1  0  0  0  0
 13 14  1  0  0  0  0
 13 18  1  0  0  0  0
 14 15  2  0  0  0  0
 15 17  1  0  0  0  0
 16 17  1  0  0  0  0
 16 12  1  6  0  0  0
 18 20  1  1  0  0  0
 18 16  1  0  0  0  0
 20 19  1  0  0  0  0
 21 23  1  0  0  0  0
 23 24  2  0  0  0  0
 23 27  1  0  0  0  0
 24 25  1  0  0  0  0
 25 22  2  0  0  0  0
 26 22  1  0  0  0  0
 27 26  2  0  0  0  0
M  END
>  <MODEL>
4

>  <REMARK>
 VINA RESULT:      -8.2      2.435      8.029
  Name = 
  5 active torsions:
  status: ('A' for Active; 'I' for Inactive)
    1  A    between atoms: C_1  and  C_15
    2  A    between atoms: C_9  and  C_15
    3  A    between atoms: C_12  and  C_14
    4  A    between atoms: C_12  and  C_26
    5  A    between atoms: C_17  and  C_21
                            x       y       z     vdW  Elec       q    Type
                         _______ _______ _______ _____ _____    ______ ____

>  <TORSDO>
F 5

$$$$
=
 OpenBabel11052413553D

 27 30  0  0  1  0  0  0  0  0999 V2000
  188.0300  177.7820  139.5920 C   0  0  2  0  0  3  0  0  0  0  0  0
  187.0650  178.2640  140.4950 O   0  0  0  0  0  0  0  0  0  0  0  0
  189.0070  178.5250  141.5190 C   0  0  1  0  0  3  0  0  0  0  0  0
  191.5920  177.3760  140.8520 C   0  0  0  0  0  0  0  0  0  0  0  0
  192.9110  177.1140  140.5050 O   0  0  0  0  0  1  0  0  0  0  0  0
  189.2960  178.0590  140.1940 N   0  0  0  0  0  0  0  0  0  0  0  0
  187.6330  178.2900  141.7070 O   0  0  0  0  0  0  0  0  0  0  0  0
  191.2600  177.5480  142.1340 C   0  0  0  0  0  3  0  0  0  0  0  0
  190.7700  177.1130  138.6390 O   0  0  0  0  0  0  0  0  0  0  0  0
  190.5560  177.4920  139.8210 C   0  0  0  0  0  0  0  0  0  0  0  0
  189.8260  177.7430  142.5640 C   0  0  1  0  0  3  0  0  0  0  0  0
  189.8000  178.4430  143.9150 C   0  0  0  0  0  2  0  0  0  0  0  0
  187.7940  178.0110  147.0740 C   0  0  0  0  0  2  0  0  0  0  0  0
  188.5360  176.8550  147.6860 C   0  0  0  0  0  3  0  0  0  0  0  0
  189.7530  176.5410  147.2310 C   0  0  0  0  0  3  0  0  0  0  0  0
  189.2840  177.5200  145.0080 C   0  0  1  0  0  3  0  0  0  0  0  0
  190.3390  177.3400  146.1060 C   0  0  0  0  0  2  0  0  0  0  0  0
  187.9300  178.0400  145.5370 C   0  0  1  0  0  3  0  0  0  0  0  0
  185.6420  178.1710  144.5480 C   0  0  0  0  0  1  0  0  0  0  0  0
  186.8030  177.2540  144.8830 C   0  0  0  0  0  2  0  0  0  0  0  0
  187.8940  178.4840  138.2370 C   0  0  0  0  0  2  0  0  0  0  0  0
  187.2050  175.7440  135.0020 C   0  0  0  0  0  3  0  0  0  0  0  0
  187.6400  177.5320  137.1110 C   0  0  0  0  0  0  0  0  0  0  0  0
  187.5080  178.0100  135.8030 C   0  0  0  0  0  3  0  0  0  0  0  0
  187.2890  177.1170  134.7490 C   0  0  0  0  0  3  0  0  0  0  0  0
  187.3390  175.2650  136.3090 C   0  0  0  0  0  3  0  0  0  0  0  0
  187.5570  176.1570  137.3620 C   0  0  0  0  0  3  0  0  0  0  0  0
  1 21  1  6  0  0  0
  1  6  1  0  0  0  0
  1  2  1  0  0  0  0
  2  7  1  0  0  0  0
  3  7  1  1  0  0  0
  3 11  1  0  0  0  0
  4  8  2  0  0  0  0
  5  4  1  0  0  0  0
  6  3  1  0  0  0  0
  8 11  1  0  0  0  0
  9 10  2  0  0  0  0
 10  6  1  0  0  0  0
 10  4  1  0  0  0  0
 11 12  1  1  0  0  0
 13 14  1  0  0  0  0
 15 14  2  0  0  0  0
 16 12  1  6  0  0  0
 16 18  1  0  0  0  0
 16 17  1  0  0  0  0
 17 15  1  0  0  0  0
 18 20  1  6  0  0  0
 18 13  1  0  0  0  0
 19 20  1  0  0  0  0
 22 26  1  0  0  0  0
 23 27  1  0  0  0  0
 23 21  1  0  0  0  0
 24 23  2  0  0  0  0
 25 22  2  0  0  0  0
 25 24  1  0  0  0  0
 26 27  2  0  0  0  0
M  END
>  <MODEL>
5

>  <REMARK>
 VINA RESULT:      -8.1      2.332      4.190
  Name = 
  5 active torsions:
  status: ('A' for Active; 'I' for Inactive)
    1  A    between atoms: C_1  and  C_15
    2  A    between atoms: C_9  and  C_15
    3  A    between atoms: C_12  and  C_14
    4  A    between atoms: C_12  and  C_26
    5  A    between atoms: C_17  and  C_21
                            x       y       z     vdW  Elec       q    Type
                         _______ _______ _______ _____ _____    ______ ____

>  <TORSDO>
F 5

$$$$
=
 OpenBabel11052413553D

 27 30  0  0  1  0  0  0  0  0999 V2000
  188.5940  177.5260  139.9470 C   0  0  2  0  0  3  0  0  0  0  0  0
  187.6930  178.3160  139.2100 O   0  0  0  0  0  0  0  0  0  0  0  0
  187.2070  178.7000  141.3320 C   0  0  1  0  0  3  0  0  0  0  0  0
  188.0220  177.2110  143.6910 C   0  0  0  0  0  0  0  0  0  0  0  0
  188.5390  176.7600  144.8980 O   0  0  0  0  0  1  0  0  0  0  0  0
  188.3690  177.8600  141.3190 N   0  0  0  0  0  0  0  0  0  0  0  0
  186.6830  178.6350  140.0280 O   0  0  0  0  0  0  0  0  0  0  0  0
  186.8060  177.7610  143.6490 C   0  0  0  0  0  3  0  0  0  0  0  0
  189.8480  176.4030  142.4030 O   0  0  0  0  0  0  0  0  0  0  0  0
  188.8090  177.1140  142.4570 C   0  0  0  0  0  0  0  0  0  0  0  0
  186.1690  178.1800  142.3460 C   0  0  1  0  0  3  0  0  0  0  0  0
  185.1040  179.2310  142.6260 C   0  0  0  0  0  2  0  0  0  0  0  0
  181.4810  179.2270  141.5920 C   0  0  0  0  0  2  0  0  0  0  0  0
  180.8660  178.6510  142.8380 C   0  0  0  0  0  3  0  0  0  0  0  0
  181.5760  178.6250  143.9690 C   0  0  0  0  0  3  0  0  0  0  0  0
  183.7230  178.6040  142.7390 C   0  0  1  0  0  3  0  0  0  0  0  0
  182.9790  179.1540  143.9620 C   0  0  0  0  0  2  0  0  0  0  0  0
  182.9510  178.7910  141.4150 C   0  0  1  0  0  3  0  0  0  0  0  0
  183.4390  177.8150  139.1710 C   0  0  0  0  0  1  0  0  0  0  0  0
  183.0380  177.5090  140.6020 C   0  0  0  0  0  2  0  0  0  0  0  0
  190.0360  177.8290  139.5310 C   0  0  0  0  0  2  0  0  0  0  0  0
  191.7840  174.6630  137.2140 C   0  0  0  0  0  3  0  0  0  0  0  0
  190.6470  176.7350  138.7130 C   0  0  0  0  0  0  0  0  0  0  0  0
  192.0340  176.5500  138.7100 C   0  0  0  0  0  3  0  0  0  0  0  0
  192.6030  175.5160  137.9600 C   0  0  0  0  0  3  0  0  0  0  0  0
  190.3970  174.8450  137.2170 C   0  0  0  0  0  3  0  0  0  0  0  0
  189.8300  175.8790  137.9660 C   0  0  0  0  0  3  0  0  0  0  0  0
  1 21  1  6  0  0  0
  1  6  1  0  0  0  0
  2  1  1  0  0  0  0
  2  7  1  0  0  0  0
  3  7  1  6  0  0  0
  3 11  1  0  0  0  0
  4  5  1  0  0  0  0
  6  3  1  0  0  0  0
  6 10  1  0  0  0  0
  8  4  2  0  0  0  0
  9 10  2  0  0  0  0
 10  4  1  0  0  0  0
 11 12  1  1  0  0  0
 11  8  1  0  0  0  0
 13 14  1  0  0  0  0
 14 15  2  0  0  0  0
 16 12  1  6  0  0  0
 16 17  1  0  0  0  0
 17 15  1  0  0  0  0
 18 20  1  1  0  0  0
 18 13  1  0  0  0  0
 18 16  1  0  0  0  0
 19 20  1  0  0  0  0
 22 26  2  0  0  0  0
 22 25  1  0  0  0  0
 23 21  1  0  0  0  0
 24 23  1  0  0  0  0
 25 24  2  0  0  0  0
 26 27  1  0  0  0  0
 27 23  2  0  0  0  0
M  END
>  <MODEL>
6

>  <REMARK>
 VINA RESULT:      -8.0      2.711      5.047
  Name = 
  5 active torsions:
  status: ('A' for Active; 'I' for Inactive)
    1  A    between atoms: C_1  and  C_15
    2  A    between atoms: C_9  and  C_15
    3  A    between atoms: C_12  and  C_14
    4  A    between atoms: C_12  and  C_26
    5  A    between atoms: C_17  and  C_21
                            x       y       z     vdW  Elec       q    Type
                         _______ _______ _______ _____ _____    ______ ____

>  <TORSDO>
F 5

$$$$
=
 OpenBabel11052413553D

 27 30  0  0  1  0  0  0  0  0999 V2000
  189.9950  177.4620  142.2990 C   0  0  2  0  0  3  0  0  0  0  0  0
  191.2670  177.0720  141.8420 O   0  0  0  0  0  0  0  0  0  0  0  0
  190.1850  177.7620  140.0420 C   0  0  1  0  0  3  0  0  0  0  0  0
  187.3400  178.2500  139.6960 C   0  0  0  0  0  0  0  0  0  0  0  0
  186.0700  178.7640  139.4700 O   0  0  0  0  0  1  0  0  0  0  0  0
  189.3310  178.0230  141.1640 N   0  0  0  0  0  0  0  0  0  0  0  0
  191.1730  176.8830  140.5200 O   0  0  0  0  0  0  0  0  0  0  0  0
  188.0490  177.7490  138.6820 C   0  0  0  0  0  3  0  0  0  0  0  0
  187.2220  178.5170  142.0540 O   0  0  0  0  0  0  0  0  0  0  0  0
  187.9280  178.2740  141.0400 C   0  0  0  0  0  0  0  0  0  0  0  0
  189.3940  177.0970  138.8980 C   0  0  1  0  0  3  0  0  0  0  0  0
  190.1820  177.1330  137.5960 C   0  0  0  0  0  2  0  0  0  0  0  0
  191.6410  174.7350  135.0840 C   0  0  0  0  0  2  0  0  0  0  0  0
  191.3540  173.4350  135.7820 C   0  0  0  0  0  3  0  0  0  0  0  0
  190.4680  173.4090  136.7820 C   0  0  0  0  0  3  0  0  0  0  0  0
  190.8470  175.7950  137.3140 C   0  0  1  0  0  3  0  0  0  0  0  0
  189.7970  174.6840  137.1960 C   0  0  0  0  0  2  0  0  0  0  0  0
  191.7590  175.9130  136.0740 C   0  0  1  0  0  3  0  0  0  0  0  0
  193.3650  175.6220  137.9620 C   0  0  0  0  0  1  0  0  0  0  0  0
  193.1990  176.0910  136.5290 C   0  0  0  0  0  2  0  0  0  0  0  0
  190.1240  178.4870  143.4300 C   0  0  0  0  0  2  0  0  0  0  0  0
  189.8160  176.7530  147.3470 C   0  0  0  0  0  3  0  0  0  0  0  0
  190.0140  177.8700  144.7890 C   0  0  0  0  0  0  0  0  0  0  0  0
  191.1420  177.3090  145.3990 C   0  0  0  0  0  3  0  0  0  0  0  0
  191.0420  176.7500  146.6770 C   0  0  0  0  0  3  0  0  0  0  0  0
  188.6880  177.3150  146.7400 C   0  0  0  0  0  3  0  0  0  0  0  0
  188.7870  177.8730  145.4630 C   0  0  0  0  0  3  0  0  0  0  0  0
  1 21  1  1  0  0  0
  2  1  1  0  0  0  0
  3  7  1  1  0  0  0
  3  6  1  0  0  0  0
  4 10  1  0  0  0  0
  5  4  1  0  0  0  0
  6  1  1  0  0  0  0
  7  2  1  0  0  0  0
  8 11  1  0  0  0  0
  8  4  2  0  0  0  0
 10  6  1  0  0  0  0
 10  9  2  0  0  0  0
 11 12  1  6  0  0  0
 11  3  1  0  0  0  0
 13 14  1  0  0  0  0
 13 18  1  0  0  0  0
 14 15  2  0  0  0  0
 15 17  1  0  0  0  0
 16 12  1  6  0  0  0
 17 16  1  0  0  0  0
 18 20  1  1  0  0  0
 18 16  1  0  0  0  0
 20 19  1  0  0  0  0
 21 23  1  0  0  0  0
 23 24  2  0  0  0  0
 23 27  1  0  0  0  0
 24 25  1  0  0  0  0
 25 22  2  0  0  0  0
 26 22  1  0  0  0  0
 27 26  2  0  0  0  0
M  END
>  <MODEL>
7

>  <REMARK>
 VINA RESULT:      -8.0      1.435      7.676
  Name = 
  5 active torsions:
  status: ('A' for Active; 'I' for Inactive)
    1  A    between atoms: C_1  and  C_15
    2  A    between atoms: C_9  and  C_15
    3  A    between atoms: C_12  and  C_14
    4  A    between atoms: C_12  and  C_26
    5  A    between atoms: C_17  and  C_21
                            x       y       z     vdW  Elec       q    Type
                         _______ _______ _______ _____ _____    ______ ____

>  <TORSDO>
F 5

$$$$
=
 OpenBabel11052413553D

 27 30  0  0  1  0  0  0  0  0999 V2000
  190.2370  177.6270  138.5790 C   0  0  2  0  0  3  0  0  0  0  0  0
  191.1860  176.8420  139.2590 O   0  0  0  0  0  0  0  0  0  0  0  0
  189.3580  176.7580  140.5000 C   0  0  1  0  0  3  0  0  0  0  0  0
  186.9870  178.4350  140.3750 C   0  0  0  0  0  0  0  0  0  0  0  0
  185.7140  178.9760  140.2580 O   0  0  0  0  0  1  0  0  0  0  0  0
  189.0180  177.4800  139.3090 N   0  0  0  0  0  0  0  0  0  0  0  0
  190.7640  176.7170  140.5230 O   0  0  0  0  0  0  0  0  0  0  0  0
  187.4220  177.9980  141.5600 C   0  0  0  0  0  3  0  0  0  0  0  0
  187.5900  178.9120  138.1270 O   0  0  0  0  0  0  0  0  0  0  0  0
  187.8580  178.3110  139.2010 C   0  0  0  0  0  0  0  0  0  0  0  0
  188.8300  177.4890  141.7510 C   0  0  1  0  0  3  0  0  0  0  0  0
  188.8720  176.5820  142.9720 C   0  0  0  0  0  2  0  0  0  0  0  0
  190.3400  176.7500  146.4370 C   0  0  0  0  0  2  0  0  0  0  0  0
  189.3710  177.7070  147.0740 C   0  0  0  0  0  3  0  0  0  0  0  0
  188.1990  177.9480  146.4790 C   0  0  0  0  0  3  0  0  0  0  0  0
  189.1020  177.3790  144.2470 C   0  0  1  0  0  3  0  0  0  0  0  0
  187.8880  177.2700  145.1780 C   0  0  0  0  0  2  0  0  0  0  0  0
  190.4260  176.9410  144.9090 C   0  0  1  0  0  3  0  0  0  0  0  0
  190.9070  179.2550  144.1080 C   0  0  0  0  0  1  0  0  0  0  0  0
  191.5170  177.9380  144.5520 C   0  0  0  0  0  2  0  0  0  0  0  0
  190.0810  177.1440  137.1330 C   0  0  0  0  0  2  0  0  0  0  0  0
  188.4890  173.1620  136.9050 C   0  0  0  0  0  3  0  0  0  0  0  0
  189.5290  175.7570  137.0400 C   0  0  0  0  0  0  0  0  0  0  0  0
  190.3840  174.6530  137.1270 C   0  0  0  0  0  3  0  0  0  0  0  0
  189.8640  173.3560  137.0580 C   0  0  0  0  0  3  0  0  0  0  0  0
  187.6320  174.2650  136.8200 C   0  0  0  0  0  3  0  0  0  0  0  0
  188.1510  175.5600  136.8880 C   0  0  0  0  0  3  0  0  0  0  0  0
  1 21  1  6  0  0  0
  1  2  1  0  0  0  0
  1  6  1  0  0  0  0
  2  7  1  0  0  0  0
  3  7  1  1  0  0  0
  3 11  1  0  0  0  0
  4  8  2  0  0  0  0
  5  4  1  0  0  0  0
  6  3  1  0  0  0  0
  8 11  1  0  0  0  0
  9 10  2  0  0  0  0
 10  6  1  0  0  0  0
 10  4  1  0  0  0  0
 11 12  1  1  0  0  0
 13 14  1  0  0  0  0
 15 14  2  0  0  0  0
 16 12  1  6  0  0  0
 16 18  1  0  0  0  0
 16 17  1  0  0  0  0
 17 15  1  0  0  0  0
 18 20  1  1  0  0  0
 18 13  1  0  0  0  0
 19 20  1  0  0  0  0
 22 25  1  0  0  0  0
 23 24  1  0  0  0  0
 23 21  1  0  0  0  0
 25 24  2  0  0  0  0
 26 27  1  0  0  0  0
 26 22  2  0  0  0  0
 27 23  2  0  0  0  0
M  END
>  <MODEL>
8

>  <REMARK>
 VINA RESULT:      -7.9      1.612      2.415
  Name = 
  5 active torsions:
  status: ('A' for Active; 'I' for Inactive)
    1  A    between atoms: C_1  and  C_15
    2  A    between atoms: C_9  and  C_15
    3  A    between atoms: C_12  and  C_14
    4  A    between atoms: C_12  and  C_26
    5  A    between atoms: C_17  and  C_21
                            x       y       z     vdW  Elec       q    Type
                         _______ _______ _______ _____ _____    ______ ____

>  <TORSDO>
F 5

$$$$
=
 OpenBabel11052413553D

 27 30  0  0  1  0  0  0  0  0999 V2000
  187.2320  177.9410  139.1890 C   0  0  2  0  0  3  0  0  0  0  0  0
  186.5930  178.5900  140.2620 O   0  0  0  0  0  0  0  0  0  0  0  0
  188.7390  178.5550  140.7920 C   0  0  1  0  0  3  0  0  0  0  0  0
  190.8870  176.9910  139.6130 C   0  0  0  0  0  0  0  0  0  0  0  0
  192.0300  176.5140  138.9860 O   0  0  0  0  0  1  0  0  0  0  0  0
  188.6320  178.0220  139.4650 N   0  0  0  0  0  0  0  0  0  0  0  0
  187.4300  178.5480  141.3060 O   0  0  0  0  0  0  0  0  0  0  0  0
  190.8990  177.2400  140.9250 C   0  0  0  0  0  3  0  0  0  0  0  0
  189.5320  176.8200  137.6690 O   0  0  0  0  0  0  0  0  0  0  0  0
  189.6650  177.2520  138.8440 C   0  0  0  0  0  0  0  0  0  0  0  0
  189.6540  177.6720  141.6630 C   0  0  1  0  0  3  0  0  0  0  0  0
  190.0570  178.3940  142.9410 C   0  0  0  0  0  2  0  0  0  0  0  0
  189.0830  177.9470  146.5530 C   0  0  0  0  0  2  0  0  0  0  0  0
  190.0540  176.8670  146.9420 C   0  0  0  0  0  3  0  0  0  0  0  0
  191.1080  176.6180  146.1590 C   0  0  0  0  0  3  0  0  0  0  0  0
  189.9470  177.4800  144.1520 C   0  0  1  0  0  3  0  0  0  0  0  0
  191.2840  177.4110  144.8990 C   0  0  0  0  0  2  0  0  0  0  0  0
  188.7680  177.9280  145.0420 C   0  0  1  0  0  3  0  0  0  0  0  0
  186.3620  177.5110  145.5580 C   0  0  0  0  0  1  0  0  0  0  0  0
  187.5630  177.0460  144.7560 C   0  0  0  0  0  2  0  0  0  0  0  0
  186.8860  178.6290  137.8650 C   0  0  0  0  0  2  0  0  0  0  0  0
  184.4260  176.2290  135.2900 C   0  0  0  0  0  3  0  0  0  0  0  0
  186.0340  177.7810  136.9740 C   0  0  0  0  0  0  0  0  0  0  0  0
  184.7490  177.4040  137.3820 C   0  0  0  0  0  3  0  0  0  0  0  0
  183.9460  176.6270  136.5400 C   0  0  0  0  0  3  0  0  0  0  0  0
  185.7090  176.6060  134.8800 C   0  0  0  0  0  3  0  0  0  0  0  0
  186.5110  177.3820  135.7200 C   0  0  0  0  0  3  0  0  0  0  0  0
  1 21  1  6  0  0  0
  1  6  1  0  0  0  0
  1  2  1  0  0  0  0
  2  7  1  0  0  0  0
  3  7  1  1  0  0  0
  3 11  1  0  0  0  0
  4  8  2  0  0  0  0
  5  4  1  0  0  0  0
  6  3  1  0  0  0  0
  8 11  1  0  0  0  0
  9 10  2  0  0  0  0
 10  6  1  0  0  0  0
 10  4  1  0  0  0  0
 11 12  1  1  0  0  0
 13 14  1  0  0  0  0
 15 14  2  0  0  0  0
 16 12  1  6  0  0  0
 16 17  1  0  0  0  0
 16 18  1  0  0  0  0
 17 15  1  0  0  0  0
 18 20  1  1  0  0  0
 18 13  1  0  0  0  0
 20 19  1  0  0  0  0
 22 25  1  0  0  0  0
 23 24  1  0  0  0  0
 23 21  1  0  0  0  0
 25 24  2  0  0  0  0
 26 22  2  0  0  0  0
 26 27  1  0  0  0  0
 27 23  2  0  0  0  0
M  END
>  <MODEL>
9

>  <REMARK>
 VINA RESULT:      -7.9      2.730      4.958
  Name = 
  5 active torsions:
  status: ('A' for Active; 'I' for Inactive)
    1  A    between atoms: C_1  and  C_15
    2  A    between atoms: C_9  and  C_15
    3  A    between atoms: C_12  and  C_14
    4  A    between atoms: C_12  and  C_26
    5  A    between atoms: C_17  and  C_21
                            x       y       z     vdW  Elec       q    Type
                         _______ _______ _______ _____ _____    ______ ____

>  <TORSDO>
F 5

$$$$
