=
 OpenBabel11052414393D

 32 36  0  0  1  0  0  0  0  0999 V2000
  188.3580  177.8950  142.7540 C   0  0  0  0  0  0  0  0  0  0  0  0
  185.5730  178.3530  142.9000 C   0  0  0  0  0  0  0  0  0  0  0  0
  189.8700  177.8290  142.7590 C   0  0  0  0  0  3  0  0  0  0  0  0
  187.6330  178.1250  141.5450 C   0  0  2  0  0  3  0  0  0  0  0  0
  185.4350  178.6210  140.4950 C   0  0  0  0  0  3  0  0  0  0  0  0
  182.0850  178.8350  144.2600 C   0  0  0  0  0  3  0  0  0  0  0  0
  186.2230  178.3670  141.6340 C   0  0  0  0  0  0  0  0  0  0  0  0
  182.0580  179.0800  141.9060 O   0  0  0  0  0  0  0  0  0  0  0  0
  183.4370  178.8420  141.8220 C   0  0  0  0  0  0  0  0  0  0  0  0
  188.3070  178.0850  140.3560 C   0  0  0  0  0  0  0  0  0  0  0  0
  184.0660  178.8550  140.5830 C   0  0  0  0  0  3  0  0  0  0  0  0
  189.7420  177.7340  140.3090 C   0  0  0  0  0  3  0  0  0  0  0  0
  186.3200  178.0950  144.0490 C   0  0  0  0  0  3  0  0  0  0  0  0
  187.6880  177.8590  143.9950 C   0  0  0  0  0  0  0  0  0  0  0  0
  184.1810  178.5920  142.9920 C   0  0  0  0  0  0  0  0  0  0  0  0
  190.4610  177.5820  141.4120 C   0  0  0  0  0  3  0  0  0  0  0  0
  181.3970  179.0720  143.1420 C   0  0  0  0  0  3  0  0  0  0  0  0
  183.5380  178.5860  144.1740 C   0  0  0  0  0  3  0  0  0  0  0  0
  188.4770  177.5820  147.7000 C   0  0  0  0  0  0  0  0  0  0  0  0
  187.8720  177.7990  148.9320 O   0  0  0  0  0  1  0  0  0  0  0  0
  188.3950  177.6010  145.2700 C   0  0  0  0  0  0  0  0  0  0  0  0
  189.7930  177.1160  147.6500 C   0  0  0  0  0  3  0  0  0  0  0  0
  189.7210  177.1460  145.2350 C   0  0  0  0  0  3  0  0  0  0  0  0
  187.7760  177.8340  146.5140 C   0  0  0  0  0  0  0  0  0  0  0  0
  186.4780  178.3310  146.5750 O   0  0  0  0  0  1  0  0  0  0  0  0
  190.4240  176.8990  146.4160 C   0  0  0  0  0  0  0  0  0  0  0  0
  192.3470  175.6630  147.3610 C   0  0  0  0  0  1  0  0  0  0  0  0
  191.7410  176.4390  146.3370 O   0  0  0  0  0  0  0  0  0  0  0  0
  187.6610  178.3370  139.1410 O   0  0  0  0  0  0  0  0  0  0  0  0
  188.0140  177.6810  137.9810 N   0  0  0  0  0  2  0  0  0  0  0  0
  188.0820  178.6870  136.9380 C   0  0  0  0  0  2  0  0  0  0  0  0
  188.9830  179.6830  137.3120 O   0  0  0  0  0  1  0  0  0  0  0  0
  1  3  1  0  0  0  0
  1 14  2  0  0  0  0
  2 15  1  0  0  0  0
  2 13  2  0  0  0  0
  4 10  1  6  0  0  0
  4  7  1  0  0  0  0
  4  1  1  0  0  0  0
  5 11  1  0  0  0  0
  5  7  2  0  0  0  0
  7  2  1  0  0  0  0
  8 17  1  0  0  0  0
  9  8  1  0  0  0  0
  9 15  1  0  0  0  0
 11  9  2  0  0  0  0
 12 10  2  0  0  0  0
 12 16  1  0  0  0  0
 14 13  1  0  0  0  0
 14 21  1  0  0  0  0
 15 18  2  0  0  0  0
 16  3  2  0  0  0  0
 17  6  2  0  0  0  0
 18  6  1  0  0  0  0
 19 20  1  0  0  0  0
 21 24  1  0  0  0  0
 22 19  1  0  0  0  0
 23 21  2  0  0  0  0
 23 26  1  0  0  0  0
 24 25  1  0  0  0  0
 24 19  2  0  0  0  0
 26 22  2  0  0  0  0
 28 26  1  0  0  0  0
 28 27  1  0  0  0  0
 29 10  1  0  0  0  0
 30 29  1  0  0  0  0
 31 32  1  0  0  0  0
 31 30  1  0  0  0  0
M  END
>  <MODEL>
1

>  <REMARK>
 VINA RESULT:     -10.9      0.000      0.000
  Name = 
  5 active torsions:
  status: ('A' for Active; 'I' for Inactive)
    1  A    between atoms: C_13  and  N_18
    2  A    between atoms: C_14  and  O_29
    3  A    between atoms: O_15  and  C_26
    4  A    between atoms: C_16  and  C_27
    5  A    between atoms: N_18  and  O_29
                            x       y       z     vdW  Elec       q    Type
                         _______ _______ _______ _____ _____    ______ ____

>  <TORSDO>
F 5

$$$$
=
 OpenBabel11052414393D

 32 36  0  0  0  0  0  0  0  0999 V2000
  189.3020  177.2040  143.1260 C   0  0  0  0  0  0  0  0  0  0  0  0
  186.6070  177.9480  143.5370 C   0  0  0  0  0  0  0  0  0  0  0  0
  190.6740  176.6360  142.8310 C   0  0  0  0  0  2  0  0  0  0  0  0
  188.7980  177.2600  144.4610 C   0  0  0  0  0  0  0  0  0  0  0  0
  186.8430  177.6920  145.9350 C   0  0  0  0  0  3  0  0  0  0  0  0
  183.0390  178.9970  142.8910 C   0  0  0  0  0  3  0  0  0  0  0  0
  187.4270  177.6280  144.6550 C   0  0  0  0  0  0  0  0  0  0  0  0
  183.3730  178.7170  145.2180 O   0  0  0  0  0  0  0  0  0  0  0  0
  184.7150  178.3590  145.0250 C   0  0  0  0  0  0  0  0  0  0  0  0
  189.6470  176.9820  145.4970 C   0  0  0  0  0  0  0  0  0  0  0  0
  185.5110  178.0500  146.1210 C   0  0  0  0  0  3  0  0  0  0  0  0
  191.0780  176.7040  145.2520 C   0  0  0  0  0  3  0  0  0  0  0  0
  187.1540  177.9050  142.2540 C   0  0  0  0  0  3  0  0  0  0  0  0
  188.4790  177.5500  142.0340 C   0  0  0  0  0  0  0  0  0  0  0  0
  185.2520  178.3110  143.7230 C   0  0  0  0  0  0  0  0  0  0  0  0
  191.5650  176.5760  144.0260 C   0  0  0  0  0  3  0  0  0  0  0  0
  182.5480  179.0350  144.1310 C   0  0  0  0  0  3  0  0  0  0  0  0
  184.4510  178.6180  142.6860 C   0  0  0  0  0  3  0  0  0  0  0  0
  188.7550  178.1400  138.2930 C   0  0  0  0  0  0  0  0  0  0  0  0
  188.0790  178.7940  137.2690 O   0  0  0  0  0  1  0  0  0  0  0  0
  188.9650  177.5280  140.6360 C   0  0  0  0  0  0  0  0  0  0  0  0
  189.9230  177.4310  138.0040 C   0  0  0  0  0  3  0  0  0  0  0  0
  190.1290  176.8090  140.3300 C   0  0  0  0  0  3  0  0  0  0  0  0
  188.2670  178.1850  139.6040 C   0  0  0  0  0  0  0  0  0  0  0  0
  187.0840  178.8670  139.8740 O   0  0  0  0  0  1  0  0  0  0  0  0
  190.6150  176.7570  139.0220 C   0  0  0  0  0  0  0  0  0  0  0  0
  192.8750  176.5770  138.0330 C   0  0  0  0  0  1  0  0  0  0  0  0
  191.7820  176.0350  138.7610 O   0  0  0  0  0  0  0  0  0  0  0  0
  189.2060  176.9860  146.8250 O   0  0  0  0  0  0  0  0  0  0  0  0
  190.0000  177.4490  147.8520 N   0  0  0  0  0  2  0  0  0  0  0  0
  189.2030  178.4100  148.5920 C   0  0  0  0  0  2  0  0  0  0  0  0
  188.0380  177.7940  149.0480 O   0  0  0  0  0  1  0  0  0  0  0  0
  1  4  1  0  0  0  0
  2 15  1  0  0  0  0
  2  7  1  0  0  0  0
  3  1  1  0  0  0  0
  3 16  1  0  0  0  0
  4  7  1  0  0  0  0
  4 10  2  0  0  0  0
  5 11  1  0  0  0  0
  6 17  2  0  0  0  0
  7  5  2  0  0  0  0
  9  8  1  0  0  0  0
  9 11  2  0  0  0  0
 10 29  1  0  0  0  0
 12 10  1  0  0  0  0
 13  2  2  0  0  0  0
 14 13  1  0  0  0  0
 14  1  2  0  0  0  0
 15  9  1  0  0  0  0
 16 12  2  0  0  0  0
 17  8  1  0  0  0  0
 18  6  1  0  0  0  0
 18 15  2  0  0  0  0
 19 24  1  0  0  0  0
 20 19  1  0  0  0  0
 21 14  1  0  0  0  0
 22 19  2  0  0  0  0
 22 26  1  0  0  0  0
 23 21  1  0  0  0  0
 24 25  1  0  0  0  0
 24 21  2  0  0  0  0
 26 23  2  0  0  0  0
 27 28  1  0  0  0  0
 28 26  1  0  0  0  0
 29 30  1  0  0  0  0
 30 31  1  0  0  0  0
 31 32  1  0  0  0  0
M  END
>  <MODEL>
2

>  <REMARK>
 VINA RESULT:     -10.9      2.509      6.387
  Name = 
  5 active torsions:
  status: ('A' for Active; 'I' for Inactive)
    1  A    between atoms: C_13  and  N_18
    2  A    between atoms: C_14  and  O_29
    3  A    between atoms: O_15  and  C_26
    4  A    between atoms: C_16  and  C_27
    5  A    between atoms: N_18  and  O_29
                            x       y       z     vdW  Elec       q    Type
                         _______ _______ _______ _____ _____    ______ ____

>  <TORSDO>
F 5

$$$$
=
 OpenBabel11052414393D

 32 36  0  0  1  0  0  0  0  0999 V2000
  186.3540  178.0630  144.2100 C   0  0  0  0  0  0  0  0  0  0  0  0
  186.8290  178.2240  141.4290 C   0  0  0  0  0  0  0  0  0  0  0  0
  186.1150  177.7800  145.6770 C   0  0  0  0  0  3  0  0  0  0  0  0
  185.2800  178.4420  143.3470 C   0  0  2  0  0  3  0  0  0  0  0  0
  184.5270  178.8560  141.0150 C   0  0  0  0  0  3  0  0  0  0  0  0
  188.5520  178.0940  138.0730 C   0  0  0  0  0  3  0  0  0  0  0  0
  185.5320  178.5090  141.9380 C   0  0  0  0  0  0  0  0  0  0  0  0
  186.2850  178.7050  137.7750 O   0  0  0  0  0  0  0  0  0  0  0  0
  186.0430  178.6400  139.1550 C   0  0  0  0  0  0  0  0  0  0  0  0
  184.0670  178.7450  143.9010 C   0  0  0  0  0  0  0  0  0  0  0  0
  184.7740  178.9210  139.6460 C   0  0  0  0  0  3  0  0  0  0  0  0
  183.8840  178.7560  145.3680 C   0  0  0  0  0  3  0  0  0  0  0  0
  187.8530  177.8860  142.3150 C   0  0  0  0  0  3  0  0  0  0  0  0
  187.6380  177.8110  143.6850 C   0  0  0  0  0  0  0  0  0  0  0  0
  187.0820  178.2880  140.0380 C   0  0  0  0  0  0  0  0  0  0  0  0
  184.8350  178.3450  146.1940 C   0  0  0  0  0  3  0  0  0  0  0  0
  187.5550  178.4270  137.2520 C   0  0  0  0  0  3  0  0  0  0  0  0
  188.2980  178.0230  139.5250 C   0  0  0  0  0  3  0  0  0  0  0  0
  190.9510  176.3840  144.8730 C   0  0  0  0  0  0  0  0  0  0  0  0
  192.0460  175.6880  144.3750 O   0  0  0  0  0  1  0  0  0  0  0  0
  188.7850  177.4370  144.5440 C   0  0  0  0  0  0  0  0  0  0  0  0
  190.9180  176.7390  146.2240 C   0  0  0  0  0  3  0  0  0  0  0  0
  188.7590  177.7760  145.9040 C   0  0  0  0  0  3  0  0  0  0  0  0
  189.8860  176.7220  144.0310 C   0  0  0  0  0  0  0  0  0  0  0  0
  189.9150  176.3340  142.6950 O   0  0  0  0  0  1  0  0  0  0  0  0
  189.8180  177.4350  146.7480 C   0  0  0  0  0  0  0  0  0  0  0  0
  188.5340  178.1290  148.7440 C   0  0  0  0  0  1  0  0  0  0  0  0
  189.7540  177.7980  148.0950 O   0  0  0  0  0  0  0  0  0  0  0  0
  182.9660  179.0880  143.1080 O   0  0  0  0  0  0  0  0  0  0  0  0
  181.6850  179.1150  143.6160 N   0  0  0  0  0  2  0  0  0  0  0  0
  180.8100  179.4780  142.5170 C   0  0  0  0  0  2  0  0  0  0  0  0
  180.1060  180.6350  142.8480 O   0  0  0  0  0  1  0  0  0  0  0  0
  1  3  1  0  0  0  0
  2  7  1  0  0  0  0
  2 13  2  0  0  0  0
  3 16  2  0  0  0  0
  4  7  1  1  0  0  0
  4 10  1  0  0  0  0
  4  1  1  0  0  0  0
  5  7  2  0  0  0  0
  6 18  1  0  0  0  0
  8  9  1  0  0  0  0
  9 11  2  0  0  0  0
  9 15  1  0  0  0  0
 10 12  2  0  0  0  0
 11  5  1  0  0  0  0
 12 16  1  0  0  0  0
 13 14  1  0  0  0  0
 14  1  2  0  0  0  0
 14 21  1  0  0  0  0
 15  2  1  0  0  0  0
 17  8  1  0  0  0  0
 17  6  2  0  0  0  0
 18 15  2  0  0  0  0
 19 22  1  0  0  0  0
 20 19  1  0  0  0  0
 21 23  2  0  0  0  0
 22 26  2  0  0  0  0
 23 26  1  0  0  0  0
 24 21  1  0  0  0  0
 24 19  2  0  0  0  0
 25 24  1  0  0  0  0
 26 28  1  0  0  0  0
 28 27  1  0  0  0  0
 29 30  1  0  0  0  0
 29 10  1  0  0  0  0
 31 32  1  0  0  0  0
 31 30  1  0  0  0  0
M  END
>  <MODEL>
3

>  <REMARK>
 VINA RESULT:     -10.8      2.144      5.326
  Name = 
  5 active torsions:
  status: ('A' for Active; 'I' for Inactive)
    1  A    between atoms: C_13  and  N_18
    2  A    between atoms: C_14  and  O_29
    3  A    between atoms: O_15  and  C_26
    4  A    between atoms: C_16  and  C_27
    5  A    between atoms: N_18  and  O_29
                            x       y       z     vdW  Elec       q    Type
                         _______ _______ _______ _____ _____    ______ ____

>  <TORSDO>
F 5

$$$$
=
 OpenBabel11052414393D

 32 36  0  0  0  0  0  0  0  0999 V2000
  188.0260  177.8390  141.4430 C   0  0  0  0  0  0  0  0  0  0  0  0
  189.3560  177.2220  143.8590 C   0  0  0  0  0  0  0  0  0  0  0  0
  187.4390  178.3220  140.1340 C   0  0  0  0  0  2  0  0  0  0  0  0
  187.3430  178.0490  142.6800 C   0  0  0  0  0  0  0  0  0  0  0  0
  187.4420  177.9370  145.1610 C   0  0  0  0  0  3  0  0  0  0  0  0
  192.0000  176.1110  146.3130 C   0  0  0  0  0  3  0  0  0  0  0  0
  188.0330  177.7430  143.8990 C   0  0  0  0  0  0  0  0  0  0  0  0
  190.0800  176.8340  147.4920 O   0  0  0  0  0  0  0  0  0  0  0  0
  189.4070  177.1320  146.2990 C   0  0  0  0  0  0  0  0  0  0  0  0
  186.0560  178.5130  142.6510 C   0  0  0  0  0  0  0  0  0  0  0  0
  188.1140  177.6380  146.3430 C   0  0  0  0  0  3  0  0  0  0  0  0
  185.3540  178.7200  141.3670 C   0  0  0  0  0  3  0  0  0  0  0  0
  189.9700  177.0070  142.6250 C   0  0  0  0  0  3  0  0  0  0  0  0
  189.3270  177.2970  141.4280 C   0  0  0  0  0  0  0  0  0  0  0  0
  190.0420  176.9190  145.0600 C   0  0  0  0  0  0  0  0  0  0  0  0
  185.9760  178.6020  140.2020 C   0  0  0  0  0  3  0  0  0  0  0  0
  191.3840  176.3210  147.4770 C   0  0  0  0  0  3  0  0  0  0  0  0
  191.2940  176.4260  145.0560 C   0  0  0  0  0  3  0  0  0  0  0  0
  192.1280  176.9190  138.8910 C   0  0  0  0  0  0  0  0  0  0  0  0
  193.5110  177.0300  138.8130 O   0  0  0  0  0  1  0  0  0  0  0  0
  190.0640  177.0410  140.1690 C   0  0  0  0  0  0  0  0  0  0  0  0
  191.4010  176.5640  137.7520 C   0  0  0  0  0  3  0  0  0  0  0  0
  189.3450  176.6970  139.0160 C   0  0  0  0  0  3  0  0  0  0  0  0
  191.4660  177.1660  140.0990 C   0  0  0  0  0  0  0  0  0  0  0  0
  192.1980  177.5510  141.2180 O   0  0  0  0  0  1  0  0  0  0  0  0
  190.0030  176.4550  137.8080 C   0  0  0  0  0  0  0  0  0  0  0  0
  189.1690  176.9330  135.5290 C   0  0  0  0  0  1  0  0  0  0  0  0
  189.2490  176.1090  136.6830 O   0  0  0  0  0  0  0  0  0  0  0  0
  185.3460  178.7730  143.8280 O   0  0  0  0  0  0  0  0  0  0  0  0
  184.1790  179.5070  143.8240 N   0  0  0  0  0  2  0  0  0  0  0  0
  183.3590  178.9880  144.9030 C   0  0  0  0  0  2  0  0  0  0  0  0
  184.1250  178.8950  146.0640 O   0  0  0  0  0  1  0  0  0  0  0  0
  1  4  1  0  0  0  0
  2  7  1  0  0  0  0
  2 15  1  0  0  0  0
  3 16  1  0  0  0  0
  3  1  1  0  0  0  0
  4  7  1  0  0  0  0
  5 11  1  0  0  0  0
  6 17  2  0  0  0  0
  7  5  2  0  0  0  0
  9 11  2  0  0  0  0
  9  8  1  0  0  0  0
 10  4  2  0  0  0  0
 10 29  1  0  0  0  0
 12 10  1  0  0  0  0
 13  2  2  0  0  0  0
 14  1  2  0  0  0  0
 14 13  1  0  0  0  0
 15  9  1  0  0  0  0
 16 12  2  0  0  0  0
 17  8  1  0  0  0  0
 18 15  2  0  0  0  0
 18  6  1  0  0  0  0
 19 24  1  0  0  0  0
 20 19  1  0  0  0  0
 21 14  1  0  0  0  0
 22 26  1  0  0  0  0
 22 19  2  0  0  0  0
 23 21  1  0  0  0  0
 24 21  2  0  0  0  0
 24 25  1  0  0  0  0
 26 23  2  0  0  0  0
 27 28  1  0  0  0  0
 28 26  1  0  0  0  0
 30 29  1  0  0  0  0
 30 31  1  0  0  0  0
 31 32  1  0  0  0  0
M  END
>  <MODEL>
4

>  <REMARK>
 VINA RESULT:     -10.6      2.477      7.513
  Name = 
  5 active torsions:
  status: ('A' for Active; 'I' for Inactive)
    1  A    between atoms: C_13  and  N_18
    2  A    between atoms: C_14  and  O_29
    3  A    between atoms: O_15  and  C_26
    4  A    between atoms: C_16  and  C_27
    5  A    between atoms: N_18  and  O_29
                            x       y       z     vdW  Elec       q    Type
                         _______ _______ _______ _____ _____    ______ ____

>  <TORSDO>
F 5

$$$$
=
 OpenBabel11052414393D

 32 36  0  0  1  0  0  0  0  0999 V2000
  185.3360  178.4120  143.9920 C   0  0  0  0  0  0  0  0  0  0  0  0
  187.6720  177.8890  142.4920 C   0  0  0  0  0  0  0  0  0  0  0  0
  184.1020  178.8800  144.7330 C   0  0  0  0  0  3  0  0  0  0  0  0
  186.5550  178.1420  144.6860 C   0  0  2  0  0  3  0  0  0  0  0  0
  188.9820  177.6310  144.5140 C   0  0  0  0  0  3  0  0  0  0  0  0
  190.0270  177.3730  139.5870 C   0  0  0  0  0  3  0  0  0  0  0  0
  187.7350  177.8890  143.9130 C   0  0  0  0  0  0  0  0  0  0  0  0
  191.2160  177.1420  141.6200 O   0  0  0  0  0  0  0  0  0  0  0  0
  190.0600  177.3890  142.3740 C   0  0  0  0  0  0  0  0  0  0  0  0
  186.5420  178.1140  146.0530 C   0  0  0  0  0  0  0  0  0  0  0  0
  190.1260  177.3850  143.7620 C   0  0  0  0  0  3  0  0  0  0  0  0
  185.2790  178.2840  146.8040 C   0  0  0  0  0  3  0  0  0  0  0  0
  186.4520  178.1310  141.8610 C   0  0  0  0  0  3  0  0  0  0  0  0
  185.2920  178.3820  142.5830 C   0  0  0  0  0  0  0  0  0  0  0  0
  188.8360  177.6400  141.7240 C   0  0  0  0  0  0  0  0  0  0  0  0
  184.1440  178.6040  146.1990 C   0  0  0  0  0  3  0  0  0  0  0  0
  191.1780  177.1380  140.2200 C   0  0  0  0  0  3  0  0  0  0  0  0
  188.8090  177.6350  140.3790 C   0  0  0  0  0  3  0  0  0  0  0  0
  182.8780  179.3790  139.8260 C   0  0  0  0  0  0  0  0  0  0  0  0
  182.8970  179.8780  138.5290 O   0  0  0  0  0  1  0  0  0  0  0  0
  184.0470  178.6340  141.8240 C   0  0  0  0  0  0  0  0  0  0  0  0
  181.6540  179.1110  140.4440 C   0  0  0  0  0  3  0  0  0  0  0  0
  182.8110  178.3830  142.4360 C   0  0  0  0  0  3  0  0  0  0  0  0
  184.0770  179.1500  140.5130 C   0  0  0  0  0  0  0  0  0  0  0  0
  185.2890  179.4510  139.8990 O   0  0  0  0  0  1  0  0  0  0  0  0
  181.6140  178.6150  141.7550 C   0  0  0  0  0  0  0  0  0  0  0  0
  180.2250  178.5170  143.7990 C   0  0  0  0  0  1  0  0  0  0  0  0
  180.4040  178.3450  142.4000 O   0  0  0  0  0  0  0  0  0  0  0  0
  187.7090  177.8900  146.7920 O   0  0  0  0  0  0  0  0  0  0  0  0
  187.7940  178.2080  148.1300 N   0  0  0  0  0  2  0  0  0  0  0  0
  189.2050  178.1920  148.4720 C   0  0  0  0  0  2  0  0  0  0  0  0
  189.8480  177.1960  147.7390 O   0  0  0  0  0  1  0  0  0  0  0  0
  1  4  1  0  0  0  0
  1  3  1  0  0  0  0
  2  7  1  0  0  0  0
  3 16  2  0  0  0  0
  4  7  1  6  0  0  0
  4 10  1  0  0  0  0
  6 17  2  0  0  0  0
  6 18  1  0  0  0  0
  7  5  2  0  0  0  0
  8  9  1  0  0  0  0
  9 11  2  0  0  0  0
 10 29  1  0  0  0  0
 10 12  2  0  0  0  0
 11  5  1  0  0  0  0
 13  2  2  0  0  0  0
 13 14  1  0  0  0  0
 14  1  2  0  0  0  0
 15  9  1  0  0  0  0
 15  2  1  0  0  0  0
 16 12  1  0  0  0  0
 17  8  1  0  0  0  0
 18 15  2  0  0  0  0
 19 22  2  0  0  0  0
 19 24  1  0  0  0  0
 20 19  1  0  0  0  0
 21 23  1  0  0  0  0
 21 14  1  0  0  0  0
 22 26  1  0  0  0  0
 24 21  2  0  0  0  0
 25 24  1  0  0  0  0
 26 28  1  0  0  0  0
 26 23  2  0  0  0  0
 28 27  1  0  0  0  0
 29 30  1  0  0  0  0
 30 31  1  0  0  0  0
 32 31  1  0  0  0  0
M  END
>  <MODEL>
5

>  <REMARK>
 VINA RESULT:     -10.6      2.542      8.093
  Name = 
  5 active torsions:
  status: ('A' for Active; 'I' for Inactive)
    1  A    between atoms: C_13  and  N_18
    2  A    between atoms: C_14  and  O_29
    3  A    between atoms: O_15  and  C_26
    4  A    between atoms: C_16  and  C_27
    5  A    between atoms: N_18  and  O_29
                            x       y       z     vdW  Elec       q    Type
                         _______ _______ _______ _____ _____    ______ ____

>  <TORSDO>
F 5

$$$$
=
 OpenBabel11052414393D

 32 36  0  0  0  0  0  0  0  0999 V2000
  185.9770  178.2920  141.9520 C   0  0  0  0  0  0  0  0  0  0  0  0
  187.0310  178.0110  144.5580 C   0  0  0  0  0  0  0  0  0  0  0  0
  185.5090  178.6170  140.5490 C   0  0  0  0  0  2  0  0  0  0  0  0
  185.0940  178.4050  143.0680 C   0  0  0  0  0  0  0  0  0  0  0  0
  184.8490  178.3850  145.5420 C   0  0  0  0  0  3  0  0  0  0  0  0
  189.4480  177.4960  147.4120 C   0  0  0  0  0  3  0  0  0  0  0  0
  185.6430  178.2710  144.3860 C   0  0  0  0  0  0  0  0  0  0  0  0
  187.2750  177.8730  148.2730 O   0  0  0  0  0  0  0  0  0  0  0  0
  186.7410  178.0030  146.9830 C   0  0  0  0  0  0  0  0  0  0  0  0
  183.7620  178.6130  142.8360 C   0  0  0  0  0  0  0  0  0  0  0  0
  185.3840  178.2540  146.8200 C   0  0  0  0  0  3  0  0  0  0  0  0
  183.2290  178.6460  141.4580 C   0  0  0  0  0  3  0  0  0  0  0  0
  187.8480  177.8810  143.4340 C   0  0  0  0  0  3  0  0  0  0  0  0
  187.3450  178.0080  142.1460 C   0  0  0  0  0  0  0  0  0  0  0  0
  187.5780  177.8790  145.8570 C   0  0  0  0  0  0  0  0  0  0  0  0
  184.0250  178.6140  140.3990 C   0  0  0  0  0  3  0  0  0  0  0  0
  188.6390  177.6180  148.4660 C   0  0  0  0  0  3  0  0  0  0  0  0
  188.8870  177.6330  146.0530 C   0  0  0  0  0  3  0  0  0  0  0  0
  190.2700  176.8750  140.0050 C   0  0  0  0  0  0  0  0  0  0  0  0
  191.3530  176.0060  140.0640 O   0  0  0  0  0  1  0  0  0  0  0  0
  188.2920  177.8610  141.0180 C   0  0  0  0  0  0  0  0  0  0  0  0
  190.0630  177.6420  138.8560 C   0  0  0  0  0  3  0  0  0  0  0  0
  188.1040  178.6340  139.8640 C   0  0  0  0  0  3  0  0  0  0  0  0
  189.3930  176.9850  141.0910 C   0  0  0  0  0  0  0  0  0  0  0  0
  189.6280  176.2410  142.2440 O   0  0  0  0  0  1  0  0  0  0  0  0
  188.9800  178.5300  138.7810 C   0  0  0  0  0  0  0  0  0  0  0  0
  187.7720  178.9890  136.6730 C   0  0  0  0  0  1  0  0  0  0  0  0
  188.7530  179.3150  137.6470 O   0  0  0  0  0  0  0  0  0  0  0  0
  182.8520  178.7680  143.8870 O   0  0  0  0  0  0  0  0  0  0  0  0
  181.6080  179.3300  143.6940 N   0  0  0  0  0  2  0  0  0  0  0  0
  180.6340  178.2920  143.9760 C   0  0  0  0  0  2  0  0  0  0  0  0
  179.4310  178.8790  144.3640 O   0  0  0  0  0  1  0  0  0  0  0  0
  1 14  2  0  0  0  0
  1  4  1  0  0  0  0
  2 15  1  0  0  0  0
  3  1  1  0  0  0  0
  4  7  1  0  0  0  0
  5 11  1  0  0  0  0
  6 17  2  0  0  0  0
  7  2  1  0  0  0  0
  7  5  2  0  0  0  0
  8 17  1  0  0  0  0
  9  8  1  0  0  0  0
 10  4  2  0  0  0  0
 10 29  1  0  0  0  0
 11  9  2  0  0  0  0
 12 10  1  0  0  0  0
 13  2  2  0  0  0  0
 14 13  1  0  0  0  0
 15 18  2  0  0  0  0
 15  9  1  0  0  0  0
 16  3  1  0  0  0  0
 16 12  2  0  0  0  0
 18  6  1  0  0  0  0
 19 20  1  0  0  0  0
 19 24  1  0  0  0  0
 21 24  2  0  0  0  0
 21 14  1  0  0  0  0
 22 19  2  0  0  0  0
 23 21  1  0  0  0  0
 24 25  1  0  0  0  0
 26 22  1  0  0  0  0
 26 23  2  0  0  0  0
 27 28  1  0  0  0  0
 28 26  1  0  0  0  0
 30 29  1  0  0  0  0
 30 31  1  0  0  0  0
 31 32  1  0  0  0  0
M  END
>  <MODEL>
6

>  <REMARK>
 VINA RESULT:     -10.2      2.238      7.013
  Name = 
  5 active torsions:
  status: ('A' for Active; 'I' for Inactive)
    1  A    between atoms: C_13  and  N_18
    2  A    between atoms: C_14  and  O_29
    3  A    between atoms: O_15  and  C_26
    4  A    between atoms: C_16  and  C_27
    5  A    between atoms: N_18  and  O_29
                            x       y       z     vdW  Elec       q    Type
                         _______ _______ _______ _____ _____    ______ ____

>  <TORSDO>
F 5

$$$$
=
 OpenBabel11052414393D

 32 36  0  0  1  0  0  0  0  0999 V2000
  187.8090  177.8750  143.6000 C   0  0  0  0  0  0  0  0  0  0  0  0
  189.3770  177.5060  141.2790 C   0  0  0  0  0  0  0  0  0  0  0  0
  186.9700  177.8750  144.8600 C   0  0  0  0  0  3  0  0  0  0  0  0
  187.2230  178.1340  142.3240 C   0  0  2  0  0  3  0  0  0  0  0  0
  187.5240  178.1460  139.8560 C   0  0  0  0  0  3  0  0  0  0  0  0
  192.2780  176.6940  139.0030 C   0  0  0  0  0  3  0  0  0  0  0  0
  188.0260  177.9320  141.1530 C   0  0  0  0  0  0  0  0  0  0  0  0
  190.4060  177.3340  137.7030 O   0  0  0  0  0  0  0  0  0  0  0  0
  189.6240  177.5310  138.8490 C   0  0  0  0  0  0  0  0  0  0  0  0
  185.9320  178.5820  142.2710 C   0  0  0  0  0  0  0  0  0  0  0  0
  188.3050  177.9500  138.7210 C   0  0  0  0  0  3  0  0  0  0  0  0
  185.1780  178.8690  143.5090 C   0  0  0  0  0  3  0  0  0  0  0  0
  189.9130  177.2930  142.5490 C   0  0  0  0  0  3  0  0  0  0  0  0
  189.1580  177.4780  143.7010 C   0  0  0  0  0  0  0  0  0  0  0  0
  190.1740  177.3040  140.1260 C   0  0  0  0  0  0  0  0  0  0  0  0
  185.6630  178.5770  144.7080 C   0  0  0  0  0  3  0  0  0  0  0  0
  191.7390  176.9130  137.8020 C   0  0  0  0  0  3  0  0  0  0  0  0
  191.4550  176.9000  140.2110 C   0  0  0  0  0  3  0  0  0  0  0  0
  191.5190  176.1410  146.3600 C   0  0  0  0  0  0  0  0  0  0  0  0
  192.6240  175.3060  146.4740 O   0  0  0  0  0  1  0  0  0  0  0  0
  189.8130  177.2200  145.0040 C   0  0  0  0  0  0  0  0  0  0  0  0
  190.9970  176.7540  147.5020 C   0  0  0  0  0  3  0  0  0  0  0  0
  189.2920  177.8180  146.1600 C   0  0  0  0  0  3  0  0  0  0  0  0
  190.9270  176.3640  145.1100 C   0  0  0  0  0  0  0  0  0  0  0  0
  191.4350  175.7220  143.9850 O   0  0  0  0  0  1  0  0  0  0  0  0
  189.8770  177.5930  147.4080 C   0  0  0  0  0  0  0  0  0  0  0  0
  187.9350  178.2160  148.8080 C   0  0  0  0  0  1  0  0  0  0  0  0
  189.3290  178.2140  148.5340 O   0  0  0  0  0  0  0  0  0  0  0  0
  185.2900  178.8210  141.0510 O   0  0  0  0  0  0  0  0  0  0  0  0
  183.9160  178.8290  140.9430 N   0  0  0  0  0  2  0  0  0  0  0  0
  183.6100  179.1080  139.5520 C   0  0  0  0  0  2  0  0  0  0  0  0
  184.4400  180.1290  139.0910 O   0  0  0  0  0  1  0  0  0  0  0  0
  1 14  2  0  0  0  0
  1  3  1  0  0  0  0
  2 13  2  0  0  0  0
  4  7  1  1  0  0  0
  4  1  1  0  0  0  0
  5  7  2  0  0  0  0
  6 18  1  0  0  0  0
  7  2  1  0  0  0  0
  8 17  1  0  0  0  0
  8  9  1  0  0  0  0
  9 15  1  0  0  0  0
 10  4  1  0  0  0  0
 10 12  2  0  0  0  0
 11  9  2  0  0  0  0
 11  5  1  0  0  0  0
 12 16  1  0  0  0  0
 13 14  1  0  0  0  0
 14 21  1  0  0  0  0
 15 18  2  0  0  0  0
 15  2  1  0  0  0  0
 16  3  2  0  0  0  0
 17  6  2  0  0  0  0
 19 20  1  0  0  0  0
 19 22  1  0  0  0  0
 21 24  1  0  0  0  0
 21 23  2  0  0  0  0
 23 26  1  0  0  0  0
 24 19  2  0  0  0  0
 25 24  1  0  0  0  0
 26 22  2  0  0  0  0
 26 28  1  0  0  0  0
 28 27  1  0  0  0  0
 29 10  1  0  0  0  0
 30 29  1  0  0  0  0
 31 30  1  0  0  0  0
 32 31  1  0  0  0  0
M  END
>  <MODEL>
7

>  <REMARK>
 VINA RESULT:     -10.1      2.023      5.412
  Name = 
  5 active torsions:
  status: ('A' for Active; 'I' for Inactive)
    1  A    between atoms: C_13  and  N_18
    2  A    between atoms: C_14  and  O_29
    3  A    between atoms: O_15  and  C_26
    4  A    between atoms: C_16  and  C_27
    5  A    between atoms: N_18  and  O_29
                            x       y       z     vdW  Elec       q    Type
                         _______ _______ _______ _____ _____    ______ ____

>  <TORSDO>
F 5

$$$$
=
 OpenBabel11052414393D

 32 36  0  0  0  0  0  0  0  0999 V2000
  188.2020  177.8350  143.1070 C   0  0  0  0  0  0  0  0  0  0  0  0
  185.4230  178.3410  143.0400 C   0  0  0  0  0  0  0  0  0  0  0  0
  189.6470  177.3840  143.0720 C   0  0  0  0  0  2  0  0  0  0  0  0
  187.4880  177.9230  144.3400 C   0  0  0  0  0  0  0  0  0  0  0  0
  185.2920  178.2540  145.4580 C   0  0  0  0  0  3  0  0  0  0  0  0
  181.9290  179.0010  141.7740 C   0  0  0  0  0  3  0  0  0  0  0  0
  186.0760  178.1690  144.2920 C   0  0  0  0  0  0  0  0  0  0  0  0
  181.9070  178.8970  144.1380 O   0  0  0  0  0  0  0  0  0  0  0  0
  183.2880  178.6570  144.1820 C   0  0  0  0  0  0  0  0  0  0  0  0
  188.1790  177.7910  145.5130 C   0  0  0  0  0  0  0  0  0  0  0  0
  183.9210  178.4930  145.4090 C   0  0  0  0  0  3  0  0  0  0  0  0
  189.6490  177.6370  145.5130 C   0  0  0  0  0  3  0  0  0  0  0  0
  186.1700  178.2730  141.8640 C   0  0  0  0  0  3  0  0  0  0  0  0
  187.5390  178.0340  141.8790 C   0  0  0  0  0  0  0  0  0  0  0  0
  184.0290  178.5830  142.9870 C   0  0  0  0  0  0  0  0  0  0  0  0
  190.3360  177.4830  144.3910 C   0  0  0  0  0  3  0  0  0  0  0  0
  181.2430  179.0670  142.9160 C   0  0  0  0  0  3  0  0  0  0  0  0
  183.3830  178.7480  141.8180 C   0  0  0  0  0  3  0  0  0  0  0  0
  188.2830  178.2050  138.1590 C   0  0  0  0  0  0  0  0  0  0  0  0
  187.6450  178.5100  136.9620 O   0  0  0  0  0  1  0  0  0  0  0  0
  188.2440  177.9740  140.5790 C   0  0  0  0  0  0  0  0  0  0  0  0
  189.6260  177.8200  138.1450 C   0  0  0  0  0  3  0  0  0  0  0  0
  189.5880  177.5770  140.5480 C   0  0  0  0  0  3  0  0  0  0  0  0
  187.5840  178.2750  139.3700 C   0  0  0  0  0  0  0  0  0  0  0  0
  186.2380  178.6270  139.3690 O   0  0  0  0  0  1  0  0  0  0  0  0
  190.2850  177.5000  139.3410 C   0  0  0  0  0  0  0  0  0  0  0  0
  192.4360  177.1890  140.5200 C   0  0  0  0  0  1  0  0  0  0  0  0
  191.6250  177.1060  139.3560 O   0  0  0  0  0  0  0  0  0  0  0  0
  187.5320  177.8330  146.7530 O   0  0  0  0  0  0  0  0  0  0  0  0
  188.0320  177.1740  147.8550 N   0  0  0  0  0  2  0  0  0  0  0  0
  188.3320  178.1910  148.8460 C   0  0  0  0  0  2  0  0  0  0  0  0
  189.7090  178.4020  148.8920 O   0  0  0  0  0  1  0  0  0  0  0  0
  1  4  1  0  0  0  0
  2  7  1  0  0  0  0
  3  1  1  0  0  0  0
  3 16  1  0  0  0  0
  4 10  2  0  0  0  0
  6 18  1  0  0  0  0
  6 17  2  0  0  0  0
  7  4  1  0  0  0  0
  7  5  2  0  0  0  0
  8  9  1  0  0  0  0
  9 11  2  0  0  0  0
 10 29  1  0  0  0  0
 11  5  1  0  0  0  0
 12 10  1  0  0  0  0
 13 14  1  0  0  0  0
 13  2  2  0  0  0  0
 14  1  2  0  0  0  0
 15  2  1  0  0  0  0
 15  9  1  0  0  0  0
 16 12  2  0  0  0  0
 17  8  1  0  0  0  0
 18 15  2  0  0  0  0
 19 24  1  0  0  0  0
 20 19  1  0  0  0  0
 21 14  1  0  0  0  0
 22 19  2  0  0  0  0
 22 26  1  0  0  0  0
 23 21  1  0  0  0  0
 24 21  2  0  0  0  0
 25 24  1  0  0  0  0
 26 28  1  0  0  0  0
 26 23  2  0  0  0  0
 28 27  1  0  0  0  0
 29 30  1  0  0  0  0
 30 31  1  0  0  0  0
 31 32  1  0  0  0  0
M  END
>  <MODEL>
8

>  <REMARK>
 VINA RESULT:     -10.0      2.258      6.163
  Name = 
  5 active torsions:
  status: ('A' for Active; 'I' for Inactive)
    1  A    between atoms: C_13  and  N_18
    2  A    between atoms: C_14  and  O_29
    3  A    between atoms: O_15  and  C_26
    4  A    between atoms: C_16  and  C_27
    5  A    between atoms: N_18  and  O_29
                            x       y       z     vdW  Elec       q    Type
                         _______ _______ _______ _____ _____    ______ ____

>  <TORSDO>
F 5

$$$$
=
 OpenBabel11052414393D

 32 36  0  0  0  0  0  0  0  0999 V2000
  187.7990  177.9340  141.4120 C   0  0  0  0  0  0  0  0  0  0  0  0
  189.2610  177.3740  143.7650 C   0  0  0  0  0  0  0  0  0  0  0  0
  186.9260  178.0600  140.1820 C   0  0  0  0  0  2  0  0  0  0  0  0
  189.1860  177.6110  141.3020 C   0  0  0  0  0  0  0  0  0  0  0  0
  191.2780  176.9730  142.4840 C   0  0  0  0  0  3  0  0  0  0  0  0
  190.1380  176.8260  147.3950 C   0  0  0  0  0  3  0  0  0  0  0  0
  189.9140  177.3180  142.5020 C   0  0  0  0  0  0  0  0  0  0  0  0
  192.0530  176.4550  146.0530 O   0  0  0  0  0  0  0  0  0  0  0  0
  191.3390  176.7430  144.8810 C   0  0  0  0  0  0  0  0  0  0  0  0
  189.7670  177.6150  140.0630 C   0  0  0  0  0  0  0  0  0  0  0  0
  191.9820  176.6900  143.6500 C   0  0  0  0  0  3  0  0  0  0  0  0
  188.9990  178.0200  138.8670 C   0  0  0  0  0  3  0  0  0  0  0  0
  187.9110  177.7220  143.8230 C   0  0  0  0  0  3  0  0  0  0  0  0
  187.1800  178.0090  142.6760 C   0  0  0  0  0  0  0  0  0  0  0  0
  189.9740  177.0850  144.9530 C   0  0  0  0  0  0  0  0  0  0  0  0
  187.6960  178.2590  138.9200 C   0  0  0  0  0  3  0  0  0  0  0  0
  191.4300  176.5030  147.3070 C   0  0  0  0  0  3  0  0  0  0  0  0
  189.3850  177.1280  146.1620 C   0  0  0  0  0  3  0  0  0  0  0  0
  183.8450  178.9630  144.2240 C   0  0  0  0  0  0  0  0  0  0  0  0
  183.2960  179.2460  145.4690 O   0  0  0  0  0  1  0  0  0  0  0  0
  185.7510  178.3620  142.8390 C   0  0  0  0  0  0  0  0  0  0  0  0
  183.0340  179.0020  143.0870 C   0  0  0  0  0  3  0  0  0  0  0  0
  184.9220  178.3920  141.7090 C   0  0  0  0  0  3  0  0  0  0  0  0
  185.2020  178.6360  144.1070 C   0  0  0  0  0  0  0  0  0  0  0  0
  185.9930  178.5670  145.2500 O   0  0  0  0  0  1  0  0  0  0  0  0
  183.5680  178.7130  141.8230 C   0  0  0  0  0  0  0  0  0  0  0  0
  183.2450  179.2550  139.4320 C   0  0  0  0  0  1  0  0  0  0  0  0
  182.7790  178.7370  140.6700 O   0  0  0  0  0  0  0  0  0  0  0  0
  191.1120  177.2730  139.8850 O   0  0  0  0  0  0  0  0  0  0  0  0
  191.5710  176.7250  138.7070 N   0  0  0  0  0  2  0  0  0  0  0  0
  193.0190  176.6950  138.7990 C   0  0  0  0  0  2  0  0  0  0  0  0
  193.4330  177.5030  139.8580 O   0  0  0  0  0  1  0  0  0  0  0  0
  1 14  2  0  0  0  0
  2 13  2  0  0  0  0
  2 15  1  0  0  0  0
  3  1  1  0  0  0  0
  4  1  1  0  0  0  0
  4  7  1  0  0  0  0
  5  7  2  0  0  0  0
  5 11  1  0  0  0  0
  7  2  1  0  0  0  0
  8 17  1  0  0  0  0
  9 15  1  0  0  0  0
  9  8  1  0  0  0  0
 10  4  2  0  0  0  0
 11  9  2  0  0  0  0
 12 16  2  0  0  0  0
 12 10  1  0  0  0  0
 14 21  1  0  0  0  0
 14 13  1  0  0  0  0
 15 18  2  0  0  0  0
 16  3  1  0  0  0  0
 17  6  2  0  0  0  0
 18  6  1  0  0  0  0
 19 20  1  0  0  0  0
 21 24  2  0  0  0  0
 22 19  2  0  0  0  0
 23 26  2  0  0  0  0
 23 21  1  0  0  0  0
 24 19  1  0  0  0  0
 24 25  1  0  0  0  0
 26 22  1  0  0  0  0
 27 28  1  0  0  0  0
 28 26  1  0  0  0  0
 29 10  1  0  0  0  0
 30 31  1  0  0  0  0
 30 29  1  0  0  0  0
 31 32  1  0  0  0  0
M  END
>  <MODEL>
9

>  <REMARK>
 VINA RESULT:      -9.7      1.962      6.424
  Name = 
  5 active torsions:
  status: ('A' for Active; 'I' for Inactive)
    1  A    between atoms: C_13  and  N_18
    2  A    between atoms: C_14  and  O_29
    3  A    between atoms: O_15  and  C_26
    4  A    between atoms: C_16  and  C_27
    5  A    between atoms: N_18  and  O_29
                            x       y       z     vdW  Elec       q    Type
                         _______ _______ _______ _____ _____    ______ ____

>  <TORSDO>
F 5

$$$$
