=
 OpenBabel11052413403D

 27 31  0  0  1  0  0  0  0  0999 V2000
  187.4170  176.9800  143.1870 C   0  0  0  0  0  2  0  0  0  0  0  0
  188.2240  177.9370  141.0920 N   0  0  0  0  0  0  0  0  0  0  0  0
  190.4240  177.7950  142.3680 N   0  0  0  0  0  2  0  0  0  0  0  0
  190.2500  175.8300  137.5590 C   0  0  0  0  0  3  0  0  0  0  0  0
  192.5260  175.2910  137.8260 O   0  0  0  0  0  1  0  0  0  0  0  0
  187.8060  177.4930  139.8530 O   0  0  0  0  0  0  0  0  0  0  0  0
  191.3960  176.5050  139.7060 C   0  0  0  0  0  0  0  0  0  0  0  0
  192.0590  178.2990  144.9340 N   0  0  0  0  0  0  0  0  0  0  0  0
  192.4270  177.6200  139.7300 C   0  0  0  0  0  1  0  0  0  0  0  0
  191.5490  177.0210  145.3620 C   0  0  0  0  0  3  0  0  0  0  0  0
  190.0470  177.0490  140.0780 C   0  0  0  0  0  0  0  0  0  0  0  0
  187.3340  178.1550  142.2240 C   0  0  1  0  0  3  0  0  0  0  0  0
  191.3630  175.8680  138.3220 C   0  0  0  0  0  0  0  0  0  0  0  0
  188.9540  176.3920  138.0080 C   0  0  0  0  0  3  0  0  0  0  0  0
  187.8840  177.4830  144.5380 C   0  0  0  0  0  2  0  0  0  0  0  0
  189.6190  177.6210  141.1970 C   0  0  0  0  0  0  0  0  0  0  0  0
  191.3890  179.0790  144.1270 C   0  0  0  0  0  3  0  0  0  0  0  0
  188.9030  176.9550  139.2070 C   0  0  1  0  0  3  0  0  0  0  0  0
  190.2560  176.7220  145.1930 C   0  0  0  0  0  3  0  0  0  0  0  0
  189.3810  177.7920  144.6170 C   0  0  1  0  0  3  0  0  0  0  0  0
  190.0870  178.6190  143.5260 C   0  0  2  0  0  3  0  0  0  0  0  0
  183.2840  178.9940  141.0500 C   0  0  0  0  0  3  0  0  0  0  0  0
  185.9270  178.4390  141.7920 C   0  0  0  0  0  0  0  0  0  0  0  0
  184.8870  178.2620  142.7110 C   0  0  0  0  0  3  0  0  0  0  0  0
  183.5670  178.5370  142.3400 C   0  0  0  0  0  3  0  0  0  0  0  0
  184.3190  179.1780  140.1300 C   0  0  0  0  0  3  0  0  0  0  0  0
  185.6390  178.9030  140.5000 C   0  0  0  0  0  3  0  0  0  0  0  0
  1 15  1  0  0  0  0
  2 16  1  0  0  0  0
  2 12  1  0  0  0  0
  3 21  1  0  0  0  0
  4 14  2  0  0  0  0
  4 13  1  0  0  0  0
  5 13  1  0  0  0  0
  6  2  1  0  0  0  0
  7  9  1  0  0  0  0
  7 11  1  0  0  0  0
  8 10  1  0  0  0  0
 11 16  2  0  0  0  0
 12 23  1  6  0  0  0
 12  1  1  0  0  0  0
 13  7  2  0  0  0  0
 16  3  1  0  0  0  0
 17  8  2  0  0  0  0
 18 14  1  1  0  0  0
 18  6  1  0  0  0  0
 18 11  1  0  0  0  0
 19 10  2  0  0  0  0
 20 15  1  6  0  0  0
 20 19  1  0  0  0  0
 21 17  1  1  0  0  0
 21 20  1  0  0  0  0
 22 25  1  0  0  0  0
 23 24  1  0  0  0  0
 25 24  2  0  0  0  0
 26 27  1  0  0  0  0
 26 22  2  0  0  0  0
 27 23  2  0  0  0  0
M  END
>  <MODEL>
1

>  <REMARK>
 VINA RESULT:      -8.6      0.000      0.000
  Name = 
  1 active torsions:
  status: ('A' for Active; 'I' for Inactive)
    1  A    between atoms: C_9  and  C_15
                            x       y       z     vdW  Elec       q    Type
                         _______ _______ _______ _____ _____    ______ ____

>  <TORSDO>
F 1

$$$$
=
 OpenBabel11052413403D

 27 31  0  0  1  0  0  0  0  0999 V2000
  189.5140  176.4640  140.7800 C   0  0  0  0  0  2  0  0  0  0  0  0
  188.1320  178.3350  141.5200 N   0  0  0  0  0  0  0  0  0  0  0  0
  187.5750  178.3540  139.0340 N   0  0  0  0  0  2  0  0  0  0  0  0
  183.6390  178.4100  142.4280 C   0  0  0  0  0  3  0  0  0  0  0  0
  182.1950  178.4870  140.5700 O   0  0  0  0  0  1  0  0  0  0  0  0
  187.3700  178.2970  142.6710 O   0  0  0  0  0  0  0  0  0  0  0  0
  184.6620  178.5140  140.1210 C   0  0  1  0  0  3  0  0  0  0  0  0
  188.4960  178.2870  136.0920 N   0  0  0  0  0  0  0  0  0  0  0  0
  184.5910  179.7800  139.2850 C   0  0  0  0  0  1  0  0  0  0  0  0
  188.4700  176.8540  136.2460 C   0  0  0  0  0  3  0  0  0  0  0  0
  185.9670  178.4640  140.8620 C   0  0  0  0  0  0  0  0  0  0  0  0
  189.4980  177.8390  141.4290 C   0  0  1  0  0  3  0  0  0  0  0  0
  183.4840  178.4720  141.0880 C   0  0  0  0  0  0  0  0  0  0  0  0
  184.9700  178.3610  143.0780 C   0  0  0  0  0  3  0  0  0  0  0  0
  190.3460  176.5240  139.5150 C   0  0  0  0  0  2  0  0  0  0  0  0
  187.2170  178.4170  140.4190 C   0  0  0  0  0  0  0  0  0  0  0  0
  188.7450  179.0880  137.0940 C   0  0  0  0  0  3  0  0  0  0  0  0
  186.0420  178.3850  142.2990 C   0  0  0  0  0  0  0  0  0  0  0  0
  188.9910  176.2850  137.3380 C   0  0  0  0  0  3  0  0  0  0  0  0
  189.6500  177.1940  138.3280 C   0  0  1  0  0  3  0  0  0  0  0  0
  188.9160  178.5400  138.4870 C   0  0  2  0  0  3  0  0  0  0  0  0
  191.5200  177.8060  145.2230 C   0  0  0  0  0  3  0  0  0  0  0  0
  190.1950  177.8500  142.7560 C   0  0  0  0  0  0  0  0  0  0  0  0
  190.2770  176.6610  143.4890 C   0  0  0  0  0  3  0  0  0  0  0  0
  190.9370  176.6390  144.7220 C   0  0  0  0  0  3  0  0  0  0  0  0
  191.4470  178.9950  144.4930 C   0  0  0  0  0  3  0  0  0  0  0  0
  190.7870  179.0180  143.2610 C   0  0  0  0  0  3  0  0  0  0  0  0
  1 12  1  0  0  0  0
  2  6  1  0  0  0  0
  3 16  1  0  0  0  0
  4 14  1  0  0  0  0
  5 13  1  0  0  0  0
  7  9  1  1  0  0  0
  7 11  1  0  0  0  0
  7 13  1  0  0  0  0
  8 10  1  0  0  0  0
  8 17  2  0  0  0  0
 10 19  2  0  0  0  0
 11 18  1  0  0  0  0
 12  2  1  0  0  0  0
 12 23  1  1  0  0  0
 13  4  2  0  0  0  0
 15  1  1  0  0  0  0
 16 11  2  0  0  0  0
 16  2  1  0  0  0  0
 18  6  1  0  0  0  0
 18 14  2  0  0  0  0
 20 19  1  1  0  0  0
 20 21  1  0  0  0  0
 20 15  1  0  0  0  0
 21 17  1  6  0  0  0
 21  3  1  0  0  0  0
 23 27  2  0  0  0  0
 23 24  1  0  0  0  0
 24 25  2  0  0  0  0
 25 22  1  0  0  0  0
 26 22  2  0  0  0  0
 27 26  1  0  0  0  0
M  END
>  <MODEL>
2

>  <REMARK>
 VINA RESULT:      -8.5      2.251      6.764
  Name = 
  1 active torsions:
  status: ('A' for Active; 'I' for Inactive)
    1  A    between atoms: C_9  and  C_15
                            x       y       z     vdW  Elec       q    Type
                         _______ _______ _______ _____ _____    ______ ____

>  <TORSDO>
F 1

$$$$
=
 OpenBabel11052413403D

 27 31  0  0  1  0  0  0  0  0999 V2000
  186.9750  176.7570  143.4570 C   0  0  0  0  0  2  0  0  0  0  0  0
  186.7010  178.4820  141.7510 N   0  0  0  0  0  0  0  0  0  0  0  0
  189.1960  178.0330  141.5040 N   0  0  0  0  0  2  0  0  0  0  0  0
  186.2630  177.9940  137.2130 C   0  0  0  0  0  3  0  0  0  0  0  0
  188.2400  177.5600  136.0100 O   0  0  0  0  0  1  0  0  0  0  0  0
  185.6410  178.5020  140.8670 O   0  0  0  0  0  0  0  0  0  0  0  0
  188.4430  177.9020  138.4860 C   0  0  1  0  0  3  0  0  0  0  0  0
  191.9810  177.6620  142.7770 N   0  0  0  0  0  0  0  0  0  0  0  0
  189.4840  178.9990  138.3430 C   0  0  0  0  0  1  0  0  0  0  0  0
  191.5900  176.2830  142.9300 C   0  0  0  0  0  3  0  0  0  0  0  0
  187.5800  178.1690  139.6850 C   0  0  0  0  0  0  0  0  0  0  0  0
  186.5730  178.1970  143.1740 C   0  0  1  0  0  3  0  0  0  0  0  0
  187.6030  177.8250  137.2160 C   0  0  0  0  0  0  0  0  0  0  0  0
  185.4880  178.2530  138.4490 C   0  0  0  0  0  3  0  0  0  0  0  0
  188.1440  176.7530  144.4210 C   0  0  0  0  0  2  0  0  0  0  0  0
  187.8840  178.2500  140.9750 C   0  0  0  0  0  0  0  0  0  0  0  0
  191.1090  178.6360  142.7900 C   0  0  0  0  0  3  0  0  0  0  0  0
  186.1500  178.3240  139.5940 C   0  0  0  0  0  0  0  0  0  0  0  0
  190.3710  175.9750  143.3880 C   0  0  0  0  0  3  0  0  0  0  0  0
  189.4890  177.1170  143.7890 C   0  0  1  0  0  3  0  0  0  0  0  0
  189.6340  178.3400  142.8630 C   0  0  2  0  0  3  0  0  0  0  0  0
  182.6780  179.1610  144.7190 C   0  0  0  0  0  3  0  0  0  0  0  0
  185.2050  178.5190  143.6950 C   0  0  0  0  0  0  0  0  0  0  0  0
  185.0250  178.6850  145.0730 C   0  0  0  0  0  3  0  0  0  0  0  0
  183.7640  179.0030  145.5840 C   0  0  0  0  0  3  0  0  0  0  0  0
  182.8520  179.0030  143.3410 C   0  0  0  0  0  3  0  0  0  0  0  0
  184.1130  178.6840  142.8290 C   0  0  0  0  0  3  0  0  0  0  0  0
  1 15  1  0  0  0  0
  2 12  1  0  0  0  0
  3 21  1  0  0  0  0
  4 13  2  0  0  0  0
  4 14  1  0  0  0  0
  5 13  1  0  0  0  0
  6  2  1  0  0  0  0
  7  9  1  6  0  0  0
  7 11  1  0  0  0  0
  8 17  2  0  0  0  0
  8 10  1  0  0  0  0
 10 19  2  0  0  0  0
 11 16  2  0  0  0  0
 12  1  1  0  0  0  0
 12 23  1  6  0  0  0
 13  7  1  0  0  0  0
 14 18  2  0  0  0  0
 16  3  1  0  0  0  0
 16  2  1  0  0  0  0
 18 11  1  0  0  0  0
 18  6  1  0  0  0  0
 20 19  1  6  0  0  0
 20 15  1  0  0  0  0
 21 17  1  6  0  0  0
 21 20  1  0  0  0  0
 22 25  1  0  0  0  0
 23 24  1  0  0  0  0
 24 25  2  0  0  0  0
 26 22  2  0  0  0  0
 27 26  1  0  0  0  0
 27 23  2  0  0  0  0
M  END
>  <MODEL>
3

>  <REMARK>
 VINA RESULT:      -8.4      2.179      2.830
  Name = 
  1 active torsions:
  status: ('A' for Active; 'I' for Inactive)
    1  A    between atoms: C_9  and  C_15
                            x       y       z     vdW  Elec       q    Type
                         _______ _______ _______ _____ _____    ______ ____

>  <TORSDO>
F 1

$$$$
=
 OpenBabel11052413403D

 27 31  0  0  1  0  0  0  0  0999 V2000
  186.8190  179.0430  142.1500 C   0  0  0  0  0  2  0  0  0  0  0  0
  186.2270  177.8150  144.1740 N   0  0  0  0  0  0  0  0  0  0  0  0
  188.6550  177.0870  143.9330 N   0  0  0  0  0  2  0  0  0  0  0  0
  187.0880  178.8920  148.5470 C   0  0  0  0  0  3  0  0  0  0  0  0
  189.2750  178.4820  149.3160 O   0  0  0  0  0  1  0  0  0  0  0  0
  185.4930  178.3720  145.2030 O   0  0  0  0  0  0  0  0  0  0  0  0
  188.7410  177.8450  146.9510 C   0  0  0  0  0  0  0  0  0  0  0  0
  190.9570  176.0080  142.1860 N   0  0  0  0  0  0  0  0  0  0  0  0
  189.2110  176.4120  147.1320 C   0  0  0  0  0  1  0  0  0  0  0  0
  191.1740  177.3900  141.8380 C   0  0  0  0  0  3  0  0  0  0  0  0
  187.5990  177.8890  145.9770 C   0  0  0  0  0  0  0  0  0  0  0  0
  185.9130  177.9860  142.7630 C   0  0  1  0  0  3  0  0  0  0  0  0
  188.3300  178.4240  148.3000 C   0  0  0  0  0  0  0  0  0  0  0  0
  186.0170  178.8990  147.5230 C   0  0  0  0  0  3  0  0  0  0  0  0
  187.6220  178.4150  141.0300 C   0  0  0  0  0  2  0  0  0  0  0  0
  187.5360  177.5510  144.6950 C   0  0  0  0  0  0  0  0  0  0  0  0
  189.7740  175.5480  142.4980 C   0  0  0  0  0  3  0  0  0  0  0  0
  186.3040  178.4200  146.3210 C   0  0  1  0  0  3  0  0  0  0  0  0
  190.1380  178.1770  141.5290 C   0  0  0  0  0  3  0  0  0  0  0  0
  188.7850  177.5360  141.4980 C   0  0  1  0  0  3  0  0  0  0  0  0
  188.5950  176.4810  142.6050 C   0  0  2  0  0  3  0  0  0  0  0  0
  181.7430  178.7760  142.0700 C   0  0  0  0  0  3  0  0  0  0  0  0
  184.4610  178.2810  142.5360 C   0  0  0  0  0  0  0  0  0  0  0  0
  183.9090  178.0440  141.2720 C   0  0  0  0  0  3  0  0  0  0  0  0
  182.5540  178.2930  141.0380 C   0  0  0  0  0  3  0  0  0  0  0  0
  182.2870  179.0080  143.3360 C   0  0  0  0  0  3  0  0  0  0  0  0
  183.6420  178.7600  143.5710 C   0  0  0  0  0  3  0  0  0  0  0  0
  1 12  1  0  0  0  0
  2 16  1  0  0  0  0
  2  6  1  0  0  0  0
  3 16  1  0  0  0  0
  6 18  1  0  0  0  0
  7  9  1  0  0  0  0
  7 13  2  0  0  0  0
  8 17  2  0  0  0  0
 10  8  1  0  0  0  0
 11 18  1  0  0  0  0
 11  7  1  0  0  0  0
 12 23  1  1  0  0  0
 12  2  1  0  0  0  0
 13  4  1  0  0  0  0
 13  5  1  0  0  0  0
 14  4  2  0  0  0  0
 15  1  1  0  0  0  0
 16 11  2  0  0  0  0
 18 14  1  6  0  0  0
 19 10  2  0  0  0  0
 20 15  1  1  0  0  0
 20 19  1  0  0  0  0
 20 21  1  0  0  0  0
 21 17  1  1  0  0  0
 21  3  1  0  0  0  0
 22 26  1  0  0  0  0
 23 27  1  0  0  0  0
 24 23  2  0  0  0  0
 25 24  1  0  0  0  0
 25 22  2  0  0  0  0
 26 27  2  0  0  0  0
M  END
>  <MODEL>
4

>  <REMARK>
 VINA RESULT:      -8.2      3.264      5.939
  Name = 
  1 active torsions:
  status: ('A' for Active; 'I' for Inactive)
    1  A    between atoms: C_9  and  C_15
                            x       y       z     vdW  Elec       q    Type
                         _______ _______ _______ _____ _____    ______ ____

>  <TORSDO>
F 1

$$$$
=
 OpenBabel11052413403D

 27 31  0  0  1  0  0  0  0  0999 V2000
  188.2740  176.4470  142.8430 C   0  0  0  0  0  2  0  0  0  0  0  0
  186.7340  178.3370  142.9460 N   0  0  0  0  0  0  0  0  0  0  0  0
  187.2050  178.3100  140.4430 N   0  0  0  0  0  2  0  0  0  0  0  0
  182.2480  178.4480  142.0010 C   0  0  0  0  0  3  0  0  0  0  0  0
  181.6580  178.4940  139.7220 O   0  0  0  0  0  1  0  0  0  0  0  0
  185.5780  178.3250  143.7020 O   0  0  0  0  0  0  0  0  0  0  0  0
  184.1010  178.5030  140.2860 C   0  0  1  0  0  3  0  0  0  0  0  0
  189.2140  178.1840  138.1060 N   0  0  0  0  0  0  0  0  0  0  0  0
  184.3810  179.7530  139.4690 C   0  0  0  0  0  1  0  0  0  0  0  0
  189.1130  176.7540  138.2600 C   0  0  0  0  0  3  0  0  0  0  0  0
  185.0060  178.4620  141.4830 C   0  0  0  0  0  0  0  0  0  0  0  0
  188.0190  177.8350  143.4110 C   0  0  1  0  0  3  0  0  0  0  0  0
  182.6370  178.4840  140.7080 C   0  0  0  0  0  0  0  0  0  0  0  0
  183.2130  178.4060  143.1250 C   0  0  0  0  0  3  0  0  0  0  0  0
  189.5390  176.4800  142.0100 C   0  0  0  0  0  2  0  0  0  0  0  0
  186.3290  178.4010  141.5710 C   0  0  0  0  0  0  0  0  0  0  0  0
  189.0560  179.0030  139.1120 C   0  0  0  0  0  3  0  0  0  0  0  0
  184.5060  178.4100  142.8340 C   0  0  0  0  0  0  0  0  0  0  0  0
  189.1530  176.2040  139.4790 C   0  0  0  0  0  3  0  0  0  0  0  0
  189.3770  177.1290  140.6340 C   0  0  1  0  0  3  0  0  0  0  0  0
  188.6550  178.4810  140.4670 C   0  0  2  0  0  3  0  0  0  0  0  0
  188.2920  177.8910  147.7010 C   0  0  0  0  0  3  0  0  0  0  0  0
  188.1340  177.8690  144.9040 C   0  0  0  0  0  0  0  0  0  0  0  0
  186.9660  177.8760  145.6750 C   0  0  0  0  0  3  0  0  0  0  0  0
  187.0440  177.8890  147.0710 C   0  0  0  0  0  3  0  0  0  0  0  0
  189.4620  177.8780  146.9380 C   0  0  0  0  0  3  0  0  0  0  0  0
  189.3840  177.8650  145.5420 C   0  0  0  0  0  3  0  0  0  0  0  0
  1 12  1  0  0  0  0
  2 12  1  0  0  0  0
  2  6  1  0  0  0  0
  3 21  1  0  0  0  0
  3 16  1  0  0  0  0
  4 14  1  0  0  0  0
  5 13  1  0  0  0  0
  7  9  1  1  0  0  0
  7 13  1  0  0  0  0
  7 11  1  0  0  0  0
  8 10  1  0  0  0  0
  8 17  2  0  0  0  0
 10 19  2  0  0  0  0
 11 16  2  0  0  0  0
 11 18  1  0  0  0  0
 12 23  1  1  0  0  0
 13  4  2  0  0  0  0
 15  1  1  0  0  0  0
 16  2  1  0  0  0  0
 18 14  2  0  0  0  0
 18  6  1  0  0  0  0
 20 19  1  6  0  0  0
 20 15  1  0  0  0  0
 21 17  1  6  0  0  0
 21 20  1  0  0  0  0
 23 27  2  0  0  0  0
 23 24  1  0  0  0  0
 24 25  2  0  0  0  0
 25 22  1  0  0  0  0
 26 22  2  0  0  0  0
 27 26  1  0  0  0  0
M  END
>  <MODEL>
5

>  <REMARK>
 VINA RESULT:      -8.2      2.821      6.333
  Name = 
  1 active torsions:
  status: ('A' for Active; 'I' for Inactive)
    1  A    between atoms: C_9  and  C_15
                            x       y       z     vdW  Elec       q    Type
                         _______ _______ _______ _____ _____    ______ ____

>  <TORSDO>
F 1

$$$$
=
 OpenBabel11052413403D

 27 31  0  0  1  0  0  0  0  0999 V2000
  189.7320  178.5590  140.2710 C   0  0  0  0  0  2  0  0  0  0  0  0
  187.6030  177.5780  140.9490 N   0  0  0  0  0  0  0  0  0  0  0  0
  188.9690  177.1190  143.0490 N   0  0  0  0  0  2  0  0  0  0  0  0
  184.3210  179.3790  143.5970 C   0  0  0  0  0  3  0  0  0  0  0  0
  184.7140  179.3520  145.9180 O   0  0  0  0  0  1  0  0  0  0  0  0
  186.3860  178.1880  140.7140 O   0  0  0  0  0  0  0  0  0  0  0  0
  186.4520  178.3160  144.4370 C   0  0  0  0  0  0  0  0  0  0  0  0
  191.5490  176.0800  144.3810 N   0  0  0  0  0  0  0  0  0  0  0  0
  186.4300  176.9920  145.1810 C   0  0  0  0  0  1  0  0  0  0  0  0
  192.0530  177.4120  144.1560 C   0  0  0  0  0  3  0  0  0  0  0  0
  186.7300  178.0790  142.9800 C   0  0  0  0  0  0  0  0  0  0  0  0
  188.6800  177.5020  139.9730 C   0  0  1  0  0  3  0  0  0  0  0  0
  185.1200  179.0320  144.6280 C   0  0  0  0  0  0  0  0  0  0  0  0
  184.6760  179.1080  142.1840 C   0  0  0  0  0  3  0  0  0  0  0  0
  191.0580  177.8740  140.5350 C   0  0  0  0  0  2  0  0  0  0  0  0
  187.7850  177.5520  142.3710 C   0  0  0  0  0  0  0  0  0  0  0  0
  190.6610  175.5320  143.5940 C   0  0  0  0  0  3  0  0  0  0  0  0
  185.8250  178.4950  141.9390 C   0  0  1  0  0  3  0  0  0  0  0  0
  191.8590  178.0150  142.9780 C   0  0  0  0  0  3  0  0  0  0  0  0
  191.1700  177.2190  141.9140 C   0  0  1  0  0  3  0  0  0  0  0  0
  190.0460  176.3230  142.4680 C   0  0  2  0  0  3  0  0  0  0  0  0
  187.2870  177.7740  135.9140 C   0  0  0  0  0  3  0  0  0  0  0  0
  188.1740  177.5840  138.5640 C   0  0  0  0  0  0  0  0  0  0  0  0
  188.4100  178.7490  137.8240 C   0  0  0  0  0  3  0  0  0  0  0  0
  187.9650  178.8450  136.5030 C   0  0  0  0  0  3  0  0  0  0  0  0
  187.0530  176.6060  136.6440 C   0  0  0  0  0  3  0  0  0  0  0  0
  187.4980  176.5090  137.9660 C   0  0  0  0  0  3  0  0  0  0  0  0
  1 15  1  0  0  0  0
  2 16  1  0  0  0  0
  4 13  1  0  0  0  0
  6  2  1  0  0  0  0
  6 18  1  0  0  0  0
  7 13  2  0  0  0  0
  7  9  1  0  0  0  0
 10  8  1  0  0  0  0
 11  7  1  0  0  0  0
 12 23  1  6  0  0  0
 12  1  1  0  0  0  0
 12  2  1  0  0  0  0
 13  5  1  0  0  0  0
 14  4  2  0  0  0  0
 16 11  2  0  0  0  0
 16  3  1  0  0  0  0
 17  8  2  0  0  0  0
 18 14  1  6  0  0  0
 18 11  1  0  0  0  0
 19 10  2  0  0  0  0
 20 15  1  6  0  0  0
 20 21  1  0  0  0  0
 20 19  1  0  0  0  0
 21  3  1  0  0  0  0
 21 17  1  1  0  0  0
 22 25  2  0  0  0  0
 22 26  1  0  0  0  0
 24 23  2  0  0  0  0
 25 24  1  0  0  0  0
 26 27  2  0  0  0  0
 27 23  1  0  0  0  0
M  END
>  <MODEL>
6

>  <REMARK>
 VINA RESULT:      -7.2      2.216      5.496
  Name = 
  1 active torsions:
  status: ('A' for Active; 'I' for Inactive)
    1  A    between atoms: C_9  and  C_15
                            x       y       z     vdW  Elec       q    Type
                         _______ _______ _______ _____ _____    ______ ____

>  <TORSDO>
F 1

$$$$
=
 OpenBabel11052413403D

 27 31  0  0  1  0  0  0  0  0999 V2000
  183.2520  176.7490  139.0570 C   0  0  0  0  0  2  0  0  0  0  0  0
  184.6570  178.3690  140.2230 N   0  0  0  0  0  0  0  0  0  0  0  0
  182.4870  178.6810  141.5180 N   0  0  0  0  0  2  0  0  0  0  0  0
  186.8610  177.9160  144.2180 C   0  0  0  0  0  3  0  0  0  0  0  0
  185.5540  178.1200  146.1650 O   0  0  0  0  0  1  0  0  0  0  0  0
  185.9610  178.1040  140.5910 O   0  0  0  0  0  0  0  0  0  0  0  0
  184.4020  178.4290  143.9600 C   0  0  0  0  0  0  0  0  0  0  0  0
  179.4320  179.1050  141.5460 N   0  0  0  0  0  0  0  0  0  0  0  0
  183.8380  179.7870  144.3390 C   0  0  0  0  0  1  0  0  0  0  0  0
  179.3570  177.6680  141.4620 C   0  0  0  0  0  3  0  0  0  0  0  0
  184.7030  178.3930  142.4890 C   0  0  0  0  0  0  0  0  0  0  0  0
  184.0860  178.0140  138.9310 C   0  0  1  0  0  3  0  0  0  0  0  0
  185.6560  178.1480  144.7800 C   0  0  0  0  0  0  0  0  0  0  0  0
  187.0690  177.8970  142.7500 C   0  0  0  0  0  3  0  0  0  0  0  0
  181.8230  177.0580  138.6580 C   0  0  0  0  0  2  0  0  0  0  0  0
  183.9060  178.5200  141.4350 C   0  0  0  0  0  0  0  0  0  0  0  0
  180.4280  179.7790  141.0340 C   0  0  0  0  0  3  0  0  0  0  0  0
  186.0210  178.1230  141.9720 C   0  0  1  0  0  3  0  0  0  0  0  0
  180.1390  177.0020  140.6060 C   0  0  0  0  0  3  0  0  0  0  0  0
  181.0200  177.8210  139.7140 C   0  0  1  0  0  3  0  0  0  0  0  0
  181.6010  179.0600  140.4200 C   0  0  2  0  0  3  0  0  0  0  0  0
  187.0300  177.6880  135.8140 C   0  0  0  0  0  3  0  0  0  0  0  0
  185.1290  177.9040  137.8610 C   0  0  0  0  0  0  0  0  0  0  0  0
  184.9110  177.0330  136.7870 C   0  0  0  0  0  3  0  0  0  0  0  0
  185.8600  176.9240  135.7660 C   0  0  0  0  0  3  0  0  0  0  0  0
  187.2500  178.5640  136.8800 C   0  0  0  0  0  3  0  0  0  0  0  0
  186.3020  178.6740  137.9010 C   0  0  0  0  0  3  0  0  0  0  0  0
  2  6  1  0  0  0  0
  2 16  1  0  0  0  0
  4 13  1  0  0  0  0
  6 18  1  0  0  0  0
  7  9  1  0  0  0  0
  7 13  2  0  0  0  0
 10  8  1  0  0  0  0
 11  7  1  0  0  0  0
 12 23  1  6  0  0  0
 12  1  1  0  0  0  0
 12  2  1  0  0  0  0
 13  5  1  0  0  0  0
 14  4  2  0  0  0  0
 15  1  1  0  0  0  0
 16  3  1  0  0  0  0
 16 11  2  0  0  0  0
 17  8  2  0  0  0  0
 18 11  1  0  0  0  0
 18 14  1  1  0  0  0
 19 10  2  0  0  0  0
 20 15  1  1  0  0  0
 20 21  1  0  0  0  0
 20 19  1  0  0  0  0
 21 17  1  1  0  0  0
 21  3  1  0  0  0  0
 22 26  1  0  0  0  0
 23 27  1  0  0  0  0
 24 23  2  0  0  0  0
 25 22  2  0  0  0  0
 25 24  1  0  0  0  0
 26 27  2  0  0  0  0
M  END
>  <MODEL>
7

>  <REMARK>
 VINA RESULT:      -7.1      4.001      7.937
  Name = 
  1 active torsions:
  status: ('A' for Active; 'I' for Inactive)
    1  A    between atoms: C_9  and  C_15
                            x       y       z     vdW  Elec       q    Type
                         _______ _______ _______ _____ _____    ______ ____

>  <TORSDO>
F 1

$$$$
=
 OpenBabel11052413403D

 27 31  0  0  1  0  0  0  0  0999 V2000
  191.0540  174.1730  137.1970 C   0  0  0  0  0  2  0  0  0  0  0  0
  191.3310  176.4200  138.1080 N   0  0  0  0  0  0  0  0  0  0  0  0
  188.7880  176.3000  138.0420 N   0  0  0  0  0  2  0  0  0  0  0  0
  191.0530  177.8100  142.4690 C   0  0  0  0  0  3  0  0  0  0  0  0
  188.8860  178.0580  143.3540 O   0  0  0  0  0  1  0  0  0  0  0  0
  192.2490  176.7230  139.0940 O   0  0  0  0  0  0  0  0  0  0  0  0
  189.0840  177.3660  140.9520 C   0  0  0  0  0  0  0  0  0  0  0  0
  186.1850  175.6470  136.5220 N   0  0  0  0  0  0  0  0  0  0  0  0
  188.2020  178.4980  140.4560 C   0  0  0  0  0  1  0  0  0  0  0  0
  186.3910  174.3020  136.9980 C   0  0  0  0  0  3  0  0  0  0  0  0
  190.1360  177.0510  139.9280 C   0  0  0  0  0  0  0  0  0  0  0  0
  191.6150  175.5670  136.9630 C   0  0  1  0  0  3  0  0  0  0  0  0
  189.7170  177.7550  142.2820 C   0  0  0  0  0  0  0  0  0  0  0  0
  192.0240  177.4800  141.3990 C   0  0  0  0  0  3  0  0  0  0  0  0
  190.0440  173.8590  136.1130 C   0  0  0  0  0  2  0  0  0  0  0  0
  190.0300  176.6180  138.6780 C   0  0  0  0  0  0  0  0  0  0  0  0
  187.1810  176.4610  136.2900 C   0  0  0  0  0  3  0  0  0  0  0  0
  191.5460  177.1230  140.2160 C   0  0  1  0  0  3  0  0  0  0  0  0
  187.6050  173.7430  136.9330 C   0  0  0  0  0  3  0  0  0  0  0  0
  188.6890  174.5500  136.2880 C   0  0  1  0  0  3  0  0  0  0  0  0
  188.5940  176.0530  136.6150 C   0  0  2  0  0  3  0  0  0  0  0  0
  195.8010  175.4300  135.9890 C   0  0  0  0  0  3  0  0  0  0  0  0
  193.0750  175.5440  136.6220 C   0  0  0  0  0  0  0  0  0  0  0  0
  193.8930  174.5700  137.2070 C   0  0  0  0  0  3  0  0  0  0  0  0
  195.2540  174.5140  136.8930 C   0  0  0  0  0  3  0  0  0  0  0  0
  194.9890  176.4000  135.3970 C   0  0  0  0  0  3  0  0  0  0  0  0
  193.6270  176.4570  135.7110 C   0  0  0  0  0  3  0  0  0  0  0  0
  2 16  1  0  0  0  0
  2  6  1  0  0  0  0
  3 16  1  0  0  0  0
  6 18  1  0  0  0  0
  7 13  2  0  0  0  0
  8 10  1  0  0  0  0
  9  7  1  0  0  0  0
 11 18  1  0  0  0  0
 11  7  1  0  0  0  0
 12 23  1  1  0  0  0
 12  1  1  0  0  0  0
 12  2  1  0  0  0  0
 13  4  1  0  0  0  0
 13  5  1  0  0  0  0
 14  4  2  0  0  0  0
 15  1  1  0  0  0  0
 16 11  2  0  0  0  0
 17  8  2  0  0  0  0
 18 14  1  1  0  0  0
 19 10  2  0  0  0  0
 20 15  1  1  0  0  0
 20 21  1  0  0  0  0
 20 19  1  0  0  0  0
 21 17  1  1  0  0  0
 21  3  1  0  0  0  0
 22 25  1  0  0  0  0
 23 24  1  0  0  0  0
 25 24  2  0  0  0  0
 26 27  1  0  0  0  0
 26 22  2  0  0  0  0
 27 23  2  0  0  0  0
M  END
>  <MODEL>
8

>  <REMARK>
 VINA RESULT:      -7.1      3.081      8.117
  Name = 
  1 active torsions:
  status: ('A' for Active; 'I' for Inactive)
    1  A    between atoms: C_9  and  C_15
                            x       y       z     vdW  Elec       q    Type
                         _______ _______ _______ _____ _____    ______ ____

>  <TORSDO>
F 1

$$$$
=
 OpenBabel11052413403D

 27 31  0  0  1  0  0  0  0  0999 V2000
  184.1350  179.5640  142.7520 C   0  0  0  0  0  2  0  0  0  0  0  0
  185.8060  178.0100  141.8860 N   0  0  0  0  0  0  0  0  0  0  0  0
  184.0910  177.8780  140.0080 N   0  0  0  0  0  2  0  0  0  0  0  0
  189.0550  178.7430  138.7350 C   0  0  0  0  0  3  0  0  0  0  0  0
  188.3540  178.7490  136.4880 O   0  0  0  0  0  1  0  0  0  0  0  0
  187.1620  178.2660  141.9270 O   0  0  0  0  0  0  0  0  0  0  0  0
  186.6220  178.2840  138.2400 C   0  0  1  0  0  3  0  0  0  0  0  0
  181.1680  177.5510  139.0800 N   0  0  0  0  0  0  0  0  0  0  0  0
  186.1820  176.9820  137.5930 C   0  0  0  0  0  1  0  0  0  0  0  0
  181.0780  178.9770  139.2720 C   0  0  0  0  0  3  0  0  0  0  0  0
  186.4930  178.1820  139.7330 C   0  0  0  0  0  0  0  0  0  0  0  0
  184.8940  178.2670  142.9910 C   0  0  1  0  0  3  0  0  0  0  0  0
  188.0580  178.5970  137.8370 C   0  0  0  0  0  0  0  0  0  0  0  0
  188.8380  178.6280  140.1960 C   0  0  0  0  0  3  0  0  0  0  0  0
  182.6510  179.2650  142.7020 C   0  0  0  0  0  2  0  0  0  0  0  0
  185.4300  177.9880  140.5020 C   0  0  0  0  0  0  0  0  0  0  0  0
  181.9750  176.8050  139.7880 C   0  0  0  0  0  3  0  0  0  0  0  0
  187.6120  178.3660  140.6230 C   0  0  0  0  0  0  0  0  0  0  0  0
  181.5890  179.5410  140.3720 C   0  0  0  0  0  3  0  0  0  0  0  0
  182.1770  178.6210  141.3960 C   0  0  1  0  0  3  0  0  0  0  0  0
  182.9290  177.4310  140.7710 C   0  0  2  0  0  3  0  0  0  0  0  0
  186.8330  178.2280  146.8280 C   0  0  0  0  0  3  0  0  0  0  0  0
  185.5910  178.2530  144.3170 C   0  0  0  0  0  0  0  0  0  0  0  0
  185.0600  179.0030  145.3730 C   0  0  0  0  0  3  0  0  0  0  0  0
  185.6810  178.9930  146.6250 C   0  0  0  0  0  3  0  0  0  0  0  0
  187.3650  177.4720  145.7810 C   0  0  0  0  0  3  0  0  0  0  0  0
  186.7450  177.4820  144.5280 C   0  0  0  0  0  3  0  0  0  0  0  0
  1 12  1  0  0  0  0
  2  6  1  0  0  0  0
  2 12  1  0  0  0  0
  3 16  1  0  0  0  0
  3 21  1  0  0  0  0
  4 14  1  0  0  0  0
  5 13  1  0  0  0  0
  7  9  1  6  0  0  0
  7 11  1  0  0  0  0
  8 10  1  0  0  0  0
  8 17  2  0  0  0  0
 10 19  2  0  0  0  0
 11 16  2  0  0  0  0
 11 18  1  0  0  0  0
 12 23  1  1  0  0  0
 13  7  1  0  0  0  0
 13  4  2  0  0  0  0
 14 18  2  0  0  0  0
 15  1  1  0  0  0  0
 16  2  1  0  0  0  0
 18  6  1  0  0  0  0
 20 19  1  6  0  0  0
 20 15  1  0  0  0  0
 21 17  1  6  0  0  0
 21 20  1  0  0  0  0
 23 27  2  0  0  0  0
 23 24  1  0  0  0  0
 24 25  2  0  0  0  0
 25 22  1  0  0  0  0
 26 22  2  0  0  0  0
 27 26  1  0  0  0  0
M  END
>  <MODEL>
9

>  <REMARK>
 VINA RESULT:      -7.0      3.108      6.353
  Name = 
  1 active torsions:
  status: ('A' for Active; 'I' for Inactive)
    1  A    between atoms: C_9  and  C_15
                            x       y       z     vdW  Elec       q    Type
                         _______ _______ _______ _____ _____    ______ ____

>  <TORSDO>
F 1

$$$$
