=
 OpenBabel11052412313D

 30 33  0  0  0  0  0  0  0  0999 V2000
  188.6010  177.8310  144.2850 N   0  0  0  0  0  0  0  0  0  0  0  0
  189.4740  177.6410  146.5070 C   0  0  0  0  0  0  0  0  0  0  0  0
  184.7100  178.3950  145.7010 C   0  0  0  0  0  3  0  0  0  0  0  0
  187.5950  177.9960  143.3840 C   0  0  0  0  0  0  0  0  0  0  0  0
  183.6660  178.6130  144.7990 C   0  0  0  0  0  3  0  0  0  0  0  0
  189.2550  177.6280  147.8870 C   0  0  0  0  0  3  0  0  0  0  0  0
  191.1110  177.4280  145.9050 Cl  0  0  0  0  0  0  0  0  0  0  0  0
  186.0220  178.1940  145.2410 C   0  0  0  0  0  0  0  0  0  0  0  0
  187.9660  177.7980  148.3980 C   0  0  0  0  0  3  0  0  0  0  0  0
  188.3940  177.8240  145.6270 C   0  0  0  0  0  0  0  0  0  0  0  0
  186.2770  178.2010  143.8470 C   0  0  0  0  0  0  0  0  0  0  0  0
  183.9220  178.6370  143.4280 C   0  0  0  0  0  3  0  0  0  0  0  0
  185.2190  178.4350  142.9550 C   0  0  0  0  0  3  0  0  0  0  0  0
  186.8890  177.9830  147.5300 C   0  0  0  0  0  3  0  0  0  0  0  0
  187.0880  177.9980  146.1400 C   0  0  0  0  0  0  0  0  0  0  0  0
  188.8190  176.7790  140.1980 O   0  0  0  0  0  0  0  0  0  0  0  0
  188.9070  177.1100  141.4120 C   0  0  0  0  0  0  0  0  0  0  0  0
  187.9110  177.9830  141.9790 N   0  0  0  0  0  0  0  0  0  0  0  0
  191.2480  177.2750  142.3980 C   0  0  0  0  0  3  0  0  0  0  0  0
  190.0810  175.4560  142.8790 N   0  0  0  0  0  0  0  0  0  0  0  0
  190.0520  176.6160  142.2020 C   0  0  0  0  0  0  0  0  0  0  0  0
  191.9840  176.4770  143.1940 N   0  0  0  0  0  2  0  0  0  0  0  0
  191.2650  175.3990  143.4650 N   0  0  0  0  0  0  0  0  0  0  0  0
  187.2660  178.9690  141.1210 C   0  0  0  0  0  2  0  0  0  0  0  0
  186.9800  178.3640  139.7560 C   0  0  0  0  0  2  0  0  0  0  0  0
  184.9110  179.6020  139.6170 N   0  0  0  0  0  0  0  0  0  0  0  0
  185.5320  178.4800  139.4360 C   0  0  0  0  0  3  0  0  0  0  0  0
  183.0890  180.8090  138.7740 O   0  0  0  0  0  0  0  0  0  0  0  0
  183.5210  179.7600  139.3240 C   0  0  0  0  0  0  0  0  0  0  0  0
  182.5710  178.6720  139.6750 C   0  0  0  0  0  1  0  0  0  0  0  0
  1 10  1  0  0  0  0
  2  6  1  0  0  0  0
  4 11  1  0  0  0  0
  4  1  2  0  0  0  0
  5  3  2  0  0  0  0
  6  9  2  0  0  0  0
  7  2  1  0  0  0  0
  8  3  1  0  0  0  0
  8 15  1  0  0  0  0
 10 15  1  0  0  0  0
 10  2  2  0  0  0  0
 11  8  2  0  0  0  0
 12  5  1  0  0  0  0
 13 12  2  0  0  0  0
 13 11  1  0  0  0  0
 14  9  1  0  0  0  0
 15 14  2  0  0  0  0
 16 17  2  0  0  0  0
 17 18  1  0  0  0  0
 17 21  1  0  0  0  0
 18  4  1  0  0  0  0
 19 22  1  0  0  0  0
 20 23  2  0  0  0  0
 21 19  2  0  0  0  0
 21 20  1  0  0  0  0
 22 23  1  0  0  0  0
 24 18  1  0  0  0  0
 25 24  1  0  0  0  0
 27 26  2  0  0  0  0
 27 25  1  0  0  0  0
 28 29  2  0  0  0  0
 29 26  1  0  0  0  0
 29 30  1  0  0  0  0
M  END
>  <MODEL>
1

>  <REMARK>
 VINA RESULT:      -9.4      0.000      0.000
  Name = 
  6 active torsions:
  status: ('A' for Active; 'I' for Inactive)
    1  A    between atoms: C_4  and  N_13
    2  A    between atoms: N_7  and  C_15
    3  A    between atoms: C_8  and  C_12
    4  A    between atoms: N_13  and  C_27
    5  A    between atoms: C_16  and  C_30
    6  A    between atoms: C_27  and  C_30
                            x       y       z     vdW  Elec       q    Type
                         _______ _______ _______ _____ _____    ______ ____

>  <TORSDO>
F 6

$$$$
=
 OpenBabel11052412313D

 30 33  0  0  1  0  0  0  0  0999 V2000
  184.2080  178.6510  139.6250 N   0  0  0  0  0  0  0  0  0  0  0  0
  186.5720  178.4470  139.3060 C   0  0  0  0  0  0  0  0  0  0  0  0
  184.6180  178.6530  143.7840 C   0  0  0  0  0  3  0  0  0  0  0  0
  183.0880  178.7410  140.3930 C   0  0  0  0  0  0  0  0  0  0  0  0
  183.4890  178.7910  144.5940 C   0  0  0  0  0  3  0  0  0  0  0  0
  187.8530  178.3300  139.8520 C   0  0  0  0  0  3  0  0  0  0  0  0
  186.3940  178.4700  137.5580 Cl  0  0  0  0  0  0  0  0  0  0  0  0
  184.4960  178.6400  142.3840 C   0  0  0  0  0  0  0  0  0  0  0  0
  188.0290  178.3110  141.2380 C   0  0  0  0  0  3  0  0  0  0  0  0
  185.4550  178.5440  140.1520 C   0  0  0  0  0  0  0  0  0  0  0  0
  183.2110  178.7570  141.7980 C   0  0  0  0  0  0  0  0  0  0  0  0
  182.2260  178.9230  144.0150 C   0  0  0  0  0  3  0  0  0  0  0  0
  182.0880  178.9080  142.6270 C   0  0  0  0  0  3  0  0  0  0  0  0
  186.9240  178.4100  142.0850 C   0  0  0  0  0  3  0  0  0  0  0  0
  185.6290  178.5270  141.5550 C   0  0  0  0  0  0  0  0  0  0  0  0
  179.9290  177.7120  138.9450 O   0  0  0  0  0  0  0  0  0  0  0  0
  181.1850  177.7390  139.0620 C   0  0  0  0  0  0  0  0  0  0  0  0
  181.8070  178.8460  139.7430 N   0  0  0  0  0  0  0  0  0  0  0  0
  182.3400  176.5380  137.1380 C   0  0  0  0  0  3  0  0  0  0  0  0
  182.4930  175.6060  139.1410 N   0  0  0  0  0  0  0  0  0  0  0  0
  181.9770  176.6460  138.4650 C   0  0  1  0  0  3  0  0  0  0  0  0
  183.0700  175.4100  137.0460 N   0  0  0  0  0  0  0  0  0  0  0  0
  183.1450  174.8740  138.2540 N   0  0  0  0  0  0  0  0  0  0  0  0
  181.1690  180.1560  139.6880 C   0  0  0  0  0  2  0  0  0  0  0  0
  181.0820  180.6330  138.2480 C   0  0  0  0  0  2  0  0  0  0  0  0
  181.0650  182.8310  137.2470 N   0  0  0  0  0  0  0  0  0  0  0  0
  181.5600  182.0380  138.1430 C   0  0  0  0  0  3  0  0  0  0  0  0
  182.4760  184.6280  137.7660 O   0  0  0  0  0  0  0  0  0  0  0  0
  181.4940  184.1880  137.1090 C   0  0  0  0  0  0  0  0  0  0  0  0
  180.7700  185.0920  136.1790 C   0  0  0  0  0  1  0  0  0  0  0  0
  1 10  2  0  0  0  0
  1  4  1  0  0  0  0
  2  6  2  0  0  0  0
  2 10  1  0  0  0  0
  3  5  2  0  0  0  0
  4 11  2  0  0  0  0
  6  9  1  0  0  0  0
  7  2  1  0  0  0  0
  8  3  1  0  0  0  0
  9 14  2  0  0  0  0
 10 15  1  0  0  0  0
 11  8  1  0  0  0  0
 11 13  1  0  0  0  0
 12  5  1  0  0  0  0
 13 12  2  0  0  0  0
 15 14  1  0  0  0  0
 15  8  2  0  0  0  0
 16 17  2  0  0  0  0
 17 18  1  0  0  0  0
 18  4  1  0  0  0  0
 19 21  1  0  0  0  0
 21 17  1  1  0  0  0
 21 20  1  0  0  0  0
 22 19  2  0  0  0  0
 22 23  1  0  0  0  0
 23 20  2  0  0  0  0
 24 18  1  0  0  0  0
 25 24  1  0  0  0  0
 26 27  2  0  0  0  0
 27 25  1  0  0  0  0
 29 26  1  0  0  0  0
 29 28  2  0  0  0  0
 30 29  1  0  0  0  0
M  END
>  <MODEL>
2

>  <REMARK>
 VINA RESULT:      -8.8      4.654      6.791
  Name = 
  6 active torsions:
  status: ('A' for Active; 'I' for Inactive)
    1  A    between atoms: C_4  and  N_13
    2  A    between atoms: N_7  and  C_15
    3  A    between atoms: C_8  and  C_12
    4  A    between atoms: N_13  and  C_27
    5  A    between atoms: C_16  and  C_30
    6  A    between atoms: C_27  and  C_30
                            x       y       z     vdW  Elec       q    Type
                         _______ _______ _______ _____ _____    ______ ____

>  <TORSDO>
F 6

$$$$
=
 OpenBabel11052412313D

 30 33  0  0  0  0  0  0  0  0999 V2000
  188.0450  177.5840  143.8760 N   0  0  0  0  0  0  0  0  0  0  0  0
  187.6780  177.7120  146.2390 C   0  0  0  0  0  0  0  0  0  0  0  0
  184.1990  178.9960  143.0520 C   0  0  0  0  0  3  0  0  0  0  0  0
  187.6610  177.7150  142.5770 C   0  0  0  0  0  0  0  0  0  0  0  0
  183.7960  179.1840  141.7280 C   0  0  0  0  0  3  0  0  0  0  0  0
  186.8300  178.0070  147.3090 C   0  0  0  0  0  3  0  0  0  0  0  0
  189.3040  177.1410  146.5790 Cl  0  0  0  0  0  0  0  0  0  0  0  0
  185.4850  178.5130  143.3460 C   0  0  0  0  0  0  0  0  0  0  0  0
  185.5320  178.4670  147.0740 C   0  0  0  0  0  3  0  0  0  0  0  0
  187.2250  177.8760  144.9190 C   0  0  0  0  0  0  0  0  0  0  0  0
  186.3700  178.2040  142.2830 C   0  0  0  0  0  0  0  0  0  0  0  0
  184.6740  178.8960  140.6830 C   0  0  0  0  0  3  0  0  0  0  0  0
  185.9540  178.4110  140.9590 C   0  0  0  0  0  3  0  0  0  0  0  0
  185.0760  178.6350  145.7650 C   0  0  0  0  0  3  0  0  0  0  0  0
  185.9130  178.3430  144.6760 C   0  0  0  0  0  0  0  0  0  0  0  0
  190.6110  176.3250  140.9980 O   0  0  0  0  0  0  0  0  0  0  0  0
  189.9780  177.0590  141.8050 C   0  0  0  0  0  0  0  0  0  0  0  0
  188.5980  177.3760  141.5380 N   0  0  0  0  0  0  0  0  0  0  0  0
  191.3600  176.8550  143.9330 C   0  0  0  0  0  3  0  0  0  0  0  0
  190.8100  178.8990  143.2850 N   0  0  0  0  0  0  0  0  0  0  0  0
  190.6870  177.5960  142.9840 C   0  0  0  0  0  0  0  0  0  0  0  0
  191.8720  177.7460  144.8030 N   0  0  0  0  0  2  0  0  0  0  0  0
  191.5280  178.9570  144.3930 N   0  0  0  0  0  0  0  0  0  0  0  0
  188.1490  177.4600  140.1540 C   0  0  0  0  0  2  0  0  0  0  0  0
  188.9580  178.5070  139.4060 C   0  0  0  0  0  2  0  0  0  0  0  0
  188.1190  178.2970  137.1520 N   0  0  0  0  0  0  0  0  0  0  0  0
  189.1010  178.1200  137.9760 C   0  0  0  0  0  3  0  0  0  0  0  0
  189.3080  177.5860  135.2620 O   0  0  0  0  0  0  0  0  0  0  0  0
  188.2100  177.9400  135.7700 C   0  0  0  0  0  0  0  0  0  0  0  0
  186.9910  177.9890  134.9200 C   0  0  0  0  0  1  0  0  0  0  0  0
  1 10  1  0  0  0  0
  2  7  1  0  0  0  0
  2  6  1  0  0  0  0
  3  8  1  0  0  0  0
  4  1  2  0  0  0  0
  5  3  2  0  0  0  0
  8 15  1  0  0  0  0
  9  6  2  0  0  0  0
 10  2  2  0  0  0  0
 11  4  1  0  0  0  0
 11  8  2  0  0  0  0
 12 13  2  0  0  0  0
 12  5  1  0  0  0  0
 13 11  1  0  0  0  0
 14  9  1  0  0  0  0
 15 10  1  0  0  0  0
 15 14  2  0  0  0  0
 16 17  2  0  0  0  0
 17 21  1  0  0  0  0
 18 17  1  0  0  0  0
 18  4  1  0  0  0  0
 19 22  1  0  0  0  0
 20 23  2  0  0  0  0
 21 20  1  0  0  0  0
 21 19  2  0  0  0  0
 23 22  1  0  0  0  0
 24 18  1  0  0  0  0
 25 24  1  0  0  0  0
 26 27  2  0  0  0  0
 27 25  1  0  0  0  0
 28 29  2  0  0  0  0
 29 26  1  0  0  0  0
 30 29  1  0  0  0  0
M  END
>  <MODEL>
3

>  <REMARK>
 VINA RESULT:      -8.7      2.203      3.141
  Name = 
  6 active torsions:
  status: ('A' for Active; 'I' for Inactive)
    1  A    between atoms: C_4  and  N_13
    2  A    between atoms: N_7  and  C_15
    3  A    between atoms: C_8  and  C_12
    4  A    between atoms: N_13  and  C_27
    5  A    between atoms: C_16  and  C_30
    6  A    between atoms: C_27  and  C_30
                            x       y       z     vdW  Elec       q    Type
                         _______ _______ _______ _____ _____    ______ ____

>  <TORSDO>
F 6

$$$$
=
 OpenBabel11052412313D

 30 33  0  0  0  0  0  0  0  0999 V2000
  188.5900  177.7280  143.8160 N   0  0  0  0  0  0  0  0  0  0  0  0
  188.9920  177.7650  146.1760 C   0  0  0  0  0  0  0  0  0  0  0  0
  184.5140  178.4830  144.3460 C   0  0  0  0  0  3  0  0  0  0  0  0
  187.7910  177.8080  142.7170 C   0  0  0  0  0  0  0  0  0  0  0  0
  183.6810  178.6150  143.2340 C   0  0  0  0  0  3  0  0  0  0  0  0
  188.5000  177.9010  147.4770 C   0  0  0  0  0  3  0  0  0  0  0  0
  190.7080  177.4710  145.9450 Cl  0  0  0  0  0  0  0  0  0  0  0  0
  185.8850  178.2190  144.1860 C   0  0  0  0  0  0  0  0  0  0  0  0
  187.1410  178.1380  147.6950 C   0  0  0  0  0  3  0  0  0  0  0  0
  188.1170  177.8650  145.0810 C   0  0  0  0  0  0  0  0  0  0  0  0
  186.4150  178.0760  142.8790 C   0  0  0  0  0  0  0  0  0  0  0  0
  184.2080  178.4910  141.9480 C   0  0  0  0  0  3  0  0  0  0  0  0
  185.5660  178.2260  141.7720 C   0  0  0  0  0  3  0  0  0  0  0  0
  186.2660  178.2420  146.6130 C   0  0  0  0  0  3  0  0  0  0  0  0
  186.7410  178.1080  145.2980 C   0  0  0  0  0  0  0  0  0  0  0  0
  189.6160  176.2590  139.9970 O   0  0  0  0  0  0  0  0  0  0  0  0
  189.4630  176.7240  141.1590 C   0  0  0  0  0  0  0  0  0  0  0  0
  188.3830  177.6430  141.4150 N   0  0  0  0  0  0  0  0  0  0  0  0
  191.5340  177.0470  142.6030 C   0  0  0  0  0  3  0  0  0  0  0  0
  190.3240  175.2310  142.9740 N   0  0  0  0  0  0  0  0  0  0  0  0
  190.4200  176.3330  142.2130 C   0  0  0  0  0  0  0  0  0  0  0  0
  192.0960  176.3400  143.6010 N   0  0  0  0  0  2  0  0  0  0  0  0
  191.3550  175.2610  143.8020 N   0  0  0  0  0  0  0  0  0  0  0  0
  187.9350  178.5200  140.3400 C   0  0  0  0  0  2  0  0  0  0  0  0
  189.0260  178.6600  139.2920 C   0  0  0  0  0  2  0  0  0  0  0  0
  187.4970  177.7890  137.6380 N   0  0  0  0  0  0  0  0  0  0  0  0
  188.4340  178.6340  137.9270 C   0  0  0  0  0  3  0  0  0  0  0  0
  187.5340  178.0930  135.3160 O   0  0  0  0  0  0  0  0  0  0  0  0
  186.8980  177.7280  136.3410 C   0  0  0  0  0  0  0  0  0  0  0  0
  185.5060  177.2280  136.2020 C   0  0  0  0  0  1  0  0  0  0  0  0
  1 10  1  0  0  0  0
  2  6  1  0  0  0  0
  4 11  1  0  0  0  0
  4  1  2  0  0  0  0
  5  3  2  0  0  0  0
  6  9  2  0  0  0  0
  7  2  1  0  0  0  0
  8  3  1  0  0  0  0
  8 15  1  0  0  0  0
 10 15  1  0  0  0  0
 10  2  2  0  0  0  0
 11  8  2  0  0  0  0
 12  5  1  0  0  0  0
 13 12  2  0  0  0  0
 13 11  1  0  0  0  0
 14  9  1  0  0  0  0
 15 14  2  0  0  0  0
 16 17  2  0  0  0  0
 17 18  1  0  0  0  0
 17 21  1  0  0  0  0
 18  4  1  0  0  0  0
 19 22  1  0  0  0  0
 20 23  2  0  0  0  0
 21 19  2  0  0  0  0
 21 20  1  0  0  0  0
 22 23  1  0  0  0  0
 24 18  1  0  0  0  0
 25 24  1  0  0  0  0
 26 27  2  0  0  0  0
 27 25  1  0  0  0  0
 28 29  2  0  0  0  0
 29 26  1  0  0  0  0
 30 29  1  0  0  0  0
M  END
>  <MODEL>
4

>  <REMARK>
 VINA RESULT:      -8.7      1.739      2.128
  Name = 
  6 active torsions:
  status: ('A' for Active; 'I' for Inactive)
    1  A    between atoms: C_4  and  N_13
    2  A    between atoms: N_7  and  C_15
    3  A    between atoms: C_8  and  C_12
    4  A    between atoms: N_13  and  C_27
    5  A    between atoms: C_16  and  C_30
    6  A    between atoms: C_27  and  C_30
                            x       y       z     vdW  Elec       q    Type
                         _______ _______ _______ _____ _____    ______ ____

>  <TORSDO>
F 6

$$$$
=
 OpenBabel11052412313D

 30 33  0  0  0  0  0  0  0  0999 V2000
  183.3730  178.9470  140.5540 N   0  0  0  0  0  0  0  0  0  0  0  0
  185.3470  178.5710  141.8540 C   0  0  0  0  0  0  0  0  0  0  0  0
  180.9420  178.8880  143.9530 C   0  0  0  0  0  3  0  0  0  0  0  0
  182.0300  179.1130  140.4010 C   0  0  0  0  0  0  0  0  0  0  0  0
  179.5680  179.1020  143.8290 C   0  0  0  0  0  3  0  0  0  0  0  0
  185.9440  178.3560  143.1000 C   0  0  0  0  0  3  0  0  0  0  0  0
  186.3660  178.6200  140.4240 Cl  0  0  0  0  0  0  0  0  0  0  0  0
  181.7720  178.8940  142.8190 C   0  0  0  0  0  0  0  0  0  0  0  0
  185.1620  178.3140  144.2570 C   0  0  0  0  0  3  0  0  0  0  0  0
  183.9560  178.7440  141.7630 C   0  0  0  0  0  0  0  0  0  0  0  0
  181.1980  179.1090  141.5410 C   0  0  0  0  0  0  0  0  0  0  0  0
  179.0070  179.3310  142.5720 C   0  0  0  0  0  3  0  0  0  0  0  0
  179.8170  179.3370  141.4360 C   0  0  0  0  0  3  0  0  0  0  0  0
  183.7800  178.4880  144.1750 C   0  0  0  0  0  3  0  0  0  0  0  0
  183.1620  178.7040  142.9320 C   0  0  0  0  0  0  0  0  0  0  0  0
  179.8780  178.7100  137.5140 O   0  0  0  0  0  0  0  0  0  0  0  0
  180.6920  178.3350  138.4010 C   0  0  0  0  0  0  0  0  0  0  0  0
  181.5020  179.3160  139.0780 N   0  0  0  0  0  0  0  0  0  0  0  0
  181.8100  176.0530  138.2440 C   0  0  0  0  0  3  0  0  0  0  0  0
  179.9720  176.1890  139.4710 N   0  0  0  0  0  0  0  0  0  0  0  0
  180.8110  176.8920  138.6930 C   0  0  0  0  0  0  0  0  0  0  0  0
  181.5380  174.8420  138.7670 N   0  0  0  0  0  2  0  0  0  0  0  0
  180.4360  174.9520  139.4940 N   0  0  0  0  0  0  0  0  0  0  0  0
  181.8920  180.5240  138.3600 C   0  0  0  0  0  2  0  0  0  0  0  0
  180.9750  181.6750  138.7380 C   0  0  0  0  0  2  0  0  0  0  0  0
  180.3150  183.7830  137.7620 N   0  0  0  0  0  0  0  0  0  0  0  0
  180.8110  182.6010  137.5850 C   0  0  0  0  0  3  0  0  0  0  0  0
  179.4280  185.7370  136.8240 O   0  0  0  0  0  0  0  0  0  0  0  0
  180.1390  184.7060  136.6840 C   0  0  0  0  0  0  0  0  0  0  0  0
  180.8020  184.4430  135.3810 C   0  0  0  0  0  1  0  0  0  0  0  0
  1 10  1  0  0  0  0
  2  6  1  0  0  0  0
  4  1  2  0  0  0  0
  4 11  1  0  0  0  0
  5  3  1  0  0  0  0
  6  9  2  0  0  0  0
  7  2  1  0  0  0  0
  8 15  1  0  0  0  0
  8  3  2  0  0  0  0
 10  2  2  0  0  0  0
 10 15  1  0  0  0  0
 11  8  1  0  0  0  0
 12  5  2  0  0  0  0
 13 11  2  0  0  0  0
 13 12  1  0  0  0  0
 14  9  1  0  0  0  0
 15 14  2  0  0  0  0
 16 17  2  0  0  0  0
 17 21  1  0  0  0  0
 17 18  1  0  0  0  0
 18  4  1  0  0  0  0
 19 21  2  0  0  0  0
 19 22  1  0  0  0  0
 20 23  2  0  0  0  0
 21 20  1  0  0  0  0
 22 23  1  0  0  0  0
 24 25  1  0  0  0  0
 24 18  1  0  0  0  0
 27 26  2  0  0  0  0
 27 25  1  0  0  0  0
 29 28  2  0  0  0  0
 29 26  1  0  0  0  0
 30 29  1  0  0  0  0
M  END
>  <MODEL>
5

>  <REMARK>
 VINA RESULT:      -8.6      4.735      7.268
  Name = 
  6 active torsions:
  status: ('A' for Active; 'I' for Inactive)
    1  A    between atoms: C_4  and  N_13
    2  A    between atoms: N_7  and  C_15
    3  A    between atoms: C_8  and  C_12
    4  A    between atoms: N_13  and  C_27
    5  A    between atoms: C_16  and  C_30
    6  A    between atoms: C_27  and  C_30
                            x       y       z     vdW  Elec       q    Type
                         _______ _______ _______ _____ _____    ______ ____

>  <TORSDO>
F 6

$$$$
=
 OpenBabel11052412313D

 30 33  0  0  1  0  0  0  0  0999 V2000
  186.7630  177.6220  142.3210 N   0  0  0  0  0  0  0  0  0  0  0  0
  184.5380  178.2010  141.6520 C   0  0  0  0  0  0  0  0  0  0  0  0
  185.9320  178.4460  146.3330 C   0  0  0  0  0  3  0  0  0  0  0  0
  187.7550  177.4660  143.2390 C   0  0  0  0  0  0  0  0  0  0  0  0
  186.9190  178.2500  147.3020 C   0  0  0  0  0  3  0  0  0  0  0  0
  183.2590  178.6500  141.9930 C   0  0  0  0  0  3  0  0  0  0  0  0
  184.8870  177.8310  139.9710 Cl  0  0  0  0  0  0  0  0  0  0  0  0
  186.1980  178.1830  144.9780 C   0  0  0  0  0  0  0  0  0  0  0  0
  182.9480  178.9510  143.3210 C   0  0  0  0  0  3  0  0  0  0  0  0
  185.5170  178.0520  142.6480 C   0  0  0  0  0  0  0  0  0  0  0  0
  187.4860  177.7270  144.6000 C   0  0  0  0  0  0  0  0  0  0  0  0
  188.1800  177.7830  146.9300 C   0  0  0  0  0  3  0  0  0  0  0  0
  188.4610  177.5220  145.5880 C   0  0  0  0  0  3  0  0  0  0  0  0
  183.9150  178.8020  144.3170 C   0  0  0  0  0  3  0  0  0  0  0  0
  185.2060  178.3530  143.9940 C   0  0  0  0  0  0  0  0  0  0  0  0
  190.8780  177.4030  141.4040 O   0  0  0  0  0  0  0  0  0  0  0  0
  189.6240  177.4070  141.5370 C   0  0  0  0  0  0  0  0  0  0  0  0
  189.0460  177.0100  142.7960 N   0  0  0  0  0  0  0  0  0  0  0  0
  188.4870  176.9890  139.2980 C   0  0  0  0  0  3  0  0  0  0  0  0
  188.1670  178.9700  140.2330 N   0  0  0  0  0  0  0  0  0  0  0  0
  188.7880  177.7890  140.3820 C   0  0  1  0  0  3  0  0  0  0  0  0
  187.6850  177.7260  138.5070 N   0  0  0  0  0  0  0  0  0  0  0  0
  187.5110  178.9030  139.0880 N   0  0  0  0  0  0  0  0  0  0  0  0
  189.7450  176.0260  143.6130 C   0  0  0  0  0  2  0  0  0  0  0  0
  191.2200  176.3820  143.7110 C   0  0  0  0  0  2  0  0  0  0  0  0
  191.4460  176.8380  146.0720 N   0  0  0  0  0  0  0  0  0  0  0  0
  191.7340  176.0690  145.0720 C   0  0  0  0  0  3  0  0  0  0  0  0
  191.8220  177.4480  148.3030 O   0  0  0  0  0  0  0  0  0  0  0  0
  191.9180  176.5770  147.3960 C   0  0  0  0  0  0  0  0  0  0  0  0
  192.5310  175.2600  147.7070 C   0  0  0  0  0  1  0  0  0  0  0  0
  1 10  2  0  0  0  0
  1  4  1  0  0  0  0
  2  6  2  0  0  0  0
  2 10  1  0  0  0  0
  3  5  2  0  0  0  0
  4 11  2  0  0  0  0
  6  9  1  0  0  0  0
  7  2  1  0  0  0  0
  8  3  1  0  0  0  0
  9 14  2  0  0  0  0
 10 15  1  0  0  0  0
 11  8  1  0  0  0  0
 11 13  1  0  0  0  0
 12  5  1  0  0  0  0
 13 12  2  0  0  0  0
 15 14  1  0  0  0  0
 15  8  2  0  0  0  0
 16 17  2  0  0  0  0
 17 18  1  0  0  0  0
 18  4  1  0  0  0  0
 18 24  1  0  0  0  0
 19 21  1  0  0  0  0
 20 21  1  0  0  0  0
 21 17  1  1  0  0  0
 22 23  1  0  0  0  0
 22 19  2  0  0  0  0
 23 20  2  0  0  0  0
 24 25  1  0  0  0  0
 25 27  1  0  0  0  0
 26 29  1  0  0  0  0
 27 26  2  0  0  0  0
 29 30  1  0  0  0  0
 29 28  2  0  0  0  0
M  END
>  <MODEL>
6

>  <REMARK>
 VINA RESULT:      -8.5      2.885      6.429
  Name = 
  6 active torsions:
  status: ('A' for Active; 'I' for Inactive)
    1  A    between atoms: C_4  and  N_13
    2  A    between atoms: N_7  and  C_15
    3  A    between atoms: C_8  and  C_12
    4  A    between atoms: N_13  and  C_27
    5  A    between atoms: C_16  and  C_30
    6  A    between atoms: C_27  and  C_30
                            x       y       z     vdW  Elec       q    Type
                         _______ _______ _______ _____ _____    ______ ____

>  <TORSDO>
F 6

$$$$
=
 OpenBabel11052412313D

 30 33  0  0  0  0  0  0  0  0999 V2000
  184.2780  178.3780  141.4740 N   0  0  0  0  0  0  0  0  0  0  0  0
  185.6010  178.1740  143.4590 C   0  0  0  0  0  0  0  0  0  0  0  0
  180.9060  179.5270  143.6590 C   0  0  0  0  0  3  0  0  0  0  0  0
  183.1210  178.6350  140.8050 C   0  0  0  0  0  0  0  0  0  0  0  0
  179.7200  179.8410  142.9930 C   0  0  0  0  0  3  0  0  0  0  0  0
  185.7000  178.2540  144.8510 C   0  0  0  0  0  3  0  0  0  0  0  0
  187.0210  177.7140  142.5330 Cl  0  0  0  0  0  0  0  0  0  0  0  0
  182.0460  179.1290  142.9400 C   0  0  0  0  0  0  0  0  0  0  0  0
  184.5910  178.6200  145.6170 C   0  0  0  0  0  3  0  0  0  0  0  0
  184.3800  178.4600  142.8260 C   0  0  0  0  0  0  0  0  0  0  0  0
  181.9780  179.0380  141.5280 C   0  0  0  0  0  0  0  0  0  0  0  0
  179.6600  179.7680  141.6010 C   0  0  0  0  0  3  0  0  0  0  0  0
  180.7820  179.3710  140.8730 C   0  0  0  0  0  3  0  0  0  0  0  0
  183.3750  178.9080  144.9940 C   0  0  0  0  0  3  0  0  0  0  0  0
  183.2550  178.8330  143.5970 C   0  0  0  0  0  0  0  0  0  0  0  0
  181.8220  178.1400  137.4590 O   0  0  0  0  0  0  0  0  0  0  0  0
  182.0660  177.8230  138.6550 C   0  0  0  0  0  0  0  0  0  0  0  0
  183.1080  178.5150  139.3700 N   0  0  0  0  0  0  0  0  0  0  0  0
  179.9190  176.6410  139.3430 C   0  0  0  0  0  3  0  0  0  0  0  0
  181.8250  175.6230  139.8260 N   0  0  0  0  0  0  0  0  0  0  0  0
  181.2940  176.7250  139.2710 C   0  0  0  0  0  0  0  0  0  0  0  0
  179.6520  175.4740  139.9580 N   0  0  0  0  0  2  0  0  0  0  0  0
  180.8060  174.8880  140.2360 N   0  0  0  0  0  0  0  0  0  0  0  0
  184.2520  179.0290  138.6270 C   0  0  0  0  0  2  0  0  0  0  0  0
  185.0800  177.8760  138.0820 C   0  0  0  0  0  2  0  0  0  0  0  0
  187.3700  178.1330  138.8040 N   0  0  0  0  0  0  0  0  0  0  0  0
  186.4880  178.3090  137.8730 C   0  0  0  0  0  3  0  0  0  0  0  0
  189.0560  179.4330  137.8250 O   0  0  0  0  0  0  0  0  0  0  0  0
  188.7340  178.5330  138.6470 C   0  0  0  0  0  0  0  0  0  0  0  0
  189.7860  177.8780  139.4660 C   0  0  0  0  0  1  0  0  0  0  0  0
  1 10  1  0  0  0  0
  2  6  1  0  0  0  0
  4  1  2  0  0  0  0
  4 11  1  0  0  0  0
  5  3  1  0  0  0  0
  6  9  2  0  0  0  0
  7  2  1  0  0  0  0
  8 15  1  0  0  0  0
  8  3  2  0  0  0  0
 10  2  2  0  0  0  0
 10 15  1  0  0  0  0
 11  8  1  0  0  0  0
 12  5  2  0  0  0  0
 13 11  2  0  0  0  0
 13 12  1  0  0  0  0
 14  9  1  0  0  0  0
 15 14  2  0  0  0  0
 16 17  2  0  0  0  0
 17 21  1  0  0  0  0
 17 18  1  0  0  0  0
 18  4  1  0  0  0  0
 19 22  1  0  0  0  0
 20 23  2  0  0  0  0
 21 19  2  0  0  0  0
 21 20  1  0  0  0  0
 22 23  1  0  0  0  0
 24 18  1  0  0  0  0
 25 24  1  0  0  0  0
 27 25  1  0  0  0  0
 27 26  2  0  0  0  0
 28 29  2  0  0  0  0
 29 26  1  0  0  0  0
 29 30  1  0  0  0  0
M  END
>  <MODEL>
7

>  <REMARK>
 VINA RESULT:      -8.3      3.362      6.407
  Name = 
  6 active torsions:
  status: ('A' for Active; 'I' for Inactive)
    1  A    between atoms: C_4  and  N_13
    2  A    between atoms: N_7  and  C_15
    3  A    between atoms: C_8  and  C_12
    4  A    between atoms: N_13  and  C_27
    5  A    between atoms: C_16  and  C_30
    6  A    between atoms: C_27  and  C_30
                            x       y       z     vdW  Elec       q    Type
                         _______ _______ _______ _____ _____    ______ ____

>  <TORSDO>
F 6

$$$$
=
 OpenBabel11052412313D

 30 33  0  0  1  0  0  0  0  0999 V2000
  186.7770  177.8780  142.9150 N   0  0  0  0  0  0  0  0  0  0  0  0
  184.8150  178.2410  144.2390 C   0  0  0  0  0  0  0  0  0  0  0  0
  189.2060  177.6500  146.3080 C   0  0  0  0  0  3  0  0  0  0  0  0
  188.1120  177.6750  142.7510 C   0  0  0  0  0  0  0  0  0  0  0  0
  190.5720  177.3970  146.1700 C   0  0  0  0  0  3  0  0  0  0  0  0
  184.2250  178.4010  145.4960 C   0  0  0  0  0  3  0  0  0  0  0  0
  183.7960  178.3130  142.8090 Cl  0  0  0  0  0  0  0  0  0  0  0  0
  188.3770  177.7400  145.1770 C   0  0  0  0  0  0  0  0  0  0  0  0
  185.0070  178.3460  146.6520 C   0  0  0  0  0  3  0  0  0  0  0  0
  186.1990  178.0270  144.1350 C   0  0  0  0  0  0  0  0  0  0  0  0
  188.9440  177.5830  143.8880 C   0  0  0  0  0  0  0  0  0  0  0  0
  191.1250  177.2250  144.9000 C   0  0  0  0  0  3  0  0  0  0  0  0
  190.3160  177.3150  143.7670 C   0  0  0  0  0  3  0  0  0  0  0  0
  186.3830  178.1310  146.5580 C   0  0  0  0  0  3  0  0  0  0  0  0
  186.9930  177.9690  145.3030 C   0  0  0  0  0  0  0  0  0  0  0  0
  188.8250  178.4770  139.2900 O   0  0  0  0  0  0  0  0  0  0  0  0
  188.0890  178.2420  140.2860 C   0  0  0  0  0  0  0  0  0  0  0  0
  188.6350  177.5340  141.4170 N   0  0  0  0  0  0  0  0  0  0  0  0
  185.6740  178.0930  139.4960 C   0  0  0  0  0  3  0  0  0  0  0  0
  186.1560  179.6820  140.9600 N   0  0  0  0  0  0  0  0  0  0  0  0
  186.6770  178.6730  140.2440 C   0  0  1  0  0  3  0  0  0  0  0  0
  184.5540  178.7860  139.7800 N   0  0  0  0  0  0  0  0  0  0  0  0
  184.8700  179.7280  140.6540 N   0  0  0  0  0  0  0  0  0  0  0  0
  189.6920  176.5560  141.1920 C   0  0  0  0  0  2  0  0  0  0  0  0
  190.9280  177.2420  140.6350 C   0  0  0  0  0  2  0  0  0  0  0  0
  190.6420  175.8000  138.7190 N   0  0  0  0  0  0  0  0  0  0  0  0
  191.4480  176.4890  139.4620 C   0  0  0  0  0  3  0  0  0  0  0  0
  190.8900  173.8210  137.4900 O   0  0  0  0  0  0  0  0  0  0  0  0
  191.0970  175.0610  137.5820 C   0  0  0  0  0  0  0  0  0  0  0  0
  191.8240  175.7660  136.4950 C   0  0  0  0  0  1  0  0  0  0  0  0
  1 10  1  0  0  0  0
  2  6  1  0  0  0  0
  4  1  2  0  0  0  0
  4 11  1  0  0  0  0
  5  3  1  0  0  0  0
  6  9  2  0  0  0  0
  7  2  1  0  0  0  0
  8 15  1  0  0  0  0
  8  3  2  0  0  0  0
 10  2  2  0  0  0  0
 10 15  1  0  0  0  0
 11  8  1  0  0  0  0
 12  5  2  0  0  0  0
 13 11  2  0  0  0  0
 13 12  1  0  0  0  0
 14  9  1  0  0  0  0
 15 14  2  0  0  0  0
 16 17  2  0  0  0  0
 17 18  1  0  0  0  0
 18  4  1  0  0  0  0
 19 22  2  0  0  0  0
 19 21  1  0  0  0  0
 21 17  1  1  0  0  0
 21 20  1  0  0  0  0
 22 23  1  0  0  0  0
 23 20  2  0  0  0  0
 24 18  1  0  0  0  0
 25 24  1  0  0  0  0
 26 27  2  0  0  0  0
 27 25  1  0  0  0  0
 28 29  2  0  0  0  0
 29 26  1  0  0  0  0
 30 29  1  0  0  0  0
M  END
>  <MODEL>
8

>  <REMARK>
 VINA RESULT:      -8.3      2.616      5.709
  Name = 
  6 active torsions:
  status: ('A' for Active; 'I' for Inactive)
    1  A    between atoms: C_4  and  N_13
    2  A    between atoms: N_7  and  C_15
    3  A    between atoms: C_8  and  C_12
    4  A    between atoms: N_13  and  C_27
    5  A    between atoms: C_16  and  C_30
    6  A    between atoms: C_27  and  C_30
                            x       y       z     vdW  Elec       q    Type
                         _______ _______ _______ _____ _____    ______ ____

>  <TORSDO>
F 6

$$$$
=
 OpenBabel11052412313D

 30 33  0  0  0  0  0  0  0  0999 V2000
  187.0550  177.9810  144.3840 N   0  0  0  0  0  0  0  0  0  0  0  0
  186.5690  177.8760  146.7260 C   0  0  0  0  0  0  0  0  0  0  0  0
  191.1690  177.7330  145.0740 C   0  0  0  0  0  3  0  0  0  0  0  0
  187.9000  178.0100  143.3180 C   0  0  0  0  0  0  0  0  0  0  0  0
  192.0550  177.7130  143.9950 C   0  0  0  0  0  3  0  0  0  0  0  0
  187.0230  177.7920  148.0460 C   0  0  0  0  0  3  0  0  0  0  0  0
  184.8400  177.9570  146.4280 Cl  0  0  0  0  0  0  0  0  0  0  0  0
  189.7840  177.8260  144.8600 C   0  0  0  0  0  0  0  0  0  0  0  0
  188.3920  177.7230  148.3170 C   0  0  0  0  0  3  0  0  0  0  0  0
  187.4920  177.8940  145.6670 C   0  0  0  0  0  0  0  0  0  0  0  0
  189.2910  177.9130  143.5340 C   0  0  0  0  0  0  0  0  0  0  0  0
  191.5680  177.7820  142.6890 C   0  0  0  0  0  3  0  0  0  0  0  0
  190.1950  177.8780  142.4600 C   0  0  0  0  0  3  0  0  0  0  0  0
  189.3140  177.7370  147.2690 C   0  0  0  0  0  3  0  0  0  0  0  0
  188.8780  177.8220  145.9370 C   0  0  0  0  0  0  0  0  0  0  0  0
  185.9700  179.3190  140.5450 O   0  0  0  0  0  0  0  0  0  0  0  0
  186.1460  178.8570  141.7050 C   0  0  0  0  0  0  0  0  0  0  0  0
  187.3440  178.1110  141.9940 N   0  0  0  0  0  0  0  0  0  0  0  0
  184.0110  178.2530  142.9530 C   0  0  0  0  0  3  0  0  0  0  0  0
  185.0670  180.0890  143.6000 N   0  0  0  0  0  0  0  0  0  0  0  0
  185.0970  179.0720  142.7220 C   0  0  0  0  0  0  0  0  0  0  0  0
  183.3380  178.8120  143.9770 N   0  0  0  0  0  2  0  0  0  0  0  0
  183.9890  179.9060  144.3420 N   0  0  0  0  0  0  0  0  0  0  0  0
  187.9660  177.3370  140.9260 C   0  0  0  0  0  2  0  0  0  0  0  0
  188.3790  178.2570  139.7890 C   0  0  0  0  0  2  0  0  0  0  0  0
  189.9350  176.4860  139.2670 N   0  0  0  0  0  0  0  0  0  0  0  0
  189.3170  177.5520  138.8730 C   0  0  0  0  0  3  0  0  0  0  0  0
  190.5540  174.6370  137.9680 O   0  0  0  0  0  0  0  0  0  0  0  0
  190.8450  175.7760  138.4230 C   0  0  0  0  0  0  0  0  0  0  0  0
  192.1530  176.3900  138.0780 C   0  0  0  0  0  1  0  0  0  0  0  0
  1 10  1  0  0  0  0
  2  6  1  0  0  0  0
  4 11  1  0  0  0  0
  4  1  2  0  0  0  0
  5  3  2  0  0  0  0
  6  9  2  0  0  0  0
  7  2  1  0  0  0  0
  8  3  1  0  0  0  0
  8 15  1  0  0  0  0
 10 15  1  0  0  0  0
 10  2  2  0  0  0  0
 11  8  2  0  0  0  0
 12  5  1  0  0  0  0
 13 12  2  0  0  0  0
 13 11  1  0  0  0  0
 14  9  1  0  0  0  0
 15 14  2  0  0  0  0
 16 17  2  0  0  0  0
 17 18  1  0  0  0  0
 17 21  1  0  0  0  0
 18  4  1  0  0  0  0
 19 22  1  0  0  0  0
 20 23  2  0  0  0  0
 21 19  2  0  0  0  0
 21 20  1  0  0  0  0
 22 23  1  0  0  0  0
 24 18  1  0  0  0  0
 25 24  1  0  0  0  0
 27 26  2  0  0  0  0
 27 25  1  0  0  0  0
 28 29  2  0  0  0  0
 29 26  1  0  0  0  0
 30 29  1  0  0  0  0
M  END
>  <MODEL>
9

>  <REMARK>
 VINA RESULT:      -8.2      2.635      5.543
  Name = 
  6 active torsions:
  status: ('A' for Active; 'I' for Inactive)
    1  A    between atoms: C_4  and  N_13
    2  A    between atoms: N_7  and  C_15
    3  A    between atoms: C_8  and  C_12
    4  A    between atoms: N_13  and  C_27
    5  A    between atoms: C_16  and  C_30
    6  A    between atoms: C_27  and  C_30
                            x       y       z     vdW  Elec       q    Type
                         _______ _______ _______ _____ _____    ______ ____

>  <TORSDO>
F 6

$$$$
