=
 OpenBabel11052413183D

 31 33  0  0  1  0  0  0  0  0999 V2000
  188.9740  177.4980  137.5230 C   0  0  0  0  0  0  0  0  0  0  0  0
  185.6170  178.5530  138.7650 O   0  0  0  0  0  0  0  0  0  0  0  0
  186.9700  178.2110  138.7170 C   0  0  1  0  0  3  0  0  0  0  0  0
  189.7340  177.5170  138.6240 C   0  0  0  0  0  3  0  0  0  0  0  0
  185.7580  178.9800  141.1030 C   0  0  0  0  0  0  0  0  0  0  0  0
  189.6950  177.0520  135.9920 Cl  0  0  0  0  0  0  0  0  0  0  0  0
  187.1540  178.6270  141.0640 N   0  0  0  0  0  0  0  0  0  0  0  0
  185.0210  178.9530  139.9720 C   0  0  0  0  0  0  0  0  0  0  0  0
  187.5440  177.8510  137.5710 C   0  0  0  0  0  3  0  0  0  0  0  0
  187.7490  178.2650  139.9660 C   0  0  0  0  0  0  0  0  0  0  0  0
  189.2010  177.8850  139.9860 C   0  0  0  0  0  3  0  0  0  0  0  0
  183.5670  179.3140  139.9800 C   0  0  1  0  0  3  0  0  0  0  0  0
  181.3560  180.2360  138.4810 S   0  0  0  0  0  0  0  0  0  0  0  0
  183.1690  180.0890  138.7150 C   0  0  0  0  0  2  0  0  0  0  0  0
  180.9210  179.9070  140.2170 C   0  0  0  0  0  2  0  0  0  0  0  0
  181.1880  178.3210  142.1170 C   0  0  0  0  0  1  0  0  0  0  0  0
  182.7260  178.1300  140.2270 N   0  0  0  0  0  0  0  0  0  0  0  0
  181.3530  178.4920  140.6200 C   0  0  2  0  0  3  0  0  0  0  0  0
  182.6500  177.3830  139.0930 O   0  0  0  0  0  0  0  0  0  0  0  0
  182.4920  176.0680  139.5370 C   0  0  0  0  0  1  0  0  0  0  0  0
  185.1700  179.4040  142.4120 C   0  0  0  0  0  2  0  0  0  0  0  0
  185.0620  178.2570  143.3000 N   0  0  0  0  0  0  0  0  0  0  0  0
  184.1250  178.8880  145.4540 C   0  0  0  0  0  1  0  0  0  0  0  0
  183.8230  178.4070  144.0470 C   0  0  0  0  0  2  0  0  0  0  0  0
  186.1480  178.3700  144.2600 C   0  0  0  0  0  2  0  0  0  0  0  0
  187.0590  177.1670  144.1330 C   0  0  0  0  0  2  0  0  0  0  0  0
  188.0860  177.1930  145.2430 C   0  0  0  0  0  2  0  0  0  0  0  0
  187.4360  177.6870  146.5200 C   0  0  0  0  0  2  0  0  0  0  0  0
  188.3720  177.5230  147.6640 C   0  0  0  0  0  0  0  0  0  0  0  0
  188.0820  178.0120  148.7870 O   0  0  0  0  0  1  0  0  0  0  0  0
  189.5600  176.8220  147.5000 O   0  0  0  0  0  0  0  0  0  0  0  0
  1  9  2  0  0  0  0
  1  4  1  0  0  0  0
  2  8  1  0  0  0  0
  3  9  1  6  0  0  0
  3  2  1  0  0  0  0
  3 10  1  0  0  0  0
  4 11  2  0  0  0  0
  5 21  1  0  0  0  0
  6  1  1  0  0  0  0
  7  5  1  0  0  0  0
  8  5  2  0  0  0  0
 10 11  1  0  0  0  0
 10  7  2  0  0  0  0
 12  8  1  6  0  0  0
 12 17  1  0  0  0  0
 13 14  1  0  0  0  0
 13 15  1  0  0  0  0
 14 12  1  0  0  0  0
 15 18  1  0  0  0  0
 17 18  1  0  0  0  0
 18 16  1  1  0  0  0
 19 20  1  0  0  0  0
 19 17  1  0  0  0  0
 21 22  1  0  0  0  0
 22 24  1  0  0  0  0
 22 25  1  0  0  0  0
 24 23  1  0  0  0  0
 26 25  1  0  0  0  0
 26 27  1  0  0  0  0
 27 28  1  0  0  0  0
 28 29  1  0  0  0  0
 29 30  1  0  0  0  0
 31 29  2  0  0  0  0
M  END
>  <MODEL>
1

>  <REMARK>
 VINA RESULT:      -6.9      0.000      0.000
  Name = 
  10 active torsions:
  status: ('A' for Active; 'I' for Inactive)
    1  A    between atoms: C_1  and  C_24
    2  A    between atoms: C_5  and  C_21
    3  A    between atoms: C_6  and  C_7
    4  A    between atoms: C_6  and  C_19
    5  A    between atoms: C_7  and  N_9
    6  A    between atoms: N_9  and  C_22
    7  A    between atoms: N_9  and  C_23
    8  A    between atoms: C_15  and  C_23
    9  A    between atoms: O_17  and  N_30
   10  A    between atoms: C_19  and  C_24
                            x       y       z     vdW  Elec       q    Type
                         _______ _______ _______ _____ _____    ______ ____

>  <TORSDO>
F 10

$$$$
=
 OpenBabel11052413183D

 31 33  0  0  1  0  0  0  0  0999 V2000
  188.4960  176.8250  136.2540 C   0  0  0  0  0  0  0  0  0  0  0  0
  189.4990  176.9320  139.8470 O   0  0  0  0  0  0  0  0  0  0  0  0
  188.8030  177.1370  138.6540 C   0  0  0  0  0  0  0  0  0  0  0  0
  187.3760  177.5560  136.2210 C   0  0  0  0  0  3  0  0  0  0  0  0
  187.8990  178.2150  141.0570 C   0  0  0  0  0  0  0  0  0  0  0  0
  189.0890  176.1000  134.7760 Cl  0  0  0  0  0  0  0  0  0  0  0  0
  187.1760  178.4340  139.8310 N   0  0  0  0  0  0  0  0  0  0  0  0
  189.0250  177.4690  141.0550 C   0  0  0  0  0  0  0  0  0  0  0  0
  189.2370  176.6130  137.5100 C   0  0  0  0  0  3  0  0  0  0  0  0
  187.5710  177.9440  138.6940 C   0  0  0  0  0  0  0  0  0  0  0  0
  186.7910  178.2220  137.4410 C   0  0  0  0  0  2  0  0  0  0  0  0
  189.8010  177.2230  142.3130 C   0  0  1  0  0  3  0  0  0  0  0  0
  191.0030  175.3090  144.0080 S   0  0  0  0  0  0  0  0  0  0  0  0
  189.7840  175.7390  142.7080 C   0  0  0  0  0  2  0  0  0  0  0  0
  191.2140  177.0070  144.6280 C   0  0  0  0  0  2  0  0  0  0  0  0
  191.7620  179.3510  143.9970 C   0  0  0  0  0  1  0  0  0  0  0  0
  191.1590  177.7860  142.2190 N   0  0  0  0  0  0  0  0  0  0  0  0
  191.8050  177.9080  143.5380 C   0  0  2  0  0  3  0  0  0  0  0  0
  191.9340  176.9750  141.4500 O   0  0  0  0  0  0  0  0  0  0  0  0
  192.6240  177.8400  140.5970 C   0  0  0  0  0  1  0  0  0  0  0  0
  187.3520  178.8040  142.3190 C   0  0  0  0  0  2  0  0  0  0  0  0
  186.2440  177.9930  142.8030 N   0  0  0  0  0  0  0  0  0  0  0  0
  184.0980  178.5680  141.8150 C   0  0  0  0  0  1  0  0  0  0  0  0
  185.0900  178.8700  142.9230 C   0  0  0  0  0  2  0  0  0  0  0  0
  186.5950  177.5730  144.1490 C   0  0  0  0  0  2  0  0  0  0  0  0
  185.6800  178.2560  145.1440 C   0  0  0  0  0  2  0  0  0  0  0  0
  186.3900  178.3910  146.4730 C   0  0  0  0  0  2  0  0  0  0  0  0
  187.6530  177.5530  146.4570 C   0  0  0  0  0  2  0  0  0  0  0  0
  188.4580  177.8220  147.6780 C   0  0  0  0  0  0  0  0  0  0  0  0
  187.9690  178.5110  148.6110 O   0  0  0  0  0  1  0  0  0  0  0  0
  189.7420  177.3080  147.7950 O   0  0  0  0  0  0  0  0  0  0  0  0
  1  9  1  0  0  0  0
  2  8  1  0  0  0  0
  3 10  1  0  0  0  0
  3  2  1  0  0  0  0
  4  1  2  0  0  0  0
  4 11  1  0  0  0  0
  5 21  1  0  0  0  0
  6  1  1  0  0  0  0
  7  5  1  0  0  0  0
  8  5  2  0  0  0  0
  9  3  2  0  0  0  0
 10  7  2  0  0  0  0
 11 10  1  0  0  0  0
 12  8  1  6  0  0  0
 12 14  1  0  0  0  0
 13 15  1  0  0  0  0
 14 13  1  0  0  0  0
 17 12  1  0  0  0  0
 17 18  1  0  0  0  0
 18 16  1  1  0  0  0
 18 15  1  0  0  0  0
 19 17  1  0  0  0  0
 20 19  1  0  0  0  0
 21 22  1  0  0  0  0
 22 24  1  0  0  0  0
 22 25  1  0  0  0  0
 23 24  1  0  0  0  0
 25 26  1  0  0  0  0
 26 27  1  0  0  0  0
 28 27  1  0  0  0  0
 28 29  1  0  0  0  0
 29 31  2  0  0  0  0
 29 30  1  0  0  0  0
M  END
>  <MODEL>
2

>  <REMARK>
 VINA RESULT:      -6.7      3.265      5.783
  Name = 
  10 active torsions:
  status: ('A' for Active; 'I' for Inactive)
    1  A    between atoms: C_1  and  C_24
    2  A    between atoms: C_5  and  C_21
    3  A    between atoms: C_6  and  C_7
    4  A    between atoms: C_6  and  C_19
    5  A    between atoms: C_7  and  N_9
    6  A    between atoms: N_9  and  C_22
    7  A    between atoms: N_9  and  C_23
    8  A    between atoms: C_15  and  C_23
    9  A    between atoms: O_17  and  N_30
   10  A    between atoms: C_19  and  C_24
                            x       y       z     vdW  Elec       q    Type
                         _______ _______ _______ _____ _____    ______ ____

>  <TORSDO>
F 10

$$$$
=
 OpenBabel11052413183D

 31 33  0  0  1  0  0  0  0  0999 V2000
  190.4020  176.5550  136.7640 C   0  0  0  0  0  0  0  0  0  0  0  0
  189.7870  177.3380  140.3610 O   0  0  0  0  0  0  0  0  0  0  0  0
  189.6280  177.2260  138.9780 C   0  0  0  0  0  0  0  0  0  0  0  0
  189.2960  176.9970  136.1550 C   0  0  0  0  0  3  0  0  0  0  0  0
  187.6450  178.3570  140.5730 C   0  0  0  0  0  0  0  0  0  0  0  0
  191.6650  175.8070  135.8100 Cl  0  0  0  0  0  0  0  0  0  0  0  0
  187.4730  178.2480  139.1470 N   0  0  0  0  0  0  0  0  0  0  0  0
  188.7730  177.8970  141.1560 C   0  0  0  0  0  0  0  0  0  0  0  0
  190.5760  176.6780  138.2220 C   0  0  0  0  0  3  0  0  0  0  0  0
  188.3790  177.7250  138.3760 C   0  0  0  0  0  0  0  0  0  0  0  0
  188.1570  177.6570  136.8920 C   0  0  0  0  0  2  0  0  0  0  0  0
  188.9830  177.9960  142.6360 C   0  0  1  0  0  3  0  0  0  0  0  0
  188.2610  177.0310  145.1910 S   0  0  0  0  0  0  0  0  0  0  0  0
  187.8760  177.2690  143.4150 C   0  0  0  0  0  2  0  0  0  0  0  0
  189.5250  178.3360  145.2810 C   0  0  0  0  0  2  0  0  0  0  0  0
  191.6380  179.1960  144.2860 C   0  0  0  0  0  1  0  0  0  0  0  0
  190.3400  177.5630  143.0110 N   0  0  0  0  0  0  0  0  0  0  0  0
  190.7100  178.0010  144.3690 C   0  0  2  0  0  3  0  0  0  0  0  0
  190.4080  176.2050  142.9790 O   0  0  0  0  0  0  0  0  0  0  0  0
  191.5880  175.8890  143.6570 C   0  0  0  0  0  1  0  0  0  0  0  0
  186.5350  178.9560  141.3780 C   0  0  0  0  0  2  0  0  0  0  0  0
  185.2710  178.3310  141.0190 N   0  0  0  0  0  0  0  0  0  0  0  0
  183.8000  178.8660  139.1570 C   0  0  0  0  0  1  0  0  0  0  0  0
  184.4270  179.3670  140.4440 C   0  0  0  0  0  2  0  0  0  0  0  0
  184.6430  177.9200  142.2630 C   0  0  0  0  0  2  0  0  0  0  0  0
  183.9350  179.1050  142.8860 C   0  0  0  0  0  2  0  0  0  0  0  0
  183.8570  178.9150  144.3850 C   0  0  0  0  0  2  0  0  0  0  0  0
  185.1650  179.3480  145.0160 C   0  0  0  0  0  2  0  0  0  0  0  0
  185.1660  179.0110  146.4650 C   0  0  0  0  0  0  0  0  0  0  0  0
  184.3970  178.1150  146.9000 O   0  0  0  0  0  0  0  0  0  0  0  0
  186.0210  179.6750  147.3360 O   0  0  0  0  0  1  0  0  0  0  0  0
  1  9  1  0  0  0  0
  2  8  1  0  0  0  0
  3  2  1  0  0  0  0
  4  1  2  0  0  0  0
  4 11  1  0  0  0  0
  5  8  2  0  0  0  0
  5 21  1  0  0  0  0
  6  1  1  0  0  0  0
  7  5  1  0  0  0  0
  9  3  2  0  0  0  0
 10  3  1  0  0  0  0
 10  7  2  0  0  0  0
 11 10  1  0  0  0  0
 12  8  1  6  0  0  0
 12 17  1  0  0  0  0
 12 14  1  0  0  0  0
 13 15  1  0  0  0  0
 14 13  1  0  0  0  0
 17 18  1  0  0  0  0
 18 16  1  6  0  0  0
 18 15  1  0  0  0  0
 19 17  1  0  0  0  0
 19 20  1  0  0  0  0
 22 21  1  0  0  0  0
 22 25  1  0  0  0  0
 23 24  1  0  0  0  0
 24 22  1  0  0  0  0
 25 26  1  0  0  0  0
 26 27  1  0  0  0  0
 27 28  1  0  0  0  0
 28 29  1  0  0  0  0
 29 30  2  0  0  0  0
 29 31  1  0  0  0  0
M  END
>  <MODEL>
3

>  <REMARK>
 VINA RESULT:      -6.7      3.115      5.727
  Name = 
  10 active torsions:
  status: ('A' for Active; 'I' for Inactive)
    1  A    between atoms: C_1  and  C_24
    2  A    between atoms: C_5  and  C_21
    3  A    between atoms: C_6  and  C_7
    4  A    between atoms: C_6  and  C_19
    5  A    between atoms: C_7  and  N_9
    6  A    between atoms: N_9  and  C_22
    7  A    between atoms: N_9  and  C_23
    8  A    between atoms: C_15  and  C_23
    9  A    between atoms: O_17  and  N_30
   10  A    between atoms: C_19  and  C_24
                            x       y       z     vdW  Elec       q    Type
                         _______ _______ _______ _____ _____    ______ ____

>  <TORSDO>
F 10

$$$$
=
 OpenBabel11052413183D

 31 33  0  0  1  0  0  0  0  0999 V2000
  190.6030  176.3370  143.8580 C   0  0  0  0  0  0  0  0  0  0  0  0
  189.0580  177.2930  140.5980 O   0  0  0  0  0  0  0  0  0  0  0  0
  189.2660  177.0990  141.9650 C   0  0  1  0  0  3  0  0  0  0  0  0
  189.6840  176.7060  144.7580 C   0  0  0  0  0  3  0  0  0  0  0  0
  186.9360  178.2900  141.0120 C   0  0  0  0  0  0  0  0  0  0  0  0
  192.0980  175.6120  144.4070 Cl  0  0  0  0  0  0  0  0  0  0  0  0
  187.1390  178.0900  142.4240 N   0  0  0  0  0  0  0  0  0  0  0  0
  187.8850  177.9090  140.1310 C   0  0  0  0  0  0  0  0  0  0  0  0
  190.3840  176.5350  142.4140 C   0  0  0  0  0  3  0  0  0  0  0  0
  188.2160  177.5390  142.9000 C   0  0  0  0  0  0  0  0  0  0  0  0
  188.3660  177.3340  144.3800 C   0  0  0  0  0  3  0  0  0  0  0  0
  187.7030  178.1010  138.6560 C   0  0  1  0  0  3  0  0  0  0  0  0
  188.9590  178.4370  136.1480 S   0  0  0  0  0  0  0  0  0  0  0  0
  189.0090  178.5420  137.9770 C   0  0  0  0  0  2  0  0  0  0  0  0
  187.1450  178.4370  136.0140 C   0  0  0  0  0  2  0  0  0  0  0  0
  185.0480  177.3290  136.7680 C   0  0  0  0  0  1  0  0  0  0  0  0
  187.0970  176.9110  138.0350 N   0  0  0  0  0  0  0  0  0  0  0  0
  186.5550  177.1960  136.6940 C   0  0  2  0  0  3  0  0  0  0  0  0
  188.0370  175.9380  137.9050 O   0  0  0  0  0  0  0  0  0  0  0  0
  187.4270  174.9500  137.1280 C   0  0  0  0  0  1  0  0  0  0  0  0
  185.6720  178.9540  140.5640 C   0  0  0  0  0  2  0  0  0  0  0  0
  184.5420  178.4230  141.3120 N   0  0  0  0  0  0  0  0  0  0  0  0
  182.8550  177.2540  140.0070 C   0  0  0  0  0  1  0  0  0  0  0  0
  183.3580  178.6020  140.4880 C   0  0  0  0  0  2  0  0  0  0  0  0
  184.3770  179.2760  142.4770 C   0  0  0  0  0  2  0  0  0  0  0  0
  183.1550  178.8350  143.2550 C   0  0  0  0  0  2  0  0  0  0  0  0
  183.4770  178.8180  144.7330 C   0  0  0  0  0  2  0  0  0  0  0  0
  184.8680  179.3780  144.9520 C   0  0  0  0  0  2  0  0  0  0  0  0
  185.4410  178.8380  146.2140 C   0  0  0  0  0  0  0  0  0  0  0  0
  185.6310  177.6000  146.3370 O   0  0  0  0  0  0  0  0  0  0  0  0
  185.7780  179.6970  147.2520 O   0  0  0  0  0  1  0  0  0  0  0  0
  1  6  1  0  0  0  0
  1  4  1  0  0  0  0
  2  3  1  0  0  0  0
  3  9  1  1  0  0  0
  3 10  1  0  0  0  0
  5  7  1  0  0  0  0
  7 10  2  0  0  0  0
  8  2  1  0  0  0  0
  8  5  2  0  0  0  0
  9  1  2  0  0  0  0
 10 11  1  0  0  0  0
 11  4  2  0  0  0  0
 12  8  1  1  0  0  0
 13 14  1  0  0  0  0
 14 12  1  0  0  0  0
 15 13  1  0  0  0  0
 15 18  1  0  0  0  0
 17 12  1  0  0  0  0
 18 16  1  1  0  0  0
 18 17  1  0  0  0  0
 19 17  1  0  0  0  0
 20 19  1  0  0  0  0
 21  5  1  0  0  0  0
 21 22  1  0  0  0  0
 22 25  1  0  0  0  0
 23 24  1  0  0  0  0
 24 22  1  0  0  0  0
 25 26  1  0  0  0  0
 26 27  1  0  0  0  0
 27 28  1  0  0  0  0
 28 29  1  0  0  0  0
 29 30  2  0  0  0  0
 29 31  1  0  0  0  0
M  END
>  <MODEL>
4

>  <REMARK>
 VINA RESULT:      -6.6      3.046      5.067
  Name = 
  10 active torsions:
  status: ('A' for Active; 'I' for Inactive)
    1  A    between atoms: C_1  and  C_24
    2  A    between atoms: C_5  and  C_21
    3  A    between atoms: C_6  and  C_7
    4  A    between atoms: C_6  and  C_19
    5  A    between atoms: C_7  and  N_9
    6  A    between atoms: N_9  and  C_22
    7  A    between atoms: N_9  and  C_23
    8  A    between atoms: C_15  and  C_23
    9  A    between atoms: O_17  and  N_30
   10  A    between atoms: C_19  and  C_24
                            x       y       z     vdW  Elec       q    Type
                         _______ _______ _______ _____ _____    ______ ____

>  <TORSDO>
F 10

$$$$
=
 OpenBabel11052413183D

 31 33  0  0  1  0  0  0  0  0999 V2000
  190.1970  177.0240  144.0300 C   0  0  0  0  0  0  0  0  0  0  0  0
  191.0240  176.6840  140.4060 O   0  0  0  0  0  0  0  0  0  0  0  0
  190.3430  176.9540  141.5950 C   0  0  1  0  0  3  0  0  0  0  0  0
  188.9490  177.5090  144.0200 C   0  0  0  0  0  3  0  0  0  0  0  0
  189.1640  177.4270  139.1170 C   0  0  0  0  0  0  0  0  0  0  0  0
  190.9940  176.7390  145.5610 Cl  0  0  0  0  0  0  0  0  0  0  0  0
  188.4530  177.7050  140.3390 N   0  0  0  0  0  0  0  0  0  0  0  0
  190.4230  176.9410  139.1630 C   0  0  0  0  0  0  0  0  0  0  0  0
  190.9150  176.7320  142.7760 C   0  0  0  0  0  3  0  0  0  0  0  0
  188.9760  177.4970  141.5100 C   0  0  0  0  0  0  0  0  0  0  0  0
  188.1810  177.7840  142.7510 C   0  0  0  0  0  3  0  0  0  0  0  0
  191.1890  176.6400  137.9100 C   0  0  1  0  0  3  0  0  0  0  0  0
  193.5900  175.6570  136.7910 S   0  0  0  0  0  0  0  0  0  0  0  0
  192.6760  176.3880  138.2020 C   0  0  0  0  0  2  0  0  0  0  0  0
  192.3940  176.1630  135.5170 C   0  0  0  0  0  2  0  0  0  0  0  0
  190.0040  176.0940  134.8270 C   0  0  0  0  0  1  0  0  0  0  0  0
  190.5530  175.5520  137.1470 N   0  0  0  0  0  0  0  0  0  0  0  0
  191.0370  175.4900  135.7560 C   0  0  2  0  0  3  0  0  0  0  0  0
  190.8310  174.3600  137.7370 O   0  0  0  0  0  0  0  0  0  0  0  0
  190.2310  173.4030  136.9160 C   0  0  0  0  0  1  0  0  0  0  0  0
  188.4840  177.7210  137.8170 C   0  0  0  0  0  2  0  0  0  0  0  0
  187.1370  177.1720  137.8290 N   0  0  0  0  0  0  0  0  0  0  0  0
  186.8320  174.8670  137.1160 C   0  0  0  0  0  1  0  0  0  0  0  0
  187.0160  176.3040  136.6680 C   0  0  0  0  0  2  0  0  0  0  0  0
  186.2310  178.2880  137.6150 C   0  0  0  0  0  2  0  0  0  0  0  0
  184.8390  177.9010  138.0690 C   0  0  0  0  0  2  0  0  0  0  0  0
  184.2580  179.0120  138.9160 C   0  0  0  0  0  2  0  0  0  0  0  0
  183.7240  178.4310  140.2100 C   0  0  0  0  0  2  0  0  0  0  0  0
  184.6820  178.6940  141.3180 C   0  0  0  0  0  0  0  0  0  0  0  0
  184.5730  178.0650  142.4030 O   0  0  0  0  0  1  0  0  0  0  0  0
  185.7010  179.6230  141.1550 O   0  0  0  0  0  0  0  0  0  0  0  0
  1  6  1  0  0  0  0
  2  3  1  0  0  0  0
  3  9  1  1  0  0  0
  4  1  1  0  0  0  0
  5  8  2  0  0  0  0
  5  7  1  0  0  0  0
  7 10  2  0  0  0  0
  8  2  1  0  0  0  0
  9  1  2  0  0  0  0
 10  3  1  0  0  0  0
 10 11  1  0  0  0  0
 11  4  2  0  0  0  0
 12 14  1  0  0  0  0
 12  8  1  1  0  0  0
 13 14  1  0  0  0  0
 15 18  1  0  0  0  0
 15 13  1  0  0  0  0
 17 19  1  0  0  0  0
 17 12  1  0  0  0  0
 18 16  1  6  0  0  0
 18 17  1  0  0  0  0
 20 19  1  0  0  0  0
 21 22  1  0  0  0  0
 21  5  1  0  0  0  0
 24 23  1  0  0  0  0
 24 22  1  0  0  0  0
 25 22  1  0  0  0  0
 25 26  1  0  0  0  0
 26 27  1  0  0  0  0
 27 28  1  0  0  0  0
 28 29  1  0  0  0  0
 29 30  1  0  0  0  0
 31 29  2  0  0  0  0
M  END
>  <MODEL>
5

>  <REMARK>
 VINA RESULT:      -6.4      4.229      7.912
  Name = 
  10 active torsions:
  status: ('A' for Active; 'I' for Inactive)
    1  A    between atoms: C_1  and  C_24
    2  A    between atoms: C_5  and  C_21
    3  A    between atoms: C_6  and  C_7
    4  A    between atoms: C_6  and  C_19
    5  A    between atoms: C_7  and  N_9
    6  A    between atoms: N_9  and  C_22
    7  A    between atoms: N_9  and  C_23
    8  A    between atoms: C_15  and  C_23
    9  A    between atoms: O_17  and  N_30
   10  A    between atoms: C_19  and  C_24
                            x       y       z     vdW  Elec       q    Type
                         _______ _______ _______ _____ _____    ______ ____

>  <TORSDO>
F 10

$$$$
=
 OpenBabel11052413183D

 31 33  0  0  1  0  0  0  0  0999 V2000
  190.6400  176.6090  143.9050 C   0  0  0  0  0  0  0  0  0  0  0  0
  190.4920  176.5670  140.1760 O   0  0  0  0  0  0  0  0  0  0  0  0
  190.1830  176.8070  141.5170 C   0  0  1  0  0  3  0  0  0  0  0  0
  189.5480  177.3020  144.2520 C   0  0  0  0  0  3  0  0  0  0  0  0
  188.5640  177.7710  139.4670 C   0  0  0  0  0  0  0  0  0  0  0  0
  191.7070  176.0080  145.1550 Cl  0  0  0  0  0  0  0  0  0  0  0  0
  188.2360  178.0210  140.8470 N   0  0  0  0  0  0  0  0  0  0  0  0
  189.6750  177.0710  139.1510 C   0  0  0  0  0  0  0  0  0  0  0  0
  190.9650  176.3490  142.4920 C   0  0  0  0  0  3  0  0  0  0  0  0
  188.9710  177.5850  141.8260 C   0  0  0  0  0  0  0  0  0  0  0  0
  188.5700  177.8560  143.2470 C   0  0  0  0  0  3  0  0  0  0  0  0
  190.0440  176.7940  137.7260 C   0  0  1  0  0  3  0  0  0  0  0  0
  192.0750  176.0150  135.9220 S   0  0  0  0  0  0  0  0  0  0  0  0
  191.5660  176.7120  137.5400 C   0  0  0  0  0  2  0  0  0  0  0  0
  190.4930  176.3340  135.0810 C   0  0  0  0  0  2  0  0  0  0  0  0
  188.0310  175.9850  135.1750 C   0  0  0  0  0  1  0  0  0  0  0  0
  189.3300  175.6120  137.2130 N   0  0  0  0  0  0  0  0  0  0  0  0
  189.3630  175.5360  135.7410 C   0  0  2  0  0  3  0  0  0  0  0  0
  189.9110  174.4830  137.7000 O   0  0  0  0  0  0  0  0  0  0  0  0
  189.3860  173.4450  136.9260 C   0  0  0  0  0  1  0  0  0  0  0  0
  187.6650  178.3320  138.4110 C   0  0  0  0  0  2  0  0  0  0  0  0
  186.3160  177.8150  138.5830 N   0  0  0  0  0  0  0  0  0  0  0  0
  184.8230  176.3550  137.3370 C   0  0  0  0  0  1  0  0  0  0  0  0
  185.7990  177.5140  137.2570 C   0  0  0  0  0  2  0  0  0  0  0  0
  185.5160  178.9090  139.1080 C   0  0  0  0  0  2  0  0  0  0  0  0
  184.6400  178.3970  140.2320 C   0  0  0  0  0  2  0  0  0  0  0  0
  184.9580  179.1520  141.5040 C   0  0  0  0  0  2  0  0  0  0  0  0
  185.0500  178.1750  142.6590 C   0  0  0  0  0  2  0  0  0  0  0  0
  184.9340  178.9040  143.9510 C   0  0  0  0  0  0  0  0  0  0  0  0
  184.5710  180.1090  143.9600 O   0  0  0  0  0  0  0  0  0  0  0  0
  185.2140  178.2550  145.1470 O   0  0  0  0  0  1  0  0  0  0  0  0
  1  4  1  0  0  0  0
  1  6  1  0  0  0  0
  2  3  1  0  0  0  0
  3 10  1  0  0  0  0
  3  9  1  6  0  0  0
  5  7  1  0  0  0  0
  7 10  2  0  0  0  0
  8  5  2  0  0  0  0
  8  2  1  0  0  0  0
  9  1  2  0  0  0  0
 10 11  1  0  0  0  0
 11  4  2  0  0  0  0
 12  8  1  1  0  0  0
 13 14  1  0  0  0  0
 14 12  1  0  0  0  0
 15 18  1  0  0  0  0
 15 13  1  0  0  0  0
 17 19  1  0  0  0  0
 17 12  1  0  0  0  0
 18 16  1  6  0  0  0
 18 17  1  0  0  0  0
 20 19  1  0  0  0  0
 21 22  1  0  0  0  0
 21  5  1  0  0  0  0
 22 25  1  0  0  0  0
 24 23  1  0  0  0  0
 24 22  1  0  0  0  0
 25 26  1  0  0  0  0
 26 27  1  0  0  0  0
 27 28  1  0  0  0  0
 28 29  1  0  0  0  0
 29 30  2  0  0  0  0
 29 31  1  0  0  0  0
M  END
>  <MODEL>
6

>  <REMARK>
 VINA RESULT:      -5.9      3.969      6.862
  Name = 
  10 active torsions:
  status: ('A' for Active; 'I' for Inactive)
    1  A    between atoms: C_1  and  C_24
    2  A    between atoms: C_5  and  C_21
    3  A    between atoms: C_6  and  C_7
    4  A    between atoms: C_6  and  C_19
    5  A    between atoms: C_7  and  N_9
    6  A    between atoms: N_9  and  C_22
    7  A    between atoms: N_9  and  C_23
    8  A    between atoms: C_15  and  C_23
    9  A    between atoms: O_17  and  N_30
   10  A    between atoms: C_19  and  C_24
                            x       y       z     vdW  Elec       q    Type
                         _______ _______ _______ _____ _____    ______ ____

>  <TORSDO>
F 10

$$$$
=
 OpenBabel11052413183D

 31 33  0  0  1  0  0  0  0  0999 V2000
  182.9630  179.0070  142.8160 C   0  0  0  0  0  0  0  0  0  0  0  0
  185.8840  178.5840  140.5320 O   0  0  0  0  0  0  0  0  0  0  0  0
  185.0930  178.6500  141.6800 C   0  0  1  0  0  3  0  0  0  0  0  0
  183.4810  178.7820  144.0290 C   0  0  0  0  0  3  0  0  0  0  0  0
  187.8020  178.0220  141.8280 C   0  0  0  0  0  0  0  0  0  0  0  0
  181.2590  179.3760  142.6660 Cl  0  0  0  0  0  0  0  0  0  0  0  0
  186.9940  178.0910  143.0180 N   0  0  0  0  0  0  0  0  0  0  0  0
  187.2460  178.2510  140.6180 C   0  0  0  0  0  0  0  0  0  0  0  0
  183.7970  178.9440  141.6030 C   0  0  0  0  0  3  0  0  0  0  0  0
  185.7270  178.3810  142.9820 C   0  0  0  0  0  0  0  0  0  0  0  0
  184.9370  178.4610  144.2570 C   0  0  0  0  0  3  0  0  0  0  0  0
  188.0600  178.1880  139.3610 C   0  0  1  0  0  3  0  0  0  0  0  0
  189.9160  176.7140  137.8240 S   0  0  0  0  0  0  0  0  0  0  0  0
  189.1380  177.0970  139.4390 C   0  0  0  0  0  2  0  0  0  0  0  0
  189.4390  178.2730  137.0170 C   0  0  0  0  0  2  0  0  0  0  0  0
  187.5380  179.7800  136.4630 C   0  0  0  0  0  1  0  0  0  0  0  0
  187.1950  178.0690  138.1740 N   0  0  0  0  0  0  0  0  0  0  0  0
  187.9130  178.3880  136.9270 C   0  0  2  0  0  3  0  0  0  0  0  0
  186.7350  176.7930  138.0740 O   0  0  0  0  0  0  0  0  0  0  0  0
  185.4700  176.9120  137.4920 C   0  0  0  0  0  1  0  0  0  0  0  0
  189.2460  177.6590  141.9700 C   0  0  0  0  0  2  0  0  0  0  0  0
  189.7390  178.0930  143.2690 N   0  0  0  0  0  0  0  0  0  0  0  0
  191.6970  177.5090  141.9490 C   0  0  0  0  0  1  0  0  0  0  0  0
  191.1740  178.2900  143.1400 C   0  0  0  0  0  2  0  0  0  0  0  0
  189.5480  176.9770  144.1800 C   0  0  0  0  0  2  0  0  0  0  0  0
  190.4970  177.1160  145.3520 C   0  0  0  0  0  2  0  0  0  0  0  0
  189.7080  177.1260  146.6420 C   0  0  0  0  0  2  0  0  0  0  0  0
  188.2710  177.5100  146.3510 C   0  0  0  0  0  2  0  0  0  0  0  0
  187.5970  177.9460  147.6030 C   0  0  0  0  0  0  0  0  0  0  0  0
  186.4980  178.5560  147.5430 O   0  0  0  0  0  0  0  0  0  0  0  0
  188.1720  177.6720  148.8370 O   0  0  0  0  0  1  0  0  0  0  0  0
  1  4  1  0  0  0  0
  2  8  1  0  0  0  0
  2  3  1  0  0  0  0
  3  9  1  6  0  0  0
  3 10  1  0  0  0  0
  4 11  2  0  0  0  0
  5 21  1  0  0  0  0
  5  7  1  0  0  0  0
  6  1  1  0  0  0  0
  8  5  2  0  0  0  0
  9  1  2  0  0  0  0
 10  7  2  0  0  0  0
 10 11  1  0  0  0  0
 12 14  1  0  0  0  0
 12  8  1  1  0  0  0
 13 14  1  0  0  0  0
 15 13  1  0  0  0  0
 17 12  1  0  0  0  0
 18 16  1  1  0  0  0
 18 15  1  0  0  0  0
 18 17  1  0  0  0  0
 19 17  1  0  0  0  0
 20 19  1  0  0  0  0
 21 22  1  0  0  0  0
 22 25  1  0  0  0  0
 23 24  1  0  0  0  0
 24 22  1  0  0  0  0
 25 26  1  0  0  0  0
 26 27  1  0  0  0  0
 28 27  1  0  0  0  0
 28 29  1  0  0  0  0
 29 31  1  0  0  0  0
 30 29  2  0  0  0  0
M  END
>  <MODEL>
7

>  <REMARK>
 VINA RESULT:      -5.9      3.276      5.696
  Name = 
  10 active torsions:
  status: ('A' for Active; 'I' for Inactive)
    1  A    between atoms: C_1  and  C_24
    2  A    between atoms: C_5  and  C_21
    3  A    between atoms: C_6  and  C_7
    4  A    between atoms: C_6  and  C_19
    5  A    between atoms: C_7  and  N_9
    6  A    between atoms: N_9  and  C_22
    7  A    between atoms: N_9  and  C_23
    8  A    between atoms: C_15  and  C_23
    9  A    between atoms: O_17  and  N_30
   10  A    between atoms: C_19  and  C_24
                            x       y       z     vdW  Elec       q    Type
                         _______ _______ _______ _____ _____    ______ ____

>  <TORSDO>
F 10

$$$$
=
 OpenBabel11052413183D

 31 33  0  0  1  0  0  0  0  0999 V2000
  185.8290  178.3030  144.6240 C   0  0  0  0  0  0  0  0  0  0  0  0
  184.3280  178.0680  141.2150 O   0  0  0  0  0  0  0  0  0  0  0  0
  184.4830  178.2610  142.5890 C   0  0  1  0  0  3  0  0  0  0  0  0
  184.7950  178.6580  145.3950 C   0  0  0  0  0  3  0  0  0  0  0  0
  182.0160  178.6250  141.3500 C   0  0  0  0  0  0  0  0  0  0  0  0
  187.4080  178.0920  145.3490 Cl  0  0  0  0  0  0  0  0  0  0  0  0
  182.1660  178.8230  142.7690 N   0  0  0  0  0  0  0  0  0  0  0  0
  183.0810  178.2690  140.6000 C   0  0  0  0  0  0  0  0  0  0  0  0
  185.6670  178.0920  143.1740 C   0  0  0  0  0  3  0  0  0  0  0  0
  183.3040  178.6620  143.3760 C   0  0  0  0  0  0  0  0  0  0  0  0
  183.3990  178.8600  144.8620 C   0  0  0  0  0  3  0  0  0  0  0  0
  182.9580  178.0550  139.1210 C   0  0  1  0  0  3  0  0  0  0  0  0
  184.2910  177.4470  136.7060 S   0  0  0  0  0  0  0  0  0  0  0  0
  184.3290  178.0660  138.4310 C   0  0  0  0  0  2  0  0  0  0  0  0
  182.5050  177.6980  136.4620 C   0  0  0  0  0  2  0  0  0  0  0  0
  180.2380  177.2050  137.3620 C   0  0  0  0  0  1  0  0  0  0  0  0
  182.1650  176.8490  138.8240 N   0  0  0  0  0  0  0  0  0  0  0  0
  181.7010  176.8170  137.4250 C   0  0  2  0  0  3  0  0  0  0  0  0
  182.9270  175.7420  139.0340 O   0  0  0  0  0  0  0  0  0  0  0  0
  182.4100  174.7800  138.1630 C   0  0  0  0  0  1  0  0  0  0  0  0
  180.6690  178.8550  140.7400 C   0  0  0  0  0  2  0  0  0  0  0  0
  180.4220  180.2840  140.6120 N   0  0  0  0  0  0  0  0  0  0  0  0
  179.2660  180.4840  142.7430 C   0  0  0  0  0  1  0  0  0  0  0  0
  179.1350  180.5540  141.2330 C   0  0  0  0  0  2  0  0  0  0  0  0
  180.2700  180.5540  139.1920 C   0  0  0  0  0  2  0  0  0  0  0  0
  181.4280  181.4050  138.7150 C   0  0  0  0  0  2  0  0  0  0  0  0
  181.1450  181.9040  137.3150 C   0  0  0  0  0  2  0  0  0  0  0  0
  180.3520  183.1930  137.3910 C   0  0  0  0  0  2  0  0  0  0  0  0
  181.1840  184.3300  136.9140 C   0  0  0  0  0  0  0  0  0  0  0  0
  180.8380  184.9720  135.8880 O   0  0  0  0  0  0  0  0  0  0  0  0
  182.3340  184.6920  137.6030 O   0  0  0  0  0  1  0  0  0  0  0  0
  1  6  1  0  0  0  0
  1  4  1  0  0  0  0
  2  3  1  0  0  0  0
  3  9  1  6  0  0  0
  3 10  1  0  0  0  0
  5  7  1  0  0  0  0
  7 10  2  0  0  0  0
  8  2  1  0  0  0  0
  8  5  2  0  0  0  0
  9  1  2  0  0  0  0
 10 11  1  0  0  0  0
 11  4  2  0  0  0  0
 12  8  1  1  0  0  0
 13 14  1  0  0  0  0
 14 12  1  0  0  0  0
 15 13  1  0  0  0  0
 15 18  1  0  0  0  0
 17 19  1  0  0  0  0
 17 12  1  0  0  0  0
 18 16  1  1  0  0  0
 18 17  1  0  0  0  0
 20 19  1  0  0  0  0
 21  5  1  0  0  0  0
 22 21  1  0  0  0  0
 22 24  1  0  0  0  0
 24 23  1  0  0  0  0
 25 22  1  0  0  0  0
 26 25  1  0  0  0  0
 27 28  1  0  0  0  0
 27 26  1  0  0  0  0
 29 28  1  0  0  0  0
 29 31  1  0  0  0  0
 30 29  2  0  0  0  0
M  END
>  <MODEL>
8

>  <REMARK>
 VINA RESULT:      -5.8      3.889      7.583
  Name = 
  10 active torsions:
  status: ('A' for Active; 'I' for Inactive)
    1  A    between atoms: C_1  and  C_24
    2  A    between atoms: C_5  and  C_21
    3  A    between atoms: C_6  and  C_7
    4  A    between atoms: C_6  and  C_19
    5  A    between atoms: C_7  and  N_9
    6  A    between atoms: N_9  and  C_22
    7  A    between atoms: N_9  and  C_23
    8  A    between atoms: C_15  and  C_23
    9  A    between atoms: O_17  and  N_30
   10  A    between atoms: C_19  and  C_24
                            x       y       z     vdW  Elec       q    Type
                         _______ _______ _______ _____ _____    ______ ____

>  <TORSDO>
F 10

$$$$
=
 OpenBabel11052413183D

 31 33  0  0  1  0  0  0  0  0999 V2000
  182.9430  178.6320  142.6020 C   0  0  0  0  0  0  0  0  0  0  0  0
  186.6490  178.3690  142.9580 O   0  0  0  0  0  0  0  0  0  0  0  0
  185.3710  178.4930  142.4090 C   0  0  0  0  0  0  0  0  0  0  0  0
  182.7650  178.7480  141.2800 C   0  0  0  0  0  3  0  0  0  0  0  0
  187.6430  178.5020  140.7990 C   0  0  0  0  0  0  0  0  0  0  0  0
  181.5500  178.6520  143.6600 Cl  0  0  0  0  0  0  0  0  0  0  0  0
  186.3290  178.6270  140.2220 N   0  0  0  0  0  0  0  0  0  0  0  0
  187.7880  178.3900  142.1370 C   0  0  0  0  0  0  0  0  0  0  0  0
  184.2900  178.4950  143.1840 C   0  0  0  0  0  3  0  0  0  0  0  0
  185.2500  178.6270  140.9470 C   0  0  0  0  0  0  0  0  0  0  0  0
  183.9030  178.7370  140.2910 C   0  0  0  0  0  2  0  0  0  0  0  0
  189.1410  178.2580  142.7670 C   0  0  1  0  0  3  0  0  0  0  0  0
  190.6040  177.7890  145.1390 S   0  0  0  0  0  0  0  0  0  0  0  0
  189.0590  178.3120  144.3000 C   0  0  0  0  0  2  0  0  0  0  0  0
  191.6880  178.0480  143.7010 C   0  0  0  0  0  2  0  0  0  0  0  0
  192.0540  177.4980  141.3010 C   0  0  0  0  0  1  0  0  0  0  0  0
  189.8480  177.0670  142.2630 N   0  0  0  0  0  0  0  0  0  0  0  0
  191.2930  177.1120  142.5530 C   0  0  2  0  0  3  0  0  0  0  0  0
  189.3400  175.9530  142.8540 O   0  0  0  0  0  0  0  0  0  0  0  0
  190.4540  175.1660  143.1540 C   0  0  0  0  0  1  0  0  0  0  0  0
  188.8260  178.5340  139.8830 C   0  0  0  0  0  2  0  0  0  0  0  0
  188.5680  177.7070  138.7130 N   0  0  0  0  0  0  0  0  0  0  0  0
  190.5890  176.8870  137.6370 C   0  0  0  0  0  1  0  0  0  0  0  0
  189.5530  176.6370  138.7170 C   0  0  0  0  0  2  0  0  0  0  0  0
  188.8490  178.5340  137.5510 C   0  0  0  0  0  2  0  0  0  0  0  0
  187.5580  178.8210  136.8140 C   0  0  0  0  0  2  0  0  0  0  0  0
  186.9130  177.5160  136.3990 C   0  0  0  0  0  2  0  0  0  0  0  0
  185.4710  177.4980  136.8650 C   0  0  0  0  0  2  0  0  0  0  0  0
  185.0650  176.1080  137.2070 C   0  0  0  0  0  0  0  0  0  0  0  0
  183.9010  175.8810  137.6290 O   0  0  0  0  0  1  0  0  0  0  0  0
  185.9630  175.0600  137.0530 O   0  0  0  0  0  0  0  0  0  0  0  0
  1  9  1  0  0  0  0
  1  6  1  0  0  0  0
  3  2  1  0  0  0  0
  3  9  2  0  0  0  0
  4  1  2  0  0  0  0
  5  8  2  0  0  0  0
  7  5  1  0  0  0  0
  7 10  2  0  0  0  0
  8  2  1  0  0  0  0
 10  3  1  0  0  0  0
 11 10  1  0  0  0  0
 11  4  1  0  0  0  0
 12  8  1  6  0  0  0
 12 14  1  0  0  0  0
 14 13  1  0  0  0  0
 15 13  1  0  0  0  0
 17 18  1  0  0  0  0
 17 12  1  0  0  0  0
 17 19  1  0  0  0  0
 18 16  1  6  0  0  0
 18 15  1  0  0  0  0
 19 20  1  0  0  0  0
 21  5  1  0  0  0  0
 22 24  1  0  0  0  0
 22 21  1  0  0  0  0
 23 24  1  0  0  0  0
 25 22  1  0  0  0  0
 26 25  1  0  0  0  0
 27 26  1  0  0  0  0
 27 28  1  0  0  0  0
 28 29  1  0  0  0  0
 29 30  1  0  0  0  0
 31 29  2  0  0  0  0
M  END
>  <MODEL>
9

>  <REMARK>
 VINA RESULT:      -5.8      3.788      8.190
  Name = 
  10 active torsions:
  status: ('A' for Active; 'I' for Inactive)
    1  A    between atoms: C_1  and  C_24
    2  A    between atoms: C_5  and  C_21
    3  A    between atoms: C_6  and  C_7
    4  A    between atoms: C_6  and  C_19
    5  A    between atoms: C_7  and  N_9
    6  A    between atoms: N_9  and  C_22
    7  A    between atoms: N_9  and  C_23
    8  A    between atoms: C_15  and  C_23
    9  A    between atoms: O_17  and  N_30
   10  A    between atoms: C_19  and  C_24
                            x       y       z     vdW  Elec       q    Type
                         _______ _______ _______ _____ _____    ______ ____

>  <TORSDO>
F 10

$$$$
