=
 OpenBabel11052413293D

 28 31  0  0  1  0  0  0  0  0999 V2000
  190.4880  176.5600  143.7920 C   0  0  1  0  0  3  0  0  0  0  0  0
  185.5560  177.9670  143.1280 C   0  0  0  0  0  3  0  0  0  0  0  0
  188.9260  177.9220  148.3960 C   0  0  0  0  0  1  0  0  0  0  0  0
  184.8390  178.6450  145.3490 C   0  0  0  0  0  0  0  0  0  0  0  0
  187.1210  177.8330  145.0200 C   0  0  0  0  0  0  0  0  0  0  0  0
  183.3010  178.7750  143.4820 C   0  0  0  0  0  0  0  0  0  0  0  0
  185.8480  178.1430  144.4910 C   0  0  0  0  0  0  0  0  0  0  0  0
  186.3560  178.5260  147.2270 C   0  0  0  0  0  3  0  0  0  0  0  0
  183.5750  178.9560  144.8390 C   0  0  0  0  0  3  0  0  0  0  0  0
  189.6540  177.2120  146.0920 C   0  0  0  0  0  0  0  0  0  0  0  0
  188.1420  177.3410  144.1960 C   0  0  0  0  0  3  0  0  0  0  0  0
  185.1000  178.8310  146.7050 C   0  0  0  0  0  3  0  0  0  0  0  0
  191.8810  176.2070  145.8810 C   0  0  0  0  0  3  0  0  0  0  0  0
  188.6470  177.7190  146.9360 C   0  0  0  0  0  0  0  0  0  0  0  0
  190.9920  176.8730  146.6200 C   0  0  0  0  0  3  0  0  0  0  0  0
  181.7160  179.1660  142.8520 Cl  0  0  0  0  0  0  0  0  0  0  0  0
  184.2890  178.2810  142.6270 C   0  0  0  0  0  3  0  0  0  0  0  0
  187.3760  178.0270  146.4020 C   0  0  0  0  0  0  0  0  0  0  0  0
  191.5380  175.6950  144.5080 C   0  0  0  0  0  2  0  0  0  0  0  0
  189.3970  177.0310  144.7200 C   0  0  0  0  0  0  0  0  0  0  0  0
  191.0850  177.7070  142.9670 C   0  0  2  0  0  3  0  0  0  0  0  0
  191.2070  178.8630  143.7440 O   0  0  0  0  0  1  0  0  0  0  0  0
  190.3710  177.9550  141.6260 C   0  0  0  0  0  2  0  0  0  0  0  0
  192.3790  177.4640  140.3270 C   0  0  0  0  0  2  0  0  0  0  0  0
  191.0600  177.3550  140.4370 C   0  0  0  0  0  0  0  0  0  0  0  0
  190.2780  176.6380  139.4150 C   0  0  0  0  0  0  0  0  0  0  0  0
  190.8080  175.5100  138.7990 O   0  0  0  0  0  0  0  0  0  0  0  0
  189.1260  177.0330  139.0910 O   0  0  0  0  0  1  0  0  0  0  0  0
  1 21  1  1  0  0  0
  1 19  1  0  0  0  0
  1 20  1  0  0  0  0
  2  7  1  0  0  0  0
  4 12  1  0  0  0  0
  5 18  1  0  0  0  0
  6  9  2  0  0  0  0
  7  5  1  0  0  0  0
  7  4  2  0  0  0  0
  9  4  1  0  0  0  0
 10 15  1  0  0  0  0
 10 14  1  0  0  0  0
 11 20  1  0  0  0  0
 11  5  2  0  0  0  0
 12  8  2  0  0  0  0
 13 15  2  0  0  0  0
 14  3  1  0  0  0  0
 16  6  1  0  0  0  0
 17  2  2  0  0  0  0
 17  6  1  0  0  0  0
 18 14  2  0  0  0  0
 18  8  1  0  0  0  0
 19 13  1  0  0  0  0
 20 10  2  0  0  0  0
 21 22  1  1  0  0  0
 23 21  1  0  0  0  0
 24 25  2  0  0  0  0
 25 23  1  0  0  0  0
 26 25  1  0  0  0  0
 27 26  2  0  0  0  0
 28 26  1  0  0  0  0
M  END
>  <MODEL>
1

>  <REMARK>
 VINA RESULT:     -11.8      0.000      0.000
  Name = 
  4 active torsions:
  status: ('A' for Active; 'I' for Inactive)
    1  A    between atoms: C_1  and  C_2
    2  A    between atoms: C_2  and  C_3
    3  A    between atoms: C_3  and  C_11
    4  A    between atoms: C_6  and  C_11
                            x       y       z     vdW  Elec       q    Type
                         _______ _______ _______ _____ _____    ______ ____

>  <TORSDO>
F 4

$$$$
=
 OpenBabel11052413293D

 28 31  0  0  1  0  0  0  0  0999 V2000
  190.7180  176.8460  144.6750 C   0  0  1  0  0  3  0  0  0  0  0  0
  185.9370  177.9400  143.0320 C   0  0  0  0  0  3  0  0  0  0  0  0
  188.1690  178.0080  148.8750 C   0  0  0  0  0  1  0  0  0  0  0  0
  184.7420  178.5240  145.0670 C   0  0  0  0  0  0  0  0  0  0  0  0
  187.0930  177.8700  145.2020 C   0  0  0  0  0  0  0  0  0  0  0  0
  183.6080  178.5920  142.9280 C   0  0  0  0  0  0  0  0  0  0  0  0
  185.9360  178.1070  144.4280 C   0  0  0  0  0  0  0  0  0  0  0  0
  185.8530  178.4660  147.2130 C   0  0  0  0  0  3  0  0  0  0  0  0
  183.5890  178.7620  144.3130 C   0  0  0  0  0  3  0  0  0  0  0  0
  189.3940  177.3950  146.7620 C   0  0  0  0  0  0  0  0  0  0  0  0
  188.2910  177.4630  144.6000 C   0  0  0  0  0  3  0  0  0  0  0  0
  184.7100  178.6990  146.4490 C   0  0  0  0  0  3  0  0  0  0  0  0
  191.6810  176.5420  147.0010 C   0  0  0  0  0  3  0  0  0  0  0  0
  188.2050  177.8170  147.3870 C   0  0  0  0  0  0  0  0  0  0  0  0
  190.6180  177.1330  147.5490 C   0  0  0  0  0  3  0  0  0  0  0  0
  182.1600  178.8910  141.9910 Cl  0  0  0  0  0  0  0  0  0  0  0  0
  184.7800  178.1810  142.2880 C   0  0  0  0  0  3  0  0  0  0  0  0
  187.0500  178.0530  146.6080 C   0  0  0  0  0  0  0  0  0  0  0  0
  191.6580  176.0360  145.5840 C   0  0  0  0  0  2  0  0  0  0  0  0
  189.4320  177.2250  145.3650 C   0  0  0  0  0  0  0  0  0  0  0  0
  191.3900  178.0450  143.9970 C   0  0  2  0  0  3  0  0  0  0  0  0
  190.7230  179.2320  144.3160 O   0  0  0  0  0  1  0  0  0  0  0  0
  191.6120  177.8690  142.4830 C   0  0  0  0  0  2  0  0  0  0  0  0
  190.2400  175.9100  141.9910 C   0  0  0  0  0  2  0  0  0  0  0  0
  190.4820  177.1970  141.7640 C   0  0  0  0  0  0  0  0  0  0  0  0
  189.6380  177.9660  140.8330 C   0  0  0  0  0  0  0  0  0  0  0  0
  189.8630  177.8860  139.4640 O   0  0  0  0  0  0  0  0  0  0  0  0
  188.7070  178.6990  141.2630 O   0  0  0  0  0  1  0  0  0  0  0  0
  1 21  1  1  0  0  0
  1 20  1  0  0  0  0
  1 19  1  0  0  0  0
  2  7  1  0  0  0  0
  4 12  1  0  0  0  0
  5 18  1  0  0  0  0
  6  9  2  0  0  0  0
  7  4  2  0  0  0  0
  7  5  1  0  0  0  0
  9  4  1  0  0  0  0
 10 14  1  0  0  0  0
 10 15  1  0  0  0  0
 11  5  2  0  0  0  0
 11 20  1  0  0  0  0
 12  8  2  0  0  0  0
 13 15  2  0  0  0  0
 14  3  1  0  0  0  0
 16  6  1  0  0  0  0
 17  6  1  0  0  0  0
 17  2  2  0  0  0  0
 18  8  1  0  0  0  0
 18 14  2  0  0  0  0
 19 13  1  0  0  0  0
 20 10  2  0  0  0  0
 21 22  1  6  0  0  0
 23 21  1  0  0  0  0
 25 24  2  0  0  0  0
 25 23  1  0  0  0  0
 26 28  1  0  0  0  0
 26 25  1  0  0  0  0
 27 26  2  0  0  0  0
M  END
>  <MODEL>
2

>  <REMARK>
 VINA RESULT:     -11.3      1.044      1.270
  Name = 
  4 active torsions:
  status: ('A' for Active; 'I' for Inactive)
    1  A    between atoms: C_1  and  C_2
    2  A    between atoms: C_2  and  C_3
    3  A    between atoms: C_3  and  C_11
    4  A    between atoms: C_6  and  C_11
                            x       y       z     vdW  Elec       q    Type
                         _______ _______ _______ _____ _____    ______ ____

>  <TORSDO>
F 4

$$$$
=
 OpenBabel11052413293D

 28 31  0  0  1  0  0  0  0  0999 V2000
  189.6260  176.4520  142.5870 C   0  0  1  0  0  3  0  0  0  0  0  0
  184.7190  178.0730  142.8090 C   0  0  0  0  0  3  0  0  0  0  0  0
  188.9560  177.8140  147.4020 C   0  0  0  0  0  1  0  0  0  0  0  0
  184.4330  178.7490  145.1260 C   0  0  0  0  0  0  0  0  0  0  0  0
  186.5840  177.8480  144.3960 C   0  0  0  0  0  0  0  0  0  0  0  0
  182.5990  178.9700  143.5590 C   0  0  0  0  0  0  0  0  0  0  0  0
  185.2540  178.2180  144.1000 C   0  0  0  0  0  0  0  0  0  0  0  0
  186.2490  178.5410  146.7070 C   0  0  0  0  0  3  0  0  0  0  0  0
  183.1140  179.1200  144.8490 C   0  0  0  0  0  3  0  0  0  0  0  0
  189.2370  177.1070  145.0010 C   0  0  0  0  0  0  0  0  0  0  0  0
  187.4230  177.3250  143.4020 C   0  0  0  0  0  3  0  0  0  0  0  0
  184.9360  178.9050  146.4160 C   0  0  0  0  0  3  0  0  0  0  0  0
  191.3470  176.0120  144.3970 C   0  0  0  0  0  3  0  0  0  0  0  0
  188.4160  177.6430  146.0130 C   0  0  0  0  0  0  0  0  0  0  0  0
  190.6310  176.7050  145.2840 C   0  0  0  0  0  3  0  0  0  0  0  0
  180.9470  179.4350  143.2200 Cl  0  0  0  0  0  0  0  0  0  0  0  0
  183.3990  178.4460  142.5410 C   0  0  0  0  0  3  0  0  0  0  0  0
  187.0860  178.0120  145.7130 C   0  0  0  0  0  0  0  0  0  0  0  0
  190.7460  175.5340  143.1020 C   0  0  0  0  0  2  0  0  0  0  0  0
  188.7350  176.9550  143.6950 C   0  0  0  0  0  0  0  0  0  0  0  0
  190.1180  177.5850  141.6780 C   0  0  2  0  0  3  0  0  0  0  0  0
  189.4540  178.7790  141.9720 O   0  0  0  0  0  1  0  0  0  0  0  0
  190.1000  177.2390  140.1770 C   0  0  0  0  0  2  0  0  0  0  0  0
  192.5310  177.4650  140.1830 C   0  0  0  0  0  2  0  0  0  0  0  0
  191.4510  176.9730  139.5860 C   0  0  0  0  0  0  0  0  0  0  0  0
  191.5750  176.1560  138.3660 C   0  0  0  0  0  0  0  0  0  0  0  0
  190.6940  175.1060  138.1400 O   0  0  0  0  0  1  0  0  0  0  0  0
  192.4740  176.4000  137.5170 O   0  0  0  0  0  0  0  0  0  0  0  0
  1 21  1  1  0  0  0
  1 19  1  0  0  0  0
  1 20  1  0  0  0  0
  2  7  1  0  0  0  0
  4 12  1  0  0  0  0
  5 18  1  0  0  0  0
  6  9  2  0  0  0  0
  7  5  1  0  0  0  0
  7  4  2  0  0  0  0
  9  4  1  0  0  0  0
 10 15  1  0  0  0  0
 10 14  1  0  0  0  0
 11 20  1  0  0  0  0
 11  5  2  0  0  0  0
 12  8  2  0  0  0  0
 13 15  2  0  0  0  0
 14  3  1  0  0  0  0
 16  6  1  0  0  0  0
 17  2  2  0  0  0  0
 17  6  1  0  0  0  0
 18 14  2  0  0  0  0
 18  8  1  0  0  0  0
 19 13  1  0  0  0  0
 20 10  2  0  0  0  0
 21 22  1  6  0  0  0
 23 21  1  0  0  0  0
 25 23  1  0  0  0  0
 25 24  2  0  0  0  0
 26 25  1  0  0  0  0
 27 26  1  0  0  0  0
 28 26  2  0  0  0  0
M  END
>  <MODEL>
3

>  <REMARK>
 VINA RESULT:     -10.6      1.083      1.351
  Name = 
  4 active torsions:
  status: ('A' for Active; 'I' for Inactive)
    1  A    between atoms: C_1  and  C_2
    2  A    between atoms: C_2  and  C_3
    3  A    between atoms: C_3  and  C_11
    4  A    between atoms: C_6  and  C_11
                            x       y       z     vdW  Elec       q    Type
                         _______ _______ _______ _____ _____    ______ ____

>  <TORSDO>
F 4

$$$$
=
 OpenBabel11052413293D

 28 31  0  0  1  0  0  0  0  0999 V2000
  189.6120  176.7720  142.9740 C   0  0  1  0  0  3  0  0  0  0  0  0
  184.6520  178.1410  142.4400 C   0  0  0  0  0  3  0  0  0  0  0  0
  188.0990  177.9070  147.6540 C   0  0  0  0  0  1  0  0  0  0  0  0
  183.9590  178.7090  144.6990 C   0  0  0  0  0  0  0  0  0  0  0  0
  186.2460  177.9440  144.3030 C   0  0  0  0  0  0  0  0  0  0  0  0
  182.3930  178.9020  142.8610 C   0  0  0  0  0  0  0  0  0  0  0  0
  184.9630  178.2600  143.8050 C   0  0  0  0  0  0  0  0  0  0  0  0
  185.5040  178.5270  146.5490 C   0  0  0  0  0  3  0  0  0  0  0  0
  182.6840  179.0260  144.2210 C   0  0  0  0  0  3  0  0  0  0  0  0
  188.8020  177.3100  145.3110 C   0  0  0  0  0  0  0  0  0  0  0  0
  187.2620  177.5030  143.4440 C   0  0  0  0  0  3  0  0  0  0  0  0
  184.2370  178.8390  146.0580 C   0  0  0  0  0  3  0  0  0  0  0  0
  191.0390  176.3450  145.0250 C   0  0  0  0  0  3  0  0  0  0  0  0
  187.8010  177.7650  146.1900 C   0  0  0  0  0  0  0  0  0  0  0  0
  190.1520  176.9660  145.8050 C   0  0  0  0  0  3  0  0  0  0  0  0
  180.7950  179.3000  142.2710 Cl  0  0  0  0  0  0  0  0  0  0  0  0
  183.3750  178.4600  141.9720 C   0  0  0  0  0  3  0  0  0  0  0  0
  186.5190  178.0800  145.6880 C   0  0  0  0  0  0  0  0  0  0  0  0
  190.6830  175.8900  143.6360 C   0  0  0  0  0  2  0  0  0  0  0  0
  188.5280  177.1860  143.9360 C   0  0  0  0  0  0  0  0  0  0  0  0
  190.1820  177.9620  142.1930 C   0  0  2  0  0  3  0  0  0  0  0  0
  190.4170  179.0460  143.0440 O   0  0  0  0  0  1  0  0  0  0  0  0
  189.3670  178.3440  140.9440 C   0  0  0  0  0  2  0  0  0  0  0  0
  188.5410  177.1890  138.9580 C   0  0  0  0  0  2  0  0  0  0  0  0
  189.5640  177.4310  139.7710 C   0  0  0  0  0  0  0  0  0  0  0  0
  190.8840  176.8290  139.5170 C   0  0  0  0  0  0  0  0  0  0  0  0
  192.0410  177.5370  139.8180 O   0  0  0  0  0  1  0  0  0  0  0  0
  190.9790  175.6700  139.0290 O   0  0  0  0  0  0  0  0  0  0  0  0
  1 21  1  1  0  0  0
  1 19  1  0  0  0  0
  1 20  1  0  0  0  0
  2  7  1  0  0  0  0
  4 12  1  0  0  0  0
  5 18  1  0  0  0  0
  6  9  2  0  0  0  0
  7  5  1  0  0  0  0
  7  4  2  0  0  0  0
  9  4  1  0  0  0  0
 10 15  1  0  0  0  0
 10 14  1  0  0  0  0
 11 20  1  0  0  0  0
 11  5  2  0  0  0  0
 12  8  2  0  0  0  0
 13 15  2  0  0  0  0
 14  3  1  0  0  0  0
 16  6  1  0  0  0  0
 17  2  2  0  0  0  0
 17  6  1  0  0  0  0
 18 14  2  0  0  0  0
 18  8  1  0  0  0  0
 19 13  1  0  0  0  0
 20 10  2  0  0  0  0
 21 22  1  1  0  0  0
 23 21  1  0  0  0  0
 24 25  2  0  0  0  0
 25 23  1  0  0  0  0
 26 25  1  0  0  0  0
 26 27  1  0  0  0  0
 28 26  2  0  0  0  0
M  END
>  <MODEL>
4

>  <REMARK>
 VINA RESULT:     -10.5      1.040      1.489
  Name = 
  4 active torsions:
  status: ('A' for Active; 'I' for Inactive)
    1  A    between atoms: C_1  and  C_2
    2  A    between atoms: C_2  and  C_3
    3  A    between atoms: C_3  and  C_11
    4  A    between atoms: C_6  and  C_11
                            x       y       z     vdW  Elec       q    Type
                         _______ _______ _______ _____ _____    ______ ____

>  <TORSDO>
F 4

$$$$
=
 OpenBabel11052413293D

 28 31  0  0  1  0  0  0  0  0999 V2000
  189.4830  177.9650  138.9790 C   0  0  1  0  0  3  0  0  0  0  0  0
  189.1680  177.6580  144.1330 C   0  0  0  0  0  3  0  0  0  0  0  0
  184.5820  178.6290  139.9920 C   0  0  0  0  0  1  0  0  0  0  0  0
  186.7990  177.9500  144.5900 C   0  0  0  0  0  0  0  0  0  0  0  0
  187.5930  178.0280  142.2800 C   0  0  0  0  0  0  0  0  0  0  0  0
  188.3520  177.5850  146.4110 C   0  0  0  0  0  0  0  0  0  0  0  0
  187.8630  177.8780  143.6580 C   0  0  0  0  0  0  0  0  0  0  0  0
  185.2280  178.3140  142.7890 C   0  0  0  0  0  3  0  0  0  0  0  0
  187.0500  177.8040  145.9570 C   0  0  0  0  0  3  0  0  0  0  0  0
  187.0400  178.3350  139.5320 C   0  0  0  0  0  0  0  0  0  0  0  0
  188.6240  177.9560  141.3330 C   0  0  0  0  0  3  0  0  0  0  0  0
  185.4940  178.1670  144.1490 C   0  0  0  0  0  3  0  0  0  0  0  0
  187.7900  178.6420  137.2170 C   0  0  0  0  0  3  0  0  0  0  0  0
  185.9870  178.3970  140.4650 C   0  0  0  0  0  0  0  0  0  0  0  0
  186.7870  178.4950  138.0840 C   0  0  0  0  0  3  0  0  0  0  0  0
  188.6600  177.4040  148.1250 Cl  0  0  0  0  0  0  0  0  0  0  0  0
  189.4100  177.5130  145.5010 C   0  0  0  0  0  3  0  0  0  0  0  0
  186.2620  178.2470  141.8420 C   0  0  0  0  0  0  0  0  0  0  0  0
  189.2200  178.7360  137.6760 C   0  0  0  0  0  2  0  0  0  0  0  0
  188.3580  178.1080  139.9730 C   0  0  0  0  0  0  0  0  0  0  0  0
  189.8860  176.5010  138.7650 C   0  0  2  0  0  3  0  0  0  0  0  0
  190.5560  176.0030  139.8870 O   0  0  0  0  0  1  0  0  0  0  0  0
  190.6430  176.2430  137.4500 C   0  0  0  0  0  2  0  0  0  0  0  0
  192.1350  174.3150  137.5930 C   0  0  0  0  0  2  0  0  0  0  0  0
  192.0030  175.6370  137.6250 C   0  0  0  0  0  0  0  0  0  0  0  0
  193.1800  176.5040  137.8090 C   0  0  0  0  0  0  0  0  0  0  0  0
  193.4490  177.0560  139.0550 O   0  0  0  0  0  1  0  0  0  0  0  0
  193.9530  176.7530  136.8440 O   0  0  0  0  0  0  0  0  0  0  0  0
  1 21  1  6  0  0  0
  1 20  1  0  0  0  0
  2 17  1  0  0  0  0
  3 14  1  0  0  0  0
  4  9  2  0  0  0  0
  5  7  1  0  0  0  0
  6 16  1  0  0  0  0
  7  2  2  0  0  0  0
  7  4  1  0  0  0  0
  8 12  2  0  0  0  0
  9  6  1  0  0  0  0
 10 20  2  0  0  0  0
 10 14  1  0  0  0  0
 11  5  2  0  0  0  0
 12  4  1  0  0  0  0
 13 19  1  0  0  0  0
 13 15  2  0  0  0  0
 14 18  2  0  0  0  0
 15 10  1  0  0  0  0
 17  6  2  0  0  0  0
 18  5  1  0  0  0  0
 18  8  1  0  0  0  0
 19  1  1  0  0  0  0
 20 11  1  0  0  0  0
 21 22  1  1  0  0  0
 23 25  1  0  0  0  0
 23 21  1  0  0  0  0
 24 25  2  0  0  0  0
 25 26  1  0  0  0  0
 26 27  1  0  0  0  0
 28 26  2  0  0  0  0
M  END
>  <MODEL>
5

>  <REMARK>
 VINA RESULT:      -9.0      2.856      5.642
  Name = 
  4 active torsions:
  status: ('A' for Active; 'I' for Inactive)
    1  A    between atoms: C_1  and  C_2
    2  A    between atoms: C_2  and  C_3
    3  A    between atoms: C_3  and  C_11
    4  A    between atoms: C_6  and  C_11
                            x       y       z     vdW  Elec       q    Type
                         _______ _______ _______ _____ _____    ______ ____

>  <TORSDO>
F 4

$$$$
=
 OpenBabel11052413293D

 28 31  0  0  1  0  0  0  0  0999 V2000
  183.3430  178.5710  139.2150 C   0  0  1  0  0  3  0  0  0  0  0  0
  186.8640  177.8720  142.9390 C   0  0  0  0  0  3  0  0  0  0  0  0
  180.8130  179.3480  143.5130 C   0  0  0  0  0  1  0  0  0  0  0  0
  185.6140  178.2220  144.9940 C   0  0  0  0  0  0  0  0  0  0  0  0
  184.4750  178.4490  142.8440 C   0  0  0  0  0  0  0  0  0  0  0  0
  187.9670  177.6530  145.0830 C   0  0  0  0  0  0  0  0  0  0  0  0
  185.6510  178.1810  143.5790 C   0  0  0  0  0  0  0  0  0  0  0  0
  183.2650  178.7890  144.9320 C   0  0  0  0  0  3  0  0  0  0  0  0
  186.7700  177.9590  145.7350 C   0  0  0  0  0  3  0  0  0  0  0  0
  182.1210  178.9940  141.3900 C   0  0  0  0  0  0  0  0  0  0  0  0
  184.4770  178.4110  141.4430 C   0  0  0  0  0  3  0  0  0  0  0  0
  184.4260  178.5250  145.6570 C   0  0  0  0  0  3  0  0  0  0  0  0
  180.9670  179.4520  139.2750 C   0  0  0  0  0  3  0  0  0  0  0  0
  182.0920  179.0240  142.7980 C   0  0  0  0  0  0  0  0  0  0  0  0
  180.9060  179.2770  140.5960 C   0  0  0  0  0  3  0  0  0  0  0  0
  189.4100  177.3250  146.0170 Cl  0  0  0  0  0  0  0  0  0  0  0  0
  188.0140  177.6100  143.6880 C   0  0  0  0  0  3  0  0  0  0  0  0
  183.2700  178.7560  143.5280 C   0  0  0  0  0  0  0  0  0  0  0  0
  182.2800  179.4530  138.5400 C   0  0  0  0  0  2  0  0  0  0  0  0
  183.3170  178.6800  140.7180 C   0  0  0  0  0  0  0  0  0  0  0  0
  183.3370  177.1140  138.7370 C   0  0  2  0  0  3  0  0  0  0  0  0
  182.6890  176.2920  139.6650 O   0  0  0  0  0  1  0  0  0  0  0  0
  184.7210  176.5800  138.3250 C   0  0  0  0  0  2  0  0  0  0  0  0
  184.9950  177.2910  136.0060 C   0  0  0  0  0  2  0  0  0  0  0  0
  185.4070  177.3880  137.2650 C   0  0  0  0  0  0  0  0  0  0  0  0
  186.5110  178.2940  137.6250 C   0  0  0  0  0  0  0  0  0  0  0  0
  186.9170  178.4030  138.9500 O   0  0  0  0  0  1  0  0  0  0  0  0
  187.1000  178.9750  136.7420 O   0  0  0  0  0  0  0  0  0  0  0  0
  1 21  1  1  0  0  0
  1 20  1  0  0  0  0
  2  7  2  0  0  0  0
  2 17  1  0  0  0  0
  4 12  1  0  0  0  0
  4  9  2  0  0  0  0
  5 18  1  0  0  0  0
  5  7  1  0  0  0  0
  6  9  1  0  0  0  0
  6 16  1  0  0  0  0
  7  4  1  0  0  0  0
  8 12  2  0  0  0  0
 10 14  1  0  0  0  0
 11  5  2  0  0  0  0
 13 15  2  0  0  0  0
 14  3  1  0  0  0  0
 14 18  2  0  0  0  0
 15 10  1  0  0  0  0
 17  6  2  0  0  0  0
 18  8  1  0  0  0  0
 19  1  1  0  0  0  0
 19 13  1  0  0  0  0
 20 10  2  0  0  0  0
 20 11  1  0  0  0  0
 21 22  1  1  0  0  0
 23 21  1  0  0  0  0
 24 25  2  0  0  0  0
 25 26  1  0  0  0  0
 25 23  1  0  0  0  0
 26 27  1  0  0  0  0
 28 26  2  0  0  0  0
M  END
>  <MODEL>
6

>  <REMARK>
 VINA RESULT:      -8.8      3.590      7.113
  Name = 
  4 active torsions:
  status: ('A' for Active; 'I' for Inactive)
    1  A    between atoms: C_1  and  C_2
    2  A    between atoms: C_2  and  C_3
    3  A    between atoms: C_3  and  C_11
    4  A    between atoms: C_6  and  C_11
                            x       y       z     vdW  Elec       q    Type
                         _______ _______ _______ _____ _____    ______ ____

>  <TORSDO>
F 4

$$$$
=
 OpenBabel11052413293D

 28 31  0  0  1  0  0  0  0  0999 V2000
  189.1650  178.3610  143.8700 C   0  0  1  0  0  3  0  0  0  0  0  0
  185.1540  179.0030  140.6680 C   0  0  0  0  0  3  0  0  0  0  0  0
  190.9190  176.9710  139.3450 C   0  0  0  0  0  1  0  0  0  0  0  0
  186.0150  178.2990  138.5070 C   0  0  0  0  0  0  0  0  0  0  0  0
  187.4850  178.2490  140.4590 C   0  0  0  0  0  0  0  0  0  0  0  0
  183.7190  179.0410  138.7180 C   0  0  0  0  0  0  0  0  0  0  0  0
  186.2200  178.5190  139.8920 C   0  0  0  0  0  0  0  0  0  0  0  0
  188.3020  177.5520  138.2720 C   0  0  0  0  0  3  0  0  0  0  0  0
  184.7690  178.5610  137.9320 C   0  0  0  0  0  3  0  0  0  0  0  0
  190.0180  177.7120  141.5770 C   0  0  0  0  0  0  0  0  0  0  0  0
  187.7180  178.4510  141.8260 C   0  0  0  0  0  3  0  0  0  0  0  0
  187.0540  177.8190  137.7120 C   0  0  0  0  0  3  0  0  0  0  0  0
  191.6090  177.8410  143.4390 C   0  0  0  0  0  3  0  0  0  0  0  0
  189.8020  177.4890  140.2030 C   0  0  0  0  0  0  0  0  0  0  0  0
  191.3340  177.4440  142.1950 C   0  0  0  0  0  3  0  0  0  0  0  0
  182.1620  179.3680  137.9910 Cl  0  0  0  0  0  0  0  0  0  0  0  0
  183.9110  179.2620  140.0840 C   0  0  0  0  0  3  0  0  0  0  0  0
  188.5360  177.7600  139.6400 C   0  0  0  0  0  0  0  0  0  0  0  0
  190.6280  178.6520  144.2420 C   0  0  0  0  0  2  0  0  0  0  0  0
  188.9690  178.1890  142.3850 C   0  0  0  0  0  0  0  0  0  0  0  0
  188.5340  177.2190  144.6760 C   0  0  2  0  0  3  0  0  0  0  0  0
  188.6570  176.0050  143.9940 O   0  0  0  0  0  1  0  0  0  0  0  0
  187.0950  177.5010  145.1470 C   0  0  0  0  0  2  0  0  0  0  0  0
  187.9280  177.6670  147.4360 C   0  0  0  0  0  2  0  0  0  0  0  0
  186.9910  178.0030  146.5560 C   0  0  0  0  0  0  0  0  0  0  0  0
  185.8690  178.8740  146.9490 C   0  0  0  0  0  0  0  0  0  0  0  0
  184.5900  178.6170  146.4720 O   0  0  0  0  0  0  0  0  0  0  0  0
  186.0550  179.8540  147.7180 O   0  0  0  0  0  1  0  0  0  0  0  0
  1 19  1  0  0  0  0
  1 21  1  1  0  0  0
  3 14  1  0  0  0  0
  4  7  1  0  0  0  0
  5 11  1  0  0  0  0
  6 17  2  0  0  0  0
  7  5  1  0  0  0  0
  7  2  2  0  0  0  0
  8 18  1  0  0  0  0
  9  4  2  0  0  0  0
  9  6  1  0  0  0  0
 10 15  1  0  0  0  0
 10 20  1  0  0  0  0
 11 20  2  0  0  0  0
 12  8  2  0  0  0  0
 12  4  1  0  0  0  0
 13 19  1  0  0  0  0
 14 10  2  0  0  0  0
 15 13  2  0  0  0  0
 16  6  1  0  0  0  0
 17  2  1  0  0  0  0
 18 14  1  0  0  0  0
 18  5  2  0  0  0  0
 20  1  1  0  0  0  0
 21 22  1  6  0  0  0
 21 23  1  0  0  0  0
 23 25  1  0  0  0  0
 25 26  1  0  0  0  0
 25 24  2  0  0  0  0
 26 28  1  0  0  0  0
 27 26  2  0  0  0  0
M  END
>  <MODEL>
7

>  <REMARK>
 VINA RESULT:      -8.8      3.105      6.222
  Name = 
  4 active torsions:
  status: ('A' for Active; 'I' for Inactive)
    1  A    between atoms: C_1  and  C_2
    2  A    between atoms: C_2  and  C_3
    3  A    between atoms: C_3  and  C_11
    4  A    between atoms: C_6  and  C_11
                            x       y       z     vdW  Elec       q    Type
                         _______ _______ _______ _____ _____    ______ ____

>  <TORSDO>
F 4

$$$$
