=
 OpenBabel11052415073D

 55 59  0  0  1  0  0  0  0  0999 V2000
  183.9330  177.3220  134.9700 C   0  0  0  0  0  2  0  0  0  0  0  0
  182.6060  178.6250  141.1300 C   0  0  0  0  0  0  0  0  0  0  0  0
  183.0490  176.1340  139.6490 O   0  0  0  0  0  0  0  0  0  0  0  0
  181.0460  176.4470  138.5630 O   0  0  0  0  0  0  0  0  0  0  0  0
  186.2530  177.0700  135.8960 C   0  0  0  0  0  2  0  0  0  0  0  0
  185.7420  178.1550  137.9390 C   0  0  2  0  0  3  0  0  0  0  0  0
  183.1820  176.1810  135.6410 C   0  0  0  0  0  2  0  0  0  0  0  0
  184.5700  178.1630  137.1700 O   0  0  0  0  0  0  0  0  0  0  0  0
  182.1560  179.7040  141.8860 O   0  0  0  0  0  1  0  0  0  0  0  0
  181.7060  177.9500  140.4060 C   0  0  0  0  0  3  0  0  0  0  0  0
  181.9840  176.7990  139.5320 C   0  0  0  0  0  0  0  0  0  0  0  0
  186.7050  177.1500  137.3220 C   0  0  1  0  0  3  0  0  0  0  0  0
  184.0780  178.2940  141.0920 C   0  0  1  0  0  3  0  0  0  0  0  0
  185.0150  177.9390  135.8570 C   0  0  2  0  0  3  0  0  0  0  0  0
  181.4410  175.7230  137.4030 C   0  0  2  0  0  3  0  0  0  0  0  0
  181.9620  176.7270  136.3650 C   0  0  2  0  0  3  0  0  0  0  0  0
  184.6980  178.8880  139.9830 O   0  0  0  0  0  0  0  0  0  0  0  0
  185.4490  177.8600  139.4050 C   0  0  0  0  0  2  0  0  0  0  0  0
  186.5670  175.8840  137.9000 O   0  0  0  0  0  1  0  0  0  0  0  0
  179.4020  174.3450  138.0470 C   0  0  0  0  0  2  0  0  0  0  0  0
  180.1220  173.2900  138.8840 C   0  0  0  0  0  2  0  0  0  0  0  0
  180.8000  173.6730  136.0380 C   0  0  2  0  0  3  0  0  0  0  0  0
  181.4520  172.5790  136.8880 C   0  0  0  0  0  2  0  0  0  0  0  0
  180.5230  172.1120  138.0060 C   0  0  0  0  0  2  0  0  0  0  0  0
  180.2850  174.8440  136.8940 C   0  0  2  0  0  3  0  0  0  0  0  0
  179.6930  173.1030  135.1730 C   0  0  0  0  0  1  0  0  0  0  0  0
  184.2080  177.8030  143.3930 F   0  0  0  0  0  0  0  0  0  0  0  0
  184.8580  178.5260  142.4070 C   0  0  0  0  0  0  0  0  0  0  0  0
  184.8060  179.8650  142.7590 F   0  0  0  0  0  0  0  0  0  0  0  0
  186.3290  178.0530  142.3040 C   0  0  1  0  0  3  0  0  0  0  0  0
  187.1370  179.0470  141.7460 O   0  0  0  0  0  1  0  0  0  0  0  0
  186.9500  177.4910  143.6130 C   0  0  2  0  0  0  0  0  0  0  0  0
  186.4930  176.1840  143.8130 O   0  0  0  0  0  1  0  0  0  0  0  0
  186.1210  177.5130  145.8910 O   0  0  0  0  0  1  0  0  0  0  0  0
  186.5280  178.3260  144.8290 C   0  0  0  0  0  2  0  0  0  0  0  0
  188.4950  177.4550  143.5150 C   0  0  2  0  0  3  0  0  0  0  0  0
  188.9910  176.6620  142.2970 C   0  0  2  0  0  3  0  0  0  0  0  0
  189.6200  175.4780  142.6910 O   0  0  0  0  0  1  0  0  0  0  0  0
  189.9530  177.4990  141.4790 C   0  0  0  0  0  1  0  0  0  0  0  0
  189.0630  176.9440  144.6940 O   0  0  0  0  0  0  0  0  0  0  0  0
  189.5770  178.1040  146.5900 O   0  0  0  0  0  1  0  0  0  0  0  0
  189.8300  177.9860  145.2230 C   0  0  1  0  0  3  0  0  0  0  0  0
  191.8970  176.6490  145.6630 O   0  0  0  0  0  1  0  0  0  0  0  0
  191.2810  177.7100  145.0100 C   0  0  0  0  0  0  0  0  0  0  0  0
  191.9600  178.4730  144.2730 O   0  0  0  0  0  0  0  0  0  0  0  0
  180.9620  177.0910  135.4500 O   0  0  0  0  0  0  0  0  0  0  0  0
  180.2990  182.5250  135.9280 C   0  0  0  0  0  2  0  0  0  0  0  0
  181.3780  179.0890  136.6860 C   0  0  0  0  0  3  0  0  0  0  0  0
  179.2860  181.9660  136.9300 C   0  0  1  0  0  3  0  0  0  0  0  0
  180.1380  181.0350  136.0870 C   0  0  1  0  0  0  0  0  0  0  0  0
  179.5980  178.9710  134.9140 C   0  0  0  0  0  3  0  0  0  0  0  0
  179.4740  180.3040  134.9610 C   0  0  0  0  0  3  0  0  0  0  0  0
  179.7960  182.0820  138.2240 O   0  0  0  0  0  1  0  0  0  0  0  0
  181.2550  180.3740  136.7340 N   0  0  0  0  0  0  0  0  0  0  0  0
  180.3430  178.2210  135.9950 C   0  0  1  0  0  3  0  0  0  0  0  0
  1  7  1  0  0  0  0
  2  9  1  0  0  0  0
  4 11  1  0  0  0  0
  5 12  1  0  0  0  0
  6 18  1  1  0  0  0
  7 16  1  0  0  0  0
  8  6  1  0  0  0  0
 10  2  2  0  0  0  0
 11  3  2  0  0  0  0
 11 10  1  0  0  0  0
 12 19  1  1  0  0  0
 12  6  1  0  0  0  0
 13  2  1  0  0  0  0
 13 28  1  1  0  0  0
 14  1  1  6  0  0  0
 14  5  1  0  0  0  0
 14  8  1  0  0  0  0
 15  4  1  1  0  0  0
 16 46  1  6  0  0  0
 16 15  1  0  0  0  0
 17 13  1  0  0  0  0
 18 17  1  0  0  0  0
 20 21  1  0  0  0  0
 22 26  1  1  0  0  0
 22 23  1  0  0  0  0
 22 25  1  0  0  0  0
 23 24  1  0  0  0  0
 24 21  1  0  0  0  0
 25 15  1  0  0  0  0
 25 20  1  1  0  0  0
 28 29  1  0  0  0  0
 28 27  1  0  0  0  0
 30 31  1  1  0  0  0
 30 28  1  0  0  0  0
 30 32  1  0  0  0  0
 32 33  1  1  0  0  0
 32 35  1  0  0  0  0
 35 34  1  0  0  0  0
 36 32  1  0  0  0  0
 36 40  1  1  0  0  0
 37 39  1  1  0  0  0
 37 38  1  0  0  0  0
 37 36  1  0  0  0  0
 40 42  1  0  0  0  0
 42 41  1  1  0  0  0
 44 42  1  0  0  0  0
 44 43  1  0  0  0  0
 45 44  2  0  0  0  0
 47 50  1  0  0  0  0
 47 49  1  0  0  0  0
 48 54  2  0  0  0  0
 49 53  1  1  0  0  0
 50 52  1  6  0  0  0
 50 54  1  0  0  0  0
 50 49  1  0  0  0  0
 51 52  2  0  0  0  0
 51 55  1  0  0  0  0
 55 46  1  6  0  0  0
 55 48  1  0  0  0  0
M  END
>  <MODEL>
1

>  <REMARK>
 VINA RESULT:      -5.6      0.000      0.000
  Name = 
  12 active torsions:
  status: ('A' for Active; 'I' for Inactive)
    1  A    between atoms: C_1  and  C_53
    2  A    between atoms: C_6  and  C_14
    3  A    between atoms: C_6  and  C_20
    4  A    between atoms: C_6  and  C_53
    5  A    between atoms: C_8  and  C_20
    6  A    between atoms: C_8  and  C_43
    7  A    between atoms: C_11  and  C_29
    8  A    between atoms: C_11  and  O_38
    9  A    between atoms: C_26  and  C_45
   10  A    between atoms: O_33  and  C_49
   11  A    between atoms: O_33  and  C_52
   12  A    between atoms: O_38  and  C_53
                            x       y       z     vdW  Elec       q    Type
                         _______ _______ _______ _____ _____    ______ ____

>  <TORSDO>
F 12

$$$$
=
 OpenBabel11052415073D

 55 59  0  0  1  0  0  0  0  0999 V2000
  191.9300  176.7000  139.0990 C   0  0  0  0  0  2  0  0  0  0  0  0
  185.9370  178.7560  137.9770 C   0  0  0  0  0  0  0  0  0  0  0  0
  187.0890  176.1200  138.5470 O   0  0  0  0  0  0  0  0  0  0  0  0
  188.0840  176.1300  136.4740 O   0  0  0  0  0  0  0  0  0  0  0  0
  191.1200  176.7530  141.4740 C   0  0  0  0  0  2  0  0  0  0  0  0
  189.2180  178.0730  140.9790 C   0  0  2  0  0  3  0  0  0  0  0  0
  191.0660  175.6130  138.4770 C   0  0  0  0  0  2  0  0  0  0  0  0
  189.9080  177.8880  139.7730 O   0  0  0  0  0  0  0  0  0  0  0  0
  185.3090  179.8940  137.4800 O   0  0  0  0  0  1  0  0  0  0  0  0
  186.5060  177.9210  137.1010 C   0  0  0  0  0  3  0  0  0  0  0  0
  187.2300  176.6830  137.4270 C   0  0  0  0  0  0  0  0  0  0  0  0
  189.7490  177.0650  141.9890 C   0  0  1  0  0  3  0  0  0  0  0  0
  186.0190  178.5320  139.4680 C   0  0  1  0  0  3  0  0  0  0  0  0
  191.2030  177.5140  140.1690 C   0  0  2  0  0  3  0  0  0  0  0  0
  189.1560  175.2810  136.8680 C   0  0  2  0  0  3  0  0  0  0  0  0
  190.3510  176.1650  137.2530 C   0  0  2  0  0  3  0  0  0  0  0  0
  187.2340  179.0080  139.9820 O   0  0  0  0  0  0  0  0  0  0  0  0
  187.7100  177.9670  140.7840 C   0  0  0  0  0  2  0  0  0  0  0  0
  188.9970  175.8870  141.9830 O   0  0  0  0  0  1  0  0  0  0  0  0
  188.4790  174.3610  134.5940 C   0  0  0  0  0  2  0  0  0  0  0  0
  187.0990  173.8390  134.9860 C   0  0  0  0  0  2  0  0  0  0  0  0
  189.5250  172.8230  136.3210 C   0  0  2  0  0  3  0  0  0  0  0  0
  188.1320  172.2730  136.6400 C   0  0  0  0  0  2  0  0  0  0  0  0
  187.1980  172.3890  135.4380 C   0  0  0  0  0  2  0  0  0  0  0  0
  189.4700  174.2560  135.7630 C   0  0  2  0  0  3  0  0  0  0  0  0
  190.2730  171.9000  135.3790 C   0  0  0  0  0  1  0  0  0  0  0  0
  184.2950  180.1290  139.6570 F   0  0  0  0  0  0  0  0  0  0  0  0
  184.7970  179.0040  140.2910 C   0  0  0  0  0  0  0  0  0  0  0  0
  185.1990  179.3780  141.5620 F   0  0  0  0  0  0  0  0  0  0  0  0
  183.6940  177.9210  140.3710 C   0  0  1  0  0  3  0  0  0  0  0  0
  183.5130  177.4860  141.6870 O   0  0  0  0  0  1  0  0  0  0  0  0
  182.3380  178.2890  139.7070 C   0  0  2  0  0  0  0  0  0  0  0  0
  182.5440  179.3180  138.7840 O   0  0  0  0  0  1  0  0  0  0  0  0
  180.5630  179.8470  140.2530 O   0  0  0  0  0  1  0  0  0  0  0  0
  181.3290  178.7900  140.7500 C   0  0  0  0  0  2  0  0  0  0  0  0
  181.7480  177.0710  138.9540 C   0  0  2  0  0  3  0  0  0  0  0  0
  180.6040  176.3970  139.7250 C   0  0  2  0  0  3  0  0  0  0  0  0
  181.0000  175.1510  140.2220 O   0  0  0  0  0  1  0  0  0  0  0  0
  179.3940  176.2250  138.8300 C   0  0  0  0  0  1  0  0  0  0  0  0
  182.7500  176.1340  138.6480 O   0  0  0  0  0  0  0  0  0  0  0  0
  183.1520  176.9840  136.5700 O   0  0  0  0  0  1  0  0  0  0  0  0
  182.6360  175.8980  137.2760 C   0  0  1  0  0  3  0  0  0  0  0  0
  184.5450  174.3160  137.5960 O   0  0  0  0  0  1  0  0  0  0  0  0
  183.3900  174.6640  136.9070 C   0  0  0  0  0  0  0  0  0  0  0  0
  183.0040  173.9630  135.9340 O   0  0  0  0  0  0  0  0  0  0  0  0
  191.2450  176.3220  136.1830 O   0  0  0  0  0  0  0  0  0  0  0  0
  196.2940  174.3180  135.3470 C   0  0  0  0  0  2  0  0  0  0  0  0
  192.6880  174.4240  136.0780 C   0  0  0  0  0  3  0  0  0  0  0  0
  196.1610  174.2910  136.8720 C   0  0  1  0  0  3  0  0  0  0  0  0
  195.0360  174.8260  136.0050 C   0  0  1  0  0  0  0  0  0  0  0  0
  193.5860  176.7650  136.2600 C   0  0  0  0  0  3  0  0  0  0  0  0
  194.8140  176.3070  135.9810 C   0  0  0  0  0  3  0  0  0  0  0  0
  195.8940  172.9870  137.2940 O   0  0  0  0  0  1  0  0  0  0  0  0
  193.8730  173.9820  135.8140 N   0  0  0  0  0  0  0  0  0  0  0  0
  192.4700  175.8180  136.6360 C   0  0  1  0  0  3  0  0  0  0  0  0
  2 13  1  0  0  0  0
  4 11  1  0  0  0  0
  5 12  1  0  0  0  0
  6 18  1  6  0  0  0
  6 12  1  0  0  0  0
  7  1  1  0  0  0  0
  8 14  1  0  0  0  0
  8  6  1  0  0  0  0
  9  2  1  0  0  0  0
 10 11  1  0  0  0  0
 10  2  2  0  0  0  0
 11  3  2  0  0  0  0
 12 19  1  6  0  0  0
 13 17  1  0  0  0  0
 13 28  1  1  0  0  0
 14  1  1  6  0  0  0
 14  5  1  0  0  0  0
 15  4  1  6  0  0  0
 15 16  1  0  0  0  0
 16 46  1  6  0  0  0
 16  7  1  0  0  0  0
 17 18  1  0  0  0  0
 20 21  1  0  0  0  0
 21 24  1  0  0  0  0
 22 26  1  6  0  0  0
 22 23  1  0  0  0  0
 24 23  1  0  0  0  0
 25 20  1  6  0  0  0
 25 22  1  0  0  0  0
 25 15  1  0  0  0  0
 27 28  1  0  0  0  0
 28 30  1  0  0  0  0
 28 29  1  0  0  0  0
 30 31  1  1  0  0  0
 32 33  1  6  0  0  0
 32 30  1  0  0  0  0
 32 35  1  0  0  0  0
 34 35  1  0  0  0  0
 36 40  1  1  0  0  0
 36 32  1  0  0  0  0
 36 37  1  0  0  0  0
 37 39  1  6  0  0  0
 37 38  1  0  0  0  0
 42 41  1  6  0  0  0
 42 40  1  0  0  0  0
 44 42  1  0  0  0  0
 44 43  1  0  0  0  0
 45 44  2  0  0  0  0
 47 49  1  0  0  0  0
 48 55  1  0  0  0  0
 49 53  1  6  0  0  0
 50 47  1  6  0  0  0
 50 49  1  0  0  0  0
 51 55  1  0  0  0  0
 52 50  1  0  0  0  0
 52 51  2  0  0  0  0
 54 50  1  0  0  0  0
 54 48  2  0  0  0  0
 55 46  1  6  0  0  0
M  END
>  <MODEL>
2

>  <REMARK>
 VINA RESULT:      -2.9      4.313      9.485
  Name = 
  12 active torsions:
  status: ('A' for Active; 'I' for Inactive)
    1  A    between atoms: C_1  and  C_53
    2  A    between atoms: C_6  and  C_14
    3  A    between atoms: C_6  and  C_20
    4  A    between atoms: C_6  and  C_53
    5  A    between atoms: C_8  and  C_20
    6  A    between atoms: C_8  and  C_43
    7  A    between atoms: C_11  and  C_29
    8  A    between atoms: C_11  and  O_38
    9  A    between atoms: C_26  and  C_45
   10  A    between atoms: O_33  and  C_49
   11  A    between atoms: O_33  and  C_52
   12  A    between atoms: O_38  and  C_53
                            x       y       z     vdW  Elec       q    Type
                         _______ _______ _______ _____ _____    ______ ____

>  <TORSDO>
F 12

$$$$
=
 OpenBabel11052415073D

 55 59  0  0  1  0  0  0  0  0999 V2000
  191.1480  177.4170  140.6040 C   0  0  0  0  0  2  0  0  0  0  0  0
  185.1630  179.0290  138.8770 C   0  0  0  0  0  0  0  0  0  0  0  0
  186.5450  176.4630  139.1940 O   0  0  0  0  0  0  0  0  0  0  0  0
  187.8150  176.9410  137.3370 O   0  0  0  0  0  0  0  0  0  0  0  0
  190.0100  176.9640  142.7950 C   0  0  0  0  0  2  0  0  0  0  0  0
  188.0450  178.1550  142.2190 C   0  0  2  0  0  3  0  0  0  0  0  0
  190.5250  176.3760  139.6840 C   0  0  0  0  0  2  0  0  0  0  0  0
  188.9170  178.2570  141.1260 O   0  0  0  0  0  0  0  0  0  0  0  0
  184.4730  180.1690  138.4740 O   0  0  0  0  0  1  0  0  0  0  0  0
  185.9510  178.4250  137.9810 C   0  0  0  0  0  3  0  0  0  0  0  0
  186.7720  177.2260  138.2160 C   0  0  0  0  0  0  0  0  0  0  0  0
  188.5510  177.0410  143.1260 C   0  0  1  0  0  3  0  0  0  0  0  0
  185.0600  178.5530  140.3060 C   0  0  1  0  0  3  0  0  0  0  0  0
  190.1800  177.9500  141.6600 C   0  0  2  0  0  3  0  0  0  0  0  0
  188.9190  176.1470  137.7570 C   0  0  2  0  0  3  0  0  0  0  0  0
  189.9260  177.0630  138.4670 C   0  0  2  0  0  3  0  0  0  0  0  0
  186.1210  179.0490  141.0780 O   0  0  0  0  0  0  0  0  0  0  0  0
  186.6060  177.9350  141.7690 C   0  0  0  0  0  2  0  0  0  0  0  0
  187.9620  175.8140  142.8100 O   0  0  0  0  0  1  0  0  0  0  0  0
  188.7190  175.6190  135.2760 C   0  0  0  0  0  2  0  0  0  0  0  0
  187.3550  174.9340  135.3210 C   0  0  0  0  0  2  0  0  0  0  0  0
  189.6260  173.8670  136.8730 C   0  0  2  0  0  3  0  0  0  0  0  0
  188.2650  173.1670  136.8400 C   0  0  0  0  0  2  0  0  0  0  0  0
  187.5310  173.4350  135.5290 C   0  0  0  0  0  2  0  0  0  0  0  0
  189.5120  175.3710  136.5670 C   0  0  2  0  0  3  0  0  0  0  0  0
  190.6090  173.1940  135.9350 C   0  0  0  0  0  1  0  0  0  0  0  0
  183.4610  180.1110  141.0610 F   0  0  0  0  0  0  0  0  0  0  0  0
  183.6850  178.7460  140.9860 C   0  0  0  0  0  0  0  0  0  0  0  0
  183.7230  178.2520  142.2800 F   0  0  0  0  0  0  0  0  0  0  0  0
  182.5400  178.0780  140.1870 C   0  0  1  0  0  3  0  0  0  0  0  0
  182.6550  176.6850  140.2150 O   0  0  0  0  0  1  0  0  0  0  0  0
  181.1010  178.5310  140.5620 C   0  0  2  0  0  0  0  0  0  0  0  0
  181.1640  179.3830  141.6690 O   0  0  0  0  0  1  0  0  0  0  0  0
  179.6490  177.4990  142.2060 O   0  0  0  0  0  1  0  0  0  0  0  0
  180.2240  177.3310  140.9430 C   0  0  0  0  0  2  0  0  0  0  0  0
  180.4480  179.3040  139.3910 C   0  0  2  0  0  3  0  0  0  0  0  0
  180.6620  178.6150  138.0350 C   0  0  2  0  0  3  0  0  0  0  0  0
  181.4400  179.4090  137.1870 O   0  0  0  0  0  1  0  0  0  0  0  0
  179.3310  178.3210  137.3760 C   0  0  0  0  0  1  0  0  0  0  0  0
  180.9090  180.6300  139.3430 O   0  0  0  0  0  0  0  0  0  0  0  0
  179.2720  181.8080  140.4090 O   0  0  0  0  0  1  0  0  0  0  0  0
  179.7680  181.4180  139.1650 C   0  0  1  0  0  3  0  0  0  0  0  0
  179.2180  183.6990  138.3000 O   0  0  0  0  0  1  0  0  0  0  0  0
  180.1060  182.6310  138.3640 C   0  0  0  0  0  0  0  0  0  0  0  0
  181.1780  182.6650  137.7040 O   0  0  0  0  0  0  0  0  0  0  0  0
  190.9360  177.4960  137.5940 O   0  0  0  0  0  0  0  0  0  0  0  0
  195.6530  175.1220  136.0750 C   0  0  0  0  0  2  0  0  0  0  0  0
  192.1930  176.3640  135.9110 C   0  0  0  0  0  3  0  0  0  0  0  0
  194.7500  173.9250  136.3830 C   0  0  1  0  0  3  0  0  0  0  0  0
  194.2450  175.3450  136.5660 C   0  0  1  0  0  0  0  0  0  0  0  0
  192.9060  176.3680  138.3220 C   0  0  0  0  0  3  0  0  0  0  0  0
  194.0920  175.8600  137.9640 C   0  0  0  0  0  3  0  0  0  0  0  0
  194.2810  173.3740  135.1890 O   0  0  0  0  0  1  0  0  0  0  0  0
  193.3350  175.8700  135.5670 N   0  0  0  0  0  0  0  0  0  0  0  0
  191.7400  176.3760  137.3590 C   0  0  1  0  0  3  0  0  0  0  0  0
  2 13  1  0  0  0  0
  4 11  1  0  0  0  0
  5 12  1  0  0  0  0
  6 18  1  6  0  0  0
  6 12  1  0  0  0  0
  7  1  1  0  0  0  0
  8 14  1  0  0  0  0
  8  6  1  0  0  0  0
  9  2  1  0  0  0  0
 10 11  1  0  0  0  0
 10  2  2  0  0  0  0
 11  3  2  0  0  0  0
 12 19  1  6  0  0  0
 13 28  1  1  0  0  0
 13 17  1  0  0  0  0
 14  1  1  6  0  0  0
 14  5  1  0  0  0  0
 15  4  1  6  0  0  0
 15 16  1  0  0  0  0
 16 46  1  6  0  0  0
 16  7  1  0  0  0  0
 17 18  1  0  0  0  0
 20 21  1  0  0  0  0
 21 24  1  0  0  0  0
 22 26  1  6  0  0  0
 23 22  1  0  0  0  0
 24 23  1  0  0  0  0
 25 20  1  6  0  0  0
 25 22  1  0  0  0  0
 25 15  1  0  0  0  0
 28 27  1  0  0  0  0
 28 29  1  0  0  0  0
 30 31  1  1  0  0  0
 30 32  1  0  0  0  0
 30 28  1  0  0  0  0
 32 35  1  0  0  0  0
 32 33  1  1  0  0  0
 35 34  1  0  0  0  0
 36 40  1  6  0  0  0
 36 32  1  0  0  0  0
 37 39  1  6  0  0  0
 37 36  1  0  0  0  0
 38 37  1  0  0  0  0
 42 40  1  0  0  0  0
 42 41  1  1  0  0  0
 43 44  1  0  0  0  0
 44 42  1  0  0  0  0
 45 44  2  0  0  0  0
 47 49  1  0  0  0  0
 48 55  1  0  0  0  0
 49 53  1  6  0  0  0
 49 50  1  0  0  0  0
 50 47  1  6  0  0  0
 50 52  1  0  0  0  0
 52 51  2  0  0  0  0
 54 48  2  0  0  0  0
 54 50  1  0  0  0  0
 55 46  1  6  0  0  0
 55 51  1  0  0  0  0
M  END
>  <MODEL>
3

>  <REMARK>
 VINA RESULT:      -2.9      3.748      9.582
  Name = 
  12 active torsions:
  status: ('A' for Active; 'I' for Inactive)
    1  A    between atoms: C_1  and  C_53
    2  A    between atoms: C_6  and  C_14
    3  A    between atoms: C_6  and  C_20
    4  A    between atoms: C_6  and  C_53
    5  A    between atoms: C_8  and  C_20
    6  A    between atoms: C_8  and  C_43
    7  A    between atoms: C_11  and  C_29
    8  A    between atoms: C_11  and  O_38
    9  A    between atoms: C_26  and  C_45
   10  A    between atoms: O_33  and  C_49
   11  A    between atoms: O_33  and  C_52
   12  A    between atoms: O_38  and  C_53
                            x       y       z     vdW  Elec       q    Type
                         _______ _______ _______ _____ _____    ______ ____

>  <TORSDO>
F 12

$$$$
=
 OpenBabel11052415073D

 55 59  0  0  1  0  0  0  0  0999 V2000
  191.6520  177.2450  140.0200 C   0  0  0  0  0  2  0  0  0  0  0  0
  185.5790  178.6540  138.4300 C   0  0  0  0  0  0  0  0  0  0  0  0
  187.0160  176.1340  138.8560 O   0  0  0  0  0  0  0  0  0  0  0  0
  188.2060  176.5100  136.9240 O   0  0  0  0  0  0  0  0  0  0  0  0
  190.6070  176.9180  142.2790 C   0  0  0  0  0  2  0  0  0  0  0  0
  188.6010  178.0400  141.7050 C   0  0  2  0  0  3  0  0  0  0  0  0
  191.0120  176.1380  139.1940 C   0  0  0  0  0  2  0  0  0  0  0  0
  189.4290  178.0840  140.5740 O   0  0  0  0  0  0  0  0  0  0  0  0
  184.8550  179.7550  137.9830 O   0  0  0  0  0  1  0  0  0  0  0  0
  186.3420  178.0050  137.5440 C   0  0  0  0  0  3  0  0  0  0  0  0
  187.1920  176.8370  137.8230 C   0  0  0  0  0  0  0  0  0  0  0  0
  189.1600  176.9950  142.6610 C   0  0  1  0  0  3  0  0  0  0  0  0
  185.5390  178.2700  139.8890 C   0  0  1  0  0  3  0  0  0  0  0  0
  190.7160  177.8310  141.0770 C   0  0  2  0  0  3  0  0  0  0  0  0
  189.3390  175.7610  137.3500 C   0  0  2  0  0  3  0  0  0  0  0  0
  190.3560  176.7360  137.9600 C   0  0  2  0  0  3  0  0  0  0  0  0
  186.6190  178.8300  140.5860 O   0  0  0  0  0  0  0  0  0  0  0  0
  187.1500  177.7700  141.3270 C   0  0  0  0  0  2  0  0  0  0  0  0
  188.5810  175.7410  142.4470 O   0  0  0  0  0  1  0  0  0  0  0  0
  189.0570  175.0780  134.9160 C   0  0  0  0  0  2  0  0  0  0  0  0
  187.7050  174.3820  135.0520 C   0  0  0  0  0  2  0  0  0  0  0  0
  190.0430  173.4390  136.5840 C   0  0  2  0  0  3  0  0  0  0  0  0
  188.6910  172.7230  136.6440 C   0  0  0  0  0  2  0  0  0  0  0  0
  187.9080  172.9010  135.3460 C   0  0  0  0  0  2  0  0  0  0  0  0
  189.8990  174.9200  136.1900 C   0  0  2  0  0  3  0  0  0  0  0  0
  191.0010  172.7190  135.6540 C   0  0  0  0  0  1  0  0  0  0  0  0
  183.9910  179.8540  140.6920 F   0  0  0  0  0  0  0  0  0  0  0  0
  184.1880  178.4860  140.6090 C   0  0  0  0  0  0  0  0  0  0  0  0
  184.2540  177.9880  141.9000 F   0  0  0  0  0  0  0  0  0  0  0  0
  183.0080  177.8400  139.8430 C   0  0  1  0  0  3  0  0  0  0  0  0
  183.0710  176.4450  139.9080 O   0  0  0  0  0  1  0  0  0  0  0  0
  181.5930  178.3580  140.2220 C   0  0  2  0  0  0  0  0  0  0  0  0
  181.6870  179.1490  141.3700 O   0  0  0  0  0  1  0  0  0  0  0  0
  179.7070  177.5440  141.5100 O   0  0  0  0  0  1  0  0  0  0  0  0
  180.6410  177.1940  140.5320 C   0  0  0  0  0  2  0  0  0  0  0  0
  181.0030  179.2240  139.0820 C   0  0  2  0  0  3  0  0  0  0  0  0
  180.4360  180.5590  139.5870 C   0  0  2  0  0  3  0  0  0  0  0  0
  179.0390  180.5490  139.5700 O   0  0  0  0  0  1  0  0  0  0  0  0
  180.9460  181.7050  138.7360 C   0  0  0  0  0  1  0  0  0  0  0  0
  180.0210  178.5160  138.3670 O   0  0  0  0  0  0  0  0  0  0  0  0
  181.7150  179.0820  136.9480 O   0  0  0  0  0  1  0  0  0  0  0  0
  180.5540  178.3230  137.0900 C   0  0  1  0  0  3  0  0  0  0  0  0
  182.1850  176.4820  136.6380 O   0  0  0  0  0  0  0  0  0  0  0  0
  180.8760  176.8800  136.8850 C   0  0  0  0  0  0  0  0  0  0  0  0
  179.9490  176.0270  136.8860 O   0  0  0  0  0  1  0  0  0  0  0  0
  191.3240  177.1270  137.0220 O   0  0  0  0  0  0  0  0  0  0  0  0
  196.0050  174.6350  135.5810 C   0  0  0  0  0  2  0  0  0  0  0  0
  192.5970  176.0050  135.3450 C   0  0  0  0  0  3  0  0  0  0  0  0
  195.0510  173.4620  135.8200 C   0  0  1  0  0  3  0  0  0  0  0  0
  194.5900  174.8920  136.0330 C   0  0  1  0  0  0  0  0  0  0  0  0
  193.2280  175.9070  137.7770 C   0  0  0  0  0  3  0  0  0  0  0  0
  194.4080  175.3680  137.4410 C   0  0  0  0  0  3  0  0  0  0  0  0
  194.6040  172.9660  134.5940 O   0  0  0  0  0  1  0  0  0  0  0  0
  193.7330  175.4810  135.0220 N   0  0  0  0  0  0  0  0  0  0  0  0
  192.0960  175.9860  136.7770 C   0  0  1  0  0  3  0  0  0  0  0  0
  2 13  1  0  0  0  0
  4 11  1  0  0  0  0
  5 12  1  0  0  0  0
  6 18  1  6  0  0  0
  6 12  1  0  0  0  0
  7  1  1  0  0  0  0
  8 14  1  0  0  0  0
  8  6  1  0  0  0  0
  9  2  1  0  0  0  0
 10 11  1  0  0  0  0
 10  2  2  0  0  0  0
 11  3  2  0  0  0  0
 12 19  1  6  0  0  0
 13 17  1  0  0  0  0
 13 28  1  1  0  0  0
 14  1  1  6  0  0  0
 14  5  1  0  0  0  0
 15  4  1  6  0  0  0
 15 16  1  0  0  0  0
 16 46  1  6  0  0  0
 16  7  1  0  0  0  0
 17 18  1  0  0  0  0
 20 21  1  0  0  0  0
 21 24  1  0  0  0  0
 22 26  1  6  0  0  0
 22 23  1  0  0  0  0
 24 23  1  0  0  0  0
 25 20  1  6  0  0  0
 25 22  1  0  0  0  0
 25 15  1  0  0  0  0
 28 27  1  0  0  0  0
 28 29  1  0  0  0  0
 30 31  1  1  0  0  0
 30 32  1  0  0  0  0
 30 28  1  0  0  0  0
 32 35  1  0  0  0  0
 32 33  1  1  0  0  0
 35 34  1  0  0  0  0
 36 40  1  1  0  0  0
 36 37  1  0  0  0  0
 36 32  1  0  0  0  0
 37 39  1  6  0  0  0
 38 37  1  0  0  0  0
 42 41  1  1  0  0  0
 42 40  1  0  0  0  0
 43 44  2  0  0  0  0
 44 45  1  0  0  0  0
 44 42  1  0  0  0  0
 47 49  1  0  0  0  0
 48 55  1  0  0  0  0
 49 53  1  6  0  0  0
 49 50  1  0  0  0  0
 50 47  1  6  0  0  0
 50 52  1  0  0  0  0
 52 51  2  0  0  0  0
 54 48  2  0  0  0  0
 54 50  1  0  0  0  0
 55 46  1  1  0  0  0
 55 51  1  0  0  0  0
M  END
>  <MODEL>
4

>  <REMARK>
 VINA RESULT:      -2.8      4.094      9.732
  Name = 
  12 active torsions:
  status: ('A' for Active; 'I' for Inactive)
    1  A    between atoms: C_1  and  C_53
    2  A    between atoms: C_6  and  C_14
    3  A    between atoms: C_6  and  C_20
    4  A    between atoms: C_6  and  C_53
    5  A    between atoms: C_8  and  C_20
    6  A    between atoms: C_8  and  C_43
    7  A    between atoms: C_11  and  C_29
    8  A    between atoms: C_11  and  O_38
    9  A    between atoms: C_26  and  C_45
   10  A    between atoms: O_33  and  C_49
   11  A    between atoms: O_33  and  C_52
   12  A    between atoms: O_38  and  C_53
                            x       y       z     vdW  Elec       q    Type
                         _______ _______ _______ _____ _____    ______ ____

>  <TORSDO>
F 12

$$$$
=
 OpenBabel11052415073D

 55 59  0  0  1  0  0  0  0  0999 V2000
  192.1290  176.7570  138.7740 C   0  0  0  0  0  2  0  0  0  0  0  0
  185.9570  178.5290  138.3720 C   0  0  0  0  0  0  0  0  0  0  0  0
  187.2890  175.9470  138.7690 O   0  0  0  0  0  0  0  0  0  0  0  0
  188.0390  176.0230  136.5960 O   0  0  0  0  0  0  0  0  0  0  0  0
  191.5950  176.7490  141.2270 C   0  0  0  0  0  2  0  0  0  0  0  0
  189.5870  177.9800  140.9710 C   0  0  2  0  0  3  0  0  0  0  0  0
  191.2510  175.6340  138.2390 C   0  0  0  0  0  2  0  0  0  0  0  0
  190.1430  177.8380  139.6910 O   0  0  0  0  0  0  0  0  0  0  0  0
  185.2220  179.6400  137.9650 O   0  0  0  0  0  1  0  0  0  0  0  0
  186.4600  177.7300  137.4240 C   0  0  0  0  0  3  0  0  0  0  0  0
  187.2740  176.5250  137.6480 C   0  0  0  0  0  0  0  0  0  0  0  0
  190.2770  176.9900  141.8990 C   0  0  1  0  0  3  0  0  0  0  0  0
  186.2180  178.2960  139.8400 C   0  0  1  0  0  3  0  0  0  0  0  0
  191.4910  177.5250  139.9320 C   0  0  2  0  0  3  0  0  0  0  0  0
  189.1880  175.2240  136.8540 C   0  0  2  0  0  3  0  0  0  0  0  0
  190.3760  176.1610  137.1130 C   0  0  2  0  0  3  0  0  0  0  0  0
  187.4610  178.8260  140.2190 O   0  0  0  0  0  0  0  0  0  0  0  0
  188.0740  177.8030  140.9470 C   0  0  0  0  0  2  0  0  0  0  0  0
  189.5860  175.7770  141.9620 O   0  0  0  0  0  1  0  0  0  0  0  0
  188.3740  174.3840  134.5940 C   0  0  0  0  0  2  0  0  0  0  0  0
  187.0040  173.8810  135.0420 C   0  0  0  0  0  2  0  0  0  0  0  0
  189.4720  172.7750  136.2210 C   0  0  2  0  0  3  0  0  0  0  0  0
  188.0850  172.2460  136.5960 C   0  0  0  0  0  2  0  0  0  0  0  0
  187.0940  172.4160  135.4480 C   0  0  0  0  0  2  0  0  0  0  0  0
  189.4210  174.2250  135.7060 C   0  0  2  0  0  3  0  0  0  0  0  0
  190.1500  171.8640  135.2150 C   0  0  0  0  0  1  0  0  0  0  0  0
  184.2120  177.6220  140.8770 F   0  0  0  0  0  0  0  0  0  0  0  0
  185.0780  178.7010  140.8030 C   0  0  0  0  0  0  0  0  0  0  0  0
  184.3750  179.7740  140.2810 F   0  0  0  0  0  0  0  0  0  0  0  0
  185.6040  179.0380  142.2200 C   0  0  1  0  0  3  0  0  0  0  0  0
  185.9580  180.3870  142.3150 O   0  0  0  0  0  1  0  0  0  0  0  0
  184.6860  178.6130  143.3990 C   0  0  2  0  0  0  0  0  0  0  0  0
  183.9470  177.4880  143.0210 O   0  0  0  0  0  1  0  0  0  0  0  0
  182.4080  179.4370  143.2920 O   0  0  0  0  0  1  0  0  0  0  0  0
  183.6930  179.7270  143.7590 C   0  0  0  0  0  2  0  0  0  0  0  0
  185.5300  178.2440  144.6440 C   0  0  2  0  0  3  0  0  0  0  0  0
  185.1960  179.1150  145.8640 C   0  0  2  0  0  3  0  0  0  0  0  0
  186.3520  179.6820  146.4070 O   0  0  0  0  0  1  0  0  0  0  0  0
  184.4890  178.2930  146.9220 C   0  0  0  0  0  1  0  0  0  0  0  0
  186.9040  178.3090  144.3590 O   0  0  0  0  0  0  0  0  0  0  0  0
  187.6280  176.1910  143.9230 O   0  0  0  0  0  1  0  0  0  0  0  0
  187.4590  177.1540  144.9170 C   0  0  1  0  0  3  0  0  0  0  0  0
  189.7500  178.1490  144.8030 O   0  0  0  0  0  0  0  0  0  0  0  0
  188.7810  177.4700  145.5320 C   0  0  0  0  0  0  0  0  0  0  0  0
  189.0370  177.0730  146.7000 O   0  0  0  0  0  1  0  0  0  0  0  0
  191.1330  176.3700  135.9510 O   0  0  0  0  0  0  0  0  0  0  0  0
  196.0860  174.3710  134.6550 C   0  0  0  0  0  2  0  0  0  0  0  0
  192.6410  174.5210  135.9440 C   0  0  0  0  0  3  0  0  0  0  0  0
  196.1990  174.6200  136.1620 C   0  0  1  0  0  3  0  0  0  0  0  0
  194.9230  174.9600  135.4130 C   0  0  1  0  0  0  0  0  0  0  0  0
  193.4290  176.8770  135.5580 C   0  0  0  0  0  3  0  0  0  0  0  0
  194.6200  176.4060  135.1650 C   0  0  0  0  0  3  0  0  0  0  0  0
  196.0730  173.4090  136.8450 O   0  0  0  0  0  1  0  0  0  0  0  0
  193.7910  174.0680  135.5690 N   0  0  0  0  0  0  0  0  0  0  0  0
  192.4390  175.9880  136.2760 C   0  0  1  0  0  3  0  0  0  0  0  0
  2 13  1  0  0  0  0
  4 11  1  0  0  0  0
  5 12  1  0  0  0  0
  6 18  1  6  0  0  0
  6 12  1  0  0  0  0
  7  1  1  0  0  0  0
  8 14  1  0  0  0  0
  8  6  1  0  0  0  0
  9  2  1  0  0  0  0
 10 11  1  0  0  0  0
 10  2  2  0  0  0  0
 11  3  2  0  0  0  0
 12 19  1  6  0  0  0
 13 17  1  0  0  0  0
 13 28  1  1  0  0  0
 14  1  1  6  0  0  0
 14  5  1  0  0  0  0
 15  4  1  6  0  0  0
 15 16  1  0  0  0  0
 16 46  1  6  0  0  0
 16  7  1  0  0  0  0
 17 18  1  0  0  0  0
 20 21  1  0  0  0  0
 21 24  1  0  0  0  0
 22 26  1  6  0  0  0
 22 23  1  0  0  0  0
 24 23  1  0  0  0  0
 25 20  1  6  0  0  0
 25 22  1  0  0  0  0
 25 15  1  0  0  0  0
 28 27  1  0  0  0  0
 28 30  1  0  0  0  0
 29 28  1  0  0  0  0
 30 31  1  6  0  0  0
 30 32  1  0  0  0  0
 32 33  1  6  0  0  0
 32 35  1  0  0  0  0
 32 36  1  0  0  0  0
 34 35  1  0  0  0  0
 36 40  1  6  0  0  0
 36 37  1  0  0  0  0
 37 38  1  0  0  0  0
 37 39  1  1  0  0  0
 40 42  1  0  0  0  0
 42 41  1  6  0  0  0
 42 44  1  0  0  0  0
 43 44  2  0  0  0  0
 44 45  1  0  0  0  0
 47 49  1  0  0  0  0
 48 55  1  0  0  0  0
 49 53  1  1  0  0  0
 50 47  1  6  0  0  0
 50 54  1  0  0  0  0
 50 49  1  0  0  0  0
 51 55  1  0  0  0  0
 52 50  1  0  0  0  0
 52 51  2  0  0  0  0
 54 48  2  0  0  0  0
 55 46  1  6  0  0  0
M  END
>  <MODEL>
5

>  <REMARK>
 VINA RESULT:      -2.8      4.607      8.334
  Name = 
  12 active torsions:
  status: ('A' for Active; 'I' for Inactive)
    1  A    between atoms: C_1  and  C_53
    2  A    between atoms: C_6  and  C_14
    3  A    between atoms: C_6  and  C_20
    4  A    between atoms: C_6  and  C_53
    5  A    between atoms: C_8  and  C_20
    6  A    between atoms: C_8  and  C_43
    7  A    between atoms: C_11  and  C_29
    8  A    between atoms: C_11  and  O_38
    9  A    between atoms: C_26  and  C_45
   10  A    between atoms: O_33  and  C_49
   11  A    between atoms: O_33  and  C_52
   12  A    between atoms: O_38  and  C_53
                            x       y       z     vdW  Elec       q    Type
                         _______ _______ _______ _____ _____    ______ ____

>  <TORSDO>
F 12

$$$$
=
 OpenBabel11052415073D

 55 59  0  0  1  0  0  0  0  0999 V2000
  192.1860  177.1130  140.0400 C   0  0  0  0  0  2  0  0  0  0  0  0
  186.2270  178.6310  138.1470 C   0  0  0  0  0  0  0  0  0  0  0  0
  187.5980  176.0860  138.6320 O   0  0  0  0  0  0  0  0  0  0  0  0
  188.8920  176.4510  136.7660 O   0  0  0  0  0  0  0  0  0  0  0  0
  191.0200  176.7930  142.2400 C   0  0  0  0  0  2  0  0  0  0  0  0
  189.0650  177.9510  141.5700 C   0  0  2  0  0  3  0  0  0  0  0  0
  191.5710  176.0210  139.1760 C   0  0  0  0  0  2  0  0  0  0  0  0
  189.9510  177.9860  140.4840 O   0  0  0  0  0  0  0  0  0  0  0  0
  185.5450  179.7470  137.6690 O   0  0  0  0  0  1  0  0  0  0  0  0
  187.0240  177.9740  137.2980 C   0  0  0  0  0  3  0  0  0  0  0  0
  187.8390  176.7900  137.6140 C   0  0  0  0  0  0  0  0  0  0  0  0
  189.5570  176.8920  142.5470 C   0  0  1  0  0  3  0  0  0  0  0  0
  186.1050  178.2410  139.6000 C   0  0  1  0  0  3  0  0  0  0  0  0
  191.2060  177.7100  141.0500 C   0  0  2  0  0  3  0  0  0  0  0  0
  189.9890  175.6810  137.2460 C   0  0  2  0  0  3  0  0  0  0  0  0
  190.9900  176.6350  137.9130 C   0  0  2  0  0  3  0  0  0  0  0  0
  187.1570  178.7790  140.3550 O   0  0  0  0  0  0  0  0  0  0  0  0
  187.6310  177.7070  141.1160 C   0  0  0  0  0  2  0  0  0  0  0  0
  188.9690  175.6490  142.2970 O   0  0  0  0  0  1  0  0  0  0  0  0
  189.8910  175.0970  134.7710 C   0  0  0  0  0  2  0  0  0  0  0  0
  188.4850  174.5020  134.7550 C   0  0  0  0  0  2  0  0  0  0  0  0
  190.5920  173.3370  136.4600 C   0  0  2  0  0  3  0  0  0  0  0  0
  189.1920  172.7240  136.3670 C   0  0  0  0  0  2  0  0  0  0  0  0
  188.5500  173.0020  135.0100 C   0  0  0  0  0  2  0  0  0  0  0  0
  190.5940  174.8350  136.1110 C   0  0  2  0  0  3  0  0  0  0  0  0
  191.5790  172.5750  135.5970 C   0  0  0  0  0  1  0  0  0  0  0  0
  184.6020  179.8410  140.4570 F   0  0  0  0  0  0  0  0  0  0  0  0
  184.7220  178.4760  140.2510 C   0  0  0  0  0  0  0  0  0  0  0  0
  184.6690  177.8550  141.4870 F   0  0  0  0  0  0  0  0  0  0  0  0
  183.5620  177.9860  139.3500 C   0  0  1  0  0  3  0  0  0  0  0  0
  183.8590  176.7420  138.7840 O   0  0  0  0  0  1  0  0  0  0  0  0
  182.1530  177.9850  140.0050 C   0  0  2  0  0  0  0  0  0  0  0  0
  182.2920  178.1170  141.3900 O   0  0  0  0  0  1  0  0  0  0  0  0
  180.6570  176.7380  138.5610 O   0  0  0  0  0  1  0  0  0  0  0  0
  181.4160  176.6660  139.7320 C   0  0  0  0  0  2  0  0  0  0  0  0
  181.3070  179.1730  139.4860 C   0  0  2  0  0  3  0  0  0  0  0  0
  181.9890  179.9260  138.3360 C   0  0  2  0  0  3  0  0  0  0  0  0
  182.3140  181.2320  138.7130 O   0  0  0  0  0  1  0  0  0  0  0  0
  181.0880  179.9590  137.1180 C   0  0  0  0  0  1  0  0  0  0  0  0
  180.9890  180.0590  140.5290 O   0  0  0  0  0  0  0  0  0  0  0  0
  179.0770  179.1190  139.7150 O   0  0  0  0  0  1  0  0  0  0  0  0
  179.5970  180.0190  140.6450 C   0  0  1  0  0  3  0  0  0  0  0  0
  178.9310  178.2540  142.2850 O   0  0  0  0  0  0  0  0  0  0  0  0
  179.2120  179.5890  142.0210 C   0  0  0  0  0  0  0  0  0  0  0  0
  179.0920  180.4490  142.9340 O   0  0  0  0  0  1  0  0  0  0  0  0
  192.0110  177.0150  137.0280 O   0  0  0  0  0  0  0  0  0  0  0  0
  196.6680  174.2630  136.0570 C   0  0  0  0  0  2  0  0  0  0  0  0
  193.4850  176.0060  135.4450 C   0  0  0  0  0  3  0  0  0  0  0  0
  195.5950  173.1760  135.9410 C   0  0  1  0  0  3  0  0  0  0  0  0
  195.2180  174.6040  136.2890 C   0  0  1  0  0  0  0  0  0  0  0  0
  193.6360  175.5070  137.9050 C   0  0  0  0  0  3  0  0  0  0  0  0
  194.8110  174.8970  137.7010 C   0  0  0  0  0  3  0  0  0  0  0  0
  195.3500  172.9050  134.5940 O   0  0  0  0  0  1  0  0  0  0  0  0
  194.6160  175.4150  135.2490 N   0  0  0  0  0  0  0  0  0  0  0  0
  192.7230  175.8430  136.7480 C   0  0  1  0  0  3  0  0  0  0  0  0
  2 13  1  0  0  0  0
  4 11  1  0  0  0  0
  5 12  1  0  0  0  0
  6 18  1  6  0  0  0
  6 12  1  0  0  0  0
  7  1  1  0  0  0  0
  8 14  1  0  0  0  0
  8  6  1  0  0  0  0
  9  2  1  0  0  0  0
 10 11  1  0  0  0  0
 10  2  2  0  0  0  0
 11  3  2  0  0  0  0
 12 19  1  6  0  0  0
 13 28  1  1  0  0  0
 13 17  1  0  0  0  0
 14  1  1  6  0  0  0
 14  5  1  0  0  0  0
 15  4  1  6  0  0  0
 15 16  1  0  0  0  0
 16 46  1  6  0  0  0
 16  7  1  0  0  0  0
 17 18  1  0  0  0  0
 21 20  1  0  0  0  0
 21 24  1  0  0  0  0
 22 26  1  6  0  0  0
 23 22  1  0  0  0  0
 24 23  1  0  0  0  0
 25 20  1  6  0  0  0
 25 22  1  0  0  0  0
 25 15  1  0  0  0  0
 28 27  1  0  0  0  0
 28 29  1  0  0  0  0
 30 31  1  1  0  0  0
 30 32  1  0  0  0  0
 30 28  1  0  0  0  0
 32 33  1  1  0  0  0
 34 35  1  0  0  0  0
 35 32  1  0  0  0  0
 36 32  1  0  0  0  0
 36 40  1  1  0  0  0
 37 39  1  6  0  0  0
 37 38  1  0  0  0  0
 37 36  1  0  0  0  0
 40 42  1  0  0  0  0
 42 41  1  6  0  0  0
 42 44  1  0  0  0  0
 44 43  2  0  0  0  0
 44 45  1  0  0  0  0
 48 55  1  0  0  0  0
 49 53  1  6  0  0  0
 49 47  1  0  0  0  0
 49 50  1  0  0  0  0
 50 47  1  1  0  0  0
 50 52  1  0  0  0  0
 52 51  2  0  0  0  0
 54 48  2  0  0  0  0
 54 50  1  0  0  0  0
 55 46  1  1  0  0  0
 55 51  1  0  0  0  0
M  END
>  <MODEL>
6

>  <REMARK>
 VINA RESULT:      -2.8      4.426      9.952
  Name = 
  12 active torsions:
  status: ('A' for Active; 'I' for Inactive)
    1  A    between atoms: C_1  and  C_53
    2  A    between atoms: C_6  and  C_14
    3  A    between atoms: C_6  and  C_20
    4  A    between atoms: C_6  and  C_53
    5  A    between atoms: C_8  and  C_20
    6  A    between atoms: C_8  and  C_43
    7  A    between atoms: C_11  and  C_29
    8  A    between atoms: C_11  and  O_38
    9  A    between atoms: C_26  and  C_45
   10  A    between atoms: O_33  and  C_49
   11  A    between atoms: O_33  and  C_52
   12  A    between atoms: O_38  and  C_53
                            x       y       z     vdW  Elec       q    Type
                         _______ _______ _______ _____ _____    ______ ____

>  <TORSDO>
F 12

$$$$
