=
 OpenBabel11052414443D

 32 35  0  0  1  0  0  0  0  0999 V2000
  185.9370  177.7980  142.0970 O   0  0  0  0  0  0  0  0  0  0  0  0
  185.1890  178.4750  143.0890 C   0  0  2  0  0  3  0  0  0  0  0  0
  185.8050  178.3900  144.4620 C   0  0  0  0  0  0  0  0  0  0  0  0
  185.1500  179.0000  145.5390 C   0  0  0  0  0  3  0  0  0  0  0  0
  189.4430  177.1390  147.4110 C   0  0  0  0  0  3  0  0  0  0  0  0
  187.0530  177.7780  144.6630 C   0  0  0  0  0  3  0  0  0  0  0  0
  187.5420  178.3620  148.2890 C   0  0  0  0  0  3  0  0  0  0  0  0
  186.9600  178.3720  147.0180 C   0  0  0  0  0  0  0  0  0  0  0  0
  185.7230  178.9880  146.8130 C   0  0  0  0  0  3  0  0  0  0  0  0
  187.6290  177.7610  145.9330 C   0  0  0  0  0  0  0  0  0  0  0  0
  188.7830  177.7470  148.4840 C   0  0  0  0  0  3  0  0  0  0  0  0
  188.8680  177.1470  146.1350 C   0  0  0  0  0  3  0  0  0  0  0  0
  182.9180  179.4330  142.7530 C   0  0  1  0  0  3  0  0  0  0  0  0
  183.6910  178.1610  143.0420 C   0  0  1  0  0  3  0  0  0  0  0  0
  183.1560  178.4230  141.6490 C   0  0  0  0  0  2  0  0  0  0  0  0
  180.6050  179.8030  142.3620 O   0  0  0  0  0  1  0  0  0  0  0  0
  181.5080  179.2800  143.2850 C   0  0  0  0  0  2  0  0  0  0  0  0
  186.5250  178.7480  141.2420 C   0  0  0  0  0  2  0  0  0  0  0  0
  186.7580  178.1660  139.8500 C   0  0  1  0  0  3  0  0  0  0  0  0
  186.0820  178.9170  138.8880 O   0  0  0  0  0  1  0  0  0  0  0  0
  188.2370  178.0240  139.4730 C   0  0  1  0  0  3  0  0  0  0  0  0
  188.6740  179.1290  138.7380 O   0  0  0  0  0  1  0  0  0  0  0  0
  189.1450  177.8230  140.6870 C   0  0  0  0  0  2  0  0  0  0  0  0
  190.5790  177.4240  140.3280 C   0  0  1  0  0  3  0  0  0  0  0  0
  191.5160  177.5310  141.5230 C   0  0  0  0  0  2  0  0  0  0  0  0
  190.7180  177.5990  142.8100 C   0  0  0  0  0  3  0  0  0  0  0  0
  191.3110  178.6710  143.7020 C   0  0  0  0  0  2  0  0  0  0  0  0
  191.6110  177.2150  143.9720 C   0  0  0  0  0  2  0  0  0  0  0  0
  190.6140  176.0780  139.7730 N   0  0  0  0  0  2  0  0  0  0  0  0
  190.9980  174.6630  138.0120 O   0  0  0  0  0  0  0  0  0  0  0  0
  191.1930  176.8790  137.5690 O   0  0  0  0  0  0  0  0  0  0  0  0
  190.9540  175.8360  138.4340 N   0  0  0  0  0  0  0  0  0  0  0  0
  2  1  1  6  0  0  0
  2  3  1  0  0  0  0
  3  6  2  0  0  0  0
  3  4  1  0  0  0  0
  4  9  2  0  0  0  0
  5 11  1  0  0  0  0
  6 10  1  0  0  0  0
  7 11  2  0  0  0  0
  8  7  1  0  0  0  0
  9  8  1  0  0  0  0
 10 12  1  0  0  0  0
 10  8  2  0  0  0  0
 12  5  2  0  0  0  0
 13 14  1  0  0  0  0
 13 17  1  1  0  0  0
 14  2  1  6  0  0  0
 15 13  1  0  0  0  0
 15 14  1  0  0  0  0
 16 17  1  0  0  0  0
 18  1  1  0  0  0  0
 19 20  1  6  0  0  0
 19 18  1  0  0  0  0
 21 22  1  1  0  0  0
 21 19  1  0  0  0  0
 21 23  1  0  0  0  0
 24 23  1  1  0  0  0
 24 25  1  0  0  0  0
 25 26  1  0  0  0  0
 26 27  1  0  0  0  0
 26 28  1  0  0  0  0
 27 28  1  0  0  0  0
 29 24  1  0  0  0  0
 30 32  2  0  0  0  0
 31 32  2  0  0  0  0
 32 29  1  0  0  0  0
M  END
>  <MODEL>
1

>  <REMARK>
 VINA RESULT:      -8.1      0.000      0.000
  Name = 
  13 active torsions:
  status: ('A' for Active; 'I' for Inactive)
    1  A    between atoms: O_1  and  C_5
    2  A    between atoms: O_1  and  C_30
    3  A    between atoms: C_2  and  C_5
    4  A    between atoms: C_3  and  C_8
    5  A    between atoms: C_3  and  C_20
    6  A    between atoms: C_4  and  C_24
    7  A    between atoms: C_4  and  C_30
    8  A    between atoms: C_5  and  C_14
    9  A    between atoms: C_13  and  C_29
   10  A    between atoms: N_15  and  C_20
   11  A    between atoms: N_15  and  N_26
   12  A    between atoms: C_16  and  C_20
   13  A    between atoms: C_16  and  C_24
                            x       y       z     vdW  Elec       q    Type
                         _______ _______ _______ _____ _____    ______ ____

>  <TORSDO>
F 13

$$$$
=
 OpenBabel11052414443D

 32 35  0  0  1  0  0  0  0  0999 V2000
  189.1920  178.2490  142.1060 O   0  0  0  0  0  0  0  0  0  0  0  0
  188.2520  178.4870  141.0760 C   0  0  2  0  0  3  0  0  0  0  0  0
  186.8290  178.5480  141.5700 C   0  0  0  0  0  0  0  0  0  0  0  0
  185.7940  178.7000  140.6410 C   0  0  0  0  0  3  0  0  0  0  0  0
  183.5940  178.7460  145.1750 C   0  0  0  0  0  3  0  0  0  0  0  0
  186.5350  178.5320  142.9430 C   0  0  0  0  0  3  0  0  0  0  0  0
  182.8500  178.9160  142.8730 C   0  0  0  0  0  3  0  0  0  0  0  0
  184.1720  178.7920  142.4360 C   0  0  0  0  0  0  0  0  0  0  0  0
  184.4690  178.8170  141.0700 C   0  0  0  0  0  3  0  0  0  0  0  0
  185.2140  178.6470  143.3790 C   0  0  0  0  0  0  0  0  0  0  0  0
  182.5620  178.8940  144.2420 C   0  0  0  0  0  3  0  0  0  0  0  0
  184.9200  178.6250  144.7450 C   0  0  0  0  0  3  0  0  0  0  0  0
  188.5580  178.4710  138.6080 C   0  0  1  0  0  3  0  0  0  0  0  0
  188.4600  177.6010  139.8450 C   0  0  1  0  0  3  0  0  0  0  0  0
  189.8130  177.8920  139.2290 C   0  0  0  0  0  2  0  0  0  0  0  0
  188.6430  178.2630  136.2430 O   0  0  0  0  0  1  0  0  0  0  0  0
  188.1640  177.6490  137.3990 C   0  0  0  0  0  2  0  0  0  0  0  0
  189.3520  176.8600  142.2650 C   0  0  0  0  0  2  0  0  0  0  0  0
  190.8020  176.5070  142.5920 C   0  0  1  0  0  3  0  0  0  0  0  0
  191.6560  177.5280  142.1750 O   0  0  0  0  0  1  0  0  0  0  0  0
  191.0450  176.1780  144.0690 C   0  0  1  0  0  3  0  0  0  0  0  0
  192.0910  175.2640  144.2120 O   0  0  0  0  0  1  0  0  0  0  0  0
  191.3270  177.4190  144.9170 C   0  0  0  0  0  2  0  0  0  0  0  0
  190.5450  177.4600  146.2340 C   0  0  1  0  0  3  0  0  0  0  0  0
  189.0410  177.4790  146.0020 C   0  0  0  0  0  2  0  0  0  0  0  0
  188.3090  177.1300  147.2840 C   0  0  0  0  0  3  0  0  0  0  0  0
  187.1700  178.1090  147.4820 C   0  0  0  0  0  2  0  0  0  0  0  0
  188.4500  178.2740  148.2660 C   0  0  0  0  0  2  0  0  0  0  0  0
  190.9140  176.3380  147.0850 N   0  0  0  0  0  2  0  0  0  0  0  0
  192.4240  177.1330  148.6140 O   0  0  0  0  0  0  0  0  0  0  0  0
  193.0480  175.2740  147.4760 O   0  0  0  0  0  0  0  0  0  0  0  0
  192.1520  176.2820  147.7440 N   0  0  0  0  0  0  0  0  0  0  0  0
  1 18  1  0  0  0  0
  2  3  1  0  0  0  0
  2  1  1  1  0  0  0
  3  6  1  0  0  0  0
  4  9  1  0  0  0  0
  4  3  2  0  0  0  0
  6 10  2  0  0  0  0
  7 11  2  0  0  0  0
  8  7  1  0  0  0  0
  8 10  1  0  0  0  0
  9  8  2  0  0  0  0
 10 12  1  0  0  0  0
 11  5  1  0  0  0  0
 12  5  2  0  0  0  0
 13 17  1  6  0  0  0
 13 15  1  0  0  0  0
 13 14  1  0  0  0  0
 14  2  1  1  0  0  0
 15 14  1  0  0  0  0
 16 17  1  0  0  0  0
 18 19  1  0  0  0  0
 19 20  1  1  0  0  0
 19 21  1  0  0  0  0
 21 22  1  6  0  0  0
 21 23  1  0  0  0  0
 24 23  1  6  0  0  0
 24 29  1  0  0  0  0
 25 24  1  0  0  0  0
 25 26  1  0  0  0  0
 26 27  1  0  0  0  0
 26 28  1  0  0  0  0
 27 28  1  0  0  0  0
 29 32  1  0  0  0  0
 31 32  2  0  0  0  0
 32 30  2  0  0  0  0
M  END
>  <MODEL>
2

>  <REMARK>
 VINA RESULT:      -8.0      3.548      6.470
  Name = 
  13 active torsions:
  status: ('A' for Active; 'I' for Inactive)
    1  A    between atoms: O_1  and  C_5
    2  A    between atoms: O_1  and  C_30
    3  A    between atoms: C_2  and  C_5
    4  A    between atoms: C_3  and  C_8
    5  A    between atoms: C_3  and  C_20
    6  A    between atoms: C_4  and  C_24
    7  A    between atoms: C_4  and  C_30
    8  A    between atoms: C_5  and  C_14
    9  A    between atoms: C_13  and  C_29
   10  A    between atoms: N_15  and  C_20
   11  A    between atoms: N_15  and  N_26
   12  A    between atoms: C_16  and  C_20
   13  A    between atoms: C_16  and  C_24
                            x       y       z     vdW  Elec       q    Type
                         _______ _______ _______ _____ _____    ______ ____

>  <TORSDO>
F 13

$$$$
=
 OpenBabel11052414443D

 32 35  0  0  1  0  0  0  0  0999 V2000
  188.0830  178.8260  141.1380 O   0  0  0  0  0  0  0  0  0  0  0  0
  189.0030  177.7520  141.1700 C   0  0  2  0  0  3  0  0  0  0  0  0
  189.6470  177.5580  142.5190 C   0  0  0  0  0  0  0  0  0  0  0  0
  191.0290  177.3490  142.5880 C   0  0  0  0  0  3  0  0  0  0  0  0
  189.3420  176.9880  147.3240 C   0  0  0  0  0  3  0  0  0  0  0  0
  188.8760  177.5100  143.6920 C   0  0  0  0  0  3  0  0  0  0  0  0
  191.4960  176.8250  146.2210 C   0  0  0  0  0  3  0  0  0  0  0  0
  190.8850  177.0700  144.9880 C   0  0  0  0  0  0  0  0  0  0  0  0
  191.6470  177.1100  143.8180 C   0  0  0  0  0  3  0  0  0  0  0  0
  189.4880  177.2740  144.9240 C   0  0  0  0  0  0  0  0  0  0  0  0
  190.7240  176.7830  147.3870 C   0  0  0  0  0  3  0  0  0  0  0  0
  188.7230  177.2310  146.0930 C   0  0  0  0  0  3  0  0  0  0  0  0
  189.5160  176.7550  138.9500 C   0  0  1  0  0  3  0  0  0  0  0  0
  189.9810  177.7520  139.9920 C   0  0  1  0  0  3  0  0  0  0  0  0
  189.2770  178.2360  138.7420 C   0  0  0  0  0  2  0  0  0  0  0  0
  190.9420  174.9560  138.3390 O   0  0  0  0  0  1  0  0  0  0  0  0
  190.7090  176.3140  138.1280 C   0  0  0  0  0  2  0  0  0  0  0  0
  186.8350  178.3710  141.6050 C   0  0  0  0  0  2  0  0  0  0  0  0
  185.6890  179.0420  140.8510 C   0  0  1  0  0  3  0  0  0  0  0  0
  185.7570  178.7390  139.4910 O   0  0  0  0  0  1  0  0  0  0  0  0
  184.2990  178.7060  141.4040 C   0  0  1  0  0  3  0  0  0  0  0  0
  183.6210  177.8320  140.5520 O   0  0  0  0  0  1  0  0  0  0  0  0
  184.3450  178.1190  142.8140 C   0  0  0  0  0  2  0  0  0  0  0  0
  183.1700  178.5430  143.7000 C   0  0  1  0  0  3  0  0  0  0  0  0
  183.6250  178.9510  145.0940 C   0  0  0  0  0  2  0  0  0  0  0  0
  185.0060  178.3910  145.3790 C   0  0  0  0  0  3  0  0  0  0  0  0
  185.2150  178.3350  146.8780 C   0  0  0  0  0  2  0  0  0  0  0  0
  185.8400  179.4490  146.0710 C   0  0  0  0  0  2  0  0  0  0  0  0
  182.4190  179.6230  143.0740 N   0  0  0  0  0  2  0  0  0  0  0  0
  180.5970  178.4150  142.3880 O   0  0  0  0  0  0  0  0  0  0  0  0
  180.1970  180.5660  142.9880 O   0  0  0  0  0  0  0  0  0  0  0  0
  181.0510  179.5060  142.7870 N   0  0  0  0  0  0  0  0  0  0  0  0
  1 18  1  0  0  0  0
  2  1  1  1  0  0  0
  2  3  1  0  0  0  0
  3  4  2  0  0  0  0
  3  6  1  0  0  0  0
  4  9  1  0  0  0  0
  5 11  1  0  0  0  0
  6 10  2  0  0  0  0
  7 11  2  0  0  0  0
  8  7  1  0  0  0  0
  9  8  2  0  0  0  0
 10  8  1  0  0  0  0
 10 12  1  0  0  0  0
 12  5  2  0  0  0  0
 13 17  1  6  0  0  0
 13 14  1  0  0  0  0
 14  2  1  1  0  0  0
 15 13  1  0  0  0  0
 15 14  1  0  0  0  0
 17 16  1  0  0  0  0
 19 20  1  6  0  0  0
 19 21  1  0  0  0  0
 19 18  1  0  0  0  0
 21 22  1  6  0  0  0
 21 23  1  0  0  0  0
 24 23  1  6  0  0  0
 24 25  1  0  0  0  0
 25 26  1  0  0  0  0
 26 28  1  0  0  0  0
 26 27  1  0  0  0  0
 28 27  1  0  0  0  0
 29 24  1  0  0  0  0
 30 32  2  0  0  0  0
 32 31  2  0  0  0  0
 32 29  1  0  0  0  0
M  END
>  <MODEL>
3

>  <REMARK>
 VINA RESULT:      -8.0      2.836      6.860
  Name = 
  13 active torsions:
  status: ('A' for Active; 'I' for Inactive)
    1  A    between atoms: O_1  and  C_5
    2  A    between atoms: O_1  and  C_30
    3  A    between atoms: C_2  and  C_5
    4  A    between atoms: C_3  and  C_8
    5  A    between atoms: C_3  and  C_20
    6  A    between atoms: C_4  and  C_24
    7  A    between atoms: C_4  and  C_30
    8  A    between atoms: C_5  and  C_14
    9  A    between atoms: C_13  and  C_29
   10  A    between atoms: N_15  and  C_20
   11  A    between atoms: N_15  and  N_26
   12  A    between atoms: C_16  and  C_20
   13  A    between atoms: C_16  and  C_24
                            x       y       z     vdW  Elec       q    Type
                         _______ _______ _______ _____ _____    ______ ____

>  <TORSDO>
F 13

$$$$
=
 OpenBabel11052414443D

 32 35  0  0  1  0  0  0  0  0999 V2000
  184.9340  177.8730  140.6870 O   0  0  0  0  0  0  0  0  0  0  0  0
  184.0540  178.5530  141.5610 C   0  0  2  0  0  3  0  0  0  0  0  0
  184.4860  178.4990  143.0030 C   0  0  0  0  0  0  0  0  0  0  0  0
  183.6040  178.9490  143.9940 C   0  0  0  0  0  3  0  0  0  0  0  0
  187.8500  177.6890  146.3990 C   0  0  0  0  0  3  0  0  0  0  0  0
  185.7780  178.0800  143.3610 C   0  0  0  0  0  3  0  0  0  0  0  0
  185.6780  178.5600  147.0340 C   0  0  0  0  0  3  0  0  0  0  0  0
  185.2770  178.5400  145.6950 C   0  0  0  0  0  0  0  0  0  0  0  0
  183.9960  178.9660  145.3350 C   0  0  0  0  0  3  0  0  0  0  0  0
  186.1740  178.0920  144.6990 C   0  0  0  0  0  0  0  0  0  0  0  0
  186.9640  178.1360  147.3840 C   0  0  0  0  0  3  0  0  0  0  0  0
  187.4570  177.6680  145.0560 C   0  0  0  0  0  3  0  0  0  0  0  0
  181.9430  179.2940  140.4750 C   0  0  1  0  0  3  0  0  0  0  0  0
  182.5800  178.2130  141.3250 C   0  0  1  0  0  3  0  0  0  0  0  0
  182.3400  177.9730  139.8490 C   0  0  0  0  0  2  0  0  0  0  0  0
  179.9130  180.5150  140.2980 O   0  0  0  0  0  1  0  0  0  0  0  0
  180.4510  179.3050  140.7330 C   0  0  0  0  0  2  0  0  0  0  0  0
  185.8510  178.7980  140.1530 C   0  0  0  0  0  2  0  0  0  0  0  0
  186.6460  178.1830  139.0040 C   0  0  1  0  0  3  0  0  0  0  0  0
  186.3840  178.8610  137.8130 O   0  0  0  0  0  1  0  0  0  0  0  0
  188.1570  178.1160  139.2570 C   0  0  1  0  0  3  0  0  0  0  0  0
  188.8240  179.1350  138.5740 O   0  0  0  0  0  1  0  0  0  0  0  0
  188.5140  178.1720  140.7420 C   0  0  0  0  0  2  0  0  0  0  0  0
  189.8770  177.5560  141.0740 C   0  0  1  0  0  3  0  0  0  0  0  0
  190.0380  177.3000  142.5660 C   0  0  0  0  0  2  0  0  0  0  0  0
  191.3160  177.9380  143.0730 C   0  0  0  0  0  3  0  0  0  0  0  0
  191.3560  177.8280  144.5840 C   0  0  0  0  0  2  0  0  0  0  0  0
  190.9690  179.1360  143.9330 C   0  0  0  0  0  2  0  0  0  0  0  0
  190.0820  176.3270  140.3220 N   0  0  0  0  0  2  0  0  0  0  0  0
  191.9920  177.0440  139.2800 O   0  0  0  0  0  0  0  0  0  0  0  0
  190.9950  175.2160  138.3810 O   0  0  0  0  0  0  0  0  0  0  0  0
  191.0490  176.2290  139.3100 N   0  0  0  0  0  0  0  0  0  0  0  0
  2  1  1  6  0  0  0
  2  3  1  0  0  0  0
  3  6  2  0  0  0  0
  3  4  1  0  0  0  0
  4  9  2  0  0  0  0
  5 11  1  0  0  0  0
  6 10  1  0  0  0  0
  7 11  2  0  0  0  0
  8  7  1  0  0  0  0
  9  8  1  0  0  0  0
 10 12  1  0  0  0  0
 10  8  2  0  0  0  0
 12  5  2  0  0  0  0
 13 17  1  1  0  0  0
 13 14  1  0  0  0  0
 14  2  1  6  0  0  0
 15 13  1  0  0  0  0
 15 14  1  0  0  0  0
 16 17  1  0  0  0  0
 18  1  1  0  0  0  0
 19 20  1  6  0  0  0
 19 21  1  0  0  0  0
 19 18  1  0  0  0  0
 21 22  1  6  0  0  0
 21 23  1  0  0  0  0
 24 23  1  1  0  0  0
 24 25  1  0  0  0  0
 25 26  1  0  0  0  0
 26 28  1  0  0  0  0
 26 27  1  0  0  0  0
 28 27  1  0  0  0  0
 29 24  1  0  0  0  0
 30 32  2  0  0  0  0
 31 32  2  0  0  0  0
 32 29  1  0  0  0  0
M  END
>  <MODEL>
4

>  <REMARK>
 VINA RESULT:      -7.9      1.184      1.809
  Name = 
  13 active torsions:
  status: ('A' for Active; 'I' for Inactive)
    1  A    between atoms: O_1  and  C_5
    2  A    between atoms: O_1  and  C_30
    3  A    between atoms: C_2  and  C_5
    4  A    between atoms: C_3  and  C_8
    5  A    between atoms: C_3  and  C_20
    6  A    between atoms: C_4  and  C_24
    7  A    between atoms: C_4  and  C_30
    8  A    between atoms: C_5  and  C_14
    9  A    between atoms: C_13  and  C_29
   10  A    between atoms: N_15  and  C_20
   11  A    between atoms: N_15  and  N_26
   12  A    between atoms: C_16  and  C_20
   13  A    between atoms: C_16  and  C_24
                            x       y       z     vdW  Elec       q    Type
                         _______ _______ _______ _____ _____    ______ ____

>  <TORSDO>
F 13

$$$$
=
 OpenBabel11052414443D

 32 35  0  0  1  0  0  0  0  0999 V2000
  189.7200  177.8270  143.0790 O   0  0  0  0  0  0  0  0  0  0  0  0
  189.1900  177.4220  144.3270 C   0  0  2  0  0  3  0  0  0  0  0  0
  187.7550  177.8360  144.5270 C   0  0  0  0  0  0  0  0  0  0  0  0
  187.2840  178.0460  145.8290 C   0  0  0  0  0  3  0  0  0  0  0  0
  183.3080  178.7060  142.8030 C   0  0  0  0  0  3  0  0  0  0  0  0
  186.8690  177.9400  143.4420 C   0  0  0  0  0  3  0  0  0  0  0  0
  183.7200  178.8110  145.1910 C   0  0  0  0  0  3  0  0  0  0  0  0
  185.0630  178.4890  144.9740 C   0  0  0  0  0  0  0  0  0  0  0  0
  185.9450  178.3750  146.0520 C   0  0  0  0  0  3  0  0  0  0  0  0
  185.5300  178.2710  143.6580 C   0  0  0  0  0  0  0  0  0  0  0  0
  182.8440  178.9180  144.1060 C   0  0  0  0  0  3  0  0  0  0  0  0
  184.6500  178.3810  142.5790 C   0  0  0  0  0  3  0  0  0  0  0  0
  190.8230  176.4630  145.9390 C   0  0  1  0  0  3  0  0  0  0  0  0
  190.1130  177.7310  145.5080 C   0  0  1  0  0  3  0  0  0  0  0  0
  191.5540  177.4960  145.1070 C   0  0  0  0  0  2  0  0  0  0  0  0
  192.5150  176.0870  147.5620 O   0  0  0  0  0  1  0  0  0  0  0  0
  191.2300  176.5990  147.3910 C   0  0  0  0  0  2  0  0  0  0  0  0
  189.4800  176.8120  142.1320 C   0  0  0  0  0  2  0  0  0  0  0  0
  189.9340  177.2430  140.7390 C   0  0  1  0  0  3  0  0  0  0  0  0
  190.5600  176.1830  140.0830 O   0  0  0  0  0  1  0  0  0  0  0  0
  188.8130  177.8210  139.8690 C   0  0  1  0  0  3  0  0  0  0  0  0
  188.1910  178.8970  140.5060 O   0  0  0  0  0  1  0  0  0  0  0  0
  189.2950  178.2520  138.4840 C   0  0  0  0  0  2  0  0  0  0  0  0
  188.4300  177.7260  137.3350 C   0  0  1  0  0  3  0  0  0  0  0  0
  189.1570  176.6740  136.5100 C   0  0  0  0  0  2  0  0  0  0  0  0
  188.6840  175.2850  136.8960 C   0  0  0  0  0  3  0  0  0  0  0  0
  189.8900  174.3890  137.0860 C   0  0  0  0  0  2  0  0  0  0  0  0
  189.0810  174.3040  135.8140 C   0  0  0  0  0  2  0  0  0  0  0  0
  187.1720  177.1960  137.8420 N   0  0  0  0  0  2  0  0  0  0  0  0
  185.1620  177.4370  136.7690 O   0  0  0  0  0  0  0  0  0  0  0  0
  185.5980  178.9350  138.4150 O   0  0  0  0  0  0  0  0  0  0  0  0
  185.9520  177.8580  137.6370 N   0  0  0  0  0  0  0  0  0  0  0  0
  2  1  1  6  0  0  0
  2  3  1  0  0  0  0
  3  4  1  0  0  0  0
  4  9  2  0  0  0  0
  5 11  1  0  0  0  0
  6 10  1  0  0  0  0
  6  3  2  0  0  0  0
  8  7  1  0  0  0  0
  8  9  1  0  0  0  0
 10  8  2  0  0  0  0
 11  7  2  0  0  0  0
 12  5  2  0  0  0  0
 12 10  1  0  0  0  0
 13 17  1  1  0  0  0
 14  2  1  6  0  0  0
 14 13  1  0  0  0  0
 15 14  1  0  0  0  0
 15 13  1  0  0  0  0
 17 16  1  0  0  0  0
 18  1  1  0  0  0  0
 19 20  1  6  0  0  0
 19 18  1  0  0  0  0
 21 22  1  1  0  0  0
 21 19  1  0  0  0  0
 23 21  1  0  0  0  0
 24 25  1  1  0  0  0
 24 29  1  0  0  0  0
 24 23  1  0  0  0  0
 25 26  1  0  0  0  0
 26 27  1  0  0  0  0
 28 26  1  0  0  0  0
 28 27  1  0  0  0  0
 30 32  2  0  0  0  0
 32 29  1  0  0  0  0
 32 31  2  0  0  0  0
M  END
>  <MODEL>
5

>  <REMARK>
 VINA RESULT:      -7.7      2.876      6.060
  Name = 
  13 active torsions:
  status: ('A' for Active; 'I' for Inactive)
    1  A    between atoms: O_1  and  C_5
    2  A    between atoms: O_1  and  C_30
    3  A    between atoms: C_2  and  C_5
    4  A    between atoms: C_3  and  C_8
    5  A    between atoms: C_3  and  C_20
    6  A    between atoms: C_4  and  C_24
    7  A    between atoms: C_4  and  C_30
    8  A    between atoms: C_5  and  C_14
    9  A    between atoms: C_13  and  C_29
   10  A    between atoms: N_15  and  C_20
   11  A    between atoms: N_15  and  N_26
   12  A    between atoms: C_16  and  C_20
   13  A    between atoms: C_16  and  C_24
                            x       y       z     vdW  Elec       q    Type
                         _______ _______ _______ _____ _____    ______ ____

>  <TORSDO>
F 13

$$$$
=
 OpenBabel11052414443D

 32 35  0  0  1  0  0  0  0  0999 V2000
  189.1560  176.8620  143.7150 O   0  0  0  0  0  0  0  0  0  0  0  0
  188.4710  177.0670  144.9360 C   0  0  2  0  0  3  0  0  0  0  0  0
  187.0870  177.6340  144.7540 C   0  0  0  0  0  0  0  0  0  0  0  0
  186.3830  178.0810  145.8780 C   0  0  0  0  0  3  0  0  0  0  0  0
  183.2370  178.6240  141.9790 C   0  0  0  0  0  3  0  0  0  0  0  0
  186.4670  177.6490  143.4940 C   0  0  0  0  0  3  0  0  0  0  0  0
  183.1500  179.0550  144.3640 C   0  0  0  0  0  3  0  0  0  0  0  0
  184.4600  178.5850  144.4970 C   0  0  0  0  0  0  0  0  0  0  0  0
  185.0760  178.5590  145.7510 C   0  0  0  0  0  3  0  0  0  0  0  0
  185.1620  178.1270  143.3590 C   0  0  0  0  0  0  0  0  0  0  0  0
  182.5400  179.0730  143.1050 C   0  0  0  0  0  3  0  0  0  0  0  0
  184.5470  178.1490  142.1050 C   0  0  0  0  0  3  0  0  0  0  0  0
  189.1520  177.0750  147.3280 C   0  0  1  0  0  3  0  0  0  0  0  0
  189.3160  177.7790  145.9960 C   0  0  1  0  0  3  0  0  0  0  0  0
  190.3990  176.8460  146.4980 C   0  0  0  0  0  2  0  0  0  0  0  0
  188.3120  178.2510  149.2120 O   0  0  0  0  0  1  0  0  0  0  0  0
  189.4560  178.0550  148.4410 C   0  0  0  0  0  2  0  0  0  0  0  0
  189.9160  178.0100  143.4200 C   0  0  0  0  0  2  0  0  0  0  0  0
  191.2660  177.6350  142.8120 C   0  0  1  0  0  3  0  0  0  0  0  0
  191.6570  176.3670  143.2420 O   0  0  0  0  0  1  0  0  0  0  0  0
  191.3040  177.7160  141.2820 C   0  0  1  0  0  3  0  0  0  0  0  0
  192.5950  177.4870  140.8020 O   0  0  0  0  0  1  0  0  0  0  0  0
  190.3270  176.7510  140.6100 C   0  0  0  0  0  2  0  0  0  0  0  0
  190.2110  176.9430  139.0950 C   0  0  1  0  0  3  0  0  0  0  0  0
  190.8370  175.7880  138.3250 C   0  0  0  0  0  2  0  0  0  0  0  0
  190.8670  176.1020  136.8420 C   0  0  0  0  0  3  0  0  0  0  0  0
  190.3770  174.8920  136.0730 C   0  0  0  0  0  2  0  0  0  0  0  0
  191.8570  175.1820  136.1570 C   0  0  0  0  0  2  0  0  0  0  0  0
  188.8200  177.1190  138.7040 N   0  0  0  0  0  2  0  0  0  0  0  0
  189.0070  179.3920  138.4870 O   0  0  0  0  0  0  0  0  0  0  0  0
  187.0500  178.4840  137.7880 O   0  0  0  0  0  0  0  0  0  0  0  0
  188.3040  178.3730  138.3430 N   0  0  0  0  0  0  0  0  0  0  0  0
  2  1  1  6  0  0  0
  3  2  1  0  0  0  0
  3  4  1  0  0  0  0
  5 12  2  0  0  0  0
  5 11  1  0  0  0  0
  6  3  2  0  0  0  0
  7  8  1  0  0  0  0
  8  9  1  0  0  0  0
  9  4  2  0  0  0  0
 10  6  1  0  0  0  0
 10  8  2  0  0  0  0
 11  7  2  0  0  0  0
 12 10  1  0  0  0  0
 13 17  1  1  0  0  0
 14  2  1  6  0  0  0
 14 15  1  0  0  0  0
 14 13  1  0  0  0  0
 15 13  1  0  0  0  0
 17 16  1  0  0  0  0
 18  1  1  0  0  0  0
 19 20  1  6  0  0  0
 19 18  1  0  0  0  0
 21 22  1  6  0  0  0
 21 19  1  0  0  0  0
 23 21  1  0  0  0  0
 24 25  1  6  0  0  0
 24 23  1  0  0  0  0
 26 25  1  0  0  0  0
 27 28  1  0  0  0  0
 27 26  1  0  0  0  0
 28 26  1  0  0  0  0
 29 24  1  0  0  0  0
 31 32  2  0  0  0  0
 32 30  2  0  0  0  0
 32 29  1  0  0  0  0
M  END
>  <MODEL>
6

>  <REMARK>
 VINA RESULT:      -7.6      2.640      5.747
  Name = 
  13 active torsions:
  status: ('A' for Active; 'I' for Inactive)
    1  A    between atoms: O_1  and  C_5
    2  A    between atoms: O_1  and  C_30
    3  A    between atoms: C_2  and  C_5
    4  A    between atoms: C_3  and  C_8
    5  A    between atoms: C_3  and  C_20
    6  A    between atoms: C_4  and  C_24
    7  A    between atoms: C_4  and  C_30
    8  A    between atoms: C_5  and  C_14
    9  A    between atoms: C_13  and  C_29
   10  A    between atoms: N_15  and  C_20
   11  A    between atoms: N_15  and  N_26
   12  A    between atoms: C_16  and  C_20
   13  A    between atoms: C_16  and  C_24
                            x       y       z     vdW  Elec       q    Type
                         _______ _______ _______ _____ _____    ______ ____

>  <TORSDO>
F 13

$$$$
=
 OpenBabel11052414443D

 32 35  0  0  1  0  0  0  0  0999 V2000
  187.2340  177.5150  141.9910 O   0  0  0  0  0  0  0  0  0  0  0  0
  186.8220  178.0730  143.2240 C   0  0  2  0  0  3  0  0  0  0  0  0
  187.7170  177.6970  144.3760 C   0  0  0  0  0  0  0  0  0  0  0  0
  187.2280  177.8140  145.6830 C   0  0  0  0  0  3  0  0  0  0  0  0
  192.0250  176.3390  146.1370 C   0  0  0  0  0  3  0  0  0  0  0  0
  189.0500  177.3060  144.1650 C   0  0  0  0  0  3  0  0  0  0  0  0
  190.2050  176.8480  147.6560 C   0  0  0  0  0  3  0  0  0  0  0  0
  189.3740  177.1290  146.5680 C   0  0  0  0  0  0  0  0  0  0  0  0
  188.0510  177.5280  146.7750 C   0  0  0  0  0  3  0  0  0  0  0  0
  189.8770  177.0170  145.2520 C   0  0  0  0  0  0  0  0  0  0  0  0
  191.5300  176.4540  147.4400 C   0  0  0  0  0  3  0  0  0  0  0  0
  191.2000  176.6220  145.0430 C   0  0  0  0  0  3  0  0  0  0  0  0
  184.7310  179.2430  143.8880 C   0  0  1  0  0  3  0  0  0  0  0  0
  185.3260  177.9050  143.4990 C   0  0  1  0  0  3  0  0  0  0  0  0
  184.5270  178.7020  142.4880 C   0  0  0  0  0  2  0  0  0  0  0  0
  183.8120  179.0050  146.0660 O   0  0  0  0  0  1  0  0  0  0  0  0
  183.4830  179.0030  144.7120 C   0  0  0  0  0  2  0  0  0  0  0  0
  188.0180  178.4600  141.3020 C   0  0  0  0  0  2  0  0  0  0  0  0
  188.6050  177.8620  140.0250 C   0  0  1  0  0  3  0  0  0  0  0  0
  188.2210  178.6160  138.9150 O   0  0  0  0  0  1  0  0  0  0  0  0
  190.1280  177.6960  140.0570 C   0  0  1  0  0  3  0  0  0  0  0  0
  190.5040  176.7030  140.9640 O   0  0  0  0  0  1  0  0  0  0  0  0
  190.7220  177.3900  138.6820 C   0  0  0  0  0  2  0  0  0  0  0  0
  190.7330  175.8990  138.3310 C   0  0  1  0  0  3  0  0  0  0  0  0
  189.8610  175.5930  137.1210 C   0  0  0  0  0  2  0  0  0  0  0  0
  189.8840  176.7580  136.1500 C   0  0  0  0  0  3  0  0  0  0  0  0
  189.1100  176.3770  134.9050 C   0  0  0  0  0  2  0  0  0  0  0  0
  190.6210  176.3460  134.8930 C   0  0  0  0  0  2  0  0  0  0  0  0
  192.0940  175.4340  138.1070 N   0  0  0  0  0  2  0  0  0  0  0  0
  193.6370  176.7360  137.0250 O   0  0  0  0  0  0  0  0  0  0  0  0
  193.7380  176.7500  139.2900 O   0  0  0  0  0  0  0  0  0  0  0  0
  193.1880  176.3130  138.1080 N   0  0  0  0  0  0  0  0  0  0  0  0
  2  1  1  6  0  0  0
  2  3  1  0  0  0  0
  3  4  1  0  0  0  0
  4  9  2  0  0  0  0
  5 11  1  0  0  0  0
  6  3  2  0  0  0  0
  6 10  1  0  0  0  0
  8  9  1  0  0  0  0
  8  7  1  0  0  0  0
 10  8  2  0  0  0  0
 11  7  2  0  0  0  0
 12 10  1  0  0  0  0
 12  5  2  0  0  0  0
 13 17  1  1  0  0  0
 14  2  1  6  0  0  0
 14 13  1  0  0  0  0
 15 14  1  0  0  0  0
 15 13  1  0  0  0  0
 17 16  1  0  0  0  0
 18  1  1  0  0  0  0
 19 20  1  6  0  0  0
 19 21  1  0  0  0  0
 19 18  1  0  0  0  0
 21 22  1  1  0  0  0
 23 21  1  0  0  0  0
 24 25  1  6  0  0  0
 24 23  1  0  0  0  0
 26 25  1  0  0  0  0
 27 26  1  0  0  0  0
 28 27  1  0  0  0  0
 28 26  1  0  0  0  0
 29 32  1  0  0  0  0
 29 24  1  0  0  0  0
 30 32  2  0  0  0  0
 32 31  2  0  0  0  0
M  END
>  <MODEL>
7

>  <REMARK>
 VINA RESULT:      -7.4      2.392      3.684
  Name = 
  13 active torsions:
  status: ('A' for Active; 'I' for Inactive)
    1  A    between atoms: O_1  and  C_5
    2  A    between atoms: O_1  and  C_30
    3  A    between atoms: C_2  and  C_5
    4  A    between atoms: C_3  and  C_8
    5  A    between atoms: C_3  and  C_20
    6  A    between atoms: C_4  and  C_24
    7  A    between atoms: C_4  and  C_30
    8  A    between atoms: C_5  and  C_14
    9  A    between atoms: C_13  and  C_29
   10  A    between atoms: N_15  and  C_20
   11  A    between atoms: N_15  and  N_26
   12  A    between atoms: C_16  and  C_20
   13  A    between atoms: C_16  and  C_24
                            x       y       z     vdW  Elec       q    Type
                         _______ _______ _______ _____ _____    ______ ____

>  <TORSDO>
F 13

$$$$
=
 OpenBabel11052414443D

 32 35  0  0  1  0  0  0  0  0999 V2000
  189.4500  177.9470  143.0070 O   0  0  0  0  0  0  0  0  0  0  0  0
  188.9110  177.5470  144.2520 C   0  0  2  0  0  3  0  0  0  0  0  0
  187.4720  177.9540  144.4380 C   0  0  0  0  0  0  0  0  0  0  0  0
  187.0110  178.2500  145.7260 C   0  0  0  0  0  3  0  0  0  0  0  0
  182.9970  178.6340  142.7040 C   0  0  0  0  0  3  0  0  0  0  0  0
  186.5750  177.9670  143.3580 C   0  0  0  0  0  3  0  0  0  0  0  0
  183.4310  178.9170  145.0730 C   0  0  0  0  0  3  0  0  0  0  0  0
  184.7760  178.5990  144.8660 C   0  0  0  0  0  0  0  0  0  0  0  0
  185.6690  178.5760  145.9400 C   0  0  0  0  0  3  0  0  0  0  0  0
  185.2330  178.2930  143.5640 C   0  0  0  0  0  0  0  0  0  0  0  0
  182.5420  178.9330  143.9930 C   0  0  0  0  0  3  0  0  0  0  0  0
  184.3410  178.3120  142.4890 C   0  0  0  0  0  3  0  0  0  0  0  0
  190.5290  176.6030  145.8890 C   0  0  1  0  0  3  0  0  0  0  0  0
  189.8220  177.8670  145.4410 C   0  0  1  0  0  3  0  0  0  0  0  0
  191.2680  177.6310  145.0560 C   0  0  0  0  0  2  0  0  0  0  0  0
  192.2550  176.3770  147.5060 O   0  0  0  0  0  1  0  0  0  0  0  0
  190.9220  176.7530  147.3440 C   0  0  0  0  0  2  0  0  0  0  0  0
  189.6210  176.8090  142.1970 C   0  0  0  0  0  2  0  0  0  0  0  0
  189.3780  177.1390  140.7260 C   0  0  1  0  0  3  0  0  0  0  0  0
  188.5380  178.2470  140.6090 O   0  0  0  0  0  1  0  0  0  0  0  0
  190.6600  177.3530  139.9150 C   0  0  1  0  0  3  0  0  0  0  0  0
  191.7690  177.4740  140.7560 O   0  0  0  0  0  1  0  0  0  0  0  0
  190.9100  176.2450  138.8920 C   0  0  0  0  0  2  0  0  0  0  0  0
  191.0650  176.7530  137.4550 C   0  0  1  0  0  3  0  0  0  0  0  0
  192.0690  175.9260  136.6640 C   0  0  0  0  0  2  0  0  0  0  0  0
  192.8550  175.0240  137.5950 C   0  0  0  0  0  3  0  0  0  0  0  0
  194.2540  174.8450  137.0430 C   0  0  0  0  0  2  0  0  0  0  0  0
  193.2270  173.7520  136.8620 C   0  0  0  0  0  2  0  0  0  0  0  0
  189.7770  176.7750  136.7760 N   0  0  0  0  0  2  0  0  0  0  0  0
  187.7290  176.3460  137.7090 O   0  0  0  0  0  0  0  0  0  0  0  0
  188.8000  174.5660  136.7980 O   0  0  0  0  0  0  0  0  0  0  0  0
  188.7380  175.9000  137.1280 N   0  0  0  0  0  0  0  0  0  0  0  0
  2  1  1  6  0  0  0
  2  3  1  0  0  0  0
  3  4  1  0  0  0  0
  4  9  2  0  0  0  0
  5 11  1  0  0  0  0
  6 10  1  0  0  0  0
  6  3  2  0  0  0  0
  8  7  1  0  0  0  0
  8  9  1  0  0  0  0
 10  8  2  0  0  0  0
 11  7  2  0  0  0  0
 12  5  2  0  0  0  0
 12 10  1  0  0  0  0
 13 17  1  1  0  0  0
 14  2  1  6  0  0  0
 14 13  1  0  0  0  0
 15 14  1  0  0  0  0
 15 13  1  0  0  0  0
 17 16  1  0  0  0  0
 18  1  1  0  0  0  0
 19 20  1  1  0  0  0
 19 18  1  0  0  0  0
 21 19  1  0  0  0  0
 21 22  1  1  0  0  0
 23 21  1  0  0  0  0
 24 25  1  6  0  0  0
 24 23  1  0  0  0  0
 25 26  1  0  0  0  0
 27 26  1  0  0  0  0
 28 27  1  0  0  0  0
 28 26  1  0  0  0  0
 29 32  1  0  0  0  0
 29 24  1  0  0  0  0
 31 32  2  0  0  0  0
 32 30  2  0  0  0  0
M  END
>  <MODEL>
8

>  <REMARK>
 VINA RESULT:      -7.4      2.881      5.714
  Name = 
  13 active torsions:
  status: ('A' for Active; 'I' for Inactive)
    1  A    between atoms: O_1  and  C_5
    2  A    between atoms: O_1  and  C_30
    3  A    between atoms: C_2  and  C_5
    4  A    between atoms: C_3  and  C_8
    5  A    between atoms: C_3  and  C_20
    6  A    between atoms: C_4  and  C_24
    7  A    between atoms: C_4  and  C_30
    8  A    between atoms: C_5  and  C_14
    9  A    between atoms: C_13  and  C_29
   10  A    between atoms: N_15  and  C_20
   11  A    between atoms: N_15  and  N_26
   12  A    between atoms: C_16  and  C_20
   13  A    between atoms: C_16  and  C_24
                            x       y       z     vdW  Elec       q    Type
                         _______ _______ _______ _____ _____    ______ ____

>  <TORSDO>
F 13

$$$$
=
 OpenBabel11052414443D

 32 35  0  0  1  0  0  0  0  0999 V2000
  189.4510  177.9280  142.9840 O   0  0  0  0  0  0  0  0  0  0  0  0
  188.9160  177.5350  144.2330 C   0  0  2  0  0  3  0  0  0  0  0  0
  187.4800  177.9490  144.4230 C   0  0  0  0  0  0  0  0  0  0  0  0
  187.0270  178.2580  145.7120 C   0  0  0  0  0  3  0  0  0  0  0  0
  182.9980  178.6340  142.7080 C   0  0  0  0  0  3  0  0  0  0  0  0
  186.5770  177.9580  143.3480 C   0  0  0  0  0  3  0  0  0  0  0  0
  183.4460  178.9330  145.0730 C   0  0  0  0  0  3  0  0  0  0  0  0
  184.7890  178.6080  144.8600 C   0  0  0  0  0  0  0  0  0  0  0  0
  185.6880  178.5900  145.9300 C   0  0  0  0  0  3  0  0  0  0  0  0
  185.2380  178.2910  143.5590 C   0  0  0  0  0  0  0  0  0  0  0  0
  182.5520  178.9450  143.9970 C   0  0  0  0  0  3  0  0  0  0  0  0
  184.3400  178.3050  142.4890 C   0  0  0  0  0  3  0  0  0  0  0  0
  190.5050  176.5850  145.8940 C   0  0  1  0  0  3  0  0  0  0  0  0
  189.8340  177.8570  145.4160 C   0  0  1  0  0  3  0  0  0  0  0  0
  191.2730  177.5720  145.0390 C   0  0  0  0  0  2  0  0  0  0  0  0
  192.2360  176.3940  147.5100 O   0  0  0  0  0  1  0  0  0  0  0  0
  190.9000  176.7560  147.3460 C   0  0  0  0  0  2  0  0  0  0  0  0
  189.5890  176.7880  142.1690 C   0  0  0  0  0  2  0  0  0  0  0  0
  189.3430  177.1290  140.7010 C   0  0  1  0  0  3  0  0  0  0  0  0
  188.5070  178.2410  140.5930 O   0  0  0  0  0  1  0  0  0  0  0  0
  190.6250  177.3440  139.8880 C   0  0  1  0  0  3  0  0  0  0  0  0
  191.7290  177.5050  140.7280 O   0  0  0  0  0  1  0  0  0  0  0  0
  190.8950  176.2160  138.8920 C   0  0  0  0  0  2  0  0  0  0  0  0
  190.1520  176.3720  137.5620 C   0  0  1  0  0  3  0  0  0  0  0  0
  189.7890  177.8230  137.2790 C   0  0  0  0  0  2  0  0  0  0  0  0
  188.5320  177.8940  136.4340 C   0  0  0  0  0  3  0  0  0  0  0  0
  187.4580  178.6290  137.2080 C   0  0  0  0  0  2  0  0  0  0  0  0
  187.4250  177.1210  137.1200 C   0  0  0  0  0  2  0  0  0  0  0  0
  190.9370  175.8210  136.4680 N   0  0  0  0  0  2  0  0  0  0  0  0
  192.1450  173.9160  136.8690 O   0  0  0  0  0  0  0  0  0  0  0  0
  193.3450  175.8290  136.6620 O   0  0  0  0  0  0  0  0  0  0  0  0
  192.1500  175.1490  136.6890 N   0  0  0  0  0  0  0  0  0  0  0  0
  2  1  1  6  0  0  0
  2  3  1  0  0  0  0
  3  4  1  0  0  0  0
  4  9  2  0  0  0  0
  5 11  1  0  0  0  0
  6 10  1  0  0  0  0
  6  3  2  0  0  0  0
  8  7  1  0  0  0  0
  8  9  1  0  0  0  0
 10  8  2  0  0  0  0
 11  7  2  0  0  0  0
 12  5  2  0  0  0  0
 12 10  1  0  0  0  0
 13 17  1  1  0  0  0
 14  2  1  6  0  0  0
 14 13  1  0  0  0  0
 15 14  1  0  0  0  0
 15 13  1  0  0  0  0
 17 16  1  0  0  0  0
 18  1  1  0  0  0  0
 19 20  1  1  0  0  0
 19 18  1  0  0  0  0
 21 19  1  0  0  0  0
 21 22  1  1  0  0  0
 23 21  1  0  0  0  0
 24 25  1  6  0  0  0
 24 23  1  0  0  0  0
 26 28  1  0  0  0  0
 26 27  1  0  0  0  0
 26 25  1  0  0  0  0
 28 27  1  0  0  0  0
 29 32  1  0  0  0  0
 29 24  1  0  0  0  0
 31 32  2  0  0  0  0
 32 30  2  0  0  0  0
M  END
>  <MODEL>
9

>  <REMARK>
 VINA RESULT:      -7.3      2.411      5.636
  Name = 
  13 active torsions:
  status: ('A' for Active; 'I' for Inactive)
    1  A    between atoms: O_1  and  C_5
    2  A    between atoms: O_1  and  C_30
    3  A    between atoms: C_2  and  C_5
    4  A    between atoms: C_3  and  C_8
    5  A    between atoms: C_3  and  C_20
    6  A    between atoms: C_4  and  C_24
    7  A    between atoms: C_4  and  C_30
    8  A    between atoms: C_5  and  C_14
    9  A    between atoms: C_13  and  C_29
   10  A    between atoms: N_15  and  C_20
   11  A    between atoms: N_15  and  N_26
   12  A    between atoms: C_16  and  C_20
   13  A    between atoms: C_16  and  C_24
                            x       y       z     vdW  Elec       q    Type
                         _______ _______ _______ _____ _____    ______ ____

>  <TORSDO>
F 13

$$$$
