=
 OpenBabel11052414443D

 32 34  0  0  1  0  0  0  0  0999 V2000
  189.3770  176.5830  142.5060 N   0  0  0  0  0  2  0  0  0  0  0  0
  190.2780  177.6150  142.1650 N   0  0  0  0  0  0  0  0  0  0  0  0
  189.3800  176.4610  143.9500 C   0  0  1  0  0  3  0  0  0  0  0  0
  190.5690  177.2340  144.4220 C   0  0  2  0  0  3  0  0  0  0  0  0
  191.3340  179.1980  143.4600 C   0  0  0  0  0  1  0  0  0  0  0  0
  191.1980  177.7670  143.2290 N   0  0  0  0  0  0  0  0  0  0  0  0
  188.1260  177.0290  144.5290 C   0  0  0  0  0  0  0  0  0  0  0  0
  188.0480  177.2440  145.9110 C   0  0  0  0  0  3  0  0  0  0  0  0
  183.7060  178.7920  143.9050 C   0  0  0  0  0  3  0  0  0  0  0  0
  187.0760  177.3660  143.7220 N   0  0  0  0  0  0  0  0  0  0  0  0
  184.6450  178.6780  146.1390 C   0  0  0  0  0  3  0  0  0  0  0  0
  185.8190  178.1280  145.6180 C   0  0  0  0  0  0  0  0  0  0  0  0
  186.8860  177.7950  146.4570 C   0  0  0  0  0  3  0  0  0  0  0  0
  185.9360  177.9040  144.2280 C   0  0  0  0  0  0  0  0  0  0  0  0
  183.5900  179.0090  145.2820 C   0  0  0  0  0  3  0  0  0  0  0  0
  184.8780  178.2410  143.3770 C   0  0  0  0  0  3  0  0  0  0  0  0
  190.9990  177.1630  140.9630 C   0  0  2  0  0  3  0  0  0  0  0  0
  192.4810  177.5310  140.9740 C   0  0  0  0  0  1  0  0  0  0  0  0
  190.2910  177.6320  139.6670 C   0  0  0  0  0  2  0  0  0  0  0  0
  190.0700  176.6200  138.6160 N   0  0  0  0  0  0  0  0  0  0  0  0
  193.1020  175.7800  136.4480 C   0  0  0  0  0  1  0  0  0  0  0  0
  191.1110  176.7160  137.6790 N   0  0  0  0  0  2  0  0  0  0  0  0
  191.8200  174.5150  138.0000 O   0  0  0  0  0  0  0  0  0  0  0  0
  191.9870  175.6190  137.4160 C   0  0  0  0  0  0  0  0  0  0  0  0
  188.7980  176.8090  137.9230 C   0  0  0  0  0  2  0  0  0  0  0  0
  188.9740  177.8110  136.8020 C   0  0  0  0  0  2  0  0  0  0  0  0
  187.7740  178.7350  136.7640 C   0  0  0  0  0  2  0  0  0  0  0  0
  186.6430  178.1220  137.5660 C   0  0  0  0  0  1  0  0  0  0  0  0
  191.5400  176.3220  145.1620 C   0  0  0  0  0  2  0  0  0  0  0  0
  191.7590  176.8070  146.5170 N   0  0  0  0  0  2  0  0  0  0  0  0
  193.0200  175.9610  148.1240 O   0  0  0  0  0  1  0  0  0  0  0  0
  191.9460  175.6900  147.3430 N   0  0  0  0  0  2  0  0  0  0  0  0
  1  3  1  0  0  0  0
  2  1  1  0  0  0  0
  2  6  1  0  0  0  0
  3  4  1  0  0  0  0
  3  7  1  1  0  0  0
  4 29  1  6  0  0  0
  6  5  1  0  0  0  0
  6  4  1  0  0  0  0
  7  8  1  0  0  0  0
  8 13  2  0  0  0  0
  9 15  1  0  0  0  0
 10 14  1  0  0  0  0
 10  7  2  0  0  0  0
 12 11  1  0  0  0  0
 12 13  1  0  0  0  0
 14 12  2  0  0  0  0
 15 11  2  0  0  0  0
 16  9  2  0  0  0  0
 16 14  1  0  0  0  0
 17 18  1  1  0  0  0
 17  2  1  0  0  0  0
 19 17  1  0  0  0  0
 20 19  1  0  0  0  0
 21 24  1  0  0  0  0
 22 20  1  0  0  0  0
 24 22  1  0  0  0  0
 24 23  2  0  0  0  0
 25 20  1  0  0  0  0
 26 25  1  0  0  0  0
 27 26  1  0  0  0  0
 27 28  1  0  0  0  0
 29 30  1  0  0  0  0
 30 32  1  0  0  0  0
 32 31  1  0  0  0  0
M  END
>  <MODEL>
1

>  <REMARK>
 VINA RESULT:      -8.3      0.000      0.000
  Name = 
  11 active torsions:
  status: ('A' for Active; 'I' for Inactive)
    1  A    between atoms: C_2  and  C_5
    2  A    between atoms: C_3  and  C_8
    3  A    between atoms: C_3  and  N_20
    4  A    between atoms: N_4  and  C_24
    5  A    between atoms: C_8  and  C_22
    6  A    between atoms: N_13  and  C_18
    7  A    between atoms: N_13  and  N_29
    8  A    between atoms: C_14  and  C_18
    9  A    between atoms: N_15  and  N_20
   10  A    between atoms: C_16  and  N_20
   11  A    between atoms: C_16  and  C_24
                            x       y       z     vdW  Elec       q    Type
                         _______ _______ _______ _____ _____    ______ ____

>  <TORSDO>
F 11

$$$$
=
 OpenBabel11052414443D

 32 34  0  0  1  0  0  0  0  0999 V2000
  188.9370  176.4190  143.5290 N   0  0  0  0  0  2  0  0  0  0  0  0
  189.9010  177.3580  143.0990 N   0  0  0  0  0  0  0  0  0  0  0  0
  188.5570  176.7740  144.8820 C   0  0  1  0  0  3  0  0  0  0  0  0
  189.5800  177.7580  145.3490 C   0  0  2  0  0  3  0  0  0  0  0  0
  190.5800  179.3600  144.0080 C   0  0  0  0  0  1  0  0  0  0  0  0
  190.5050  177.9260  144.2460 N   0  0  0  0  0  0  0  0  0  0  0  0
  187.1960  177.3900  144.9010 C   0  0  0  0  0  0  0  0  0  0  0  0
  186.6700  177.8480  146.1160 C   0  0  0  0  0  3  0  0  0  0  0  0
  183.2760  178.8430  142.5440 C   0  0  0  0  0  3  0  0  0  0  0  0
  186.4800  177.5350  143.7450 N   0  0  0  0  0  0  0  0  0  0  0  0
  183.4200  179.1700  144.9430 C   0  0  0  0  0  3  0  0  0  0  0  0
  184.6860  178.5800  144.9480 C   0  0  0  0  0  0  0  0  0  0  0  0
  185.4070  178.4440  146.1370 C   0  0  0  0  0  3  0  0  0  0  0  0
  185.2500  178.1130  143.7400 C   0  0  0  0  0  0  0  0  0  0  0  0
  182.7160  179.3010  143.7410 C   0  0  0  0  0  3  0  0  0  0  0  0
  184.5430  178.2510  142.5420 C   0  0  0  0  0  3  0  0  0  0  0  0
  190.9130  176.6040  142.3420 C   0  0  2  0  0  3  0  0  0  0  0  0
  191.9730  175.9560  143.2300 C   0  0  0  0  0  1  0  0  0  0  0  0
  191.5420  177.4680  141.2190 C   0  0  0  0  0  2  0  0  0  0  0  0
  190.8820  177.4420  139.9000 N   0  0  0  0  0  0  0  0  0  0  0  0
  187.1580  178.2830  139.7290 C   0  0  0  0  0  1  0  0  0  0  0  0
  189.4920  177.4040  140.0980 N   0  0  0  0  0  2  0  0  0  0  0  0
  189.0750  179.1960  138.6590 O   0  0  0  0  0  0  0  0  0  0  0  0
  188.6180  178.3330  139.4560 C   0  0  0  0  0  0  0  0  0  0  0  0
  191.2730  176.2800  139.1070 C   0  0  0  0  0  2  0  0  0  0  0  0
  192.5750  176.5690  138.3900 C   0  0  0  0  0  2  0  0  0  0  0  0
  192.5000  176.0260  136.9770 C   0  0  0  0  0  2  0  0  0  0  0  0
  192.6250  174.5150  137.0140 C   0  0  0  0  0  1  0  0  0  0  0  0
  190.3160  177.2230  146.5720 C   0  0  0  0  0  2  0  0  0  0  0  0
  191.7290  177.0370  146.2720 N   0  0  0  0  0  2  0  0  0  0  0  0
  192.5830  176.2980  148.1730 O   0  0  0  0  0  1  0  0  0  0  0  0
  192.1600  175.8890  146.9520 N   0  0  0  0  0  2  0  0  0  0  0  0
  1  3  1  0  0  0  0
  2  1  1  0  0  0  0
  2  6  1  0  0  0  0
  3  7  1  6  0  0  0
  3  4  1  0  0  0  0
  4 29  1  1  0  0  0
  5  6  1  0  0  0  0
  6  4  1  0  0  0  0
  7  8  1  0  0  0  0
  8 13  2  0  0  0  0
  9 15  1  0  0  0  0
 10  7  2  0  0  0  0
 11 12  1  0  0  0  0
 12 13  1  0  0  0  0
 14 10  1  0  0  0  0
 14 12  2  0  0  0  0
 15 11  2  0  0  0  0
 16  9  2  0  0  0  0
 16 14  1  0  0  0  0
 17  2  1  0  0  0  0
 17 18  1  1  0  0  0
 19 17  1  0  0  0  0
 20 22  1  0  0  0  0
 20 19  1  0  0  0  0
 23 24  2  0  0  0  0
 24 21  1  0  0  0  0
 24 22  1  0  0  0  0
 25 20  1  0  0  0  0
 26 25  1  0  0  0  0
 27 28  1  0  0  0  0
 27 26  1  0  0  0  0
 30 29  1  0  0  0  0
 30 32  1  0  0  0  0
 32 31  1  0  0  0  0
M  END
>  <MODEL>
2

>  <REMARK>
 VINA RESULT:      -8.1      1.666      2.887
  Name = 
  11 active torsions:
  status: ('A' for Active; 'I' for Inactive)
    1  A    between atoms: C_2  and  C_5
    2  A    between atoms: C_3  and  C_8
    3  A    between atoms: C_3  and  N_20
    4  A    between atoms: N_4  and  C_24
    5  A    between atoms: C_8  and  C_22
    6  A    between atoms: N_13  and  C_18
    7  A    between atoms: N_13  and  N_29
    8  A    between atoms: C_14  and  C_18
    9  A    between atoms: N_15  and  N_20
   10  A    between atoms: C_16  and  N_20
   11  A    between atoms: C_16  and  C_24
                            x       y       z     vdW  Elec       q    Type
                         _______ _______ _______ _____ _____    ______ ____

>  <TORSDO>
F 11

$$$$
=
 OpenBabel11052414443D

 32 34  0  0  1  0  0  0  0  0999 V2000
  189.2140  176.6470  142.2070 N   0  0  0  0  0  2  0  0  0  0  0  0
  190.1250  177.6770  141.8830 N   0  0  0  0  0  0  0  0  0  0  0  0
  189.2560  176.4640  143.6440 C   0  0  1  0  0  3  0  0  0  0  0  0
  190.4720  177.1940  144.1130 C   0  0  2  0  0  3  0  0  0  0  0  0
  191.2480  179.1830  143.2120 C   0  0  0  0  0  1  0  0  0  0  0  0
  191.0780  177.7660  142.9260 N   0  0  0  0  0  0  0  0  0  0  0  0
  188.0300  177.0300  144.2830 C   0  0  0  0  0  0  0  0  0  0  0  0
  188.0100  177.2240  145.6700 C   0  0  0  0  0  3  0  0  0  0  0  0
  183.6000  178.8270  143.8690 C   0  0  0  0  0  3  0  0  0  0  0  0
  186.9500  177.3850  143.5250 N   0  0  0  0  0  0  0  0  0  0  0  0
  184.6290  178.6730  146.0600 C   0  0  0  0  0  3  0  0  0  0  0  0
  185.7770  178.1240  145.4830 C   0  0  0  0  0  0  0  0  0  0  0  0
  186.8750  177.7720  146.2710 C   0  0  0  0  0  3  0  0  0  0  0  0
  185.8350  177.9210  144.0860 C   0  0  0  0  0  0  0  0  0  0  0  0
  183.5410  179.0230  145.2530 C   0  0  0  0  0  3  0  0  0  0  0  0
  184.7450  178.2770  143.2850 C   0  0  0  0  0  3  0  0  0  0  0  0
  190.8030  177.2630  140.6430 C   0  0  2  0  0  3  0  0  0  0  0  0
  192.3250  177.3350  140.7350 C   0  0  0  0  0  1  0  0  0  0  0  0
  190.2550  178.0330  139.4140 C   0  0  0  0  0  2  0  0  0  0  0  0
  189.6740  177.2290  138.3210 N   0  0  0  0  0  0  0  0  0  0  0  0
  185.9460  178.0460  138.1320 C   0  0  0  0  0  1  0  0  0  0  0  0
  188.2820  177.1740  138.5010 N   0  0  0  0  0  2  0  0  0  0  0  0
  187.8680  179.0090  137.1170 O   0  0  0  0  0  0  0  0  0  0  0  0
  187.4080  178.1170  137.8790 C   0  0  0  0  0  0  0  0  0  0  0  0
  190.1970  175.8660  138.2970 C   0  0  0  0  0  2  0  0  0  0  0  0
  189.7380  175.1680  137.0340 C   0  0  0  0  0  2  0  0  0  0  0  0
  190.1080  173.7010  137.1090 C   0  0  0  0  0  2  0  0  0  0  0  0
  191.4260  173.4800  136.3920 C   0  0  0  0  0  1  0  0  0  0  0  0
  191.4460  176.2340  144.7850 C   0  0  0  0  0  2  0  0  0  0  0  0
  191.8070  176.7210  146.1090 N   0  0  0  0  0  2  0  0  0  0  0  0
  192.7620  176.1060  148.0060 O   0  0  0  0  0  1  0  0  0  0  0  0
  192.1950  175.6150  146.8780 N   0  0  0  0  0  2  0  0  0  0  0  0
  1  3  1  0  0  0  0
  2  1  1  0  0  0  0
  2  6  1  0  0  0  0
  3  4  1  0  0  0  0
  3  7  1  1  0  0  0
  4 29  1  6  0  0  0
  6  5  1  0  0  0  0
  6  4  1  0  0  0  0
  7  8  1  0  0  0  0
  8 13  2  0  0  0  0
  9 15  1  0  0  0  0
 10 14  1  0  0  0  0
 10  7  2  0  0  0  0
 12 11  1  0  0  0  0
 12 13  1  0  0  0  0
 14 12  2  0  0  0  0
 15 11  2  0  0  0  0
 16  9  2  0  0  0  0
 16 14  1  0  0  0  0
 17 18  1  1  0  0  0
 17  2  1  0  0  0  0
 19 17  1  0  0  0  0
 20 22  1  0  0  0  0
 20 19  1  0  0  0  0
 23 24  2  0  0  0  0
 24 21  1  0  0  0  0
 24 22  1  0  0  0  0
 25 20  1  0  0  0  0
 26 27  1  0  0  0  0
 26 25  1  0  0  0  0
 28 27  1  0  0  0  0
 29 30  1  0  0  0  0
 30 32  1  0  0  0  0
 32 31  1  0  0  0  0
M  END
>  <MODEL>
3

>  <REMARK>
 VINA RESULT:      -7.9      1.425      2.635
  Name = 
  11 active torsions:
  status: ('A' for Active; 'I' for Inactive)
    1  A    between atoms: C_2  and  C_5
    2  A    between atoms: C_3  and  C_8
    3  A    between atoms: C_3  and  N_20
    4  A    between atoms: N_4  and  C_24
    5  A    between atoms: C_8  and  C_22
    6  A    between atoms: N_13  and  C_18
    7  A    between atoms: N_13  and  N_29
    8  A    between atoms: C_14  and  C_18
    9  A    between atoms: N_15  and  N_20
   10  A    between atoms: C_16  and  N_20
   11  A    between atoms: C_16  and  C_24
                            x       y       z     vdW  Elec       q    Type
                         _______ _______ _______ _____ _____    ______ ____

>  <TORSDO>
F 11

$$$$
=
 OpenBabel11052414443D

 32 34  0  0  1  0  0  0  0  0999 V2000
  188.6980  179.1030  142.6380 N   0  0  0  0  0  2  0  0  0  0  0  0
  189.1980  177.9880  143.3450 N   0  0  0  0  0  0  0  0  0  0  0  0
  188.2200  178.6260  141.3560 C   0  0  1  0  0  3  0  0  0  0  0  0
  188.7650  177.2430  141.2050 C   0  0  2  0  0  3  0  0  0  0  0  0
  189.0240  175.7290  142.9400 C   0  0  0  0  0  1  0  0  0  0  0  0
  189.5340  176.9840  142.4060 N   0  0  0  0  0  0  0  0  0  0  0  0
  186.7260  178.6020  141.3270 C   0  0  0  0  0  0  0  0  0  0  0  0
  186.0260  178.2760  142.4960 C   0  0  0  0  0  3  0  0  0  0  0  0
  182.6200  179.2610  138.9330 C   0  0  0  0  0  3  0  0  0  0  0  0
  186.0450  178.9220  140.1870 N   0  0  0  0  0  0  0  0  0  0  0  0
  182.5520  178.5970  141.2660 C   0  0  0  0  0  3  0  0  0  0  0  0
  183.9490  178.5960  141.3070 C   0  0  0  0  0  0  0  0  0  0  0  0
  184.6290  178.2720  142.4820 C   0  0  0  0  0  3  0  0  0  0  0  0
  184.6870  178.9260  140.1480 C   0  0  0  0  0  0  0  0  0  0  0  0
  181.8890  178.9290  140.0790 C   0  0  0  0  0  3  0  0  0  0  0  0
  184.0180  179.2610  138.9670 C   0  0  0  0  0  3  0  0  0  0  0  0
  190.4220  178.4390  144.0290 C   0  0  2  0  0  3  0  0  0  0  0  0
  191.6900  177.7740  143.4990 C   0  0  0  0  0  1  0  0  0  0  0  0
  190.2930  178.3060  145.5680 C   0  0  0  0  0  2  0  0  0  0  0  0
  189.2590  177.3860  146.0800 N   0  0  0  0  0  0  0  0  0  0  0  0
  185.7570  178.7760  146.7110 C   0  0  0  0  0  1  0  0  0  0  0  0
  188.1950  178.1490  146.5870 N   0  0  0  0  0  2  0  0  0  0  0  0
  186.5720  176.9850  145.3770 O   0  0  0  0  0  0  0  0  0  0  0  0
  186.8450  177.9150  146.1810 C   0  0  0  0  0  0  0  0  0  0  0  0
  189.7640  176.5230  147.1450 C   0  0  0  0  0  2  0  0  0  0  0  0
  191.1750  176.9350  147.5070 C   0  0  0  0  0  2  0  0  0  0  0  0
  192.0580  175.7050  147.5650 C   0  0  0  0  0  2  0  0  0  0  0  0
  192.2760  175.1790  146.1600 C   0  0  0  0  0  1  0  0  0  0  0  0
  189.6660  177.1540  139.9780 C   0  0  0  0  0  2  0  0  0  0  0  0
  188.8700  177.2140  138.7600 N   0  0  0  0  0  2  0  0  0  0  0  0
  188.9540  179.2970  138.0230 O   0  0  0  0  0  1  0  0  0  0  0  0
  189.5230  178.0770  137.8690 N   0  0  0  0  0  2  0  0  0  0  0  0
  1  2  1  0  0  0  0
  2 17  1  0  0  0  0
  3  7  1  1  0  0  0
  3  1  1  0  0  0  0
  4 29  1  6  0  0  0
  4  3  1  0  0  0  0
  4  6  1  0  0  0  0
  6  5  1  0  0  0  0
  6  2  1  0  0  0  0
  7  8  1  0  0  0  0
  9 16  2  0  0  0  0
  9 15  1  0  0  0  0
 10  7  2  0  0  0  0
 11 12  1  0  0  0  0
 12 13  1  0  0  0  0
 13  8  2  0  0  0  0
 14 10  1  0  0  0  0
 14 12  2  0  0  0  0
 15 11  2  0  0  0  0
 16 14  1  0  0  0  0
 17 18  1  6  0  0  0
 17 19  1  0  0  0  0
 19 20  1  0  0  0  0
 20 22  1  0  0  0  0
 20 25  1  0  0  0  0
 23 24  2  0  0  0  0
 24 22  1  0  0  0  0
 24 21  1  0  0  0  0
 25 26  1  0  0  0  0
 26 27  1  0  0  0  0
 28 27  1  0  0  0  0
 30 29  1  0  0  0  0
 32 31  1  0  0  0  0
 32 30  1  0  0  0  0
M  END
>  <MODEL>
4

>  <REMARK>
 VINA RESULT:      -7.7      2.812      7.146
  Name = 
  11 active torsions:
  status: ('A' for Active; 'I' for Inactive)
    1  A    between atoms: C_2  and  C_5
    2  A    between atoms: C_3  and  C_8
    3  A    between atoms: C_3  and  N_20
    4  A    between atoms: N_4  and  C_24
    5  A    between atoms: C_8  and  C_22
    6  A    between atoms: N_13  and  C_18
    7  A    between atoms: N_13  and  N_29
    8  A    between atoms: C_14  and  C_18
    9  A    between atoms: N_15  and  N_20
   10  A    between atoms: C_16  and  N_20
   11  A    between atoms: C_16  and  C_24
                            x       y       z     vdW  Elec       q    Type
                         _______ _______ _______ _____ _____    ______ ____

>  <TORSDO>
F 11

$$$$
=
 OpenBabel11052414443D

 32 34  0  0  1  0  0  0  0  0999 V2000
  189.8870  176.2320  141.7300 N   0  0  0  0  0  2  0  0  0  0  0  0
  190.9520  177.1340  141.5090 N   0  0  0  0  0  0  0  0  0  0  0  0
  189.8260  175.9720  143.1550 C   0  0  1  0  0  3  0  0  0  0  0  0
  191.1070  176.4940  143.7200 C   0  0  2  0  0  3  0  0  0  0  0  0
  192.2040  178.3920  142.9730 C   0  0  0  0  0  1  0  0  0  0  0  0
  191.8500  177.0310  142.5980 N   0  0  0  0  0  0  0  0  0  0  0  0
  188.6610  176.6770  143.7690 C   0  0  0  0  0  0  0  0  0  0  0  0
  187.5630  177.0110  142.9640 C   0  0  0  0  0  3  0  0  0  0  0  0
  186.5080  178.5170  147.6420 C   0  0  0  0  0  3  0  0  0  0  0  0
  188.6470  176.9690  145.1030 N   0  0  0  0  0  0  0  0  0  0  0  0
  185.3780  178.5910  145.4970 C   0  0  0  0  0  3  0  0  0  0  0  0
  186.4660  177.9480  144.9010 C   0  0  0  0  0  0  0  0  0  0  0  0
  186.4620  177.6520  143.5360 C   0  0  0  0  0  3  0  0  0  0  0  0
  187.5870  177.5910  145.6830 C   0  0  0  0  0  0  0  0  0  0  0  0
  185.4000  178.8750  146.8670 C   0  0  0  0  0  3  0  0  0  0  0  0
  187.6010  177.8750  147.0520 C   0  0  0  0  0  3  0  0  0  0  0  0
  191.6290  176.6900  140.2790 C   0  0  2  0  0  3  0  0  0  0  0  0
  192.5710  177.7410  139.6960 C   0  0  0  0  0  1  0  0  0  0  0  0
  190.6140  176.1680  139.2300 C   0  0  0  0  0  2  0  0  0  0  0  0
  190.4160  176.9890  138.0200 N   0  0  0  0  0  0  0  0  0  0  0  0
  186.7730  178.1320  138.1520 C   0  0  0  0  0  1  0  0  0  0  0  0
  189.0380  177.0930  137.7720 N   0  0  0  0  0  2  0  0  0  0  0  0
  188.7580  178.9270  139.1910 O   0  0  0  0  0  0  0  0  0  0  0  0
  188.2350  178.0870  138.4110 C   0  0  0  0  0  0  0  0  0  0  0  0
  191.0590  176.4070  136.8440 C   0  0  0  0  0  2  0  0  0  0  0  0
  191.3770  174.9510  137.1080 C   0  0  0  0  0  2  0  0  0  0  0  0
  192.7420  174.6240  136.5350 C   0  0  0  0  0  2  0  0  0  0  0  0
  193.6690  174.2040  137.6600 C   0  0  0  0  0  1  0  0  0  0  0  0
  191.8970  175.3690  144.3800 C   0  0  0  0  0  2  0  0  0  0  0  0
  191.9440  175.5610  145.8230 N   0  0  0  0  0  2  0  0  0  0  0  0
  191.5780  177.0710  147.3960 O   0  0  0  0  0  1  0  0  0  0  0  0
  191.8300  176.9360  146.0720 N   0  0  0  0  0  2  0  0  0  0  0  0
  1  3  1  0  0  0  0
  2  1  1  0  0  0  0
  2  6  1  0  0  0  0
  3  4  1  0  0  0  0
  3  7  1  1  0  0  0
  4 29  1  6  0  0  0
  6  5  1  0  0  0  0
  6  4  1  0  0  0  0
  7 10  1  0  0  0  0
  8 13  1  0  0  0  0
  8  7  2  0  0  0  0
 10 14  2  0  0  0  0
 11 15  2  0  0  0  0
 12 11  1  0  0  0  0
 12 14  1  0  0  0  0
 13 12  2  0  0  0  0
 14 16  1  0  0  0  0
 15  9  1  0  0  0  0
 16  9  2  0  0  0  0
 17 18  1  6  0  0  0
 17  2  1  0  0  0  0
 19 17  1  0  0  0  0
 20 19  1  0  0  0  0
 21 24  1  0  0  0  0
 22 20  1  0  0  0  0
 22 24  1  0  0  0  0
 24 23  2  0  0  0  0
 25 26  1  0  0  0  0
 25 20  1  0  0  0  0
 27 26  1  0  0  0  0
 27 28  1  0  0  0  0
 29 30  1  0  0  0  0
 30 32  1  0  0  0  0
 32 31  1  0  0  0  0
M  END
>  <MODEL>
5

>  <REMARK>
 VINA RESULT:      -7.2      1.619      3.231
  Name = 
  11 active torsions:
  status: ('A' for Active; 'I' for Inactive)
    1  A    between atoms: C_2  and  C_5
    2  A    between atoms: C_3  and  C_8
    3  A    between atoms: C_3  and  N_20
    4  A    between atoms: N_4  and  C_24
    5  A    between atoms: C_8  and  C_22
    6  A    between atoms: N_13  and  C_18
    7  A    between atoms: N_13  and  N_29
    8  A    between atoms: C_14  and  C_18
    9  A    between atoms: N_15  and  N_20
   10  A    between atoms: C_16  and  N_20
   11  A    between atoms: C_16  and  C_24
                            x       y       z     vdW  Elec       q    Type
                         _______ _______ _______ _____ _____    ______ ____

>  <TORSDO>
F 11

$$$$
=
 OpenBabel11052414443D

 32 34  0  0  1  0  0  0  0  0999 V2000
  184.2480  178.9850  139.6900 N   0  0  0  0  0  2  0  0  0  0  0  0
  183.8070  177.8070  139.0490 N   0  0  0  0  0  0  0  0  0  0  0  0
  183.4870  179.1260  140.9150 C   0  0  1  0  0  3  0  0  0  0  0  0
  182.3480  178.1650  140.8000 C   0  0  2  0  0  3  0  0  0  0  0  0
  182.4740  176.0840  139.7900 C   0  0  0  0  0  1  0  0  0  0  0  0
  182.5040  177.5130  139.5150 N   0  0  0  0  0  0  0  0  0  0  0  0
  184.3320  178.7930  142.1010 C   0  0  0  0  0  0  0  0  0  0  0  0
  183.7940  178.9430  143.3860 C   0  0  0  0  0  3  0  0  0  0  0  0
  188.4700  177.1740  143.9130 C   0  0  0  0  0  3  0  0  0  0  0  0
  185.6030  178.3200  141.9400 N   0  0  0  0  0  0  0  0  0  0  0  0
  186.6710  177.8020  145.4140 C   0  0  0  0  0  3  0  0  0  0  0  0
  185.8720  178.1360  144.3170 C   0  0  0  0  0  0  0  0  0  0  0  0
  184.5720  178.6140  144.4990 C   0  0  0  0  0  3  0  0  0  0  0  0
  186.3790  177.9920  143.0070 C   0  0  0  0  0  0  0  0  0  0  0  0
  187.9690  177.3220  145.2110 C   0  0  0  0  0  3  0  0  0  0  0  0
  187.6760  177.5070  142.8110 C   0  0  0  0  0  3  0  0  0  0  0  0
  183.7500  178.1080  137.6090 C   0  0  2  0  0  3  0  0  0  0  0  0
  182.3250  178.2470  137.0780 C   0  0  0  0  0  1  0  0  0  0  0  0
  184.5840  177.0960  136.7840 C   0  0  0  0  0  2  0  0  0  0  0  0
  185.8210  176.5800  137.4030 N   0  0  0  0  0  0  0  0  0  0  0  0
  188.8120  178.9330  137.0650 C   0  0  0  0  0  1  0  0  0  0  0  0
  186.9120  177.2860  136.8740 N   0  0  0  0  0  2  0  0  0  0  0  0
  187.4380  178.3150  138.9040 O   0  0  0  0  0  0  0  0  0  0  0  0
  187.6920  178.1730  137.6780 C   0  0  0  0  0  0  0  0  0  0  0  0
  186.0170  175.1560  137.1460 C   0  0  0  0  0  2  0  0  0  0  0  0
  184.6960  174.4280  137.2830 C   0  0  0  0  0  2  0  0  0  0  0  0
  184.9540  172.9990  137.7140 C   0  0  0  0  0  2  0  0  0  0  0  0
  184.6080  172.0620  136.5730 C   0  0  0  0  0  1  0  0  0  0  0  0
  181.0170  178.9050  140.8540 C   0  0  0  0  0  2  0  0  0  0  0  0
  180.4460  178.8260  142.1920 N   0  0  0  0  0  2  0  0  0  0  0  0
  179.7940  180.9040  141.8080 O   0  0  0  0  0  1  0  0  0  0  0  0
  180.4240  180.1240  142.7200 N   0  0  0  0  0  2  0  0  0  0  0  0
  1  3  1  0  0  0  0
  2  6  1  0  0  0  0
  2  1  1  0  0  0  0
  3  7  1  1  0  0  0
  4 29  1  6  0  0  0
  4  3  1  0  0  0  0
  6  5  1  0  0  0  0
  6  4  1  0  0  0  0
  7  8  1  0  0  0  0
  8 13  2  0  0  0  0
  9 15  1  0  0  0  0
 10  7  2  0  0  0  0
 10 14  1  0  0  0  0
 12 13  1  0  0  0  0
 12 11  1  0  0  0  0
 14 12  2  0  0  0  0
 15 11  2  0  0  0  0
 16 14  1  0  0  0  0
 16  9  2  0  0  0  0
 17 18  1  6  0  0  0
 17  2  1  0  0  0  0
 19 20  1  0  0  0  0
 19 17  1  0  0  0  0
 21 24  1  0  0  0  0
 22 20  1  0  0  0  0
 22 24  1  0  0  0  0
 24 23  2  0  0  0  0
 25 26  1  0  0  0  0
 25 20  1  0  0  0  0
 26 27  1  0  0  0  0
 28 27  1  0  0  0  0
 29 30  1  0  0  0  0
 30 32  1  0  0  0  0
 31 32  1  0  0  0  0
M  END
>  <MODEL>
6

>  <REMARK>
 VINA RESULT:      -7.1      4.602      7.337
  Name = 
  11 active torsions:
  status: ('A' for Active; 'I' for Inactive)
    1  A    between atoms: C_2  and  C_5
    2  A    between atoms: C_3  and  C_8
    3  A    between atoms: C_3  and  N_20
    4  A    between atoms: N_4  and  C_24
    5  A    between atoms: C_8  and  C_22
    6  A    between atoms: N_13  and  C_18
    7  A    between atoms: N_13  and  N_29
    8  A    between atoms: C_14  and  C_18
    9  A    between atoms: N_15  and  N_20
   10  A    between atoms: C_16  and  N_20
   11  A    between atoms: C_16  and  C_24
                            x       y       z     vdW  Elec       q    Type
                         _______ _______ _______ _____ _____    ______ ____

>  <TORSDO>
F 11

$$$$
=
 OpenBabel11052414443D

 32 34  0  0  1  0  0  0  0  0999 V2000
  188.8160  178.9930  142.8640 N   0  0  0  0  0  2  0  0  0  0  0  0
  189.3210  177.8130  143.4520 N   0  0  0  0  0  0  0  0  0  0  0  0
  188.3230  178.6460  141.5460 C   0  0  1  0  0  3  0  0  0  0  0  0
  188.8630  177.2840  141.2530 C   0  0  2  0  0  3  0  0  0  0  0  0
  189.1370  175.6060  142.8260 C   0  0  0  0  0  1  0  0  0  0  0  0
  189.6440  176.9060  142.4150 N   0  0  0  0  0  0  0  0  0  0  0  0
  186.8290  178.6270  141.5320 C   0  0  0  0  0  0  0  0  0  0  0  0
  186.1390  178.2590  142.6950 C   0  0  0  0  0  3  0  0  0  0  0  0
  182.7010  179.3870  139.2060 C   0  0  0  0  0  3  0  0  0  0  0  0
  186.1380  178.9920  140.4110 N   0  0  0  0  0  0  0  0  0  0  0  0
  182.6540  178.6360  141.5120 C   0  0  0  0  0  3  0  0  0  0  0  0
  184.0510  178.6300  141.5390 C   0  0  0  0  0  0  0  0  0  0  0  0
  184.7420  178.2590  142.6940 C   0  0  0  0  0  3  0  0  0  0  0  0
  184.7790  179.0010  140.3860 C   0  0  0  0  0  0  0  0  0  0  0  0
  181.9800  179.0140  140.3450 C   0  0  0  0  0  3  0  0  0  0  0  0
  184.0990  179.3820  139.2250 C   0  0  0  0  0  3  0  0  0  0  0  0
  190.5530  178.1920  144.1640 C   0  0  2  0  0  3  0  0  0  0  0  0
  191.7510  178.3830  143.2370 C   0  0  0  0  0  1  0  0  0  0  0  0
  190.8620  177.2120  145.3240 C   0  0  0  0  0  2  0  0  0  0  0  0
  190.2310  177.4920  146.6280 N   0  0  0  0  0  0  0  0  0  0  0  0
  192.9060  175.5790  148.5730 C   0  0  0  0  0  1  0  0  0  0  0  0
  191.1090  177.0840  147.6450 N   0  0  0  0  0  2  0  0  0  0  0  0
  192.0940  175.4120  146.3450 O   0  0  0  0  0  0  0  0  0  0  0  0
  192.0260  176.0050  147.4540 C   0  0  0  0  0  0  0  0  0  0  0  0
  188.9640  176.7850  146.7940 C   0  0  0  0  0  2  0  0  0  0  0  0
  187.9300  177.7260  147.3760 C   0  0  0  0  0  2  0  0  0  0  0  0
  187.0160  178.2140  146.2710 C   0  0  0  0  0  2  0  0  0  0  0  0
  185.6750  178.5990  146.8640 C   0  0  0  0  0  1  0  0  0  0  0  0
  189.7500  177.3160  140.0140 C   0  0  0  0  0  2  0  0  0  0  0  0
  188.9590  177.0650  138.8170 N   0  0  0  0  0  2  0  0  0  0  0  0
  188.4520  178.9970  137.8690 O   0  0  0  0  0  1  0  0  0  0  0  0
  189.3580  177.9900  137.8430 N   0  0  0  0  0  2  0  0  0  0  0  0
  1  2  1  0  0  0  0
  2 17  1  0  0  0  0
  3  7  1  1  0  0  0
  3  1  1  0  0  0  0
  4 29  1  6  0  0  0
  4  3  1  0  0  0  0
  4  6  1  0  0  0  0
  6  5  1  0  0  0  0
  6  2  1  0  0  0  0
  7  8  1  0  0  0  0
  9 16  2  0  0  0  0
  9 15  1  0  0  0  0
 10  7  2  0  0  0  0
 11 12  1  0  0  0  0
 12 13  1  0  0  0  0
 13  8  2  0  0  0  0
 14 10  1  0  0  0  0
 14 12  2  0  0  0  0
 15 11  2  0  0  0  0
 16 14  1  0  0  0  0
 17 18  1  6  0  0  0
 17 19  1  0  0  0  0
 19 20  1  0  0  0  0
 20 25  1  0  0  0  0
 20 22  1  0  0  0  0
 23 24  2  0  0  0  0
 24 22  1  0  0  0  0
 24 21  1  0  0  0  0
 25 26  1  0  0  0  0
 27 28  1  0  0  0  0
 27 26  1  0  0  0  0
 30 29  1  0  0  0  0
 32 31  1  0  0  0  0
 32 30  1  0  0  0  0
M  END
>  <MODEL>
7

>  <REMARK>
 VINA RESULT:      -7.0      2.417      6.820
  Name = 
  11 active torsions:
  status: ('A' for Active; 'I' for Inactive)
    1  A    between atoms: C_2  and  C_5
    2  A    between atoms: C_3  and  C_8
    3  A    between atoms: C_3  and  N_20
    4  A    between atoms: N_4  and  C_24
    5  A    between atoms: C_8  and  C_22
    6  A    between atoms: N_13  and  C_18
    7  A    between atoms: N_13  and  N_29
    8  A    between atoms: C_14  and  C_18
    9  A    between atoms: N_15  and  N_20
   10  A    between atoms: C_16  and  N_20
   11  A    between atoms: C_16  and  C_24
                            x       y       z     vdW  Elec       q    Type
                         _______ _______ _______ _____ _____    ______ ____

>  <TORSDO>
F 11

$$$$
=
 OpenBabel11052414443D

 32 34  0  0  1  0  0  0  0  0999 V2000
  189.0280  176.3520  141.8290 N   0  0  0  0  0  2  0  0  0  0  0  0
  190.0890  177.1860  141.4130 N   0  0  0  0  0  0  0  0  0  0  0  0
  189.2610  176.0130  143.2180 C   0  0  1  0  0  3  0  0  0  0  0  0
  190.6740  176.4070  143.5040 C   0  0  2  0  0  3  0  0  0  0  0  0
  191.7340  178.2620  142.6100 C   0  0  0  0  0  1  0  0  0  0  0  0
  191.1930  176.9550  142.2670 N   0  0  0  0  0  0  0  0  0  0  0  0
  188.3220  176.7620  144.1070 C   0  0  0  0  0  0  0  0  0  0  0  0
  187.0780  177.1630  143.6030 C   0  0  0  0  0  3  0  0  0  0  0  0
  187.2940  178.6320  148.4050 C   0  0  0  0  0  3  0  0  0  0  0  0
  188.6550  177.0300  145.4050 N   0  0  0  0  0  0  0  0  0  0  0  0
  185.6730  178.8000  146.6080 C   0  0  0  0  0  3  0  0  0  0  0  0
  186.5450  178.1160  145.7570 C   0  0  0  0  0  0  0  0  0  0  0  0
  186.1870  177.8460  144.4340 C   0  0  0  0  0  3  0  0  0  0  0  0
  187.8050  177.6910  146.2340 C   0  0  0  0  0  0  0  0  0  0  0  0
  186.0480  179.0570  147.9310 C   0  0  0  0  0  3  0  0  0  0  0  0
  188.1720  177.9480  147.5580 C   0  0  0  0  0  3  0  0  0  0  0  0
  190.4400  176.7690  140.0450 C   0  0  2  0  0  3  0  0  0  0  0  0
  191.6920  177.4570  139.5060 C   0  0  0  0  0  1  0  0  0  0  0  0
  189.2340  176.9130  139.0820 C   0  0  0  0  0  2  0  0  0  0  0  0
  188.7270  178.2770  138.8370 N   0  0  0  0  0  0  0  0  0  0  0  0
  185.2310  178.6290  140.3370 C   0  0  0  0  0  1  0  0  0  0  0  0
  187.3310  178.2670  138.9920 N   0  0  0  0  0  2  0  0  0  0  0  0
  187.4030  179.1360  141.1590 O   0  0  0  0  0  0  0  0  0  0  0  0
  186.7080  178.6980  140.2030 C   0  0  0  0  0  0  0  0  0  0  0  0
  189.0450  178.7540  137.4940 C   0  0  0  0  0  2  0  0  0  0  0  0
  189.3470  177.5750  136.5940 C   0  0  0  0  0  2  0  0  0  0  0  0
  188.6720  177.7820  135.2540 C   0  0  0  0  0  2  0  0  0  0  0  0
  187.1730  177.8840  135.4590 C   0  0  0  0  0  1  0  0  0  0  0  0
  191.4930  175.1910  143.9220 C   0  0  0  0  0  2  0  0  0  0  0  0
  192.0880  175.4080  145.2340 N   0  0  0  0  0  2  0  0  0  0  0  0
  192.0550  176.7390  146.9990 O   0  0  0  0  0  1  0  0  0  0  0  0
  191.5800  176.6140  145.7360 N   0  0  0  0  0  2  0  0  0  0  0  0
  1  3  1  0  0  0  0
  2  1  1  0  0  0  0
  2  6  1  0  0  0  0
  3  4  1  0  0  0  0
  3  7  1  1  0  0  0
  4 29  1  6  0  0  0
  6  5  1  0  0  0  0
  6  4  1  0  0  0  0
  7 10  1  0  0  0  0
  8  7  2  0  0  0  0
  8 13  1  0  0  0  0
 10 14  2  0  0  0  0
 11 15  2  0  0  0  0
 12 14  1  0  0  0  0
 12 11  1  0  0  0  0
 13 12  2  0  0  0  0
 14 16  1  0  0  0  0
 15  9  1  0  0  0  0
 16  9  2  0  0  0  0
 17 18  1  6  0  0  0
 17  2  1  0  0  0  0
 19 17  1  0  0  0  0
 20 22  1  0  0  0  0
 20 19  1  0  0  0  0
 22 24  1  0  0  0  0
 24 21  1  0  0  0  0
 24 23  2  0  0  0  0
 25 20  1  0  0  0  0
 26 25  1  0  0  0  0
 27 28  1  0  0  0  0
 27 26  1  0  0  0  0
 29 30  1  0  0  0  0
 30 32  1  0  0  0  0
 32 31  1  0  0  0  0
M  END
>  <MODEL>
8

>  <REMARK>
 VINA RESULT:      -6.9      2.112      3.278
  Name = 
  11 active torsions:
  status: ('A' for Active; 'I' for Inactive)
    1  A    between atoms: C_2  and  C_5
    2  A    between atoms: C_3  and  C_8
    3  A    between atoms: C_3  and  N_20
    4  A    between atoms: N_4  and  C_24
    5  A    between atoms: C_8  and  C_22
    6  A    between atoms: N_13  and  C_18
    7  A    between atoms: N_13  and  N_29
    8  A    between atoms: C_14  and  C_18
    9  A    between atoms: N_15  and  N_20
   10  A    between atoms: C_16  and  N_20
   11  A    between atoms: C_16  and  C_24
                            x       y       z     vdW  Elec       q    Type
                         _______ _______ _______ _____ _____    ______ ____

>  <TORSDO>
F 11

$$$$
=
 OpenBabel11052414443D

 32 34  0  0  1  0  0  0  0  0999 V2000
  189.1080  178.0870  141.4050 N   0  0  0  0  0  2  0  0  0  0  0  0
  189.2570  177.2420  142.5270 N   0  0  0  0  0  0  0  0  0  0  0  0
  190.1360  177.7270  140.4490 C   0  0  1  0  0  3  0  0  0  0  0  0
  191.1020  176.8640  141.1950 C   0  0  2  0  0  3  0  0  0  0  0  0
  190.5180  175.3420  142.8400 C   0  0  0  0  0  1  0  0  0  0  0  0
  190.5900  176.7660  142.5470 N   0  0  0  0  0  0  0  0  0  0  0  0
  189.5460  176.9740  139.3010 C   0  0  0  0  0  0  0  0  0  0  0  0
  188.3150  177.3860  138.7750 C   0  0  0  0  0  3  0  0  0  0  0  0
  189.8670  173.4540  136.0560 C   0  0  0  0  0  3  0  0  0  0  0  0
  190.2090  175.9150  138.7480 N   0  0  0  0  0  0  0  0  0  0  0  0
  187.9280  174.9120  136.0520 C   0  0  0  0  0  3  0  0  0  0  0  0
  188.4550  175.6160  137.1380 C   0  0  0  0  0  0  0  0  0  0  0  0
  187.7670  176.7000  137.6880 C   0  0  0  0  0  3  0  0  0  0  0  0
  189.6980  175.2320  137.6900 C   0  0  0  0  0  0  0  0  0  0  0  0
  188.6340  173.8310  135.5130 C   0  0  0  0  0  3  0  0  0  0  0  0
  190.4000  174.1540  137.1430 C   0  0  0  0  0  3  0  0  0  0  0  0
  189.0240  178.0780  143.7160 C   0  0  2  0  0  3  0  0  0  0  0  0
  190.1900  179.0110  144.0360 C   0  0  0  0  0  1  0  0  0  0  0  0
  188.6100  177.2220  144.9400 C   0  0  0  0  0  2  0  0  0  0  0  0
  189.1530  177.6170  146.2530 N   0  0  0  0  0  0  0  0  0  0  0  0
  191.9840  175.2720  147.2930 C   0  0  0  0  0  1  0  0  0  0  0  0
  189.8570  176.5280  146.7910 N   0  0  0  0  0  2  0  0  0  0  0  0
  191.9520  177.4130  146.2610 O   0  0  0  0  0  0  0  0  0  0  0  0
  191.2840  176.4640  146.7510 C   0  0  0  0  0  0  0  0  0  0  0  0
  188.1040  178.0050  147.1930 C   0  0  0  0  0  2  0  0  0  0  0  0
  186.7490  177.6590  146.6130 C   0  0  0  0  0  2  0  0  0  0  0  0
  185.8800  178.9000  146.5950 C   0  0  0  0  0  2  0  0  0  0  0  0
  184.6450  178.6330  145.7570 C   0  0  0  0  0  1  0  0  0  0  0  0
  192.4880  177.5010  141.2050 C   0  0  0  0  0  2  0  0  0  0  0  0
  192.8990  177.8420  139.8510 N   0  0  0  0  0  2  0  0  0  0  0  0
  194.6730  176.7320  140.5640 O   0  0  0  0  0  1  0  0  0  0  0  0
  193.9000  176.9370  139.4710 N   0  0  0  0  0  2  0  0  0  0  0  0
  1  2  1  0  0  0  0
  2  6  1  0  0  0  0
  2 17  1  0  0  0  0
  3  7  1  6  0  0  0
  3  4  1  0  0  0  0
  3  1  1  0  0  0  0
  4 29  1  1  0  0  0
  4  6  1  0  0  0  0
  6  5  1  0  0  0  0
  8  7  1  0  0  0  0
  9 16  1  0  0  0  0
 10  7  2  0  0  0  0
 11 12  2  0  0  0  0
 12 13  1  0  0  0  0
 12 14  1  0  0  0  0
 13  8  2  0  0  0  0
 14 10  1  0  0  0  0
 15 11  1  0  0  0  0
 15  9  2  0  0  0  0
 16 14  2  0  0  0  0
 17 18  1  1  0  0  0
 17 19  1  0  0  0  0
 19 20  1  0  0  0  0
 20 22  1  0  0  0  0
 20 25  1  0  0  0  0
 23 24  2  0  0  0  0
 24 22  1  0  0  0  0
 24 21  1  0  0  0  0
 26 25  1  0  0  0  0
 27 26  1  0  0  0  0
 28 27  1  0  0  0  0
 30 29  1  0  0  0  0
 32 30  1  0  0  0  0
 32 31  1  0  0  0  0
M  END
>  <MODEL>
9

>  <REMARK>
 VINA RESULT:      -6.5      2.023      7.753
  Name = 
  11 active torsions:
  status: ('A' for Active; 'I' for Inactive)
    1  A    between atoms: C_2  and  C_5
    2  A    between atoms: C_3  and  C_8
    3  A    between atoms: C_3  and  N_20
    4  A    between atoms: N_4  and  C_24
    5  A    between atoms: C_8  and  C_22
    6  A    between atoms: N_13  and  C_18
    7  A    between atoms: N_13  and  N_29
    8  A    between atoms: C_14  and  C_18
    9  A    between atoms: N_15  and  N_20
   10  A    between atoms: C_16  and  N_20
   11  A    between atoms: C_16  and  C_24
                            x       y       z     vdW  Elec       q    Type
                         _______ _______ _______ _____ _____    ______ ____

>  <TORSDO>
F 11

$$$$
