=
 OpenBabel11052413283D

 28 32  0  0  1  0  0  0  0  0999 V2000
  188.9940  177.0230  145.2430 C   0  0  1  0  0  3  0  0  0  0  0  0
  185.7630  178.7830  141.4810 C   0  0  0  0  0  2  0  0  0  0  0  0
  186.0930  179.7780  146.5800 C   0  0  0  0  0  1  0  0  0  0  0  0
  183.5870  178.6780  142.7220 C   0  0  0  0  0  0  0  0  0  0  0  0
  185.7800  178.4530  143.9590 C   0  0  2  0  0  3  0  0  0  0  0  0
  183.6540  178.9450  140.3050 C   0  0  0  0  0  0  0  0  0  0  0  0
  185.0120  178.1580  142.6660 C   0  0  2  0  0  3  0  0  0  0  0  0
  183.6380  178.9640  145.1950 C   0  0  0  0  0  2  0  0  0  0  0  0
  182.9430  178.9760  141.5930 C   0  0  0  0  0  3  0  0  0  0  0  0
  186.9020  177.5100  146.4020 C   0  0  2  0  0  3  0  0  0  0  0  0
  187.0350  177.5920  144.0380 C   0  0  0  0  0  2  0  0  0  0  0  0
  182.7950  178.5740  143.9890 C   0  0  0  0  0  2  0  0  0  0  0  0
  188.8360  176.6320  147.7020 C   0  0  0  0  0  2  0  0  0  0  0  0
  185.7030  178.3690  146.4470 N   0  0  0  0  0  0  0  0  0  0  0  0
  187.6310  177.5480  147.7470 C   0  0  0  0  0  2  0  0  0  0  0  0
  182.7450  179.0310  138.8120 Cl  0  0  0  0  0  0  0  0  0  0  0  0
  184.9440  178.7900  140.2680 N   0  0  0  0  0  0  0  0  0  0  0  0
  184.9360  178.1590  145.2080 C   0  0  2  0  0  3  0  0  0  0  0  0
  189.7450  177.0810  146.5760 C   0  0  0  0  0  2  0  0  0  0  0  0
  187.7850  177.8740  145.2660 N   0  0  2  0  0  0  0  0  0  0  0  0
  191.3410  177.8270  144.6040 C   0  0  0  0  0  2  0  0  0  0  0  0
  189.9570  177.4410  144.1200 C   0  0  0  0  0  0  0  0  0  0  0  0
  190.3830  178.8970  144.1090 C   0  0  0  0  0  2  0  0  0  0  0  0
  189.5260  177.4040  141.5850 N   0  0  0  0  0  0  0  0  0  0  0  0
  190.2780  175.5210  142.7470 O   0  0  0  0  0  0  0  0  0  0  0  0
  189.9440  176.7380  142.7900 C   0  0  0  0  0  0  0  0  0  0  0  0
  189.5040  176.6880  140.3210 C   0  0  0  0  0  1  0  0  0  0  0  0
  189.1150  178.7980  141.5830 C   0  0  0  0  0  1  0  0  0  0  0  0
  1 22  1  6  0  0  0
  1 20  1  0  0  0  0
  1 19  1  0  0  0  0
  4 12  1  0  0  0  0
  5 11  1  1  0  0  0
  5 18  1  0  0  0  0
  6  9  1  0  0  0  0
  7  2  1  6  0  0  0
  7  4  1  0  0  0  0
  7  5  1  0  0  0  0
  9  4  2  0  0  0  0
 10 14  1  0  0  0  0
 10 15  1  1  0  0  0
 12  8  1  0  0  0  0
 13 15  1  0  0  0  0
 14  3  1  0  0  0  0
 16  6  1  0  0  0  0
 17  6  2  0  0  0  0
 17  2  1  0  0  0  0
 18  8  1  1  0  0  0
 18 14  1  0  0  0  0
 19 13  1  0  0  0  0
 20 11  1  6  0  0  0
 20 10  1  0  0  0  0
 22 21  1  0  0  0  0
 23 22  1  0  0  0  0
 23 21  1  0  0  0  0
 24 26  1  0  0  0  0
 25 26  2  0  0  0  0
 26 22  1  0  0  0  0
 27 24  1  0  0  0  0
 28 24  1  0  0  0  0
M  END
>  <MODEL>
1

>  <REMARK>
 VINA RESULT:      -9.6      0.000      0.000
  Name = 
  2 active torsions:
  status: ('A' for Active; 'I' for Inactive)
    1  A    between atoms: C_1  and  C_3
    2  A    between atoms: C_3  and  C_11
                            x       y       z     vdW  Elec       q    Type
                         _______ _______ _______ _____ _____    ______ ____

>  <TORSDO>
F 2

$$$$
=
 OpenBabel11052413283D

 28 32  0  0  1  0  0  0  0  0999 V2000
  189.3100  177.0970  138.5970 C   0  0  1  0  0  3  0  0  0  0  0  0
  185.8600  178.8530  142.1620 C   0  0  0  0  0  2  0  0  0  0  0  0
  191.0520  178.4790  142.1820 C   0  0  0  0  0  1  0  0  0  0  0  0
  186.8380  177.8210  144.2270 C   0  0  0  0  0  0  0  0  0  0  0  0
  188.1620  177.8810  142.0740 C   0  0  2  0  0  3  0  0  0  0  0  0
  184.5860  178.7410  144.2160 C   0  0  0  0  0  0  0  0  0  0  0  0
  186.7740  177.7480  142.7120 C   0  0  2  0  0  3  0  0  0  0  0  0
  189.2960  177.4290  144.2850 C   0  0  0  0  0  2  0  0  0  0  0  0
  185.7720  178.2250  144.9190 C   0  0  0  0  0  3  0  0  0  0  0  0
  190.3690  176.6570  140.7520 C   0  0  2  0  0  3  0  0  0  0  0  0
  188.1260  177.4100  140.6250 C   0  0  0  0  0  2  0  0  0  0  0  0
  187.9620  177.1640  144.9680 C   0  0  0  0  0  2  0  0  0  0  0  0
  191.5630  176.0270  138.6600 C   0  0  0  0  0  2  0  0  0  0  0  0
  190.5280  177.1080  142.1480 N   0  0  0  0  0  0  0  0  0  0  0  0
  191.7370  176.5280  140.0780 C   0  0  0  0  0  2  0  0  0  0  0  0
  183.0920  178.9750  145.0970 Cl  0  0  0  0  0  0  0  0  0  0  0  0
  184.6230  178.9630  142.9360 N   0  0  0  0  0  0  0  0  0  0  0  0
  189.2150  177.0390  142.8100 C   0  0  2  0  0  3  0  0  0  0  0  0
  190.6730  176.9950  137.9080 C   0  0  0  0  0  2  0  0  0  0  0  0
  189.4450  177.5440  140.0010 N   0  0  2  0  0  0  0  0  0  0  0  0
  189.0040  178.4490  136.4430 C   0  0  0  0  0  2  0  0  0  0  0  0
  188.4210  178.0510  137.7850 C   0  0  0  0  0  0  0  0  0  0  0  0
  188.9560  179.4560  137.5790 C   0  0  0  0  0  2  0  0  0  0  0  0
  186.2840  176.7030  137.3070 N   0  0  0  0  0  0  0  0  0  0  0  0
  186.2180  178.8670  138.1830 O   0  0  0  0  0  0  0  0  0  0  0  0
  186.9230  177.8990  137.7840 C   0  0  0  0  0  0  0  0  0  0  0  0
  184.8350  176.5980  137.2990 C   0  0  0  0  0  1  0  0  0  0  0  0
  187.0490  175.5660  136.8200 C   0  0  0  0  0  1  0  0  0  0  0  0
  1 22  1  6  0  0  0
  1 20  1  0  0  0  0
  2 17  1  0  0  0  0
  4  9  2  0  0  0  0
  4 12  1  0  0  0  0
  5 11  1  6  0  0  0
  5  7  1  0  0  0  0
  5 18  1  0  0  0  0
  6  9  1  0  0  0  0
  6 16  1  0  0  0  0
  7  2  1  6  0  0  0
  7  4  1  0  0  0  0
  8 12  1  0  0  0  0
 10 15  1  6  0  0  0
 10 14  1  0  0  0  0
 13 15  1  0  0  0  0
 14  3  1  0  0  0  0
 14 18  1  0  0  0  0
 17  6  2  0  0  0  0
 18  8  1  1  0  0  0
 19  1  1  0  0  0  0
 19 13  1  0  0  0  0
 20 11  1  1  0  0  0
 20 10  1  0  0  0  0
 21 23  1  0  0  0  0
 21 22  1  0  0  0  0
 23 22  1  0  0  0  0
 24 26  1  0  0  0  0
 26 22  1  0  0  0  0
 26 25  2  0  0  0  0
 27 24  1  0  0  0  0
 28 24  1  0  0  0  0
M  END
>  <MODEL>
2

>  <REMARK>
 VINA RESULT:      -8.5      2.971      5.992
  Name = 
  2 active torsions:
  status: ('A' for Active; 'I' for Inactive)
    1  A    between atoms: C_1  and  C_3
    2  A    between atoms: C_3  and  C_11
                            x       y       z     vdW  Elec       q    Type
                         _______ _______ _______ _____ _____    ______ ____

>  <TORSDO>
F 2

$$$$
=
 OpenBabel11052413283D

 28 32  0  0  1  0  0  0  0  0999 V2000
  188.6550  177.1580  145.7190 C   0  0  1  0  0  3  0  0  0  0  0  0
  185.9770  178.6000  141.4240 C   0  0  0  0  0  2  0  0  0  0  0  0
  185.7350  180.1260  146.3950 C   0  0  0  0  0  1  0  0  0  0  0  0
  183.6650  178.6930  142.3910 C   0  0  0  0  0  0  0  0  0  0  0  0
  185.6820  178.5370  143.9070 C   0  0  2  0  0  3  0  0  0  0  0  0
  184.0330  178.6980  139.9860 C   0  0  0  0  0  0  0  0  0  0  0  0
  185.0630  178.1280  142.5650 C   0  0  2  0  0  3  0  0  0  0  0  0
  183.4320  179.2420  144.8080 C   0  0  0  0  0  2  0  0  0  0  0  0
  183.1740  178.8880  141.1660 C   0  0  0  0  0  3  0  0  0  0  0  0
  186.4610  177.8290  146.5530 C   0  0  2  0  0  3  0  0  0  0  0  0
  186.8810  177.6520  144.2280 C   0  0  0  0  0  2  0  0  0  0  0  0
  182.7240  178.7500  143.5540 C   0  0  0  0  0  2  0  0  0  0  0  0
  188.1870  177.0390  148.1660 C   0  0  0  0  0  2  0  0  0  0  0  0
  185.3040  178.7230  146.3610 N   0  0  0  0  0  0  0  0  0  0  0  0
  187.0250  177.9900  147.9680 C   0  0  0  0  0  2  0  0  0  0  0  0
  183.3150  178.6500  138.3910 Cl  0  0  0  0  0  0  0  0  0  0  0  0
  185.3110  178.5010  140.1250 N   0  0  0  0  0  0  0  0  0  0  0  0
  184.6830  178.4040  145.0650 C   0  0  2  0  0  3  0  0  0  0  0  0
  189.2420  177.3360  147.1210 C   0  0  0  0  0  2  0  0  0  0  0  0
  187.4890  178.0430  145.5040 N   0  0  2  0  0  0  0  0  0  0  0  0
  190.5120  178.7250  144.9050 C   0  0  0  0  0  2  0  0  0  0  0  0
  189.7630  177.4240  144.6870 C   0  0  0  0  0  0  0  0  0  0  0  0
  189.5380  178.5930  143.7470 C   0  0  0  0  0  2  0  0  0  0  0  0
  191.6510  175.7020  144.9680 N   0  0  0  0  0  0  0  0  0  0  0  0
  190.4400  175.9070  142.9800 O   0  0  0  0  0  0  0  0  0  0  0  0
  190.6190  176.3010  144.1660 C   0  0  0  0  0  0  0  0  0  0  0  0
  192.4740  174.6350  144.4250 C   0  0  0  0  0  1  0  0  0  0  0  0
  191.9100  176.1310  146.3330 C   0  0  0  0  0  1  0  0  0  0  0  0
  1 22  1  6  0  0  0
  1 19  1  0  0  0  0
  4  7  1  0  0  0  0
  4 12  1  0  0  0  0
  5 11  1  1  0  0  0
  5 18  1  0  0  0  0
  6 17  2  0  0  0  0
  6  9  1  0  0  0  0
  7  2  1  6  0  0  0
  7  5  1  0  0  0  0
  9  4  2  0  0  0  0
 10 15  1  1  0  0  0
 12  8  1  0  0  0  0
 14  3  1  0  0  0  0
 14 10  1  0  0  0  0
 15 13  1  0  0  0  0
 16  6  1  0  0  0  0
 17  2  1  0  0  0  0
 18  8  1  6  0  0  0
 18 14  1  0  0  0  0
 19 13  1  0  0  0  0
 20 11  1  6  0  0  0
 20  1  1  0  0  0  0
 20 10  1  0  0  0  0
 22 21  1  0  0  0  0
 23 22  1  0  0  0  0
 23 21  1  0  0  0  0
 24 28  1  0  0  0  0
 25 26  2  0  0  0  0
 26 22  1  0  0  0  0
 26 24  1  0  0  0  0
 27 24  1  0  0  0  0
M  END
>  <MODEL>
3

>  <REMARK>
 VINA RESULT:      -7.9      1.341      1.868
  Name = 
  2 active torsions:
  status: ('A' for Active; 'I' for Inactive)
    1  A    between atoms: C_1  and  C_3
    2  A    between atoms: C_3  and  C_11
                            x       y       z     vdW  Elec       q    Type
                         _______ _______ _______ _____ _____    ______ ____

>  <TORSDO>
F 2

$$$$
=
 OpenBabel11052413283D

 28 32  0  0  1  0  0  0  0  0999 V2000
  190.3740  176.8050  144.6030 C   0  0  1  0  0  3  0  0  0  0  0  0
  185.7150  178.8430  143.2490 C   0  0  0  0  0  2  0  0  0  0  0  0
  188.5070  179.0650  147.6360 C   0  0  0  0  0  1  0  0  0  0  0  0
  184.4290  178.3630  145.3470 C   0  0  0  0  0  0  0  0  0  0  0  0
  186.9460  178.1380  145.3080 C   0  0  2  0  0  3  0  0  0  0  0  0
  183.3010  179.0040  143.2890 C   0  0  0  0  0  0  0  0  0  0  0  0
  185.6410  177.9810  144.5180 C   0  0  2  0  0  3  0  0  0  0  0  0
  185.6880  178.2690  147.4930 C   0  0  0  0  0  2  0  0  0  0  0  0
  183.3130  178.7760  144.7420 C   0  0  0  0  0  3  0  0  0  0  0  0
  189.1210  176.9280  146.6940 C   0  0  2  0  0  3  0  0  0  0  0  0
  188.0770  177.3840  144.6160 C   0  0  0  0  0  2  0  0  0  0  0  0
  184.3610  177.9980  146.7980 C   0  0  0  0  0  2  0  0  0  0  0  0
  191.4430  176.0290  146.7190 C   0  0  0  0  0  2  0  0  0  0  0  0
  188.1010  177.6650  147.4630 N   0  0  0  0  0  0  0  0  0  0  0  0
  190.4170  176.8210  147.5020 C   0  0  0  0  0  2  0  0  0  0  0  0
  181.7760  179.2410  142.4630 Cl  0  0  0  0  0  0  0  0  0  0  0  0
  184.4060  178.9670  142.6060 N   0  0  0  0  0  0  0  0  0  0  0  0
  186.8240  177.5840  146.7350 C   0  0  2  0  0  3  0  0  0  0  0  0
  191.6820  176.7210  145.3930 C   0  0  0  0  0  2  0  0  0  0  0  0
  189.3330  177.5370  145.3570 N   0  0  2  0  0  0  0  0  0  0  0  0
  192.0620  178.0430  143.1250 C   0  0  0  0  0  2  0  0  0  0  0  0
  190.6630  177.4720  143.2480 C   0  0  0  0  0  0  0  0  0  0  0  0
  190.8710  178.9740  143.2700 C   0  0  0  0  0  2  0  0  0  0  0  0
  190.8720  176.9260  140.7440 N   0  0  0  0  0  0  0  0  0  0  0  0
  188.9620  176.3900  141.9780 O   0  0  0  0  0  0  0  0  0  0  0  0
  190.1210  176.8900  141.9700 C   0  0  0  0  0  0  0  0  0  0  0  0
  190.3090  176.3750  139.5230 C   0  0  0  0  0  1  0  0  0  0  0  0
  192.2030  177.5060  140.6760 C   0  0  0  0  0  1  0  0  0  0  0  0
  1 22  1  6  0  0  0
  1 20  1  0  0  0  0
  1 19  1  0  0  0  0
  4 12  1  0  0  0  0
  5 11  1  6  0  0  0
  5 18  1  0  0  0  0
  6  9  1  0  0  0  0
  7  2  1  6  0  0  0
  7  5  1  0  0  0  0
  7  4  1  0  0  0  0
  9  4  2  0  0  0  0
 10 14  1  0  0  0  0
 10 15  1  1  0  0  0
 12  8  1  0  0  0  0
 13 15  1  0  0  0  0
 14  3  1  0  0  0  0
 16  6  1  0  0  0  0
 17  2  1  0  0  0  0
 17  6  2  0  0  0  0
 18 14  1  0  0  0  0
 18  8  1  1  0  0  0
 19 13  1  0  0  0  0
 20 11  1  6  0  0  0
 20 10  1  0  0  0  0
 21 22  1  0  0  0  0
 21 23  1  0  0  0  0
 22 23  1  0  0  0  0
 24 26  1  0  0  0  0
 26 25  2  0  0  0  0
 26 22  1  0  0  0  0
 27 24  1  0  0  0  0
 28 24  1  0  0  0  0
M  END
>  <MODEL>
4

>  <REMARK>
 VINA RESULT:      -7.8      1.636      2.369
  Name = 
  2 active torsions:
  status: ('A' for Active; 'I' for Inactive)
    1  A    between atoms: C_1  and  C_3
    2  A    between atoms: C_3  and  C_11
                            x       y       z     vdW  Elec       q    Type
                         _______ _______ _______ _____ _____    ______ ____

>  <TORSDO>
F 2

$$$$
=
 OpenBabel11052413283D

 28 32  0  0  1  0  0  0  0  0999 V2000
  189.4890  176.9750  144.1590 C   0  0  1  0  0  3  0  0  0  0  0  0
  192.5340  177.0620  139.8680 C   0  0  0  0  0  2  0  0  0  0  0  0
  187.9310  179.2360  140.9570 C   0  0  0  0  0  1  0  0  0  0  0  0
  190.7750  176.7530  138.1070 C   0  0  0  0  0  0  0  0  0  0  0  0
  190.1240  177.3150  140.4840 C   0  0  2  0  0  3  0  0  0  0  0  0
  193.1380  176.4740  137.6000 C   0  0  0  0  0  0  0  0  0  0  0  0
  191.1090  176.5690  139.5770 C   0  0  2  0  0  3  0  0  0  0  0  0
  188.4830  177.5980  138.5860 C   0  0  0  0  0  2  0  0  0  0  0  0
  191.7350  176.6350  137.1880 C   0  0  0  0  0  3  0  0  0  0  0  0
  187.9290  177.2280  142.2990 C   0  0  2  0  0  3  0  0  0  0  0  0
  190.2280  176.7990  141.9150 C   0  0  0  0  0  2  0  0  0  0  0  0
  189.3490  176.7640  137.6520 C   0  0  0  0  0  2  0  0  0  0  0  0
  187.0430  177.1280  144.6240 C   0  0  0  0  0  2  0  0  0  0  0  0
  187.7220  177.7830  140.9470 N   0  0  0  0  0  0  0  0  0  0  0  0
  186.8430  177.7350  143.2510 C   0  0  0  0  0  2  0  0  0  0  0  0
  194.3400  176.0120  136.4150 Cl  0  0  0  0  0  0  0  0  0  0  0  0
  193.4790  176.6090  138.8470 N   0  0  0  0  0  0  0  0  0  0  0  0
  188.6690  177.1300  140.0290 C   0  0  2  0  0  3  0  0  0  0  0  0
  188.4230  177.5020  145.1230 C   0  0  0  0  0  2  0  0  0  0  0  0
  189.2990  177.5150  142.7950 N   0  0  2  0  0  0  0  0  0  0  0  0
  190.9930  178.7640  145.2090 C   0  0  0  0  0  2  0  0  0  0  0  0
  190.8750  177.3340  144.7190 C   0  0  0  0  0  0  0  0  0  0  0  0
  191.6810  178.3420  143.9220 C   0  0  0  0  0  2  0  0  0  0  0  0
  191.6380  176.3460  146.9670 N   0  0  0  0  0  0  0  0  0  0  0  0
  192.3850  175.5020  144.9210 O   0  0  0  0  0  0  0  0  0  0  0  0
  191.6620  176.3380  145.5290 C   0  0  0  0  0  0  0  0  0  0  0  0
  192.4280  175.3850  147.7180 C   0  0  0  0  0  1  0  0  0  0  0  0
  190.8360  177.2990  147.7170 C   0  0  0  0  0  1  0  0  0  0  0  0
  1 22  1  1  0  0  0
  1 19  1  0  0  0  0
  4  7  1  0  0  0  0
  5 11  1  1  0  0  0
  6 17  2  0  0  0  0
  7  2  1  6  0  0  0
  7  5  1  0  0  0  0
  9  6  1  0  0  0  0
  9  4  2  0  0  0  0
 10 20  1  0  0  0  0
 10 15  1  1  0  0  0
 12  4  1  0  0  0  0
 12  8  1  0  0  0  0
 13 19  1  0  0  0  0
 14  3  1  0  0  0  0
 14 10  1  0  0  0  0
 15 13  1  0  0  0  0
 16  6  1  0  0  0  0
 17  2  1  0  0  0  0
 18  8  1  6  0  0  0
 18  5  1  0  0  0  0
 18 14  1  0  0  0  0
 20 11  1  6  0  0  0
 20  1  1  0  0  0  0
 22 21  1  0  0  0  0
 22 26  1  0  0  0  0
 23 22  1  0  0  0  0
 23 21  1  0  0  0  0
 24 28  1  0  0  0  0
 24 27  1  0  0  0  0
 25 26  2  0  0  0  0
 26 24  1  0  0  0  0
M  END
>  <MODEL>
5

>  <REMARK>
 VINA RESULT:      -7.7      3.493      6.434
  Name = 
  2 active torsions:
  status: ('A' for Active; 'I' for Inactive)
    1  A    between atoms: C_1  and  C_3
    2  A    between atoms: C_3  and  C_11
                            x       y       z     vdW  Elec       q    Type
                         _______ _______ _______ _____ _____    ______ ____

>  <TORSDO>
F 2

$$$$
=
 OpenBabel11052413283D

 28 32  0  0  1  0  0  0  0  0999 V2000
  189.2950  177.6620  146.3350 C   0  0  1  0  0  3  0  0  0  0  0  0
  185.7740  178.2260  142.4650 C   0  0  0  0  0  2  0  0  0  0  0  0
  190.0780  175.3310  142.9070 C   0  0  0  0  0  1  0  0  0  0  0  0
  187.3310  178.3390  140.5020 C   0  0  0  0  0  0  0  0  0  0  0  0
  188.1720  177.5820  142.7630 C   0  0  2  0  0  3  0  0  0  0  0  0
  184.9980  178.9970  140.3060 C   0  0  0  0  0  0  0  0  0  0  0  0
  187.2130  178.5080  142.0060 C   0  0  2  0  0  3  0  0  0  0  0  0
  189.5050  177.1350  140.6660 C   0  0  0  0  0  2  0  0  0  0  0  0
  186.2980  178.6420  139.7150 C   0  0  0  0  0  3  0  0  0  0  0  0
  190.5570  177.2550  144.2850 C   0  0  2  0  0  3  0  0  0  0  0  0
  188.3250  178.0450  144.2070 C   0  0  0  0  0  2  0  0  0  0  0  0
  188.6730  178.1310  139.8700 C   0  0  0  0  0  2  0  0  0  0  0  0
  191.7260  177.1180  146.4810 C   0  0  0  0  0  2  0  0  0  0  0  0
  190.5090  176.7350  142.9060 N   0  0  0  0  0  0  0  0  0  0  0  0
  191.6590  176.5480  145.0790 C   0  0  0  0  0  2  0  0  0  0  0  0
  183.7470  179.6880  139.2950 Cl  0  0  0  0  0  0  0  0  0  0  0  0
  184.7940  178.8610  141.5830 N   0  0  0  0  0  0  0  0  0  0  0  0
  189.5710  177.5640  142.1310 C   0  0  2  0  0  3  0  0  0  0  0  0
  190.3750  176.9370  147.1420 C   0  0  0  0  0  2  0  0  0  0  0  0
  189.2310  177.1590  144.9450 N   0  0  2  0  0  0  0  0  0  0  0  0
  187.9180  178.0850  148.4530 C   0  0  0  0  0  2  0  0  0  0  0  0
  187.9490  177.4940  147.0570 C   0  0  0  0  0  0  0  0  0  0  0  0
  187.9450  176.5780  148.2660 C   0  0  0  0  0  2  0  0  0  0  0  0
  185.8160  178.7850  146.4260 N   0  0  0  0  0  0  0  0  0  0  0  0
  186.2740  176.6530  145.5870 O   0  0  0  0  0  0  0  0  0  0  0  0
  186.6490  177.6180  146.3080 C   0  0  0  0  0  0  0  0  0  0  0  0
  184.5560  178.8620  145.7060 C   0  0  0  0  0  1  0  0  0  0  0  0
  186.1930  179.9170  147.2570 C   0  0  0  0  0  1  0  0  0  0  0  0
  1 22  1  1  0  0  0
  1 19  1  0  0  0  0
  4  7  1  0  0  0  0
  5 11  1  1  0  0  0
  6 17  2  0  0  0  0
  7  2  1  1  0  0  0
  7  5  1  0  0  0  0
  9  6  1  0  0  0  0
  9  4  2  0  0  0  0
 10 20  1  0  0  0  0
 10 15  1  1  0  0  0
 12  4  1  0  0  0  0
 12  8  1  0  0  0  0
 13 19  1  0  0  0  0
 14  3  1  0  0  0  0
 14 10  1  0  0  0  0
 15 13  1  0  0  0  0
 16  6  1  0  0  0  0
 17  2  1  0  0  0  0
 18  8  1  6  0  0  0
 18  5  1  0  0  0  0
 18 14  1  0  0  0  0
 20 11  1  6  0  0  0
 20  1  1  0  0  0  0
 22 23  1  0  0  0  0
 22 21  1  0  0  0  0
 23 21  1  0  0  0  0
 24 28  1  0  0  0  0
 25 26  2  0  0  0  0
 26 24  1  0  0  0  0
 26 22  1  0  0  0  0
 27 24  1  0  0  0  0
M  END
>  <MODEL>
6

>  <REMARK>
 VINA RESULT:      -7.4      1.628      4.623
  Name = 
  2 active torsions:
  status: ('A' for Active; 'I' for Inactive)
    1  A    between atoms: C_1  and  C_3
    2  A    between atoms: C_3  and  C_11
                            x       y       z     vdW  Elec       q    Type
                         _______ _______ _______ _____ _____    ______ ____

>  <TORSDO>
F 2

$$$$
=
 OpenBabel11052413283D

 28 32  0  0  1  0  0  0  0  0999 V2000
  188.6050  177.3050  144.4900 C   0  0  1  0  0  3  0  0  0  0  0  0
  189.3590  178.2360  139.3660 C   0  0  0  0  0  2  0  0  0  0  0  0
  185.9340  180.1060  142.8120 C   0  0  0  0  0  1  0  0  0  0  0  0
  186.9740  178.2400  138.5910 C   0  0  0  0  0  0  0  0  0  0  0  0
  187.5200  178.3370  141.0580 C   0  0  2  0  0  3  0  0  0  0  0  0
  188.8180  178.0920  137.0120 C   0  0  0  0  0  0  0  0  0  0  0  0
  187.9250  177.7870  139.6850 C   0  0  2  0  0  3  0  0  0  0  0  0
  185.2220  178.9500  140.2120 C   0  0  0  0  0  2  0  0  0  0  0  0
  187.3980  178.3090  137.3280 C   0  0  0  0  0  3  0  0  0  0  0  0
  186.3930  177.8820  143.6340 C   0  0  2  0  0  3  0  0  0  0  0  0
  188.2250  177.5630  142.1660 C   0  0  0  0  0  2  0  0  0  0  0  0
  185.5020  178.3180  138.8550 C   0  0  0  0  0  2  0  0  0  0  0  0
  186.6570  177.3350  146.0490 C   0  0  0  0  0  2  0  0  0  0  0  0
  185.6360  178.6780  142.6490 N   0  0  0  0  0  0  0  0  0  0  0  0
  185.9000  178.1860  145.0510 C   0  0  0  0  0  2  0  0  0  0  0  0
  189.3110  177.8770  135.3460 Cl  0  0  0  0  0  0  0  0  0  0  0  0
  189.6990  177.9950  137.9630 N   0  0  0  0  0  0  0  0  0  0  0  0
  186.0090  178.2210  141.3000 C   0  0  2  0  0  3  0  0  0  0  0  0
  188.1370  177.6270  145.9120 C   0  0  0  0  0  2  0  0  0  0  0  0
  187.8550  178.0880  143.4840 N   0  0  2  0  0  0  0  0  0  0  0  0
  190.5160  178.9910  144.7440 C   0  0  0  0  0  2  0  0  0  0  0  0
  190.1160  177.5700  144.4000 C   0  0  0  0  0  0  0  0  0  0  0  0
  190.5670  178.5150  143.3030 C   0  0  0  0  0  2  0  0  0  0  0  0
  191.4490  176.3390  146.2220 N   0  0  0  0  0  0  0  0  0  0  0  0
  191.6810  175.8300  143.9540 O   0  0  0  0  0  0  0  0  0  0  0  0
  191.1100  176.5280  144.8370 C   0  0  0  0  0  0  0  0  0  0  0  0
  192.4300  175.3390  146.6070 C   0  0  0  0  0  1  0  0  0  0  0  0
  190.8340  177.1280  147.2780 C   0  0  0  0  0  1  0  0  0  0  0  0
  1 22  1  1  0  0  0
  1 19  1  0  0  0  0
  4 12  1  0  0  0  0
  4  7  1  0  0  0  0
  5 18  1  0  0  0  0
  5 11  1  1  0  0  0
  6  9  1  0  0  0  0
  6 17  2  0  0  0  0
  7  2  1  6  0  0  0
  7  5  1  0  0  0  0
  9  4  2  0  0  0  0
 10 15  1  1  0  0  0
 12  8  1  0  0  0  0
 14  3  1  0  0  0  0
 14 10  1  0  0  0  0
 15 13  1  0  0  0  0
 16  6  1  0  0  0  0
 17  2  1  0  0  0  0
 18  8  1  6  0  0  0
 18 14  1  0  0  0  0
 19 13  1  0  0  0  0
 20 11  1  6  0  0  0
 20 10  1  0  0  0  0
 20  1  1  0  0  0  0
 22 21  1  0  0  0  0
 22 26  1  0  0  0  0
 23 22  1  0  0  0  0
 23 21  1  0  0  0  0
 24 27  1  0  0  0  0
 24 28  1  0  0  0  0
 25 26  2  0  0  0  0
 26 24  1  0  0  0  0
M  END
>  <MODEL>
7

>  <REMARK>
 VINA RESULT:      -7.3      2.559      4.264
  Name = 
  2 active torsions:
  status: ('A' for Active; 'I' for Inactive)
    1  A    between atoms: C_1  and  C_3
    2  A    between atoms: C_3  and  C_11
                            x       y       z     vdW  Elec       q    Type
                         _______ _______ _______ _____ _____    ______ ____

>  <TORSDO>
F 2

$$$$
=
 OpenBabel11052413283D

 28 32  0  0  1  0  0  0  0  0999 V2000
  183.7230  177.8910  137.2860 C   0  0  1  0  0  3  0  0  0  0  0  0
  184.9800  177.8650  142.3960 C   0  0  0  0  0  2  0  0  0  0  0  0
  180.5880  176.7120  139.8500 C   0  0  0  0  0  1  0  0  0  0  0  0
  182.9050  178.9130  143.3370 C   0  0  0  0  0  0  0  0  0  0  0  0
  182.9560  178.0950  140.9460 C   0  0  2  0  0  3  0  0  0  0  0  0
  184.9300  178.7000  144.6670 C   0  0  0  0  0  0  0  0  0  0  0  0
  183.7510  178.7350  142.0900 C   0  0  2  0  0  3  0  0  0  0  0  0
  180.7660  178.5770  142.1070 C   0  0  0  0  0  2  0  0  0  0  0  0
  183.4890  178.9630  144.5360 C   0  0  0  0  0  3  0  0  0  0  0  0
  181.6280  178.3740  138.4410 C   0  0  2  0  0  3  0  0  0  0  0  0
  183.6810  178.2950  139.6200 C   0  0  0  0  0  2  0  0  0  0  0  0
  181.4720  179.3340  143.2240 C   0  0  0  0  0  2  0  0  0  0  0  0
  181.6450  178.2540  135.9540 C   0  0  0  0  0  2  0  0  0  0  0  0
  180.8250  178.1470  139.6580 N   0  0  0  0  0  0  0  0  0  0  0  0
  180.8260  177.9790  137.1980 C   0  0  0  0  0  2  0  0  0  0  0  0
  185.7430  179.0670  146.1730 Cl  0  0  0  0  0  0  0  0  0  0  0  0
  185.6150  178.2560  143.6550 N   0  0  0  0  0  0  0  0  0  0  0  0
  181.5550  178.7100  140.8060 C   0  0  2  0  0  3  0  0  0  0  0  0
  182.9390  177.4700  136.0410 C   0  0  0  0  0  2  0  0  0  0  0  0
  182.9360  177.6770  138.5200 N   0  0  2  0  0  0  0  0  0  0  0  0
  185.1410  176.0110  136.2780 C   0  0  0  0  0  2  0  0  0  0  0  0
  185.0460  177.1090  137.3190 C   0  0  0  0  0  0  0  0  0  0  0  0
  184.9570  175.6560  137.7430 C   0  0  0  0  0  2  0  0  0  0  0  0
  187.1950  178.2840  136.5340 N   0  0  0  0  0  0  0  0  0  0  0  0
  186.7180  177.9460  138.7960 O   0  0  0  0  0  0  0  0  0  0  0  0
  186.3500  177.8090  137.5960 C   0  0  0  0  0  0  0  0  0  0  0  0
  188.4580  178.9340  136.8370 C   0  0  0  0  0  1  0  0  0  0  0  0
  186.8260  178.1350  135.1350 C   0  0  0  0  0  1  0  0  0  0  0  0
  1 19  1  6  0  0  0
  1 22  1  0  0  0  0
  1 20  1  0  0  0  0
  2 17  1  0  0  0  0
  4  9  2  0  0  0  0
  5 11  1  6  0  0  0
  5  7  1  0  0  0  0
  6 16  1  0  0  0  0
  7  2  1  1  0  0  0
  7  4  1  0  0  0  0
  8 12  1  0  0  0  0
  9  6  1  0  0  0  0
 10 15  1  6  0  0  0
 10 20  1  0  0  0  0
 10 14  1  0  0  0  0
 12  4  1  0  0  0  0
 13 19  1  0  0  0  0
 13 15  1  0  0  0  0
 14  3  1  0  0  0  0
 14 18  1  0  0  0  0
 17  6  2  0  0  0  0
 18  5  1  0  0  0  0
 18  8  1  1  0  0  0
 20 11  1  1  0  0  0
 21 22  1  0  0  0  0
 21 23  1  0  0  0  0
 22 26  1  0  0  0  0
 22 23  1  0  0  0  0
 24 27  1  0  0  0  0
 24 26  1  0  0  0  0
 26 25  2  0  0  0  0
 28 24  1  0  0  0  0
M  END
>  <MODEL>
8

>  <REMARK>
 VINA RESULT:      -6.8      3.907      7.466
  Name = 
  2 active torsions:
  status: ('A' for Active; 'I' for Inactive)
    1  A    between atoms: C_1  and  C_3
    2  A    between atoms: C_3  and  C_11
                            x       y       z     vdW  Elec       q    Type
                         _______ _______ _______ _____ _____    ______ ____

>  <TORSDO>
F 2

$$$$
=
 OpenBabel11052413283D

 28 32  0  0  1  0  0  0  0  0999 V2000
  183.7860  178.6830  138.2840 C   0  0  1  0  0  3  0  0  0  0  0  0
  186.1700  177.5450  142.8350 C   0  0  0  0  0  2  0  0  0  0  0  0
  181.1780  177.4520  141.3620 C   0  0  0  0  0  1  0  0  0  0  0  0
  184.5770  178.6530  144.4240 C   0  0  0  0  0  0  0  0  0  0  0  0
  183.9330  178.2960  142.0060 C   0  0  2  0  0  3  0  0  0  0  0  0
  186.7900  177.9410  145.1410 C   0  0  0  0  0  0  0  0  0  0  0  0
  185.0690  178.6050  142.9890 C   0  0  2  0  0  3  0  0  0  0  0  0
  182.1860  178.8250  143.7500 C   0  0  0  0  0  2  0  0  0  0  0  0
  185.4230  178.4050  145.4260 C   0  0  0  0  0  3  0  0  0  0  0  0
  182.1280  179.2030  139.9980 C   0  0  2  0  0  3  0  0  0  0  0  0
  184.3550  178.6470  140.5830 C   0  0  0  0  0  2  0  0  0  0  0  0
  183.2490  179.2650  144.7470 C   0  0  0  0  0  2  0  0  0  0  0  0
  181.5480  179.5470  137.6010 C   0  0  0  0  0  2  0  0  0  0  0  0
  181.6030  178.8560  141.3320 N   0  0  0  0  0  0  0  0  0  0  0  0
  181.0050  179.1510  138.9580 C   0  0  0  0  0  2  0  0  0  0  0  0
  187.9800  177.9160  146.4240 Cl  0  0  0  0  0  0  0  0  0  0  0  0
  187.1370  177.6110  143.9320 N   0  0  0  0  0  0  0  0  0  0  0  0
  182.6630  179.0980  142.3240 C   0  0  2  0  0  3  0  0  0  0  0  0
  182.6750  178.6040  137.2340 C   0  0  0  0  0  2  0  0  0  0  0  0
  183.2810  178.3430  139.6320 N   0  0  2  0  0  0  0  0  0  0  0  0
  184.6240  176.9190  136.6250 C   0  0  0  0  0  2  0  0  0  0  0  0
  184.9290  177.7480  137.8580 C   0  0  0  0  0  0  0  0  0  0  0  0
  184.6650  176.2600  137.9930 C   0  0  0  0  0  2  0  0  0  0  0  0
  187.1890  178.3690  136.8000 N   0  0  0  0  0  0  0  0  0  0  0  0
  186.8590  178.3590  139.1130 O   0  0  0  0  0  0  0  0  0  0  0  0
  186.3650  178.1850  137.9650 C   0  0  0  0  0  0  0  0  0  0  0  0
  188.5790  178.7690  136.9410 C   0  0  0  0  0  1  0  0  0  0  0  0
  186.6750  178.1640  135.4560 C   0  0  0  0  0  1  0  0  0  0  0  0
  1 19  1  6  0  0  0
  1 20  1  0  0  0  0
  2 17  1  0  0  0  0
  4 12  1  0  0  0  0
  4  9  2  0  0  0  0
  5 11  1  6  0  0  0
  5 18  1  0  0  0  0
  5  7  1  0  0  0  0
  6  9  1  0  0  0  0
  6 16  1  0  0  0  0
  7  2  1  1  0  0  0
  7  4  1  0  0  0  0
  8 12  1  0  0  0  0
 10 15  1  6  0  0  0
 10 14  1  0  0  0  0
 13 15  1  0  0  0  0
 14  3  1  0  0  0  0
 14 18  1  0  0  0  0
 17  6  2  0  0  0  0
 18  8  1  1  0  0  0
 19 13  1  0  0  0  0
 20 10  1  0  0  0  0
 20 11  1  1  0  0  0
 21 22  1  0  0  0  0
 21 23  1  0  0  0  0
 22 26  1  0  0  0  0
 22 23  1  0  0  0  0
 22  1  1  0  0  0  0
 24 27  1  0  0  0  0
 24 26  1  0  0  0  0
 26 25  2  0  0  0  0
 28 24  1  0  0  0  0
M  END
>  <MODEL>
9

>  <REMARK>
 VINA RESULT:      -6.7      3.329      6.951
  Name = 
  2 active torsions:
  status: ('A' for Active; 'I' for Inactive)
    1  A    between atoms: C_1  and  C_3
    2  A    between atoms: C_3  and  C_11
                            x       y       z     vdW  Elec       q    Type
                         _______ _______ _______ _____ _____    ______ ____

>  <TORSDO>
F 2

$$$$
