=
 OpenBabel11052416003D

 34 41  0  0  1  0  0  0  0  0999 V2000
  178.9330  179.3470  140.0810 C   0  0  2  0  0  3  0  0  0  0  0  0
  181.0960  180.8820  137.3400 C   0  0  0  0  0  3  0  0  0  0  0  0
  181.4140  178.9290  138.8160 C   0  0  0  0  0  2  0  0  0  0  0  0
  180.7270  179.0420  141.8190 C   0  0  2  0  0  3  0  0  0  0  0  0
  179.3600  179.6360  141.5310 C   0  0  0  0  0  2  0  0  0  0  0  0
  179.7180  176.9570  140.6900 C   0  0  1  0  0  3  0  0  0  0  0  0
  180.4690  175.5570  139.8520 S   0  0  0  0  0  0  0  0  0  0  0  0
  180.7020  177.5140  141.7300 C   0  0  0  0  0  2  0  0  0  0  0  0
  180.3730  177.9410  138.5260 N   0  0  2  0  0  0  0  0  0  0  0  0
  179.3480  177.9360  139.5840 C   0  0  2  0  0  3  0  0  0  0  0  0
  181.0240  176.6350  138.4880 C   0  0  0  0  0  2  0  0  0  0  0  0
  180.8620  182.1520  136.9900 C   0  0  0  0  0  3  0  0  0  0  0  0
  180.3420  183.1900  137.9450 C   0  0  2  0  0  3  0  0  0  0  0  0
  178.9310  182.8260  138.4020 C   0  0  0  0  0  2  0  0  0  0  0  0
  180.8650  180.3570  138.7250 C   0  0  2  0  0  3  0  0  0  0  0  0
  178.9650  181.8320  139.5550 C   0  0  0  0  0  2  0  0  0  0  0  0
  179.3690  180.4340  139.0860 C   0  0  2  0  0  3  0  0  0  0  0  0
  180.3210  184.4870  137.2820 N   0  0  0  0  0  0  0  0  0  0  0  0
  181.6270  185.1260  137.5260 C   0  0  0  0  0  2  0  0  0  0  0  0
  181.3740  184.4660  136.2540 C   0  0  0  0  0  2  0  0  0  0  0  0
  181.2320  179.5030  143.1770 C   0  0  0  0  0  2  0  0  0  0  0  0
  184.7520  178.2630  142.4470 C   0  0  0  0  0  3  0  0  0  0  0  0
  183.1750  179.0050  144.6800 C   0  0  0  0  0  3  0  0  0  0  0  0
  187.6240  177.3850  143.5290 C   0  0  0  0  0  3  0  0  0  0  0  0
  187.6270  177.7440  146.3300 N   0  0  0  0  0  0  0  0  0  0  0  0
  186.5560  177.7900  144.2040 C   0  0  0  0  0  0  0  0  0  0  0  0
  188.7970  177.3590  145.6900 O   0  0  0  0  0  0  0  0  0  0  0  0
  185.2580  178.2190  143.7430 C   0  0  0  0  0  0  0  0  0  0  0  0
  188.8260  176.9190  144.3160 C   0  0  0  0  0  2  0  0  0  0  0  0
  185.2320  178.4240  146.1420 C   0  0  0  0  0  2  0  0  0  0  0  0
  184.4910  178.5750  144.8430 C   0  0  0  0  0  0  0  0  0  0  0  0
  186.5480  177.9180  145.6380 C   0  0  0  0  0  0  0  0  0  0  0  0
  182.6460  179.0750  143.3790 C   0  0  0  0  0  0  0  0  0  0  0  0
  183.4300  178.7000  142.2720 C   0  0  0  0  0  3  0  0  0  0  0  0
  1  5  1  1  0  0  0
  2 15  1  0  0  0  0
  4 21  1  1  0  0  0
  5  4  1  0  0  0  0
  6  8  1  1  0  0  0
  7  6  1  0  0  0  0
  8  4  1  0  0  0  0
  9 11  1  1  0  0  0
  9  3  1  0  0  0  0
  9 10  1  0  0  0  0
 10  1  1  0  0  0  0
 10  6  1  0  0  0  0
 11  7  1  0  0  0  0
 12  2  2  0  0  0  0
 12 13  1  0  0  0  0
 13 14  1  0  0  0  0
 14 16  1  0  0  0  0
 15  3  1  0  0  0  0
 15 17  1  0  0  0  0
 17 16  1  0  0  0  0
 17  1  1  0  0  0  0
 18 19  1  0  0  0  0
 18 13  1  0  0  0  0
 20 18  1  0  0  0  0
 20 19  1  0  0  0  0
 21 33  1  0  0  0  0
 22 28  1  0  0  0  0
 23 31  1  0  0  0  0
 24 26  2  0  0  0  0
 24 29  1  0  0  0  0
 26 32  1  0  0  0  0
 27 25  1  0  0  0  0
 28 26  1  0  0  0  0
 28 31  2  0  0  0  0
 29 27  1  0  0  0  0
 31 30  1  0  0  0  0
 32 30  1  0  0  0  0
 32 25  2  0  0  0  0
 33 23  2  0  0  0  0
 34 22  2  0  0  0  0
 34 33  1  0  0  0  0
M  END
>  <MODEL>
1

>  <REMARK>
 VINA RESULT:      -9.6      0.000      0.000
  Name = 
  3 active torsions:
  status: ('A' for Active; 'I' for Inactive)
    1  A    between atoms: N_3  and  C_25
    2  A    between atoms: C_8  and  C_18
    3  A    between atoms: C_18  and  C_30
                            x       y       z     vdW  Elec       q    Type
                         _______ _______ _______ _____ _____    ______ ____

>  <TORSDO>
F 3

$$$$
=
 OpenBabel11052416003D

 34 41  0  0  1  0  0  0  0  0999 V2000
  182.0120  178.7290  138.6340 C   0  0  2  0  0  3  0  0  0  0  0  0
  184.7040  176.1040  137.9980 C   0  0  0  0  0  3  0  0  0  0  0  0
  182.5820  176.0420  139.2550 C   0  0  0  0  0  2  0  0  0  0  0  0
  181.7300  178.3560  141.1070 C   0  0  2  0  0  3  0  0  0  0  0  0
  182.0110  179.3850  140.0260 C   0  0  0  0  0  2  0  0  0  0  0  0
  179.8260  177.6590  139.5150 C   0  0  1  0  0  3  0  0  0  0  0  0
  178.9310  176.1160  139.3090 S   0  0  0  0  0  0  0  0  0  0  0  0
  180.3230  177.7680  140.9650 C   0  0  0  0  0  2  0  0  0  0  0  0
  181.4730  176.2620  138.3260 N   0  0  2  0  0  0  0  0  0  0  0  0
  180.9320  177.6250  138.4700 C   0  0  2  0  0  3  0  0  0  0  0  0
  180.4310  175.2990  138.6680 C   0  0  0  0  0  2  0  0  0  0  0  0
  185.9200  176.5250  137.6270 C   0  0  0  0  0  3  0  0  0  0  0  0
  186.5060  177.8410  138.0580 C   0  0  2  0  0  3  0  0  0  0  0  0
  185.6890  178.9950  137.4820 C   0  0  0  0  0  2  0  0  0  0  0  0
  183.7960  176.9010  138.8850 C   0  0  2  0  0  3  0  0  0  0  0  0
  184.4710  179.2930  138.3460 C   0  0  0  0  0  2  0  0  0  0  0  0
  183.3940  178.2190  138.1980 C   0  0  2  0  0  3  0  0  0  0  0  0
  187.8810  177.9330  137.5880 N   0  0  0  0  0  0  0  0  0  0  0  0
  188.7240  178.2510  138.7550 C   0  0  0  0  0  2  0  0  0  0  0  0
  188.6460  176.8790  138.2760 C   0  0  0  0  0  2  0  0  0  0  0  0
  181.9330  178.9630  142.4850 C   0  0  0  0  0  2  0  0  0  0  0  0
  185.6230  178.0450  142.5210 C   0  0  0  0  0  3  0  0  0  0  0  0
  183.5720  178.6930  144.3630 C   0  0  0  0  0  3  0  0  0  0  0  0
  188.2860  177.4750  144.1870 C   0  0  0  0  0  3  0  0  0  0  0  0
  187.6950  177.9090  146.9140 N   0  0  0  0  0  0  0  0  0  0  0  0
  187.0730  177.7950  144.6190 C   0  0  0  0  0  0  0  0  0  0  0  0
  188.9990  177.6200  146.5360 O   0  0  0  0  0  0  0  0  0  0  0  0
  185.8610  178.0850  143.8920 C   0  0  0  0  0  0  0  0  0  0  0  0
  189.3420  177.1480  145.2160 C   0  0  0  0  0  2  0  0  0  0  0  0
  185.3370  178.3510  146.2270 C   0  0  0  0  0  2  0  0  0  0  0  0
  184.8600  178.3960  144.8020 C   0  0  0  0  0  0  0  0  0  0  0  0
  186.7660  177.9600  146.0160 C   0  0  0  0  0  0  0  0  0  0  0  0
  183.3100  178.6780  142.9810 C   0  0  0  0  0  0  0  0  0  0  0  0
  184.3310  178.3490  142.0690 C   0  0  0  0  0  3  0  0  0  0  0  0
  1  5  1  1  0  0  0
  2 15  1  0  0  0  0
  4 21  1  1  0  0  0
  5  4  1  0  0  0  0
  6  8  1  1  0  0  0
  7  6  1  0  0  0  0
  8  4  1  0  0  0  0
  9 10  1  0  0  0  0
  9 11  1  1  0  0  0
  9  3  1  0  0  0  0
 10  1  1  0  0  0  0
 10  6  1  0  0  0  0
 11  7  1  0  0  0  0
 12  2  2  0  0  0  0
 12 13  1  0  0  0  0
 14 13  1  0  0  0  0
 14 16  1  0  0  0  0
 15  3  1  0  0  0  0
 17 16  1  0  0  0  0
 17  1  1  0  0  0  0
 17 15  1  0  0  0  0
 18 13  1  0  0  0  0
 18 20  1  0  0  0  0
 18 19  1  0  0  0  0
 20 19  1  0  0  0  0
 21 33  1  0  0  0  0
 22 28  1  0  0  0  0
 23 31  1  0  0  0  0
 24 26  2  0  0  0  0
 24 29  1  0  0  0  0
 26 32  1  0  0  0  0
 27 25  1  0  0  0  0
 28 26  1  0  0  0  0
 28 31  2  0  0  0  0
 29 27  1  0  0  0  0
 31 30  1  0  0  0  0
 32 30  1  0  0  0  0
 32 25  2  0  0  0  0
 33 23  2  0  0  0  0
 34 22  2  0  0  0  0
 34 33  1  0  0  0  0
M  END
>  <MODEL>
2

>  <REMARK>
 VINA RESULT:      -9.1      2.833      4.452
  Name = 
  3 active torsions:
  status: ('A' for Active; 'I' for Inactive)
    1  A    between atoms: N_3  and  C_25
    2  A    between atoms: C_8  and  C_18
    3  A    between atoms: C_18  and  C_30
                            x       y       z     vdW  Elec       q    Type
                         _______ _______ _______ _____ _____    ______ ____

>  <TORSDO>
F 3

$$$$
=
 OpenBabel11052416003D

 34 41  0  0  1  0  0  0  0  0999 V2000
  182.6040  178.7040  138.4700 C   0  0  2  0  0  3  0  0  0  0  0  0
  184.4030  175.4630  137.5710 C   0  0  0  0  0  3  0  0  0  0  0  0
  182.5240  175.9590  139.0920 C   0  0  0  0  0  2  0  0  0  0  0  0
  182.5630  178.4050  140.9680 C   0  0  2  0  0  3  0  0  0  0  0  0
  182.9600  179.3290  139.8310 C   0  0  0  0  0  2  0  0  0  0  0  0
  180.3500  178.2460  139.6570 C   0  0  1  0  0  3  0  0  0  0  0  0
  179.0610  176.9960  139.6130 S   0  0  0  0  0  0  0  0  0  0  0  0
  181.0450  178.2110  141.0270 C   0  0  0  0  0  2  0  0  0  0  0  0
  181.3990  176.4700  138.3070 N   0  0  2  0  0  0  0  0  0  0  0  0
  181.2600  177.9260  138.4790 C   0  0  2  0  0  3  0  0  0  0  0  0
  180.1950  175.8150  138.8080 C   0  0  0  0  0  2  0  0  0  0  0  0
  185.6260  175.5490  137.0340 C   0  0  0  0  0  3  0  0  0  0  0  0
  186.5890  176.6610  137.3470 C   0  0  2  0  0  3  0  0  0  0  0  0
  186.0370  177.9940  136.8470 C   0  0  0  0  0  2  0  0  0  0  0  0
  183.8610  176.4670  138.5430 C   0  0  2  0  0  3  0  0  0  0  0  0
  185.0650  178.5990  137.8520 C   0  0  0  0  0  2  0  0  0  0  0  0
  183.7330  177.8490  137.8750 C   0  0  2  0  0  3  0  0  0  0  0  0
  187.8660  176.3880  136.7010 N   0  0  0  0  0  0  0  0  0  0  0  0
  188.8420  176.0920  137.7650 C   0  0  0  0  0  2  0  0  0  0  0  0
  188.2290  174.9990  137.0270 C   0  0  0  0  0  2  0  0  0  0  0  0
  183.0990  178.9280  142.2900 C   0  0  0  0  0  2  0  0  0  0  0  0
  186.3210  177.7380  143.9210 C   0  0  0  0  0  3  0  0  0  0  0  0
  185.4220  178.6420  141.3920 C   0  0  0  0  0  3  0  0  0  0  0  0
  189.4430  177.1160  143.6800 C   0  0  0  0  0  3  0  0  0  0  0  0
  190.2050  177.5930  141.0040 N   0  0  0  0  0  0  0  0  0  0  0  0
  188.6020  177.5770  142.7640 C   0  0  0  0  0  0  0  0  0  0  0  0
  191.1320  177.0670  141.8930 O   0  0  0  0  0  0  0  0  0  0  0  0
  187.1850  177.8410  142.8350 C   0  0  0  0  0  0  0  0  0  0  0  0
  190.9060  177.0240  143.3180 C   0  0  0  0  0  2  0  0  0  0  0  0
  187.8630  178.3460  140.5790 C   0  0  0  0  0  2  0  0  0  0  0  0
  186.7550  178.2890  141.5930 C   0  0  0  0  0  0  0  0  0  0  0  0
  189.0100  177.8710  141.4150 C   0  0  0  0  0  0  0  0  0  0  0  0
  184.5240  178.5290  142.4690 C   0  0  0  0  0  0  0  0  0  0  0  0
  184.9760  178.0850  143.7260 C   0  0  0  0  0  3  0  0  0  0  0  0
  1 10  1  0  0  0  0
  1  5  1  1  0  0  0
  2 15  1  0  0  0  0
  4  8  1  0  0  0  0
  4 21  1  1  0  0  0
  5  4  1  0  0  0  0
  6  8  1  1  0  0  0
  7  6  1  0  0  0  0
  9 10  1  0  0  0  0
  9 11  1  1  0  0  0
  9  3  1  0  0  0  0
 10  6  1  0  0  0  0
 11  7  1  0  0  0  0
 12 13  1  0  0  0  0
 12  2  2  0  0  0  0
 14 13  1  0  0  0  0
 14 16  1  0  0  0  0
 15  3  1  0  0  0  0
 16 17  1  0  0  0  0
 17  1  1  0  0  0  0
 17 15  1  0  0  0  0
 18 20  1  0  0  0  0
 18 13  1  0  0  0  0
 18 19  1  0  0  0  0
 20 19  1  0  0  0  0
 21 33  1  0  0  0  0
 23 31  2  0  0  0  0
 23 33  1  0  0  0  0
 25 32  2  0  0  0  0
 25 27  1  0  0  0  0
 26 28  1  0  0  0  0
 26 24  2  0  0  0  0
 27 29  1  0  0  0  0
 28 22  2  0  0  0  0
 29 24  1  0  0  0  0
 30 32  1  0  0  0  0
 30 31  1  0  0  0  0
 31 28  1  0  0  0  0
 32 26  1  0  0  0  0
 33 34  2  0  0  0  0
 34 22  1  0  0  0  0
M  END
>  <MODEL>
3

>  <REMARK>
 VINA RESULT:      -8.8      3.354      5.458
  Name = 
  3 active torsions:
  status: ('A' for Active; 'I' for Inactive)
    1  A    between atoms: N_3  and  C_25
    2  A    between atoms: C_8  and  C_18
    3  A    between atoms: C_18  and  C_30
                            x       y       z     vdW  Elec       q    Type
                         _______ _______ _______ _____ _____    ______ ____

>  <TORSDO>
F 3

$$$$
=
 OpenBabel11052416003D

 34 41  0  0  1  0  0  0  0  0999 V2000
  190.1720  176.4220  135.5060 C   0  0  2  0  0  3  0  0  0  0  0  0
  192.0670  173.5980  137.2330 C   0  0  0  0  0  3  0  0  0  0  0  0
  189.6750  174.2020  137.1640 C   0  0  0  0  0  2  0  0  0  0  0  0
  188.7350  177.1240  137.4480 C   0  0  2  0  0  3  0  0  0  0  0  0
  189.7270  177.5940  136.3990 C   0  0  0  0  0  2  0  0  0  0  0  0
  187.6270  175.9590  135.4340 C   0  0  1  0  0  3  0  0  0  0  0  0
  186.5450  174.5310  135.3120 S   0  0  0  0  0  0  0  0  0  0  0  0
  187.4370  176.6250  136.8060 C   0  0  0  0  0  2  0  0  0  0  0  0
  189.1970  174.0900  135.7850 N   0  0  2  0  0  0  0  0  0  0  0  0
  189.0290  175.4230  135.1810 C   0  0  2  0  0  3  0  0  0  0  0  0
  187.8980  173.4260  135.8360 C   0  0  0  0  0  2  0  0  0  0  0  0
  193.3830  173.7470  137.4240 C   0  0  0  0  0  3  0  0  0  0  0  0
  194.0410  175.0820  137.6400 C   0  0  2  0  0  3  0  0  0  0  0  0
  193.9030  175.9460  136.3880 C   0  0  0  0  0  2  0  0  0  0  0  0
  191.1060  174.7480  137.2130 C   0  0  2  0  0  3  0  0  0  0  0  0
  192.5550  176.6540  136.3540 C   0  0  0  0  0  2  0  0  0  0  0  0
  191.4150  175.6880  136.0330 C   0  0  2  0  0  3  0  0  0  0  0  0
  195.4510  174.8800  137.9410 N   0  0  0  0  0  0  0  0  0  0  0  0
  195.5920  174.8780  139.4080 C   0  0  0  0  0  2  0  0  0  0  0  0
  195.5600  173.6150  138.6860 C   0  0  0  0  0  2  0  0  0  0  0  0
  188.4570  178.2320  138.4510 C   0  0  0  0  0  2  0  0  0  0  0  0
  190.9870  177.1280  141.0660 C   0  0  0  0  0  3  0  0  0  0  0  0
  188.2900  177.9830  140.9400 C   0  0  0  0  0  3  0  0  0  0  0  0
  191.6730  176.5140  144.1230 C   0  0  0  0  0  3  0  0  0  0  0  0
  189.3810  177.1290  145.6520 N   0  0  0  0  0  0  0  0  0  0  0  0
  190.5330  176.9200  143.5800 C   0  0  0  0  0  0  0  0  0  0  0  0
  190.5510  176.7530  146.2980 O   0  0  0  0  0  0  0  0  0  0  0  0
  190.2010  177.2320  142.2110 C   0  0  0  0  0  0  0  0  0  0  0  0
  191.6810  176.1910  145.5980 C   0  0  0  0  0  2  0  0  0  0  0  0
  188.2160  177.6540  143.5080 C   0  0  0  0  0  2  0  0  0  0  0  0
  188.8770  177.6440  142.1570 C   0  0  0  0  0  0  0  0  0  0  0  0
  189.3510  177.1780  144.3600 C   0  0  0  0  0  0  0  0  0  0  0  0
  189.0680  177.9040  139.7710 C   0  0  0  0  0  0  0  0  0  0  0  0
  190.4060  177.4730  139.8370 C   0  0  0  0  0  3  0  0  0  0  0  0
  1 17  1  0  0  0  0
  1  5  1  1  0  0  0
  2 12  2  0  0  0  0
  3 15  1  0  0  0  0
  4 21  1  1  0  0  0
  5  4  1  0  0  0  0
  6  8  1  1  0  0  0
  7  6  1  0  0  0  0
  7 11  1  0  0  0  0
  8  4  1  0  0  0  0
  9 11  1  1  0  0  0
  9  3  1  0  0  0  0
 10  6  1  0  0  0  0
 10  1  1  0  0  0  0
 10  9  1  0  0  0  0
 12 13  1  0  0  0  0
 13 18  1  0  0  0  0
 14 13  1  0  0  0  0
 15  2  1  0  0  0  0
 16 14  1  0  0  0  0
 17 16  1  0  0  0  0
 17 15  1  0  0  0  0
 18 20  1  0  0  0  0
 18 19  1  0  0  0  0
 20 19  1  0  0  0  0
 21 33  1  0  0  0  0
 22 28  1  0  0  0  0
 23 31  1  0  0  0  0
 24 29  1  0  0  0  0
 25 27  1  0  0  0  0
 26 24  2  0  0  0  0
 26 32  1  0  0  0  0
 28 26  1  0  0  0  0
 29 27  1  0  0  0  0
 30 32  1  0  0  0  0
 31 28  2  0  0  0  0
 31 30  1  0  0  0  0
 32 25  2  0  0  0  0
 33 34  1  0  0  0  0
 33 23  2  0  0  0  0
 34 22  2  0  0  0  0
M  END
>  <MODEL>
4

>  <REMARK>
 VINA RESULT:      -8.8      7.406     10.573
  Name = 
  3 active torsions:
  status: ('A' for Active; 'I' for Inactive)
    1  A    between atoms: N_3  and  C_25
    2  A    between atoms: C_8  and  C_18
    3  A    between atoms: C_18  and  C_30
                            x       y       z     vdW  Elec       q    Type
                         _______ _______ _______ _____ _____    ______ ____

>  <TORSDO>
F 3

$$$$
=
 OpenBabel11052416003D

 34 41  0  0  1  0  0  0  0  0999 V2000
  182.9960  176.7250  135.7960 C   0  0  2  0  0  3  0  0  0  0  0  0
  185.9840  174.8810  137.2860 C   0  0  0  0  0  3  0  0  0  0  0  0
  183.5630  174.7840  137.7560 C   0  0  0  0  0  2  0  0  0  0  0  0
  181.8490  177.3390  137.9500 C   0  0  2  0  0  3  0  0  0  0  0  0
  182.4070  177.8690  136.6410 C   0  0  0  0  0  2  0  0  0  0  0  0
  180.7600  175.5760  136.4170 C   0  0  1  0  0  3  0  0  0  0  0  0
  180.1700  173.9080  136.7260 S   0  0  0  0  0  0  0  0  0  0  0  0
  180.6640  176.3980  137.7120 C   0  0  0  0  0  2  0  0  0  0  0  0
  182.8670  174.3030  136.5620 N   0  0  2  0  0  0  0  0  0  0  0  0
  182.1750  175.4090  135.8790 C   0  0  2  0  0  3  0  0  0  0  0  0
  181.8770  173.3280  137.0090 C   0  0  0  0  0  2  0  0  0  0  0  0
  187.2000  175.4170  137.1230 C   0  0  0  0  0  3  0  0  0  0  0  0
  187.4430  176.8970  137.0210 C   0  0  2  0  0  3  0  0  0  0  0  0
  186.7890  177.4530  135.7590 C   0  0  0  0  0  2  0  0  0  0  0  0
  184.7330  175.7020  137.3850 C   0  0  2  0  0  3  0  0  0  0  0  0
  185.3120  177.7470  135.9890 C   0  0  0  0  0  2  0  0  0  0  0  0
  184.4850  176.4650  136.0700 C   0  0  2  0  0  3  0  0  0  0  0  0
  188.8780  177.1470  136.9780 N   0  0  0  0  0  0  0  0  0  0  0  0
  189.2350  177.8700  138.2120 C   0  0  0  0  0  2  0  0  0  0  0  0
  189.4760  176.4380  138.1210 C   0  0  0  0  0  2  0  0  0  0  0  0
  181.4580  178.4880  138.8650 C   0  0  0  0  0  2  0  0  0  0  0  0
  184.4930  178.1400  141.1290 C   0  0  0  0  0  3  0  0  0  0  0  0
  181.7420  178.7830  141.3380 C   0  0  0  0  0  3  0  0  0  0  0  0
  185.7470  178.2560  144.0630 C   0  0  0  0  0  3  0  0  0  0  0  0
  183.7000  179.0530  145.8350 N   0  0  0  0  0  0  0  0  0  0  0  0
  184.4970  178.4630  143.6710 C   0  0  0  0  0  0  0  0  0  0  0  0
  184.9940  178.8990  146.3130 O   0  0  0  0  0  0  0  0  0  0  0  0
  183.9080  178.4460  142.3540 C   0  0  0  0  0  0  0  0  0  0  0  0
  186.0380  178.2650  145.5450 C   0  0  0  0  0  2  0  0  0  0  0  0
  182.1410  179.0240  143.8860 C   0  0  0  0  0  2  0  0  0  0  0  0
  182.5590  178.7560  142.4670 C   0  0  0  0  0  0  0  0  0  0  0  0
  183.4460  178.8150  144.5890 C   0  0  0  0  0  0  0  0  0  0  0  0
  182.3140  178.4960  140.0860 C   0  0  0  0  0  0  0  0  0  0  0  0
  183.6800  178.1710  139.9870 C   0  0  0  0  0  3  0  0  0  0  0  0
  1 10  1  0  0  0  0
  1 17  1  0  0  0  0
  1  5  1  1  0  0  0
  2 15  1  0  0  0  0
  4 21  1  1  0  0  0
  5  4  1  0  0  0  0
  6  7  1  0  0  0  0
  6  8  1  1  0  0  0
  7 11  1  0  0  0  0
  8  4  1  0  0  0  0
  9 11  1  1  0  0  0
  9  3  1  0  0  0  0
 10  6  1  0  0  0  0
 10  9  1  0  0  0  0
 12  2  2  0  0  0  0
 13 12  1  0  0  0  0
 14 16  1  0  0  0  0
 14 13  1  0  0  0  0
 15  3  1  0  0  0  0
 16 17  1  0  0  0  0
 17 15  1  0  0  0  0
 18 13  1  0  0  0  0
 18 20  1  0  0  0  0
 18 19  1  0  0  0  0
 20 19  1  0  0  0  0
 21 33  1  0  0  0  0
 22 28  1  0  0  0  0
 23 31  1  0  0  0  0
 24 29  1  0  0  0  0
 25 27  1  0  0  0  0
 26 24  2  0  0  0  0
 26 32  1  0  0  0  0
 28 31  2  0  0  0  0
 28 26  1  0  0  0  0
 29 27  1  0  0  0  0
 30 32  1  0  0  0  0
 31 30  1  0  0  0  0
 32 25  2  0  0  0  0
 33 23  2  0  0  0  0
 34 33  1  0  0  0  0
 34 22  2  0  0  0  0
M  END
>  <MODEL>
5

>  <REMARK>
 VINA RESULT:      -8.7      3.806      6.059
  Name = 
  3 active torsions:
  status: ('A' for Active; 'I' for Inactive)
    1  A    between atoms: N_3  and  C_25
    2  A    between atoms: C_8  and  C_18
    3  A    between atoms: C_18  and  C_30
                            x       y       z     vdW  Elec       q    Type
                         _______ _______ _______ _____ _____    ______ ____

>  <TORSDO>
F 3

$$$$
=
 OpenBabel11052416003D

 34 41  0  0  1  0  0  0  0  0999 V2000
  181.1460  178.9750  139.2270 C   0  0  2  0  0  3  0  0  0  0  0  0
  180.1080  180.4330  135.8590 C   0  0  0  0  0  3  0  0  0  0  0  0
  181.4200  178.4370  136.4770 C   0  0  0  0  0  2  0  0  0  0  0  0
  183.5640  178.5310  138.6900 C   0  0  2  0  0  3  0  0  0  0  0  0
  182.6060  179.2100  139.6530 C   0  0  0  0  0  2  0  0  0  0  0  0
  181.9660  176.5310  138.9960 C   0  0  1  0  0  3  0  0  0  0  0  0
  181.6070  175.1060  137.9640 S   0  0  0  0  0  0  0  0  0  0  0  0
  183.4010  177.0080  138.7220 C   0  0  0  0  0  2  0  0  0  0  0  0
  180.5620  177.5180  137.2260 N   0  0  2  0  0  0  0  0  0  0  0  0
  180.8880  177.5520  138.6620 C   0  0  2  0  0  3  0  0  0  0  0  0
  180.8210  176.1770  136.7120 C   0  0  0  0  0  2  0  0  0  0  0  0
  179.7490  181.7220  135.8140 C   0  0  0  0  0  3  0  0  0  0  0  0
  180.3150  182.7700  136.7320 C   0  0  2  0  0  3  0  0  0  0  0  0
  179.9100  182.4810  138.1750 C   0  0  0  0  0  2  0  0  0  0  0  0
  181.1150  179.8960  136.8310 C   0  0  2  0  0  3  0  0  0  0  0  0
  180.8450  181.4640  138.8160 C   0  0  0  0  0  2  0  0  0  0  0  0
  180.6050  180.0540  138.2760 C   0  0  2  0  0  3  0  0  0  0  0  0
  179.8130  184.0790  136.3360 N   0  0  0  0  0  0  0  0  0  0  0  0
  180.9810  184.9280  136.0450 C   0  0  0  0  0  2  0  0  0  0  0  0
  180.2490  184.3100  134.9500 C   0  0  0  0  0  2  0  0  0  0  0  0
  184.9980  178.9340  138.9930 C   0  0  0  0  0  2  0  0  0  0  0  0
  186.8290  178.2580  142.2570 C   0  0  0  0  0  3  0  0  0  0  0  0
  184.2470  179.0270  141.3830 C   0  0  0  0  0  3  0  0  0  0  0  0
  186.7700  178.0880  145.4440 C   0  0  0  0  0  3  0  0  0  0  0  0
  184.1890  178.8560  146.2920 N   0  0  0  0  0  0  0  0  0  0  0  0
  185.7940  178.3890  144.5970 C   0  0  0  0  0  0  0  0  0  0  0  0
  185.1700  178.5990  147.2400 O   0  0  0  0  0  0  0  0  0  0  0  0
  185.7980  178.5010  143.1590 C   0  0  0  0  0  0  0  0  0  0  0  0
  186.4270  177.9710  146.9100 C   0  0  0  0  0  2  0  0  0  0  0  0
  183.5680  179.0540  143.8820 C   0  0  0  0  0  2  0  0  0  0  0  0
  184.5270  178.8730  142.7400 C   0  0  0  0  0  0  0  0  0  0  0  0
  184.4650  178.7260  145.0350 C   0  0  0  0  0  0  0  0  0  0  0  0
  185.2770  178.8050  140.4520 C   0  0  0  0  0  0  0  0  0  0  0  0
  186.5580  178.4170  140.8900 C   0  0  0  0  0  3  0  0  0  0  0  0
  1  5  1  6  0  0  0
  2 15  1  0  0  0  0
  3 15  1  0  0  0  0
  4  8  1  0  0  0  0
  4 21  1  1  0  0  0
  4  5  1  0  0  0  0
  6  8  1  6  0  0  0
  7  6  1  0  0  0  0
  9  3  1  6  0  0  0
  9 10  1  0  0  0  0
 10  6  1  0  0  0  0
 10  1  1  0  0  0  0
 11  9  1  0  0  0  0
 11  7  1  0  0  0  0
 12  2  2  0  0  0  0
 12 13  1  0  0  0  0
 13 14  1  0  0  0  0
 14 16  1  0  0  0  0
 15 17  1  0  0  0  0
 17 16  1  0  0  0  0
 17  1  1  0  0  0  0
 18 13  1  0  0  0  0
 19 18  1  0  0  0  0
 20 19  1  0  0  0  0
 20 18  1  0  0  0  0
 21 33  1  0  0  0  0
 22 28  1  0  0  0  0
 23 31  1  0  0  0  0
 24 29  1  0  0  0  0
 25 27  1  0  0  0  0
 26 32  1  0  0  0  0
 26 24  2  0  0  0  0
 28 26  1  0  0  0  0
 29 27  1  0  0  0  0
 30 32  1  0  0  0  0
 31 28  2  0  0  0  0
 31 30  1  0  0  0  0
 32 25  2  0  0  0  0
 33 34  1  0  0  0  0
 33 23  2  0  0  0  0
 34 22  2  0  0  0  0
M  END
>  <MODEL>
6

>  <REMARK>
 VINA RESULT:      -8.6      1.844      2.727
  Name = 
  3 active torsions:
  status: ('A' for Active; 'I' for Inactive)
    1  A    between atoms: N_3  and  C_25
    2  A    between atoms: C_8  and  C_18
    3  A    between atoms: C_18  and  C_30
                            x       y       z     vdW  Elec       q    Type
                         _______ _______ _______ _____ _____    ______ ____

>  <TORSDO>
F 3

$$$$
=
 OpenBabel11052416003D

 34 41  0  0  1  0  0  0  0  0999 V2000
  186.7560  176.6570  135.3390 C   0  0  2  0  0  3  0  0  0  0  0  0
  189.1360  174.0240  136.7340 C   0  0  0  0  0  3  0  0  0  0  0  0
  186.7670  174.5400  137.1950 C   0  0  0  0  0  2  0  0  0  0  0  0
  185.7760  177.4410  137.5200 C   0  0  2  0  0  3  0  0  0  0  0  0
  186.4730  177.8710  136.2420 C   0  0  0  0  0  2  0  0  0  0  0  0
  184.2890  176.1030  135.8940 C   0  0  1  0  0  3  0  0  0  0  0  0
  183.2800  174.6340  136.1140 S   0  0  0  0  0  0  0  0  0  0  0  0
  184.3910  176.8540  137.2310 C   0  0  0  0  0  2  0  0  0  0  0  0
  185.9880  174.3180  135.9760 N   0  0  2  0  0  0  0  0  0  0  0  0
  185.6190  175.6000  135.3510 C   0  0  2  0  0  3  0  0  0  0  0  0
  184.7710  173.6140  136.3690 C   0  0  0  0  0  2  0  0  0  0  0  0
  190.4520  174.2300  136.6010 C   0  0  0  0  0  3  0  0  0  0  0  0
  191.0760  175.5990  136.5770 C   0  0  2  0  0  3  0  0  0  0  0  0
  190.6080  176.3700  135.3450 C   0  0  0  0  0  2  0  0  0  0  0  0
  188.1420  175.1370  136.8740 C   0  0  2  0  0  3  0  0  0  0  0  0
  189.2560  177.0280  135.5880 C   0  0  0  0  0  2  0  0  0  0  0  0
  188.1220  176.0040  135.6010 C   0  0  2  0  0  3  0  0  0  0  0  0
  192.5260  175.4670  136.5500 N   0  0  0  0  0  0  0  0  0  0  0  0
  193.0500  176.1130  137.7670 C   0  0  0  0  0  2  0  0  0  0  0  0
  192.9110  174.6660  137.7230 C   0  0  0  0  0  2  0  0  0  0  0  0
  185.6850  178.6040  138.4940 C   0  0  0  0  0  2  0  0  0  0  0  0
  187.0130  178.4780  142.0550 C   0  0  0  0  0  3  0  0  0  0  0  0
  187.9280  177.9770  139.4210 C   0  0  0  0  0  3  0  0  0  0  0  0
  189.4360  177.9120  144.0540 C   0  0  0  0  0  3  0  0  0  0  0  0
  191.6240  177.0160  142.5110 N   0  0  0  0  0  0  0  0  0  0  0  0
  189.3980  177.8310  142.7300 C   0  0  0  0  0  0  0  0  0  0  0  0
  191.7270  177.0300  143.8950 O   0  0  0  0  0  0  0  0  0  0  0  0
  188.3140  178.0530  141.8050 C   0  0  0  0  0  0  0  0  0  0  0  0
  190.7640  177.6950  144.7400 C   0  0  0  0  0  2  0  0  0  0  0  0
  190.2160  177.3880  140.4840 C   0  0  0  0  0  2  0  0  0  0  0  0
  188.7730  177.8110  140.5170 C   0  0  0  0  0  0  0  0  0  0  0  0
  190.5350  177.4270  141.9460 C   0  0  0  0  0  0  0  0  0  0  0  0
  186.6030  178.3890  139.6490 C   0  0  0  0  0  0  0  0  0  0  0  0
  186.1530  178.6430  140.9590 C   0  0  0  0  0  3  0  0  0  0  0  0
  1 10  1  0  0  0  0
  1 17  1  0  0  0  0
  1  5  1  1  0  0  0
  2 15  1  0  0  0  0
  4 21  1  1  0  0  0
  5  4  1  0  0  0  0
  6  7  1  0  0  0  0
  6  8  1  1  0  0  0
  7 11  1  0  0  0  0
  8  4  1  0  0  0  0
  9 11  1  1  0  0  0
  9  3  1  0  0  0  0
 10  6  1  0  0  0  0
 10  9  1  0  0  0  0
 12  2  2  0  0  0  0
 13 12  1  0  0  0  0
 14 16  1  0  0  0  0
 14 13  1  0  0  0  0
 15  3  1  0  0  0  0
 16 17  1  0  0  0  0
 17 15  1  0  0  0  0
 18 13  1  0  0  0  0
 18 20  1  0  0  0  0
 18 19  1  0  0  0  0
 20 19  1  0  0  0  0
 21 33  1  0  0  0  0
 23 33  2  0  0  0  0
 23 31  1  0  0  0  0
 24 29  1  0  0  0  0
 25 27  1  0  0  0  0
 26 24  2  0  0  0  0
 27 29  1  0  0  0  0
 28 22  1  0  0  0  0
 28 26  1  0  0  0  0
 30 31  1  0  0  0  0
 30 32  1  0  0  0  0
 31 28  2  0  0  0  0
 32 25  2  0  0  0  0
 32 26  1  0  0  0  0
 33 34  1  0  0  0  0
 34 22  2  0  0  0  0
M  END
>  <MODEL>
7

>  <REMARK>
 VINA RESULT:      -8.6      5.789      8.559
  Name = 
  3 active torsions:
  status: ('A' for Active; 'I' for Inactive)
    1  A    between atoms: N_3  and  C_25
    2  A    between atoms: C_8  and  C_18
    3  A    between atoms: C_18  and  C_30
                            x       y       z     vdW  Elec       q    Type
                         _______ _______ _______ _____ _____    ______ ____

>  <TORSDO>
F 3

$$$$
=
 OpenBabel11052416003D

 34 41  0  0  1  0  0  0  0  0999 V2000
  187.7270  176.5220  145.2960 C   0  0  2  0  0  3  0  0  0  0  0  0
  190.9270  178.0940  143.9430 C   0  0  0  0  0  3  0  0  0  0  0  0
  189.4350  178.7000  145.8130 C   0  0  0  0  0  2  0  0  0  0  0  0
  186.3670  178.6270  145.5230 C   0  0  2  0  0  3  0  0  0  0  0  0
  186.4100  177.2300  144.9310 C   0  0  0  0  0  2  0  0  0  0  0  0
  187.1510  177.4130  147.6570 C   0  0  1  0  0  3  0  0  0  0  0  0
  188.0410  177.9820  149.1110 S   0  0  0  0  0  0  0  0  0  0  0  0
  186.3610  178.5850  147.0540 C   0  0  0  0  0  2  0  0  0  0  0  0
  189.4550  177.6230  146.8030 N   0  0  2  0  0  0  0  0  0  0  0  0
  188.2150  176.8300  146.7380 C   0  0  2  0  0  3  0  0  0  0  0  0
  189.5470  178.2530  148.1170 C   0  0  0  0  0  2  0  0  0  0  0  0
  191.2960  177.7940  142.6910 C   0  0  0  0  0  3  0  0  0  0  0  0
  190.3170  177.4750  141.5950 C   0  0  2  0  0  3  0  0  0  0  0  0
  189.5680  176.1840  141.9180 C   0  0  0  0  0  2  0  0  0  0  0  0
  189.4960  178.1440  144.3860 C   0  0  2  0  0  3  0  0  0  0  0  0
  188.3900  176.4480  142.8460 C   0  0  0  0  0  2  0  0  0  0  0  0
  188.8490  176.7500  144.2720 C   0  0  2  0  0  3  0  0  0  0  0  0
  191.0360  177.3220  140.3380 N   0  0  0  0  0  0  0  0  0  0  0  0
  190.2300  176.4380  139.4760 C   0  0  0  0  0  2  0  0  0  0  0  0
  190.1790  177.8790  139.2780 C   0  0  0  0  0  2  0  0  0  0  0  0
  185.1660  179.3930  144.9930 C   0  0  0  0  0  2  0  0  0  0  0  0
  183.4460  178.4950  141.7230 C   0  0  0  0  0  3  0  0  0  0  0  0
  186.0560  179.0460  142.6750 C   0  0  0  0  0  3  0  0  0  0  0  0
  183.6600  177.8630  138.6010 C   0  0  0  0  0  3  0  0  0  0  0  0
  186.3650  178.1670  137.8520 N   0  0  0  0  0  0  0  0  0  0  0  0
  184.6190  178.1560  139.4700 C   0  0  0  0  0  0  0  0  0  0  0  0
  185.4130  177.9030  136.8770 O   0  0  0  0  0  0  0  0  0  0  0  0
  184.5500  178.4730  140.8760 C   0  0  0  0  0  0  0  0  0  0  0  0
  184.0660  177.4940  137.1940 C   0  0  0  0  0  2  0  0  0  0  0  0
  186.8720  178.6280  140.2530 C   0  0  0  0  0  2  0  0  0  0  0  0
  185.8340  178.7360  141.3350 C   0  0  0  0  0  0  0  0  0  0  0  0
  186.0040  178.2550  139.0910 C   0  0  0  0  0  0  0  0  0  0  0  0
  184.9540  179.0930  143.5480 C   0  0  0  0  0  0  0  0  0  0  0  0
  183.6590  178.8120  143.0720 C   0  0  0  0  0  3  0  0  0  0  0  0
  1  5  1  6  0  0  0
  1 10  1  0  0  0  0
  2 15  1  0  0  0  0
  4 21  1  6  0  0  0
  4  8  1  0  0  0  0
  5  4  1  0  0  0  0
  6  8  1  6  0  0  0
  6  7  1  0  0  0  0
  9  3  1  6  0  0  0
  9 11  1  0  0  0  0
 10  9  1  0  0  0  0
 10  6  1  0  0  0  0
 11  7  1  0  0  0  0
 12  2  2  0  0  0  0
 13 14  1  0  0  0  0
 13 12  1  0  0  0  0
 14 16  1  0  0  0  0
 15  3  1  0  0  0  0
 16 17  1  0  0  0  0
 17 15  1  0  0  0  0
 17  1  1  0  0  0  0
 18 13  1  0  0  0  0
 19 18  1  0  0  0  0
 20 19  1  0  0  0  0
 20 18  1  0  0  0  0
 22 34  1  0  0  0  0
 23 33  1  0  0  0  0
 24 26  2  0  0  0  0
 25 32  2  0  0  0  0
 26 28  1  0  0  0  0
 27 29  1  0  0  0  0
 27 25  1  0  0  0  0
 28 31  1  0  0  0  0
 28 22  2  0  0  0  0
 29 24  1  0  0  0  0
 30 31  1  0  0  0  0
 31 23  2  0  0  0  0
 32 26  1  0  0  0  0
 32 30  1  0  0  0  0
 33 21  1  0  0  0  0
 34 33  2  0  0  0  0
M  END
>  <MODEL>
8

>  <REMARK>
 VINA RESULT:      -8.5      4.866      9.397
  Name = 
  3 active torsions:
  status: ('A' for Active; 'I' for Inactive)
    1  A    between atoms: N_3  and  C_25
    2  A    between atoms: C_8  and  C_18
    3  A    between atoms: C_18  and  C_30
                            x       y       z     vdW  Elec       q    Type
                         _______ _______ _______ _____ _____    ______ ____

>  <TORSDO>
F 3

$$$$
=
 OpenBabel11052416003D

 34 41  0  0  1  0  0  0  0  0999 V2000
  187.5990  176.6580  145.0730 C   0  0  2  0  0  3  0  0  0  0  0  0
  190.9290  178.0720  143.8680 C   0  0  0  0  0  3  0  0  0  0  0  0
  189.4420  178.6770  145.7420 C   0  0  0  0  0  2  0  0  0  0  0  0
  186.3830  178.8370  145.3950 C   0  0  2  0  0  3  0  0  0  0  0  0
  186.3420  177.4750  144.7250 C   0  0  0  0  0  2  0  0  0  0  0  0
  187.0350  177.4550  147.4700 C   0  0  1  0  0  3  0  0  0  0  0  0
  187.9300  177.8780  148.9690 S   0  0  0  0  0  0  0  0  0  0  0  0
  186.3420  178.7110  146.9210 C   0  0  0  0  0  2  0  0  0  0  0  0
  189.3660  177.5480  146.6710 N   0  0  2  0  0  0  0  0  0  0  0  0
  188.0760  176.8500  146.5380 C   0  0  2  0  0  3  0  0  0  0  0  0
  189.4730  178.0960  148.0190 C   0  0  0  0  0  2  0  0  0  0  0  0
  191.3030  177.8170  142.6080 C   0  0  0  0  0  3  0  0  0  0  0  0
  190.3280  177.6280  141.4790 C   0  0  2  0  0  3  0  0  0  0  0  0
  189.4850  176.3780  141.7140 C   0  0  0  0  0  2  0  0  0  0  0  0
  189.4960  178.1980  144.2880 C   0  0  2  0  0  3  0  0  0  0  0  0
  188.3080  176.6720  142.6350 C   0  0  0  0  0  2  0  0  0  0  0  0
  188.7560  176.8620  144.0830 C   0  0  2  0  0  3  0  0  0  0  0  0
  191.0610  177.4950  140.2270 N   0  0  0  0  0  0  0  0  0  0  0  0
  190.3740  176.4690  139.4220 C   0  0  0  0  0  2  0  0  0  0  0  0
  190.1420  177.8780  139.1430 C   0  0  0  0  0  2  0  0  0  0  0  0
  185.2500  179.7140  144.8880 C   0  0  0  0  0  2  0  0  0  0  0  0
  185.4730  179.0030  141.1590 C   0  0  0  0  0  3  0  0  0  0  0  0
  183.5330  178.9670  143.2220 C   0  0  0  0  0  3  0  0  0  0  0  0
  184.0300  178.1360  138.4470 C   0  0  0  0  0  3  0  0  0  0  0  0
  181.3400  177.5420  139.0640 N   0  0  0  0  0  0  0  0  0  0  0  0
  183.5220  178.2800  139.6640 C   0  0  0  0  0  0  0  0  0  0  0  0
  181.8080  177.3230  137.7760 O   0  0  0  0  0  0  0  0  0  0  0  0
  184.1520  178.6420  140.9100 C   0  0  0  0  0  0  0  0  0  0  0  0
  183.0810  177.8220  137.3150 C   0  0  0  0  0  2  0  0  0  0  0  0
  181.8320  178.2350  141.4110 C   0  0  0  0  0  2  0  0  0  0  0  0
  183.1930  178.6280  141.9140 C   0  0  0  0  0  0  0  0  0  0  0  0
  182.1360  178.0290  139.9600 C   0  0  0  0  0  0  0  0  0  0  0  0
  184.8650  179.3180  143.5030 C   0  0  0  0  0  0  0  0  0  0  0  0
  185.8260  179.3400  142.4740 C   0  0  0  0  0  3  0  0  0  0  0  0
  1  5  1  6  0  0  0
  1 10  1  0  0  0  0
  2 15  1  0  0  0  0
  4 21  1  6  0  0  0
  4  8  1  0  0  0  0
  5  4  1  0  0  0  0
  6  8  1  6  0  0  0
  6  7  1  0  0  0  0
  9  3  1  6  0  0  0
  9 11  1  0  0  0  0
 10  9  1  0  0  0  0
 10  6  1  0  0  0  0
 11  7  1  0  0  0  0
 12  2  2  0  0  0  0
 13 14  1  0  0  0  0
 13 12  1  0  0  0  0
 14 16  1  0  0  0  0
 15  3  1  0  0  0  0
 16 17  1  0  0  0  0
 17 15  1  0  0  0  0
 17  1  1  0  0  0  0
 18 13  1  0  0  0  0
 19 18  1  0  0  0  0
 20 19  1  0  0  0  0
 20 18  1  0  0  0  0
 22 34  1  0  0  0  0
 23 33  1  0  0  0  0
 24 26  2  0  0  0  0
 25 32  2  0  0  0  0
 26 32  1  0  0  0  0
 26 28  1  0  0  0  0
 27 25  1  0  0  0  0
 28 22  2  0  0  0  0
 28 31  1  0  0  0  0
 29 27  1  0  0  0  0
 29 24  1  0  0  0  0
 30 31  1  0  0  0  0
 31 23  2  0  0  0  0
 32 30  1  0  0  0  0
 33 21  1  0  0  0  0
 34 33  2  0  0  0  0
M  END
>  <MODEL>
9

>  <REMARK>
 VINA RESULT:      -8.4      4.321      9.387
  Name = 
  3 active torsions:
  status: ('A' for Active; 'I' for Inactive)
    1  A    between atoms: N_3  and  C_25
    2  A    between atoms: C_8  and  C_18
    3  A    between atoms: C_18  and  C_30
                            x       y       z     vdW  Elec       q    Type
                         _______ _______ _______ _____ _____    ______ ____

>  <TORSDO>
F 3

$$$$
