=
 OpenBabel11052413543D

 27 31  0  0  1  0  0  0  0  0999 V2000
  187.0390  178.1880  142.5230 N   0  0  0  0  0  0  0  0  0  0  0  0
  185.9880  178.5480  140.4260 C   0  0  0  0  0  0  0  0  0  0  0  0
  183.5060  179.0450  143.1190 C   0  0  0  0  0  3  0  0  0  0  0  0
  185.8470  178.6500  139.0190 N   0  0  0  0  0  0  0  0  0  0  0  0
  184.6240  178.6700  145.2490 C   0  0  0  0  0  0  0  0  0  0  0  0
  187.1450  178.2290  141.1590 C   0  0  0  0  0  0  0  0  0  0  0  0
  183.7720  179.1050  140.0190 C   0  0  1  0  0  3  0  0  0  0  0  0
  185.8690  178.4500  143.1780 C   0  0  0  0  0  0  0  0  0  0  0  0
  184.8010  178.8050  141.0570 C   0  0  0  0  0  0  0  0  0  0  0  0
  183.4690  178.9930  144.5150 C   0  0  0  0  0  3  0  0  0  0  0  0
  184.6120  178.9640  138.7720 C   0  0  0  0  0  3  0  0  0  0  0  0
  185.8190  178.4000  144.5740 C   0  0  0  0  0  3  0  0  0  0  0  0
  184.7020  178.7740  142.4480 C   0  0  0  0  0  0  0  0  0  0  0  0
  182.8580  176.7580  139.6950 C   0  0  0  0  0  3  0  0  0  0  0  0
  180.5470  176.3080  140.0950 N   0  0  0  0  0  0  0  0  0  0  0  0
  180.3230  177.6080  140.4260 C   0  0  0  0  0  3  0  0  0  0  0  0
  181.3720  178.5290  140.4010 C   0  0  0  0  0  3  0  0  0  0  0  0
  182.6510  178.1050  140.0320 C   0  0  0  0  0  0  0  0  0  0  0  0
  181.7830  175.8690  139.7340 C   0  0  0  0  0  3  0  0  0  0  0  0
  190.8700  177.1180  139.3110 C   0  0  0  0  0  3  0  0  0  0  0  0
  188.4510  177.9320  140.5170 C   0  0  0  0  0  0  0  0  0  0  0  0
  188.8610  178.5760  139.2150 C   0  0  0  0  0  2  0  0  0  0  0  0
  189.7960  177.6690  138.4160 C   0  0  0  0  0  2  0  0  0  0  0  0
  190.6190  176.8620  140.5600 N   0  0  0  0  0  0  0  0  0  0  0  0
  189.3450  177.1620  141.1540 C   0  0  0  0  0  3  0  0  0  0  0  0
  185.7950  178.6440  147.4290 C   0  0  0  0  0  1  0  0  0  0  0  0
  184.6100  178.6110  146.6460 O   0  0  0  0  0  0  0  0  0  0  0  0
  1  8  1  0  0  0  0
  2  9  2  0  0  0  0
  2  6  1  0  0  0  0
  3 10  1  0  0  0  0
  4  2  1  0  0  0  0
  5 27  1  0  0  0  0
  6  1  2  0  0  0  0
  7 18  1  6  0  0  0
  7  9  1  0  0  0  0
  8 12  2  0  0  0  0
  9 13  1  0  0  0  0
 10  5  2  0  0  0  0
 11  4  2  0  0  0  0
 11  7  1  0  0  0  0
 12  5  1  0  0  0  0
 13  3  2  0  0  0  0
 13  8  1  0  0  0  0
 14 19  2  0  0  0  0
 14 18  1  0  0  0  0
 15 16  2  0  0  0  0
 17 16  1  0  0  0  0
 18 17  2  0  0  0  0
 19 15  1  0  0  0  0
 20 24  2  0  0  0  0
 21 25  2  0  0  0  0
 21  6  1  0  0  0  0
 22 21  1  0  0  0  0
 23 22  1  0  0  0  0
 23 20  1  0  0  0  0
 24 25  1  0  0  0  0
 27 26  1  0  0  0  0
M  END
>  <MODEL>
1

>  <REMARK>
 VINA RESULT:      -8.4      0.000      0.000
  Name = 
  3 active torsions:
  status: ('A' for Active; 'I' for Inactive)
    1  A    between atoms: C_9  and  C_15
    2  A    between atoms: C_13  and  O_22
    3  A    between atoms: C_14  and  C_17
                            x       y       z     vdW  Elec       q    Type
                         _______ _______ _______ _____ _____    ______ ____

>  <TORSDO>
F 3

$$$$
=
 OpenBabel11052413543D

 27 31  0  0  1  0  0  0  0  0999 V2000
  187.3930  177.5460  143.2470 N   0  0  0  0  0  0  0  0  0  0  0  0
  188.8760  177.7110  141.4010 C   0  0  0  0  0  0  0  0  0  0  0  0
  185.5300  178.8920  140.3690 C   0  0  0  0  0  3  0  0  0  0  0  0
  190.0840  177.6180  140.6650 N   0  0  0  0  0  0  0  0  0  0  0  0
  184.0430  178.7090  142.2880 C   0  0  0  0  0  0  0  0  0  0  0  0
  188.6560  177.3710  142.7480 C   0  0  0  0  0  0  0  0  0  0  0  0
  188.4030  178.4580  139.2560 C   0  0  1  0  0  3  0  0  0  0  0  0
  186.3660  178.0380  142.4930 C   0  0  0  0  0  0  0  0  0  0  0  0
  187.8620  178.1970  140.6210 C   0  0  0  0  0  0  0  0  0  0  0  0
  184.2660  179.0530  140.9430 C   0  0  0  0  0  3  0  0  0  0  0  0
  189.8380  178.0360  139.4600 C   0  0  0  0  0  3  0  0  0  0  0  0
  185.0970  178.2030  143.0560 C   0  0  0  0  0  3  0  0  0  0  0  0
  186.5800  178.3850  141.1390 C   0  0  0  0  0  0  0  0  0  0  0  0
  186.6720  178.0960  137.4330 C   0  0  0  0  0  3  0  0  0  0  0  0
  186.5530  176.0010  136.2950 N   0  0  0  0  0  0  0  0  0  0  0  0
  187.5790  175.5070  137.0390 C   0  0  0  0  0  3  0  0  0  0  0  0
  188.1870  176.3040  138.0110 C   0  0  0  0  0  3  0  0  0  0  0  0
  187.7320  177.6100  138.2130 C   0  0  0  0  0  0  0  0  0  0  0  0
  186.0920  177.2680  136.4710 C   0  0  0  0  0  3  0  0  0  0  0  0
  191.9200  175.9090  145.1420 C   0  0  0  0  0  3  0  0  0  0  0  0
  189.7220  176.8310  143.6290 C   0  0  0  0  0  0  0  0  0  0  0  0
  189.7580  177.1320  145.1080 C   0  0  0  0  0  2  0  0  0  0  0  0
  191.1910  177.1220  145.6420 C   0  0  0  0  0  2  0  0  0  0  0  0
  191.6570  175.4210  143.9670 N   0  0  0  0  0  0  0  0  0  0  0  0
  190.6180  175.9630  143.1360 C   0  0  0  0  0  3  0  0  0  0  0  0
  182.5990  178.8650  144.2910 C   0  0  0  0  0  1  0  0  0  0  0  0
  182.7870  178.8610  142.8830 O   0  0  0  0  0  0  0  0  0  0  0  0
  2  6  2  0  0  0  0
  3 10  2  0  0  0  0
  3 13  1  0  0  0  0
  4  2  1  0  0  0  0
  5 27  1  0  0  0  0
  5 12  2  0  0  0  0
  6  1  1  0  0  0  0
  6 21  1  0  0  0  0
  7 18  1  6  0  0  0
  7 11  1  0  0  0  0
  7  9  1  0  0  0  0
  8 12  1  0  0  0  0
  8  1  2  0  0  0  0
  9 13  2  0  0  0  0
  9  2  1  0  0  0  0
 10  5  1  0  0  0  0
 11  4  2  0  0  0  0
 13  8  1  0  0  0  0
 14 18  1  0  0  0  0
 15 19  1  0  0  0  0
 15 16  2  0  0  0  0
 16 17  1  0  0  0  0
 17 18  2  0  0  0  0
 19 14  2  0  0  0  0
 20 23  1  0  0  0  0
 21 22  1  0  0  0  0
 22 23  1  0  0  0  0
 24 20  2  0  0  0  0
 25 21  2  0  0  0  0
 25 24  1  0  0  0  0
 27 26  1  0  0  0  0
M  END
>  <MODEL>
2

>  <REMARK>
 VINA RESULT:      -7.8      2.607      4.720
  Name = 
  3 active torsions:
  status: ('A' for Active; 'I' for Inactive)
    1  A    between atoms: C_9  and  C_15
    2  A    between atoms: C_13  and  O_22
    3  A    between atoms: C_14  and  C_17
                            x       y       z     vdW  Elec       q    Type
                         _______ _______ _______ _____ _____    ______ ____

>  <TORSDO>
F 3

$$$$
=
 OpenBabel11052413543D

 27 31  0  0  1  0  0  0  0  0999 V2000
  190.8040  176.3810  140.0420 N   0  0  0  0  0  0  0  0  0  0  0  0
  189.8790  177.1760  138.0070 C   0  0  0  0  0  0  0  0  0  0  0  0
  187.6910  178.1970  140.8050 C   0  0  0  0  0  3  0  0  0  0  0  0
  189.7570  177.4110  136.6140 N   0  0  0  0  0  0  0  0  0  0  0  0
  188.6760  177.3650  142.8710 C   0  0  0  0  0  0  0  0  0  0  0  0
  190.8990  176.4820  138.6810 C   0  0  0  0  0  0  0  0  0  0  0  0
  187.9220  178.3870  137.7080 C   0  0  1  0  0  3  0  0  0  0  0  0
  189.7730  176.9300  140.7500 C   0  0  0  0  0  0  0  0  0  0  0  0
  188.8300  177.7280  138.6910 C   0  0  0  0  0  0  0  0  0  0  0  0
  187.6590  178.0630  142.1960 C   0  0  0  0  0  3  0  0  0  0  0  0
  188.6670  178.0910  136.4280 C   0  0  0  0  0  3  0  0  0  0  0  0
  189.7290  176.8020  142.1420 C   0  0  0  0  0  3  0  0  0  0  0  0
  188.7450  177.6330  140.0800 C   0  0  0  0  0  0  0  0  0  0  0  0
  185.4390  178.4180  138.2370 C   0  0  0  0  0  3  0  0  0  0  0  0
  184.0620  176.5660  137.6240 N   0  0  0  0  0  0  0  0  0  0  0  0
  185.1310  175.9110  137.0940 C   0  0  0  0  0  3  0  0  0  0  0  0
  186.3970  176.5000  137.1200 C   0  0  0  0  0  3  0  0  0  0  0  0
  186.5560  177.7630  137.6960 C   0  0  0  0  0  0  0  0  0  0  0  0
  184.1910  177.7960  138.1900 C   0  0  0  0  0  3  0  0  0  0  0  0
  194.3760  174.7080  136.8660 C   0  0  0  0  0  3  0  0  0  0  0  0
  192.0510  175.8580  137.9800 C   0  0  0  0  0  0  0  0  0  0  0  0
  191.9430  174.5030  137.3250 C   0  0  0  0  0  2  0  0  0  0  0  0
  193.2890  173.7770  137.3220 C   0  0  0  0  0  2  0  0  0  0  0  0
  194.3170  175.9760  137.1440 N   0  0  0  0  0  0  0  0  0  0  0  0
  193.1880  176.5520  137.8210 C   0  0  0  0  0  3  0  0  0  0  0  0
  187.5390  177.5590  145.0590 C   0  0  0  0  0  1  0  0  0  0  0  0
  188.6630  177.2180  144.2610 O   0  0  0  0  0  0  0  0  0  0  0  0
  1  8  1  0  0  0  0
  2  6  1  0  0  0  0
  2  9  2  0  0  0  0
  3 10  1  0  0  0  0
  4  2  1  0  0  0  0
  5 27  1  0  0  0  0
  6  1  2  0  0  0  0
  7 18  1  6  0  0  0
  7  9  1  0  0  0  0
  8 12  2  0  0  0  0
  9 13  1  0  0  0  0
 10  5  2  0  0  0  0
 11  4  2  0  0  0  0
 11  7  1  0  0  0  0
 12  5  1  0  0  0  0
 13  8  1  0  0  0  0
 13  3  2  0  0  0  0
 15 19  2  0  0  0  0
 16 17  2  0  0  0  0
 16 15  1  0  0  0  0
 17 18  1  0  0  0  0
 18 14  2  0  0  0  0
 19 14  1  0  0  0  0
 20 24  2  0  0  0  0
 20 23  1  0  0  0  0
 21  6  1  0  0  0  0
 22 21  1  0  0  0  0
 23 22  1  0  0  0  0
 24 25  1  0  0  0  0
 25 21  2  0  0  0  0
 27 26  1  0  0  0  0
M  END
>  <MODEL>
3

>  <REMARK>
 VINA RESULT:      -7.4      2.913      4.850
  Name = 
  3 active torsions:
  status: ('A' for Active; 'I' for Inactive)
    1  A    between atoms: C_9  and  C_15
    2  A    between atoms: C_13  and  O_22
    3  A    between atoms: C_14  and  C_17
                            x       y       z     vdW  Elec       q    Type
                         _______ _______ _______ _____ _____    ______ ____

>  <TORSDO>
F 3

$$$$
=
 OpenBabel11052413543D

 27 31  0  0  1  0  0  0  0  0999 V2000
  187.3030  177.9260  142.6290 N   0  0  0  0  0  0  0  0  0  0  0  0
  188.6670  177.9960  140.6880 C   0  0  0  0  0  0  0  0  0  0  0  0
  185.1820  178.7840  139.7410 C   0  0  0  0  0  3  0  0  0  0  0  0
  189.8370  177.9150  139.8930 N   0  0  0  0  0  0  0  0  0  0  0  0
  183.8190  178.7040  141.7570 C   0  0  0  0  0  0  0  0  0  0  0  0
  188.5470  177.7950  142.0750 C   0  0  0  0  0  0  0  0  0  0  0  0
  188.0190  178.4540  138.5070 C   0  0  1  0  0  3  0  0  0  0  0  0
  186.1990  178.2470  141.8900 C   0  0  0  0  0  0  0  0  0  0  0  0
  187.5750  178.3080  139.9240 C   0  0  0  0  0  0  0  0  0  0  0  0
  183.9410  178.9100  140.3710 C   0  0  0  0  0  3  0  0  0  0  0  0
  189.4940  178.1720  138.6670 C   0  0  0  0  0  3  0  0  0  0  0  0
  184.9520  178.3740  142.5090 C   0  0  0  0  0  3  0  0  0  0  0  0
  186.3110  178.4530  140.4950 C   0  0  0  0  0  0  0  0  0  0  0  0
  187.6960  176.0790  137.6690 C   0  0  0  0  0  3  0  0  0  0  0  0
  186.1220  175.6270  135.9320 N   0  0  0  0  0  0  0  0  0  0  0  0
  185.7890  176.9430  135.8530 C   0  0  0  0  0  3  0  0  0  0  0  0
  186.4080  177.8740  136.6900 C   0  0  0  0  0  3  0  0  0  0  0  0
  187.3700  177.4430  137.6060 C   0  0  0  0  0  0  0  0  0  0  0  0
  187.0540  175.1800  136.8160 C   0  0  0  0  0  3  0  0  0  0  0  0
  191.7260  176.7660  144.7880 C   0  0  0  0  0  3  0  0  0  0  0  0
  189.7000  177.4450  142.9420 C   0  0  0  0  0  0  0  0  0  0  0  0
  190.6190  176.2920  142.6150 C   0  0  0  0  0  2  0  0  0  0  0  0
  191.2170  175.6810  143.8830 C   0  0  0  0  0  2  0  0  0  0  0  0
  191.1250  177.9180  144.8380 N   0  0  0  0  0  0  0  0  0  0  0  0
  190.0130  178.2300  143.9840 C   0  0  0  0  0  3  0  0  0  0  0  0
  182.4750  178.9700  143.8170 C   0  0  0  0  0  1  0  0  0  0  0  0
  182.5880  178.8240  142.4080 O   0  0  0  0  0  0  0  0  0  0  0  0
  2  6  2  0  0  0  0
  3 10  2  0  0  0  0
  3 13  1  0  0  0  0
  4  2  1  0  0  0  0
  5 27  1  0  0  0  0
  5 12  2  0  0  0  0
  6  1  1  0  0  0  0
  6 21  1  0  0  0  0
  7 18  1  6  0  0  0
  7 11  1  0  0  0  0
  7  9  1  0  0  0  0
  8 12  1  0  0  0  0
  8  1  2  0  0  0  0
  9 13  2  0  0  0  0
  9  2  1  0  0  0  0
 10  5  1  0  0  0  0
 11  4  2  0  0  0  0
 13  8  1  0  0  0  0
 15 19  1  0  0  0  0
 16 15  2  0  0  0  0
 16 17  1  0  0  0  0
 17 18  2  0  0  0  0
 18 14  1  0  0  0  0
 19 14  2  0  0  0  0
 20 24  2  0  0  0  0
 21 25  2  0  0  0  0
 22 21  1  0  0  0  0
 22 23  1  0  0  0  0
 23 20  1  0  0  0  0
 25 24  1  0  0  0  0
 27 26  1  0  0  0  0
M  END
>  <MODEL>
4

>  <REMARK>
 VINA RESULT:      -7.3      2.612      4.485
  Name = 
  3 active torsions:
  status: ('A' for Active; 'I' for Inactive)
    1  A    between atoms: C_9  and  C_15
    2  A    between atoms: C_13  and  O_22
    3  A    between atoms: C_14  and  C_17
                            x       y       z     vdW  Elec       q    Type
                         _______ _______ _______ _____ _____    ______ ____

>  <TORSDO>
F 3

$$$$
=
 OpenBabel11052413543D

 27 31  0  0  1  0  0  0  0  0999 V2000
  186.5270  178.6050  140.9070 N   0  0  0  0  0  0  0  0  0  0  0  0
  188.5360  177.3430  140.9390 C   0  0  0  0  0  0  0  0  0  0  0  0
  187.1190  177.4370  144.3500 C   0  0  0  0  0  3  0  0  0  0  0  0
  189.7120  176.7200  140.4510 N   0  0  0  0  0  0  0  0  0  0  0  0
  185.0610  178.7370  144.2730 C   0  0  0  0  0  0  0  0  0  0  0  0
  187.5930  178.0950  140.2160 C   0  0  0  0  0  0  0  0  0  0  0  0
  189.5430  176.3120  142.7580 C   0  0  1  0  0  3  0  0  0  0  0  0
  186.3540  178.4030  142.2470 C   0  0  0  0  0  0  0  0  0  0  0  0
  188.3920  177.1350  142.2830 C   0  0  0  0  0  0  0  0  0  0  0  0
  186.0030  177.9810  144.9940 C   0  0  0  0  0  3  0  0  0  0  0  0
  190.2890  176.1340  141.4560 C   0  0  0  0  0  3  0  0  0  0  0  0
  185.2430  178.9430  142.9020 C   0  0  0  0  0  3  0  0  0  0  0  0
  187.2980  177.6460  142.9800 C   0  0  0  0  0  0  0  0  0  0  0  0
  190.6460  176.5110  145.0360 C   0  0  0  0  0  3  0  0  0  0  0  0
  191.9510  178.4390  145.5690 N   0  0  0  0  0  0  0  0  0  0  0  0
  191.7080  178.9770  144.3430 C   0  0  0  0  0  3  0  0  0  0  0  0
  190.9190  178.2880  143.4200 C   0  0  0  0  0  3  0  0  0  0  0  0
  190.3820  177.0450  143.7650 C   0  0  0  0  0  0  0  0  0  0  0  0
  191.4400  177.2310  145.9300 C   0  0  0  0  0  3  0  0  0  0  0  0
  188.1320  178.6800  135.9860 C   0  0  0  0  0  3  0  0  0  0  0  0
  187.7120  178.3570  138.7600 C   0  0  0  0  0  0  0  0  0  0  0  0
  186.5270  178.2410  137.8310 C   0  0  0  0  0  2  0  0  0  0  0  0
  186.9630  177.8440  136.4210 C   0  0  0  0  0  2  0  0  0  0  0  0
  189.0130  179.0820  136.8540 N   0  0  0  0  0  0  0  0  0  0  0  0
  188.8690  178.8150  138.2580 C   0  0  0  0  0  3  0  0  0  0  0  0
  182.6180  179.1010  144.4100 C   0  0  0  0  0  1  0  0  0  0  0  0
  183.9390  179.2910  144.8960 O   0  0  0  0  0  0  0  0  0  0  0  0
  1  8  1  0  0  0  0
  2  9  2  0  0  0  0
  3 10  1  0  0  0  0
  4  2  1  0  0  0  0
  4 11  2  0  0  0  0
  5 27  1  0  0  0  0
  5 10  2  0  0  0  0
  6  1  2  0  0  0  0
  6  2  1  0  0  0  0
  7 18  1  1  0  0  0
  8 12  2  0  0  0  0
  8 13  1  0  0  0  0
  9  7  1  0  0  0  0
  9 13  1  0  0  0  0
 11  7  1  0  0  0  0
 12  5  1  0  0  0  0
 13  3  2  0  0  0  0
 14 19  1  0  0  0  0
 15 19  2  0  0  0  0
 16 15  1  0  0  0  0
 17 18  1  0  0  0  0
 17 16  2  0  0  0  0
 18 14  2  0  0  0  0
 20 23  1  0  0  0  0
 20 24  2  0  0  0  0
 21  6  1  0  0  0  0
 22 21  1  0  0  0  0
 23 22  1  0  0  0  0
 24 25  1  0  0  0  0
 25 21  2  0  0  0  0
 26 27  1  0  0  0  0
M  END
>  <MODEL>
5

>  <REMARK>
 VINA RESULT:      -7.3      2.769      6.070
  Name = 
  3 active torsions:
  status: ('A' for Active; 'I' for Inactive)
    1  A    between atoms: C_9  and  C_15
    2  A    between atoms: C_13  and  O_22
    3  A    between atoms: C_14  and  C_17
                            x       y       z     vdW  Elec       q    Type
                         _______ _______ _______ _____ _____    ______ ____

>  <TORSDO>
F 3

$$$$
=
 OpenBabel11052413543D

 27 31  0  0  1  0  0  0  0  0999 V2000
  187.0980  177.9670  142.3280 N   0  0  0  0  0  0  0  0  0  0  0  0
  188.5220  178.0040  140.4290 C   0  0  0  0  0  0  0  0  0  0  0  0
  185.0700  178.7830  139.3630 C   0  0  0  0  0  3  0  0  0  0  0  0
  189.7160  177.9090  139.6720 N   0  0  0  0  0  0  0  0  0  0  0  0
  183.6450  178.7370  141.3370 C   0  0  0  0  0  0  0  0  0  0  0  0
  188.3590  177.8250  141.8150 C   0  0  0  0  0  0  0  0  0  0  0  0
  187.9430  178.4290  138.2220 C   0  0  1  0  0  3  0  0  0  0  0  0
  186.0180  178.2780  141.5500 C   0  0  0  0  0  0  0  0  0  0  0  0
  187.4550  178.3060  139.6270 C   0  0  0  0  0  0  0  0  0  0  0  0
  183.8100  178.9200  139.9520 C   0  0  0  0  0  3  0  0  0  0  0  0
  189.4120  178.1470  138.4320 C   0  0  0  0  0  3  0  0  0  0  0  0
  184.7530  178.4170  142.1280 C   0  0  0  0  0  3  0  0  0  0  0  0
  186.1750  178.4620  140.1570 C   0  0  0  0  0  0  0  0  0  0  0  0
  186.4990  177.7700  136.2410 C   0  0  0  0  0  3  0  0  0  0  0  0
  186.2180  175.4660  135.6780 N   0  0  0  0  0  0  0  0  0  0  0  0
  187.0100  175.0880  136.7170 C   0  0  0  0  0  3  0  0  0  0  0  0
  187.5760  176.0510  137.5540 C   0  0  0  0  0  3  0  0  0  0  0  0
  187.3200  177.4040  137.3180 C   0  0  0  0  0  0  0  0  0  0  0  0
  185.9540  176.7770  135.4260 C   0  0  0  0  0  3  0  0  0  0  0  0
  191.7530  176.7650  144.2400 C   0  0  0  0  0  3  0  0  0  0  0  0
  189.4840  177.4870  142.7230 C   0  0  0  0  0  0  0  0  0  0  0  0
  190.0670  178.5010  143.6770 C   0  0  0  0  0  2  0  0  0  0  0  0
  191.5460  178.2230  143.9480 C   0  0  0  0  0  2  0  0  0  0  0  0
  191.0140  175.8660  143.6610 N   0  0  0  0  0  0  0  0  0  0  0  0
  189.9300  176.2230  142.7880 C   0  0  0  0  0  3  0  0  0  0  0  0
  181.1870  178.9820  141.2080 C   0  0  0  0  0  1  0  0  0  0  0  0
  182.3950  178.8680  141.9470 O   0  0  0  0  0  0  0  0  0  0  0  0
  2  6  2  0  0  0  0
  3 10  2  0  0  0  0
  3 13  1  0  0  0  0
  4  2  1  0  0  0  0
  5 27  1  0  0  0  0
  5 12  2  0  0  0  0
  6  1  1  0  0  0  0
  6 21  1  0  0  0  0
  7 18  1  6  0  0  0
  7 11  1  0  0  0  0
  7  9  1  0  0  0  0
  8 12  1  0  0  0  0
  8  1  2  0  0  0  0
  9 13  2  0  0  0  0
  9  2  1  0  0  0  0
 10  5  1  0  0  0  0
 11  4  2  0  0  0  0
 13  8  1  0  0  0  0
 14 18  1  0  0  0  0
 15 16  2  0  0  0  0
 16 17  1  0  0  0  0
 18 17  2  0  0  0  0
 19 15  1  0  0  0  0
 19 14  2  0  0  0  0
 21 25  2  0  0  0  0
 21 22  1  0  0  0  0
 22 23  1  0  0  0  0
 23 20  1  0  0  0  0
 24 20  2  0  0  0  0
 25 24  1  0  0  0  0
 26 27  1  0  0  0  0
M  END
>  <MODEL>
6

>  <REMARK>
 VINA RESULT:      -7.3      2.636      4.719
  Name = 
  3 active torsions:
  status: ('A' for Active; 'I' for Inactive)
    1  A    between atoms: C_9  and  C_15
    2  A    between atoms: C_13  and  O_22
    3  A    between atoms: C_14  and  C_17
                            x       y       z     vdW  Elec       q    Type
                         _______ _______ _______ _____ _____    ______ ____

>  <TORSDO>
F 3

$$$$
=
 OpenBabel11052413543D

 27 31  0  0  1  0  0  0  0  0999 V2000
  188.0000  177.4660  144.1040 N   0  0  0  0  0  0  0  0  0  0  0  0
  189.9130  177.5420  142.7020 C   0  0  0  0  0  0  0  0  0  0  0  0
  186.9460  178.5610  140.7490 C   0  0  0  0  0  3  0  0  0  0  0  0
  191.2720  177.4300  142.3140 N   0  0  0  0  0  0  0  0  0  0  0  0
  185.0090  178.4720  142.2220 C   0  0  0  0  0  0  0  0  0  0  0  0
  189.3500  177.2890  143.9650 C   0  0  0  0  0  0  0  0  0  0  0  0
  190.0130  178.1270  140.4580 C   0  0  1  0  0  3  0  0  0  0  0  0
  187.2030  177.8780  143.0740 C   0  0  0  0  0  0  0  0  0  0  0  0
  189.1350  177.9460  141.6510 C   0  0  0  0  0  0  0  0  0  0  0  0
  185.5740  178.7290  140.9600 C   0  0  0  0  0  3  0  0  0  0  0  0
  191.3480  177.7570  141.0600 C   0  0  0  0  0  3  0  0  0  0  0  0
  185.8290  178.0480  143.2730 C   0  0  0  0  0  3  0  0  0  0  0  0
  187.7620  178.1370  141.8010 C   0  0  0  0  0  0  0  0  0  0  0  0
  188.4340  177.3140  138.6440 C   0  0  0  0  0  3  0  0  0  0  0  0
  189.0370  175.4480  137.2810 N   0  0  0  0  0  0  0  0  0  0  0  0
  190.2170  175.3110  137.9430 C   0  0  0  0  0  3  0  0  0  0  0  0
  190.5420  176.1820  138.9840 C   0  0  0  0  0  3  0  0  0  0  0  0
  189.6450  177.1920  139.3420 C   0  0  0  0  0  0  0  0  0  0  0  0
  188.1470  176.4240  137.6080 C   0  0  0  0  0  3  0  0  0  0  0  0
  191.8580  176.1530  147.2740 C   0  0  0  0  0  3  0  0  0  0  0  0
  190.1520  176.8390  145.1310 C   0  0  0  0  0  0  0  0  0  0  0  0
  189.5900  176.8450  146.5320 C   0  0  0  0  0  2  0  0  0  0  0  0
  190.6910  177.0510  147.5720 C   0  0  0  0  0  2  0  0  0  0  0  0
  192.1650  175.8590  146.0460 N   0  0  0  0  0  0  0  0  0  0  0  0
  191.3680  176.3070  144.9370 C   0  0  0  0  0  3  0  0  0  0  0  0
  182.6800  178.6560  141.4100 C   0  0  0  0  0  1  0  0  0  0  0  0
  183.6400  178.6320  142.4560 O   0  0  0  0  0  0  0  0  0  0  0  0
  2  6  2  0  0  0  0
  3 10  2  0  0  0  0
  3 13  1  0  0  0  0
  4  2  1  0  0  0  0
  5 27  1  0  0  0  0
  5 12  2  0  0  0  0
  6  1  1  0  0  0  0
  6 21  1  0  0  0  0
  7 18  1  6  0  0  0
  7 11  1  0  0  0  0
  7  9  1  0  0  0  0
  8 12  1  0  0  0  0
  8  1  2  0  0  0  0
  9 13  2  0  0  0  0
  9  2  1  0  0  0  0
 10  5  1  0  0  0  0
 11  4  2  0  0  0  0
 13  8  1  0  0  0  0
 14 18  1  0  0  0  0
 15 19  1  0  0  0  0
 15 16  2  0  0  0  0
 16 17  1  0  0  0  0
 17 18  2  0  0  0  0
 19 14  2  0  0  0  0
 20 23  1  0  0  0  0
 21 22  1  0  0  0  0
 22 23  1  0  0  0  0
 24 20  2  0  0  0  0
 25 21  2  0  0  0  0
 25 24  1  0  0  0  0
 26 27  1  0  0  0  0
M  END
>  <MODEL>
7

>  <REMARK>
 VINA RESULT:      -7.1      2.963      6.119
  Name = 
  3 active torsions:
  status: ('A' for Active; 'I' for Inactive)
    1  A    between atoms: C_9  and  C_15
    2  A    between atoms: C_13  and  O_22
    3  A    between atoms: C_14  and  C_17
                            x       y       z     vdW  Elec       q    Type
                         _______ _______ _______ _____ _____    ______ ____

>  <TORSDO>
F 3

$$$$
=
 OpenBabel11052413543D

 27 31  0  0  1  0  0  0  0  0999 V2000
  190.7330  176.4540  139.8980 N   0  0  0  0  0  0  0  0  0  0  0  0
  189.7720  177.1160  137.8320 C   0  0  0  0  0  0  0  0  0  0  0  0
  187.6370  178.3250  140.5960 C   0  0  0  0  0  3  0  0  0  0  0  0
  189.6240  177.2590  136.4290 N   0  0  0  0  0  0  0  0  0  0  0  0
  188.6590  177.6280  142.6940 C   0  0  0  0  0  0  0  0  0  0  0  0
  190.8030  176.4650  138.5310 C   0  0  0  0  0  0  0  0  0  0  0  0
  187.8110  178.3100  137.4900 C   0  0  1  0  0  3  0  0  0  0  0  0
  189.7150  177.0520  140.5870 C   0  0  0  0  0  0  0  0  0  0  0  0
  188.7360  177.7140  138.4970 C   0  0  0  0  0  0  0  0  0  0  0  0
  187.6300  178.2830  141.9930 C   0  0  0  0  0  3  0  0  0  0  0  0
  188.5310  177.9280  136.2180 C   0  0  0  0  0  3  0  0  0  0  0  0
  189.6970  177.0160  141.9840 C   0  0  0  0  0  3  0  0  0  0  0  0
  188.6760  177.7110  139.8910 C   0  0  0  0  0  0  0  0  0  0  0  0
  186.1950  176.4050  137.0390 C   0  0  0  0  0  3  0  0  0  0  0  0
  183.9060  176.5970  137.6930 N   0  0  0  0  0  0  0  0  0  0  0  0
  184.1240  177.8450  138.1890 C   0  0  0  0  0  3  0  0  0  0  0  0
  185.3980  178.4120  138.1240 C   0  0  0  0  0  3  0  0  0  0  0  0
  186.4440  177.6900  137.5440 C   0  0  0  0  0  0  0  0  0  0  0  0
  184.9070  175.8730  137.1250 C   0  0  0  0  0  3  0  0  0  0  0  0
  193.9400  174.4630  136.3680 C   0  0  0  0  0  3  0  0  0  0  0  0
  191.9400  175.7930  137.8520 C   0  0  0  0  0  0  0  0  0  0  0  0
  193.2490  176.5040  137.6040 C   0  0  0  0  0  2  0  0  0  0  0  0
  193.9460  175.9640  136.3550 C   0  0  0  0  0  2  0  0  0  0  0  0
  192.9450  173.8130  136.8940 N   0  0  0  0  0  0  0  0  0  0  0  0
  191.8580  174.4900  137.5470 C   0  0  0  0  0  3  0  0  0  0  0  0
  189.7870  177.9860  144.8660 C   0  0  0  0  0  1  0  0  0  0  0  0
  188.6710  177.5730  144.0910 O   0  0  0  0  0  0  0  0  0  0  0  0
  1  8  1  0  0  0  0
  2  9  2  0  0  0  0
  2  6  1  0  0  0  0
  3 10  1  0  0  0  0
  4  2  1  0  0  0  0
  5 27  1  0  0  0  0
  6  1  2  0  0  0  0
  7 18  1  6  0  0  0
  7  9  1  0  0  0  0
  8 12  2  0  0  0  0
  9 13  1  0  0  0  0
 10  5  2  0  0  0  0
 11  4  2  0  0  0  0
 11  7  1  0  0  0  0
 12  5  1  0  0  0  0
 13  8  1  0  0  0  0
 13  3  2  0  0  0  0
 14 19  2  0  0  0  0
 14 18  1  0  0  0  0
 15 16  2  0  0  0  0
 17 16  1  0  0  0  0
 18 17  2  0  0  0  0
 19 15  1  0  0  0  0
 20 24  2  0  0  0  0
 21  6  1  0  0  0  0
 22 21  1  0  0  0  0
 23 20  1  0  0  0  0
 23 22  1  0  0  0  0
 24 25  1  0  0  0  0
 25 21  2  0  0  0  0
 27 26  1  0  0  0  0
M  END
>  <MODEL>
8

>  <REMARK>
 VINA RESULT:      -7.1      3.112      4.792
  Name = 
  3 active torsions:
  status: ('A' for Active; 'I' for Inactive)
    1  A    between atoms: C_9  and  C_15
    2  A    between atoms: C_13  and  O_22
    3  A    between atoms: C_14  and  C_17
                            x       y       z     vdW  Elec       q    Type
                         _______ _______ _______ _____ _____    ______ ____

>  <TORSDO>
F 3

$$$$
=
 OpenBabel11052413543D

 27 31  0  0  1  0  0  0  0  0999 V2000
  187.3460  177.9440  142.0880 N   0  0  0  0  0  0  0  0  0  0  0  0
  188.1920  178.1380  144.2970 C   0  0  0  0  0  0  0  0  0  0  0  0
  191.0160  177.6440  141.9640 C   0  0  0  0  0  3  0  0  0  0  0  0
  188.1840  178.3070  145.7040 N   0  0  0  0  0  0  0  0  0  0  0  0
  190.1060  177.4520  139.7140 C   0  0  0  0  0  0  0  0  0  0  0  0
  187.0920  178.1250  143.4210 C   0  0  0  0  0  0  0  0  0  0  0  0
  190.4040  178.0320  144.9900 C   0  0  1  0  0  3  0  0  0  0  0  0
  188.6110  177.7870  141.5950 C   0  0  0  0  0  0  0  0  0  0  0  0
  189.4680  177.9730  143.8300 C   0  0  0  0  0  0  0  0  0  0  0  0
  191.2060  177.4700  140.5910 C   0  0  0  0  0  3  0  0  0  0  0  0
  189.4160  178.2530  146.1110 C   0  0  0  0  0  3  0  0  0  0  0  0
  188.8130  177.6110  140.2230 C   0  0  0  0  0  3  0  0  0  0  0  0
  189.7220  177.8020  142.4700 C   0  0  0  0  0  0  0  0  0  0  0  0
  191.3430  175.8400  144.1180 C   0  0  0  0  0  3  0  0  0  0  0  0
  192.5570  174.3930  145.5790 N   0  0  0  0  0  0  0  0  0  0  0  0
  192.3850  175.2520  146.6190 C   0  0  0  0  0  3  0  0  0  0  0  0
  191.6790  176.4430  146.4340 C   0  0  0  0  0  3  0  0  0  0  0  0
  191.1520  176.7430  145.1760 C   0  0  0  0  0  0  0  0  0  0  0  0
  192.0560  174.6610  144.3430 C   0  0  0  0  0  3  0  0  0  0  0  0
  183.0950  178.8340  144.8510 C   0  0  0  0  0  3  0  0  0  0  0  0
  185.6900  178.2900  143.8820 C   0  0  0  0  0  0  0  0  0  0  0  0
  184.5210  178.1400  142.9390 C   0  0  0  0  0  2  0  0  0  0  0  0
  183.3380  179.0030  143.3790 C   0  0  0  0  0  2  0  0  0  0  0  0
  184.0880  178.6240  145.6620 N   0  0  0  0  0  0  0  0  0  0  0  0
  185.4350  178.4660  145.1870 C   0  0  0  0  0  3  0  0  0  0  0  0
  189.4300  177.9000  137.3770 C   0  0  0  0  0  1  0  0  0  0  0  0
  190.2730  177.2790  138.3370 O   0  0  0  0  0  0  0  0  0  0  0  0
  1  6  1  0  0  0  0
  2  4  1  0  0  0  0
  3 13  1  0  0  0  0
  4 11  2  0  0  0  0
  5 12  2  0  0  0  0
  5 10  1  0  0  0  0
  6 21  1  0  0  0  0
  6  2  2  0  0  0  0
  7 18  1  1  0  0  0
  7 11  1  0  0  0  0
  8  1  2  0  0  0  0
  8 13  1  0  0  0  0
  9  2  1  0  0  0  0
  9  7  1  0  0  0  0
 10  3  2  0  0  0  0
 12  8  1  0  0  0  0
 13  9  2  0  0  0  0
 14 19  2  0  0  0  0
 14 18  1  0  0  0  0
 15 16  2  0  0  0  0
 17 16  1  0  0  0  0
 18 17  2  0  0  0  0
 19 15  1  0  0  0  0
 20 24  2  0  0  0  0
 21 25  2  0  0  0  0
 22 23  1  0  0  0  0
 22 21  1  0  0  0  0
 23 20  1  0  0  0  0
 25 24  1  0  0  0  0
 26 27  1  0  0  0  0
 27  5  1  0  0  0  0
M  END
>  <MODEL>
9

>  <REMARK>
 VINA RESULT:      -7.1      3.668      8.367
  Name = 
  3 active torsions:
  status: ('A' for Active; 'I' for Inactive)
    1  A    between atoms: C_9  and  C_15
    2  A    between atoms: C_13  and  O_22
    3  A    between atoms: C_14  and  C_17
                            x       y       z     vdW  Elec       q    Type
                         _______ _______ _______ _____ _____    ______ ____

>  <TORSDO>
F 3

$$$$
