=
 OpenBabel11052415283D

 37 41  0  0  1  0  0  0  0  0999 V2000
  183.0820  178.9280  139.1710 C   0  0  0  0  0  0  0  0  0  0  0  0
  181.0460  182.0270  138.3200 C   0  0  0  0  0  2  0  0  0  0  0  0
  182.9190  178.1340  138.0800 C   0  0  0  0  0  0  0  0  0  0  0  0
  181.8860  180.7750  138.0980 C   0  0  1  0  0  3  0  0  0  0  0  0
  182.1620  180.0830  139.4160 C   0  0  0  0  0  2  0  0  0  0  0  0
  181.1260  179.7950  137.2060 C   0  0  1  0  0  3  0  0  0  0  0  0
  180.0170  181.6990  136.0300 C   0  0  0  0  0  2  0  0  0  0  0  0
  180.8500  180.4310  135.8470 C   0  0  0  0  0  2  0  0  0  0  0  0
  181.8360  178.4360  137.0480 C   0  0  2  0  0  3  0  0  0  0  0  0
  180.7250  182.6800  136.9720 C   0  0  1  0  0  3  0  0  0  0  0  0
  181.2600  176.0010  136.8470 O   0  0  0  0  0  0  0  0  0  0  0  0
  180.6540  176.5640  135.7030 C   0  0  0  0  0  0  0  0  0  0  0  0
  179.3560  175.8490  135.3750 C   0  0  0  0  0  1  0  0  0  0  0  0
  181.6780  176.7450  134.5950 C   0  0  0  0  0  1  0  0  0  0  0  0
  180.7760  177.3210  136.9770 C   0  0  2  0  0  0  0  0  0  0  0  0
  179.5850  177.4320  137.7200 O   0  0  0  0  0  0  0  0  0  0  0  0
  179.8250  176.8720  138.9800 C   0  0  0  0  0  2  0  0  0  0  0  0
  179.3320  177.8200  140.0560 C   0  0  0  0  0  2  0  0  0  0  0  0
  180.0660  178.8310  142.2130 C   0  0  0  0  0  1  0  0  0  0  0  0
  180.0800  177.5810  141.3540 C   0  0  0  0  0  2  0  0  0  0  0  0
  183.7090  175.8990  138.3660 O   0  0  0  0  0  0  0  0  0  0  0  0
  184.8790  177.1870  136.8190 N   0  0  0  0  0  2  0  0  0  0  0  0
  183.8400  177.0100  137.7840 C   0  0  0  0  0  0  0  0  0  0  0  0
  188.4040  175.8220  136.4820 C   0  0  0  0  0  2  0  0  0  0  0  0
  187.2170  176.7300  136.2090 C   0  0  1  0  0  0  0  0  0  0  0  0
  187.4210  178.2460  136.2580 C   0  0  0  0  0  2  0  0  0  0  0  0
  188.7400  179.8480  137.4310 O   0  0  0  0  0  0  0  0  0  0  0  0
  189.3470  177.6390  137.8290 N   0  0  0  0  0  2  0  0  0  0  0  0
  188.5140  178.6300  137.2140 C   0  0  0  0  0  0  0  0  0  0  0  0
  186.3210  176.2620  135.0870 C   0  0  0  0  0  2  0  0  0  0  0  0
  189.0090  176.2190  137.8210 C   0  0  0  0  0  2  0  0  0  0  0  0
  185.8520  176.1420  136.5320 C   0  0  2  0  0  3  0  0  0  0  0  0
  179.9140  183.9610  137.1540 C   0  0  0  0  0  2  0  0  0  0  0  0
  180.5950  185.1740  136.5350 C   0  0  0  0  0  1  0  0  0  0  0  0
  184.2170  178.7680  140.1350 C   0  0  0  0  0  2  0  0  0  0  0  0
  184.8550  178.1860  142.4540 C   0  0  0  0  0  1  0  0  0  0  0  0
  183.7170  178.2130  141.4560 C   0  0  0  0  0  2  0  0  0  0  0  0
  1  5  1  0  0  0  0
  1 35  1  0  0  0  0
  3  1  2  0  0  0  0
  4  2  1  1  0  0  0
  4  5  1  0  0  0  0
  6  8  1  6  0  0  0
  6  4  1  0  0  0  0
  7 10  1  0  0  0  0
  8  7  1  0  0  0  0
  9  6  1  0  0  0  0
  9  3  1  1  0  0  0
 10 33  1  1  0  0  0
 10  2  1  0  0  0  0
 11 15  1  0  0  0  0
 12 11  1  0  0  0  0
 12 15  1  0  0  0  0
 13 12  1  0  0  0  0
 14 12  1  0  0  0  0
 15  9  1  0  0  0  0
 15 16  1  1  0  0  0
 16 17  1  0  0  0  0
 17 18  1  0  0  0  0
 18 20  1  0  0  0  0
 20 19  1  0  0  0  0
 22 23  1  0  0  0  0
 23  3  1  0  0  0  0
 23 21  2  0  0  0  0
 24 31  1  0  0  0  0
 25 30  1  6  0  0  0
 25 26  1  0  0  0  0
 25 24  1  0  0  0  0
 25 32  1  0  0  0  0
 26 29  1  0  0  0  0
 29 27  2  0  0  0  0
 29 28  1  0  0  0  0
 30 32  1  0  0  0  0
 31 28  1  0  0  0  0
 32 22  1  6  0  0  0
 34 33  1  0  0  0  0
 35 37  1  0  0  0  0
 37 36  1  0  0  0  0
M  END
>  <MODEL>
1

>  <REMARK>
 VINA RESULT:      -5.4      0.000      0.000
  Name = 
  10 active torsions:
  status: ('A' for Active; 'I' for Inactive)
    1  A    between atoms: C_3  and  C_32
    2  A    between atoms: C_4  and  C_24
    3  A    between atoms: C_10  and  C_27
    4  A    between atoms: N_14  and  C_37
    5  A    between atoms: C_17  and  C_26
    6  A    between atoms: C_17  and  O_33
    7  A    between atoms: C_24  and  C_28
    8  A    between atoms: C_26  and  C_34
    9  A    between atoms: C_29  and  C_36
   10  A    between atoms: O_33  and  C_36
                            x       y       z     vdW  Elec       q    Type
                         _______ _______ _______ _____ _____    ______ ____

>  <TORSDO>
F 10

$$$$
=
 OpenBabel11052415283D

 37 41  0  0  1  0  0  0  0  0999 V2000
  184.1740  178.5720  139.0670 C   0  0  0  0  0  0  0  0  0  0  0  0
  184.6170  178.6550  142.8450 C   0  0  0  0  0  2  0  0  0  0  0  0
  182.8240  178.5860  138.9080 C   0  0  0  0  0  0  0  0  0  0  0  0
  183.9660  178.8840  141.4860 C   0  0  1  0  0  3  0  0  0  0  0  0
  184.7800  178.2280  140.3920 C   0  0  0  0  0  2  0  0  0  0  0  0
  182.5720  178.2590  141.4710 C   0  0  1  0  0  3  0  0  0  0  0  0
  182.3230  178.7100  143.9140 C   0  0  0  0  0  2  0  0  0  0  0  0
  181.6950  178.9100  142.5360 C   0  0  0  0  0  2  0  0  0  0  0  0
  181.8950  178.3120  140.0870 C   0  0  2  0  0  3  0  0  0  0  0  0
  183.7490  179.2710  143.9460 C   0  0  1  0  0  3  0  0  0  0  0  0
  180.0040  177.1090  138.9550 O   0  0  0  0  0  0  0  0  0  0  0  0
  179.6420  177.0540  140.3190 C   0  0  0  0  0  0  0  0  0  0  0  0
  178.9320  175.7500  140.6340 C   0  0  0  0  0  1  0  0  0  0  0  0
  178.9850  178.3560  140.7470 C   0  0  0  0  0  1  0  0  0  0  0  0
  181.0630  177.0310  139.8850 C   0  0  2  0  0  0  0  0  0  0  0  0
  181.6860  175.7690  139.9510 O   0  0  0  0  0  0  0  0  0  0  0  0
  181.8350  175.3090  138.6370 C   0  0  0  0  0  2  0  0  0  0  0  0
  183.3060  175.0920  138.3420 C   0  0  0  0  0  2  0  0  0  0  0  0
  184.6790  175.5720  136.3180 C   0  0  0  0  0  1  0  0  0  0  0  0
  183.5100  174.7810  136.8710 C   0  0  0  0  0  2  0  0  0  0  0  0
  182.3450  178.2550  136.5920 O   0  0  0  0  0  0  0  0  0  0  0  0
  181.3860  180.1460  137.5560 N   0  0  0  0  0  2  0  0  0  0  0  0
  182.1900  178.9660  137.6220 C   0  0  0  0  0  0  0  0  0  0  0  0
  179.2560  182.4890  135.4650 C   0  0  0  0  0  2  0  0  0  0  0  0
  179.5850  181.4970  136.5660 C   0  0  1  0  0  0  0  0  0  0  0  0
  179.1800  181.8280  138.0040 C   0  0  0  0  0  2  0  0  0  0  0  0
  178.9320  183.7380  139.4090 O   0  0  0  0  0  0  0  0  0  0  0  0
  179.3250  184.2440  137.1750 N   0  0  0  0  0  2  0  0  0  0  0  0
  179.1590  183.3100  138.2490 C   0  0  0  0  0  0  0  0  0  0  0  0
  179.3770  180.0510  136.1830 C   0  0  0  0  0  2  0  0  0  0  0  0
  179.8230  183.8450  135.8610 C   0  0  0  0  0  2  0  0  0  0  0  0
  180.7900  180.6050  136.3090 C   0  0  2  0  0  3  0  0  0  0  0  0
  184.3870  179.0950  145.3210 C   0  0  0  0  0  2  0  0  0  0  0  0
  185.5740  178.1420  145.2940 C   0  0  0  0  0  1  0  0  0  0  0  0
  185.1280  178.9770  137.9870 C   0  0  0  0  0  2  0  0  0  0  0  0
  187.3450  178.5780  136.9630 C   0  0  0  0  0  1  0  0  0  0  0  0
  186.3770  178.1170  138.0310 C   0  0  0  0  0  2  0  0  0  0  0  0
  1  5  1  0  0  0  0
  2 10  1  0  0  0  0
  3  1  2  0  0  0  0
  4  5  1  6  0  0  0
  4  2  1  0  0  0  0
  6  4  1  0  0  0  0
  6  8  1  1  0  0  0
  7 10  1  0  0  0  0
  8  7  1  0  0  0  0
  9  3  1  6  0  0  0
  9  6  1  0  0  0  0
 10 33  1  1  0  0  0
 11 15  1  0  0  0  0
 11 12  1  0  0  0  0
 12 13  1  0  0  0  0
 12 14  1  0  0  0  0
 15 16  1  1  0  0  0
 15  9  1  0  0  0  0
 15 12  1  0  0  0  0
 17 16  1  0  0  0  0
 18 17  1  0  0  0  0
 19 20  1  0  0  0  0
 20 18  1  0  0  0  0
 21 23  2  0  0  0  0
 22 23  1  0  0  0  0
 23  3  1  0  0  0  0
 24 31  1  0  0  0  0
 25 24  1  6  0  0  0
 25 26  1  0  0  0  0
 26 29  1  0  0  0  0
 28 29  1  0  0  0  0
 29 27  2  0  0  0  0
 30 32  1  0  0  0  0
 30 25  1  0  0  0  0
 31 28  1  0  0  0  0
 32 25  1  0  0  0  0
 32 22  1  1  0  0  0
 34 33  1  0  0  0  0
 35 37  1  0  0  0  0
 35  1  1  0  0  0  0
 36 37  1  0  0  0  0
M  END
>  <MODEL>
2

>  <REMARK>
 VINA RESULT:      -5.3      2.657      7.069
  Name = 
  10 active torsions:
  status: ('A' for Active; 'I' for Inactive)
    1  A    between atoms: C_3  and  C_32
    2  A    between atoms: C_4  and  C_24
    3  A    between atoms: C_10  and  C_27
    4  A    between atoms: N_14  and  C_37
    5  A    between atoms: C_17  and  C_26
    6  A    between atoms: C_17  and  O_33
    7  A    between atoms: C_24  and  C_28
    8  A    between atoms: C_26  and  C_34
    9  A    between atoms: C_29  and  C_36
   10  A    between atoms: O_33  and  C_36
                            x       y       z     vdW  Elec       q    Type
                         _______ _______ _______ _____ _____    ______ ____

>  <TORSDO>
F 10

$$$$
=
 OpenBabel11052415283D

 37 41  0  0  1  0  0  0  0  0999 V2000
  184.3690  178.4360  139.5920 C   0  0  0  0  0  0  0  0  0  0  0  0
  180.9830  180.1700  139.5060 C   0  0  0  0  0  2  0  0  0  0  0  0
  184.5230  177.9830  138.3200 C   0  0  0  0  0  0  0  0  0  0  0  0
  182.3130  179.6250  138.9980 C   0  0  1  0  0  3  0  0  0  0  0  0
  183.0220  178.8550  140.0920 C   0  0  0  0  0  2  0  0  0  0  0  0
  182.0660  178.6640  137.8360 C   0  0  1  0  0  3  0  0  0  0  0  0
  180.0470  179.9710  137.1620 C   0  0  0  0  0  2  0  0  0  0  0  0
  181.3820  179.3990  136.6870 C   0  0  0  0  0  2  0  0  0  0  0  0
  183.3430  177.9480  137.3530 C   0  0  2  0  0  3  0  0  0  0  0  0
  180.2530  180.8930  138.3700 C   0  0  1  0  0  3  0  0  0  0  0  0
  184.0620  175.6730  136.5750 O   0  0  0  0  0  0  0  0  0  0  0  0
  183.2440  176.1250  135.5160 C   0  0  0  0  0  0  0  0  0  0  0  0
  182.4750  174.9700  134.9010 C   0  0  0  0  0  1  0  0  0  0  0  0
  184.0280  177.0430  134.5940 C   0  0  0  0  0  1  0  0  0  0  0  0
  182.9840  176.5130  136.9280 C   0  0  2  0  0  0  0  0  0  0  0  0
  181.9040  175.8450  137.5400 O   0  0  0  0  0  0  0  0  0  0  0  0
  182.3780  175.3000  138.7390 C   0  0  0  0  0  2  0  0  0  0  0  0
  181.4460  175.6880  139.8710 C   0  0  0  0  0  2  0  0  0  0  0  0
  179.3200  176.9510  139.5630 C   0  0  0  0  0  1  0  0  0  0  0  0
  180.0000  175.6030  139.4180 C   0  0  0  0  0  2  0  0  0  0  0  0
  186.1800  176.3900  137.6720 O   0  0  0  0  0  0  0  0  0  0  0  0
  186.7610  178.6240  137.3650 N   0  0  0  0  0  2  0  0  0  0  0  0
  185.8510  177.6030  137.7800 C   0  0  0  0  0  0  0  0  0  0  0  0
  190.3340  177.4220  137.7970 C   0  0  0  0  0  2  0  0  0  0  0  0
  189.1040  178.2820  138.0280 C   0  0  1  0  0  0  0  0  0  0  0  0
  188.6270  178.5190  139.4630 C   0  0  0  0  0  2  0  0  0  0  0  0
  188.5660  177.3710  141.5520 O   0  0  0  0  0  0  0  0  0  0  0  0
  189.8070  176.2930  139.9080 N   0  0  0  0  0  2  0  0  0  0  0  0
  188.9710  177.3650  140.3610 C   0  0  0  0  0  0  0  0  0  0  0  0
  189.0220  179.5020  137.1400 C   0  0  0  0  0  2  0  0  0  0  0  0
  190.1190  176.0880  138.4960 C   0  0  0  0  0  2  0  0  0  0  0  0
  188.1000  178.3160  136.8850 C   0  0  2  0  0  3  0  0  0  0  0  0
  178.9310  181.4870  138.8490 C   0  0  0  0  0  2  0  0  0  0  0  0
  179.0130  182.0160  140.2740 C   0  0  0  0  0  1  0  0  0  0  0  0
  185.5160  178.6310  140.5350 C   0  0  0  0  0  2  0  0  0  0  0  0
  185.2840  178.1490  142.9500 C   0  0  0  0  0  1  0  0  0  0  0  0
  185.0240  179.1700  141.8650 C   0  0  0  0  0  2  0  0  0  0  0  0
  1  5  1  0  0  0  0
  1 35  1  0  0  0  0
  3  1  2  0  0  0  0
  4  2  1  1  0  0  0
  4  5  1  0  0  0  0
  6  8  1  6  0  0  0
  6  4  1  0  0  0  0
  7 10  1  0  0  0  0
  8  7  1  0  0  0  0
  9  6  1  0  0  0  0
  9  3  1  1  0  0  0
 10 33  1  1  0  0  0
 10  2  1  0  0  0  0
 11 15  1  0  0  0  0
 12 11  1  0  0  0  0
 12 15  1  0  0  0  0
 13 12  1  0  0  0  0
 14 12  1  0  0  0  0
 15  9  1  0  0  0  0
 15 16  1  1  0  0  0
 16 17  1  0  0  0  0
 17 18  1  0  0  0  0
 20 19  1  0  0  0  0
 20 18  1  0  0  0  0
 21 23  2  0  0  0  0
 22 23  1  0  0  0  0
 23  3  1  0  0  0  0
 24 25  1  0  0  0  0
 24 31  1  0  0  0  0
 25 30  1  6  0  0  0
 25 26  1  0  0  0  0
 26 29  1  0  0  0  0
 28 29  1  0  0  0  0
 29 27  2  0  0  0  0
 31 28  1  0  0  0  0
 32 30  1  0  0  0  0
 32 22  1  1  0  0  0
 32 25  1  0  0  0  0
 33 34  1  0  0  0  0
 35 37  1  0  0  0  0
 37 36  1  0  0  0  0
M  END
>  <MODEL>
3

>  <REMARK>
 VINA RESULT:      -5.1      2.097      2.729
  Name = 
  10 active torsions:
  status: ('A' for Active; 'I' for Inactive)
    1  A    between atoms: C_3  and  C_32
    2  A    between atoms: C_4  and  C_24
    3  A    between atoms: C_10  and  C_27
    4  A    between atoms: N_14  and  C_37
    5  A    between atoms: C_17  and  C_26
    6  A    between atoms: C_17  and  O_33
    7  A    between atoms: C_24  and  C_28
    8  A    between atoms: C_26  and  C_34
    9  A    between atoms: C_29  and  C_36
   10  A    between atoms: O_33  and  C_36
                            x       y       z     vdW  Elec       q    Type
                         _______ _______ _______ _____ _____    ______ ____

>  <TORSDO>
F 10

$$$$
=
 OpenBabel11052415283D

 37 41  0  0  1  0  0  0  0  0999 V2000
  190.0850  176.0610  137.7940 C   0  0  0  0  0  0  0  0  0  0  0  0
  189.0470  172.7880  136.1540 C   0  0  0  0  0  2  0  0  0  0  0  0
  188.9020  176.6100  138.1770 C   0  0  0  0  0  0  0  0  0  0  0  0
  188.9790  173.9960  137.0810 C   0  0  1  0  0  3  0  0  0  0  0  0
  190.1180  174.9500  136.7910 C   0  0  0  0  0  2  0  0  0  0  0  0
  187.6690  174.7490  136.8530 C   0  0  1  0  0  3  0  0  0  0  0  0
  186.5230  172.6100  136.2610 C   0  0  0  0  0  2  0  0  0  0  0  0
  186.4840  173.8410  137.1660 C   0  0  0  0  0  2  0  0  0  0  0  0
  187.5790  176.0700  137.6430 C   0  0  2  0  0  3  0  0  0  0  0  0
  187.8530  171.8650  136.4190 C   0  0  1  0  0  3  0  0  0  0  0  0
  186.0940  176.6180  135.6940 O   0  0  0  0  0  0  0  0  0  0  0  0
  187.2820  177.3210  135.3940 C   0  0  0  0  0  0  0  0  0  0  0  0
  186.9680  178.6290  134.6900 C   0  0  0  0  0  1  0  0  0  0  0  0
  188.3050  176.3910  134.7670 C   0  0  0  0  0  1  0  0  0  0  0  0
  186.8270  177.1120  136.7940 C   0  0  2  0  0  0  0  0  0  0  0  0
  186.2570  178.2430  137.4110 O   0  0  0  0  0  0  0  0  0  0  0  0
  185.1450  177.8050  138.1390 C   0  0  0  0  0  2  0  0  0  0  0  0
  184.5610  178.9680  138.9170 C   0  0  0  0  0  2  0  0  0  0  0  0
  184.0710  178.2480  141.2520 C   0  0  0  0  0  1  0  0  0  0  0  0
  185.0640  178.9530  140.3490 C   0  0  0  0  0  2  0  0  0  0  0  0
  188.9190  178.8940  138.8730 O   0  0  0  0  0  0  0  0  0  0  0  0
  188.6480  177.3280  140.5760 N   0  0  0  0  0  2  0  0  0  0  0  0
  188.8310  177.6800  139.2020 C   0  0  0  0  0  0  0  0  0  0  0  0
  189.7130  178.7470  143.9300 C   0  0  0  0  0  2  0  0  0  0  0  0
  189.1190  177.7480  142.9520 C   0  0  1  0  0  0  0  0  0  0  0  0
  189.5780  176.2900  143.0150 C   0  0  0  0  0  2  0  0  0  0  0  0
  191.5430  175.0430  143.5350 O   0  0  0  0  0  0  0  0  0  0  0  0
  191.6970  177.3100  144.0230 N   0  0  0  0  0  2  0  0  0  0  0  0
  190.9910  176.1720  143.5120 C   0  0  0  0  0  0  0  0  0  0  0  0
  187.6380  177.9200  142.7110 C   0  0  0  0  0  2  0  0  0  0  0  0
  191.2290  178.6780  143.8170 C   0  0  0  0  0  2  0  0  0  0  0  0
  188.6330  178.3290  141.6330 C   0  0  2  0  0  3  0  0  0  0  0  0
  187.9050  170.6230  135.5340 C   0  0  0  0  0  2  0  0  0  0  0  0
  186.5470  170.2750  134.9400 C   0  0  0  0  0  1  0  0  0  0  0  0
  191.3990  176.4500  138.3960 C   0  0  0  0  0  2  0  0  0  0  0  0
  193.6110  175.4650  137.8850 C   0  0  0  0  0  1  0  0  0  0  0  0
  192.5050  176.3560  137.3610 C   0  0  0  0  0  2  0  0  0  0  0  0
  1  3  2  0  0  0  0
  1 35  1  0  0  0  0
  2 10  1  0  0  0  0
  3 23  1  0  0  0  0
  4  2  1  6  0  0  0
  5  4  1  0  0  0  0
  5  1  1  0  0  0  0
  6  4  1  0  0  0  0
  6  8  1  1  0  0  0
  6  9  1  0  0  0  0
  7 10  1  0  0  0  0
  7  8  1  0  0  0  0
  9  3  1  6  0  0  0
 10 33  1  6  0  0  0
 11 15  1  0  0  0  0
 12 11  1  0  0  0  0
 12 15  1  0  0  0  0
 13 12  1  0  0  0  0
 14 12  1  0  0  0  0
 15 16  1  1  0  0  0
 15  9  1  0  0  0  0
 16 17  1  0  0  0  0
 17 18  1  0  0  0  0
 18 20  1  0  0  0  0
 20 19  1  0  0  0  0
 21 23  2  0  0  0  0
 23 22  1  0  0  0  0
 25 30  1  1  0  0  0
 25 26  1  0  0  0  0
 25 24  1  0  0  0  0
 26 29  1  0  0  0  0
 29 27  2  0  0  0  0
 29 28  1  0  0  0  0
 31 24  1  0  0  0  0
 31 28  1  0  0  0  0
 32 22  1  6  0  0  0
 32 30  1  0  0  0  0
 32 25  1  0  0  0  0
 34 33  1  0  0  0  0
 37 36  1  0  0  0  0
 37 35  1  0  0  0  0
M  END
>  <MODEL>
4

>  <REMARK>
 VINA RESULT:      -5.1      4.095      8.431
  Name = 
  10 active torsions:
  status: ('A' for Active; 'I' for Inactive)
    1  A    between atoms: C_3  and  C_32
    2  A    between atoms: C_4  and  C_24
    3  A    between atoms: C_10  and  C_27
    4  A    between atoms: N_14  and  C_37
    5  A    between atoms: C_17  and  C_26
    6  A    between atoms: C_17  and  O_33
    7  A    between atoms: C_24  and  C_28
    8  A    between atoms: C_26  and  C_34
    9  A    between atoms: C_29  and  C_36
   10  A    between atoms: O_33  and  C_36
                            x       y       z     vdW  Elec       q    Type
                         _______ _______ _______ _____ _____    ______ ____

>  <TORSDO>
F 10

$$$$
=
 OpenBabel11052415283D

 37 41  0  0  1  0  0  0  0  0999 V2000
  185.1930  178.2910  139.4980 C   0  0  0  0  0  0  0  0  0  0  0  0
  183.0260  175.9530  137.4210 C   0  0  0  0  0  2  0  0  0  0  0  0
  184.5320  178.3650  140.6820 C   0  0  0  0  0  0  0  0  0  0  0  0
  183.6530  176.5830  138.6590 C   0  0  1  0  0  3  0  0  0  0  0  0
  184.5060  177.7730  138.2730 C   0  0  0  0  0  2  0  0  0  0  0  0
  182.5550  177.0790  139.5980 C   0  0  1  0  0  3  0  0  0  0  0  0
  181.0450  175.2450  138.8290 C   0  0  0  0  0  2  0  0  0  0  0  0
  181.6830  175.9100  140.0470 C   0  0  0  0  0  2  0  0  0  0  0  0
  183.0950  177.8650  140.8090 C   0  0  2  0  0  3  0  0  0  0  0  0
  182.1190  174.7900  137.8350 C   0  0  1  0  0  3  0  0  0  0  0  0
  182.5730  179.9780  142.0600 O   0  0  0  0  0  0  0  0  0  0  0  0
  181.6000  179.0760  142.5430 C   0  0  0  0  0  0  0  0  0  0  0  0
  180.2940  179.7950  142.8240 C   0  0  0  0  0  1  0  0  0  0  0  0
  182.1870  178.1940  143.6320 C   0  0  0  0  0  1  0  0  0  0  0  0
  182.1140  179.0010  141.1500 C   0  0  2  0  0  0  0  0  0  0  0  0
  181.2360  179.4940  140.1640 O   0  0  0  0  0  0  0  0  0  0  0  0
  181.9110  180.5090  139.4760 C   0  0  0  0  0  2  0  0  0  0  0  0
  181.7270  180.3130  137.9830 C   0  0  0  0  0  2  0  0  0  0  0  0
  180.8400  178.6170  136.3870 C   0  0  0  0  0  1  0  0  0  0  0  0
  180.6150  179.3170  137.7130 C   0  0  0  0  0  2  0  0  0  0  0  0
  185.3170  180.0620  142.1680 O   0  0  0  0  0  0  0  0  0  0  0  0
  185.6960  177.8700  142.8580 N   0  0  0  0  0  2  0  0  0  0  0  0
  185.1970  178.8300  141.9240 C   0  0  0  0  0  0  0  0  0  0  0  0
  188.7780  178.0940  145.0600 C   0  0  0  0  0  2  0  0  0  0  0  0
  187.6740  177.4350  144.2530 C   0  0  1  0  0  0  0  0  0  0  0  0
  188.0500  176.3770  143.2140 C   0  0  0  0  0  2  0  0  0  0  0  0
  189.8320  175.8870  141.7080 O   0  0  0  0  0  0  0  0  0  0  0  0
  190.2810  177.6280  143.1810 N   0  0  0  0  0  2  0  0  0  0  0  0
  189.4170  176.6210  142.6410 C   0  0  0  0  0  0  0  0  0  0  0  0
  186.4330  177.1060  145.0500 C   0  0  0  0  0  2  0  0  0  0  0  0
  189.8000  178.6670  144.0890 C   0  0  0  0  0  2  0  0  0  0  0  0
  186.4130  178.2650  144.0610 C   0  0  2  0  0  3  0  0  0  0  0  0
  181.5000  174.1080  136.6180 C   0  0  0  0  0  2  0  0  0  0  0  0
  181.6570  174.9310  135.3470 C   0  0  0  0  0  1  0  0  0  0  0  0
  186.6450  178.6280  139.3500 C   0  0  0  0  0  2  0  0  0  0  0  0
  188.4430  177.1170  138.5730 C   0  0  0  0  0  1  0  0  0  0  0  0
  187.2340  177.9190  138.1450 C   0  0  0  0  0  2  0  0  0  0  0  0
  1  3  2  0  0  0  0
  2 10  1  0  0  0  0
  3 23  1  0  0  0  0
  4  2  1  6  0  0  0
  4  6  1  0  0  0  0
  5  4  1  0  0  0  0
  5  1  1  0  0  0  0
  6  8  1  1  0  0  0
  6  9  1  0  0  0  0
  7  8  1  0  0  0  0
  9  3  1  6  0  0  0
  9 15  1  0  0  0  0
 10 33  1  6  0  0  0
 10  7  1  0  0  0  0
 11 12  1  0  0  0  0
 12 13  1  0  0  0  0
 12 14  1  0  0  0  0
 15 16  1  6  0  0  0
 15 11  1  0  0  0  0
 15 12  1  0  0  0  0
 17 16  1  0  0  0  0
 18 17  1  0  0  0  0
 19 20  1  0  0  0  0
 20 18  1  0  0  0  0
 23 21  2  0  0  0  0
 23 22  1  0  0  0  0
 25 26  1  6  0  0  0
 25 30  1  0  0  0  0
 25 24  1  0  0  0  0
 27 29  2  0  0  0  0
 28 31  1  0  0  0  0
 29 28  1  0  0  0  0
 29 26  1  0  0  0  0
 31 24  1  0  0  0  0
 32 22  1  6  0  0  0
 32 25  1  0  0  0  0
 32 30  1  0  0  0  0
 34 33  1  0  0  0  0
 35  1  1  0  0  0  0
 37 36  1  0  0  0  0
 37 35  1  0  0  0  0
M  END
>  <MODEL>
5

>  <REMARK>
 VINA RESULT:      -4.9      3.135      6.395
  Name = 
  10 active torsions:
  status: ('A' for Active; 'I' for Inactive)
    1  A    between atoms: C_3  and  C_32
    2  A    between atoms: C_4  and  C_24
    3  A    between atoms: C_10  and  C_27
    4  A    between atoms: N_14  and  C_37
    5  A    between atoms: C_17  and  C_26
    6  A    between atoms: C_17  and  O_33
    7  A    between atoms: C_24  and  C_28
    8  A    between atoms: C_26  and  C_34
    9  A    between atoms: C_29  and  C_36
   10  A    between atoms: O_33  and  C_36
                            x       y       z     vdW  Elec       q    Type
                         _______ _______ _______ _____ _____    ______ ____

>  <TORSDO>
F 10

$$$$
=
 OpenBabel11052415283D

 37 41  0  0  1  0  0  0  0  0999 V2000
  186.0010  173.6420  137.2340 C   0  0  0  0  0  0  0  0  0  0  0  0
  189.4220  172.5430  135.9860 C   0  0  0  0  0  2  0  0  0  0  0  0
  185.8630  174.8920  136.7170 C   0  0  0  0  0  0  0  0  0  0  0  0
  188.0930  173.2870  136.0130 C   0  0  1  0  0  3  0  0  0  0  0  0
  187.3460  172.9880  137.2960 C   0  0  0  0  0  2  0  0  0  0  0  0
  188.3440  174.7930  135.9580 C   0  0  1  0  0  3  0  0  0  0  0  0
  190.4030  174.4180  134.5960 C   0  0  0  0  0  2  0  0  0  0  0  0
  189.0670  175.1560  134.6650 C   0  0  0  0  0  2  0  0  0  0  0  0
  187.0620  175.6320  136.1310 C   0  0  2  0  0  3  0  0  0  0  0  0
  190.1920  172.9040  134.7110 C   0  0  1  0  0  3  0  0  0  0  0  0
  186.3760  177.8750  137.0270 O   0  0  0  0  0  0  0  0  0  0  0  0
  187.4590  178.1920  136.1770 C   0  0  0  0  0  0  0  0  0  0  0  0
  188.2610  179.3520  136.7390 C   0  0  0  0  0  1  0  0  0  0  0  0
  186.9950  178.2670  134.7330 C   0  0  0  0  0  1  0  0  0  0  0  0
  187.4000  176.9080  136.9250 C   0  0  2  0  0  0  0  0  0  0  0  0
  188.2440  176.8350  138.0500 O   0  0  0  0  0  0  0  0  0  0  0  0
  187.5270  177.3370  139.1420 C   0  0  0  0  0  2  0  0  0  0  0  0
  188.4760  178.0520  140.0840 C   0  0  0  0  0  2  0  0  0  0  0  0
  190.5940  177.0290  140.9080 C   0  0  0  0  0  1  0  0  0  0  0  0
  189.9150  177.7160  139.7390 C   0  0  0  0  0  2  0  0  0  0  0  0
  184.0410  175.7960  135.4670 O   0  0  0  0  0  0  0  0  0  0  0  0
  183.8180  175.8970  137.7830 N   0  0  0  0  0  2  0  0  0  0  0  0
  184.5390  175.5500  136.5990 C   0  0  0  0  0  0  0  0  0  0  0  0
  181.5010  178.7980  138.5700 C   0  0  0  0  0  2  0  0  0  0  0  0
  182.4360  177.6330  138.8440 C   0  0  1  0  0  0  0  0  0  0  0  0
  183.6100  177.8370  139.8040 C   0  0  0  0  0  2  0  0  0  0  0  0
  185.1100  179.5670  140.4700 O   0  0  0  0  0  0  0  0  0  0  0  0
  183.3760  180.2850  139.0980 N   0  0  0  0  0  2  0  0  0  0  0  0
  184.0920  179.2600  139.7980 C   0  0  0  0  0  0  0  0  0  0  0  0
  181.7420  176.2990  138.9920 C   0  0  0  0  0  2  0  0  0  0  0  0
  182.3400  179.9830  138.1150 C   0  0  0  0  0  2  0  0  0  0  0  0
  182.5440  176.6000  137.7320 C   0  0  2  0  0  3  0  0  0  0  0  0
  191.5160  172.1490  134.6290 C   0  0  0  0  0  2  0  0  0  0  0  0
  192.5050  172.5880  135.7000 C   0  0  0  0  0  1  0  0  0  0  0  0
  184.8390  172.8130  137.6850 C   0  0  0  0  0  2  0  0  0  0  0  0
  182.9710  171.3930  136.8990 C   0  0  0  0  0  1  0  0  0  0  0  0
  184.3390  171.9380  136.5500 C   0  0  0  0  0  2  0  0  0  0  0  0
  1  5  1  0  0  0  0
  1 35  1  0  0  0  0
  3  1  2  0  0  0  0
  4  2  1  1  0  0  0
  4  5  1  0  0  0  0
  6  8  1  6  0  0  0
  6  4  1  0  0  0  0
  6  9  1  0  0  0  0
  7  8  1  0  0  0  0
  7 10  1  0  0  0  0
  9  3  1  1  0  0  0
  9 15  1  0  0  0  0
 10 33  1  1  0  0  0
 10  2  1  0  0  0  0
 12 13  1  0  0  0  0
 12 15  1  0  0  0  0
 12 11  1  0  0  0  0
 14 12  1  0  0  0  0
 15 11  1  0  0  0  0
 15 16  1  1  0  0  0
 16 17  1  0  0  0  0
 17 18  1  0  0  0  0
 20 18  1  0  0  0  0
 20 19  1  0  0  0  0
 21 23  2  0  0  0  0
 23  3  1  0  0  0  0
 23 22  1  0  0  0  0
 25 24  1  6  0  0  0
 25 30  1  0  0  0  0
 25 26  1  0  0  0  0
 28 29  1  0  0  0  0
 29 26  1  0  0  0  0
 29 27  2  0  0  0  0
 31 24  1  0  0  0  0
 31 28  1  0  0  0  0
 32 22  1  1  0  0  0
 32 25  1  0  0  0  0
 32 30  1  0  0  0  0
 33 34  1  0  0  0  0
 37 36  1  0  0  0  0
 37 35  1  0  0  0  0
M  END
>  <MODEL>
6

>  <REMARK>
 VINA RESULT:      -4.6      2.879      8.631
  Name = 
  10 active torsions:
  status: ('A' for Active; 'I' for Inactive)
    1  A    between atoms: C_3  and  C_32
    2  A    between atoms: C_4  and  C_24
    3  A    between atoms: C_10  and  C_27
    4  A    between atoms: N_14  and  C_37
    5  A    between atoms: C_17  and  C_26
    6  A    between atoms: C_17  and  O_33
    7  A    between atoms: C_24  and  C_28
    8  A    between atoms: C_26  and  C_34
    9  A    between atoms: C_29  and  C_36
   10  A    between atoms: O_33  and  C_36
                            x       y       z     vdW  Elec       q    Type
                         _______ _______ _______ _____ _____    ______ ____

>  <TORSDO>
F 10

$$$$
=
 OpenBabel11052415283D

 37 41  0  0  1  0  0  0  0  0999 V2000
  184.9200  178.2580  140.8260 C   0  0  0  0  0  0  0  0  0  0  0  0
  181.6360  178.9060  142.6350 C   0  0  0  0  0  2  0  0  0  0  0  0
  184.5870  178.3800  139.5140 C   0  0  0  0  0  0  0  0  0  0  0  0
  182.6900  178.9760  141.5360 C   0  0  1  0  0  3  0  0  0  0  0  0
  183.8600  178.0740  141.8660 C   0  0  0  0  0  2  0  0  0  0  0  0
  182.0900  178.4980  140.2150 C   0  0  1  0  0  3  0  0  0  0  0  0
  179.8490  179.3610  140.9000 C   0  0  0  0  0  2  0  0  0  0  0  0
  180.9240  179.3970  139.8150 C   0  0  0  0  0  2  0  0  0  0  0  0
  183.1240  178.3940  139.0770 C   0  0  2  0  0  3  0  0  0  0  0  0
  180.4340  179.7760  142.2550 C   0  0  1  0  0  3  0  0  0  0  0  0
  183.2920  177.1990  136.8740 O   0  0  0  0  0  0  0  0  0  0  0  0
  181.9050  177.4280  137.0050 C   0  0  0  0  0  0  0  0  0  0  0  0
  181.1130  176.2790  136.4080 C   0  0  0  0  0  1  0  0  0  0  0  0
  181.5570  178.8440  136.5780 C   0  0  0  0  0  1  0  0  0  0  0  0
  182.7730  177.1860  138.1870 C   0  0  2  0  0  0  0  0  0  0  0  0
  182.6630  175.9020  138.7550 O   0  0  0  0  0  0  0  0  0  0  0  0
  183.7670  175.1580  138.3210 C   0  0  0  0  0  2  0  0  0  0  0  0
  183.2880  173.8620  137.6970 C   0  0  0  0  0  2  0  0  0  0  0  0
  185.6250  173.0030  137.5930 C   0  0  0  0  0  1  0  0  0  0  0  0
  184.3630  173.2790  136.7990 C   0  0  0  0  0  2  0  0  0  0  0  0
  185.4580  179.5220  137.6070 O   0  0  0  0  0  0  0  0  0  0  0  0
  186.7800  177.7900  138.4310 N   0  0  0  0  0  2  0  0  0  0  0  0
  185.6080  178.6080  138.4630 C   0  0  0  0  0  0  0  0  0  0  0  0
  190.2840  177.4300  137.0200 C   0  0  0  0  0  2  0  0  0  0  0  0
  189.1930  177.8950  137.9680 C   0  0  1  0  0  0  0  0  0  0  0  0
  189.3880  177.6990  139.4720 C   0  0  0  0  0  2  0  0  0  0  0  0
  190.4200  176.1540  140.9670 O   0  0  0  0  0  0  0  0  0  0  0  0
  190.9120  175.7850  138.7250 N   0  0  0  0  0  2  0  0  0  0  0  0
  190.2420  176.4990  139.7710 C   0  0  0  0  0  0  0  0  0  0  0  0
  188.5660  179.2180  137.5930 C   0  0  0  0  0  2  0  0  0  0  0  0
  190.5770  175.9660  137.3150 C   0  0  0  0  0  2  0  0  0  0  0  0
  187.7860  177.9250  137.3880 C   0  0  2  0  0  3  0  0  0  0  0  0
  179.3700  179.7620  143.3500 C   0  0  0  0  0  2  0  0  0  0  0  0
  179.5750  178.6280  144.3450 C   0  0  0  0  0  1  0  0  0  0  0  0
  186.3250  178.3860  141.3260 C   0  0  0  0  0  2  0  0  0  0  0  0
  187.3670  177.1850  143.2220 C   0  0  0  0  0  1  0  0  0  0  0  0
  186.3650  178.2510  142.8370 C   0  0  0  0  0  2  0  0  0  0  0  0
  1 35  1  0  0  0  0
  1  5  1  0  0  0  0
  3  1  2  0  0  0  0
  4  5  1  1  0  0  0
  4  2  1  0  0  0  0
  6  8  1  6  0  0  0
  6  4  1  0  0  0  0
  7 10  1  0  0  0  0
  8  7  1  0  0  0  0
  9  3  1  1  0  0  0
  9  6  1  0  0  0  0
 10  2  1  0  0  0  0
 10 33  1  1  0  0  0
 11 12  1  0  0  0  0
 11 15  1  0  0  0  0
 12 15  1  0  0  0  0
 13 12  1  0  0  0  0
 14 12  1  0  0  0  0
 15 16  1  1  0  0  0
 15  9  1  0  0  0  0
 17 16  1  0  0  0  0
 18 17  1  0  0  0  0
 20 19  1  0  0  0  0
 20 18  1  0  0  0  0
 21 23  2  0  0  0  0
 22 23  1  0  0  0  0
 23  3  1  0  0  0  0
 24 31  1  0  0  0  0
 25 24  1  6  0  0  0
 25 26  1  0  0  0  0
 26 29  1  0  0  0  0
 28 29  1  0  0  0  0
 29 27  2  0  0  0  0
 30 25  1  0  0  0  0
 31 28  1  0  0  0  0
 32 30  1  0  0  0  0
 32 25  1  0  0  0  0
 32 22  1  1  0  0  0
 33 34  1  0  0  0  0
 35 37  1  0  0  0  0
 37 36  1  0  0  0  0
M  END
>  <MODEL>
7

>  <REMARK>
 VINA RESULT:      -4.4      2.467      4.448
  Name = 
  10 active torsions:
  status: ('A' for Active; 'I' for Inactive)
    1  A    between atoms: C_3  and  C_32
    2  A    between atoms: C_4  and  C_24
    3  A    between atoms: C_10  and  C_27
    4  A    between atoms: N_14  and  C_37
    5  A    between atoms: C_17  and  C_26
    6  A    between atoms: C_17  and  O_33
    7  A    between atoms: C_24  and  C_28
    8  A    between atoms: C_26  and  C_34
    9  A    between atoms: C_29  and  C_36
   10  A    between atoms: O_33  and  C_36
                            x       y       z     vdW  Elec       q    Type
                         _______ _______ _______ _____ _____    ______ ____

>  <TORSDO>
F 10

$$$$
=
 OpenBabel11052415283D

 37 41  0  0  1  0  0  0  0  0999 V2000
  182.3380  179.3510  143.0000 C   0  0  0  0  0  0  0  0  0  0  0  0
  185.1310  178.9160  145.5470 C   0  0  0  0  0  2  0  0  0  0  0  0
  182.7830  178.6530  141.9220 C   0  0  0  0  0  0  0  0  0  0  0  0
  184.2280  178.5970  144.3610 C   0  0  1  0  0  3  0  0  0  0  0  0
  183.2820  179.7480  144.0920 C   0  0  0  0  0  2  0  0  0  0  0  0
  185.0760  178.3850  143.1090 C   0  0  1  0  0  3  0  0  0  0  0  0
  186.9430  177.4890  144.5030 C   0  0  0  0  0  2  0  0  0  0  0  0
  186.0270  177.2100  143.3140 C   0  0  0  0  0  2  0  0  0  0  0  0
  184.2380  178.2030  141.8280 C   0  0  2  0  0  3  0  0  0  0  0  0
  186.1210  177.7680  145.7670 C   0  0  1  0  0  3  0  0  0  0  0  0
  184.1650  179.4520  139.6500 O   0  0  0  0  0  0  0  0  0  0  0  0
  184.8190  178.2490  139.3030 C   0  0  0  0  0  0  0  0  0  0  0  0
  185.8700  178.4980  138.2370 C   0  0  0  0  0  1  0  0  0  0  0  0
  183.8050  177.1410  139.0730 C   0  0  0  0  0  1  0  0  0  0  0  0
  184.9740  178.8650  140.6470 C   0  0  2  0  0  0  0  0  0  0  0  0
  186.2000  179.5250  140.8630 O   0  0  0  0  0  0  0  0  0  0  0  0
  187.2200  178.6280  140.5270 C   0  0  0  0  0  2  0  0  0  0  0  0
  188.4440  178.9150  141.3750 C   0  0  0  0  0  2  0  0  0  0  0  0
  190.2200  177.8390  142.7540 C   0  0  0  0  0  1  0  0  0  0  0  0
  189.2220  177.6370  141.6300 C   0  0  0  0  0  2  0  0  0  0  0  0
  181.6440  176.9780  140.6580 O   0  0  0  0  0  0  0  0  0  0  0  0
  181.2190  179.1780  140.0220 N   0  0  0  0  0  2  0  0  0  0  0  0
  181.8660  178.2050  140.8460 C   0  0  0  0  0  0  0  0  0  0  0  0
  179.3960  179.8260  136.7570 C   0  0  0  0  0  2  0  0  0  0  0  0
  179.7820  180.0220  138.2130 C   0  0  1  0  0  0  0  0  0  0  0  0
  180.1730  181.4210  138.6920 C   0  0  0  0  0  2  0  0  0  0  0  0
  181.2430  183.3780  137.8500 O   0  0  0  0  0  0  0  0  0  0  0  0
  180.8050  181.7630  136.2360 N   0  0  0  0  0  2  0  0  0  0  0  0
  180.7880  182.2350  137.5900 C   0  0  0  0  0  0  0  0  0  0  0  0
  178.9310  179.2480  139.1920 C   0  0  0  0  0  2  0  0  0  0  0  0
  180.5200  180.3740  135.8900 C   0  0  0  0  0  2  0  0  0  0  0  0
  180.3590  178.7990  138.9110 C   0  0  2  0  0  3  0  0  0  0  0  0
  187.0210  178.0340  146.9710 C   0  0  0  0  0  2  0  0  0  0  0  0
  188.2820  177.1800  146.9550 C   0  0  0  0  0  1  0  0  0  0  0  0
  180.8960  179.6890  143.2160 C   0  0  0  0  0  2  0  0  0  0  0  0
  178.9780  179.0100  144.6250 C   0  0  0  0  0  1  0  0  0  0  0  0
  180.1590  178.5090  143.8210 C   0  0  0  0  0  2  0  0  0  0  0  0
  1 35  1  0  0  0  0
  1  5  1  0  0  0  0
  2 10  1  0  0  0  0
  3  1  2  0  0  0  0
  4  5  1  6  0  0  0
  4  2  1  0  0  0  0
  6  8  1  1  0  0  0
  6  4  1  0  0  0  0
  7 10  1  0  0  0  0
  8  7  1  0  0  0  0
  9  3  1  1  0  0  0
  9  6  1  0  0  0  0
 10 33  1  1  0  0  0
 11 15  1  0  0  0  0
 12 11  1  0  0  0  0
 12 15  1  0  0  0  0
 13 12  1  0  0  0  0
 14 12  1  0  0  0  0
 15 16  1  1  0  0  0
 15  9  1  0  0  0  0
 17 16  1  0  0  0  0
 17 18  1  0  0  0  0
 18 20  1  0  0  0  0
 20 19  1  0  0  0  0
 21 23  2  0  0  0  0
 22 23  1  0  0  0  0
 23  3  1  0  0  0  0
 25 24  1  6  0  0  0
 25 26  1  0  0  0  0
 25 32  1  0  0  0  0
 25 30  1  0  0  0  0
 28 29  1  0  0  0  0
 29 27  2  0  0  0  0
 29 26  1  0  0  0  0
 31 28  1  0  0  0  0
 31 24  1  0  0  0  0
 32 30  1  0  0  0  0
 32 22  1  1  0  0  0
 34 33  1  0  0  0  0
 35 37  1  0  0  0  0
 37 36  1  0  0  0  0
M  END
>  <MODEL>
8

>  <REMARK>
 VINA RESULT:      -4.2      3.159      8.097
  Name = 
  10 active torsions:
  status: ('A' for Active; 'I' for Inactive)
    1  A    between atoms: C_3  and  C_32
    2  A    between atoms: C_4  and  C_24
    3  A    between atoms: C_10  and  C_27
    4  A    between atoms: N_14  and  C_37
    5  A    between atoms: C_17  and  C_26
    6  A    between atoms: C_17  and  O_33
    7  A    between atoms: C_24  and  C_28
    8  A    between atoms: C_26  and  C_34
    9  A    between atoms: C_29  and  C_36
   10  A    between atoms: O_33  and  C_36
                            x       y       z     vdW  Elec       q    Type
                         _______ _______ _______ _____ _____    ______ ____

>  <TORSDO>
F 10

$$$$
=
 OpenBabel11052415283D

 37 41  0  0  1  0  0  0  0  0999 V2000
  185.6510  178.1980  139.0550 C   0  0  0  0  0  0  0  0  0  0  0  0
  183.7670  175.7670  136.8150 C   0  0  0  0  0  2  0  0  0  0  0  0
  184.9170  178.2050  140.1990 C   0  0  0  0  0  0  0  0  0  0  0  0
  184.2770  176.4110  138.0980 C   0  0  1  0  0  3  0  0  0  0  0  0
  185.0720  177.6610  137.7830 C   0  0  0  0  0  2  0  0  0  0  0  0
  183.0950  176.8180  138.9770 C   0  0  1  0  0  3  0  0  0  0  0  0
  181.7560  174.9060  138.0900 C   0  0  0  0  0  2  0  0  0  0  0  0
  182.2770  175.5870  139.3540 C   0  0  0  0  0  2  0  0  0  0  0  0
  183.5110  177.6120  140.2310 C   0  0  2  0  0  3  0  0  0  0  0  0
  182.9150  174.5400  137.1550 C   0  0  1  0  0  3  0  0  0  0  0  0
  181.1670  178.4690  139.9540 O   0  0  0  0  0  0  0  0  0  0  0  0
  181.9500  179.5030  139.3950 C   0  0  0  0  0  0  0  0  0  0  0  0
  181.3230  180.8580  139.6670 C   0  0  0  0  0  1  0  0  0  0  0  0
  182.3380  179.1610  137.9660 C   0  0  0  0  0  1  0  0  0  0  0  0
  182.4390  178.6770  140.5300 C   0  0  2  0  0  0  0  0  0  0  0  0
  182.4110  179.3140  141.7860 O   0  0  0  0  0  0  0  0  0  0  0  0
  181.4660  178.6440  142.5720 C   0  0  0  0  0  2  0  0  0  0  0  0
  181.7220  178.9460  144.0360 C   0  0  0  0  0  2  0  0  0  0  0  0
  183.7490  178.6920  145.4630 C   0  0  0  0  0  1  0  0  0  0  0  0
  183.1630  179.3740  144.2430 C   0  0  0  0  0  2  0  0  0  0  0  0
  185.3420  179.8920  141.8350 O   0  0  0  0  0  0  0  0  0  0  0  0
  186.1640  177.7730  142.3420 N   0  0  0  0  0  2  0  0  0  0  0  0
  185.4760  178.6880  141.4850 C   0  0  0  0  0  0  0  0  0  0  0  0
  189.0950  178.1460  144.7220 C   0  0  0  0  0  2  0  0  0  0  0  0
  188.0740  177.4340  143.8520 C   0  0  1  0  0  0  0  0  0  0  0  0
  188.5630  176.3990  142.8370 C   0  0  0  0  0  2  0  0  0  0  0  0
  190.4540  176.0020  141.4400 O   0  0  0  0  0  0  0  0  0  0  0  0
  190.7270  177.7600  142.9360 N   0  0  0  0  0  2  0  0  0  0  0  0
  189.9480  176.7120  142.3460 C   0  0  0  0  0  0  0  0  0  0  0  0
  186.8070  177.0420  144.5740 C   0  0  0  0  0  2  0  0  0  0  0  0
  190.1420  178.7710  143.8130 C   0  0  0  0  0  2  0  0  0  0  0  0
  186.7870  178.2010  143.5850 C   0  0  2  0  0  3  0  0  0  0  0  0
  182.4140  173.8440  135.8920 C   0  0  0  0  0  2  0  0  0  0  0  0
  182.5740  172.3310  135.9590 C   0  0  0  0  0  1  0  0  0  0  0  0
  187.0830  178.6290  139.0010 C   0  0  0  0  0  2  0  0  0  0  0  0
  188.9360  178.2940  137.3950 C   0  0  0  0  0  1  0  0  0  0  0  0
  187.9220  177.5940  138.2740 C   0  0  0  0  0  2  0  0  0  0  0  0
  1  3  2  0  0  0  0
  2 10  1  0  0  0  0
  3 23  1  0  0  0  0
  4  2  1  6  0  0  0
  4  6  1  0  0  0  0
  5  4  1  0  0  0  0
  5  1  1  0  0  0  0
  6  8  1  1  0  0  0
  6  9  1  0  0  0  0
  7  8  1  0  0  0  0
  9  3  1  6  0  0  0
  9 15  1  0  0  0  0
 10 33  1  6  0  0  0
 10  7  1  0  0  0  0
 11 15  1  0  0  0  0
 12 13  1  0  0  0  0
 12 11  1  0  0  0  0
 12 15  1  0  0  0  0
 14 12  1  0  0  0  0
 15 16  1  1  0  0  0
 16 17  1  0  0  0  0
 17 18  1  0  0  0  0
 18 20  1  0  0  0  0
 20 19  1  0  0  0  0
 23 21  2  0  0  0  0
 23 22  1  0  0  0  0
 25 26  1  6  0  0  0
 25 30  1  0  0  0  0
 25 24  1  0  0  0  0
 27 29  2  0  0  0  0
 28 31  1  0  0  0  0
 29 26  1  0  0  0  0
 29 28  1  0  0  0  0
 31 24  1  0  0  0  0
 32 22  1  6  0  0  0
 32 25  1  0  0  0  0
 32 30  1  0  0  0  0
 33 34  1  0  0  0  0
 35  1  1  0  0  0  0
 36 37  1  0  0  0  0
 37 35  1  0  0  0  0
M  END
>  <MODEL>
9

>  <REMARK>
 VINA RESULT:      -4.2      3.227      6.241
  Name = 
  10 active torsions:
  status: ('A' for Active; 'I' for Inactive)
    1  A    between atoms: C_3  and  C_32
    2  A    between atoms: C_4  and  C_24
    3  A    between atoms: C_10  and  C_27
    4  A    between atoms: N_14  and  C_37
    5  A    between atoms: C_17  and  C_26
    6  A    between atoms: C_17  and  O_33
    7  A    between atoms: C_24  and  C_28
    8  A    between atoms: C_26  and  C_34
    9  A    between atoms: C_29  and  C_36
   10  A    between atoms: O_33  and  C_36
                            x       y       z     vdW  Elec       q    Type
                         _______ _______ _______ _____ _____    ______ ____

>  <TORSDO>
F 10

$$$$
