=
 OpenBabel11052413163D

 31 36  0  0  1  0  0  0  0  0999 V2000
  182.7360  178.6570  141.1770 O   0  0  0  0  0  0  0  0  0  0  0  0
  182.2820  178.3340  137.4860 C   0  0  1  0  0  3  0  0  0  0  0  0
  180.0730  176.7660  140.8700 C   0  0  0  0  0  1  0  0  0  0  0  0
  180.5560  178.1150  140.3530 C   0  0  2  0  0  3  0  0  0  0  0  0
  182.0530  178.1760  140.0380 C   0  0  2  0  0  0  0  0  0  0  0  0
  182.0840  180.5740  138.8720 C   0  0  0  0  0  2  0  0  0  0  0  0
  182.7550  176.5620  139.5420 S   0  0  0  0  0  0  0  0  0  0  0  0
  182.2810  179.0690  138.8140 C   0  0  0  0  0  0  0  0  0  0  0  0
  181.7980  179.3500  141.9700 C   0  0  1  0  0  3  0  0  0  0  0  0
  180.3950  179.1140  141.4550 C   0  0  0  0  0  2  0  0  0  0  0  0
  182.2970  176.8350  137.7940 C   0  0  2  0  0  3  0  0  0  0  0  0
  183.4860  179.9870  138.9110 C   0  0  0  0  0  2  0  0  0  0  0  0
  181.1090  178.7070  136.6270 C   0  0  0  0  0  0  0  0  0  0  0  0
  178.9350  178.2510  135.6790 C   0  0  0  0  0  3  0  0  0  0  0  0
  180.0060  177.8530  136.4790 C   0  0  0  0  0  3  0  0  0  0  0  0
  178.9610  179.4590  135.0510 N   0  0  0  0  0  0  0  0  0  0  0  0
  180.0100  181.4170  134.5940 O   0  0  0  0  0  0  0  0  0  0  0  0
  181.1100  179.9440  135.9770 C   0  0  0  0  0  2  0  0  0  0  0  0
  180.0180  180.3060  135.1850 C   0  0  0  0  0  0  0  0  0  0  0  0
  184.5080  179.5440  143.8740 C   0  0  0  0  0  2  0  0  0  0  0  0
  180.9070  178.4400  143.9770 O   0  0  0  0  0  0  0  0  0  0  0  0
  184.9320  179.2080  145.2270 C   0  0  0  0  0  2  0  0  0  0  0  0
  183.5870  178.7690  145.4430 N   0  0  0  0  0  2  0  0  0  0  0  0
  181.9080  178.9440  143.4060 C   0  0  0  0  0  0  0  0  0  0  0  0
  183.1350  179.0780  144.1270 N   0  0  0  0  0  0  0  0  0  0  0  0
  185.1850  174.6630  136.9850 O   0  0  0  0  0  0  0  0  0  0  0  0
  183.2050  176.0350  136.8580 C   0  0  1  0  0  3  0  0  0  0  0  0
  183.0450  173.5100  137.2420 C   0  0  0  0  0  2  0  0  0  0  0  0
  184.5260  173.6130  137.6490 C   0  0  0  0  0  2  0  0  0  0  0  0
  184.5990  175.8460  137.4670 C   0  0  0  0  0  2  0  0  0  0  0  0
  182.5850  174.7050  136.3960 C   0  0  0  0  0  2  0  0  0  0  0  0
  1  9  1  0  0  0  0
  2 13  1  1  0  0  0
  2 11  1  0  0  0  0
  2  8  1  0  0  0  0
  4  3  1  1  0  0  0
  4 10  1  0  0  0  0
  5  7  1  6  0  0  0
  5  4  1  0  0  0  0
  5  1  1  0  0  0  0
  6 12  1  0  0  0  0
  8  6  1  0  0  0  0
  8 12  1  0  0  0  0
  8  5  1  0  0  0  0
  9 24  1  1  0  0  0
 10  9  1  0  0  0  0
 11  7  1  1  0  0  0
 14 15  1  0  0  0  0
 15 13  2  0  0  0  0
 16 19  1  0  0  0  0
 16 14  2  0  0  0  0
 17 19  2  0  0  0  0
 18 13  1  0  0  0  0
 19 18  1  0  0  0  0
 20 25  1  0  0  0  0
 20 22  1  0  0  0  0
 22 23  1  0  0  0  0
 24 21  2  0  0  0  0
 24 25  1  0  0  0  0
 25 23  1  0  0  0  0
 26 30  1  0  0  0  0
 26 29  1  0  0  0  0
 27 31  1  1  0  0  0
 27 30  1  0  0  0  0
 27 11  1  0  0  0  0
 28 29  1  0  0  0  0
 31 28  1  0  0  0  0
M  END
>  <MODEL>
1

>  <REMARK>
 VINA RESULT:      -5.6      0.000      0.000
  Name = 
  3 active torsions:
  status: ('A' for Active; 'I' for Inactive)
    1  A    between atoms: C_4  and  C_5
    2  A    between atoms: C_12  and  C_27
    3  A    between atoms: C_19  and  C_22
                            x       y       z     vdW  Elec       q    Type
                         _______ _______ _______ _____ _____    ______ ____

>  <TORSDO>
F 3

$$$$
=
 OpenBabel11052413163D

 31 36  0  0  1  0  0  0  0  0999 V2000
  182.0090  176.6650  137.3620 O   0  0  0  0  0  0  0  0  0  0  0  0
  181.7640  179.1220  140.1620 C   0  0  1  0  0  3  0  0  0  0  0  0
  178.9320  176.3230  138.4470 C   0  0  0  0  0  1  0  0  0  0  0  0
  180.3370  176.3030  139.0350 C   0  0  2  0  0  3  0  0  0  0  0  0
  181.3060  177.3080  138.4030 C   0  0  2  0  0  0  0  0  0  0  0  0
  183.3270  176.9930  140.1120 C   0  0  0  0  0  2  0  0  0  0  0  0
  180.4740  178.7990  137.7480 S   0  0  0  0  0  0  0  0  0  0  0  0
  182.2480  177.8550  139.4800 C   0  0  0  0  0  0  0  0  0  0  0  0
  181.9410  175.2760  137.6000 C   0  0  1  0  0  3  0  0  0  0  0  0
  180.9540  174.9790  138.7080 C   0  0  0  0  0  2  0  0  0  0  0  0
  180.5520  179.6280  139.3760 C   0  0  2  0  0  3  0  0  0  0  0  0
  183.6930  178.0080  139.0420 C   0  0  0  0  0  2  0  0  0  0  0  0
  181.4270  178.8980  141.6070 C   0  0  0  0  0  0  0  0  0  0  0  0
  179.8710  178.3420  143.3690 C   0  0  0  0  0  3  0  0  0  0  0  0
  180.1310  178.5500  142.0130 C   0  0  0  0  0  3  0  0  0  0  0  0
  180.8690  178.4730  144.2840 N   0  0  0  0  0  0  0  0  0  0  0  0
  183.0370  178.9140  144.7840 O   0  0  0  0  0  0  0  0  0  0  0  0
  182.4360  179.0210  142.5650 C   0  0  0  0  0  2  0  0  0  0  0  0
  182.1360  178.8040  143.9120 C   0  0  0  0  0  0  0  0  0  0  0  0
  182.6150  172.1010  136.9160 C   0  0  0  0  0  2  0  0  0  0  0  0
  180.9790  175.1530  135.4300 O   0  0  0  0  0  0  0  0  0  0  0  0
  182.4400  171.1450  135.8290 C   0  0  0  0  0  2  0  0  0  0  0  0
  181.7610  172.1960  135.1350 N   0  0  0  0  0  2  0  0  0  0  0  0
  181.5720  174.5370  136.3520 C   0  0  0  0  0  0  0  0  0  0  0  0
  181.9170  173.1610  136.1720 N   0  0  0  0  0  0  0  0  0  0  0  0
  181.3470  182.8290  137.6920 O   0  0  0  0  0  0  0  0  0  0  0  0
  180.5290  181.1490  139.2170 C   0  0  1  0  0  3  0  0  0  0  0  0
  179.1300  181.9150  137.2150 C   0  0  0  0  0  2  0  0  0  0  0  0
  180.4610  182.4580  136.6640 C   0  0  0  0  0  2  0  0  0  0  0  0
  181.6930  181.6350  138.3450 C   0  0  0  0  0  2  0  0  0  0  0  0
  179.1730  181.6910  138.7330 C   0  0  0  0  0  2  0  0  0  0  0  0
  1  9  1  0  0  0  0
  2 13  1  1  0  0  0
  4  3  1  6  0  0  0
  5  1  1  6  0  0  0
  5  4  1  0  0  0  0
  5  8  1  0  0  0  0
  7  5  1  0  0  0  0
  8  6  1  0  0  0  0
  8  2  1  0  0  0  0
  9 24  1  6  0  0  0
  9 10  1  0  0  0  0
 10  4  1  0  0  0  0
 11  7  1  6  0  0  0
 11  2  1  0  0  0  0
 12  8  1  0  0  0  0
 12  6  1  0  0  0  0
 13 15  2  0  0  0  0
 13 18  1  0  0  0  0
 14 16  2  0  0  0  0
 15 14  1  0  0  0  0
 18 19  1  0  0  0  0
 19 16  1  0  0  0  0
 19 17  2  0  0  0  0
 21 24  2  0  0  0  0
 22 20  1  0  0  0  0
 23 22  1  0  0  0  0
 23 25  1  0  0  0  0
 25 24  1  0  0  0  0
 25 20  1  0  0  0  0
 26 30  1  0  0  0  0
 27 30  1  6  0  0  0
 27 11  1  0  0  0  0
 28 31  1  0  0  0  0
 29 28  1  0  0  0  0
 29 26  1  0  0  0  0
 31 27  1  0  0  0  0
M  END
>  <MODEL>
2

>  <REMARK>
 VINA RESULT:      -5.4      2.902      7.385
  Name = 
  3 active torsions:
  status: ('A' for Active; 'I' for Inactive)
    1  A    between atoms: C_4  and  C_5
    2  A    between atoms: C_12  and  C_27
    3  A    between atoms: C_19  and  C_22
                            x       y       z     vdW  Elec       q    Type
                         _______ _______ _______ _____ _____    ______ ____

>  <TORSDO>
F 3

$$$$
=
 OpenBabel11052413163D

 31 36  0  0  1  0  0  0  0  0999 V2000
  182.4260  178.6950  137.4490 O   0  0  0  0  0  0  0  0  0  0  0  0
  184.9650  176.1990  136.3260 C   0  0  1  0  0  3  0  0  0  0  0  0
  183.2610  177.1210  140.2040 C   0  0  0  0  0  1  0  0  0  0  0  0
  182.7770  176.7560  138.8070 C   0  0  2  0  0  3  0  0  0  0  0  0
  183.3360  177.6420  137.6880 C   0  0  2  0  0  0  0  0  0  0  0  0
  182.4210  176.2360  135.6160 C   0  0  0  0  0  2  0  0  0  0  0  0
  184.9850  178.3330  138.0690 S   0  0  0  0  0  0  0  0  0  0  0  0
  183.5720  176.7930  136.4350 C   0  0  0  0  0  0  0  0  0  0  0  0
  181.1680  178.2880  137.9400 C   0  0  1  0  0  3  0  0  0  0  0  0
  181.3050  177.0160  138.7480 C   0  0  0  0  0  2  0  0  0  0  0  0
  185.8230  176.8460  137.4160 C   0  0  2  0  0  3  0  0  0  0  0  0
  183.1780  177.4610  135.1310 C   0  0  0  0  0  2  0  0  0  0  0  0
  184.9580  174.7030  136.4470 C   0  0  0  0  0  0  0  0  0  0  0  0
  184.4010  172.6650  137.6160 C   0  0  0  0  0  3  0  0  0  0  0  0
  184.3930  174.0590  137.5560 C   0  0  0  0  0  3  0  0  0  0  0  0
  184.9510  171.9400  136.6030 N   0  0  0  0  0  0  0  0  0  0  0  0
  185.9970  171.8450  134.5940 O   0  0  0  0  0  0  0  0  0  0  0  0
  185.5110  173.9380  135.4180 C   0  0  0  0  0  2  0  0  0  0  0  0
  185.5000  172.5450  135.5140 C   0  0  0  0  0  0  0  0  0  0  0  0
  180.4850  181.3780  136.9440 C   0  0  0  0  0  2  0  0  0  0  0  0
  180.2570  179.1370  139.9650 O   0  0  0  0  0  0  0  0  0  0  0  0
  179.9420  182.6170  137.4870 C   0  0  0  0  0  2  0  0  0  0  0  0
  179.7590  181.8960  138.7090 N   0  0  0  0  0  2  0  0  0  0  0  0
  180.5380  179.3690  138.7610 C   0  0  0  0  0  0  0  0  0  0  0  0
  180.2890  180.6680  138.2180 N   0  0  0  0  0  0  0  0  0  0  0  0
  188.8520  178.9590  137.1610 O   0  0  0  0  0  0  0  0  0  0  0  0
  187.2420  177.1760  136.9500 C   0  0  1  0  0  3  0  0  0  0  0  0
  188.9310  177.2160  138.8730 C   0  0  0  0  0  2  0  0  0  0  0  0
  189.0910  178.7070  138.5240 C   0  0  0  0  0  2  0  0  0  0  0  0
  187.4890  178.6900  136.9560 C   0  0  0  0  0  2  0  0  0  0  0  0
  188.3310  176.4050  137.7160 C   0  0  0  0  0  2  0  0  0  0  0  0
  1  9  1  0  0  0  0
  2  8  1  0  0  0  0
  2 13  1  1  0  0  0
  2 11  1  0  0  0  0
  4  3  1  1  0  0  0
  5  1  1  6  0  0  0
  5  7  1  0  0  0  0
  5  4  1  0  0  0  0
  6  8  1  0  0  0  0
  8  5  1  0  0  0  0
  9 10  1  0  0  0  0
  9 24  1  1  0  0  0
 10  4  1  0  0  0  0
 11  7  1  6  0  0  0
 12  6  1  0  0  0  0
 12  8  1  0  0  0  0
 13 15  2  0  0  0  0
 15 14  1  0  0  0  0
 16 14  2  0  0  0  0
 17 19  2  0  0  0  0
 18 19  1  0  0  0  0
 18 13  1  0  0  0  0
 19 16  1  0  0  0  0
 20 22  1  0  0  0  0
 20 25  1  0  0  0  0
 22 23  1  0  0  0  0
 24 21  2  0  0  0  0
 25 23  1  0  0  0  0
 25 24  1  0  0  0  0
 26 29  1  0  0  0  0
 27 30  1  1  0  0  0
 27 11  1  0  0  0  0
 27 31  1  0  0  0  0
 29 28  1  0  0  0  0
 30 26  1  0  0  0  0
 31 28  1  0  0  0  0
M  END
>  <MODEL>
3

>  <REMARK>
 VINA RESULT:      -5.3      3.375      6.200
  Name = 
  3 active torsions:
  status: ('A' for Active; 'I' for Inactive)
    1  A    between atoms: C_4  and  C_5
    2  A    between atoms: C_12  and  C_27
    3  A    between atoms: C_19  and  C_22
                            x       y       z     vdW  Elec       q    Type
                         _______ _______ _______ _____ _____    ______ ____

>  <TORSDO>
F 3

$$$$
=
 OpenBabel11052413163D

 31 36  0  0  1  0  0  0  0  0999 V2000
  184.0470  177.9330  137.0060 O   0  0  0  0  0  0  0  0  0  0  0  0
  181.4030  179.3060  139.2550 C   0  0  1  0  0  3  0  0  0  0  0  0
  181.6200  175.7340  136.8080 C   0  0  0  0  0  1  0  0  0  0  0  0
  182.4320  176.4130  137.9040 C   0  0  2  0  0  3  0  0  0  0  0  0
  182.7780  177.8790  137.6230 C   0  0  2  0  0  0  0  0  0  0  0  0
  183.7940  178.4790  140.0140 C   0  0  0  0  0  2  0  0  0  0  0  0
  181.5480  178.7230  136.5660 S   0  0  0  0  0  0  0  0  0  0  0  0
  182.7440  178.6710  138.9330 C   0  0  0  0  0  0  0  0  0  0  0  0
  184.7200  176.7340  137.3160 C   0  0  1  0  0  3  0  0  0  0  0  0
  183.7710  175.7490  137.9630 C   0  0  0  0  0  2  0  0  0  0  0  0
  180.5210  179.1620  138.0130 C   0  0  2  0  0  3  0  0  0  0  0  0
  183.8610  179.6860  139.0930 C   0  0  0  0  0  2  0  0  0  0  0  0
  180.7560  178.6910  140.4620 C   0  0  0  0  0  0  0  0  0  0  0  0
  180.1330  178.7290  142.7950 C   0  0  0  0  0  3  0  0  0  0  0  0
  180.7580  179.3380  141.7060 C   0  0  0  0  0  3  0  0  0  0  0  0
  179.5240  177.5210  142.6470 N   0  0  0  0  0  0  0  0  0  0  0  0
  178.9310  175.7630  141.3440 O   0  0  0  0  0  0  0  0  0  0  0  0
  180.1200  177.4540  140.3340 C   0  0  0  0  0  2  0  0  0  0  0  0
  179.5050  176.8780  141.4470 C   0  0  0  0  0  0  0  0  0  0  0  0
  187.8420  175.6500  137.0240 C   0  0  0  0  0  2  0  0  0  0  0  0
  184.6660  176.0550  135.0390 O   0  0  0  0  0  0  0  0  0  0  0  0
  188.7250  175.0870  136.0100 C   0  0  0  0  0  2  0  0  0  0  0  0
  187.5990  175.1460  135.1280 N   0  0  0  0  0  2  0  0  0  0  0  0
  185.3450  176.1380  136.0940 C   0  0  0  0  0  0  0  0  0  0  0  0
  186.7070  175.7020  136.0900 N   0  0  0  0  0  0  0  0  0  0  0  0
  179.7300  182.7770  138.1530 O   0  0  0  0  0  0  0  0  0  0  0  0
  179.6740  180.4030  137.7270 C   0  0  1  0  0  3  0  0  0  0  0  0
  180.8020  182.0170  136.0920 C   0  0  0  0  0  2  0  0  0  0  0  0
  180.8050  183.0020  137.2750 C   0  0  0  0  0  2  0  0  0  0  0  0
  179.9700  181.5210  138.7350 C   0  0  0  0  0  2  0  0  0  0  0  0
  179.7760  180.8900  136.2710 C   0  0  0  0  0  2  0  0  0  0  0  0
  1  9  1  0  0  0  0
  1  5  1  0  0  0  0
  2 13  1  1  0  0  0
  4  3  1  6  0  0  0
  4 10  1  0  0  0  0
  5  7  1  6  0  0  0
  5  4  1  0  0  0  0
  5  8  1  0  0  0  0
  8 12  1  0  0  0  0
  8  2  1  0  0  0  0
  8  6  1  0  0  0  0
  9 24  1  6  0  0  0
  9 10  1  0  0  0  0
 11  7  1  6  0  0  0
 11  2  1  0  0  0  0
 12  6  1  0  0  0  0
 13 15  2  0  0  0  0
 15 14  1  0  0  0  0
 16 14  2  0  0  0  0
 17 19  2  0  0  0  0
 18 13  1  0  0  0  0
 18 19  1  0  0  0  0
 19 16  1  0  0  0  0
 21 24  2  0  0  0  0
 22 20  1  0  0  0  0
 23 22  1  0  0  0  0
 23 25  1  0  0  0  0
 25 24  1  0  0  0  0
 25 20  1  0  0  0  0
 26 30  1  0  0  0  0
 27 31  1  6  0  0  0
 27 11  1  0  0  0  0
 27 30  1  0  0  0  0
 28 31  1  0  0  0  0
 28 29  1  0  0  0  0
 29 26  1  0  0  0  0
M  END
>  <MODEL>
4

>  <REMARK>
 VINA RESULT:      -5.3      3.249      6.913
  Name = 
  3 active torsions:
  status: ('A' for Active; 'I' for Inactive)
    1  A    between atoms: C_4  and  C_5
    2  A    between atoms: C_12  and  C_27
    3  A    between atoms: C_19  and  C_22
                            x       y       z     vdW  Elec       q    Type
                         _______ _______ _______ _____ _____    ______ ____

>  <TORSDO>
F 3

$$$$
=
 OpenBabel11052413163D

 31 36  0  0  1  0  0  0  0  0999 V2000
  183.8980  177.8560  141.2810 O   0  0  0  0  0  0  0  0  0  0  0  0
  181.9170  178.3210  138.1510 C   0  0  1  0  0  3  0  0  0  0  0  0
  180.8020  178.1200  142.3360 C   0  0  0  0  0  1  0  0  0  0  0  0
  181.7560  178.9100  141.4490 C   0  0  2  0  0  3  0  0  0  0  0  0
  182.6840  178.0490  140.5860 C   0  0  2  0  0  0  0  0  0  0  0  0
  183.7190  180.0040  139.0980 C   0  0  0  0  0  2  0  0  0  0  0  0
  181.9640  176.4250  140.1510 S   0  0  0  0  0  0  0  0  0  0  0  0
  182.9000  178.7310  139.2320 C   0  0  0  0  0  0  0  0  0  0  0  0
  184.0070  178.8870  142.2370 C   0  0  1  0  0  3  0  0  0  0  0  0
  182.7040  179.6510  142.3390 C   0  0  0  0  0  2  0  0  0  0  0  0
  181.1240  177.1260  138.6860 C   0  0  2  0  0  3  0  0  0  0  0  0
  184.3220  178.6650  138.7060 C   0  0  0  0  0  2  0  0  0  0  0  0
  181.0090  179.4460  137.7490 C   0  0  0  0  0  0  0  0  0  0  0  0
  179.1990  180.9830  138.1910 C   0  0  0  0  0  3  0  0  0  0  0  0
  180.0100  179.9270  138.6080 C   0  0  0  0  0  3  0  0  0  0  0  0
  179.3810  181.5420  136.9640 N   0  0  0  0  0  0  0  0  0  0  0  0
  180.4920  181.6370  134.9890 O   0  0  0  0  0  0  0  0  0  0  0  0
  181.1800  180.0400  136.4960 C   0  0  0  0  0  2  0  0  0  0  0  0
  180.3480  181.0960  136.1160 C   0  0  0  0  0  0  0  0  0  0  0  0
  187.0020  177.7420  143.0870 C   0  0  0  0  0  2  0  0  0  0  0  0
  183.5380  178.2540  144.4790 O   0  0  0  0  0  0  0  0  0  0  0  0
  187.6660  177.1330  144.2340 C   0  0  0  0  0  2  0  0  0  0  0  0
  186.4190  177.2840  144.9210 N   0  0  0  0  0  2  0  0  0  0  0  0
  184.4050  178.3400  143.5710 C   0  0  0  0  0  0  0  0  0  0  0  0
  185.7330  177.8760  143.8210 N   0  0  0  0  0  0  0  0  0  0  0  0
  181.0910  173.6580  137.3890 O   0  0  0  0  0  0  0  0  0  0  0  0
  180.8720  176.0480  137.6310 C   0  0  1  0  0  3  0  0  0  0  0  0
  178.9580  174.4710  138.2630 C   0  0  0  0  0  2  0  0  0  0  0  0
  180.0430  173.3790  138.2840 C   0  0  0  0  0  2  0  0  0  0  0  0
  181.7290  174.8030  137.8940 C   0  0  0  0  0  2  0  0  0  0  0  0
  179.3830  175.7030  137.4530 C   0  0  0  0  0  2  0  0  0  0  0  0
  1  9  1  0  0  0  0
  2 13  1  1  0  0  0
  2 11  1  0  0  0  0
  2  8  1  0  0  0  0
  4  3  1  1  0  0  0
  4 10  1  0  0  0  0
  5  7  1  6  0  0  0
  5  1  1  0  0  0  0
  5  4  1  0  0  0  0
  6  8  1  0  0  0  0
  8  5  1  0  0  0  0
  9 10  1  0  0  0  0
  9 24  1  1  0  0  0
 11  7  1  1  0  0  0
 12  6  1  0  0  0  0
 12  8  1  0  0  0  0
 13 15  2  0  0  0  0
 14 15  1  0  0  0  0
 16 14  2  0  0  0  0
 17 19  2  0  0  0  0
 18 13  1  0  0  0  0
 19 18  1  0  0  0  0
 19 16  1  0  0  0  0
 20 25  1  0  0  0  0
 20 22  1  0  0  0  0
 22 23  1  0  0  0  0
 24 25  1  0  0  0  0
 24 21  2  0  0  0  0
 25 23  1  0  0  0  0
 26 30  1  0  0  0  0
 26 29  1  0  0  0  0
 27 31  1  1  0  0  0
 27 30  1  0  0  0  0
 27 11  1  0  0  0  0
 28 29  1  0  0  0  0
 31 28  1  0  0  0  0
M  END
>  <MODEL>
5

>  <REMARK>
 VINA RESULT:      -5.2      2.169      2.588
  Name = 
  3 active torsions:
  status: ('A' for Active; 'I' for Inactive)
    1  A    between atoms: C_4  and  C_5
    2  A    between atoms: C_12  and  C_27
    3  A    between atoms: C_19  and  C_22
                            x       y       z     vdW  Elec       q    Type
                         _______ _______ _______ _____ _____    ______ ____

>  <TORSDO>
F 3

$$$$
=
 OpenBabel11052413163D

 31 36  0  0  1  0  0  0  0  0999 V2000
  189.7500  178.0340  142.2440 O   0  0  0  0  0  0  0  0  0  0  0  0
  189.9240  177.8100  145.9660 C   0  0  1  0  0  3  0  0  0  0  0  0
  189.7900  174.8080  142.8420 C   0  0  0  0  0  1  0  0  0  0  0  0
  190.6240  176.0280  143.2120 C   0  0  2  0  0  3  0  0  0  0  0  0
  189.8130  177.3050  143.4510 C   0  0  2  0  0  0  0  0  0  0  0  0
  191.7890  178.8240  144.3950 C   0  0  0  0  0  2  0  0  0  0  0  0
  188.1180  176.9810  144.0570 S   0  0  0  0  0  0  0  0  0  0  0  0
  190.4580  178.1160  144.5780 C   0  0  0  0  0  0  0  0  0  0  0  0
  190.8240  177.6050  141.4350 C   0  0  1  0  0  3  0  0  0  0  0  0
  191.4770  176.3780  142.0330 C   0  0  0  0  0  2  0  0  0  0  0  0
  188.6870  176.9250  145.7930 C   0  0  2  0  0  3  0  0  0  0  0  0
  190.4930  179.6160  144.3440 C   0  0  0  0  0  2  0  0  0  0  0  0
  190.9510  177.1540  146.8410 C   0  0  0  0  0  0  0  0  0  0  0  0
  192.4310  175.3230  147.3800 C   0  0  0  0  0  3  0  0  0  0  0  0
  191.4680  175.8850  146.5410 C   0  0  0  0  0  3  0  0  0  0  0  0
  192.8640  176.0030  148.4760 N   0  0  0  0  0  0  0  0  0  0  0  0
  192.8060  177.8410  149.8020 O   0  0  0  0  0  0  0  0  0  0  0  0
  191.4160  177.8340  147.9680 C   0  0  0  0  0  2  0  0  0  0  0  0
  192.3810  177.2380  148.7830 C   0  0  0  0  0  0  0  0  0  0  0  0
  192.7240  176.6700  138.8810 C   0  0  0  0  0  2  0  0  0  0  0  0
  189.1500  177.4920  139.7500 O   0  0  0  0  0  0  0  0  0  0  0  0
  192.5950  176.3790  137.4580 C   0  0  0  0  0  2  0  0  0  0  0  0
  191.1960  176.6310  137.6260 N   0  0  0  0  0  2  0  0  0  0  0  0
  190.3640  177.3300  140.0380 C   0  0  0  0  0  0  0  0  0  0  0  0
  191.2810  176.9280  139.0170 N   0  0  0  0  0  0  0  0  0  0  0  0
  186.5900  179.2400  147.7830 O   0  0  0  0  0  0  0  0  0  0  0  0
  187.5510  177.2810  146.7540 C   0  0  1  0  0  3  0  0  0  0  0  0
  185.6650  178.5850  145.6170 C   0  0  0  0  0  2  0  0  0  0  0  0
  186.0560  179.7240  146.5760 C   0  0  0  0  0  2  0  0  0  0  0  0
  187.8080  178.6280  147.4420 C   0  0  0  0  0  2  0  0  0  0  0  0
  186.1580  177.2150  146.1030 C   0  0  0  0  0  2  0  0  0  0  0  0
  2 13  1  1  0  0  0
  4  3  1  6  0  0  0
  4  5  1  0  0  0  0
  5  1  1  6  0  0  0
  5  7  1  0  0  0  0
  5  8  1  0  0  0  0
  6  8  1  0  0  0  0
  8  2  1  0  0  0  0
  9 24  1  6  0  0  0
  9 10  1  0  0  0  0
  9  1  1  0  0  0  0
 10  4  1  0  0  0  0
 11  7  1  6  0  0  0
 11  2  1  0  0  0  0
 11 27  1  0  0  0  0
 12  6  1  0  0  0  0
 12  8  1  0  0  0  0
 13 18  1  0  0  0  0
 14 16  2  0  0  0  0
 15 13  2  0  0  0  0
 15 14  1  0  0  0  0
 16 19  1  0  0  0  0
 18 19  1  0  0  0  0
 19 17  2  0  0  0  0
 20 25  1  0  0  0  0
 21 24  2  0  0  0  0
 22 23  1  0  0  0  0
 22 20  1  0  0  0  0
 23 25  1  0  0  0  0
 25 24  1  0  0  0  0
 27 31  1  6  0  0  0
 27 30  1  0  0  0  0
 28 31  1  0  0  0  0
 28 29  1  0  0  0  0
 29 26  1  0  0  0  0
 30 26  1  0  0  0  0
M  END
>  <MODEL>
6

>  <REMARK>
 VINA RESULT:      -5.2      8.340     12.236
  Name = 
  3 active torsions:
  status: ('A' for Active; 'I' for Inactive)
    1  A    between atoms: C_4  and  C_5
    2  A    between atoms: C_12  and  C_27
    3  A    between atoms: C_19  and  C_22
                            x       y       z     vdW  Elec       q    Type
                         _______ _______ _______ _____ _____    ______ ____

>  <TORSDO>
F 3

$$$$
=
 OpenBabel11052413163D

 31 36  0  0  1  0  0  0  0  0999 V2000
  189.8700  178.1170  142.2030 O   0  0  0  0  0  0  0  0  0  0  0  0
  189.9330  177.7860  145.9210 C   0  0  1  0  0  3  0  0  0  0  0  0
  190.0010  174.8780  142.7070 C   0  0  0  0  0  1  0  0  0  0  0  0
  190.7800  176.1120  143.1400 C   0  0  2  0  0  3  0  0  0  0  0  0
  189.9190  177.3540  143.3900 C   0  0  2  0  0  0  0  0  0  0  0  0
  191.8120  178.9080  144.4420 C   0  0  0  0  0  2  0  0  0  0  0  0
  188.2180  176.9560  143.9300 S   0  0  0  0  0  0  0  0  0  0  0  0
  190.5000  178.1520  144.5610 C   0  0  0  0  0  0  0  0  0  0  0  0
  190.9820  177.7490  141.4180 C   0  0  1  0  0  3  0  0  0  0  0  0
  191.6570  176.5260  142.0010 C   0  0  0  0  0  2  0  0  0  0  0  0
  188.7330  176.8660  145.6820 C   0  0  2  0  0  3  0  0  0  0  0  0
  190.4910  179.6580  144.3720 C   0  0  0  0  0  2  0  0  0  0  0  0
  190.9540  177.1370  146.8090 C   0  0  0  0  0  0  0  0  0  0  0  0
  192.4310  175.3120  147.3750 C   0  0  0  0  0  3  0  0  0  0  0  0
  191.4740  175.8670  146.5230 C   0  0  0  0  0  3  0  0  0  0  0  0
  192.8550  176.0010  148.4690 N   0  0  0  0  0  0  0  0  0  0  0  0
  192.7830  177.8490  149.7810 O   0  0  0  0  0  0  0  0  0  0  0  0
  191.4090  177.8270  147.9350 C   0  0  0  0  0  2  0  0  0  0  0  0
  192.3670  177.2370  148.7620 C   0  0  0  0  0  0  0  0  0  0  0  0
  187.9770  178.2530  140.1070 C   0  0  0  0  0  2  0  0  0  0  0  0
  191.4190  177.0200  139.1980 O   0  0  0  0  0  0  0  0  0  0  0  0
  187.2840  178.0790  138.8360 C   0  0  0  0  0  2  0  0  0  0  0  0
  188.5350  177.6110  138.3220 N   0  0  0  0  0  2  0  0  0  0  0  0
  190.5770  177.5020  139.9990 C   0  0  0  0  0  0  0  0  0  0  0  0
  189.2460  177.7610  139.5470 N   0  0  0  0  0  0  0  0  0  0  0  0
  186.5420  179.0380  147.7290 O   0  0  0  0  0  0  0  0  0  0  0  0
  187.5560  177.1550  146.6150 C   0  0  1  0  0  3  0  0  0  0  0  0
  185.7110  178.5250  145.4880 C   0  0  0  0  0  2  0  0  0  0  0  0
  186.0550  179.6000  146.5350 C   0  0  0  0  0  2  0  0  0  0  0  0
  187.7760  178.4530  147.4000 C   0  0  0  0  0  2  0  0  0  0  0  0
  186.1920  177.1280  145.9030 C   0  0  0  0  0  2  0  0  0  0  0  0
  2 13  1  1  0  0  0
  4  3  1  6  0  0  0
  4  5  1  0  0  0  0
  5  1  1  6  0  0  0
  5  7  1  0  0  0  0
  5  8  1  0  0  0  0
  6  8  1  0  0  0  0
  8  2  1  0  0  0  0
  9 24  1  6  0  0  0
  9 10  1  0  0  0  0
  9  1  1  0  0  0  0
 10  4  1  0  0  0  0
 11  7  1  6  0  0  0
 11  2  1  0  0  0  0
 11 27  1  0  0  0  0
 12  6  1  0  0  0  0
 12  8  1  0  0  0  0
 13 18  1  0  0  0  0
 14 16  2  0  0  0  0
 15 13  2  0  0  0  0
 15 14  1  0  0  0  0
 16 19  1  0  0  0  0
 18 19  1  0  0  0  0
 19 17  2  0  0  0  0
 21 24  2  0  0  0  0
 22 20  1  0  0  0  0
 23 22  1  0  0  0  0
 23 25  1  0  0  0  0
 25 24  1  0  0  0  0
 25 20  1  0  0  0  0
 27 31  1  6  0  0  0
 27 30  1  0  0  0  0
 28 31  1  0  0  0  0
 28 29  1  0  0  0  0
 29 26  1  0  0  0  0
 30 26  1  0  0  0  0
M  END
>  <MODEL>
7

>  <REMARK>
 VINA RESULT:      -5.2      6.773     11.980
  Name = 
  3 active torsions:
  status: ('A' for Active; 'I' for Inactive)
    1  A    between atoms: C_4  and  C_5
    2  A    between atoms: C_12  and  C_27
    3  A    between atoms: C_19  and  C_22
                            x       y       z     vdW  Elec       q    Type
                         _______ _______ _______ _____ _____    ______ ____

>  <TORSDO>
F 3

$$$$
=
 OpenBabel11052413163D

 31 36  0  0  1  0  0  0  0  0999 V2000
  188.9830  177.1570  144.5090 O   0  0  0  0  0  0  0  0  0  0  0  0
  189.8790  177.0010  140.8890 C   0  0  1  0  0  3  0  0  0  0  0  0
  190.8370  179.8230  144.0380 C   0  0  0  0  0  1  0  0  0  0  0  0
  190.9410  178.3250  143.7820 C   0  0  2  0  0  3  0  0  0  0  0  0
  189.6290  177.6580  143.3580 C   0  0  2  0  0  0  0  0  0  0  0  0
  190.6170  175.2620  142.7350 C   0  0  0  0  0  2  0  0  0  0  0  0
  188.4990  178.7890  142.4690 S   0  0  0  0  0  0  0  0  0  0  0  0
  189.9230  176.5540  142.3390 C   0  0  0  0  0  0  0  0  0  0  0  0
  189.9640  177.0060  145.5120 C   0  0  1  0  0  3  0  0  0  0  0  0
  191.2610  177.6570  145.0830 C   0  0  0  0  0  2  0  0  0  0  0  0
  189.2960  178.4160  140.8660 C   0  0  2  0  0  3  0  0  0  0  0  0
  189.1120  175.2840  142.5250 C   0  0  0  0  0  2  0  0  0  0  0  0
  191.2290  176.9530  140.2360 C   0  0  0  0  0  0  0  0  0  0  0  0
  193.5880  177.4690  140.1830 C   0  0  0  0  0  3  0  0  0  0  0  0
  192.3520  177.5520  140.8250 C   0  0  0  0  0  3  0  0  0  0  0  0
  193.7010  176.8090  138.9990 N   0  0  0  0  0  0  0  0  0  0  0  0
  192.7650  175.6080  137.3170 O   0  0  0  0  0  0  0  0  0  0  0  0
  191.3710  176.2750  139.0220 C   0  0  0  0  0  2  0  0  0  0  0  0
  192.6260  176.2140  138.4120 C   0  0  0  0  0  0  0  0  0  0  0  0
  186.8940  178.0540  146.2100 C   0  0  0  0  0  2  0  0  0  0  0  0
  190.3180  177.7260  147.7500 O   0  0  0  0  0  0  0  0  0  0  0  0
  186.1620  178.6700  147.3100 C   0  0  0  0  0  2  0  0  0  0  0  0
  187.3850  178.5910  148.0490 N   0  0  0  0  0  2  0  0  0  0  0  0
  189.4920  177.5770  146.8120 C   0  0  0  0  0  0  0  0  0  0  0  0
  188.1370  177.9940  146.9960 N   0  0  0  0  0  0  0  0  0  0  0  0
  188.3980  178.9150  137.3090 O   0  0  0  0  0  0  0  0  0  0  0  0
  188.3280  178.6520  139.7050 C   0  0  1  0  0  3  0  0  0  0  0  0
  188.1430  176.6320  138.1440 C   0  0  0  0  0  2  0  0  0  0  0  0
  188.7390  177.5700  137.0780 C   0  0  0  0  0  2  0  0  0  0  0  0
  189.0470  179.2740  138.5010 C   0  0  0  0  0  2  0  0  0  0  0  0
  187.5220  177.4000  139.3190 C   0  0  0  0  0  2  0  0  0  0  0  0
  1  9  1  0  0  0  0
  2 13  1  1  0  0  0
  2  8  1  0  0  0  0
  4  3  1  1  0  0  0
  4 10  1  0  0  0  0
  5  7  1  6  0  0  0
  5  4  1  0  0  0  0
  5  1  1  0  0  0  0
  8 12  1  0  0  0  0
  8  6  1  0  0  0  0
  8  5  1  0  0  0  0
  9 24  1  1  0  0  0
 10  9  1  0  0  0  0
 11  2  1  0  0  0  0
 11  7  1  1  0  0  0
 12  6  1  0  0  0  0
 13 15  2  0  0  0  0
 14 15  1  0  0  0  0
 16 14  2  0  0  0  0
 17 19  2  0  0  0  0
 18 13  1  0  0  0  0
 19 16  1  0  0  0  0
 19 18  1  0  0  0  0
 20 25  1  0  0  0  0
 20 22  1  0  0  0  0
 22 23  1  0  0  0  0
 24 25  1  0  0  0  0
 24 21  2  0  0  0  0
 25 23  1  0  0  0  0
 26 30  1  0  0  0  0
 27 30  1  6  0  0  0
 27 11  1  0  0  0  0
 28 31  1  0  0  0  0
 29 26  1  0  0  0  0
 29 28  1  0  0  0  0
 31 27  1  0  0  0  0
M  END
>  <MODEL>
8

>  <REMARK>
 VINA RESULT:      -5.1      6.925      9.467
  Name = 
  3 active torsions:
  status: ('A' for Active; 'I' for Inactive)
    1  A    between atoms: C_4  and  C_5
    2  A    between atoms: C_12  and  C_27
    3  A    between atoms: C_19  and  C_22
                            x       y       z     vdW  Elec       q    Type
                         _______ _______ _______ _____ _____    ______ ____

>  <TORSDO>
F 3

$$$$
=
 OpenBabel11052413163D

 31 36  0  0  1  0  0  0  0  0999 V2000
  186.9430  176.3030  135.7240 O   0  0  0  0  0  0  0  0  0  0  0  0
  190.2780  176.8790  137.2990 C   0  0  1  0  0  3  0  0  0  0  0  0
  187.4260  173.6250  137.5560 C   0  0  0  0  0  1  0  0  0  0  0  0
  188.1770  174.3970  136.4790 C   0  0  2  0  0  3  0  0  0  0  0  0
  188.0160  175.9180  136.5580 C   0  0  2  0  0  0  0  0  0  0  0  0
  189.8270  176.5740  134.7150 C   0  0  0  0  0  2  0  0  0  0  0  0
  187.7180  176.5260  138.2560 S   0  0  0  0  0  0  0  0  0  0  0  0
  189.3290  176.5920  136.1500 C   0  0  0  0  0  0  0  0  0  0  0  0
  186.7480  175.2720  134.7820 C   0  0  1  0  0  3  0  0  0  0  0  0
  187.5650  174.0540  135.1570 C   0  0  0  0  0  2  0  0  0  0  0  0
  189.5110  176.6210  138.5990 C   0  0  2  0  0  3  0  0  0  0  0  0
  189.1680  177.8230  135.2770 C   0  0  0  0  0  2  0  0  0  0  0  0
  191.5290  176.0530  137.2260 C   0  0  0  0  0  0  0  0  0  0  0  0
  192.7260  173.9750  137.5040 C   0  0  0  0  0  3  0  0  0  0  0  0
  191.5400  174.7020  137.6010 C   0  0  0  0  0  3  0  0  0  0  0  0
  193.8600  174.5730  137.0460 N   0  0  0  0  0  0  0  0  0  0  0  0
  194.9350  176.4030  136.2480 O   0  0  0  0  0  0  0  0  0  0  0  0
  192.7030  176.6430  136.7540 C   0  0  0  0  0  2  0  0  0  0  0  0
  193.8710  175.8810  136.6710 C   0  0  0  0  0  0  0  0  0  0  0  0
  184.1950  177.3900  134.7870 C   0  0  0  0  0  2  0  0  0  0  0  0
  184.9690  173.7070  134.5950 O   0  0  0  0  0  0  0  0  0  0  0  0
  182.7380  177.3620  134.7380 C   0  0  0  0  0  2  0  0  0  0  0  0
  182.8590  175.9400  134.6270 N   0  0  0  0  0  2  0  0  0  0  0  0
  185.2980  174.9190  134.6660 C   0  0  0  0  0  0  0  0  0  0  0  0
  184.2830  175.9250  134.6780 N   0  0  0  0  0  0  0  0  0  0  0  0
  188.8240  178.4580  141.7390 O   0  0  0  0  0  0  0  0  0  0  0  0
  189.8070  177.6510  139.6890 C   0  0  1  0  0  3  0  0  0  0  0  0
  190.3700  176.5750  141.9420 C   0  0  0  0  0  2  0  0  0  0  0  0
  189.0900  177.2690  142.4420 C   0  0  0  0  0  2  0  0  0  0  0  0
  188.5260  178.0640  140.4240 C   0  0  0  0  0  2  0  0  0  0  0  0
  190.9190  177.2120  140.6580 C   0  0  0  0  0  2  0  0  0  0  0  0
  2 13  1  6  0  0  0
  2 11  1  0  0  0  0
  4  5  1  0  0  0  0
  4  3  1  1  0  0  0
  5  1  1  6  0  0  0
  5  7  1  0  0  0  0
  6 12  1  0  0  0  0
  6  8  1  0  0  0  0
  8  5  1  0  0  0  0
  8  2  1  0  0  0  0
  9 24  1  1  0  0  0
  9 10  1  0  0  0  0
  9  1  1  0  0  0  0
 10  4  1  0  0  0  0
 11  7  1  6  0  0  0
 11 27  1  0  0  0  0
 12  8  1  0  0  0  0
 13 15  2  0  0  0  0
 14 15  1  0  0  0  0
 16 14  2  0  0  0  0
 17 19  2  0  0  0  0
 18 13  1  0  0  0  0
 19 18  1  0  0  0  0
 19 16  1  0  0  0  0
 21 24  2  0  0  0  0
 22 20  1  0  0  0  0
 23 25  1  0  0  0  0
 23 22  1  0  0  0  0
 24 25  1  0  0  0  0
 25 20  1  0  0  0  0
 26 29  1  0  0  0  0
 27 30  1  1  0  0  0
 27 31  1  0  0  0  0
 28 29  1  0  0  0  0
 30 26  1  0  0  0  0
 31 28  1  0  0  0  0
M  END
>  <MODEL>
9

>  <REMARK>
 VINA RESULT:      -5.0      6.160     10.149
  Name = 
  3 active torsions:
  status: ('A' for Active; 'I' for Inactive)
    1  A    between atoms: C_4  and  C_5
    2  A    between atoms: C_12  and  C_27
    3  A    between atoms: C_19  and  C_22
                            x       y       z     vdW  Elec       q    Type
                         _______ _______ _______ _____ _____    ______ ____

>  <TORSDO>
F 3

$$$$
