=
 OpenBabel11052413503D

 27 31  0  0  1  0  0  0  0  0999 V2000
  189.4050  176.8990  140.6850 N   0  0  0  0  0  0  0  0  0  0  0  0
  187.6770  178.0100  141.9820 C   0  0  0  0  0  0  0  0  0  0  0  0
  187.2030  178.7140  139.6330 N   0  0  0  0  0  2  0  0  0  0  0  0
  183.6370  178.4270  142.6540 N   0  0  0  0  0  0  0  0  0  0  0  0
  181.8620  179.1240  141.1160 C   0  0  0  0  0  1  0  0  0  0  0  0
  187.1870  177.7140  143.2820 C   0  0  0  0  0  3  0  0  0  0  0  0
  184.3010  178.9000  140.6080 C   0  0  0  0  0  0  0  0  0  0  0  0
  189.5680  178.1280  136.7710 C   0  0  0  0  0  2  0  0  0  0  0  0
  184.2300  179.3020  139.1720 C   0  0  0  0  0  1  0  0  0  0  0  0
  189.0820  176.7670  136.3310 C   0  0  0  0  0  2  0  0  0  0  0  0
  185.4260  178.5330  141.3150 C   0  0  0  0  0  0  0  0  0  0  0  0
  189.1450  177.9440  141.6650 C   0  0  1  0  0  3  0  0  0  0  0  0
  183.2450  178.8240  141.4490 N   0  0  0  0  0  0  0  0  0  0  0  0
  184.9690  178.2470  142.5770 C   0  0  0  0  0  0  0  0  0  0  0  0
  189.0590  176.9550  139.4330 C   0  0  0  0  0  0  0  0  0  0  0  0
  186.7740  178.4040  140.9660 C   0  0  0  0  0  0  0  0  0  0  0  0
  188.5580  178.6700  137.7120 C   0  0  0  0  0  3  0  0  0  0  0  0
  185.8200  177.8270  143.5900 C   0  0  0  0  0  3  0  0  0  0  0  0
  189.4790  175.7140  137.3140 C   0  0  0  0  0  3  0  0  0  0  0  0
  189.4510  175.8400  138.6090 N   0  0  0  0  0  0  0  0  0  0  0  0
  188.2990  178.1370  138.9060 C   0  0  0  0  0  0  0  0  0  0  0  0
  191.7470  177.4570  145.0570 C   0  0  0  0  0  3  0  0  0  0  0  0
  190.0410  177.7900  142.8600 C   0  0  0  0  0  0  0  0  0  0  0  0
  190.4160  176.5060  143.2720 C   0  0  0  0  0  3  0  0  0  0  0  0
  191.2650  176.3390  144.3690 C   0  0  0  0  0  3  0  0  0  0  0  0
  191.3820  178.7420  144.6470 C   0  0  0  0  0  3  0  0  0  0  0  0
  190.5320  178.9090  143.5500 C   0  0  0  0  0  3  0  0  0  0  0  0
  1 12  1  0  0  0  0
  2  6  1  0  0  0  0
  3 16  1  0  0  0  0
  5 13  1  0  0  0  0
  6 18  2  0  0  0  0
  7 11  2  0  0  0  0
  7 13  1  0  0  0  0
  8 17  1  0  0  0  0
  9  7  1  0  0  0  0
 10  8  1  0  0  0  0
 10 19  1  0  0  0  0
 11 14  1  0  0  0  0
 12  2  1  0  0  0  0
 12 23  1  1  0  0  0
 13  4  1  0  0  0  0
 14  4  2  0  0  0  0
 14 18  1  0  0  0  0
 15  1  2  0  0  0  0
 16 11  1  0  0  0  0
 16  2  2  0  0  0  0
 17 21  2  0  0  0  0
 19 20  2  0  0  0  0
 20 15  1  0  0  0  0
 21 15  1  0  0  0  0
 21  3  1  0  0  0  0
 23 24  2  0  0  0  0
 23 27  1  0  0  0  0
 24 25  1  0  0  0  0
 25 22  2  0  0  0  0
 26 22  1  0  0  0  0
 27 26  2  0  0  0  0
M  END
>  <MODEL>
1

>  <REMARK>
 VINA RESULT:      -8.5      0.000      0.000
  Name = 
  1 active torsions:
  status: ('A' for Active; 'I' for Inactive)
    1  A    between atoms: C_9  and  C_15
                            x       y       z     vdW  Elec       q    Type
                         _______ _______ _______ _____ _____    ______ ____

>  <TORSDO>
F 1

$$$$
=
 OpenBabel11052413503D

 27 31  0  0  1  0  0  0  0  0999 V2000
  187.0470  178.6260  141.6480 N   0  0  0  0  0  0  0  0  0  0  0  0
  187.4110  177.7030  143.8670 C   0  0  0  0  0  0  0  0  0  0  0  0
  189.0990  176.5290  142.4490 N   0  0  0  0  0  2  0  0  0  0  0  0
  190.0620  177.2180  146.9790 N   0  0  0  0  0  0  0  0  0  0  0  0
  192.2620  176.1420  147.0040 C   0  0  0  0  0  1  0  0  0  0  0  0
  187.0450  178.2230  145.1370 C   0  0  0  0  0  3  0  0  0  0  0  0
  190.7200  176.3880  145.0490 C   0  0  0  0  0  0  0  0  0  0  0  0
  189.1120  176.6630  138.6930 C   0  0  0  0  0  2  0  0  0  0  0  0
  191.5870  175.7090  144.0410 C   0  0  0  0  0  1  0  0  0  0  0  0
  189.9800  177.8840  138.4980 C   0  0  0  0  0  2  0  0  0  0  0  0
  189.4760  176.9440  144.8380 C   0  0  0  0  0  0  0  0  0  0  0  0
  186.4790  177.7820  142.6900 C   0  0  1  0  0  3  0  0  0  0  0  0
  191.0370  176.5720  146.3500 N   0  0  0  0  0  0  0  0  0  0  0  0
  189.1060  177.4480  146.0590 C   0  0  0  0  0  0  0  0  0  0  0  0
  188.0710  178.3070  140.9140 C   0  0  0  0  0  0  0  0  0  0  0  0
  188.6670  177.0710  143.7050 C   0  0  0  0  0  0  0  0  0  0  0  0
  189.2310  176.2640  140.1170 C   0  0  0  0  0  3  0  0  0  0  0  0
  187.8960  178.1020  146.2490 C   0  0  0  0  0  3  0  0  0  0  0  0
  189.2440  179.1290  138.8750 C   0  0  0  0  0  3  0  0  0  0  0  0
  188.4530  179.2580  139.9000 N   0  0  0  0  0  0  0  0  0  0  0  0
  188.7880  177.0070  141.1310 C   0  0  0  0  0  0  0  0  0  0  0  0
  182.4460  178.9700  143.6060 C   0  0  0  0  0  3  0  0  0  0  0  0
  185.0800  178.2140  143.0230 C   0  0  0  0  0  0  0  0  0  0  0  0
  184.1320  178.3080  141.9990 C   0  0  0  0  0  3  0  0  0  0  0  0
  182.8180  178.6870  142.2880 C   0  0  0  0  0  3  0  0  0  0  0  0
  183.3860  178.8710  144.6350 C   0  0  0  0  0  3  0  0  0  0  0  0
  184.7000  178.4920  144.3460 C   0  0  0  0  0  3  0  0  0  0  0  0
  1 12  1  0  0  0  0
  2  6  1  0  0  0  0
  3 16  1  0  0  0  0
  6 18  2  0  0  0  0
  7 13  1  0  0  0  0
  8 17  1  0  0  0  0
  9  7  1  0  0  0  0
 10  8  1  0  0  0  0
 10 19  1  0  0  0  0
 11  7  2  0  0  0  0
 11 14  1  0  0  0  0
 12 23  1  1  0  0  0
 12  2  1  0  0  0  0
 13  4  1  0  0  0  0
 13  5  1  0  0  0  0
 14 18  1  0  0  0  0
 14  4  2  0  0  0  0
 15 21  1  0  0  0  0
 15  1  2  0  0  0  0
 16  2  2  0  0  0  0
 16 11  1  0  0  0  0
 17 21  2  0  0  0  0
 19 20  2  0  0  0  0
 20 15  1  0  0  0  0
 21  3  1  0  0  0  0
 22 26  1  0  0  0  0
 23 27  1  0  0  0  0
 24 25  1  0  0  0  0
 24 23  2  0  0  0  0
 25 22  2  0  0  0  0
 27 26  2  0  0  0  0
M  END
>  <MODEL>
2

>  <REMARK>
 VINA RESULT:      -7.9      2.347      6.064
  Name = 
  1 active torsions:
  status: ('A' for Active; 'I' for Inactive)
    1  A    between atoms: C_9  and  C_15
                            x       y       z     vdW  Elec       q    Type
                         _______ _______ _______ _____ _____    ______ ____

>  <TORSDO>
F 1

$$$$
=
 OpenBabel11052413503D

 27 31  0  0  1  0  0  0  0  0999 V2000
  188.5960  177.6690  139.8150 N   0  0  0  0  0  0  0  0  0  0  0  0
  190.8280  176.7470  139.5370 C   0  0  0  0  0  0  0  0  0  0  0  0
  189.5560  175.8220  137.5970 N   0  0  0  0  0  2  0  0  0  0  0  0
  194.1620  176.5210  137.1330 N   0  0  0  0  0  0  0  0  0  0  0  0
  194.3740  175.7240  134.8260 C   0  0  0  0  0  1  0  0  0  0  0  0
  192.0660  177.1890  140.0760 C   0  0  0  0  0  3  0  0  0  0  0  0
  192.2900  175.8230  136.2070 C   0  0  0  0  0  0  0  0  0  0  0  0
  185.8180  176.0420  137.2680 C   0  0  0  0  0  2  0  0  0  0  0  0
  191.3570  175.2780  135.1770 C   0  0  0  0  0  1  0  0  0  0  0  0
  185.7170  177.3660  136.5450 C   0  0  0  0  0  2  0  0  0  0  0  0
  191.9730  176.2260  137.4880 C   0  0  0  0  0  0  0  0  0  0  0  0
  189.5720  176.7370  140.3640 C   0  0  1  0  0  3  0  0  0  0  0  0
  193.6170  176.0150  136.0330 N   0  0  0  0  0  0  0  0  0  0  0  0
  193.1620  176.6520  138.0240 C   0  0  0  0  0  0  0  0  0  0  0  0
  187.9540  177.4950  138.6980 C   0  0  0  0  0  0  0  0  0  0  0  0
  190.7730  176.2790  138.2030 C   0  0  0  0  0  0  0  0  0  0  0  0
  187.2420  175.6290  137.2270 C   0  0  0  0  0  3  0  0  0  0  0  0
  193.2480  177.1490  139.3180 C   0  0  0  0  0  3  0  0  0  0  0  0
  186.0400  178.5010  137.4600 C   0  0  0  0  0  3  0  0  0  0  0  0
  186.9910  178.5090  138.3490 N   0  0  0  0  0  0  0  0  0  0  0  0
  188.2200  176.2890  137.8460 C   0  0  0  0  0  0  0  0  0  0  0  0
  190.2350  177.4220  144.5600 C   0  0  0  0  0  3  0  0  0  0  0  0
  189.7820  176.9860  141.8300 C   0  0  0  0  0  0  0  0  0  0  0  0
  190.3450  175.9780  142.6190 C   0  0  0  0  0  3  0  0  0  0  0  0
  190.5700  176.1940  143.9820 C   0  0  0  0  0  3  0  0  0  0  0  0
  189.6790  178.4360  143.7750 C   0  0  0  0  0  3  0  0  0  0  0  0
  189.4540  178.2200  142.4120 C   0  0  0  0  0  3  0  0  0  0  0  0
  1 12  1  0  0  0  0
  2  6  1  0  0  0  0
  2 12  1  0  0  0  0
  3 21  1  0  0  0  0
  3 16  1  0  0  0  0
  4 14  2  0  0  0  0
  5 13  1  0  0  0  0
  7 11  2  0  0  0  0
  9  7  1  0  0  0  0
 10  8  1  0  0  0  0
 10 19  1  0  0  0  0
 11 14  1  0  0  0  0
 11 16  1  0  0  0  0
 12 23  1  1  0  0  0
 13  7  1  0  0  0  0
 13  4  1  0  0  0  0
 14 18  1  0  0  0  0
 15  1  2  0  0  0  0
 16  2  2  0  0  0  0
 17  8  1  0  0  0  0
 17 21  2  0  0  0  0
 18  6  2  0  0  0  0
 19 20  2  0  0  0  0
 20 15  1  0  0  0  0
 21 15  1  0  0  0  0
 23 27  2  0  0  0  0
 23 24  1  0  0  0  0
 24 25  2  0  0  0  0
 25 22  1  0  0  0  0
 26 22  2  0  0  0  0
 27 26  1  0  0  0  0
M  END
>  <MODEL>
3

>  <REMARK>
 VINA RESULT:      -7.4      2.730      6.374
  Name = 
  1 active torsions:
  status: ('A' for Active; 'I' for Inactive)
    1  A    between atoms: C_9  and  C_15
                            x       y       z     vdW  Elec       q    Type
                         _______ _______ _______ _____ _____    ______ ____

>  <TORSDO>
F 1

$$$$
=
 OpenBabel11052413503D

 27 31  0  0  1  0  0  0  0  0999 V2000
  189.8050  178.1900  141.3860 N   0  0  0  0  0  0  0  0  0  0  0  0
  187.3890  178.0040  141.1960 C   0  0  0  0  0  0  0  0  0  0  0  0
  187.8720  177.1590  143.4960 N   0  0  0  0  0  0  0  0  0  0  0  0
  183.7370  179.1970  142.6750 N   0  0  0  0  0  0  0  0  0  0  0  0
  182.8130  178.9600  144.9310 C   0  0  0  0  0  1  0  0  0  0  0  0
  186.4950  178.6590  140.3070 C   0  0  0  0  0  3  0  0  0  0  0  0
  185.0560  178.1980  144.1280 C   0  0  0  0  0  0  0  0  0  0  0  0
  191.3330  176.3840  144.7410 C   0  0  0  0  0  2  0  0  0  0  0  0
  185.5340  177.6280  145.4220 C   0  0  0  0  0  1  0  0  0  0  0  0
  191.7000  177.7410  145.2950 C   0  0  0  0  0  2  0  0  0  0  0  0
  185.7410  178.2370  142.9320 C   0  0  0  0  0  0  0  0  0  0  0  0
  188.7180  177.4800  140.7260 C   0  0  1  0  0  3  0  0  0  0  0  0
  183.8540  178.7840  143.9320 N   0  0  0  0  0  0  0  0  0  0  0  0
  184.8880  178.8650  142.0600 C   0  0  0  0  0  0  0  0  0  0  0  0
  190.1140  178.0660  142.6420 C   0  0  0  0  0  0  0  0  0  0  0  0
  187.0150  177.8100  142.5470 C   0  0  0  0  0  0  0  0  0  0  0  0
  189.8750  176.4030  144.4670 C   0  0  0  0  0  2  0  0  0  0  0  0
  185.2320  179.1010  140.7360 C   0  0  0  0  0  3  0  0  0  0  0  0
  191.9510  178.7180  144.1940 C   0  0  0  0  0  3  0  0  0  0  0  0
  191.2560  178.8180  143.0980 N   0  0  0  0  0  0  0  0  0  0  0  0
  189.3080  177.1740  143.5410 C   0  0  0  0  0  0  0  0  0  0  0  0
  189.3020  177.5370  136.4630 C   0  0  0  0  0  3  0  0  0  0  0  0
  188.9040  177.4850  139.2350 C   0  0  0  0  0  0  0  0  0  0  0  0
  189.0830  178.7040  138.5740 C   0  0  0  0  0  3  0  0  0  0  0  0
  189.2800  178.7320  137.1900 C   0  0  0  0  0  3  0  0  0  0  0  0
  189.1310  176.3160  137.1190 C   0  0  0  0  0  3  0  0  0  0  0  0
  188.9340  176.2880  138.5030 C   0  0  0  0  0  3  0  0  0  0  0  0
  1 15  2  0  0  0  0
  2 16  2  0  0  0  0
  3 21  2  0  0  0  0
  4 13  1  0  0  0  0
  6 18  2  0  0  0  0
  6  2  1  0  0  0  0
  7  9  1  0  0  0  0
  8 10  1  0  0  0  0
 11  7  2  0  0  0  0
 12 23  1  6  0  0  0
 12  2  1  0  0  0  0
 12  1  1  0  0  0  0
 13  7  1  0  0  0  0
 13  5  1  0  0  0  0
 14  4  2  0  0  0  0
 14 11  1  0  0  0  0
 15 20  1  0  0  0  0
 15 21  1  0  0  0  0
 16 11  1  0  0  0  0
 16  3  1  0  0  0  0
 17  8  1  0  0  0  0
 18 14  1  0  0  0  0
 19 10  1  0  0  0  0
 20 19  2  0  0  0  0
 21 17  1  0  0  0  0
 22 26  2  0  0  0  0
 22 25  1  0  0  0  0
 24 23  1  0  0  0  0
 25 24  2  0  0  0  0
 26 27  1  0  0  0  0
 27 23  2  0  0  0  0
M  END
>  <MODEL>
4

>  <REMARK>
 VINA RESULT:      -7.4      1.447      5.293
  Name = 
  1 active torsions:
  status: ('A' for Active; 'I' for Inactive)
    1  A    between atoms: C_9  and  C_15
                            x       y       z     vdW  Elec       q    Type
                         _______ _______ _______ _____ _____    ______ ____

>  <TORSDO>
F 1

$$$$
=
 OpenBabel11052413503D

 27 31  0  0  1  0  0  0  0  0999 V2000
  186.3900  178.6680  141.7180 N   0  0  0  0  0  0  0  0  0  0  0  0
  186.0470  178.2090  144.0800 C   0  0  0  0  0  0  0  0  0  0  0  0
  188.1850  177.0330  143.5500 N   0  0  0  0  0  2  0  0  0  0  0  0
  187.5240  178.6350  147.8990 N   0  0  0  0  0  0  0  0  0  0  0  0
  189.6530  177.8770  148.8440 C   0  0  0  0  0  1  0  0  0  0  0  0
  185.2430  178.8930  145.0300 C   0  0  0  0  0  3  0  0  0  0  0  0
  188.8450  177.5680  146.4960 C   0  0  0  0  0  0  0  0  0  0  0  0
  189.4500  176.4980  140.0500 C   0  0  0  0  0  2  0  0  0  0  0  0
  190.0420  176.8400  145.9810 C   0  0  0  0  0  1  0  0  0  0  0  0
  190.2520  177.7680  139.8870 C   0  0  0  0  0  2  0  0  0  0  0  0
  187.7110  177.9100  145.7910 C   0  0  0  0  0  0  0  0  0  0  0  0
  185.5610  177.9550  142.6800 C   0  0  1  0  0  3  0  0  0  0  0  0
  188.6930  178.0210  147.7620 N   0  0  0  0  0  0  0  0  0  0  0  0
  186.9200  178.5700  146.6970 C   0  0  0  0  0  0  0  0  0  0  0  0
  187.6190  178.3600  141.4290 C   0  0  0  0  0  0  0  0  0  0  0  0
  187.3220  177.7280  144.4600 C   0  0  0  0  0  0  0  0  0  0  0  0
  189.1090  176.3780  141.4890 C   0  0  0  0  0  3  0  0  0  0  0  0
  185.6770  179.0840  146.3530 C   0  0  0  0  0  3  0  0  0  0  0  0
  189.3530  178.9530  139.7410 C   0  0  0  0  0  3  0  0  0  0  0  0
  188.2570  179.1580  140.4120 N   0  0  0  0  0  0  0  0  0  0  0  0
  188.3050  177.2240  142.1310 C   0  0  0  0  0  0  0  0  0  0  0  0
  181.3860  178.7480  142.0040 C   0  0  0  0  0  3  0  0  0  0  0  0
  184.1060  178.2520  142.4550 C   0  0  0  0  0  0  0  0  0  0  0  0
  183.5450  178.0040  141.1980 C   0  0  0  0  0  3  0  0  0  0  0  0
  182.1880  178.2530  140.9720 C   0  0  0  0  0  3  0  0  0  0  0  0
  181.9390  178.9920  143.2640 C   0  0  0  0  0  3  0  0  0  0  0  0
  183.2960  178.7430  143.4910 C   0  0  0  0  0  3  0  0  0  0  0  0
  1 12  1  0  0  0  0
  2 16  2  0  0  0  0
  2  6  1  0  0  0  0
  3 16  1  0  0  0  0
  6 18  2  0  0  0  0
  7 13  1  0  0  0  0
  8 17  1  0  0  0  0
  9  7  1  0  0  0  0
 10  8  1  0  0  0  0
 11  7  2  0  0  0  0
 11 14  1  0  0  0  0
 12 23  1  1  0  0  0
 12  2  1  0  0  0  0
 13  4  1  0  0  0  0
 13  5  1  0  0  0  0
 14  4  2  0  0  0  0
 15  1  2  0  0  0  0
 15 21  1  0  0  0  0
 16 11  1  0  0  0  0
 17 21  2  0  0  0  0
 18 14  1  0  0  0  0
 19 10  1  0  0  0  0
 19 20  2  0  0  0  0
 20 15  1  0  0  0  0
 21  3  1  0  0  0  0
 22 26  1  0  0  0  0
 23 27  1  0  0  0  0
 24 23  2  0  0  0  0
 25 24  1  0  0  0  0
 25 22  2  0  0  0  0
 26 27  2  0  0  0  0
M  END
>  <MODEL>
5

>  <REMARK>
 VINA RESULT:      -7.3      2.724      6.257
  Name = 
  1 active torsions:
  status: ('A' for Active; 'I' for Inactive)
    1  A    between atoms: C_9  and  C_15
                            x       y       z     vdW  Elec       q    Type
                         _______ _______ _______ _____ _____    ______ ____

>  <TORSDO>
F 1

$$$$
=
 OpenBabel11052413503D

 27 31  0  0  1  0  0  0  0  0999 V2000
  191.2310  177.4150  140.7530 N   0  0  0  0  0  0  0  0  0  0  0  0
  189.2850  177.2630  139.3040 C   0  0  0  0  0  0  0  0  0  0  0  0
  188.3190  177.2010  141.6070 N   0  0  0  0  0  0  0  0  0  0  0  0
  185.7410  179.0030  138.1390 N   0  0  0  0  0  0  0  0  0  0  0  0
  183.7580  179.5490  139.4680 C   0  0  0  0  0  1  0  0  0  0  0  0
  189.1410  177.6230  137.9380 C   0  0  0  0  0  3  0  0  0  0  0  0
  185.8750  178.4880  140.2760 C   0  0  0  0  0  0  0  0  0  0  0  0
  190.3850  176.7530  144.7150 C   0  0  0  0  0  2  0  0  0  0  0  0
  185.4820  178.3560  141.7100 C   0  0  0  0  0  1  0  0  0  0  0  0
  190.6880  178.2030  145.0150 C   0  0  0  0  0  2  0  0  0  0  0  0
  187.0690  178.1090  139.7010 C   0  0  0  0  0  0  0  0  0  0  0  0
  190.5210  176.5680  139.8050 C   0  0  1  0  0  3  0  0  0  0  0  0
  185.1010  179.0200  139.3020 N   0  0  0  0  0  0  0  0  0  0  0  0
  186.9440  178.4480  138.3780 C   0  0  0  0  0  0  0  0  0  0  0  0
  190.8120  177.6990  141.9500 C   0  0  0  0  0  0  0  0  0  0  0  0
  188.2360  177.5350  140.2140 C   0  0  0  0  0  0  0  0  0  0  0  0
  189.3210  176.7330  143.6820 C   0  0  0  0  0  2  0  0  0  0  0  0
  187.9640  178.2250  137.4620 C   0  0  0  0  0  3  0  0  0  0  0  0
  191.6710  178.7570  144.0360 C   0  0  0  0  0  3  0  0  0  0  0  0
  191.6820  178.5170  142.7570 N   0  0  0  0  0  0  0  0  0  0  0  0
  189.4910  177.1790  142.4380 C   0  0  0  0  0  0  0  0  0  0  0  0
  193.2260  175.1730  136.7640 C   0  0  0  0  0  3  0  0  0  0  0  0
  191.4470  176.0780  138.7290 C   0  0  0  0  0  0  0  0  0  0  0  0
  192.6520  176.7530  138.5060 C   0  0  0  0  0  3  0  0  0  0  0  0
  193.5400  176.3030  137.5240 C   0  0  0  0  0  3  0  0  0  0  0  0
  192.0270  174.4900  136.9860 C   0  0  0  0  0  3  0  0  0  0  0  0
  191.1400  174.9400  137.9680 C   0  0  0  0  0  3  0  0  0  0  0  0
  1 15  2  0  0  0  0
  2 12  1  0  0  0  0
  2 16  2  0  0  0  0
  3 21  2  0  0  0  0
  4 14  2  0  0  0  0
  4 13  1  0  0  0  0
  6  2  1  0  0  0  0
  7  9  1  0  0  0  0
  8 10  1  0  0  0  0
 11 16  1  0  0  0  0
 11  7  2  0  0  0  0
 12 23  1  6  0  0  0
 12  1  1  0  0  0  0
 13  5  1  0  0  0  0
 13  7  1  0  0  0  0
 14 11  1  0  0  0  0
 15 21  1  0  0  0  0
 15 20  1  0  0  0  0
 16  3  1  0  0  0  0
 17  8  1  0  0  0  0
 18  6  2  0  0  0  0
 18 14  1  0  0  0  0
 19 10  1  0  0  0  0
 20 19  2  0  0  0  0
 21 17  1  0  0  0  0
 22 26  2  0  0  0  0
 22 25  1  0  0  0  0
 24 23  1  0  0  0  0
 25 24  2  0  0  0  0
 26 27  1  0  0  0  0
 27 23  2  0  0  0  0
M  END
>  <MODEL>
6

>  <REMARK>
 VINA RESULT:      -7.1      1.992      5.398
  Name = 
  1 active torsions:
  status: ('A' for Active; 'I' for Inactive)
    1  A    between atoms: C_9  and  C_15
                            x       y       z     vdW  Elec       q    Type
                         _______ _______ _______ _____ _____    ______ ____

>  <TORSDO>
F 1

$$$$
=
 OpenBabel11052413503D

 27 31  0  0  1  0  0  0  0  0999 V2000
  184.4040  179.4010  140.5310 N   0  0  0  0  0  0  0  0  0  0  0  0
  186.5030  178.2530  140.1000 C   0  0  0  0  0  0  0  0  0  0  0  0
  185.0970  177.6900  138.1140 N   0  0  0  0  0  2  0  0  0  0  0  0
  189.7460  177.8780  137.5940 N   0  0  0  0  0  0  0  0  0  0  0  0
  189.8230  177.3010  135.2140 C   0  0  0  0  0  1  0  0  0  0  0  0
  187.7930  178.4860  140.6460 C   0  0  0  0  0  3  0  0  0  0  0  0
  187.7890  177.5060  136.6560 C   0  0  0  0  0  0  0  0  0  0  0  0
  181.4080  178.3860  137.9130 C   0  0  0  0  0  2  0  0  0  0  0  0
  186.7810  177.1850  135.6030 C   0  0  0  0  0  1  0  0  0  0  0  0
  181.4580  179.7790  137.3290 C   0  0  0  0  0  2  0  0  0  0  0  0
  187.5430  177.8110  137.9780 C   0  0  0  0  0  0  0  0  0  0  0  0
  185.2680  178.3080  140.9570 C   0  0  1  0  0  3  0  0  0  0  0  0
  189.1260  177.5550  136.4650 N   0  0  0  0  0  0  0  0  0  0  0  0
  188.7830  178.0360  138.5210 C   0  0  0  0  0  0  0  0  0  0  0  0
  183.7280  179.4200  139.4210 C   0  0  0  0  0  0  0  0  0  0  0  0
  186.3700  177.9330  138.7280 C   0  0  0  0  0  0  0  0  0  0  0  0
  182.7720  177.8130  137.7910 C   0  0  0  0  0  3  0  0  0  0  0  0
  188.9500  178.3830  139.8560 C   0  0  0  0  0  3  0  0  0  0  0  0
  181.9310  180.7680  138.3430 C   0  0  0  0  0  3  0  0  0  0  0  0
  182.8890  180.5720  139.2020 N   0  0  0  0  0  0  0  0  0  0  0  0
  183.8320  178.2840  138.4460 C   0  0  0  0  0  0  0  0  0  0  0  0
  185.9510  178.5110  145.2000 C   0  0  0  0  0  3  0  0  0  0  0  0
  185.5290  178.3790  142.4340 C   0  0  0  0  0  0  0  0  0  0  0  0
  184.7860  179.2680  143.2170 C   0  0  0  0  0  3  0  0  0  0  0  0
  184.9970  179.3360  144.5970 C   0  0  0  0  0  3  0  0  0  0  0  0
  186.6930  177.6160  144.4240 C   0  0  0  0  0  3  0  0  0  0  0  0
  186.4820  177.5480  143.0440 C   0  0  0  0  0  3  0  0  0  0  0  0
  1 12  1  0  0  0  0
  2  6  1  0  0  0  0
  2 12  1  0  0  0  0
  3 21  1  0  0  0  0
  3 16  1  0  0  0  0
  4 14  2  0  0  0  0
  5 13  1  0  0  0  0
  7 11  2  0  0  0  0
  9  7  1  0  0  0  0
 10  8  1  0  0  0  0
 10 19  1  0  0  0  0
 11 14  1  0  0  0  0
 11 16  1  0  0  0  0
 12 23  1  1  0  0  0
 13  7  1  0  0  0  0
 13  4  1  0  0  0  0
 14 18  1  0  0  0  0
 15  1  2  0  0  0  0
 16  2  2  0  0  0  0
 17  8  1  0  0  0  0
 17 21  2  0  0  0  0
 18  6  2  0  0  0  0
 19 20  2  0  0  0  0
 20 15  1  0  0  0  0
 21 15  1  0  0  0  0
 23 27  2  0  0  0  0
 23 24  1  0  0  0  0
 24 25  2  0  0  0  0
 25 22  1  0  0  0  0
 26 22  2  0  0  0  0
 27 26  1  0  0  0  0
M  END
>  <MODEL>
7

>  <REMARK>
 VINA RESULT:      -7.1      2.572      6.034
  Name = 
  1 active torsions:
  status: ('A' for Active; 'I' for Inactive)
    1  A    between atoms: C_9  and  C_15
                            x       y       z     vdW  Elec       q    Type
                         _______ _______ _______ _____ _____    ______ ____

>  <TORSDO>
F 1

$$$$
=
 OpenBabel11052413503D

 27 31  0  0  1  0  0  0  0  0999 V2000
  183.2630  179.1460  143.2230 N   0  0  0  0  0  0  0  0  0  0  0  0
  185.1930  178.3650  141.9690 C   0  0  0  0  0  0  0  0  0  0  0  0
  183.2490  177.6860  140.5550 N   0  0  0  0  0  0  0  0  0  0  0  0
  187.3290  178.6280  138.4600 N   0  0  0  0  0  0  0  0  0  0  0  0
  186.6140  178.1880  136.1590 C   0  0  0  0  0  1  0  0  0  0  0  0
  186.5510  178.7710  142.0490 C   0  0  0  0  0  3  0  0  0  0  0  0
  185.2310  177.9990  138.2350 C   0  0  0  0  0  0  0  0  0  0  0  0
  179.6810  177.8030  141.7320 C   0  0  0  0  0  2  0  0  0  0  0  0
  183.9610  177.5760  137.5760 C   0  0  0  0  0  1  0  0  0  0  0  0
  179.3350  179.2130  141.3130 C   0  0  0  0  0  2  0  0  0  0  0  0
  185.4430  178.1970  139.5840 C   0  0  0  0  0  0  0  0  0  0  0  0
  184.3550  178.1830  143.2050 C   0  0  1  0  0  3  0  0  0  0  0  0
  186.3900  178.2680  137.5940 N   0  0  0  0  0  0  0  0  0  0  0  0
  186.7550  178.5860  139.6770 C   0  0  0  0  0  0  0  0  0  0  0  0
  182.2340  179.1130  142.4290 C   0  0  0  0  0  0  0  0  0  0  0  0
  184.6160  178.0960  140.7050 C   0  0  0  0  0  0  0  0  0  0  0  0
  180.9700  177.4570  141.0820 C   0  0  0  0  0  2  0  0  0  0  0  0
  187.3470  178.8900  140.8970 C   0  0  0  0  0  3  0  0  0  0  0  0
  180.0110  180.2130  142.1930 C   0  0  0  0  0  3  0  0  0  0  0  0
  181.2320  180.1280  142.6360 N   0  0  0  0  0  0  0  0  0  0  0  0
  182.1250  178.0570  141.3680 C   0  0  0  0  0  0  0  0  0  0  0  0
  186.4950  178.2840  146.9370 C   0  0  0  0  0  3  0  0  0  0  0  0
  185.1220  178.2210  144.4960 C   0  0  0  0  0  0  0  0  0  0  0  0
  184.6200  178.9690  145.5660 C   0  0  0  0  0  3  0  0  0  0  0  0
  185.3060  179.0030  146.7840 C   0  0  0  0  0  3  0  0  0  0  0  0
  186.9980  177.5290  145.8740 C   0  0  0  0  0  3  0  0  0  0  0  0
  186.3130  177.4960  144.6560 C   0  0  0  0  0  3  0  0  0  0  0  0
  2  6  1  0  0  0  0
  2 12  1  0  0  0  0
  3 16  1  0  0  0  0
  3 21  2  0  0  0  0
  4 14  2  0  0  0  0
  5 13  1  0  0  0  0
  7 11  2  0  0  0  0
  9  7  1  0  0  0  0
 10  8  1  0  0  0  0
 10 19  1  0  0  0  0
 11 14  1  0  0  0  0
 11 16  1  0  0  0  0
 12  1  1  0  0  0  0
 12 23  1  1  0  0  0
 13  7  1  0  0  0  0
 13  4  1  0  0  0  0
 14 18  1  0  0  0  0
 15 20  1  0  0  0  0
 15  1  2  0  0  0  0
 16  2  2  0  0  0  0
 17 21  1  0  0  0  0
 17  8  1  0  0  0  0
 18  6  2  0  0  0  0
 19 20  2  0  0  0  0
 21 15  1  0  0  0  0
 23 27  2  0  0  0  0
 23 24  1  0  0  0  0
 24 25  2  0  0  0  0
 25 22  1  0  0  0  0
 26 22  2  0  0  0  0
 27 26  1  0  0  0  0
M  END
>  <MODEL>
8

>  <REMARK>
 VINA RESULT:      -7.0      2.809      6.393
  Name = 
  1 active torsions:
  status: ('A' for Active; 'I' for Inactive)
    1  A    between atoms: C_9  and  C_15
                            x       y       z     vdW  Elec       q    Type
                         _______ _______ _______ _____ _____    ______ ____

>  <TORSDO>
F 1

$$$$
=
 OpenBabel11052413503D

 27 31  0  0  1  0  0  0  0  0999 V2000
  187.2600  177.2650  142.9980 N   0  0  0  0  0  0  0  0  0  0  0  0
  186.1580  178.2490  141.0690 C   0  0  0  0  0  0  0  0  0  0  0  0
  188.5890  178.4690  140.5420 N   0  0  0  0  0  0  0  0  0  0  0  0
  185.5540  178.0500  137.0020 N   0  0  0  0  0  0  0  0  0  0  0  0
  187.1800  178.1660  135.1730 C   0  0  0  0  0  1  0  0  0  0  0  0
  184.8260  178.0840  140.6030 C   0  0  0  0  0  3  0  0  0  0  0  0
  187.6510  178.2960  137.6270 C   0  0  0  0  0  0  0  0  0  0  0  0
  191.3230  177.8570  143.0480 C   0  0  0  0  0  2  0  0  0  0  0  0
  189.1330  178.4430  137.5250 C   0  0  0  0  0  1  0  0  0  0  0  0
  191.5330  176.3780  142.8190 C   0  0  0  0  0  2  0  0  0  0  0  0
  186.8950  178.2530  138.7800 C   0  0  0  0  0  0  0  0  0  0  0  0
  186.4630  178.3920  142.5340 C   0  0  1  0  0  3  0  0  0  0  0  0
  186.8060  178.1720  136.5780 N   0  0  0  0  0  0  0  0  0  0  0  0
  185.6030  178.0980  138.3460 C   0  0  0  0  0  0  0  0  0  0  0  0
  188.5030  177.0570  142.6810 C   0  0  0  0  0  0  0  0  0  0  0  0
  187.2220  178.3090  140.1380 C   0  0  0  0  0  0  0  0  0  0  0  0
  190.4800  178.3570  141.9340 C   0  0  0  0  0  2  0  0  0  0  0  0
  184.5370  178.0030  139.2310 C   0  0  0  0  0  3  0  0  0  0  0  0
  190.3930  175.5840  143.3660 C   0  0  0  0  0  3  0  0  0  0  0  0
  189.1350  175.9100  143.2830 N   0  0  0  0  0  0  0  0  0  0  0  0
  189.2150  177.9860  141.7410 C   0  0  0  0  0  0  0  0  0  0  0  0
  183.0560  179.0030  145.0900 C   0  0  0  0  0  3  0  0  0  0  0  0
  185.2610  178.5930  143.4110 C   0  0  0  0  0  0  0  0  0  0  0  0
  185.3890  178.4260  144.7940 C   0  0  0  0  0  3  0  0  0  0  0  0
  184.2890  178.6280  145.6320 C   0  0  0  0  0  3  0  0  0  0  0  0
  182.9230  179.1780  143.7100 C   0  0  0  0  0  3  0  0  0  0  0  0
  184.0230  178.9760  142.8710 C   0  0  0  0  0  3  0  0  0  0  0  0
  2 12  1  0  0  0  0
  3 21  2  0  0  0  0
  4 14  2  0  0  0  0
  5 13  1  0  0  0  0
  6  2  1  0  0  0  0
  7 11  2  0  0  0  0
  9  7  1  0  0  0  0
 10  8  1  0  0  0  0
 10 19  1  0  0  0  0
 11 16  1  0  0  0  0
 12  1  1  0  0  0  0
 12 23  1  1  0  0  0
 13  4  1  0  0  0  0
 13  7  1  0  0  0  0
 14 11  1  0  0  0  0
 14 18  1  0  0  0  0
 15  1  2  0  0  0  0
 15 20  1  0  0  0  0
 16  3  1  0  0  0  0
 16  2  2  0  0  0  0
 17  8  1  0  0  0  0
 18  6  2  0  0  0  0
 20 19  2  0  0  0  0
 21 17  1  0  0  0  0
 21 15  1  0  0  0  0
 22 25  1  0  0  0  0
 23 24  1  0  0  0  0
 24 25  2  0  0  0  0
 26 22  2  0  0  0  0
 27 23  2  0  0  0  0
 27 26  1  0  0  0  0
M  END
>  <MODEL>
9

>  <REMARK>
 VINA RESULT:      -6.7      1.971      5.328
  Name = 
  1 active torsions:
  status: ('A' for Active; 'I' for Inactive)
    1  A    between atoms: C_9  and  C_15
                            x       y       z     vdW  Elec       q    Type
                         _______ _______ _______ _____ _____    ______ ____

>  <TORSDO>
F 1

$$$$
