=
 OpenBabel11052413193D

 31 34  0  0  1  0  0  0  0  0999 V2000
  187.9900  177.4350  136.9740 C   0  0  2  0  0  3  0  0  0  0  0  0
  187.4210  176.7810  134.6830 C   0  0  0  0  0  2  0  0  0  0  0  0
  188.5250  176.7320  135.7320 C   0  0  2  0  0  3  0  0  0  0  0  0
  186.6460  178.0270  136.5950 C   0  0  1  0  0  3  0  0  0  0  0  0
  186.1650  177.2270  135.4020 C   0  0  0  0  0  2  0  0  0  0  0  0
  184.8900  176.9460  137.7820 O   0  0  0  0  0  0  0  0  0  0  0  0
  185.6790  177.9290  137.7310 C   0  0  0  0  0  0  0  0  0  0  0  0
  185.6260  178.9600  138.7220 N   0  0  0  0  0  2  0  0  0  0  0  0
  184.7450  178.8960  139.8790 C   0  0  0  0  0  2  0  0  0  0  0  0
  184.8540  178.2750  142.2870 C   0  0  0  0  0  1  0  0  0  0  0  0
  185.5540  179.0040  141.1600 C   0  0  0  0  0  2  0  0  0  0  0  0
  188.9540  178.5090  137.4610 C   0  0  0  0  0  2  0  0  0  0  0  0
  188.8250  178.6510  138.9060 N   0  0  0  0  0  2  0  0  0  0  0  0
  188.8940  177.3270  139.5000 C   0  0  0  0  0  3  0  0  0  0  0  0
  190.2330  177.1680  140.1980 C   0  0  0  0  0  2  0  0  0  0  0  0
  188.9910  177.4260  141.0120 C   0  0  0  0  0  2  0  0  0  0  0  0
  188.9610  175.3010  136.0800 C   0  0  2  0  0  3  0  0  0  0  0  0
  193.6280  174.1850  137.6680 C   0  0  0  0  0  1  0  0  0  0  0  0
  190.3150  174.8920  135.4860 C   0  0  2  0  0  3  0  0  0  0  0  0
  192.4250  176.2350  135.8970 C   0  0  0  0  0  2  0  0  0  0  0  0
  191.2270  173.5790  136.4000 S   0  0  0  0  0  0  0  0  0  0  0  0
  192.1930  174.6650  137.5330 C   0  0  2  0  0  3  0  0  0  0  0  0
  192.1170  176.0480  137.2510 O   0  0  0  0  0  0  0  0  0  0  0  0
  191.1620  176.0940  135.0640 C   0  0  0  0  0  2  0  0  0  0  0  0
  187.8740  174.2560  136.0800 C   0  0  0  0  0  0  0  0  0  0  0  0
  186.8070  172.3750  134.9680 C   0  0  0  0  0  3  0  0  0  0  0  0
  187.7670  173.3940  134.9830 C   0  0  0  0  0  3  0  0  0  0  0  0
  185.9450  172.2140  136.0550 C   0  0  0  0  0  3  0  0  0  0  0  0
  185.1780  172.9200  138.2280 O   0  0  0  0  0  1  0  0  0  0  0  0
  187.0060  174.0900  137.1680 C   0  0  0  0  0  3  0  0  0  0  0  0
  186.0410  173.0730  137.1540 C   0  0  0  0  0  0  0  0  0  0  0  0
  1 12  1  6  0  0  0
  2  5  1  0  0  0  0
  2  3  1  0  0  0  0
  3 17  1  1  0  0  0
  3  1  1  0  0  0  0
  4  1  1  0  0  0  0
  4  7  1  1  0  0  0
  5  4  1  0  0  0  0
  7  6  2  0  0  0  0
  7  8  1  0  0  0  0
  8  9  1  0  0  0  0
  9 11  1  0  0  0  0
 11 10  1  0  0  0  0
 12 13  1  0  0  0  0
 13 14  1  0  0  0  0
 14 15  1  0  0  0  0
 14 16  1  0  0  0  0
 15 16  1  0  0  0  0
 17 25  1  6  0  0  0
 19 17  1  1  0  0  0
 19 21  1  0  0  0  0
 20 23  1  0  0  0  0
 21 22  1  0  0  0  0
 22 18  1  6  0  0  0
 23 22  1  0  0  0  0
 24 19  1  0  0  0  0
 24 20  1  0  0  0  0
 25 30  1  0  0  0  0
 26 27  1  0  0  0  0
 26 28  2  0  0  0  0
 27 25  2  0  0  0  0
 28 31  1  0  0  0  0
 31 30  2  0  0  0  0
 31 29  1  0  0  0  0
M  END
>  <MODEL>
1

>  <REMARK>
 VINA RESULT:      -5.6      0.000      0.000
  Name = 
  9 active torsions:
  status: ('A' for Active; 'I' for Inactive)
    1  A    between atoms: C_1  and  N_24
    2  A    between atoms: C_3  and  C_15
    3  A    between atoms: C_3  and  N_24
    4  A    between atoms: C_4  and  C_27
    5  A    between atoms: C_5  and  C_27
    6  A    between atoms: C_9  and  C_23
    7  A    between atoms: C_19  and  C_21
    8  A    between atoms: C_20  and  C_27
    9  A    between atoms: N_22  and  C_23
                            x       y       z     vdW  Elec       q    Type
                         _______ _______ _______ _____ _____    ______ ____

>  <TORSDO>
F 9

$$$$
=
 OpenBabel11052413193D

 31 34  0  0  1  0  0  0  0  0999 V2000
  189.9970  177.1370  140.8670 C   0  0  2  0  0  3  0  0  0  0  0  0
  189.0550  178.5070  139.0700 C   0  0  0  0  0  2  0  0  0  0  0  0
  190.1370  177.4840  139.3910 C   0  0  2  0  0  3  0  0  0  0  0  0
  188.9450  178.0690  141.4370 C   0  0  1  0  0  3  0  0  0  0  0  0
  188.1120  178.5210  140.2550 C   0  0  0  0  0  2  0  0  0  0  0  0
  188.2460  176.1240  142.6160 O   0  0  0  0  0  0  0  0  0  0  0  0
  188.0990  177.3660  142.4500 C   0  0  0  0  0  0  0  0  0  0  0  0
  187.1090  178.0890  143.1880 N   0  0  0  0  0  2  0  0  0  0  0  0
  186.2930  177.4730  144.2240 C   0  0  0  0  0  2  0  0  0  0  0  0
  185.8750  178.5130  146.4460 C   0  0  0  0  0  1  0  0  0  0  0  0
  186.8790  177.7640  145.5940 C   0  0  0  0  0  2  0  0  0  0  0  0
  191.3250  177.2840  141.5990 C   0  0  0  0  0  2  0  0  0  0  0  0
  191.2520  176.5800  142.8740 N   0  0  0  0  0  2  0  0  0  0  0  0
  191.6780  177.4920  143.9210 C   0  0  0  0  0  3  0  0  0  0  0  0
  190.5020  177.7720  144.8420 C   0  0  0  0  0  2  0  0  0  0  0  0
  191.5870  176.8220  145.2810 C   0  0  0  0  0  2  0  0  0  0  0  0
  190.0370  176.2130  138.5350 C   0  0  2  0  0  3  0  0  0  0  0  0
  194.3240  176.3670  135.8630 C   0  0  0  0  0  1  0  0  0  0  0  0
  191.3490  175.4280  138.4140 C   0  0  2  0  0  3  0  0  0  0  0  0
  192.1160  174.4220  136.2180 C   0  0  0  0  0  2  0  0  0  0  0  0
  192.8750  176.4430  138.2370 S   0  0  0  0  0  0  0  0  0  0  0  0
  192.9130  176.5490  136.3970 C   0  0  2  0  0  3  0  0  0  0  0  0
  191.9780  175.7280  135.7280 O   0  0  0  0  0  0  0  0  0  0  0  0
  191.2420  174.2460  137.4490 C   0  0  0  0  0  2  0  0  0  0  0  0
  189.1850  176.3120  137.2950 C   0  0  0  0  0  0  0  0  0  0  0  0
  188.7590  177.3830  135.1530 C   0  0  0  0  0  3  0  0  0  0  0  0
  189.4900  177.2930  136.3440 C   0  0  0  0  0  3  0  0  0  0  0  0
  187.7130  176.4890  134.9080 C   0  0  0  0  0  3  0  0  0  0  0  0
  186.3540  174.6300  135.6150 O   0  0  0  0  0  1  0  0  0  0  0  0
  188.1350  175.4190  137.0430 C   0  0  0  0  0  3  0  0  0  0  0  0
  187.3980  175.5100  135.8540 C   0  0  0  0  0  0  0  0  0  0  0  0
  1  4  1  0  0  0  0
  1 12  1  1  0  0  0
  2  3  1  0  0  0  0
  2  5  1  0  0  0  0
  3 17  1  6  0  0  0
  3  1  1  0  0  0  0
  4  7  1  1  0  0  0
  5  4  1  0  0  0  0
  7  6  2  0  0  0  0
  7  8  1  0  0  0  0
  8  9  1  0  0  0  0
  9 11  1  0  0  0  0
 11 10  1  0  0  0  0
 12 13  1  0  0  0  0
 13 14  1  0  0  0  0
 14 15  1  0  0  0  0
 14 16  1  0  0  0  0
 15 16  1  0  0  0  0
 17 25  1  6  0  0  0
 19 17  1  6  0  0  0
 20 24  1  0  0  0  0
 21 19  1  0  0  0  0
 22 18  1  6  0  0  0
 22 21  1  0  0  0  0
 23 20  1  0  0  0  0
 23 22  1  0  0  0  0
 24 19  1  0  0  0  0
 26 27  1  0  0  0  0
 27 25  2  0  0  0  0
 28 26  2  0  0  0  0
 28 31  1  0  0  0  0
 29 31  1  0  0  0  0
 30 25  1  0  0  0  0
 31 30  2  0  0  0  0
M  END
>  <MODEL>
2

>  <REMARK>
 VINA RESULT:      -5.5      2.796      4.244
  Name = 
  9 active torsions:
  status: ('A' for Active; 'I' for Inactive)
    1  A    between atoms: C_1  and  N_24
    2  A    between atoms: C_3  and  C_15
    3  A    between atoms: C_3  and  N_24
    4  A    between atoms: C_4  and  C_27
    5  A    between atoms: C_5  and  C_27
    6  A    between atoms: C_9  and  C_23
    7  A    between atoms: C_19  and  C_21
    8  A    between atoms: C_20  and  C_27
    9  A    between atoms: N_22  and  C_23
                            x       y       z     vdW  Elec       q    Type
                         _______ _______ _______ _____ _____    ______ ____

>  <TORSDO>
F 9

$$$$
=
 OpenBabel11052413193D

 31 34  0  0  1  0  0  0  0  0999 V2000
  187.6820  178.3870  142.6670 C   0  0  2  0  0  3  0  0  0  0  0  0
  187.6870  176.2330  143.8310 C   0  0  0  0  0  2  0  0  0  0  0  0
  188.5790  177.3830  143.3800 C   0  0  2  0  0  3  0  0  0  0  0  0
  186.3090  177.7510  142.5640 C   0  0  1  0  0  3  0  0  0  0  0  0
  186.2580  176.7030  143.6570 C   0  0  0  0  0  2  0  0  0  0  0  0
  185.1200  179.7040  141.9070 O   0  0  0  0  0  0  0  0  0  0  0  0
  185.2320  178.7700  142.7480 C   0  0  0  0  0  0  0  0  0  0  0  0
  184.3680  178.7070  143.8880 N   0  0  0  0  0  2  0  0  0  0  0  0
  183.2690  179.6380  144.0950 C   0  0  0  0  0  2  0  0  0  0  0  0
  181.5410  178.9580  142.4360 C   0  0  0  0  0  1  0  0  0  0  0  0
  181.9390  178.9290  143.8970 C   0  0  0  0  0  2  0  0  0  0  0  0
  188.2340  178.7430  141.2920 C   0  0  0  0  0  2  0  0  0  0  0  0
  188.4450  177.5200  140.5270 N   0  0  0  0  0  2  0  0  0  0  0  0
  188.9840  177.8850  139.2280 C   0  0  0  0  0  3  0  0  0  0  0  0
  189.9030  176.7760  138.7450 C   0  0  0  0  0  2  0  0  0  0  0  0
  188.5180  176.9070  138.1640 C   0  0  0  0  0  2  0  0  0  0  0  0
  189.3170  178.0640  144.5420 C   0  0  2  0  0  3  0  0  0  0  0  0
  193.0260  177.3230  141.1900 C   0  0  0  0  0  1  0  0  0  0  0  0
  190.8370  177.8620  144.5300 C   0  0  2  0  0  3  0  0  0  0  0  0
  191.9130  175.8170  143.4870 C   0  0  0  0  0  2  0  0  0  0  0  0
  191.7540  178.7560  143.2070 S   0  0  0  0  0  0  0  0  0  0  0  0
  191.6940  177.4470  141.9100 C   0  0  2  0  0  3  0  0  0  0  0  0
  191.2010  176.1950  142.3410 O   0  0  0  0  0  0  0  0  0  0  0  0
  191.2390  176.3980  144.7200 C   0  0  0  0  0  2  0  0  0  0  0  0
  188.6330  178.0110  145.8860 C   0  0  0  0  0  0  0  0  0  0  0  0
  188.7880  177.5850  148.2750 C   0  0  0  0  0  3  0  0  0  0  0  0
  189.3700  177.5960  147.0010 C   0  0  0  0  0  3  0  0  0  0  0  0
  187.4620  177.9910  148.4390 C   0  0  0  0  0  3  0  0  0  0  0  0
  185.3980  178.7950  147.4920 O   0  0  0  0  0  1  0  0  0  0  0  0
  187.3030  178.4170  146.0570 C   0  0  0  0  0  3  0  0  0  0  0  0
  186.7170  178.4030  147.3300 C   0  0  0  0  0  0  0  0  0  0  0  0
  1 12  1  6  0  0  0
  1  3  1  0  0  0  0
  3  2  1  0  0  0  0
  3 17  1  1  0  0  0
  4  1  1  0  0  0  0
  4  7  1  1  0  0  0
  4  5  1  0  0  0  0
  5  2  1  0  0  0  0
  6  7  2  0  0  0  0
  7  8  1  0  0  0  0
  8  9  1  0  0  0  0
 10 11  1  0  0  0  0
 11  9  1  0  0  0  0
 13 12  1  0  0  0  0
 14 13  1  0  0  0  0
 15 14  1  0  0  0  0
 16 15  1  0  0  0  0
 16 14  1  0  0  0  0
 17 25  1  1  0  0  0
 19 17  1  6  0  0  0
 19 24  1  0  0  0  0
 20 24  1  0  0  0  0
 21 19  1  0  0  0  0
 22 18  1  1  0  0  0
 22 23  1  0  0  0  0
 22 21  1  0  0  0  0
 23 20  1  0  0  0  0
 25 30  2  0  0  0  0
 25 27  1  0  0  0  0
 26 28  1  0  0  0  0
 27 26  2  0  0  0  0
 30 31  1  0  0  0  0
 31 29  1  0  0  0  0
 31 28  2  0  0  0  0
M  END
>  <MODEL>
3

>  <REMARK>
 VINA RESULT:      -5.5      4.429      7.906
  Name = 
  9 active torsions:
  status: ('A' for Active; 'I' for Inactive)
    1  A    between atoms: C_1  and  N_24
    2  A    between atoms: C_3  and  C_15
    3  A    between atoms: C_3  and  N_24
    4  A    between atoms: C_4  and  C_27
    5  A    between atoms: C_5  and  C_27
    6  A    between atoms: C_9  and  C_23
    7  A    between atoms: C_19  and  C_21
    8  A    between atoms: C_20  and  C_27
    9  A    between atoms: N_22  and  C_23
                            x       y       z     vdW  Elec       q    Type
                         _______ _______ _______ _____ _____    ______ ____

>  <TORSDO>
F 9

$$$$
=
 OpenBabel11052413193D

 31 34  0  0  1  0  0  0  0  0999 V2000
  187.0440  178.5000  142.9130 C   0  0  2  0  0  3  0  0  0  0  0  0
  187.8890  176.2060  142.7790 C   0  0  0  0  0  2  0  0  0  0  0  0
  188.0000  177.5900  142.1520 C   0  0  2  0  0  3  0  0  0  0  0  0
  186.2670  177.6160  143.8690 C   0  0  1  0  0  3  0  0  0  0  0  0
  187.1190  176.3790  144.0710 C   0  0  0  0  0  2  0  0  0  0  0  0
  185.0490  179.1130  145.2610 O   0  0  0  0  0  0  0  0  0  0  0  0
  186.0220  178.3160  145.1660 C   0  0  0  0  0  0  0  0  0  0  0  0
  186.9090  178.1130  146.2720 N   0  0  0  0  0  2  0  0  0  0  0  0
  186.6950  178.7240  147.5760 C   0  0  0  0  0  2  0  0  0  0  0  0
  189.0280  178.1720  148.2470 C   0  0  0  0  0  1  0  0  0  0  0  0
  187.5650  178.0470  148.6200 C   0  0  0  0  0  2  0  0  0  0  0  0
  186.1150  179.2440  141.9630 C   0  0  0  0  0  2  0  0  0  0  0  0
  184.8960  178.4670  141.7760 N   0  0  0  0  0  2  0  0  0  0  0  0
  184.1910  178.9990  140.6230 C   0  0  0  0  0  3  0  0  0  0  0  0
  184.9840  178.6820  139.3680 C   0  0  0  0  0  2  0  0  0  0  0  0
  183.7550  177.8750  139.6990 C   0  0  0  0  0  2  0  0  0  0  0  0
  189.4260  178.1600  142.2010 C   0  0  2  0  0  3  0  0  0  0  0  0
  189.0220  176.3960  137.4820 C   0  0  0  0  0  1  0  0  0  0  0  0
  190.0590  178.3930  140.8230 C   0  0  2  0  0  3  0  0  0  0  0  0
  191.1700  176.5250  139.5200 C   0  0  0  0  0  2  0  0  0  0  0  0
  188.8940  178.4080  139.3980 S   0  0  0  0  0  0  0  0  0  0  0  0
  188.9560  176.6130  138.9840 C   0  0  2  0  0  3  0  0  0  0  0  0
  189.9410  175.8710  139.6740 O   0  0  0  0  0  0  0  0  0  0  0  0
  191.3310  177.5700  140.6120 C   0  0  0  0  0  2  0  0  0  0  0  0
  190.3250  177.6110  143.2800 C   0  0  0  0  0  0  0  0  0  0  0  0
  191.3130  177.8720  145.4870 C   0  0  0  0  0  3  0  0  0  0  0  0
  190.5300  178.3700  144.4380 C   0  0  0  0  0  3  0  0  0  0  0  0
  191.8970  176.6080  145.3810 C   0  0  0  0  0  3  0  0  0  0  0  0
  192.2910  174.5940  144.1170 O   0  0  0  0  0  1  0  0  0  0  0  0
  190.9140  176.3430  143.1800 C   0  0  0  0  0  3  0  0  0  0  0  0
  191.7010  175.8440  144.2260 C   0  0  0  0  0  0  0  0  0  0  0  0
  1 12  1  6  0  0  0
  1  4  1  0  0  0  0
  2  5  1  0  0  0  0
  3 17  1  1  0  0  0
  3  2  1  0  0  0  0
  3  1  1  0  0  0  0
  4  5  1  0  0  0  0
  4  7  1  1  0  0  0
  7  6  2  0  0  0  0
  7  8  1  0  0  0  0
  8  9  1  0  0  0  0
  9 11  1  0  0  0  0
 10 11  1  0  0  0  0
 13 12  1  0  0  0  0
 14 13  1  0  0  0  0
 15 16  1  0  0  0  0
 15 14  1  0  0  0  0
 16 14  1  0  0  0  0
 17 25  1  1  0  0  0
 19 17  1  1  0  0  0
 20 23  1  0  0  0  0
 20 24  1  0  0  0  0
 21 19  1  0  0  0  0
 22 18  1  6  0  0  0
 22 21  1  0  0  0  0
 22 23  1  0  0  0  0
 24 19  1  0  0  0  0
 25 27  1  0  0  0  0
 27 26  2  0  0  0  0
 28 26  1  0  0  0  0
 29 31  1  0  0  0  0
 30 25  2  0  0  0  0
 30 31  1  0  0  0  0
 31 28  2  0  0  0  0
M  END
>  <MODEL>
4

>  <REMARK>
 VINA RESULT:      -5.5      4.091      7.448
  Name = 
  9 active torsions:
  status: ('A' for Active; 'I' for Inactive)
    1  A    between atoms: C_1  and  N_24
    2  A    between atoms: C_3  and  C_15
    3  A    between atoms: C_3  and  N_24
    4  A    between atoms: C_4  and  C_27
    5  A    between atoms: C_5  and  C_27
    6  A    between atoms: C_9  and  C_23
    7  A    between atoms: C_19  and  C_21
    8  A    between atoms: C_20  and  C_27
    9  A    between atoms: N_22  and  C_23
                            x       y       z     vdW  Elec       q    Type
                         _______ _______ _______ _____ _____    ______ ____

>  <TORSDO>
F 9

$$$$
=
 OpenBabel11052413193D

 31 34  0  0  1  0  0  0  0  0999 V2000
  189.7530  177.3020  138.8730 C   0  0  2  0  0  3  0  0  0  0  0  0
  189.4090  178.2050  136.6230 C   0  0  0  0  0  2  0  0  0  0  0  0
  190.1330  177.1180  137.4090 C   0  0  2  0  0  3  0  0  0  0  0  0
  188.9430  178.5810  138.9580 C   0  0  1  0  0  3  0  0  0  0  0  0
  188.3910  178.8110  137.5660 C   0  0  0  0  0  2  0  0  0  0  0  0
  186.6430  178.4770  139.5580 O   0  0  0  0  0  0  0  0  0  0  0  0
  187.8400  178.4500  139.9570 C   0  0  0  0  0  0  0  0  0  0  0  0
  188.1410  178.3370  141.3520 N   0  0  0  0  0  2  0  0  0  0  0  0
  187.1140  178.1540  142.3670 C   0  0  0  0  0  2  0  0  0  0  0  0
  187.5700  177.4790  144.7200 C   0  0  0  0  0  1  0  0  0  0  0  0
  187.4860  177.0020  143.2850 C   0  0  0  0  0  2  0  0  0  0  0  0
  190.9890  177.3670  139.7620 C   0  0  0  0  0  2  0  0  0  0  0  0
  190.6870  176.7580  141.0510 N   0  0  0  0  0  2  0  0  0  0  0  0
  191.7050  177.1760  142.0000 C   0  0  0  0  0  3  0  0  0  0  0  0
  191.0560  178.0230  143.0810 C   0  0  0  0  0  2  0  0  0  0  0  0
  191.4260  176.5920  143.3740 C   0  0  0  0  0  2  0  0  0  0  0  0
  189.7770  175.6990  136.9430 C   0  0  2  0  0  3  0  0  0  0  0  0
  194.5790  174.2900  137.6520 C   0  0  0  0  0  1  0  0  0  0  0  0
  190.8960  174.9880  136.1720 C   0  0  2  0  0  3  0  0  0  0  0  0
  193.1490  176.0750  135.7650 C   0  0  0  0  0  2  0  0  0  0  0  0
  191.8920  173.7790  137.1400 S   0  0  0  0  0  0  0  0  0  0  0  0
  193.2030  174.9300  137.7350 C   0  0  2  0  0  3  0  0  0  0  0  0
  193.1780  176.2200  137.1590 O   0  0  0  0  0  0  0  0  0  0  0  0
  191.7090  175.9430  135.2970 C   0  0  0  0  0  2  0  0  0  0  0  0
  188.3690  175.4990  136.4400 C   0  0  0  0  0  0  0  0  0  0  0  0
  186.8900  174.8800  134.6110 C   0  0  0  0  0  3  0  0  0  0  0  0
  188.1770  175.1290  135.1030 C   0  0  0  0  0  3  0  0  0  0  0  0
  185.7850  175.0010  135.4570 C   0  0  0  0  0  3  0  0  0  0  0  0
  184.8690  175.5040  137.6270 O   0  0  0  0  0  1  0  0  0  0  0  0
  187.2560  175.6190  137.2830 C   0  0  0  0  0  3  0  0  0  0  0  0
  185.9670  175.3740  136.7920 C   0  0  0  0  0  0  0  0  0  0  0  0
  1  4  1  0  0  0  0
  1 12  1  1  0  0  0
  2  3  1  0  0  0  0
  2  5  1  0  0  0  0
  3 17  1  6  0  0  0
  3  1  1  0  0  0  0
  4  7  1  1  0  0  0
  5  4  1  0  0  0  0
  6  7  2  0  0  0  0
  7  8  1  0  0  0  0
  8  9  1  0  0  0  0
  9 11  1  0  0  0  0
 11 10  1  0  0  0  0
 12 13  1  0  0  0  0
 13 14  1  0  0  0  0
 14 15  1  0  0  0  0
 14 16  1  0  0  0  0
 15 16  1  0  0  0  0
 17 25  1  6  0  0  0
 19 17  1  1  0  0  0
 19 21  1  0  0  0  0
 20 23  1  0  0  0  0
 21 22  1  0  0  0  0
 22 18  1  6  0  0  0
 23 22  1  0  0  0  0
 24 20  1  0  0  0  0
 24 19  1  0  0  0  0
 25 30  1  0  0  0  0
 26 27  1  0  0  0  0
 26 28  2  0  0  0  0
 27 25  2  0  0  0  0
 28 31  1  0  0  0  0
 31 30  2  0  0  0  0
 31 29  1  0  0  0  0
M  END
>  <MODEL>
5

>  <REMARK>
 VINA RESULT:      -5.4      1.927      2.644
  Name = 
  9 active torsions:
  status: ('A' for Active; 'I' for Inactive)
    1  A    between atoms: C_1  and  N_24
    2  A    between atoms: C_3  and  C_15
    3  A    between atoms: C_3  and  N_24
    4  A    between atoms: C_4  and  C_27
    5  A    between atoms: C_5  and  C_27
    6  A    between atoms: C_9  and  C_23
    7  A    between atoms: C_19  and  C_21
    8  A    between atoms: C_20  and  C_27
    9  A    between atoms: N_22  and  C_23
                            x       y       z     vdW  Elec       q    Type
                         _______ _______ _______ _____ _____    ______ ____

>  <TORSDO>
F 9

$$$$
=
 OpenBabel11052413193D

 31 34  0  0  1  0  0  0  0  0999 V2000
  187.1080  177.6740  138.2750 C   0  0  2  0  0  3  0  0  0  0  0  0
  189.0640  179.0450  137.7360 C   0  0  0  0  0  2  0  0  0  0  0  0
  188.2950  178.4080  138.8860 C   0  0  2  0  0  3  0  0  0  0  0  0
  187.0970  178.0160  136.7970 C   0  0  1  0  0  3  0  0  0  0  0  0
  188.5130  178.4390  136.4620 C   0  0  0  0  0  2  0  0  0  0  0  0
  186.2690  177.0200  134.8010 O   0  0  0  0  0  0  0  0  0  0  0  0
  186.6830  176.8360  135.9790 C   0  0  0  0  0  0  0  0  0  0  0  0
  186.7170  175.5200  136.5430 N   0  0  0  0  0  2  0  0  0  0  0  0
  186.3770  174.3280  135.7810 C   0  0  0  0  0  2  0  0  0  0  0  0
  187.6490  172.5350  136.9500 C   0  0  0  0  0  1  0  0  0  0  0  0
  187.5750  173.3960  135.7060 C   0  0  0  0  0  2  0  0  0  0  0  0
  185.8020  178.0770  138.9480 C   0  0  0  0  0  2  0  0  0  0  0  0
  186.0970  178.8860  140.1240 N   0  0  0  0  0  2  0  0  0  0  0  0
  184.8470  179.1560  140.8140 C   0  0  0  0  0  3  0  0  0  0  0  0
  184.5580  178.0180  141.7770 C   0  0  0  0  0  2  0  0  0  0  0  0
  185.0870  179.3280  142.3040 C   0  0  0  0  0  2  0  0  0  0  0  0
  189.1480  177.4370  139.7160 C   0  0  2  0  0  3  0  0  0  0  0  0
  191.3610  175.7770  143.9450 C   0  0  0  0  0  1  0  0  0  0  0  0
  189.5710  177.9800  141.0860 C   0  0  2  0  0  3  0  0  0  0  0  0
  188.7350  176.9640  143.2520 C   0  0  0  0  0  2  0  0  0  0  0  0
  191.2110  177.4130  141.7010 S   0  0  0  0  0  0  0  0  0  0  0  0
  190.6510  175.9100  142.6090 C   0  0  2  0  0  3  0  0  0  0  0  0
  189.2500  175.7700  142.7320 O   0  0  0  0  0  0  0  0  0  0  0  0
  188.4410  177.9290  142.1160 C   0  0  0  0  0  2  0  0  0  0  0  0
  190.1750  176.6370  138.9530 C   0  0  0  0  0  0  0  0  0  0  0  0
  190.6670  174.7720  137.4720 C   0  0  0  0  0  3  0  0  0  0  0  0
  189.7550  175.5100  138.2370 C   0  0  0  0  0  3  0  0  0  0  0  0
  192.0080  175.1600  137.4210 C   0  0  0  0  0  3  0  0  0  0  0  0
  193.7700  176.6590  138.0950 O   0  0  0  0  0  1  0  0  0  0  0  0
  191.5210  177.0200  138.8980 C   0  0  0  0  0  3  0  0  0  0  0  0
  192.4370  176.2820  138.1370 C   0  0  0  0  0  0  0  0  0  0  0  0
  1  3  1  0  0  0  0
  1 12  1  1  0  0  0
  2  3  1  0  0  0  0
  3 17  1  6  0  0  0
  4  7  1  6  0  0  0
  4  1  1  0  0  0  0
  5  4  1  0  0  0  0
  5  2  1  0  0  0  0
  6  7  2  0  0  0  0
  7  8  1  0  0  0  0
  9  8  1  0  0  0  0
 11  9  1  0  0  0  0
 11 10  1  0  0  0  0
 12 13  1  0  0  0  0
 13 14  1  0  0  0  0
 14 15  1  0  0  0  0
 14 16  1  0  0  0  0
 15 16  1  0  0  0  0
 17 25  1  6  0  0  0
 19 17  1  6  0  0  0
 19 21  1  0  0  0  0
 19 24  1  0  0  0  0
 21 22  1  0  0  0  0
 22 23  1  0  0  0  0
 22 18  1  1  0  0  0
 23 20  1  0  0  0  0
 24 20  1  0  0  0  0
 26 27  1  0  0  0  0
 27 25  2  0  0  0  0
 28 26  2  0  0  0  0
 28 31  1  0  0  0  0
 29 31  1  0  0  0  0
 30 25  1  0  0  0  0
 31 30  2  0  0  0  0
M  END
>  <MODEL>
6

>  <REMARK>
 VINA RESULT:      -5.3      2.414      5.618
  Name = 
  9 active torsions:
  status: ('A' for Active; 'I' for Inactive)
    1  A    between atoms: C_1  and  N_24
    2  A    between atoms: C_3  and  C_15
    3  A    between atoms: C_3  and  N_24
    4  A    between atoms: C_4  and  C_27
    5  A    between atoms: C_5  and  C_27
    6  A    between atoms: C_9  and  C_23
    7  A    between atoms: C_19  and  C_21
    8  A    between atoms: C_20  and  C_27
    9  A    between atoms: N_22  and  C_23
                            x       y       z     vdW  Elec       q    Type
                         _______ _______ _______ _____ _____    ______ ____

>  <TORSDO>
F 9

$$$$
=
 OpenBabel11052413193D

 31 34  0  0  1  0  0  0  0  0999 V2000
  183.7750  177.5020  138.1400 C   0  0  2  0  0  3  0  0  0  0  0  0
  182.8220  179.6440  138.8480 C   0  0  0  0  0  2  0  0  0  0  0  0
  182.4920  178.1760  138.6090 C   0  0  2  0  0  3  0  0  0  0  0  0
  184.8030  178.6020  137.9540 C   0  0  1  0  0  3  0  0  0  0  0  0
  184.3320  179.7550  138.8160 C   0  0  0  0  0  2  0  0  0  0  0  0
  186.8060  177.3630  137.6160 O   0  0  0  0  0  0  0  0  0  0  0  0
  186.1620  178.1410  138.3720 C   0  0  0  0  0  0  0  0  0  0  0  0
  186.7030  178.5450  139.6340 N   0  0  0  0  0  2  0  0  0  0  0  0
  188.0390  178.1730  140.0740 C   0  0  0  0  0  2  0  0  0  0  0  0
  188.5220  177.1610  142.2970 C   0  0  0  0  0  1  0  0  0  0  0  0
  188.1950  178.4430  141.5600 C   0  0  0  0  0  2  0  0  0  0  0  0
  183.5520  176.7260  136.8480 C   0  0  0  0  0  2  0  0  0  0  0  0
  184.4540  175.5820  136.8130 N   0  0  0  0  0  2  0  0  0  0  0  0
  183.9750  174.5970  137.7680 C   0  0  0  0  0  3  0  0  0  0  0  0
  183.5370  173.3520  137.0170 C   0  0  0  0  0  2  0  0  0  0  0  0
  184.8560  173.3610  137.7470 C   0  0  0  0  0  2  0  0  0  0  0  0
  181.9500  177.4690  139.8610 C   0  0  2  0  0  3  0  0  0  0  0  0
  179.3290  173.4570  138.2560 C   0  0  0  0  0  1  0  0  0  0  0  0
  180.4890  177.0160  139.7470 C   0  0  2  0  0  3  0  0  0  0  0  0
  179.4620  176.3290  137.5350 C   0  0  0  0  0  2  0  0  0  0  0  0
  180.1570  175.2630  140.2030 S   0  0  0  0  0  0  0  0  0  0  0  0
  180.3910  174.5060  138.5390 C   0  0  2  0  0  3  0  0  0  0  0  0
  180.5310  175.4240  137.4750 O   0  0  0  0  0  0  0  0  0  0  0  0
  179.8250  177.4850  138.4520 C   0  0  0  0  0  2  0  0  0  0  0  0
  182.3850  178.0400  141.1870 C   0  0  0  0  0  0  0  0  0  0  0  0
  181.7890  179.1930  143.2440 C   0  0  0  0  0  3  0  0  0  0  0  0
  181.4390  178.6970  141.9820 C   0  0  0  0  0  3  0  0  0  0  0  0
  183.0930  179.0340  143.7180 C   0  0  0  0  0  3  0  0  0  0  0  0
  185.3430  178.2360  143.3960 O   0  0  0  0  0  1  0  0  0  0  0  0
  183.6920  177.8840  141.6680 C   0  0  0  0  0  3  0  0  0  0  0  0
  184.0460  178.3830  142.9290 C   0  0  0  0  0  0  0  0  0  0  0  0
  1 12  1  6  0  0  0
  1  3  1  0  0  0  0
  3  2  1  0  0  0  0
  3 17  1  1  0  0  0
  4  1  1  0  0  0  0
  4  7  1  1  0  0  0
  4  5  1  0  0  0  0
  5  2  1  0  0  0  0
  6  7  2  0  0  0  0
  7  8  1  0  0  0  0
  8  9  1  0  0  0  0
  9 11  1  0  0  0  0
 11 10  1  0  0  0  0
 13 12  1  0  0  0  0
 13 14  1  0  0  0  0
 15 16  1  0  0  0  0
 15 14  1  0  0  0  0
 16 14  1  0  0  0  0
 17 25  1  1  0  0  0
 19 17  1  6  0  0  0
 19 21  1  0  0  0  0
 20 24  1  0  0  0  0
 22 18  1  6  0  0  0
 22 21  1  0  0  0  0
 23 20  1  0  0  0  0
 23 22  1  0  0  0  0
 24 19  1  0  0  0  0
 25 30  2  0  0  0  0
 25 27  1  0  0  0  0
 26 28  1  0  0  0  0
 27 26  2  0  0  0  0
 30 31  1  0  0  0  0
 31 29  1  0  0  0  0
 31 28  2  0  0  0  0
M  END
>  <MODEL>
7

>  <REMARK>
 VINA RESULT:      -5.3      4.249      8.273
  Name = 
  9 active torsions:
  status: ('A' for Active; 'I' for Inactive)
    1  A    between atoms: C_1  and  N_24
    2  A    between atoms: C_3  and  C_15
    3  A    between atoms: C_3  and  N_24
    4  A    between atoms: C_4  and  C_27
    5  A    between atoms: C_5  and  C_27
    6  A    between atoms: C_9  and  C_23
    7  A    between atoms: C_19  and  C_21
    8  A    between atoms: C_20  and  C_27
    9  A    between atoms: N_22  and  C_23
                            x       y       z     vdW  Elec       q    Type
                         _______ _______ _______ _____ _____    ______ ____

>  <TORSDO>
F 9

$$$$
=
 OpenBabel11052413193D

 31 34  0  0  1  0  0  0  0  0999 V2000
  187.3560  176.3680  137.2270 C   0  0  2  0  0  3  0  0  0  0  0  0
  186.3380  177.7350  135.4670 C   0  0  0  0  0  2  0  0  0  0  0  0
  186.2460  176.3920  136.1830 C   0  0  2  0  0  3  0  0  0  0  0  0
  188.1850  177.6200  137.0120 C   0  0  1  0  0  3  0  0  0  0  0  0
  187.2800  178.5930  136.2850 C   0  0  0  0  0  2  0  0  0  0  0  0
  189.0560  179.3790  138.3570 O   0  0  0  0  0  0  0  0  0  0  0  0
  188.6450  178.1870  138.3160 C   0  0  0  0  0  0  0  0  0  0  0  0
  188.6570  177.3700  139.4920 N   0  0  0  0  0  2  0  0  0  0  0  0
  189.0430  177.8790  140.7990 C   0  0  0  0  0  2  0  0  0  0  0  0
  187.7330  177.4120  142.8640 C   0  0  0  0  0  1  0  0  0  0  0  0
  187.8080  178.2470  141.6030 C   0  0  0  0  0  2  0  0  0  0  0  0
  188.2050  175.1100  137.1020 C   0  0  0  0  0  2  0  0  0  0  0  0
  189.4600  175.4410  136.4370 N   0  0  0  0  0  2  0  0  0  0  0  0
  190.5450  174.8390  137.1920 C   0  0  0  0  0  3  0  0  0  0  0  0
  191.8520  175.0790  136.4560 C   0  0  0  0  0  2  0  0  0  0  0  0
  191.5160  175.9040  137.6720 C   0  0  0  0  0  2  0  0  0  0  0  0
  184.8840  176.1590  136.8520 C   0  0  2  0  0  3  0  0  0  0  0  0
  183.4310  171.3180  136.8470 C   0  0  0  0  0  1  0  0  0  0  0  0
  183.9430  175.2370  136.0650 C   0  0  2  0  0  3  0  0  0  0  0  0
  184.7700  173.1320  134.9220 C   0  0  0  0  0  2  0  0  0  0  0  0
  182.9590  174.0510  137.0700 S   0  0  0  0  0  0  0  0  0  0  0  0
  184.1470  172.6410  137.0590 C   0  0  2  0  0  3  0  0  0  0  0  0
  185.2530  172.7950  136.1930 O   0  0  0  0  0  0  0  0  0  0  0  0
  184.6070  174.6390  134.8230 C   0  0  0  0  0  2  0  0  0  0  0  0
  184.2590  177.3570  137.5230 C   0  0  0  0  0  0  0  0  0  0  0  0
  182.3560  178.8550  137.7360 C   0  0  0  0  0  3  0  0  0  0  0  0
  182.9940  177.7820  137.1020 C   0  0  0  0  0  3  0  0  0  0  0  0
  182.9840  179.5110  138.7980 C   0  0  0  0  0  3  0  0  0  0  0  0
  184.8770  179.7530  140.2690 O   0  0  0  0  0  1  0  0  0  0  0  0
  184.8840  178.0180  138.5890 C   0  0  0  0  0  3  0  0  0  0  0  0
  184.2500  179.0950  139.2230 C   0  0  0  0  0  0  0  0  0  0  0  0
  1 12  1  6  0  0  0
  2  3  1  0  0  0  0
  2  5  1  0  0  0  0
  3 17  1  1  0  0  0
  3  1  1  0  0  0  0
  4  1  1  0  0  0  0
  4  7  1  1  0  0  0
  5  4  1  0  0  0  0
  7  6  2  0  0  0  0
  7  8  1  0  0  0  0
  8  9  1  0  0  0  0
  9 11  1  0  0  0  0
 11 10  1  0  0  0  0
 13 12  1  0  0  0  0
 13 14  1  0  0  0  0
 14 16  1  0  0  0  0
 15 14  1  0  0  0  0
 15 16  1  0  0  0  0
 17 25  1  6  0  0  0
 19 17  1  1  0  0  0
 19 21  1  0  0  0  0
 20 23  1  0  0  0  0
 22 18  1  6  0  0  0
 22 21  1  0  0  0  0
 23 22  1  0  0  0  0
 24 20  1  0  0  0  0
 24 19  1  0  0  0  0
 25 30  1  0  0  0  0
 26 28  2  0  0  0  0
 27 25  2  0  0  0  0
 27 26  1  0  0  0  0
 28 31  1  0  0  0  0
 30 31  2  0  0  0  0
 31 29  1  0  0  0  0
M  END
>  <MODEL>
8

>  <REMARK>
 VINA RESULT:      -5.2      2.625      5.655
  Name = 
  9 active torsions:
  status: ('A' for Active; 'I' for Inactive)
    1  A    between atoms: C_1  and  N_24
    2  A    between atoms: C_3  and  C_15
    3  A    between atoms: C_3  and  N_24
    4  A    between atoms: C_4  and  C_27
    5  A    between atoms: C_5  and  C_27
    6  A    between atoms: C_9  and  C_23
    7  A    between atoms: C_19  and  C_21
    8  A    between atoms: C_20  and  C_27
    9  A    between atoms: N_22  and  C_23
                            x       y       z     vdW  Elec       q    Type
                         _______ _______ _______ _____ _____    ______ ____

>  <TORSDO>
F 9

$$$$
=
 OpenBabel11052413193D

 31 34  0  0  1  0  0  0  0  0999 V2000
  183.4670  177.7570  138.7830 C   0  0  2  0  0  3  0  0  0  0  0  0
  182.0500  179.6930  138.2910 C   0  0  0  0  0  2  0  0  0  0  0  0
  182.0830  178.1700  138.2960 C   0  0  2  0  0  3  0  0  0  0  0  0
  184.2830  179.0290  138.9090 C   0  0  1  0  0  3  0  0  0  0  0  0
  183.2760  180.1520  139.0520 C   0  0  0  0  0  2  0  0  0  0  0  0
  186.3940  178.6290  139.9310 O   0  0  0  0  0  0  0  0  0  0  0  0
  185.1900  178.9680  140.0950 C   0  0  0  0  0  0  0  0  0  0  0  0
  184.6830  179.2500  141.4040 N   0  0  0  0  0  2  0  0  0  0  0  0
  185.5270  179.2590  142.5900 C   0  0  0  0  0  2  0  0  0  0  0  0
  185.1640  178.8050  145.0110 C   0  0  0  0  0  1  0  0  0  0  0  0
  185.0090  178.2570  143.6070 C   0  0  0  0  0  2  0  0  0  0  0  0
  184.1200  176.7690  137.8240 C   0  0  0  0  0  2  0  0  0  0  0  0
  184.8040  177.5060  136.7690 N   0  0  0  0  0  2  0  0  0  0  0  0
  186.1670  177.0100  136.6800 C   0  0  0  0  0  3  0  0  0  0  0  0
  186.7440  177.3910  135.3280 C   0  0  0  0  0  2  0  0  0  0  0  0
  187.1470  178.1640  136.5580 C   0  0  0  0  0  2  0  0  0  0  0  0
  180.9990  177.5460  139.1870 C   0  0  2  0  0  3  0  0  0  0  0  0
  179.6930  172.8330  137.9130 C   0  0  0  0  0  1  0  0  0  0  0  0
  179.8850  176.8260  138.4170 C   0  0  2  0  0  3  0  0  0  0  0  0
  180.3760  175.3140  136.4430 C   0  0  0  0  0  2  0  0  0  0  0  0
  179.2600  175.2710  139.1800 S   0  0  0  0  0  0  0  0  0  0  0  0
  180.4170  174.0900  138.3650 C   0  0  2  0  0  3  0  0  0  0  0  0
  181.2170  174.6430  137.3400 O   0  0  0  0  0  0  0  0  0  0  0  0
  180.1650  176.7430  136.9160 C   0  0  0  0  0  2  0  0  0  0  0  0
  180.5830  178.3540  140.3910 C   0  0  0  0  0  0  0  0  0  0  0  0
  178.9730  179.8570  141.4230 C   0  0  0  0  0  3  0  0  0  0  0  0
  179.4240  179.1350  140.3110 C   0  0  0  0  0  3  0  0  0  0  0  0
  179.6830  179.8010  142.6250 C   0  0  0  0  0  3  0  0  0  0  0  0
  181.5530  178.9800  143.9030 O   0  0  0  0  0  1  0  0  0  0  0  0
  181.2910  178.3020  141.6000 C   0  0  0  0  0  3  0  0  0  0  0  0
  180.8440  179.0270  142.7130 C   0  0  0  0  0  0  0  0  0  0  0  0
  1 12  1  6  0  0  0
  1  4  1  0  0  0  0
  2  3  1  0  0  0  0
  2  5  1  0  0  0  0
  3  1  1  0  0  0  0
  3 17  1  1  0  0  0
  4  5  1  0  0  0  0
  4  7  1  1  0  0  0
  6  7  2  0  0  0  0
  7  8  1  0  0  0  0
  8  9  1  0  0  0  0
  9 11  1  0  0  0  0
 11 10  1  0  0  0  0
 13 12  1  0  0  0  0
 14 13  1  0  0  0  0
 15 16  1  0  0  0  0
 15 14  1  0  0  0  0
 16 14  1  0  0  0  0
 17 25  1  6  0  0  0
 19 21  1  0  0  0  0
 19 17  1  1  0  0  0
 20 24  1  0  0  0  0
 20 23  1  0  0  0  0
 22 18  1  6  0  0  0
 22 21  1  0  0  0  0
 23 22  1  0  0  0  0
 24 19  1  0  0  0  0
 25 30  1  0  0  0  0
 26 28  2  0  0  0  0
 27 25  2  0  0  0  0
 27 26  1  0  0  0  0
 28 31  1  0  0  0  0
 30 31  2  0  0  0  0
 31 29  1  0  0  0  0
M  END
>  <MODEL>
9

>  <REMARK>
 VINA RESULT:      -5.2      4.508      8.390
  Name = 
  9 active torsions:
  status: ('A' for Active; 'I' for Inactive)
    1  A    between atoms: C_1  and  N_24
    2  A    between atoms: C_3  and  C_15
    3  A    between atoms: C_3  and  N_24
    4  A    between atoms: C_4  and  C_27
    5  A    between atoms: C_5  and  C_27
    6  A    between atoms: C_9  and  C_23
    7  A    between atoms: C_19  and  C_21
    8  A    between atoms: C_20  and  C_27
    9  A    between atoms: N_22  and  C_23
                            x       y       z     vdW  Elec       q    Type
                         _______ _______ _______ _____ _____    ______ ____

>  <TORSDO>
F 9

$$$$
