=
 OpenBabel11052412423D

 25 28  0  0  1  0  0  0  0  0999 V2000
  184.2120  178.4180  142.8220 C   0  0  0  0  0  0  0  0  0  0  0  0
  185.3160  178.2700  143.6660 C   0  0  0  0  0  0  0  0  0  0  0  0
  182.8020  179.0340  144.6600 C   0  0  0  0  0  3  0  0  0  0  0  0
  184.0600  178.1590  141.3650 C   0  0  1  0  0  3  0  0  0  0  0  0
  182.9970  179.3430  138.9630 C   0  0  0  0  0  3  0  0  0  0  0  0
  183.8720  178.8980  145.4930 N   0  0  0  0  0  0  0  0  0  0  0  0
  182.6140  178.5450  141.1920 C   0  0  0  0  0  0  0  0  0  0  0  0
  182.1090  178.9030  139.8640 C   0  0  0  0  0  3  0  0  0  0  0  0
  186.1880  178.2490  146.0860 C   0  0  2  0  0  3  0  0  0  0  0  0
  186.2170  179.3300  147.1500 C   0  0  0  0  0  1  0  0  0  0  0  0
  186.9080  177.7760  142.9750 S   0  0  0  0  0  0  0  0  0  0  0  0
  184.4300  179.5080  139.3230 C   0  0  0  0  0  3  0  0  0  0  0  0
  182.9830  178.7710  143.3110 C   0  0  0  0  0  0  0  0  0  0  0  0
  182.0080  178.8840  142.2870 N   0  0  0  0  0  0  0  0  0  0  0  0
  187.5260  178.1100  145.5180 N   0  0  0  0  0  2  0  0  0  0  0  0
  184.9220  179.0160  140.4720 C   0  0  0  0  0  3  0  0  0  0  0  0
  187.4960  177.0490  144.5230 C   0  0  2  0  0  3  0  0  0  0  0  0
  185.1190  178.5390  145.0500 C   0  0  0  0  0  0  0  0  0  0  0  0
  188.8380  176.5240  144.3270 N   0  0  0  0  0  2  0  0  0  0  0  0
  190.0020  177.3530  144.3760 C   0  0  0  0  0  0  0  0  0  0  0  0
  189.8970  178.5800  144.6460 O   0  0  0  0  0  0  0  0  0  0  0  0
  191.9640  176.5340  145.3950 F   0  0  0  0  0  0  0  0  0  0  0  0
  191.3530  176.7460  144.1720 C   0  0  0  0  0  0  0  0  0  0  0  0
  192.1310  177.6040  143.4190 F   0  0  0  0  0  0  0  0  0  0  0  0
  191.2380  175.5350  143.5130 F   0  0  0  0  0  0  0  0  0  0  0  0
  1 13  2  0  0  0  0
  1  2  1  0  0  0  0
  2 18  2  0  0  0  0
  3  6  2  0  0  0  0
  4 16  1  6  0  0  0
  4  1  1  0  0  0  0
  5 12  1  0  0  0  0
  5  8  2  0  0  0  0
  7  4  1  0  0  0  0
  7 14  2  0  0  0  0
  8  7  1  0  0  0  0
  9 10  1  1  0  0  0
 11  2  1  0  0  0  0
 11 17  1  0  0  0  0
 12 16  2  0  0  0  0
 13  3  1  0  0  0  0
 14 13  1  0  0  0  0
 15  9  1  0  0  0  0
 17 19  1  6  0  0  0
 17 15  1  0  0  0  0
 18  6  1  0  0  0  0
 18  9  1  0  0  0  0
 19 20  1  0  0  0  0
 20 21  2  0  0  0  0
 23 20  1  0  0  0  0
 23 22  1  0  0  0  0
 24 23  1  0  0  0  0
 25 23  1  0  0  0  0
M  END
>  <MODEL>
1

>  <REMARK>
 VINA RESULT:      -9.1      0.000      0.000
  Name = 
  2 active torsions:
  status: ('A' for Active; 'I' for Inactive)
    1  A    between atoms: N_6  and  C_23
    2  A    between atoms: C_7  and  C_15
                            x       y       z     vdW  Elec       q    Type
                         _______ _______ _______ _____ _____    ______ ____

>  <TORSDO>
F 2

$$$$
=
 OpenBabel11052412423D

 25 28  0  0  1  0  0  0  0  0999 V2000
  188.2420  177.7630  144.6710 C   0  0  0  0  0  0  0  0  0  0  0  0
  187.0160  178.1170  144.1020 C   0  0  0  0  0  0  0  0  0  0  0  0
  187.3870  178.0900  146.8860 C   0  0  0  0  0  3  0  0  0  0  0  0
  189.5480  177.4310  144.0390 C   0  0  1  0  0  3  0  0  0  0  0  0
  191.6880  175.5060  144.1630 C   0  0  0  0  0  3  0  0  0  0  0  0
  186.1850  178.4330  146.3440 N   0  0  0  0  0  0  0  0  0  0  0  0
  190.3640  177.1660  145.2780 C   0  0  0  0  0  0  0  0  0  0  0  0
  191.5860  176.3630  145.1880 C   0  0  0  0  0  3  0  0  0  0  0  0
  184.6370  179.0110  144.4980 C   0  0  2  0  0  3  0  0  0  0  0  0
  183.4760  178.4510  145.2990 C   0  0  0  0  0  1  0  0  0  0  0  0
  186.8320  178.1180  142.3070 S   0  0  0  0  0  0  0  0  0  0  0  0
  190.5750  175.3450  143.1900 C   0  0  0  0  0  3  0  0  0  0  0  0
  188.4270  177.7700  146.0270 C   0  0  0  0  0  0  0  0  0  0  0  0
  189.7350  177.3610  146.3950 N   0  0  0  0  0  0  0  0  0  0  0  0
  184.3940  178.7670  143.0800 N   0  0  0  0  0  2  0  0  0  0  0  0
  189.5390  176.2010  143.1670 C   0  0  0  0  0  3  0  0  0  0  0  0
  185.4950  179.3360  142.3190 C   0  0  2  0  0  3  0  0  0  0  0  0
  185.9560  178.4470  144.9920 C   0  0  0  0  0  0  0  0  0  0  0  0
  185.0670  179.5910  140.9530 N   0  0  0  0  0  2  0  0  0  0  0  0
  184.1900  178.7100  140.2460 C   0  0  0  0  0  0  0  0  0  0  0  0
  183.7150  177.6920  140.8200 O   0  0  0  0  0  0  0  0  0  0  0  0
  182.5320  178.5050  138.5820 F   0  0  0  0  0  0  0  0  0  0  0  0
  183.7820  179.0360  138.8450 C   0  0  0  0  0  0  0  0  0  0  0  0
  184.6990  178.4960  137.9640 F   0  0  0  0  0  0  0  0  0  0  0  0
  183.7330  180.4070  138.6690 F   0  0  0  0  0  0  0  0  0  0  0  0
  1 13  1  0  0  0  0
  2  1  2  0  0  0  0
  2 18  1  0  0  0  0
  4 16  1  6  0  0  0
  4  1  1  0  0  0  0
  4  7  1  0  0  0  0
  5  8  2  0  0  0  0
  6  3  1  0  0  0  0
  7 14  2  0  0  0  0
  8  7  1  0  0  0  0
  9 18  1  0  0  0  0
  9 10  1  1  0  0  0
 11 17  1  0  0  0  0
 11  2  1  0  0  0  0
 12  5  1  0  0  0  0
 13 14  1  0  0  0  0
 13  3  2  0  0  0  0
 15  9  1  0  0  0  0
 16 12  2  0  0  0  0
 17 19  1  6  0  0  0
 17 15  1  0  0  0  0
 18  6  2  0  0  0  0
 20 21  2  0  0  0  0
 20 19  1  0  0  0  0
 22 23  1  0  0  0  0
 23 20  1  0  0  0  0
 24 23  1  0  0  0  0
 25 23  1  0  0  0  0
M  END
>  <MODEL>
2

>  <REMARK>
 VINA RESULT:      -8.5      3.992      7.065
  Name = 
  2 active torsions:
  status: ('A' for Active; 'I' for Inactive)
    1  A    between atoms: N_6  and  C_23
    2  A    between atoms: C_7  and  C_15
                            x       y       z     vdW  Elec       q    Type
                         _______ _______ _______ _____ _____    ______ ____

>  <TORSDO>
F 2

$$$$
=
 OpenBabel11052412423D

 25 28  0  0  1  0  0  0  0  0999 V2000
  184.2630  178.7690  143.5090 C   0  0  0  0  0  0  0  0  0  0  0  0
  184.0670  178.6250  142.1330 C   0  0  0  0  0  0  0  0  0  0  0  0
  181.9020  178.8880  143.9040 C   0  0  0  0  0  3  0  0  0  0  0  0
  185.5140  178.8970  144.3040 C   0  0  1  0  0  3  0  0  0  0  0  0
  186.7870  177.8830  146.6830 C   0  0  0  0  0  3  0  0  0  0  0  0
  181.6960  178.7440  142.5650 N   0  0  0  0  0  0  0  0  0  0  0  0
  184.9210  179.0130  145.6850 C   0  0  0  0  0  0  0  0  0  0  0  0
  185.7400  178.7010  146.8590 C   0  0  0  0  0  3  0  0  0  0  0  0
  182.3840  178.6210  140.1880 C   0  0  2  0  0  3  0  0  0  0  0  0
  181.1960  177.7240  139.8920 C   0  0  0  0  0  1  0  0  0  0  0  0
  185.4920  178.4600  141.0400 S   0  0  0  0  0  0  0  0  0  0  0  0
  187.0660  177.2790  145.3530 C   0  0  0  0  0  3  0  0  0  0  0  0
  183.2080  178.9180  144.3680 C   0  0  0  0  0  0  0  0  0  0  0  0
  183.6250  179.0290  145.7200 N   0  0  0  0  0  0  0  0  0  0  0  0
  183.4980  178.2270  139.3300 N   0  0  0  0  0  2  0  0  0  0  0  0
  186.4300  177.7000  144.2470 C   0  0  0  0  0  3  0  0  0  0  0  0
  184.6200  179.1120  139.5970 C   0  0  2  0  0  3  0  0  0  0  0  0
  182.7230  178.5990  141.6660 C   0  0  0  0  0  0  0  0  0  0  0  0
  185.5200  179.1200  138.4550 N   0  0  0  0  0  2  0  0  0  0  0  0
  185.7560  177.9580  137.6550 C   0  0  0  0  0  0  0  0  0  0  0  0
  185.1360  176.8860  137.8940 O   0  0  0  0  0  0  0  0  0  0  0  0
  187.6970  177.0990  136.6280 F   0  0  0  0  0  0  0  0  0  0  0  0
  186.6890  178.0370  136.4890 C   0  0  0  0  0  0  0  0  0  0  0  0
  187.2470  179.2990  136.4340 F   0  0  0  0  0  0  0  0  0  0  0  0
  186.0040  177.7890  135.3130 F   0  0  0  0  0  0  0  0  0  0  0  0
  1  4  1  0  0  0  0
  1 13  1  0  0  0  0
  2  1  2  0  0  0  0
  3 13  2  0  0  0  0
  4 16  1  1  0  0  0
  4  7  1  0  0  0  0
  5  8  2  0  0  0  0
  6  3  1  0  0  0  0
  7 14  2  0  0  0  0
  7  8  1  0  0  0  0
  9 10  1  1  0  0  0
  9 18  1  0  0  0  0
 11  2  1  0  0  0  0
 12  5  1  0  0  0  0
 13 14  1  0  0  0  0
 15 17  1  0  0  0  0
 15  9  1  0  0  0  0
 16 12  2  0  0  0  0
 17 19  1  6  0  0  0
 17 11  1  0  0  0  0
 18  2  1  0  0  0  0
 18  6  2  0  0  0  0
 20 21  2  0  0  0  0
 20 19  1  0  0  0  0
 23 22  1  0  0  0  0
 23 20  1  0  0  0  0
 24 23  1  0  0  0  0
 25 23  1  0  0  0  0
M  END
>  <MODEL>
3

>  <REMARK>
 VINA RESULT:      -8.5      3.967      6.516
  Name = 
  2 active torsions:
  status: ('A' for Active; 'I' for Inactive)
    1  A    between atoms: N_6  and  C_23
    2  A    between atoms: C_7  and  C_15
                            x       y       z     vdW  Elec       q    Type
                         _______ _______ _______ _____ _____    ______ ____

>  <TORSDO>
F 2

$$$$
=
 OpenBabel11052412423D

 25 28  0  0  1  0  0  0  0  0999 V2000
  187.4140  177.8360  144.4480 C   0  0  0  0  0  0  0  0  0  0  0  0
  188.4670  177.8070  143.5300 C   0  0  0  0  0  0  0  0  0  0  0  0
  188.9330  177.7640  146.3010 C   0  0  0  0  0  3  0  0  0  0  0  0
  185.9410  177.8110  144.2380 C   0  0  1  0  0  3  0  0  0  0  0  0
  183.5190  179.1160  145.0960 C   0  0  0  0  0  3  0  0  0  0  0  0
  189.9700  177.7400  145.4170 N   0  0  0  0  0  0  0  0  0  0  0  0
  185.4840  177.8670  145.6730 C   0  0  0  0  0  0  0  0  0  0  0  0
  184.1280  178.3240  145.9890 C   0  0  0  0  0  3  0  0  0  0  0  0
  191.0030  177.5650  143.1710 C   0  0  2  0  0  3  0  0  0  0  0  0
  192.1680  178.4160  143.6430 C   0  0  0  0  0  1  0  0  0  0  0  0
  188.1120  177.8370  141.7620 S   0  0  0  0  0  0  0  0  0  0  0  0
  184.2210  179.5500  143.8590 C   0  0  0  0  0  3  0  0  0  0  0  0
  187.6410  177.7940  145.7970 C   0  0  0  0  0  0  0  0  0  0  0  0
  186.4400  177.8530  146.5490 N   0  0  0  0  0  0  0  0  0  0  0  0
  190.7500  177.8510  141.7620 N   0  0  0  0  0  2  0  0  0  0  0  0
  185.3840  178.9930  143.4840 C   0  0  0  0  0  3  0  0  0  0  0  0
  189.6550  177.0080  141.3110 C   0  0  2  0  0  3  0  0  0  0  0  0
  189.7890  177.7730  144.0570 C   0  0  0  0  0  0  0  0  0  0  0  0
  189.7140  176.8600  139.8650 N   0  0  0  0  0  2  0  0  0  0  0  0
  189.3490  177.9130  138.9700 C   0  0  0  0  0  0  0  0  0  0  0  0
  189.0060  179.0390  139.4210 O   0  0  0  0  0  0  0  0  0  0  0  0
  190.6540  177.1120  137.1760 F   0  0  0  0  0  0  0  0  0  0  0  0
  189.4410  177.6960  137.4930 C   0  0  0  0  0  0  0  0  0  0  0  0
  189.3390  178.9120  136.8450 F   0  0  0  0  0  0  0  0  0  0  0  0
  188.4190  176.8650  137.0690 F   0  0  0  0  0  0  0  0  0  0  0  0
  1 13  1  0  0  0  0
  2 18  1  0  0  0  0
  2  1  2  0  0  0  0
  4 16  1  6  0  0  0
  4  1  1  0  0  0  0
  4  7  1  0  0  0  0
  5  8  2  0  0  0  0
  6  3  1  0  0  0  0
  7  8  1  0  0  0  0
  7 14  2  0  0  0  0
  9 10  1  1  0  0  0
  9 18  1  0  0  0  0
 11  2  1  0  0  0  0
 12  5  1  0  0  0  0
 13  3  2  0  0  0  0
 13 14  1  0  0  0  0
 15  9  1  0  0  0  0
 16 12  2  0  0  0  0
 17 19  1  6  0  0  0
 17 11  1  0  0  0  0
 17 15  1  0  0  0  0
 18  6  2  0  0  0  0
 20 21  2  0  0  0  0
 20 19  1  0  0  0  0
 22 23  1  0  0  0  0
 23 20  1  0  0  0  0
 24 23  1  0  0  0  0
 25 23  1  0  0  0  0
M  END
>  <MODEL>
4

>  <REMARK>
 VINA RESULT:      -8.4      3.721      5.551
  Name = 
  2 active torsions:
  status: ('A' for Active; 'I' for Inactive)
    1  A    between atoms: N_6  and  C_23
    2  A    between atoms: C_7  and  C_15
                            x       y       z     vdW  Elec       q    Type
                         _______ _______ _______ _____ _____    ______ ____

>  <TORSDO>
F 2

$$$$
=
 OpenBabel11052412423D

 25 28  0  0  1  0  0  0  0  0999 V2000
  187.3280  177.7460  144.0680 C   0  0  0  0  0  0  0  0  0  0  0  0
  188.3180  177.7640  143.0820 C   0  0  0  0  0  0  0  0  0  0  0  0
  188.9470  177.3130  145.7830 C   0  0  0  0  0  3  0  0  0  0  0  0
  185.8480  177.8570  143.9630 C   0  0  1  0  0  3  0  0  0  0  0  0
  183.5990  179.2080  145.1540 C   0  0  0  0  0  3  0  0  0  0  0  0
  189.9220  177.3330  144.8320 N   0  0  0  0  0  0  0  0  0  0  0  0
  185.4860  177.7530  145.4230 C   0  0  0  0  0  0  0  0  0  0  0  0
  184.1940  178.2610  145.8910 C   0  0  0  0  0  3  0  0  0  0  0  0
  190.7980  177.3870  142.5140 C   0  0  2  0  0  3  0  0  0  0  0  0
  192.0560  178.0790  143.0080 C   0  0  0  0  0  1  0  0  0  0  0  0
  187.8590  178.0570  141.3630 S   0  0  0  0  0  0  0  0  0  0  0  0
  184.2570  179.7530  143.9370 C   0  0  0  0  0  3  0  0  0  0  0  0
  187.6340  177.5060  145.3810 C   0  0  0  0  0  0  0  0  0  0  0  0
  186.4890  177.5510  146.2180 N   0  0  0  0  0  0  0  0  0  0  0  0
  190.4840  177.8780  141.1760 N   0  0  0  0  0  2  0  0  0  0  0  0
  185.3460  179.1670  143.4110 C   0  0  0  0  0  3  0  0  0  0  0  0
  189.2980  177.1860  140.6980 C   0  0  2  0  0  3  0  0  0  0  0  0
  189.6620  177.5620  143.5040 C   0  0  0  0  0  0  0  0  0  0  0  0
  189.2560  177.2300  139.2460 N   0  0  0  0  0  2  0  0  0  0  0  0
  190.1230  176.4390  138.4290 C   0  0  0  0  0  0  0  0  0  0  0  0
  190.9300  175.6280  138.9590 O   0  0  0  0  0  0  0  0  0  0  0  0
  189.1750  175.5420  136.4650 F   0  0  0  0  0  0  0  0  0  0  0  0
  190.0230  176.5260  136.9390 C   0  0  0  0  0  0  0  0  0  0  0  0
  191.2760  176.3510  136.3850 F   0  0  0  0  0  0  0  0  0  0  0  0
  189.5270  177.7630  136.5670 F   0  0  0  0  0  0  0  0  0  0  0  0
  1 13  1  0  0  0  0
  2 18  1  0  0  0  0
  2  1  2  0  0  0  0
  4 16  1  1  0  0  0
  4  1  1  0  0  0  0
  4  7  1  0  0  0  0
  5  8  2  0  0  0  0
  6  3  1  0  0  0  0
  7  8  1  0  0  0  0
  7 14  2  0  0  0  0
  9 10  1  1  0  0  0
  9 18  1  0  0  0  0
 11  2  1  0  0  0  0
 12  5  1  0  0  0  0
 13  3  2  0  0  0  0
 13 14  1  0  0  0  0
 15  9  1  0  0  0  0
 16 12  2  0  0  0  0
 17 19  1  6  0  0  0
 17 15  1  0  0  0  0
 17 11  1  0  0  0  0
 18  6  2  0  0  0  0
 20 21  2  0  0  0  0
 20 19  1  0  0  0  0
 22 23  1  0  0  0  0
 23 20  1  0  0  0  0
 24 23  1  0  0  0  0
 25 23  1  0  0  0  0
M  END
>  <MODEL>
5

>  <REMARK>
 VINA RESULT:      -8.4      3.966      5.764
  Name = 
  2 active torsions:
  status: ('A' for Active; 'I' for Inactive)
    1  A    between atoms: N_6  and  C_23
    2  A    between atoms: C_7  and  C_15
                            x       y       z     vdW  Elec       q    Type
                         _______ _______ _______ _____ _____    ______ ____

>  <TORSDO>
F 2

$$$$
=
 OpenBabel11052412423D

 25 28  0  0  1  0  0  0  0  0999 V2000
  188.9540  177.6100  144.6570 C   0  0  0  0  0  0  0  0  0  0  0  0
  188.2990  177.8400  143.4450 C   0  0  0  0  0  0  0  0  0  0  0  0
  186.9160  177.8830  145.8910 C   0  0  0  0  0  3  0  0  0  0  0  0
  190.3950  177.3950  144.9590 C   0  0  1  0  0  3  0  0  0  0  0  0
  192.1520  175.6820  146.4690 C   0  0  0  0  0  3  0  0  0  0  0  0
  186.2640  178.1040  144.7140 N   0  0  0  0  0  0  0  0  0  0  0  0
  190.3150  177.2240  146.4540 C   0  0  0  0  0  0  0  0  0  0  0  0
  191.3950  176.5380  147.1680 C   0  0  0  0  0  3  0  0  0  0  0  0
  186.1080  178.5110  142.2750 C   0  0  2  0  0  3  0  0  0  0  0  0
  184.7410  177.8530  142.2550 C   0  0  0  0  0  1  0  0  0  0  0  0
  189.2340  177.8010  141.9030 S   0  0  0  0  0  0  0  0  0  0  0  0
  191.8650  175.4050  145.0370 C   0  0  0  0  0  3  0  0  0  0  0  0
  188.2830  177.6510  145.8500 C   0  0  0  0  0  0  0  0  0  0  0  0
  189.1280  177.3730  146.9550 N   0  0  0  0  0  0  0  0  0  0  0  0
  186.7870  178.2260  141.0150 N   0  0  0  0  0  2  0  0  0  0  0  0
  190.9980  176.1590  144.3400 C   0  0  0  0  0  3  0  0  0  0  0  0
  188.0830  178.8870  141.0300 C   0  0  2  0  0  3  0  0  0  0  0  0
  186.8970  178.0790  143.4970 C   0  0  0  0  0  0  0  0  0  0  0  0
  188.5490  179.0840  139.6670 N   0  0  0  0  0  2  0  0  0  0  0  0
  188.6950  178.0030  138.7420 C   0  0  0  0  0  0  0  0  0  0  0  0
  188.3700  176.8320  139.0780 O   0  0  0  0  0  0  0  0  0  0  0  0
  188.2200  177.8660  136.4370 F   0  0  0  0  0  0  0  0  0  0  0  0
  189.1730  178.2760  137.3520 C   0  0  0  0  0  0  0  0  0  0  0  0
  190.3460  177.5830  137.1260 F   0  0  0  0  0  0  0  0  0  0  0  0
  189.4020  179.6290  137.1840 F   0  0  0  0  0  0  0  0  0  0  0  0
  1  4  1  0  0  0  0
  1 13  1  0  0  0  0
  2 18  1  0  0  0  0
  2  1  2  0  0  0  0
  4 16  1  6  0  0  0
  4  7  1  0  0  0  0
  5  8  2  0  0  0  0
  6  3  1  0  0  0  0
  7 14  2  0  0  0  0
  7  8  1  0  0  0  0
  9 10  1  6  0  0  0
  9 18  1  0  0  0  0
 11  2  1  0  0  0  0
 12  5  1  0  0  0  0
 13  3  2  0  0  0  0
 13 14  1  0  0  0  0
 15 17  1  0  0  0  0
 15  9  1  0  0  0  0
 16 12  2  0  0  0  0
 17 19  1  6  0  0  0
 17 11  1  0  0  0  0
 18  6  2  0  0  0  0
 20 21  2  0  0  0  0
 20 19  1  0  0  0  0
 22 23  1  0  0  0  0
 23 20  1  0  0  0  0
 24 23  1  0  0  0  0
 25 23  1  0  0  0  0
M  END
>  <MODEL>
6

>  <REMARK>
 VINA RESULT:      -8.4      3.731      6.992
  Name = 
  2 active torsions:
  status: ('A' for Active; 'I' for Inactive)
    1  A    between atoms: N_6  and  C_23
    2  A    between atoms: C_7  and  C_15
                            x       y       z     vdW  Elec       q    Type
                         _______ _______ _______ _____ _____    ______ ____

>  <TORSDO>
F 2

$$$$
=
 OpenBabel11052412423D

 25 28  0  0  1  0  0  0  0  0999 V2000
  187.7630  177.5600  144.0080 C   0  0  0  0  0  0  0  0  0  0  0  0
  188.5440  177.5610  142.8490 C   0  0  0  0  0  0  0  0  0  0  0  0
  189.6840  177.1620  145.3860 C   0  0  0  0  0  3  0  0  0  0  0  0
  186.2900  177.6660  144.1890 C   0  0  1  0  0  3  0  0  0  0  0  0
  184.3040  179.0330  145.7670 C   0  0  0  0  0  3  0  0  0  0  0  0
  190.4580  177.1660  144.2640 N   0  0  0  0  0  0  0  0  0  0  0  0
  186.2160  177.5870  145.6920 C   0  0  0  0  0  0  0  0  0  0  0  0
  185.0360  178.1010  146.3920 C   0  0  0  0  0  3  0  0  0  0  0  0
  190.8700  177.1800  141.8210 C   0  0  2  0  0  3  0  0  0  0  0  0
  192.1950  177.8840  142.0500 C   0  0  0  0  0  1  0  0  0  0  0  0
  187.7600  177.8220  141.2460 S   0  0  0  0  0  0  0  0  0  0  0  0
  184.7120  179.5560  144.4360 C   0  0  0  0  0  3  0  0  0  0  0  0
  188.3170  177.3450  145.2410 C   0  0  0  0  0  0  0  0  0  0  0  0
  187.3550  177.4020  146.2820 N   0  0  0  0  0  0  0  0  0  0  0  0
  190.3010  177.6450  140.5600 N   0  0  0  0  0  2  0  0  0  0  0  0
  185.6830  178.9640  143.7200 C   0  0  0  0  0  3  0  0  0  0  0  0
  189.0490  176.9420  140.3320 C   0  0  2  0  0  3  0  0  0  0  0  0
  189.9450  177.3700  143.0080 C   0  0  0  0  0  0  0  0  0  0  0  0
  188.7280  176.9580  138.9140 N   0  0  0  0  0  2  0  0  0  0  0  0
  188.6660  178.1690  138.1550 C   0  0  0  0  0  0  0  0  0  0  0  0
  188.9440  179.2730  138.6970 O   0  0  0  0  0  0  0  0  0  0  0  0
  187.4410  179.1180  136.3780 F   0  0  0  0  0  0  0  0  0  0  0  0
  188.3370  178.1140  136.6970 C   0  0  0  0  0  0  0  0  0  0  0  0
  187.7730  176.8890  136.4010 F   0  0  0  0  0  0  0  0  0  0  0  0
  189.4850  178.2820  135.9430 F   0  0  0  0  0  0  0  0  0  0  0  0
  1  4  1  0  0  0  0
  1 13  1  0  0  0  0
  2 18  1  0  0  0  0
  2  1  2  0  0  0  0
  4 16  1  1  0  0  0
  4  7  1  0  0  0  0
  5  8  2  0  0  0  0
  6  3  1  0  0  0  0
  7 14  2  0  0  0  0
  7  8  1  0  0  0  0
  9 10  1  1  0  0  0
  9 18  1  0  0  0  0
 11  2  1  0  0  0  0
 12  5  1  0  0  0  0
 13  3  2  0  0  0  0
 13 14  1  0  0  0  0
 15  9  1  0  0  0  0
 16 12  2  0  0  0  0
 17 19  1  6  0  0  0
 17 15  1  0  0  0  0
 17 11  1  0  0  0  0
 18  6  2  0  0  0  0
 20 21  2  0  0  0  0
 20 19  1  0  0  0  0
 22 23  1  0  0  0  0
 23 20  1  0  0  0  0
 24 23  1  0  0  0  0
 25 23  1  0  0  0  0
M  END
>  <MODEL>
7

>  <REMARK>
 VINA RESULT:      -8.2      4.339      6.327
  Name = 
  2 active torsions:
  status: ('A' for Active; 'I' for Inactive)
    1  A    between atoms: N_6  and  C_23
    2  A    between atoms: C_7  and  C_15
                            x       y       z     vdW  Elec       q    Type
                         _______ _______ _______ _____ _____    ______ ____

>  <TORSDO>
F 2

$$$$
=
 OpenBabel11052412423D

 25 28  0  0  1  0  0  0  0  0999 V2000
  186.1600  178.4960  144.9030 C   0  0  0  0  0  0  0  0  0  0  0  0
  186.1100  178.3200  143.5170 C   0  0  0  0  0  0  0  0  0  0  0  0
  183.8030  178.9220  145.0050 C   0  0  0  0  0  3  0  0  0  0  0  0
  187.3150  178.5020  145.8410 C   0  0  1  0  0  3  0  0  0  0  0  0
  188.1600  177.4410  148.3830 C   0  0  0  0  0  3  0  0  0  0  0  0
  183.7390  178.7470  143.6540 N   0  0  0  0  0  0  0  0  0  0  0  0
  186.5840  178.7490  147.1350 C   0  0  0  0  0  0  0  0  0  0  0  0
  187.2130  178.3890  148.4080 C   0  0  0  0  0  3  0  0  0  0  0  0
  184.6800  178.4410  141.3830 C   0  0  2  0  0  3  0  0  0  0  0  0
  183.4300  177.6860  140.9690 C   0  0  0  0  0  1  0  0  0  0  0  0
  187.6210  177.9350  142.6110 S   0  0  0  0  0  0  0  0  0  0  0  0
  188.5140  176.7510  147.1140 C   0  0  0  0  0  3  0  0  0  0  0  0
  185.0390  178.8100  145.6230 C   0  0  0  0  0  0  0  0  0  0  0  0
  185.3050  178.9260  147.0120 N   0  0  0  0  0  0  0  0  0  0  0  0
  185.8270  177.8770  140.6780 N   0  0  0  0  0  2  0  0  0  0  0  0
  188.0720  177.2010  145.9280 C   0  0  0  0  0  3  0  0  0  0  0  0
  187.0140  178.6280  141.0550 C   0  0  2  0  0  3  0  0  0  0  0  0
  184.8370  178.4390  142.8910 C   0  0  0  0  0  0  0  0  0  0  0  0
  188.0360  178.4760  140.0320 N   0  0  0  0  0  2  0  0  0  0  0  0
  187.7270  178.4590  138.6360 C   0  0  0  0  0  0  0  0  0  0  0  0
  186.5400  178.6280  138.2450 O   0  0  0  0  0  0  0  0  0  0  0  0
  189.8990  177.6450  138.2080 F   0  0  0  0  0  0  0  0  0  0  0  0
  188.8280  178.3070  137.6350 C   0  0  0  0  0  0  0  0  0  0  0  0
  189.2390  179.5570  137.2130 F   0  0  0  0  0  0  0  0  0  0  0  0
  188.3840  177.5810  136.5440 F   0  0  0  0  0  0  0  0  0  0  0  0
  1 13  1  0  0  0  0
  1  4  1  0  0  0  0
  2  1  2  0  0  0  0
  3 13  2  0  0  0  0
  4 16  1  1  0  0  0
  4  7  1  0  0  0  0
  5  8  2  0  0  0  0
  6  3  1  0  0  0  0
  7  8  1  0  0  0  0
  9 10  1  1  0  0  0
  9 18  1  0  0  0  0
 11  2  1  0  0  0  0
 12  5  1  0  0  0  0
 13 14  1  0  0  0  0
 14  7  2  0  0  0  0
 15 17  1  0  0  0  0
 15  9  1  0  0  0  0
 16 12  2  0  0  0  0
 17 19  1  6  0  0  0
 17 11  1  0  0  0  0
 18  2  1  0  0  0  0
 18  6  2  0  0  0  0
 20 19  1  0  0  0  0
 21 20  2  0  0  0  0
 23 22  1  0  0  0  0
 23 20  1  0  0  0  0
 24 23  1  0  0  0  0
 25 23  1  0  0  0  0
M  END
>  <MODEL>
8

>  <REMARK>
 VINA RESULT:      -8.2      3.549      6.128
  Name = 
  2 active torsions:
  status: ('A' for Active; 'I' for Inactive)
    1  A    between atoms: N_6  and  C_23
    2  A    between atoms: C_7  and  C_15
                            x       y       z     vdW  Elec       q    Type
                         _______ _______ _______ _____ _____    ______ ____

>  <TORSDO>
F 2

$$$$
=
 OpenBabel11052412423D

 25 28  0  0  1  0  0  0  0  0999 V2000
  187.2540  177.6470  144.9430 C   0  0  0  0  0  0  0  0  0  0  0  0
  186.1750  178.1200  144.1900 C   0  0  0  0  0  0  0  0  0  0  0  0
  188.5330  177.2090  142.9630 C   0  0  0  0  0  3  0  0  0  0  0  0
  187.3990  177.4380  146.4090 C   0  0  1  0  0  3  0  0  0  0  0  0
  189.2250  177.9220  148.5850 C   0  0  0  0  0  3  0  0  0  0  0  0
  187.4900  177.6720  142.2180 N   0  0  0  0  0  0  0  0  0  0  0  0
  188.8130  176.9160  146.4470 C   0  0  0  0  0  0  0  0  0  0  0  0
  189.5840  176.9920  147.6900 C   0  0  0  0  0  3  0  0  0  0  0  0
  185.1720  178.4640  141.8470 C   0  0  2  0  0  3  0  0  0  0  0  0
  185.6450  179.2910  140.6660 C   0  0  0  0  0  1  0  0  0  0  0  0
  184.6850  178.6930  145.0290 S   0  0  0  0  0  0  0  0  0  0  0  0
  188.1170  178.8710  148.2940 C   0  0  0  0  0  3  0  0  0  0  0  0
  188.3940  177.1850  144.3420 C   0  0  0  0  0  0  0  0  0  0  0  0
  189.3700  176.7700  145.2850 N   0  0  0  0  0  0  0  0  0  0  0  0
  184.0760  179.1670  142.5070 N   0  0  0  0  0  2  0  0  0  0  0  0
  187.3000  178.6900  147.2430 C   0  0  0  0  0  3  0  0  0  0  0  0
  183.6080  178.3530  143.6160 C   0  0  2  0  0  3  0  0  0  0  0  0
  186.3270  178.1390  142.7750 C   0  0  0  0  0  0  0  0  0  0  0  0
  182.2430  178.7230  143.9540 N   0  0  0  0  0  2  0  0  0  0  0  0
  181.2300  178.9070  142.9620 C   0  0  0  0  0  0  0  0  0  0  0  0
  181.4870  178.7000  141.7450 O   0  0  0  0  0  0  0  0  0  0  0  0
  179.6490  178.9640  144.7110 F   0  0  0  0  0  0  0  0  0  0  0  0
  179.8430  179.2800  143.3790 C   0  0  0  0  0  0  0  0  0  0  0  0
  178.9310  178.5850  142.6090 F   0  0  0  0  0  0  0  0  0  0  0  0
  179.6430  180.6390  143.2070 F   0  0  0  0  0  0  0  0  0  0  0  0
  1  4  1  0  0  0  0
  2  1  2  0  0  0  0
  2 11  1  0  0  0  0
  3 13  2  0  0  0  0
  4  7  1  0  0  0  0
  4 16  1  1  0  0  0
  6 18  2  0  0  0  0
  6  3  1  0  0  0  0
  7  8  1  0  0  0  0
  8  5  2  0  0  0  0
  9 10  1  6  0  0  0
  9 15  1  0  0  0  0
  9 18  1  0  0  0  0
 12  5  1  0  0  0  0
 13  1  1  0  0  0  0
 13 14  1  0  0  0  0
 14  7  2  0  0  0  0
 15 17  1  0  0  0  0
 16 12  2  0  0  0  0
 17 19  1  1  0  0  0
 17 11  1  0  0  0  0
 18  2  1  0  0  0  0
 20 23  1  0  0  0  0
 20 19  1  0  0  0  0
 21 20  2  0  0  0  0
 23 22  1  0  0  0  0
 24 23  1  0  0  0  0
 25 23  1  0  0  0  0
M  END
>  <MODEL>
9

>  <REMARK>
 VINA RESULT:      -8.1      5.051      8.117
  Name = 
  2 active torsions:
  status: ('A' for Active; 'I' for Inactive)
    1  A    between atoms: N_6  and  C_23
    2  A    between atoms: C_7  and  C_15
                            x       y       z     vdW  Elec       q    Type
                         _______ _______ _______ _____ _____    ______ ____

>  <TORSDO>
F 2

$$$$
