=
 OpenBabel11052416243D

 43 48  0  0  1  0  0  0  0  0999 V2000
  189.4450  177.5630  138.8720 C   0  0  2  0  0  3  0  0  0  0  0  0
  183.0550  178.7460  139.2000 C   0  0  0  0  0  0  0  0  0  0  0  0
  187.9680  177.7830  138.6900 C   0  0  0  0  0  0  0  0  0  0  0  0
  185.2220  178.0790  138.3560 C   0  0  0  0  0  0  0  0  0  0  0  0
  183.6430  179.1410  140.4050 C   0  0  0  0  0  3  0  0  0  0  0  0
  181.6510  178.8920  139.0130 N   0  0  0  0  0  1  0  0  0  0  0  0
  185.8210  178.4700  139.5730 C   0  0  0  0  0  0  0  0  0  0  0  0
  183.8430  178.2170  138.1760 C   0  0  0  0  0  3  0  0  0  0  0  0
  185.0220  179.0050  140.5920 C   0  0  0  0  0  3  0  0  0  0  0  0
  187.8120  178.6720  140.9440 O   0  0  0  0  0  1  0  0  0  0  0  0
  187.2030  178.3140  139.7430 C   0  0  0  0  0  0  0  0  0  0  0  0
  187.3570  177.4130  137.5310 N   0  0  0  0  0  0  0  0  0  0  0  0
  186.0190  177.5530  137.3420 C   0  0  0  0  0  3  0  0  0  0  0  0
  190.2650  177.4830  137.5740 C   0  0  0  0  0  2  0  0  0  0  0  0
  191.8530  174.0570  137.1670 C   0  0  0  0  0  3  0  0  0  0  0  0
  193.1880  174.3250  137.5170 C   0  0  0  0  0  0  0  0  0  0  0  0
  192.6050  176.6520  137.8840 C   0  0  0  0  0  3  0  0  0  0  0  0
  190.9030  175.0820  137.1790 C   0  0  0  0  0  3  0  0  0  0  0  0
  191.2760  176.3800  137.5440 C   0  0  0  0  0  0  0  0  0  0  0  0
  193.5570  175.6270  137.8710 C   0  0  0  0  0  3  0  0  0  0  0  0
  194.1610  173.3230  137.5180 O   0  0  0  0  0  0  0  0  0  0  0  0
  195.1830  173.2420  138.5070 C   0  0  0  0  0  1  0  0  0  0  0  0
  189.7990  176.5400  139.9580 C   0  0  0  0  0  2  0  0  0  0  0  0
  190.6830  177.1320  141.0460 C   0  0  0  0  0  2  0  0  0  0  0  0
  189.3370  176.2120  142.5980 O   0  0  0  0  0  1  0  0  0  0  0  0
  190.6380  176.2840  142.2270 N   0  0  0  0  0  0  0  0  0  0  0  0
  190.3790  177.7370  144.1830 C   0  0  2  0  0  3  0  0  0  0  0  0
  191.9130  178.2910  142.7860 C   0  0  0  0  0  2  0  0  0  0  0  0
  191.3580  176.9710  143.2970 C   0  0  2  0  0  3  0  0  0  0  0  0
  190.9340  179.0490  143.6600 C   0  0  0  0  0  2  0  0  0  0  0  0
  190.7220  177.5740  145.6690 C   0  0  2  0  0  3  0  0  0  0  0  0
  189.9240  176.4950  147.7000 C   0  0  0  0  0  2  0  0  0  0  0  0
  191.5630  176.3440  145.9280 C   0  0  0  0  0  2  0  0  0  0  0  0
  189.4960  177.4220  146.5680 C   0  0  1  0  0  0  0  0  0  0  0  0
  189.1400  178.6710  147.0800 O   0  0  0  0  0  1  0  0  0  0  0  0
  191.3370  176.0320  147.3900 C   0  0  0  0  0  2  0  0  0  0  0  0
  188.3990  176.8510  145.8440 O   0  0  0  0  0  0  0  0  0  0  0  0
  187.1580  177.4690  145.6400 C   0  0  0  0  0  0  0  0  0  0  0  0
  185.1260  178.5210  146.4650 C   0  0  0  0  0  3  0  0  0  0  0  0
  185.4770  178.2700  144.0830 C   0  0  0  0  0  3  0  0  0  0  0  0
  184.6850  178.7020  145.1510 C   0  0  0  0  0  3  0  0  0  0  0  0
  186.7100  177.6570  144.3280 C   0  0  0  0  0  3  0  0  0  0  0  0
  186.3580  177.9080  146.7100 C   0  0  0  0  0  3  0  0  0  0  0  0
  1 14  1  6  0  0  0
  1 23  1  0  0  0  0
  2  5  1  0  0  0  0
  3  1  1  0  0  0  0
  3 11  1  0  0  0  0
  4  7  1  0  0  0  0
  5  9  2  0  0  0  0
  6  2  1  0  0  0  0
  7 11  2  0  0  0  0
  7  9  1  0  0  0  0
  8  4  1  0  0  0  0
  8  2  2  0  0  0  0
 11 10  1  0  0  0  0
 12  3  2  0  0  0  0
 13 12  1  0  0  0  0
 13  4  2  0  0  0  0
 15 18  2  0  0  0  0
 15 16  1  0  0  0  0
 16 21  1  0  0  0  0
 16 20  2  0  0  0  0
 18 19  1  0  0  0  0
 19 14  1  0  0  0  0
 19 17  2  0  0  0  0
 20 17  1  0  0  0  0
 21 22  1  0  0  0  0
 23 24  1  0  0  0  0
 24 26  1  0  0  0  0
 26 25  1  0  0  0  0
 27 30  1  6  0  0  0
 27 31  1  0  0  0  0
 28 29  1  0  0  0  0
 28 30  1  0  0  0  0
 29 26  1  6  0  0  0
 29 27  1  0  0  0  0
 31 33  1  6  0  0  0
 31 34  1  0  0  0  0
 33 36  1  0  0  0  0
 34 35  1  1  0  0  0
 34 32  1  0  0  0  0
 36 32  1  0  0  0  0
 37 34  1  0  0  0  0
 38 37  1  0  0  0  0
 38 43  1  0  0  0  0
 39 43  2  0  0  0  0
 40 42  1  0  0  0  0
 40 41  2  0  0  0  0
 41 39  1  0  0  0  0
 42 38  2  0  0  0  0
M  END
>  <MODEL>
1

>  <REMARK>
 VINA RESULT:      -9.2      0.000      0.000
  Name = 
  11 active torsions:
  status: ('A' for Active; 'I' for Inactive)
    1  A    between atoms: C_1  and  C_34
    2  A    between atoms: C_1  and  C_35
    3  A    between atoms: C_3  and  C_4
    4  A    between atoms: N_6  and  C_12
    5  A    between atoms: N_6  and  C_13
    6  A    between atoms: C_8  and  C_34
    7  A    between atoms: C_11  and  O_14
    8  A    between atoms: C_13  and  C_38
    9  A    between atoms: O_14  and  C_22
   10  A    between atoms: C_19  and  O_25
   11  A    between atoms: C_34  and  C_38
                            x       y       z     vdW  Elec       q    Type
                         _______ _______ _______ _____ _____    ______ ____

>  <TORSDO>
F 11

$$$$
=
 OpenBabel11052416243D

 43 48  0  0  1  0  0  0  0  0999 V2000
  188.2980  177.3350  143.1580 C   0  0  2  0  0  3  0  0  0  0  0  0
  182.0970  179.3070  143.1740 C   0  0  0  0  0  0  0  0  0  0  0  0
  186.9180  177.8830  142.9210 C   0  0  0  0  0  0  0  0  0  0  0  0
  184.3410  178.8060  142.4210 C   0  0  0  0  0  0  0  0  0  0  0  0
  182.4340  178.8900  144.4650 C   0  0  0  0  0  3  0  0  0  0  0  0
  180.7830  179.7830  142.9020 N   0  0  0  0  0  1  0  0  0  0  0  0
  184.6860  178.3760  143.7200 C   0  0  0  0  0  0  0  0  0  0  0  0
  183.0490  179.2680  142.1530 C   0  0  0  0  0  3  0  0  0  0  0  0
  183.7250  178.4260  144.7390 C   0  0  0  0  0  3  0  0  0  0  0  0
  186.3380  177.4560  145.2400 O   0  0  0  0  0  1  0  0  0  0  0  0
  185.9820  177.9060  143.9690 C   0  0  0  0  0  0  0  0  0  0  0  0
  186.5490  178.3010  141.6790 N   0  0  0  0  0  0  0  0  0  0  0  0
  185.3000  178.7620  141.4100 C   0  0  0  0  0  3  0  0  0  0  0  0
  189.2360  178.2400  143.9730 C   0  0  0  0  0  2  0  0  0  0  0  0
  191.9250  176.1880  145.7000 C   0  0  0  0  0  3  0  0  0  0  0  0
  191.4650  176.1870  147.0290 C   0  0  0  0  0  0  0  0  0  0  0  0
  189.5660  177.5380  146.3530 C   0  0  0  0  0  3  0  0  0  0  0  0
  191.2060  176.8590  144.7070 C   0  0  0  0  0  3  0  0  0  0  0  0
  190.0220  177.5300  145.0310 C   0  0  0  0  0  0  0  0  0  0  0  0
  190.2860  176.8690  147.3470 C   0  0  0  0  0  3  0  0  0  0  0  0
  192.1580  175.5240  148.0450 O   0  0  0  0  0  0  0  0  0  0  0  0
  193.1290  176.1670  148.8630 C   0  0  0  0  0  1  0  0  0  0  0  0
  188.9180  176.6440  141.9380 C   0  0  0  0  0  2  0  0  0  0  0  0
  189.7520  177.5970  141.0940 C   0  0  0  0  0  2  0  0  0  0  0  0
  191.9950  177.4610  141.2270 O   0  0  0  0  0  1  0  0  0  0  0  0
  190.9320  176.9050  140.5980 N   0  0  0  0  0  0  0  0  0  0  0  0
  190.0820  176.3620  138.3650 C   0  0  2  0  0  3  0  0  0  0  0  0
  192.2170  176.4200  138.5780 C   0  0  0  0  0  2  0  0  0  0  0  0
  191.0610  177.2070  139.1750 C   0  0  2  0  0  3  0  0  0  0  0  0
  191.2420  175.5760  137.7830 C   0  0  0  0  0  2  0  0  0  0  0  0
  189.4010  177.1890  137.2670 C   0  0  2  0  0  3  0  0  0  0  0  0
  187.2280  177.5670  136.2380 C   0  0  0  0  0  2  0  0  0  0  0  0
  188.8290  178.4830  137.8010 C   0  0  0  0  0  2  0  0  0  0  0  0
  188.2290  176.4740  136.5980 C   0  0  1  0  0  0  0  0  0  0  0  0
  188.6760  175.8340  135.4420 O   0  0  0  0  0  1  0  0  0  0  0  0
  187.7680  178.8710  136.7960 C   0  0  0  0  0  2  0  0  0  0  0  0
  187.6310  175.5260  137.4920 O   0  0  0  0  0  0  0  0  0  0  0  0
  186.7640  174.4940  137.1100 C   0  0  0  0  0  0  0  0  0  0  0  0
  184.5410  173.6250  136.6400 C   0  0  0  0  0  3  0  0  0  0  0  0
  186.4740  172.1860  136.4150 C   0  0  0  0  0  3  0  0  0  0  0  0
  185.0920  172.3780  136.3350 C   0  0  0  0  0  3  0  0  0  0  0  0
  187.3070  173.2420  136.8000 C   0  0  0  0  0  3  0  0  0  0  0  0
  185.3730  174.6800  137.0260 C   0  0  0  0  0  3  0  0  0  0  0  0
  1 23  1  6  0  0  0
  1 14  1  0  0  0  0
  2  5  1  0  0  0  0
  3  1  1  0  0  0  0
  3 11  1  0  0  0  0
  4  7  1  0  0  0  0
  5  9  2  0  0  0  0
  6  2  1  0  0  0  0
  7 11  2  0  0  0  0
  7  9  1  0  0  0  0
  8  4  1  0  0  0  0
  8  2  2  0  0  0  0
 11 10  1  0  0  0  0
 12  3  2  0  0  0  0
 13 12  1  0  0  0  0
 13  4  2  0  0  0  0
 14 19  1  0  0  0  0
 15 16  1  0  0  0  0
 16 20  2  0  0  0  0
 16 21  1  0  0  0  0
 17 20  1  0  0  0  0
 18 19  1  0  0  0  0
 18 15  2  0  0  0  0
 19 17  2  0  0  0  0
 21 22  1  0  0  0  0
 24 23  1  0  0  0  0
 26 24  1  0  0  0  0
 26 25  1  0  0  0  0
 27 30  1  6  0  0  0
 27 29  1  0  0  0  0
 28 29  1  0  0  0  0
 29 26  1  1  0  0  0
 30 28  1  0  0  0  0
 31 33  1  1  0  0  0
 31 27  1  0  0  0  0
 32 34  1  0  0  0  0
 32 36  1  0  0  0  0
 34 35  1  6  0  0  0
 34 31  1  0  0  0  0
 34 37  1  0  0  0  0
 36 33  1  0  0  0  0
 38 37  1  0  0  0  0
 39 43  2  0  0  0  0
 40 42  1  0  0  0  0
 41 40  2  0  0  0  0
 41 39  1  0  0  0  0
 42 38  2  0  0  0  0
 43 38  1  0  0  0  0
M  END
>  <MODEL>
2

>  <REMARK>
 VINA RESULT:      -9.1      2.709      7.597
  Name = 
  11 active torsions:
  status: ('A' for Active; 'I' for Inactive)
    1  A    between atoms: C_1  and  C_34
    2  A    between atoms: C_1  and  C_35
    3  A    between atoms: C_3  and  C_4
    4  A    between atoms: N_6  and  C_12
    5  A    between atoms: N_6  and  C_13
    6  A    between atoms: C_8  and  C_34
    7  A    between atoms: C_11  and  O_14
    8  A    between atoms: C_13  and  C_38
    9  A    between atoms: O_14  and  C_22
   10  A    between atoms: C_19  and  O_25
   11  A    between atoms: C_34  and  C_38
                            x       y       z     vdW  Elec       q    Type
                         _______ _______ _______ _____ _____    ______ ____

>  <TORSDO>
F 11

$$$$
=
 OpenBabel11052416243D

 43 48  0  0  1  0  0  0  0  0999 V2000
  188.6950  177.8810  141.4970 C   0  0  2  0  0  3  0  0  0  0  0  0
  192.4050  175.9830  136.4980 C   0  0  0  0  0  0  0  0  0  0  0  0
  189.3250  177.3790  140.2260 C   0  0  0  0  0  0  0  0  0  0  0  0
  190.4640  176.5480  137.8280 C   0  0  0  0  0  0  0  0  0  0  0  0
  193.2330  176.2410  137.5950 C   0  0  0  0  0  3  0  0  0  0  0  0
  192.9720  175.5560  135.2640 N   0  0  0  0  0  1  0  0  0  0  0  0
  191.2950  176.8170  138.9360 C   0  0  0  0  0  0  0  0  0  0  0  0
  191.0210  176.1340  136.6150 C   0  0  0  0  0  3  0  0  0  0  0  0
  192.6810  176.6560  138.8110 C   0  0  0  0  0  3  0  0  0  0  0  0
  191.5250  177.5340  141.2420 O   0  0  0  0  0  1  0  0  0  0  0  0
  190.7210  177.2420  140.1410 C   0  0  0  0  0  0  0  0  0  0  0  0
  188.5530  177.1150  139.1360 N   0  0  0  0  0  0  0  0  0  0  0  0
  189.0840  176.7020  137.9560 C   0  0  0  0  0  3  0  0  0  0  0  0
  188.1900  176.7930  142.4580 C   0  0  0  0  0  2  0  0  0  0  0  0
  187.6790  177.5200  146.1500 C   0  0  0  0  0  3  0  0  0  0  0  0
  189.0070  177.5910  146.6070 C   0  0  0  0  0  0  0  0  0  0  0  0
  189.7860  177.1250  144.3570 C   0  0  0  0  0  3  0  0  0  0  0  0
  187.4110  177.2550  144.8050 C   0  0  0  0  0  3  0  0  0  0  0  0
  188.4640  177.0630  143.9040 C   0  0  0  0  0  0  0  0  0  0  0  0
  190.0550  177.3890  145.7030 C   0  0  0  0  0  3  0  0  0  0  0  0
  189.3100  177.8580  147.9440 O   0  0  0  0  0  0  0  0  0  0  0  0
  188.3150  178.1790  148.9100 C   0  0  0  0  0  1  0  0  0  0  0  0
  187.7770  179.0940  141.3060 C   0  0  0  0  0  2  0  0  0  0  0  0
  186.3580  178.8280  141.7880 C   0  0  0  0  0  2  0  0  0  0  0  0
  185.0620  179.7730  140.2100 O   0  0  0  0  0  1  0  0  0  0  0  0
  185.4950  178.5670  140.6470 N   0  0  0  0  0  0  0  0  0  0  0  0
  183.0480  178.5890  140.7750 C   0  0  2  0  0  3  0  0  0  0  0  0
  184.0890  178.1450  142.6000 C   0  0  0  0  0  2  0  0  0  0  0  0
  184.3270  177.8340  141.1300 C   0  0  2  0  0  3  0  0  0  0  0  0
  182.8250  178.9010  142.2430 C   0  0  0  0  0  2  0  0  0  0  0  0
  181.9580  177.6370  140.2660 C   0  0  2  0  0  3  0  0  0  0  0  0
  180.7930  176.9910  138.2280 C   0  0  0  0  0  2  0  0  0  0  0  0
  182.5300  176.3270  139.7750 C   0  0  0  0  0  2  0  0  0  0  0  0
  181.1570  178.1950  139.0910 C   0  0  1  0  0  0  0  0  0  0  0  0
  179.9990  178.8080  139.5700 O   0  0  0  0  0  1  0  0  0  0  0  0
  181.4750  175.7800  138.8400 C   0  0  0  0  0  2  0  0  0  0  0  0
  181.9390  179.1300  138.3370 O   0  0  0  0  0  0  0  0  0  0  0  0
  181.4390  180.2780  137.7090 C   0  0  0  0  0  0  0  0  0  0  0  0
  180.3200  181.3940  135.8590 C   0  0  0  0  0  3  0  0  0  0  0  0
  181.0830  182.6790  137.7640 C   0  0  0  0  0  3  0  0  0  0  0  0
  180.4580  182.6200  136.5140 C   0  0  0  0  0  3  0  0  0  0  0  0
  181.5700  181.5100  138.3590 C   0  0  0  0  0  3  0  0  0  0  0  0
  180.8080  180.2260  136.4540 C   0  0  0  0  0  3  0  0  0  0  0  0
  1 23  1  6  0  0  0
  1 14  1  0  0  0  0
  2  8  2  0  0  0  0
  2  5  1  0  0  0  0
  3  1  1  0  0  0  0
  4 13  2  0  0  0  0
  4  7  1  0  0  0  0
  5  9  2  0  0  0  0
  6  2  1  0  0  0  0
  7 11  2  0  0  0  0
  8  4  1  0  0  0  0
  9  7  1  0  0  0  0
 11  3  1  0  0  0  0
 11 10  1  0  0  0  0
 12  3  2  0  0  0  0
 13 12  1  0  0  0  0
 14 19  1  0  0  0  0
 15 16  1  0  0  0  0
 16 21  1  0  0  0  0
 17 20  1  0  0  0  0
 18 15  2  0  0  0  0
 19 17  2  0  0  0  0
 19 18  1  0  0  0  0
 20 16  2  0  0  0  0
 21 22  1  0  0  0  0
 23 24  1  0  0  0  0
 25 26  1  0  0  0  0
 26 24  1  0  0  0  0
 27 29  1  0  0  0  0
 27 30  1  1  0  0  0
 29 26  1  6  0  0  0
 29 28  1  0  0  0  0
 30 28  1  0  0  0  0
 31 33  1  6  0  0  0
 31 27  1  0  0  0  0
 32 36  1  0  0  0  0
 32 34  1  0  0  0  0
 34 35  1  1  0  0  0
 34 31  1  0  0  0  0
 36 33  1  0  0  0  0
 37 34  1  0  0  0  0
 38 37  1  0  0  0  0
 38 42  1  0  0  0  0
 39 43  1  0  0  0  0
 39 41  2  0  0  0  0
 40 42  2  0  0  0  0
 41 40  1  0  0  0  0
 43 38  2  0  0  0  0
M  END
>  <MODEL>
3

>  <REMARK>
 VINA RESULT:      -9.1      2.968      8.875
  Name = 
  11 active torsions:
  status: ('A' for Active; 'I' for Inactive)
    1  A    between atoms: C_1  and  C_34
    2  A    between atoms: C_1  and  C_35
    3  A    between atoms: C_3  and  C_4
    4  A    between atoms: N_6  and  C_12
    5  A    between atoms: N_6  and  C_13
    6  A    between atoms: C_8  and  C_34
    7  A    between atoms: C_11  and  O_14
    8  A    between atoms: C_13  and  C_38
    9  A    between atoms: O_14  and  C_22
   10  A    between atoms: C_19  and  O_25
   11  A    between atoms: C_34  and  C_38
                            x       y       z     vdW  Elec       q    Type
                         _______ _______ _______ _____ _____    ______ ____

>  <TORSDO>
F 11

$$$$
=
 OpenBabel11052416243D

 43 48  0  0  1  0  0  0  0  0999 V2000
  189.6490  177.3160  138.6560 C   0  0  2  0  0  3  0  0  0  0  0  0
  193.9020  172.9800  136.3190 C   0  0  0  0  0  0  0  0  0  0  0  0
  190.8130  176.4970  138.1720 C   0  0  0  0  0  0  0  0  0  0  0  0
  192.9900  174.9530  137.3830 C   0  0  0  0  0  0  0  0  0  0  0  0
  192.6080  172.5400  136.0230 C   0  0  0  0  0  3  0  0  0  0  0  0
  195.0260  172.2030  135.9220 N   0  0  0  0  0  1  0  0  0  0  0  0
  191.6810  174.5110  137.0930 C   0  0  0  0  0  0  0  0  0  0  0  0
  194.0930  174.1870  136.9970 C   0  0  0  0  0  3  0  0  0  0  0  0
  191.5010  173.3020  136.4070 C   0  0  0  0  0  3  0  0  0  0  0  0
  189.2850  174.8560  137.2400 O   0  0  0  0  0  1  0  0  0  0  0  0
  190.5860  175.2850  137.4960 C   0  0  0  0  0  0  0  0  0  0  0  0
  192.0890  176.8910  138.4390 N   0  0  0  0  0  0  0  0  0  0  0  0
  193.1680  176.1590  138.0590 C   0  0  0  0  0  3  0  0  0  0  0  0
  189.0650  178.3020  137.6320 C   0  0  0  0  0  2  0  0  0  0  0  0
  185.3510  177.5300  137.4330 C   0  0  0  0  0  3  0  0  0  0  0  0
  185.2110  177.1810  136.0780 C   0  0  0  0  0  0  0  0  0  0  0  0
  187.5820  177.5820  135.7490 C   0  0  0  0  0  3  0  0  0  0  0  0
  186.6000  177.9000  137.9390 C   0  0  0  0  0  3  0  0  0  0  0  0
  187.7190  177.9210  137.0980 C   0  0  0  0  0  0  0  0  0  0  0  0
  186.3320  177.2130  135.2410 C   0  0  0  0  0  3  0  0  0  0  0  0
  183.9780  176.8030  135.5420 O   0  0  0  0  0  0  0  0  0  0  0  0
  182.7640  177.4800  135.8480 C   0  0  0  0  0  1  0  0  0  0  0  0
  189.8030  177.8420  140.0880 C   0  0  0  0  0  2  0  0  0  0  0  0
  190.1100  176.7330  141.0840 C   0  0  0  0  0  2  0  0  0  0  0  0
  188.8990  178.2490  142.2250 O   0  0  0  0  0  1  0  0  0  0  0  0
  189.4630  177.0240  142.3530 N   0  0  0  0  0  0  0  0  0  0  0  0
  190.1890  178.2730  144.3330 C   0  0  2  0  0  3  0  0  0  0  0  0
  191.6820  177.9280  142.8290 C   0  0  0  0  0  2  0  0  0  0  0  0
  190.5050  177.1310  143.3710 C   0  0  2  0  0  3  0  0  0  0  0  0
  191.3590  179.0640  143.7790 C   0  0  0  0  0  2  0  0  0  0  0  0
  190.4630  177.8730  145.7880 C   0  0  2  0  0  3  0  0  0  0  0  0
  189.6040  176.4500  147.5670 C   0  0  0  0  0  2  0  0  0  0  0  0
  191.3320  176.6400  145.8860 C   0  0  0  0  0  2  0  0  0  0  0  0
  189.2000  177.5420  146.5810 C   0  0  1  0  0  0  0  0  0  0  0  0
  188.7760  178.6770  147.2720 O   0  0  0  0  0  1  0  0  0  0  0  0
  191.0450  176.0830  147.2620 C   0  0  0  0  0  2  0  0  0  0  0  0
  188.1610  177.0700  145.7140 O   0  0  0  0  0  0  0  0  0  0  0  0
  186.8850  177.6380  145.6020 C   0  0  0  0  0  0  0  0  0  0  0  0
  184.8350  178.5140  146.5740 C   0  0  0  0  0  3  0  0  0  0  0  0
  185.1130  178.4760  144.1700 C   0  0  0  0  0  3  0  0  0  0  0  0
  184.3400  178.7790  145.2950 C   0  0  0  0  0  3  0  0  0  0  0  0
  186.3820  177.9090  144.3240 C   0  0  0  0  0  3  0  0  0  0  0  0
  186.1030  177.9460  146.7280 C   0  0  0  0  0  3  0  0  0  0  0  0
  1 14  1  6  0  0  0
  1 23  1  0  0  0  0
  2  8  1  0  0  0  0
  3 12  1  0  0  0  0
  3  1  1  0  0  0  0
  4 13  1  0  0  0  0
  5  2  2  0  0  0  0
  5  9  1  0  0  0  0
  6  2  1  0  0  0  0
  7  4  1  0  0  0  0
  7 11  1  0  0  0  0
  8  4  2  0  0  0  0
  9  7  2  0  0  0  0
 10 11  1  0  0  0  0
 11  3  2  0  0  0  0
 13 12  2  0  0  0  0
 15 18  1  0  0  0  0
 16 15  2  0  0  0  0
 17 19  1  0  0  0  0
 19 14  1  0  0  0  0
 19 18  2  0  0  0  0
 20 17  2  0  0  0  0
 20 16  1  0  0  0  0
 21 22  1  0  0  0  0
 21 16  1  0  0  0  0
 23 24  1  0  0  0  0
 24 26  1  0  0  0  0
 25 26  1  0  0  0  0
 27 30  1  6  0  0  0
 27 31  1  0  0  0  0
 28 29  1  0  0  0  0
 28 30  1  0  0  0  0
 29 26  1  6  0  0  0
 29 27  1  0  0  0  0
 31 33  1  6  0  0  0
 31 34  1  0  0  0  0
 33 36  1  0  0  0  0
 34 35  1  1  0  0  0
 34 32  1  0  0  0  0
 36 32  1  0  0  0  0
 37 34  1  0  0  0  0
 38 37  1  0  0  0  0
 38 43  1  0  0  0  0
 39 43  2  0  0  0  0
 40 42  1  0  0  0  0
 40 41  2  0  0  0  0
 41 39  1  0  0  0  0
 42 38  2  0  0  0  0
M  END
>  <MODEL>
4

>  <REMARK>
 VINA RESULT:      -8.7      2.231      6.093
  Name = 
  11 active torsions:
  status: ('A' for Active; 'I' for Inactive)
    1  A    between atoms: C_1  and  C_34
    2  A    between atoms: C_1  and  C_35
    3  A    between atoms: C_3  and  C_4
    4  A    between atoms: N_6  and  C_12
    5  A    between atoms: N_6  and  C_13
    6  A    between atoms: C_8  and  C_34
    7  A    between atoms: C_11  and  O_14
    8  A    between atoms: C_13  and  C_38
    9  A    between atoms: O_14  and  C_22
   10  A    between atoms: C_19  and  O_25
   11  A    between atoms: C_34  and  C_38
                            x       y       z     vdW  Elec       q    Type
                         _______ _______ _______ _____ _____    ______ ____

>  <TORSDO>
F 11

$$$$
=
 OpenBabel11052416243D

 43 48  0  0  1  0  0  0  0  0999 V2000
  188.1730  177.3140  143.4340 C   0  0  2  0  0  3  0  0  0  0  0  0
  181.9880  179.3220  143.1790 C   0  0  0  0  0  0  0  0  0  0  0  0
  186.8020  177.8520  143.1290 C   0  0  0  0  0  0  0  0  0  0  0  0
  184.2430  178.7520  142.5110 C   0  0  0  0  0  0  0  0  0  0  0  0
  182.2960  178.9970  144.5040 C   0  0  0  0  0  3  0  0  0  0  0  0
  180.6830  179.7850  142.8460 N   0  0  0  0  0  1  0  0  0  0  0  0
  184.5590  178.4160  143.8450 C   0  0  0  0  0  0  0  0  0  0  0  0
  182.9600  179.2010  142.1840 C   0  0  0  0  0  3  0  0  0  0  0  0
  183.5780  178.5460  144.8370 C   0  0  0  0  0  3  0  0  0  0  0  0
  186.1720  177.5980  145.4610 O   0  0  0  0  0  1  0  0  0  0  0  0
  185.8450  177.9570  144.1540 C   0  0  0  0  0  0  0  0  0  0  0  0
  186.4620  178.1810  141.8530 N   0  0  0  0  0  0  0  0  0  0  0  0
  185.2220  178.6290  141.5260 C   0  0  0  0  0  3  0  0  0  0  0  0
  189.0760  178.2410  144.2640 C   0  0  0  0  0  2  0  0  0  0  0  0
  190.3100  176.9170  147.6030 C   0  0  0  0  0  3  0  0  0  0  0  0
  191.4840  176.2450  147.2200 C   0  0  0  0  0  0  0  0  0  0  0  0
  191.0660  176.8690  144.9120 C   0  0  0  0  0  3  0  0  0  0  0  0
  189.5230  177.5610  146.6440 C   0  0  0  0  0  3  0  0  0  0  0  0
  189.9030  177.5430  145.2970 C   0  0  0  0  0  0  0  0  0  0  0  0
  191.8530  176.2220  145.8710 C   0  0  0  0  0  3  0  0  0  0  0  0
  192.2950  175.5940  148.1530 O   0  0  0  0  0  0  0  0  0  0  0  0
  193.1920  176.2900  149.0120 C   0  0  0  0  0  1  0  0  0  0  0  0
  188.8420  176.5960  142.2560 C   0  0  0  0  0  2  0  0  0  0  0  0
  189.7070  177.5300  141.4240 C   0  0  0  0  0  2  0  0  0  0  0  0
  191.1960  177.5000  139.7360 O   0  0  0  0  0  1  0  0  0  0  0  0
  190.0810  176.8730  140.1810 N   0  0  0  0  0  0  0  0  0  0  0  0
  189.6120  177.2260  137.8020 C   0  0  2  0  0  3  0  0  0  0  0  0
  188.6970  178.6100  139.1650 C   0  0  0  0  0  2  0  0  0  0  0  0
  189.0220  177.1250  139.2070 C   0  0  2  0  0  3  0  0  0  0  0  0
  189.2910  178.7080  137.7740 C   0  0  0  0  0  2  0  0  0  0  0  0
  188.7490  176.4790  136.7770 C   0  0  2  0  0  3  0  0  0  0  0  0
  188.1900  174.2280  136.0360 C   0  0  0  0  0  2  0  0  0  0  0  0
  187.3950  176.1060  137.3360 C   0  0  0  0  0  2  0  0  0  0  0  0
  189.3640  175.1660  136.2980 C   0  0  1  0  0  0  0  0  0  0  0  0
  190.0710  175.3890  135.1160 O   0  0  0  0  0  1  0  0  0  0  0  0
  186.9300  174.9570  136.4690 C   0  0  0  0  0  2  0  0  0  0  0  0
  190.2300  174.6120  137.2970 O   0  0  0  0  0  0  0  0  0  0  0  0
  191.5190  174.1170  137.0630 C   0  0  0  0  0  0  0  0  0  0  0  0
  193.0560  172.5510  136.0120 C   0  0  0  0  0  3  0  0  0  0  0  0
  193.9060  174.2810  137.4760 C   0  0  0  0  0  3  0  0  0  0  0  0
  194.1320  173.1840  136.6390 C   0  0  0  0  0  3  0  0  0  0  0  0
  192.6030  174.7460  137.6850 C   0  0  0  0  0  3  0  0  0  0  0  0
  191.7540  173.0150  136.2220 C   0  0  0  0  0  3  0  0  0  0  0  0
  1 23  1  6  0  0  0
  1 14  1  0  0  0  0
  2  5  1  0  0  0  0
  3  1  1  0  0  0  0
  3 11  1  0  0  0  0
  4  7  1  0  0  0  0
  5  9  2  0  0  0  0
  6  2  1  0  0  0  0
  7 11  2  0  0  0  0
  7  9  1  0  0  0  0
  8  4  1  0  0  0  0
  8  2  2  0  0  0  0
 11 10  1  0  0  0  0
 12  3  2  0  0  0  0
 13 12  1  0  0  0  0
 13  4  2  0  0  0  0
 14 19  1  0  0  0  0
 16 15  1  0  0  0  0
 16 21  1  0  0  0  0
 17 19  2  0  0  0  0
 17 20  1  0  0  0  0
 18 15  2  0  0  0  0
 19 18  1  0  0  0  0
 20 16  2  0  0  0  0
 21 22  1  0  0  0  0
 24 23  1  0  0  0  0
 25 26  1  0  0  0  0
 26 24  1  0  0  0  0
 27 30  1  6  0  0  0
 27 29  1  0  0  0  0
 28 29  1  0  0  0  0
 29 26  1  1  0  0  0
 30 28  1  0  0  0  0
 31 33  1  1  0  0  0
 31 27  1  0  0  0  0
 32 34  1  0  0  0  0
 32 36  1  0  0  0  0
 34 35  1  6  0  0  0
 34 31  1  0  0  0  0
 34 37  1  0  0  0  0
 36 33  1  0  0  0  0
 38 37  1  0  0  0  0
 38 42  1  0  0  0  0
 39 43  1  0  0  0  0
 39 41  2  0  0  0  0
 40 42  2  0  0  0  0
 41 40  1  0  0  0  0
 43 38  2  0  0  0  0
M  END
>  <MODEL>
5

>  <REMARK>
 VINA RESULT:      -8.6      2.259      8.200
  Name = 
  11 active torsions:
  status: ('A' for Active; 'I' for Inactive)
    1  A    between atoms: C_1  and  C_34
    2  A    between atoms: C_1  and  C_35
    3  A    between atoms: C_3  and  C_4
    4  A    between atoms: N_6  and  C_12
    5  A    between atoms: N_6  and  C_13
    6  A    between atoms: C_8  and  C_34
    7  A    between atoms: C_11  and  O_14
    8  A    between atoms: C_13  and  C_38
    9  A    between atoms: O_14  and  C_22
   10  A    between atoms: C_19  and  O_25
   11  A    between atoms: C_34  and  C_38
                            x       y       z     vdW  Elec       q    Type
                         _______ _______ _______ _____ _____    ______ ____

>  <TORSDO>
F 11

$$$$
=
 OpenBabel11052416243D

 43 48  0  0  1  0  0  0  0  0999 V2000
  185.8100  178.2570  143.0840 C   0  0  2  0  0  3  0  0  0  0  0  0
  191.0130  176.7560  146.6920 C   0  0  0  0  0  0  0  0  0  0  0  0
  186.8830  178.0300  144.1130 C   0  0  0  0  0  0  0  0  0  0  0  0
  188.8090  177.5250  146.0560 C   0  0  0  0  0  0  0  0  0  0  0  0
  191.3110  176.4960  145.3510 C   0  0  0  0  0  3  0  0  0  0  0  0
  191.9880  176.5040  147.6990 N   0  0  0  0  0  1  0  0  0  0  0  0
  189.1010  177.2580  144.7020 C   0  0  0  0  0  0  0  0  0  0  0  0
  189.7640  177.2720  147.0450 C   0  0  0  0  0  3  0  0  0  0  0  0
  190.3590  176.7460  144.3580 C   0  0  0  0  0  3  0  0  0  0  0  0
  188.3880  177.2290  142.3840 O   0  0  0  0  0  1  0  0  0  0  0  0
  188.1280  177.5060  143.7250 C   0  0  0  0  0  0  0  0  0  0  0  0
  186.6340  178.2720  145.4290 N   0  0  0  0  0  0  0  0  0  0  0  0
  187.5590  178.0400  146.3960 C   0  0  0  0  0  3  0  0  0  0  0  0
  186.1190  179.3390  142.0360 C   0  0  0  0  0  2  0  0  0  0  0  0
  184.9070  178.4490  138.5480 C   0  0  0  0  0  3  0  0  0  0  0  0
  186.0780  177.9260  137.9710 C   0  0  0  0  0  0  0  0  0  0  0  0
  187.2650  178.3450  140.0460 C   0  0  0  0  0  3  0  0  0  0  0  0
  184.9190  178.9140  139.8660 C   0  0  0  0  0  3  0  0  0  0  0  0
  186.0970  178.8570  140.6190 C   0  0  0  0  0  0  0  0  0  0  0  0
  187.2540  177.8810  138.7270 C   0  0  0  0  0  3  0  0  0  0  0  0
  186.0990  177.4500  136.6580 O   0  0  0  0  0  0  0  0  0  0  0  0
  186.7570  178.1380  135.6000 C   0  0  0  0  0  1  0  0  0  0  0  0
  184.3850  178.2520  143.6500 C   0  0  0  0  0  2  0  0  0  0  0  0
  183.3320  178.4630  142.5730 C   0  0  0  0  0  2  0  0  0  0  0  0
  182.0410  178.6140  144.4100 O   0  0  0  0  0  1  0  0  0  0  0  0
  182.1610  179.1030  143.1520 N   0  0  0  0  0  0  0  0  0  0  0  0
  181.0730  179.1510  140.9570 C   0  0  2  0  0  3  0  0  0  0  0  0
  179.8250  179.6020  142.6450 C   0  0  0  0  0  2  0  0  0  0  0  0
  180.9910  178.6580  142.4000 C   0  0  2  0  0  3  0  0  0  0  0  0
  179.9150  180.0960  141.2150 C   0  0  0  0  0  2  0  0  0  0  0  0
  180.6530  178.0580  139.9660 C   0  0  2  0  0  3  0  0  0  0  0  0
  180.9910  177.3400  137.6650 C   0  0  0  0  0  2  0  0  0  0  0  0
  181.6180  176.8940  139.9580 C   0  0  0  0  0  2  0  0  0  0  0  0
  180.5840  178.5370  138.5180 C   0  0  1  0  0  0  0  0  0  0  0  0
  179.2750  178.9160  138.2170 O   0  0  0  0  0  1  0  0  0  0  0  0
  181.3980  176.2300  138.6170 C   0  0  0  0  0  2  0  0  0  0  0  0
  181.4810  179.6330  138.2990 O   0  0  0  0  0  0  0  0  0  0  0  0
  181.1690  180.8020  137.5930 C   0  0  0  0  0  0  0  0  0  0  0  0
  180.5000  181.9690  135.5660 C   0  0  0  0  0  3  0  0  0  0  0  0
  180.9120  183.2160  137.5990 C   0  0  0  0  0  3  0  0  0  0  0  0
  180.5530  183.1870  136.2480 C   0  0  0  0  0  3  0  0  0  0  0  0
  181.2170  182.0270  138.2690 C   0  0  0  0  0  3  0  0  0  0  0  0
  180.8060  180.7800  136.2350 C   0  0  0  0  0  3  0  0  0  0  0  0
  1 14  1  1  0  0  0
  1 23  1  0  0  0  0
  1  3  1  0  0  0  0
  2  8  1  0  0  0  0
  2  6  1  0  0  0  0
  3 12  1  0  0  0  0
  4 13  1  0  0  0  0
  4  8  2  0  0  0  0
  5  2  2  0  0  0  0
  7  4  1  0  0  0  0
  9  7  2  0  0  0  0
  9  5  1  0  0  0  0
 10 11  1  0  0  0  0
 11  3  2  0  0  0  0
 11  7  1  0  0  0  0
 12 13  2  0  0  0  0
 15 18  1  0  0  0  0
 16 15  2  0  0  0  0
 16 20  1  0  0  0  0
 17 19  1  0  0  0  0
 18 19  2  0  0  0  0
 19 14  1  0  0  0  0
 20 17  2  0  0  0  0
 21 16  1  0  0  0  0
 22 21  1  0  0  0  0
 24 26  1  0  0  0  0
 24 23  1  0  0  0  0
 26 25  1  0  0  0  0
 27 30  1  1  0  0  0
 27 29  1  0  0  0  0
 29 28  1  0  0  0  0
 29 26  1  1  0  0  0
 30 28  1  0  0  0  0
 31 33  1  6  0  0  0
 31 27  1  0  0  0  0
 32 34  1  0  0  0  0
 32 36  1  0  0  0  0
 34 35  1  6  0  0  0
 34 31  1  0  0  0  0
 36 33  1  0  0  0  0
 37 34  1  0  0  0  0
 38 42  1  0  0  0  0
 38 37  1  0  0  0  0
 39 43  1  0  0  0  0
 39 41  2  0  0  0  0
 40 42  2  0  0  0  0
 41 40  1  0  0  0  0
 43 38  2  0  0  0  0
M  END
>  <MODEL>
6

>  <REMARK>
 VINA RESULT:      -8.5      3.680      9.578
  Name = 
  11 active torsions:
  status: ('A' for Active; 'I' for Inactive)
    1  A    between atoms: C_1  and  C_34
    2  A    between atoms: C_1  and  C_35
    3  A    between atoms: C_3  and  C_4
    4  A    between atoms: N_6  and  C_12
    5  A    between atoms: N_6  and  C_13
    6  A    between atoms: C_8  and  C_34
    7  A    between atoms: C_11  and  O_14
    8  A    between atoms: C_13  and  C_38
    9  A    between atoms: O_14  and  C_22
   10  A    between atoms: C_19  and  O_25
   11  A    between atoms: C_34  and  C_38
                            x       y       z     vdW  Elec       q    Type
                         _______ _______ _______ _____ _____    ______ ____

>  <TORSDO>
F 11

$$$$
=
 OpenBabel11052416243D

 43 48  0  0  1  0  0  0  0  0999 V2000
  187.7320  178.2490  141.6830 C   0  0  2  0  0  3  0  0  0  0  0  0
  191.0820  176.3750  136.4280 C   0  0  0  0  0  0  0  0  0  0  0  0
  188.2910  177.8870  140.3340 C   0  0  0  0  0  0  0  0  0  0  0  0
  189.3490  177.3260  137.8230 C   0  0  0  0  0  0  0  0  0  0  0  0
  191.7750  175.9590  137.5700 C   0  0  0  0  0  3  0  0  0  0  0  0
  191.6090  176.0940  135.1360 N   0  0  0  0  0  1  0  0  0  0  0  0
  190.0460  176.9160  138.9790 C   0  0  0  0  0  0  0  0  0  0  0  0
  189.8690  177.0560  136.5540 C   0  0  0  0  0  3  0  0  0  0  0  0
  191.2590  176.2270  138.8410 C   0  0  0  0  0  3  0  0  0  0  0  0
  190.1990  176.8280  141.3980 O   0  0  0  0  0  1  0  0  0  0  0  0
  189.5160  177.2040  140.2430 C   0  0  0  0  0  0  0  0  0  0  0  0
  187.6470  178.2720  139.1980 N   0  0  0  0  0  0  0  0  0  0  0  0
  188.1390  178.0050  137.9610 C   0  0  0  0  0  3  0  0  0  0  0  0
  187.4220  177.0620  142.6090 C   0  0  0  0  0  2  0  0  0  0  0  0
  188.9730  177.7280  146.0110 C   0  0  0  0  0  3  0  0  0  0  0  0
  187.8290  177.8820  146.8140 C   0  0  0  0  0  0  0  0  0  0  0  0
  186.4330  177.5160  144.8630 C   0  0  0  0  0  3  0  0  0  0  0  0
  188.8440  177.4670  144.6440 C   0  0  0  0  0  3  0  0  0  0  0  0
  187.5730  177.3550  144.0680 C   0  0  0  0  0  0  0  0  0  0  0  0
  186.5620  177.7780  146.2300 C   0  0  0  0  0  3  0  0  0  0  0  0
  187.9230  178.1400  148.1830 O   0  0  0  0  0  0  0  0  0  0  0  0
  189.1690  178.2540  148.8630 C   0  0  0  0  0  1  0  0  0  0  0  0
  186.6870  179.3700  141.6490 C   0  0  0  0  0  2  0  0  0  0  0  0
  185.2620  178.8350  141.6510 C   0  0  0  0  0  2  0  0  0  0  0  0
  184.5440  179.8610  139.7810 O   0  0  0  0  0  1  0  0  0  0  0  0
  184.8150  178.6320  140.2820 N   0  0  0  0  0  0  0  0  0  0  0  0
  182.5480  178.5090  139.3600 C   0  0  2  0  0  3  0  0  0  0  0  0
  182.7100  178.3830  141.4970 C   0  0  0  0  0  2  0  0  0  0  0  0
  183.5540  177.8950  140.3300 C   0  0  2  0  0  3  0  0  0  0  0  0
  181.7170  178.9990  140.5310 C   0  0  0  0  0  2  0  0  0  0  0  0
  181.7830  177.4260  138.5860 C   0  0  2  0  0  3  0  0  0  0  0  0
  182.0650  175.8150  136.7840 C   0  0  0  0  0  2  0  0  0  0  0  0
  181.9740  176.0530  139.1890 C   0  0  0  0  0  2  0  0  0  0  0  0
  182.2170  177.2930  137.1280 C   0  0  1  0  0  0  0  0  0  0  0  0
  181.3760  178.0620  136.3220 O   0  0  0  0  0  1  0  0  0  0  0  0
  181.6610  175.0980  138.0590 C   0  0  0  0  0  2  0  0  0  0  0  0
  183.5790  177.7060  136.9600 O   0  0  0  0  0  0  0  0  0  0  0  0
  184.6140  176.8940  136.4760 C   0  0  0  0  0  0  0  0  0  0  0  0
  186.2620  175.1280  136.7570 C   0  0  0  0  0  3  0  0  0  0  0  0
  186.0660  176.2730  134.6330 C   0  0  0  0  0  3  0  0  0  0  0  0
  186.6780  175.3050  135.4350 C   0  0  0  0  0  3  0  0  0  0  0  0
  185.0360  177.0630  135.1530 C   0  0  0  0  0  3  0  0  0  0  0  0
  185.2330  175.9190  137.2760 C   0  0  0  0  0  3  0  0  0  0  0  0
  1 23  1  6  0  0  0
  1 14  1  0  0  0  0
  2  8  2  0  0  0  0
  2  5  1  0  0  0  0
  3  1  1  0  0  0  0
  4 13  2  0  0  0  0
  4  7  1  0  0  0  0
  5  9  2  0  0  0  0
  6  2  1  0  0  0  0
  7 11  2  0  0  0  0
  8  4  1  0  0  0  0
  9  7  1  0  0  0  0
 11  3  1  0  0  0  0
 11 10  1  0  0  0  0
 12  3  2  0  0  0  0
 13 12  1  0  0  0  0
 14 19  1  0  0  0  0
 15 16  1  0  0  0  0
 16 21  1  0  0  0  0
 17 20  1  0  0  0  0
 18 15  2  0  0  0  0
 19 18  1  0  0  0  0
 19 17  2  0  0  0  0
 20 16  2  0  0  0  0
 21 22  1  0  0  0  0
 23 24  1  0  0  0  0
 25 26  1  0  0  0  0
 26 24  1  0  0  0  0
 27 29  1  0  0  0  0
 27 30  1  1  0  0  0
 29 26  1  1  0  0  0
 29 28  1  0  0  0  0
 30 28  1  0  0  0  0
 31 33  1  1  0  0  0
 31 27  1  0  0  0  0
 32 34  1  0  0  0  0
 32 36  1  0  0  0  0
 34 35  1  6  0  0  0
 34 31  1  0  0  0  0
 36 33  1  0  0  0  0
 37 34  1  0  0  0  0
 38 37  1  0  0  0  0
 38 43  1  0  0  0  0
 39 43  2  0  0  0  0
 40 42  1  0  0  0  0
 40 41  2  0  0  0  0
 41 39  1  0  0  0  0
 42 38  2  0  0  0  0
M  END
>  <MODEL>
7

>  <REMARK>
 VINA RESULT:      -8.4      2.549      9.026
  Name = 
  11 active torsions:
  status: ('A' for Active; 'I' for Inactive)
    1  A    between atoms: C_1  and  C_34
    2  A    between atoms: C_1  and  C_35
    3  A    between atoms: C_3  and  C_4
    4  A    between atoms: N_6  and  C_12
    5  A    between atoms: N_6  and  C_13
    6  A    between atoms: C_8  and  C_34
    7  A    between atoms: C_11  and  O_14
    8  A    between atoms: C_13  and  C_38
    9  A    between atoms: O_14  and  C_22
   10  A    between atoms: C_19  and  O_25
   11  A    between atoms: C_34  and  C_38
                            x       y       z     vdW  Elec       q    Type
                         _______ _______ _______ _____ _____    ______ ____

>  <TORSDO>
F 11

$$$$
=
 OpenBabel11052416243D

 43 48  0  0  1  0  0  0  0  0999 V2000
  188.2690  177.6940  141.5430 C   0  0  2  0  0  3  0  0  0  0  0  0
  191.5120  176.4440  147.0450 C   0  0  0  0  0  0  0  0  0  0  0  0
  189.2040  177.3070  142.6560 C   0  0  0  0  0  0  0  0  0  0  0  0
  190.9930  176.6850  144.6930 C   0  0  0  0  0  0  0  0  0  0  0  0
  190.2070  176.8220  147.3740 C   0  0  0  0  0  3  0  0  0  0  0  0
  192.4390  176.1210  148.0760 N   0  0  0  0  0  1  0  0  0  0  0  0
  189.6760  177.0740  145.0190 C   0  0  0  0  0  0  0  0  0  0  0  0
  191.9050  176.3730  145.7060 C   0  0  0  0  0  3  0  0  0  0  0  0
  189.2900  177.1350  146.3650 C   0  0  0  0  0  3  0  0  0  0  0  0
  187.4800  177.8010  144.2920 O   0  0  0  0  0  1  0  0  0  0  0  0
  188.7780  177.3930  143.9930 C   0  0  0  0  0  0  0  0  0  0  0  0
  190.4840  176.9320  142.3780 N   0  0  0  0  0  0  0  0  0  0  0  0
  191.3740  176.6180  143.3540 C   0  0  0  0  0  3  0  0  0  0  0  0
  188.8490  178.6640  140.5020 C   0  0  0  0  0  2  0  0  0  0  0  0
  189.1450  176.2150  137.6140 C   0  0  0  0  0  3  0  0  0  0  0  0
  189.1540  177.0850  136.5100 C   0  0  0  0  0  0  0  0  0  0  0  0
  188.9480  178.9740  138.0200 C   0  0  0  0  0  3  0  0  0  0  0  0
  189.0400  176.7250  138.9110 C   0  0  0  0  0  3  0  0  0  0  0  0
  188.9470  178.1060  139.1170 C   0  0  0  0  0  0  0  0  0  0  0  0
  189.0520  178.4640  136.7220 C   0  0  0  0  0  3  0  0  0  0  0  0
  189.2610  176.6090  135.2010 O   0  0  0  0  0  0  0  0  0  0  0  0
  189.1840  175.2250  134.8760 C   0  0  0  0  0  1  0  0  0  0  0  0
  186.8320  177.9710  141.9980 C   0  0  0  0  0  2  0  0  0  0  0  0
  186.0400  178.7620  140.9680 C   0  0  0  0  0  2  0  0  0  0  0  0
  185.2940  179.7160  142.8650 O   0  0  0  0  0  1  0  0  0  0  0  0
  184.8980  179.3950  141.6100 N   0  0  0  0  0  0  0  0  0  0  0  0
  182.5550  178.9020  141.0870 C   0  0  2  0  0  3  0  0  0  0  0  0
  183.1840  178.4920  143.0980 C   0  0  0  0  0  2  0  0  0  0  0  0
  183.8420  178.3920  141.7310 C   0  0  2  0  0  3  0  0  0  0  0  0
  181.9110  179.0060  142.4570 C   0  0  0  0  0  2  0  0  0  0  0  0
  181.8680  177.8050  140.2620 C   0  0  2  0  0  3  0  0  0  0  0  0
  181.4110  177.1570  137.9610 C   0  0  0  0  0  2  0  0  0  0  0  0
  182.8260  176.7040  139.8690 C   0  0  0  0  0  2  0  0  0  0  0  0
  181.2700  178.3090  138.9500 C   0  0  1  0  0  0  0  0  0  0  0  0
  179.9220  178.6130  139.1430 O   0  0  0  0  0  1  0  0  0  0  0  0
  182.1820  176.0550  138.6650 C   0  0  0  0  0  2  0  0  0  0  0  0
  181.9760  179.4620  138.4760 O   0  0  0  0  0  0  0  0  0  0  0  0
  181.4050  180.5150  137.7490 C   0  0  0  0  0  0  0  0  0  0  0  0
  180.3080  181.4060  135.7690 C   0  0  0  0  0  3  0  0  0  0  0  0
  180.8030  182.8640  137.6370 C   0  0  0  0  0  3  0  0  0  0  0  0
  180.2740  182.6730  136.3570 C   0  0  0  0  0  3  0  0  0  0  0  0
  181.3650  181.7880  138.3300 C   0  0  0  0  0  3  0  0  0  0  0  0
  180.8700  180.3300  136.4620 C   0  0  0  0  0  3  0  0  0  0  0  0
  1 14  1  1  0  0  0
  1 23  1  0  0  0  0
  1  3  1  0  0  0  0
  2  5  1  0  0  0  0
  2  6  1  0  0  0  0
  3 11  1  0  0  0  0
  4  7  1  0  0  0  0
  4  8  1  0  0  0  0
  7  9  1  0  0  0  0
  8  2  2  0  0  0  0
  9  5  2  0  0  0  0
 11 10  1  0  0  0  0
 11  7  2  0  0  0  0
 12  3  2  0  0  0  0
 12 13  1  0  0  0  0
 13  4  2  0  0  0  0
 15 18  1  0  0  0  0
 16 20  1  0  0  0  0
 16 15  2  0  0  0  0
 17 19  1  0  0  0  0
 18 19  2  0  0  0  0
 19 14  1  0  0  0  0
 20 17  2  0  0  0  0
 21 16  1  0  0  0  0
 22 21  1  0  0  0  0
 24 26  1  0  0  0  0
 24 23  1  0  0  0  0
 26 25  1  0  0  0  0
 27 29  1  0  0  0  0
 27 30  1  1  0  0  0
 29 26  1  1  0  0  0
 29 28  1  0  0  0  0
 30 28  1  0  0  0  0
 31 33  1  6  0  0  0
 31 27  1  0  0  0  0
 32 36  1  0  0  0  0
 32 34  1  0  0  0  0
 34 35  1  1  0  0  0
 34 31  1  0  0  0  0
 36 33  1  0  0  0  0
 37 34  1  0  0  0  0
 38 42  1  0  0  0  0
 38 37  1  0  0  0  0
 39 41  2  0  0  0  0
 39 43  1  0  0  0  0
 40 42  2  0  0  0  0
 41 40  1  0  0  0  0
 43 38  2  0  0  0  0
M  END
>  <MODEL>
8

>  <REMARK>
 VINA RESULT:      -8.4      3.142      8.507
  Name = 
  11 active torsions:
  status: ('A' for Active; 'I' for Inactive)
    1  A    between atoms: C_1  and  C_34
    2  A    between atoms: C_1  and  C_35
    3  A    between atoms: C_3  and  C_4
    4  A    between atoms: N_6  and  C_12
    5  A    between atoms: N_6  and  C_13
    6  A    between atoms: C_8  and  C_34
    7  A    between atoms: C_11  and  O_14
    8  A    between atoms: C_13  and  C_38
    9  A    between atoms: O_14  and  C_22
   10  A    between atoms: C_19  and  O_25
   11  A    between atoms: C_34  and  C_38
                            x       y       z     vdW  Elec       q    Type
                         _______ _______ _______ _____ _____    ______ ____

>  <TORSDO>
F 11

$$$$
=
 OpenBabel11052416243D

 43 48  0  0  1  0  0  0  0  0999 V2000
  187.4120  178.2530  142.7160 C   0  0  2  0  0  3  0  0  0  0  0  0
  191.7170  176.3870  147.2250 C   0  0  0  0  0  0  0  0  0  0  0  0
  188.5410  177.7200  143.5550 C   0  0  0  0  0  0  0  0  0  0  0  0
  190.6890  176.8220  145.0780 C   0  0  0  0  0  0  0  0  0  0  0  0
  190.5660  176.8470  147.8720 C   0  0  0  0  0  3  0  0  0  0  0  0
  192.8250  175.9230  147.9900 N   0  0  0  0  0  1  0  0  0  0  0  0
  189.5270  177.2950  145.7250 C   0  0  0  0  0  0  0  0  0  0  0  0
  191.7780  176.3720  145.8300 C   0  0  0  0  0  3  0  0  0  0  0  0
  189.4730  177.2990  147.1260 C   0  0  0  0  0  3  0  0  0  0  0  0
  187.3000  178.2440  145.5760 O   0  0  0  0  0  1  0  0  0  0  0  0
  188.4480  177.7530  144.9580 C   0  0  0  0  0  0  0  0  0  0  0  0
  189.6780  177.2610  142.9650 N   0  0  0  0  0  0  0  0  0  0  0  0
  190.7380  176.8120  143.6860 C   0  0  0  0  0  3  0  0  0  0  0  0
  186.1730  177.3490  142.6250 C   0  0  0  0  0  2  0  0  0  0  0  0
  183.2800  179.2470  144.1920 C   0  0  0  0  0  3  0  0  0  0  0  0
  182.4050  179.3730  143.0990 C   0  0  0  0  0  0  0  0  0  0  0  0
  184.0030  178.1920  141.7060 C   0  0  0  0  0  3  0  0  0  0  0  0
  184.5070  178.5950  144.0390 C   0  0  0  0  0  3  0  0  0  0  0  0
  184.8680  178.0610  142.7970 C   0  0  0  0  0  0  0  0  0  0  0  0
  182.7760  178.8450  141.8580 C   0  0  0  0  0  3  0  0  0  0  0  0
  181.1700  180.0150  143.2180 O   0  0  0  0  0  0  0  0  0  0  0  0
  179.9530  179.4370  142.7580 C   0  0  0  0  0  1  0  0  0  0  0  0
  187.8610  178.9180  141.4090 C   0  0  0  0  0  2  0  0  0  0  0  0
  187.9060  177.9380  140.2460 C   0  0  0  0  0  2  0  0  0  0  0  0
  187.0170  178.5060  138.2580 O   0  0  0  0  0  1  0  0  0  0  0  0
  188.1360  178.6620  139.0060 N   0  0  0  0  0  0  0  0  0  0  0  0
  189.0490  176.4830  138.3550 C   0  0  2  0  0  3  0  0  0  0  0  0
  190.4410  177.8780  139.2070 C   0  0  0  0  0  2  0  0  0  0  0  0
  189.2280  177.9980  138.2980 C   0  0  2  0  0  3  0  0  0  0  0  0
  190.2560  176.3760  139.2690 C   0  0  0  0  0  2  0  0  0  0  0  0
  189.3540  175.8310  137.0000 C   0  0  2  0  0  3  0  0  0  0  0  0
  188.4230  174.2610  135.3890 C   0  0  0  0  0  2  0  0  0  0  0  0
  188.7650  176.6110  135.8470 C   0  0  0  0  0  2  0  0  0  0  0  0
  188.7940  174.4170  136.8600 C   0  0  1  0  0  0  0  0  0  0  0  0
  189.7800  173.4920  137.2060 O   0  0  0  0  0  1  0  0  0  0  0  0
  188.6600  175.6050  134.7230 C   0  0  0  0  0  2  0  0  0  0  0  0
  187.6370  174.2420  137.6870 O   0  0  0  0  0  0  0  0  0  0  0  0
  186.3210  174.1280  137.2190 C   0  0  0  0  0  0  0  0  0  0  0  0
  184.2470  175.0960  136.3960 C   0  0  0  0  0  3  0  0  0  0  0  0
  184.4480  172.6960  136.6390 C   0  0  0  0  0  3  0  0  0  0  0  0
  183.6930  173.8180  136.2860 C   0  0  0  0  0  3  0  0  0  0  0  0
  185.7580  172.8510  137.1020 C   0  0  0  0  0  3  0  0  0  0  0  0
  185.5560  175.2510  136.8600 C   0  0  0  0  0  3  0  0  0  0  0  0
  1 23  1  6  0  0  0
  1  3  1  0  0  0  0
  2  5  1  0  0  0  0
  2  6  1  0  0  0  0
  3 11  1  0  0  0  0
  4  7  1  0  0  0  0
  4  8  1  0  0  0  0
  7  9  1  0  0  0  0
  8  2  2  0  0  0  0
  9  5  2  0  0  0  0
 11 10  1  0  0  0  0
 11  7  2  0  0  0  0
 12  3  2  0  0  0  0
 12 13  1  0  0  0  0
 13  4  2  0  0  0  0
 14  1  1  0  0  0  0
 14 19  1  0  0  0  0
 16 21  1  0  0  0  0
 16 15  2  0  0  0  0
 17 20  2  0  0  0  0
 17 19  1  0  0  0  0
 18 15  1  0  0  0  0
 19 18  2  0  0  0  0
 20 16  1  0  0  0  0
 22 21  1  0  0  0  0
 24 23  1  0  0  0  0
 25 26  1  0  0  0  0
 26 24  1  0  0  0  0
 27 30  1  1  0  0  0
 28 30  1  0  0  0  0
 29 27  1  0  0  0  0
 29 26  1  1  0  0  0
 29 28  1  0  0  0  0
 31 33  1  6  0  0  0
 31 27  1  0  0  0  0
 32 34  1  0  0  0  0
 34 31  1  0  0  0  0
 34 35  1  1  0  0  0
 34 37  1  0  0  0  0
 36 32  1  0  0  0  0
 36 33  1  0  0  0  0
 38 37  1  0  0  0  0
 39 43  1  0  0  0  0
 40 42  2  0  0  0  0
 41 39  2  0  0  0  0
 41 40  1  0  0  0  0
 42 38  1  0  0  0  0
 43 38  2  0  0  0  0
M  END
>  <MODEL>
9

>  <REMARK>
 VINA RESULT:      -8.3      2.868      9.468
  Name = 
  11 active torsions:
  status: ('A' for Active; 'I' for Inactive)
    1  A    between atoms: C_1  and  C_34
    2  A    between atoms: C_1  and  C_35
    3  A    between atoms: C_3  and  C_4
    4  A    between atoms: N_6  and  C_12
    5  A    between atoms: N_6  and  C_13
    6  A    between atoms: C_8  and  C_34
    7  A    between atoms: C_11  and  O_14
    8  A    between atoms: C_13  and  C_38
    9  A    between atoms: O_14  and  C_22
   10  A    between atoms: C_19  and  O_25
   11  A    between atoms: C_34  and  C_38
                            x       y       z     vdW  Elec       q    Type
                         _______ _______ _______ _____ _____    ______ ____

>  <TORSDO>
F 11

$$$$
