=
 OpenBabel11052412423D

 25 27  0  0  1  0  0  0  0  0999 V2000
  184.4040  178.4020  143.1430 C   0  0  0  0  0  0  0  0  0  0  0  0
  185.5740  177.9960  143.8240 C   0  0  0  0  0  0  0  0  0  0  0  0
  183.4070  179.0000  145.2100 C   0  0  0  0  0  3  0  0  0  0  0  0
  184.5290  178.6390  145.8800 N   0  0  0  0  0  0  0  0  0  0  0  0
  186.8100  177.6960  146.0420 C   0  0  2  0  0  3  0  0  0  0  0  0
  187.1430  178.6870  147.1420 C   0  0  0  0  0  1  0  0  0  0  0  0
  186.7530  177.4340  143.0690 C   0  0  0  0  0  2  0  0  0  0  0  0
  183.3540  178.8840  143.8610 N   0  0  0  0  0  0  0  0  0  0  0  0
  188.0610  177.4580  145.2010 C   0  0  0  0  0  2  0  0  0  0  0  0
  187.7080  176.6500  143.9620 C   0  0  2  0  0  3  0  0  0  0  0  0
  185.6230  178.1630  145.2280 C   0  0  0  0  0  0  0  0  0  0  0  0
  184.2750  178.3260  141.6670 C   0  0  0  0  0  0  0  0  0  0  0  0
  184.0570  178.1000  138.8730 C   0  0  0  0  0  3  0  0  0  0  0  0
  185.1380  179.0550  140.8230 C   0  0  0  0  0  0  0  0  0  0  0  0
  185.0220  178.9400  139.4330 C   0  0  0  0  0  3  0  0  0  0  0  0
  183.2050  177.3680  139.7010 C   0  0  0  0  0  3  0  0  0  0  0  0
  186.1020  179.9070  141.3490 O   0  0  0  0  0  1  0  0  0  0  0  0
  183.3170  177.4770  141.0890 C   0  0  0  0  0  3  0  0  0  0  0  0
  188.9610  176.1410  143.2220 C   0  0  0  0  0  2  0  0  0  0  0  0
  189.8280  177.1650  142.6110 N   0  0  0  0  0  0  0  0  0  0  0  0
  189.8070  177.0330  141.2610 O   0  0  0  0  0  1  0  0  0  0  0  0
  191.2100  177.0080  143.0770 C   0  0  2  0  0  3  0  0  0  0  0  0
  191.3810  175.7600  143.6840 O   0  0  0  0  0  1  0  0  0  0  0  0
  190.8280  179.2560  143.8380 O   0  0  0  0  0  1  0  0  0  0  0  0
  191.5850  178.1060  144.0700 C   0  0  0  0  0  2  0  0  0  0  0  0
  1  2  2  0  0  0  0
  1  8  1  0  0  0  0
  2 11  1  0  0  0  0
  3  4  1  0  0  0  0
  5  6  1  1  0  0  0
  7  2  1  0  0  0  0
  7 10  1  0  0  0  0
  8  3  2  0  0  0  0
  9  5  1  0  0  0  0
 10 19  1  6  0  0  0
 10  9  1  0  0  0  0
 11  4  2  0  0  0  0
 11  5  1  0  0  0  0
 12  1  1  0  0  0  0
 13 15  2  0  0  0  0
 13 16  1  0  0  0  0
 14 17  1  0  0  0  0
 14 12  2  0  0  0  0
 15 14  1  0  0  0  0
 16 18  2  0  0  0  0
 18 12  1  0  0  0  0
 20 22  1  0  0  0  0
 20 19  1  0  0  0  0
 21 20  1  0  0  0  0
 22 23  1  1  0  0  0
 22 25  1  0  0  0  0
 24 25  1  0  0  0  0
M  END
>  <MODEL>
1

>  <REMARK>
 VINA RESULT:      -8.2      0.000      0.000
  Name = 
  5 active torsions:
  status: ('A' for Active; 'I' for Inactive)
    1  A    between atoms: C_1  and  C_5
    2  A    between atoms: C_2  and  N_15
    3  A    between atoms: C_2  and  C_21
    4  A    between atoms: C_6  and  N_15
    5  A    between atoms: C_6  and  C_23
                            x       y       z     vdW  Elec       q    Type
                         _______ _______ _______ _____ _____    ______ ____

>  <TORSDO>
F 5

$$$$
=
 OpenBabel11052412423D

 25 27  0  0  1  0  0  0  0  0999 V2000
  186.7120  177.8030  145.0560 C   0  0  0  0  0  0  0  0  0  0  0  0
  185.6870  178.2130  144.1720 C   0  0  0  0  0  0  0  0  0  0  0  0
  185.3400  178.3630  146.9070 C   0  0  0  0  0  3  0  0  0  0  0  0
  184.3360  178.7380  146.0770 N   0  0  0  0  0  0  0  0  0  0  0  0
  183.3390  179.1730  143.8550 C   0  0  2  0  0  3  0  0  0  0  0  0
  181.9890  178.7020  144.3670 C   0  0  0  0  0  1  0  0  0  0  0  0
  185.8810  178.1450  142.6780 C   0  0  0  0  0  2  0  0  0  0  0  0
  186.5060  177.9000  146.3970 N   0  0  0  0  0  0  0  0  0  0  0  0
  183.4760  178.7680  142.3910 C   0  0  0  0  0  2  0  0  0  0  0  0
  184.8980  179.0220  141.9130 C   0  0  2  0  0  3  0  0  0  0  0  0
  184.4640  178.6560  144.7260 C   0  0  0  0  0  0  0  0  0  0  0  0
  188.0090  177.2660  144.5770 C   0  0  0  0  0  0  0  0  0  0  0  0
  190.4400  176.1680  143.6900 C   0  0  0  0  0  3  0  0  0  0  0  0
  189.2070  177.5350  145.2690 C   0  0  0  0  0  0  0  0  0  0  0  0
  190.4150  176.9870  144.8210 C   0  0  0  0  0  3  0  0  0  0  0  0
  189.2570  175.8890  143.0050 C   0  0  0  0  0  3  0  0  0  0  0  0
  189.2170  178.3540  146.3920 O   0  0  0  0  0  1  0  0  0  0  0  0
  188.0490  176.4310  143.4480 C   0  0  0  0  0  3  0  0  0  0  0  0
  185.0280  178.8990  140.3820 C   0  0  0  0  0  2  0  0  0  0  0  0
  183.8180  178.4810  139.6480 N   0  0  0  0  0  0  0  0  0  0  0  0
  184.0960  177.3830  138.9010 O   0  0  0  0  0  1  0  0  0  0  0  0
  183.3660  179.5540  138.7560 C   0  0  2  0  0  3  0  0  0  0  0  0
  184.1710  180.6870  138.9080 O   0  0  0  0  0  1  0  0  0  0  0  0
  181.6840  181.2700  138.7260 O   0  0  0  0  0  1  0  0  0  0  0  0
  181.9130  179.9290  139.0380 C   0  0  0  0  0  2  0  0  0  0  0  0
  1  8  1  0  0  0  0
  2 11  1  0  0  0  0
  2  1  2  0  0  0  0
  4  3  1  0  0  0  0
  5  6  1  1  0  0  0
  5 11  1  0  0  0  0
  7  2  1  0  0  0  0
  8  3  2  0  0  0  0
  9  5  1  0  0  0  0
 10 19  1  6  0  0  0
 10  9  1  0  0  0  0
 10  7  1  0  0  0  0
 11  4  2  0  0  0  0
 12  1  1  0  0  0  0
 12 14  1  0  0  0  0
 13 15  1  0  0  0  0
 14 17  1  0  0  0  0
 15 14  2  0  0  0  0
 16 18  1  0  0  0  0
 16 13  2  0  0  0  0
 18 12  2  0  0  0  0
 20 19  1  0  0  0  0
 21 20  1  0  0  0  0
 22 23  1  1  0  0  0
 22 25  1  0  0  0  0
 22 20  1  0  0  0  0
 24 25  1  0  0  0  0
M  END
>  <MODEL>
2

>  <REMARK>
 VINA RESULT:      -8.1      2.273      6.276
  Name = 
  5 active torsions:
  status: ('A' for Active; 'I' for Inactive)
    1  A    between atoms: C_1  and  C_5
    2  A    between atoms: C_2  and  N_15
    3  A    between atoms: C_2  and  C_21
    4  A    between atoms: C_6  and  N_15
    5  A    between atoms: C_6  and  C_23
                            x       y       z     vdW  Elec       q    Type
                         _______ _______ _______ _____ _____    ______ ____

>  <TORSDO>
F 5

$$$$
=
 OpenBabel11052412423D

 25 27  0  0  1  0  0  0  0  0999 V2000
  187.5390  178.1570  146.0160 C   0  0  0  0  0  0  0  0  0  0  0  0
  186.8240  178.2480  144.7990 C   0  0  0  0  0  0  0  0  0  0  0  0
  185.6670  179.0310  147.1810 C   0  0  0  0  0  3  0  0  0  0  0  0
  184.9570  179.1040  146.0290 N   0  0  0  0  0  0  0  0  0  0  0  0
  184.6730  178.8950  143.5800 C   0  0  2  0  0  3  0  0  0  0  0  0
  183.2360  178.4490  143.7840 C   0  0  0  0  0  1  0  0  0  0  0  0
  187.4610  177.8350  143.4960 C   0  0  0  0  0  2  0  0  0  0  0  0
  186.9370  178.5600  147.1680 N   0  0  0  0  0  0  0  0  0  0  0  0
  185.2490  178.1590  142.3750 C   0  0  0  0  0  2  0  0  0  0  0  0
  186.7460  178.4110  142.2790 C   0  0  2  0  0  3  0  0  0  0  0  0
  185.4870  178.7060  144.8410 C   0  0  0  0  0  0  0  0  0  0  0  0
  188.9240  177.6330  146.0880 C   0  0  0  0  0  0  0  0  0  0  0  0
  191.5350  176.5930  146.1550 C   0  0  0  0  0  3  0  0  0  0  0  0
  189.3180  176.7590  147.1230 C   0  0  0  0  0  0  0  0  0  0  0  0
  190.6200  176.2480  147.1520 C   0  0  0  0  0  3  0  0  0  0  0  0
  191.1510  177.4490  145.1230 C   0  0  0  0  0  3  0  0  0  0  0  0
  188.4340  176.4050  148.1360 O   0  0  0  0  0  1  0  0  0  0  0  0
  189.8520  177.9620  145.0880 C   0  0  0  0  0  3  0  0  0  0  0  0
  187.3330  177.9290  140.9380 C   0  0  0  0  0  2  0  0  0  0  0  0
  188.6870  178.4080  140.6000 N   0  0  0  0  0  0  0  0  0  0  0  0
  188.6830  178.9440  139.3540 O   0  0  0  0  0  1  0  0  0  0  0  0
  189.6430  177.2960  140.6300 C   0  0  2  0  0  3  0  0  0  0  0  0
  190.5980  177.5010  141.6320 O   0  0  0  0  0  1  0  0  0  0  0  0
  190.6540  175.7990  139.0450 O   0  0  0  0  0  1  0  0  0  0  0  0
  190.3500  177.1400  139.2860 C   0  0  0  0  0  2  0  0  0  0  0  0
  1 12  1  0  0  0  0
  1  8  1  0  0  0  0
  2 11  1  0  0  0  0
  2  1  2  0  0  0  0
  4  3  1  0  0  0  0
  5  6  1  1  0  0  0
  5 11  1  0  0  0  0
  7  2  1  0  0  0  0
  8  3  2  0  0  0  0
  9  5  1  0  0  0  0
 10 19  1  6  0  0  0
 10  9  1  0  0  0  0
 10  7  1  0  0  0  0
 11  4  2  0  0  0  0
 12 14  1  0  0  0  0
 13 15  1  0  0  0  0
 14 15  2  0  0  0  0
 14 17  1  0  0  0  0
 16 13  2  0  0  0  0
 18 16  1  0  0  0  0
 18 12  2  0  0  0  0
 20 22  1  0  0  0  0
 20 19  1  0  0  0  0
 21 20  1  0  0  0  0
 22 23  1  1  0  0  0
 24 25  1  0  0  0  0
 25 22  1  0  0  0  0
M  END
>  <MODEL>
3

>  <REMARK>
 VINA RESULT:      -8.1      2.292      5.474
  Name = 
  5 active torsions:
  status: ('A' for Active; 'I' for Inactive)
    1  A    between atoms: C_1  and  C_5
    2  A    between atoms: C_2  and  N_15
    3  A    between atoms: C_2  and  C_21
    4  A    between atoms: C_6  and  N_15
    5  A    between atoms: C_6  and  C_23
                            x       y       z     vdW  Elec       q    Type
                         _______ _______ _______ _____ _____    ______ ____

>  <TORSDO>
F 5

$$$$
=
 OpenBabel11052412423D

 25 27  0  0  1  0  0  0  0  0999 V2000
  186.8090  177.8950  145.1180 C   0  0  0  0  0  0  0  0  0  0  0  0
  187.9270  177.6370  144.2910 C   0  0  0  0  0  0  0  0  0  0  0  0
  188.1380  177.4960  147.0410 C   0  0  0  0  0  3  0  0  0  0  0  0
  189.2270  177.2680  146.2670 N   0  0  0  0  0  0  0  0  0  0  0  0
  190.3950  177.0000  144.1030 C   0  0  2  0  0  3  0  0  0  0  0  0
  191.6400  177.6370  144.6940 C   0  0  0  0  0  1  0  0  0  0  0  0
  187.8080  177.7000  142.7890 C   0  0  0  0  0  2  0  0  0  0  0  0
  186.9500  177.8080  146.4680 N   0  0  0  0  0  0  0  0  0  0  0  0
  190.2870  177.4030  142.6360 C   0  0  0  0  0  2  0  0  0  0  0  0
  188.9410  176.9700  142.0760 C   0  0  2  0  0  3  0  0  0  0  0  0
  189.1650  177.3520  144.9110 C   0  0  0  0  0  0  0  0  0  0  0  0
  185.4810  178.2630  144.5690 C   0  0  0  0  0  0  0  0  0  0  0  0
  183.0000  179.0280  143.4890 C   0  0  0  0  0  3  0  0  0  0  0  0
  184.4580  178.7520  145.4080 C   0  0  0  0  0  0  0  0  0  0  0  0
  183.2240  179.1280  144.8640 C   0  0  0  0  0  3  0  0  0  0  0  0
  184.0110  178.5540  142.6510 C   0  0  0  0  0  3  0  0  0  0  0  0
  184.6460  178.8530  146.7820 O   0  0  0  0  0  1  0  0  0  0  0  0
  185.2440  178.1790  143.1880 C   0  0  0  0  0  3  0  0  0  0  0  0
  188.8810  177.0970  140.5400 C   0  0  0  0  0  2  0  0  0  0  0  0
  188.5550  178.4310  140.0000 N   0  0  0  0  0  0  0  0  0  0  0  0
  187.2390  178.4790  139.6730 O   0  0  0  0  0  1  0  0  0  0  0  0
  189.3490  178.7020  138.7980 C   0  0  2  0  0  3  0  0  0  0  0  0
  188.5910  179.4160  137.8630 O   0  0  0  0  0  1  0  0  0  0  0  0
  189.1200  177.1260  136.9980 O   0  0  0  0  0  1  0  0  0  0  0  0
  189.8430  177.4070  138.1590 C   0  0  0  0  0  2  0  0  0  0  0  0
  1  8  1  0  0  0  0
  2 11  1  0  0  0  0
  2  1  2  0  0  0  0
  4  3  1  0  0  0  0
  5  6  1  1  0  0  0
  5 11  1  0  0  0  0
  7  2  1  0  0  0  0
  8  3  2  0  0  0  0
  9  5  1  0  0  0  0
 10 19  1  6  0  0  0
 10  9  1  0  0  0  0
 10  7  1  0  0  0  0
 11  4  2  0  0  0  0
 12  1  1  0  0  0  0
 12 14  1  0  0  0  0
 13 15  1  0  0  0  0
 14 17  1  0  0  0  0
 15 14  2  0  0  0  0
 16 18  1  0  0  0  0
 16 13  2  0  0  0  0
 18 12  2  0  0  0  0
 20 19  1  0  0  0  0
 21 20  1  0  0  0  0
 22 23  1  6  0  0  0
 22 20  1  0  0  0  0
 24 25  1  0  0  0  0
 25 22  1  0  0  0  0
M  END
>  <MODEL>
4

>  <REMARK>
 VINA RESULT:      -8.0      2.724      4.498
  Name = 
  5 active torsions:
  status: ('A' for Active; 'I' for Inactive)
    1  A    between atoms: C_1  and  C_5
    2  A    between atoms: C_2  and  N_15
    3  A    between atoms: C_2  and  C_21
    4  A    between atoms: C_6  and  N_15
    5  A    between atoms: C_6  and  C_23
                            x       y       z     vdW  Elec       q    Type
                         _______ _______ _______ _____ _____    ______ ____

>  <TORSDO>
F 5

$$$$
=
 OpenBabel11052412423D

 25 27  0  0  1  0  0  0  0  0999 V2000
  186.7190  177.9170  144.9070 C   0  0  0  0  0  0  0  0  0  0  0  0
  185.6160  178.2050  144.0710 C   0  0  0  0  0  0  0  0  0  0  0  0
  185.5150  178.7370  146.7780 C   0  0  0  0  0  3  0  0  0  0  0  0
  184.4380  178.9990  145.9980 N   0  0  0  0  0  0  0  0  0  0  0  0
  183.2430  179.1250  143.8360 C   0  0  2  0  0  3  0  0  0  0  0  0
  181.9480  178.7370  144.5280 C   0  0  0  0  0  1  0  0  0  0  0  0
  185.6760  177.9280  142.5890 C   0  0  0  0  0  2  0  0  0  0  0  0
  186.6350  178.2010  146.2350 N   0  0  0  0  0  0  0  0  0  0  0  0
  183.2500  178.5180  142.4360 C   0  0  0  0  0  2  0  0  0  0  0  0
  184.6210  178.6960  141.8010 C   0  0  2  0  0  3  0  0  0  0  0  0
  184.4450  178.7280  144.6650 C   0  0  0  0  0  0  0  0  0  0  0  0
  187.9720  177.3110  144.3930 C   0  0  0  0  0  0  0  0  0  0  0  0
  190.3160  176.0840  143.4430 C   0  0  0  0  0  3  0  0  0  0  0  0
  189.2090  177.5490  145.0270 C   0  0  0  0  0  0  0  0  0  0  0  0
  190.3720  176.9370  144.5470 C   0  0  0  0  0  3  0  0  0  0  0  0
  189.0950  175.8370  142.8150 C   0  0  0  0  0  3  0  0  0  0  0  0
  189.2990  178.4000  146.1220 O   0  0  0  0  0  1  0  0  0  0  0  0
  187.9300  176.4420  143.2900 C   0  0  0  0  0  3  0  0  0  0  0  0
  184.6140  178.3590  140.2970 C   0  0  0  0  0  2  0  0  0  0  0  0
  185.3170  179.3020  139.4060 N   0  0  0  0  0  0  0  0  0  0  0  0
  184.4770  180.3060  139.0510 O   0  0  0  0  0  1  0  0  0  0  0  0
  185.7700  178.6160  138.1910 C   0  0  2  0  0  3  0  0  0  0  0  0
  184.8330  177.6550  137.7960 O   0  0  0  0  0  1  0  0  0  0  0  0
  187.8830  178.6560  139.3350 O   0  0  0  0  0  1  0  0  0  0  0  0
  187.1210  177.9400  138.4110 C   0  0  0  0  0  2  0  0  0  0  0  0
  1  8  1  0  0  0  0
  2 11  1  0  0  0  0
  2  1  2  0  0  0  0
  4  3  1  0  0  0  0
  5  6  1  1  0  0  0
  5 11  1  0  0  0  0
  7  2  1  0  0  0  0
  8  3  2  0  0  0  0
  9  5  1  0  0  0  0
 10 19  1  6  0  0  0
 10  9  1  0  0  0  0
 10  7  1  0  0  0  0
 11  4  2  0  0  0  0
 12  1  1  0  0  0  0
 12 14  1  0  0  0  0
 13 15  1  0  0  0  0
 14 17  1  0  0  0  0
 15 14  2  0  0  0  0
 16 18  1  0  0  0  0
 16 13  2  0  0  0  0
 18 12  2  0  0  0  0
 20 19  1  0  0  0  0
 21 20  1  0  0  0  0
 22 23  1  1  0  0  0
 22 25  1  0  0  0  0
 22 20  1  0  0  0  0
 25 24  1  0  0  0  0
M  END
>  <MODEL>
5

>  <REMARK>
 VINA RESULT:      -8.0      2.041      5.517
  Name = 
  5 active torsions:
  status: ('A' for Active; 'I' for Inactive)
    1  A    between atoms: C_1  and  C_5
    2  A    between atoms: C_2  and  N_15
    3  A    between atoms: C_2  and  C_21
    4  A    between atoms: C_6  and  N_15
    5  A    between atoms: C_6  and  C_23
                            x       y       z     vdW  Elec       q    Type
                         _______ _______ _______ _____ _____    ______ ____

>  <TORSDO>
F 5

$$$$
=
 OpenBabel11052412423D

 25 27  0  0  1  0  0  0  0  0999 V2000
  189.8360  177.7460  142.2470 C   0  0  0  0  0  0  0  0  0  0  0  0
  189.0780  177.7070  143.4400 C   0  0  0  0  0  0  0  0  0  0  0  0
  191.8330  177.8750  143.5190 C   0  0  0  0  0  3  0  0  0  0  0  0
  191.1270  177.8140  144.6740 N   0  0  0  0  0  0  0  0  0  0  0  0
  189.0370  177.7330  145.9950 C   0  0  2  0  0  3  0  0  0  0  0  0
  189.7160  176.8350  147.0150 C   0  0  0  0  0  1  0  0  0  0  0  0
  187.5720  177.6290  143.3970 C   0  0  0  0  0  2  0  0  0  0  0  0
  191.1910  177.8370  142.3260 N   0  0  0  0  0  0  0  0  0  0  0  0
  187.5730  177.3230  145.8800 C   0  0  0  0  0  2  0  0  0  0  0  0
  186.9220  178.0470  144.7110 C   0  0  2  0  0  3  0  0  0  0  0  0
  189.7710  177.7070  144.6720 C   0  0  0  0  0  0  0  0  0  0  0  0
  189.2090  177.6880  140.9030 C   0  0  0  0  0  0  0  0  0  0  0  0
  187.9540  177.5410  138.3920 C   0  0  0  0  0  3  0  0  0  0  0  0
  189.7200  176.8410  139.8980 C   0  0  0  0  0  0  0  0  0  0  0  0
  189.0920  176.7750  138.6500 C   0  0  0  0  0  3  0  0  0  0  0  0
  187.4360  178.3760  139.3840 C   0  0  0  0  0  3  0  0  0  0  0  0
  190.8570  176.0720  140.1210 O   0  0  0  0  0  1  0  0  0  0  0  0
  188.0580  178.4450  140.6320 C   0  0  0  0  0  3  0  0  0  0  0  0
  185.3880  177.8930  144.7120 C   0  0  0  0  0  2  0  0  0  0  0  0
  184.6010  179.1250  144.9100 N   0  0  0  0  0  0  0  0  0  0  0  0
  183.9430  179.0600  146.0940 O   0  0  0  0  0  1  0  0  0  0  0  0
  183.6160  179.2810  143.8340 C   0  0  2  0  0  3  0  0  0  0  0  0
  182.3970  178.7020  144.2000 O   0  0  0  0  0  1  0  0  0  0  0  0
  184.9590  179.5070  141.8530 O   0  0  0  0  0  1  0  0  0  0  0  0
  184.1080  178.6380  142.5390 C   0  0  0  0  0  2  0  0  0  0  0  0
  1  8  2  0  0  0  0
  1  2  1  0  0  0  0
  2 11  2  0  0  0  0
  3  4  2  0  0  0  0
  5  6  1  1  0  0  0
  7  2  1  0  0  0  0
  7 10  1  0  0  0  0
  8  3  1  0  0  0  0
  9  5  1  0  0  0  0
 10 19  1  6  0  0  0
 10  9  1  0  0  0  0
 11  4  1  0  0  0  0
 11  5  1  0  0  0  0
 12  1  1  0  0  0  0
 13 15  2  0  0  0  0
 13 16  1  0  0  0  0
 14 17  1  0  0  0  0
 14 12  2  0  0  0  0
 15 14  1  0  0  0  0
 16 18  2  0  0  0  0
 18 12  1  0  0  0  0
 19 20  1  0  0  0  0
 20 21  1  0  0  0  0
 22 23  1  1  0  0  0
 22 20  1  0  0  0  0
 24 25  1  0  0  0  0
 25 22  1  0  0  0  0
M  END
>  <MODEL>
6

>  <REMARK>
 VINA RESULT:      -7.8      2.510      5.671
  Name = 
  5 active torsions:
  status: ('A' for Active; 'I' for Inactive)
    1  A    between atoms: C_1  and  C_5
    2  A    between atoms: C_2  and  N_15
    3  A    between atoms: C_2  and  C_21
    4  A    between atoms: C_6  and  N_15
    5  A    between atoms: C_6  and  C_23
                            x       y       z     vdW  Elec       q    Type
                         _______ _______ _______ _____ _____    ______ ____

>  <TORSDO>
F 5

$$$$
=
 OpenBabel11052412423D

 25 27  0  0  1  0  0  0  0  0999 V2000
  187.1190  177.7070  144.9140 C   0  0  0  0  0  0  0  0  0  0  0  0
  186.1110  178.1730  144.0380 C   0  0  0  0  0  0  0  0  0  0  0  0
  185.7490  178.2470  146.7740 C   0  0  0  0  0  3  0  0  0  0  0  0
  184.7620  178.6760  145.9500 N   0  0  0  0  0  0  0  0  0  0  0  0
  183.7930  179.2070  143.7370 C   0  0  2  0  0  3  0  0  0  0  0  0
  182.4280  178.7580  144.2260 C   0  0  0  0  0  1  0  0  0  0  0  0
  186.3150  178.1460  142.5430 C   0  0  0  0  0  2  0  0  0  0  0  0
  186.9070  177.7680  146.2570 N   0  0  0  0  0  0  0  0  0  0  0  0
  183.9290  178.8440  142.2610 C   0  0  0  0  0  2  0  0  0  0  0  0
  185.3610  179.0740  141.8000 C   0  0  2  0  0  3  0  0  0  0  0  0
  184.8970  178.6320  144.5980 C   0  0  0  0  0  0  0  0  0  0  0  0
  188.4040  177.1490  144.4270 C   0  0  0  0  0  0  0  0  0  0  0  0
  190.8110  176.0130  143.5240 C   0  0  0  0  0  3  0  0  0  0  0  0
  189.6120  177.4050  145.1070 C   0  0  0  0  0  0  0  0  0  0  0  0
  190.8080  176.8390  144.6510 C   0  0  0  0  0  3  0  0  0  0  0  0
  189.6180  175.7480  142.8510 C   0  0  0  0  0  3  0  0  0  0  0  0
  189.6430  178.2310  146.2250 O   0  0  0  0  0  1  0  0  0  0  0  0
  188.4220  176.3090  143.3020 C   0  0  0  0  0  3  0  0  0  0  0  0
  185.4980  178.9950  140.2670 C   0  0  0  0  0  2  0  0  0  0  0  0
  186.6500  178.2340  139.7460 N   0  0  0  0  0  0  0  0  0  0  0  0
  187.7830  178.9650  139.8940 O   0  0  0  0  0  1  0  0  0  0  0  0
  186.4650  177.9390  138.3210 C   0  0  2  0  0  3  0  0  0  0  0  0
  186.9720  178.9800  137.5370 O   0  0  0  0  0  1  0  0  0  0  0  0
  184.8240  177.4850  136.6240 O   0  0  0  0  0  1  0  0  0  0  0  0
  184.9890  177.7310  137.9890 C   0  0  0  0  0  2  0  0  0  0  0  0
  1  8  1  0  0  0  0
  2 11  1  0  0  0  0
  2  1  2  0  0  0  0
  4  3  1  0  0  0  0
  5  6  1  1  0  0  0
  5 11  1  0  0  0  0
  7  2  1  0  0  0  0
  8  3  2  0  0  0  0
  9  5  1  0  0  0  0
 10 19  1  6  0  0  0
 10  9  1  0  0  0  0
 10  7  1  0  0  0  0
 11  4  2  0  0  0  0
 12  1  1  0  0  0  0
 12 14  1  0  0  0  0
 13 15  1  0  0  0  0
 14 17  1  0  0  0  0
 15 14  2  0  0  0  0
 16 18  1  0  0  0  0
 16 13  2  0  0  0  0
 18 12  2  0  0  0  0
 20 21  1  0  0  0  0
 20 19  1  0  0  0  0
 22 23  1  6  0  0  0
 22 20  1  0  0  0  0
 24 25  1  0  0  0  0
 25 22  1  0  0  0  0
M  END
>  <MODEL>
7

>  <REMARK>
 VINA RESULT:      -7.7      2.110      5.675
  Name = 
  5 active torsions:
  status: ('A' for Active; 'I' for Inactive)
    1  A    between atoms: C_1  and  C_5
    2  A    between atoms: C_2  and  N_15
    3  A    between atoms: C_2  and  C_21
    4  A    between atoms: C_6  and  N_15
    5  A    between atoms: C_6  and  C_23
                            x       y       z     vdW  Elec       q    Type
                         _______ _______ _______ _____ _____    ______ ____

>  <TORSDO>
F 5

$$$$
=
 OpenBabel11052412423D

 25 27  0  0  1  0  0  0  0  0999 V2000
  189.3160  177.0740  144.4330 C   0  0  0  0  0  0  0  0  0  0  0  0
  188.5790  177.4980  143.3040 C   0  0  0  0  0  0  0  0  0  0  0  0
  190.9390  176.0950  143.0080 C   0  0  0  0  0  3  0  0  0  0  0  0
  190.2600  176.5130  141.9120 N   0  0  0  0  0  0  0  0  0  0  0  0
  188.3520  177.5860  140.7590 C   0  0  2  0  0  3  0  0  0  0  0  0
  189.2930  178.1120  139.6900 C   0  0  0  0  0  1  0  0  0  0  0  0
  187.2830  178.2510  143.4650 C   0  0  0  0  0  2  0  0  0  0  0  0
  190.4700  176.3780  144.2470 N   0  0  0  0  0  0  0  0  0  0  0  0
  187.2490  178.6140  140.9900 C   0  0  0  0  0  2  0  0  0  0  0  0
  186.4230  178.2250  142.2070 C   0  0  2  0  0  3  0  0  0  0  0  0
  189.1070  177.2260  142.0200 C   0  0  0  0  0  0  0  0  0  0  0  0
  188.8820  177.3620  145.8220 C   0  0  0  0  0  0  0  0  0  0  0  0
  188.0360  177.9870  148.4290 C   0  0  0  0  0  3  0  0  0  0  0  0
  189.8190  177.4630  146.8710 C   0  0  0  0  0  0  0  0  0  0  0  0
  189.3910  177.7720  148.1670 C   0  0  0  0  0  3  0  0  0  0  0  0
  187.1030  177.8980  147.3950 C   0  0  0  0  0  3  0  0  0  0  0  0
  191.1730  177.2450  146.6440 O   0  0  0  0  0  1  0  0  0  0  0  0
  187.5250  177.5920  146.0990 C   0  0  0  0  0  3  0  0  0  0  0  0
  185.1340  179.0610  142.3270 C   0  0  0  0  0  2  0  0  0  0  0  0
  183.8640  178.3120  142.3860 N   0  0  0  0  0  0  0  0  0  0  0  0
  183.0920  178.6390  141.3200 O   0  0  0  0  0  1  0  0  0  0  0  0
  183.1340  178.6410  143.6150 C   0  0  2  0  0  3  0  0  0  0  0  0
  181.9290  179.2820  143.3090 O   0  0  0  0  0  1  0  0  0  0  0  0
  184.0430  179.0010  145.8100 O   0  0  0  0  0  1  0  0  0  0  0  0
  183.9640  179.5420  144.5250 C   0  0  0  0  0  2  0  0  0  0  0  0
  1 12  1  0  0  0  0
  2  7  1  0  0  0  0
  2  1  2  0  0  0  0
  3  8  2  0  0  0  0
  4 11  2  0  0  0  0
  4  3  1  0  0  0  0
  5  6  1  6  0  0  0
  5  9  1  0  0  0  0
  5 11  1  0  0  0  0
  8  1  1  0  0  0  0
  9 10  1  0  0  0  0
 10 19  1  1  0  0  0
 10  7  1  0  0  0  0
 11  2  1  0  0  0  0
 12 18  2  0  0  0  0
 12 14  1  0  0  0  0
 14 15  2  0  0  0  0
 15 13  1  0  0  0  0
 16 13  2  0  0  0  0
 17 14  1  0  0  0  0
 18 16  1  0  0  0  0
 19 20  1  0  0  0  0
 20 22  1  0  0  0  0
 21 20  1  0  0  0  0
 22 23  1  6  0  0  0
 22 25  1  0  0  0  0
 25 24  1  0  0  0  0
M  END
>  <MODEL>
8

>  <REMARK>
 VINA RESULT:      -7.7      2.464      7.018
  Name = 
  5 active torsions:
  status: ('A' for Active; 'I' for Inactive)
    1  A    between atoms: C_1  and  C_5
    2  A    between atoms: C_2  and  N_15
    3  A    between atoms: C_2  and  C_21
    4  A    between atoms: C_6  and  N_15
    5  A    between atoms: C_6  and  C_23
                            x       y       z     vdW  Elec       q    Type
                         _______ _______ _______ _____ _____    ______ ____

>  <TORSDO>
F 5

$$$$
=
 OpenBabel11052412423D

 25 27  0  0  1  0  0  0  0  0999 V2000
  185.2300  178.4770  144.6190 C   0  0  0  0  0  0  0  0  0  0  0  0
  186.5230  177.9380  144.8080 C   0  0  0  0  0  0  0  0  0  0  0  0
  185.0200  178.7940  146.9600 C   0  0  0  0  0  3  0  0  0  0  0  0
  186.2670  178.3030  147.1600 N   0  0  0  0  0  0  0  0  0  0  0  0
  188.3920  177.2740  146.4200 C   0  0  2  0  0  3  0  0  0  0  0  0
  189.1460  178.0800  147.4620 C   0  0  0  0  0  1  0  0  0  0  0  0
  187.3390  177.4560  143.6340 C   0  0  0  0  0  2  0  0  0  0  0  0
  184.5160  178.8800  145.7050 N   0  0  0  0  0  0  0  0  0  0  0  0
  189.2730  177.1230  145.1840 C   0  0  0  0  0  2  0  0  0  0  0  0
  188.4680  176.5190  144.0440 C   0  0  2  0  0  3  0  0  0  0  0  0
  187.0440  177.8940  146.1210 C   0  0  0  0  0  0  0  0  0  0  0  0
  184.6160  178.6240  143.2770 C   0  0  0  0  0  0  0  0  0  0  0  0
  183.4820  178.9850  140.7300 C   0  0  0  0  0  3  0  0  0  0  0  0
  183.2150  178.6460  143.1160 C   0  0  0  0  0  0  0  0  0  0  0  0
  182.6570  178.8220  141.8450 C   0  0  0  0  0  3  0  0  0  0  0  0
  184.8690  178.9740  140.8810 C   0  0  0  0  0  3  0  0  0  0  0  0
  182.3670  178.4770  144.2050 O   0  0  0  0  0  1  0  0  0  0  0  0
  185.4320  178.7990  142.1470 C   0  0  0  0  0  3  0  0  0  0  0  0
  189.3630  176.0850  142.8650 C   0  0  0  0  0  2  0  0  0  0  0  0
  189.7870  177.1470  141.9320 N   0  0  0  0  0  0  0  0  0  0  0  0
  189.1850  176.9630  140.7310 O   0  0  0  0  0  1  0  0  0  0  0  0
  191.2400  177.1080  141.7410 C   0  0  2  0  0  3  0  0  0  0  0  0
  191.8700  178.0120  142.6030 O   0  0  0  0  0  1  0  0  0  0  0  0
  193.0000  177.3820  140.1280 O   0  0  0  0  0  1  0  0  0  0  0  0
  191.6160  177.4420  140.3000 C   0  0  0  0  0  2  0  0  0  0  0  0
  1  2  2  0  0  0  0
  1  8  1  0  0  0  0
  2 11  1  0  0  0  0
  3  4  1  0  0  0  0
  5  6  1  1  0  0  0
  7 10  1  0  0  0  0
  7  2  1  0  0  0  0
  8  3  2  0  0  0  0
  9  5  1  0  0  0  0
 10 19  1  6  0  0  0
 10  9  1  0  0  0  0
 11  5  1  0  0  0  0
 11  4  2  0  0  0  0
 12  1  1  0  0  0  0
 13 16  2  0  0  0  0
 13 15  1  0  0  0  0
 14 12  1  0  0  0  0
 14 17  1  0  0  0  0
 15 14  2  0  0  0  0
 16 18  1  0  0  0  0
 18 12  2  0  0  0  0
 20 19  1  0  0  0  0
 21 20  1  0  0  0  0
 22 20  1  0  0  0  0
 22 23  1  1  0  0  0
 24 25  1  0  0  0  0
 25 22  1  0  0  0  0
M  END
>  <MODEL>
9

>  <REMARK>
 VINA RESULT:      -7.7      1.775      2.412
  Name = 
  5 active torsions:
  status: ('A' for Active; 'I' for Inactive)
    1  A    between atoms: C_1  and  C_5
    2  A    between atoms: C_2  and  N_15
    3  A    between atoms: C_2  and  C_21
    4  A    between atoms: C_6  and  N_15
    5  A    between atoms: C_6  and  C_23
                            x       y       z     vdW  Elec       q    Type
                         _______ _______ _______ _____ _____    ______ ____

>  <TORSDO>
F 5

$$$$
