=
 OpenBabel11052413143D

 31 35  0  0  1  0  0  0  0  0999 V2000
  185.1440  178.3180  144.5430 C   0  0  2  0  0  3  0  0  0  0  0  0
  188.6870  177.6430  143.4200 C   0  0  0  0  0  0  0  0  0  0  0  0
  189.4210  177.5800  144.6250 C   0  0  0  0  0  0  0  0  0  0  0  0
  188.8120  176.8570  146.9070 C   0  0  0  0  0  3  0  0  0  0  0  0
  187.2600  177.8760  143.3550 N   0  0  0  0  0  0  0  0  0  0  0  0
  184.4630  178.4750  143.1820 C   0  0  0  0  0  2  0  0  0  0  0  0
  188.7990  177.9800  145.9260 C   0  0  0  0  0  2  0  0  0  0  0  0
  188.5860  177.6270  140.9360 C   0  0  2  0  0  3  0  0  0  0  0  0
  185.5060  179.6700  145.1350 C   0  0  0  0  0  1  0  0  0  0  0  0
  191.3900  177.1330  143.3490 N   0  0  0  0  0  0  0  0  0  0  0  0
  189.9380  176.3380  147.3920 C   0  0  0  0  0  3  0  0  0  0  0  0
  187.5670  178.5830  141.1080 O   0  0  0  0  0  0  0  0  0  0  0  0
  189.3770  177.5130  142.2110 C   0  0  0  0  0  0  0  0  0  0  0  0
  186.3780  177.4240  144.4340 C   0  0  0  0  0  2  0  0  0  0  0  0
  191.2960  176.7320  146.9740 C   0  0  0  0  0  3  0  0  0  0  0  0
  186.6430  178.0470  142.0260 C   0  0  2  0  0  3  0  0  0  0  0  0
  185.4410  178.9800  142.1240 C   0  0  0  0  0  2  0  0  0  0  0  0
  190.7070  177.2420  142.2110 N   0  0  0  0  0  0  0  0  0  0  0  0
  190.8000  177.2850  144.5630 C   0  0  0  0  0  0  0  0  0  0  0  0
  191.6620  177.1470  145.7560 C   0  0  0  0  0  3  0  0  0  0  0  0
  189.4720  178.0330  139.7590 C   0  0  0  0  0  2  0  0  0  0  0  0
  191.1400  176.7240  138.3540 C   0  0  0  0  0  1  0  0  0  0  0  0
  189.6810  176.9020  138.7500 C   0  0  2  0  0  3  0  0  0  0  0  0
  186.4370  177.0810  136.0340 C   0  0  2  0  0  3  0  0  0  0  0  0
  188.3370  178.1710  137.1670 C   0  0  0  0  0  3  0  0  0  0  0  0
  188.8360  174.5250  136.9190 C   0  0  0  0  0  1  0  0  0  0  0  0
  185.2990  177.1980  134.6260 S   0  0  0  0  0  1  0  0  0  0  0  0
  187.2850  178.3440  136.1090 C   0  0  0  0  0  2  0  0  0  0  0  0
  187.9310  175.7320  137.0940 C   0  0  1  0  0  3  0  0  0  0  0  0
  188.7080  176.9530  137.5940 C   0  0  0  0  0  0  0  0  0  0  0  0
  187.2870  175.9770  135.8600 O   0  0  0  0  0  0  0  0  0  0  0  0
  1  9  1  6  0  0  0
  2  3  1  0  0  0  0
  3  7  1  0  0  0  0
  4 11  2  0  0  0  0
  5  2  1  0  0  0  0
  5 14  1  0  0  0  0
  6  1  1  0  0  0  0
  7  4  1  0  0  0  0
  8 21  1  6  0  0  0
  8 12  1  0  0  0  0
  8 13  1  0  0  0  0
 10 19  1  0  0  0  0
 12 16  1  0  0  0  0
 13  2  2  0  0  0  0
 14  1  1  0  0  0  0
 15 11  1  0  0  0  0
 16 17  1  1  0  0  0
 16  5  1  0  0  0  0
 17  6  1  0  0  0  0
 18 13  1  0  0  0  0
 18 10  2  0  0  0  0
 19  3  2  0  0  0  0
 19 20  1  0  0  0  0
 20 15  2  0  0  0  0
 23 22  1  6  0  0  0
 23 21  1  0  0  0  0
 24 27  1  6  0  0  0
 24 28  1  0  0  0  0
 25 30  2  0  0  0  0
 28 25  1  0  0  0  0
 29 26  1  6  0  0  0
 29 30  1  0  0  0  0
 30 23  1  0  0  0  0
 31 24  1  0  0  0  0
 31 29  1  0  0  0  0
M  END
>  <MODEL>
1

>  <REMARK>
 VINA RESULT:      -9.7      0.000      0.000
  Name = 
  3 active torsions:
  status: ('A' for Active; 'I' for Inactive)
    1  A    between atoms: C_9  and  C_22
    2  A    between atoms: C_9  and  C_23
    3  A    between atoms: C_15  and  C_23
                            x       y       z     vdW  Elec       q    Type
                         _______ _______ _______ _____ _____    ______ ____

>  <TORSDO>
F 3

$$$$
=
 OpenBabel11052413143D

 31 35  0  0  1  0  0  0  0  0999 V2000
  185.0520  178.2440  144.7980 C   0  0  2  0  0  3  0  0  0  0  0  0
  188.5360  177.8400  143.3960 C   0  0  0  0  0  0  0  0  0  0  0  0
  189.3520  177.7090  144.5410 C   0  0  0  0  0  0  0  0  0  0  0  0
  188.9300  176.7630  146.7840 C   0  0  0  0  0  3  0  0  0  0  0  0
  187.1000  178.0080  143.4430 N   0  0  0  0  0  0  0  0  0  0  0  0
  184.2740  178.4840  143.5020 C   0  0  0  0  0  2  0  0  0  0  0  0
  188.8030  177.9640  145.9100 C   0  0  0  0  0  2  0  0  0  0  0  0
  188.2690  178.0340  140.9320 C   0  0  2  0  0  3  0  0  0  0  0  0
  185.3950  179.5550  145.4840 C   0  0  0  0  0  1  0  0  0  0  0  0
  191.2480  177.4690  143.1080 N   0  0  0  0  0  0  0  0  0  0  0  0
  190.1070  176.2590  147.1490 C   0  0  0  0  0  3  0  0  0  0  0  0
  187.2240  178.9210  141.2530 O   0  0  0  0  0  0  0  0  0  0  0  0
  189.1480  177.8480  142.1390 C   0  0  0  0  0  0  0  0  0  0  0  0
  186.3130  177.4230  144.5310 C   0  0  0  0  0  2  0  0  0  0  0  0
  191.4160  176.7530  146.6820 C   0  0  0  0  0  3  0  0  0  0  0  0
  186.3880  178.2640  142.1760 C   0  0  2  0  0  3  0  0  0  0  0  0
  185.1570  179.1250  142.4330 C   0  0  0  0  0  2  0  0  0  0  0  0
  190.4860  177.6430  142.0310 N   0  0  0  0  0  0  0  0  0  0  0  0
  190.7350  177.4880  144.3670 C   0  0  0  0  0  0  0  0  0  0  0  0
  191.6810  177.2890  145.4850 C   0  0  0  0  0  3  0  0  0  0  0  0
  189.0560  178.5820  139.7430 C   0  0  0  0  0  2  0  0  0  0  0  0
  187.1450  177.5010  138.4580 C   0  0  0  0  0  1  0  0  0  0  0  0
  188.5690  178.0330  138.4000 C   0  0  2  0  0  3  0  0  0  0  0  0
  191.8410  176.0020  136.6360 C   0  0  2  0  0  3  0  0  0  0  0  0
  190.3370  176.3680  138.5560 C   0  0  0  0  0  3  0  0  0  0  0  0
  188.6980  177.2730  135.3790 C   0  0  0  0  0  1  0  0  0  0  0  0
  193.0300  174.8500  135.8960 S   0  0  0  0  0  1  0  0  0  0  0  0
  191.4450  175.5060  138.0210 C   0  0  0  0  0  2  0  0  0  0  0  0
  189.9350  177.1850  136.2570 C   0  0  1  0  0  3  0  0  0  0  0  0
  189.5690  177.1090  137.7420 C   0  0  0  0  0  0  0  0  0  0  0  0
  190.6900  176.0680  135.8350 O   0  0  0  0  0  0  0  0  0  0  0  0
  1  9  1  6  0  0  0
  2  5  1  0  0  0  0
  2  3  1  0  0  0  0
  3  7  1  0  0  0  0
  4 11  2  0  0  0  0
  5 14  1  0  0  0  0
  6  1  1  0  0  0  0
  7  4  1  0  0  0  0
  8 21  1  6  0  0  0
  8 12  1  0  0  0  0
  8 13  1  0  0  0  0
 10 19  1  0  0  0  0
 12 16  1  0  0  0  0
 13  2  2  0  0  0  0
 14  1  1  0  0  0  0
 15 11  1  0  0  0  0
 16 17  1  1  0  0  0
 16  5  1  0  0  0  0
 17  6  1  0  0  0  0
 18 13  1  0  0  0  0
 18 10  2  0  0  0  0
 19  3  2  0  0  0  0
 19 20  1  0  0  0  0
 20 15  2  0  0  0  0
 23 22  1  1  0  0  0
 23 21  1  0  0  0  0
 24 27  1  6  0  0  0
 24 28  1  0  0  0  0
 28 25  1  0  0  0  0
 29 26  1  6  0  0  0
 29 30  1  0  0  0  0
 30 23  1  0  0  0  0
 30 25  2  0  0  0  0
 31 29  1  0  0  0  0
 31 24  1  0  0  0  0
M  END
>  <MODEL>
2

>  <REMARK>
 VINA RESULT:      -9.3      1.862      2.456
  Name = 
  3 active torsions:
  status: ('A' for Active; 'I' for Inactive)
    1  A    between atoms: C_9  and  C_22
    2  A    between atoms: C_9  and  C_23
    3  A    between atoms: C_15  and  C_23
                            x       y       z     vdW  Elec       q    Type
                         _______ _______ _______ _____ _____    ______ ____

>  <TORSDO>
F 3

$$$$
=
 OpenBabel11052413143D

 31 35  0  0  1  0  0  0  0  0999 V2000
  189.7420  176.3050  136.5090 C   0  0  2  0  0  3  0  0  0  0  0  0
  188.2600  177.6000  139.7330 C   0  0  0  0  0  0  0  0  0  0  0  0
  186.9990  178.1090  139.3490 C   0  0  0  0  0  0  0  0  0  0  0  0
  185.4150  177.4590  137.5690 C   0  0  0  0  0  3  0  0  0  0  0  0
  189.1940  176.9820  138.8170 N   0  0  0  0  0  0  0  0  0  0  0  0
  191.1250  175.8830  137.0070 C   0  0  0  0  0  2  0  0  0  0  0  0
  186.6330  178.2490  137.9040 C   0  0  0  0  0  2  0  0  0  0  0  0
  190.0160  177.2230  141.4500 C   0  0  2  0  0  3  0  0  0  0  0  0
  189.7830  177.6880  135.8810 C   0  0  0  0  0  1  0  0  0  0  0  0
  186.5890  178.6900  141.6300 N   0  0  0  0  0  0  0  0  0  0  0  0
  184.2180  177.7250  138.0890 C   0  0  0  0  0  3  0  0  0  0  0  0
  190.9110  177.4550  140.3890 O   0  0  0  0  0  0  0  0  0  0  0  0
  188.6530  177.7310  141.0680 C   0  0  0  0  0  0  0  0  0  0  0  0
  188.7170  176.2510  137.6400 C   0  0  0  0  0  2  0  0  0  0  0  0
  183.9530  178.7580  139.1080 C   0  0  0  0  0  3  0  0  0  0  0  0
  190.5280  176.6120  139.3280 C   0  0  2  0  0  3  0  0  0  0  0  0
  191.5610  176.7140  138.2120 C   0  0  0  0  0  2  0  0  0  0  0  0
  187.7970  178.2550  141.9830 N   0  0  0  0  0  0  0  0  0  0  0  0
  186.1480  178.6340  140.3460 C   0  0  0  0  0  0  0  0  0  0  0  0
  184.7910  179.1520  140.0750 C   0  0  0  0  0  3  0  0  0  0  0  0
  190.5370  177.9060  142.7140 C   0  0  0  0  0  2  0  0  0  0  0  0
  191.1780  175.5010  143.2380 C   0  0  0  0  0  1  0  0  0  0  0  0
  191.0140  176.9150  143.7770 C   0  0  2  0  0  3  0  0  0  0  0  0
  189.0050  177.9180  147.3680 C   0  0  2  0  0  3  0  0  0  0  0  0
  188.9350  177.3250  144.9750 C   0  0  0  0  0  3  0  0  0  0  0  0
  191.9670  175.9940  146.5990 C   0  0  0  0  0  1  0  0  0  0  0  0
  188.0210  178.0170  148.8890 S   0  0  0  0  0  1  0  0  0  0  0  0
  188.0950  177.5730  146.1960 C   0  0  0  0  0  2  0  0  0  0  0  0
  190.9050  177.0690  146.4500 C   0  0  1  0  0  3  0  0  0  0  0  0
  190.2390  177.0170  145.0710 C   0  0  0  0  0  0  0  0  0  0  0  0
  189.9730  176.9110  147.5000 O   0  0  0  0  0  0  0  0  0  0  0  0
  1  9  1  1  0  0  0
  1  6  1  0  0  0  0
  1 14  1  0  0  0  0
  2 13  1  0  0  0  0
  3  2  2  0  0  0  0
  3 19  1  0  0  0  0
  4  7  1  0  0  0  0
  4 11  2  0  0  0  0
  5 16  1  0  0  0  0
  5  2  1  0  0  0  0
  6 17  1  0  0  0  0
  7  3  1  0  0  0  0
  8 21  1  1  0  0  0
 10 18  1  0  0  0  0
 11 15  1  0  0  0  0
 12  8  1  0  0  0  0
 13  8  1  0  0  0  0
 13 18  2  0  0  0  0
 14  5  1  0  0  0  0
 15 20  2  0  0  0  0
 16 17  1  6  0  0  0
 16 12  1  0  0  0  0
 19 10  2  0  0  0  0
 20 19  1  0  0  0  0
 21 23  1  0  0  0  0
 23 22  1  6  0  0  0
 23 30  1  0  0  0  0
 24 31  1  0  0  0  0
 24 27  1  1  0  0  0
 25 30  2  0  0  0  0
 25 28  1  0  0  0  0
 28 24  1  0  0  0  0
 29 26  1  6  0  0  0
 29 31  1  0  0  0  0
 30 29  1  0  0  0  0
M  END
>  <MODEL>
3

>  <REMARK>
 VINA RESULT:      -9.2      3.434      8.161
  Name = 
  3 active torsions:
  status: ('A' for Active; 'I' for Inactive)
    1  A    between atoms: C_9  and  C_22
    2  A    between atoms: C_9  and  C_23
    3  A    between atoms: C_15  and  C_23
                            x       y       z     vdW  Elec       q    Type
                         _______ _______ _______ _____ _____    ______ ____

>  <TORSDO>
F 3

$$$$
=
 OpenBabel11052413143D

 31 35  0  0  1  0  0  0  0  0999 V2000
  185.8710  177.9810  146.6200 C   0  0  2  0  0  3  0  0  0  0  0  0
  187.3020  178.0830  143.1250 C   0  0  0  0  0  0  0  0  0  0  0  0
  188.6950  177.9530  143.3220 C   0  0  0  0  0  0  0  0  0  0  0  0
  190.0290  176.7910  145.0460 C   0  0  0  0  0  3  0  0  0  0  0  0
  186.3310  178.0850  144.1980 N   0  0  0  0  0  0  0  0  0  0  0  0
  184.3960  178.2350  146.3060 C   0  0  0  0  0  2  0  0  0  0  0  0
  189.2890  178.0360  144.6940 C   0  0  0  0  0  2  0  0  0  0  0  0
  185.3460  178.4410  141.6340 C   0  0  2  0  0  3  0  0  0  0  0  0
  186.5750  179.2640  147.0290 C   0  0  0  0  0  1  0  0  0  0  0  0
  188.9930  178.0430  140.9540 N   0  0  0  0  0  0  0  0  0  0  0  0
  191.1210  176.3950  144.3960 C   0  0  0  0  0  3  0  0  0  0  0  0
  184.8290  179.1770  142.7180 O   0  0  0  0  0  0  0  0  0  0  0  0
  186.8270  178.2600  141.8220 C   0  0  0  0  0  0  0  0  0  0  0  0
  186.5750  177.3310  145.4300 C   0  0  0  0  0  2  0  0  0  0  0  0
  191.6880  177.0670  143.2130 C   0  0  0  0  0  3  0  0  0  0  0  0
  184.9220  178.3590  143.8600 C   0  0  2  0  0  3  0  0  0  0  0  0
  184.2310  179.0540  145.0270 C   0  0  0  0  0  2  0  0  0  0  0  0
  187.6860  178.2140  140.7720 N   0  0  0  0  0  0  0  0  0  0  0  0
  189.5380  177.9030  142.1910 C   0  0  0  0  0  0  0  0  0  0  0  0
  191.0030  177.7230  142.2680 C   0  0  0  0  0  3  0  0  0  0  0  0
  185.0290  179.1660  140.3280 C   0  0  0  0  0  2  0  0  0  0  0  0
  184.5880  177.9620  138.1310 C   0  0  0  0  0  1  0  0  0  0  0  0
  184.0110  178.4220  139.4620 C   0  0  2  0  0  3  0  0  0  0  0  0
  180.5090  180.7800  139.7980 C   0  0  2  0  0  3  0  0  0  0  0  0
  182.6630  180.2990  138.6970 C   0  0  0  0  0  3  0  0  0  0  0  0
  181.2140  177.2570  140.1970 C   0  0  0  0  0  1  0  0  0  0  0  0
  178.9310  181.6580  139.6240 S   0  0  0  0  0  1  0  0  0  0  0  0
  181.4280  181.1540  138.6420 C   0  0  0  0  0  2  0  0  0  0  0  0
  181.4600  178.7560  140.2110 C   0  0  1  0  0  3  0  0  0  0  0  0
  182.6810  179.1350  139.3670 C   0  0  0  0  0  0  0  0  0  0  0  0
  180.2820  179.3950  139.7650 O   0  0  0  0  0  0  0  0  0  0  0  0
  1  9  1  6  0  0  0
  2  3  1  0  0  0  0
  2  5  1  0  0  0  0
  3  7  1  0  0  0  0
  5 14  1  0  0  0  0
  6  1  1  0  0  0  0
  7  4  1  0  0  0  0
  8 21  1  6  0  0  0
  8 13  1  0  0  0  0
  8 12  1  0  0  0  0
 10 19  1  0  0  0  0
 11  4  2  0  0  0  0
 12 16  1  0  0  0  0
 13  2  2  0  0  0  0
 14  1  1  0  0  0  0
 15 11  1  0  0  0  0
 16  5  1  0  0  0  0
 16 17  1  1  0  0  0
 17  6  1  0  0  0  0
 18 10  2  0  0  0  0
 18 13  1  0  0  0  0
 19 20  1  0  0  0  0
 19  3  2  0  0  0  0
 20 15  2  0  0  0  0
 23 22  1  6  0  0  0
 23 21  1  0  0  0  0
 24 27  1  6  0  0  0
 25 30  2  0  0  0  0
 28 25  1  0  0  0  0
 28 24  1  0  0  0  0
 29 26  1  6  0  0  0
 30 23  1  0  0  0  0
 30 29  1  0  0  0  0
 31 24  1  0  0  0  0
 31 29  1  0  0  0  0
M  END
>  <MODEL>
4

>  <REMARK>
 VINA RESULT:      -9.1      3.380      4.896
  Name = 
  3 active torsions:
  status: ('A' for Active; 'I' for Inactive)
    1  A    between atoms: C_9  and  C_22
    2  A    between atoms: C_9  and  C_23
    3  A    between atoms: C_15  and  C_23
                            x       y       z     vdW  Elec       q    Type
                         _______ _______ _______ _____ _____    ______ ____

>  <TORSDO>
F 3

$$$$
=
 OpenBabel11052413143D

 31 35  0  0  1  0  0  0  0  0999 V2000
  190.7020  176.9240  146.9220 C   0  0  2  0  0  3  0  0  0  0  0  0
  188.3560  177.5460  144.0270 C   0  0  0  0  0  0  0  0  0  0  0  0
  187.1040  177.7660  144.6430 C   0  0  0  0  0  0  0  0  0  0  0  0
  186.4720  178.7340  146.8260 C   0  0  0  0  0  3  0  0  0  0  0  0
  189.5770  177.2740  144.7550 N   0  0  0  0  0  0  0  0  0  0  0  0
  191.9840  176.5950  146.1540 C   0  0  0  0  0  2  0  0  0  0  0  0
  186.9090  177.5060  146.1050 C   0  0  0  0  0  2  0  0  0  0  0  0
  189.7540  177.2710  141.9910 C   0  0  2  0  0  3  0  0  0  0  0  0
  189.9730  175.6590  147.3430 C   0  0  0  0  0  1  0  0  0  0  0  0
  186.1500  178.1070  142.4800 N   0  0  0  0  0  0  0  0  0  0  0  0
  185.3060  179.3320  146.5890 C   0  0  0  0  0  3  0  0  0  0  0  0
  190.4470  176.3180  142.7610 O   0  0  0  0  0  0  0  0  0  0  0  0
  188.4220  177.5510  142.6310 C   0  0  0  0  0  0  0  0  0  0  0  0
  189.7900  177.8280  146.0940 C   0  0  0  0  0  2  0  0  0  0  0  0
  184.3470  178.9240  145.5460 C   0  0  0  0  0  3  0  0  0  0  0  0
  190.7870  176.9360  143.9810 C   0  0  2  0  0  3  0  0  0  0  0  0
  191.6740  175.9930  144.7850 C   0  0  0  0  0  2  0  0  0  0  0  0
  187.3190  177.8510  141.8980 N   0  0  0  0  0  0  0  0  0  0  0  0
  185.9950  178.0830  143.8300 C   0  0  0  0  0  0  0  0  0  0  0  0
  184.6470  178.3790  144.3610 C   0  0  0  0  0  3  0  0  0  0  0  0
  189.5940  176.7520  140.5630 C   0  0  0  0  0  2  0  0  0  0  0  0
  189.0560  178.5170  138.8110 C   0  0  0  0  0  1  0  0  0  0  0  0
  190.1450  177.7170  139.5100 C   0  0  2  0  0  3  0  0  0  0  0  0
  192.6920  175.2720  137.1710 C   0  0  2  0  0  3  0  0  0  0  0  0
  190.7300  176.7540  137.3530 C   0  0  0  0  0  3  0  0  0  0  0  0
  193.2210  177.5030  139.9660 C   0  0  0  0  0  1  0  0  0  0  0  0
  193.8730  174.5290  136.0120 S   0  0  0  0  0  1  0  0  0  0  0  0
  191.6050  176.0010  136.3910 C   0  0  0  0  0  2  0  0  0  0  0  0
  192.4990  176.5170  139.0650 C   0  0  1  0  0  3  0  0  0  0  0  0
  191.1530  177.0710  138.5870 C   0  0  0  0  0  0  0  0  0  0  0  0
  193.3580  176.1980  137.9890 O   0  0  0  0  0  0  0  0  0  0  0  0
  1  9  1  6  0  0  0
  2  3  1  0  0  0  0
  2  5  1  0  0  0  0
  3  7  1  0  0  0  0
  5 14  1  0  0  0  0
  6  1  1  0  0  0  0
  7  4  1  0  0  0  0
  8 21  1  6  0  0  0
  8 13  1  0  0  0  0
  8 12  1  0  0  0  0
 10 19  1  0  0  0  0
 11  4  2  0  0  0  0
 12 16  1  0  0  0  0
 13  2  2  0  0  0  0
 14  1  1  0  0  0  0
 15 11  1  0  0  0  0
 16  5  1  0  0  0  0
 16 17  1  1  0  0  0
 17  6  1  0  0  0  0
 18 10  2  0  0  0  0
 18 13  1  0  0  0  0
 19 20  1  0  0  0  0
 19  3  2  0  0  0  0
 20 15  2  0  0  0  0
 23 22  1  6  0  0  0
 23 21  1  0  0  0  0
 24 27  1  6  0  0  0
 24 31  1  0  0  0  0
 25 30  2  0  0  0  0
 28 24  1  0  0  0  0
 28 25  1  0  0  0  0
 29 26  1  1  0  0  0
 30 29  1  0  0  0  0
 30 23  1  0  0  0  0
 31 29  1  0  0  0  0
M  END
>  <MODEL>
5

>  <REMARK>
 VINA RESULT:      -9.1      2.732      4.988
  Name = 
  3 active torsions:
  status: ('A' for Active; 'I' for Inactive)
    1  A    between atoms: C_9  and  C_22
    2  A    between atoms: C_9  and  C_23
    3  A    between atoms: C_15  and  C_23
                            x       y       z     vdW  Elec       q    Type
                         _______ _______ _______ _____ _____    ______ ____

>  <TORSDO>
F 3

$$$$
=
 OpenBabel11052413143D

 31 35  0  0  1  0  0  0  0  0999 V2000
  190.8190  177.0640  142.9730 C   0  0  2  0  0  3  0  0  0  0  0  0
  187.2950  178.1210  142.1140 C   0  0  0  0  0  0  0  0  0  0  0  0
  186.5940  177.9980  143.3350 C   0  0  0  0  0  0  0  0  0  0  0  0
  187.2990  178.2520  145.6890 C   0  0  0  0  0  3  0  0  0  0  0  0
  188.7040  177.8290  141.9590 N   0  0  0  0  0  0  0  0  0  0  0  0
  191.4570  177.1270  141.5840 C   0  0  0  0  0  2  0  0  0  0  0  0
  187.2240  177.3320  144.5190 C   0  0  0  0  0  2  0  0  0  0  0  0
  187.3360  178.5910  139.6740 C   0  0  2  0  0  3  0  0  0  0  0  0
  190.3930  175.6470  143.3180 C   0  0  0  0  0  1  0  0  0  0  0  0
  184.6240  178.7760  142.2310 N   0  0  0  0  0  0  0  0  0  0  0  0
  186.2170  178.7310  146.3000 C   0  0  0  0  0  3  0  0  0  0  0  0
  188.3030  177.5680  139.6320 O   0  0  0  0  0  0  0  0  0  0  0  0
  186.5850  178.5080  140.9740 C   0  0  0  0  0  0  0  0  0  0  0  0
  189.6360  178.0270  143.0710 C   0  0  0  0  0  2  0  0  0  0  0  0
  184.8290  178.4930  145.8630 C   0  0  0  0  0  3  0  0  0  0  0  0
  189.2780  177.8750  140.6010 C   0  0  2  0  0  3  0  0  0  0  0  0
  190.4250  176.8790  140.4850 C   0  0  0  0  0  2  0  0  0  0  0  0
  185.2730  178.8440  141.0700 N   0  0  0  0  0  0  0  0  0  0  0  0
  185.2340  178.3700  143.3760 C   0  0  0  0  0  0  0  0  0  0  0  0
  184.4100  178.3300  144.6030 C   0  0  0  0  0  3  0  0  0  0  0  0
  186.4010  178.4570  138.4740 C   0  0  0  0  0  2  0  0  0  0  0  0
  187.2280  178.6220  136.0740 C   0  0  0  0  0  1  0  0  0  0  0  0
  187.0430  177.7280  137.2920 C   0  0  2  0  0  3  0  0  0  0  0  0
  185.1450  173.9430  137.2220 C   0  0  2  0  0  3  0  0  0  0  0  0
  185.0780  176.3740  136.8150 C   0  0  0  0  0  3  0  0  0  0  0  0
  188.5220  175.0730  136.5970 C   0  0  0  0  0  1  0  0  0  0  0  0
  184.3380  172.3640  136.8410 S   0  0  0  0  0  1  0  0  0  0  0  0
  184.3210  175.0870  136.6460 C   0  0  0  0  0  2  0  0  0  0  0  0
  187.1310  175.0520  137.2070 C   0  0  1  0  0  3  0  0  0  0  0  0
  186.4070  176.3870  137.0080 C   0  0  0  0  0  0  0  0  0  0  0  0
  186.4220  173.9690  136.6400 O   0  0  0  0  0  0  0  0  0  0  0  0
  1 14  1  0  0  0  0
  1  9  1  6  0  0  0
  2  3  1  0  0  0  0
  3 19  2  0  0  0  0
  3  7  1  0  0  0  0
  4 11  2  0  0  0  0
  5  2  1  0  0  0  0
  5 14  1  0  0  0  0
  6  1  1  0  0  0  0
  7  4  1  0  0  0  0
  8 21  1  6  0  0  0
  8 13  1  0  0  0  0
 10 19  1  0  0  0  0
 12  8  1  0  0  0  0
 12 16  1  0  0  0  0
 13 18  1  0  0  0  0
 13  2  2  0  0  0  0
 15 11  1  0  0  0  0
 16 17  1  1  0  0  0
 16  5  1  0  0  0  0
 17  6  1  0  0  0  0
 18 10  2  0  0  0  0
 19 20  1  0  0  0  0
 20 15  2  0  0  0  0
 23 22  1  6  0  0  0
 23 21  1  0  0  0  0
 24 27  1  6  0  0  0
 25 30  2  0  0  0  0
 28 25  1  0  0  0  0
 28 24  1  0  0  0  0
 29 26  1  6  0  0  0
 30 29  1  0  0  0  0
 30 23  1  0  0  0  0
 31 29  1  0  0  0  0
 31 24  1  0  0  0  0
M  END
>  <MODEL>
6

>  <REMARK>
 VINA RESULT:      -9.0      2.083      4.421
  Name = 
  3 active torsions:
  status: ('A' for Active; 'I' for Inactive)
    1  A    between atoms: C_9  and  C_22
    2  A    between atoms: C_9  and  C_23
    3  A    between atoms: C_15  and  C_23
                            x       y       z     vdW  Elec       q    Type
                         _______ _______ _______ _____ _____    ______ ____

>  <TORSDO>
F 3

$$$$
=
 OpenBabel11052413143D

 31 35  0  0  1  0  0  0  0  0999 V2000
  190.7700  177.4490  145.2510 C   0  0  2  0  0  3  0  0  0  0  0  0
  187.7970  178.0600  143.0010 C   0  0  0  0  0  0  0  0  0  0  0  0
  186.6910  178.0130  143.8770 C   0  0  0  0  0  0  0  0  0  0  0  0
  186.4320  178.6040  146.2620 C   0  0  0  0  0  3  0  0  0  0  0  0
  189.1710  177.8870  143.4250 N   0  0  0  0  0  0  0  0  0  0  0  0
  191.8870  177.4110  144.2050 C   0  0  0  0  0  2  0  0  0  0  0  0
  186.8490  177.5520  145.2930 C   0  0  0  0  0  2  0  0  0  0  0  0
  188.7460  178.2460  140.7110 C   0  0  2  0  0  3  0  0  0  0  0  0
  190.3080  176.0480  145.6120 C   0  0  0  0  0  1  0  0  0  0  0  0
  185.2580  178.4670  142.0210 N   0  0  0  0  0  0  0  0  0  0  0  0
  185.1790  179.0460  146.3510 C   0  0  0  0  0  3  0  0  0  0  0  0
  189.6990  177.3210  141.1790 O   0  0  0  0  0  0  0  0  0  0  0  0
  187.5590  178.2430  141.6360 C   0  0  0  0  0  0  0  0  0  0  0  0
  189.5990  178.3000  144.7630 C   0  0  0  0  0  2  0  0  0  0  0  0
  184.0740  178.6280  145.4680 C   0  0  0  0  0  3  0  0  0  0  0  0
  190.2170  177.8290  142.3860 C   0  0  2  0  0  3  0  0  0  0  0  0
  191.3640  176.9400  142.8490 C   0  0  0  0  0  2  0  0  0  0  0  0
  186.2970  178.4620  141.1870 N   0  0  0  0  0  0  0  0  0  0  0  0
  185.4020  178.2570  143.3560 C   0  0  0  0  0  0  0  0  0  0  0  0
  184.1750  178.2820  144.1800 C   0  0  0  0  0  3  0  0  0  0  0  0
  188.3450  177.8860  139.2810 C   0  0  0  0  0  2  0  0  0  0  0  0
  189.0550  179.3780  137.3470 C   0  0  0  0  0  1  0  0  0  0  0  0
  189.4310  178.2150  138.2550 C   0  0  2  0  0  3  0  0  0  0  0  0
  190.4080  174.4230  136.6420 C   0  0  2  0  0  3  0  0  0  0  0  0
  189.3240  176.6260  136.4140 C   0  0  0  0  0  3  0  0  0  0  0  0
  192.1280  176.7530  138.8070 C   0  0  0  0  0  1  0  0  0  0  0  0
  191.0250  172.9840  135.7260 S   0  0  0  0  0  1  0  0  0  0  0  0
  189.6830  175.3620  135.6870 C   0  0  0  0  0  2  0  0  0  0  0  0
  190.9630  176.0200  138.1650 C   0  0  1  0  0  3  0  0  0  0  0  0
  189.9590  176.9930  137.5390 C   0  0  0  0  0  0  0  0  0  0  0  0
  191.4880  175.1110  137.2180 O   0  0  0  0  0  0  0  0  0  0  0  0
  1  9  1  6  0  0  0
  2  5  1  0  0  0  0
  2  3  1  0  0  0  0
  3  7  1  0  0  0  0
  4 11  2  0  0  0  0
  5 14  1  0  0  0  0
  6  1  1  0  0  0  0
  7  4  1  0  0  0  0
  8 21  1  6  0  0  0
  8 12  1  0  0  0  0
  8 13  1  0  0  0  0
 10 19  1  0  0  0  0
 12 16  1  0  0  0  0
 13  2  2  0  0  0  0
 14  1  1  0  0  0  0
 15 11  1  0  0  0  0
 16 17  1  1  0  0  0
 16  5  1  0  0  0  0
 17  6  1  0  0  0  0
 18 13  1  0  0  0  0
 18 10  2  0  0  0  0
 19  3  2  0  0  0  0
 19 20  1  0  0  0  0
 20 15  2  0  0  0  0
 23 22  1  6  0  0  0
 23 21  1  0  0  0  0
 24 27  1  6  0  0  0
 24 31  1  0  0  0  0
 25 30  2  0  0  0  0
 28 25  1  0  0  0  0
 28 24  1  0  0  0  0
 29 26  1  6  0  0  0
 30 29  1  0  0  0  0
 30 23  1  0  0  0  0
 31 29  1  0  0  0  0
M  END
>  <MODEL>
7

>  <REMARK>
 VINA RESULT:      -9.0      2.161      4.518
  Name = 
  3 active torsions:
  status: ('A' for Active; 'I' for Inactive)
    1  A    between atoms: C_9  and  C_22
    2  A    between atoms: C_9  and  C_23
    3  A    between atoms: C_15  and  C_23
                            x       y       z     vdW  Elec       q    Type
                         _______ _______ _______ _____ _____    ______ ____

>  <TORSDO>
F 3

$$$$
=
 OpenBabel11052413143D

 31 35  0  0  1  0  0  0  0  0999 V2000
  190.2660  177.1000  147.5480 C   0  0  2  0  0  3  0  0  0  0  0  0
  188.3720  177.4190  144.2950 C   0  0  0  0  0  0  0  0  0  0  0  0
  187.0450  177.6890  144.6970 C   0  0  0  0  0  0  0  0  0  0  0  0
  186.1090  178.8630  146.6590 C   0  0  0  0  0  3  0  0  0  0  0  0
  189.4720  177.2280  145.2160 N   0  0  0  0  0  0  0  0  0  0  0  0
  191.6440  176.7060  147.0110 C   0  0  0  0  0  2  0  0  0  0  0  0
  186.6380  177.5720  146.1330 C   0  0  0  0  0  2  0  0  0  0  0  0
  190.0500  176.9540  142.5210 C   0  0  2  0  0  3  0  0  0  0  0  0
  189.4740  175.8770  147.9800 C   0  0  0  0  0  1  0  0  0  0  0  0
  186.4190  177.8090  142.3950 N   0  0  0  0  0  0  0  0  0  0  0  0
  184.9950  179.4260  146.1960 C   0  0  0  0  0  3  0  0  0  0  0  0
  190.6160  176.0870  143.4740 O   0  0  0  0  0  0  0  0  0  0  0  0
  188.6410  177.2860  142.9290 C   0  0  0  0  0  0  0  0  0  0  0  0
  189.4910  177.9120  146.5110 C   0  0  0  0  0  2  0  0  0  0  0  0
  184.1950  178.9110  145.0700 C   0  0  0  0  0  3  0  0  0  0  0  0
  190.7790  176.8230  144.6640 C   0  0  2  0  0  3  0  0  0  0  0  0
  191.5330  175.9700  145.6770 C   0  0  0  0  0  2  0  0  0  0  0  0
  187.6600  177.5060  142.0170 N   0  0  0  0  0  0  0  0  0  0  0  0
  186.0690  177.9170  143.7040 C   0  0  0  0  0  0  0  0  0  0  0  0
  184.6610  178.2540  144.0010 C   0  0  0  0  0  3  0  0  0  0  0  0
  190.0960  176.2970  141.1430 C   0  0  0  0  0  2  0  0  0  0  0  0
  192.0790  177.8780  140.9550 C   0  0  0  0  0  1  0  0  0  0  0  0
  191.2870  176.7560  140.2990 C   0  0  2  0  0  3  0  0  0  0  0  0
  189.8380  176.8360  136.3200 C   0  0  2  0  0  3  0  0  0  0  0  0
  189.8560  177.7610  138.6060 C   0  0  0  0  0  3  0  0  0  0  0  0
  193.0440  176.0850  137.8130 C   0  0  0  0  0  1  0  0  0  0  0  0
  189.3880  177.1790  134.5970 S   0  0  0  0  0  1  0  0  0  0  0  0
  189.3350  177.9650  137.2110 C   0  0  0  0  0  2  0  0  0  0  0  0
  191.5340  176.1900  137.6930 C   0  0  1  0  0  3  0  0  0  0  0  0
  190.9290  176.9910  138.8490 C   0  0  0  0  0  0  0  0  0  0  0  0
  191.2350  176.7600  136.4340 O   0  0  0  0  0  0  0  0  0  0  0  0
  1  9  1  6  0  0  0
  2  3  1  0  0  0  0
  2  5  1  0  0  0  0
  3  7  1  0  0  0  0
  5 14  1  0  0  0  0
  6  1  1  0  0  0  0
  7  4  1  0  0  0  0
  8 21  1  6  0  0  0
  8 13  1  0  0  0  0
  8 12  1  0  0  0  0
 10 19  1  0  0  0  0
 11  4  2  0  0  0  0
 12 16  1  0  0  0  0
 13  2  2  0  0  0  0
 14  1  1  0  0  0  0
 15 11  1  0  0  0  0
 16  5  1  0  0  0  0
 16 17  1  1  0  0  0
 17  6  1  0  0  0  0
 18 10  2  0  0  0  0
 18 13  1  0  0  0  0
 19 20  1  0  0  0  0
 19  3  2  0  0  0  0
 20 15  2  0  0  0  0
 23 22  1  1  0  0  0
 23 21  1  0  0  0  0
 24 27  1  6  0  0  0
 24 31  1  0  0  0  0
 24 28  1  0  0  0  0
 25 30  2  0  0  0  0
 28 25  1  0  0  0  0
 29 26  1  1  0  0  0
 29 30  1  0  0  0  0
 30 23  1  0  0  0  0
 31 29  1  0  0  0  0
M  END
>  <MODEL>
8

>  <REMARK>
 VINA RESULT:      -8.5      2.034      4.486
  Name = 
  3 active torsions:
  status: ('A' for Active; 'I' for Inactive)
    1  A    between atoms: C_9  and  C_22
    2  A    between atoms: C_9  and  C_23
    3  A    between atoms: C_15  and  C_23
                            x       y       z     vdW  Elec       q    Type
                         _______ _______ _______ _____ _____    ______ ____

>  <TORSDO>
F 3

$$$$
=
 OpenBabel11052413143D

 31 35  0  0  1  0  0  0  0  0999 V2000
  190.0630  177.8650  140.5560 C   0  0  2  0  0  3  0  0  0  0  0  0
  187.0370  178.1700  142.7970 C   0  0  0  0  0  0  0  0  0  0  0  0
  187.4920  177.7050  144.0510 C   0  0  0  0  0  0  0  0  0  0  0  0
  189.7070  177.7700  145.1430 C   0  0  0  0  0  3  0  0  0  0  0  0
  187.8680  178.2470  141.6140 N   0  0  0  0  0  0  0  0  0  0  0  0
  189.4430  178.2820  139.2200 C   0  0  0  0  0  2  0  0  0  0  0  0
  188.8270  177.0410  144.1860 C   0  0  0  0  0  2  0  0  0  0  0  0
  185.2160  178.9910  141.3170 C   0  0  2  0  0  3  0  0  0  0  0  0
  190.1090  176.3530  140.6920 C   0  0  0  0  0  1  0  0  0  0  0  0
  185.3250  178.1470  144.9510 N   0  0  0  0  0  0  0  0  0  0  0  0
  189.4240  177.8820  146.4390 C   0  0  0  0  0  3  0  0  0  0  0  0
  185.8740  178.2440  140.3220 O   0  0  0  0  0  0  0  0  0  0  0  0
  185.6950  178.5410  142.6710 C   0  0  0  0  0  0  0  0  0  0  0  0
  189.3070  178.4940  141.7250 C   0  0  0  0  0  2  0  0  0  0  0  0
  188.1910  177.3880  147.0780 C   0  0  0  0  0  3  0  0  0  0  0  0
  187.2290  178.6280  140.3390 C   0  0  2  0  0  3  0  0  0  0  0  0
  187.9510  177.9610  139.1740 C   0  0  0  0  0  2  0  0  0  0  0  0
  184.8820  178.5380  143.7580 N   0  0  0  0  0  0  0  0  0  0  0  0
  186.6040  177.7340  145.1470 C   0  0  0  0  0  0  0  0  0  0  0  0
  186.9780  177.3190  146.5160 C   0  0  0  0  0  3  0  0  0  0  0  0
  183.7050  178.8170  141.1690 C   0  0  0  0  0  2  0  0  0  0  0  0
  183.0270  179.7690  138.9090 C   0  0  0  0  0  1  0  0  0  0  0  0
  183.2760  178.5130  139.7330 C   0  0  2  0  0  3  0  0  0  0  0  0
  180.4030  175.4360  140.1970 C   0  0  2  0  0  3  0  0  0  0  0  0
  180.9640  177.8340  140.0740 C   0  0  0  0  0  3  0  0  0  0  0  0
  183.4110  175.7890  138.2220 C   0  0  0  0  0  1  0  0  0  0  0  0
  179.0500  174.2330  140.0850 S   0  0  0  0  0  1  0  0  0  0  0  0
  179.8330  176.8480  140.1530 C   0  0  0  0  0  2  0  0  0  0  0  0
  182.4570  175.9860  139.3880 C   0  0  1  0  0  3  0  0  0  0  0  0
  182.1850  177.4700  139.6500 C   0  0  0  0  0  0  0  0  0  0  0  0
  181.2730  175.2670  139.1090 O   0  0  0  0  0  0  0  0  0  0  0  0
  1  9  1  1  0  0  0
  1 14  1  0  0  0  0
  2  3  1  0  0  0  0
  3  7  1  0  0  0  0
  3 19  2  0  0  0  0
  4 11  2  0  0  0  0
  5 14  1  0  0  0  0
  5  2  1  0  0  0  0
  6  1  1  0  0  0  0
  7  4  1  0  0  0  0
  8 21  1  1  0  0  0
  8 13  1  0  0  0  0
 10 19  1  0  0  0  0
 11 15  1  0  0  0  0
 12 16  1  0  0  0  0
 12  8  1  0  0  0  0
 13  2  2  0  0  0  0
 13 18  1  0  0  0  0
 16 17  1  6  0  0  0
 16  5  1  0  0  0  0
 17  6  1  0  0  0  0
 18 10  2  0  0  0  0
 19 20  1  0  0  0  0
 20 15  2  0  0  0  0
 23 22  1  1  0  0  0
 23 21  1  0  0  0  0
 24 27  1  6  0  0  0
 25 28  1  0  0  0  0
 28 24  1  0  0  0  0
 29 26  1  6  0  0  0
 29 30  1  0  0  0  0
 30 23  1  0  0  0  0
 30 25  2  0  0  0  0
 31 29  1  0  0  0  0
 31 24  1  0  0  0  0
M  END
>  <MODEL>
9

>  <REMARK>
 VINA RESULT:      -8.4      3.350      5.515
  Name = 
  3 active torsions:
  status: ('A' for Active; 'I' for Inactive)
    1  A    between atoms: C_9  and  C_22
    2  A    between atoms: C_9  and  C_23
    3  A    between atoms: C_15  and  C_23
                            x       y       z     vdW  Elec       q    Type
                         _______ _______ _______ _____ _____    ______ ____

>  <TORSDO>
F 3

$$$$
