=
 OpenBabel11052413383D

 28 30  0  0  1  0  0  0  0  0999 V2000
  181.2580  174.7300  138.8960 C   0  0  0  0  0  2  0  0  0  0  0  0
  182.4100  174.9640  136.1020 C   0  0  0  0  0  1  0  0  0  0  0  0
  183.1090  175.5110  137.3470 C   0  0  1  0  0  0  0  0  0  0  0  0
  179.2940  177.0580  138.5620 O   0  0  0  0  0  0  0  0  0  0  0  0
  185.3050  175.6220  135.1640 O   0  0  0  0  0  1  0  0  0  0  0  0
  183.9000  174.4920  137.9150 O   0  0  0  0  0  0  0  0  0  0  0  0
  184.4550  177.5510  138.0520 C   0  0  0  0  0  2  0  0  0  0  0  0
  183.2460  178.1280  138.7620 C   0  0  1  0  0  3  0  0  0  0  0  0
  184.0550  176.6300  136.9080 C   0  0  1  0  0  3  0  0  0  0  0  0
  180.0270  179.2170  138.8380 O   0  0  0  0  0  0  0  0  0  0  0  0
  182.4180  177.0020  139.3930 C   0  0  1  0  0  3  0  0  0  0  0  0
  178.9310  175.7890  139.1190 C   0  0  0  0  0  2  0  0  0  0  0  0
  181.2040  177.6030  140.1310 C   0  0  0  0  0  2  0  0  0  0  0  0
  180.1180  178.0090  139.1800 C   0  0  0  0  0  0  0  0  0  0  0  0
  185.2960  175.8730  136.5370 C   0  0  1  0  0  3  0  0  0  0  0  0
  180.0760  175.0440  139.8100 C   0  0  0  0  0  2  0  0  0  0  0  0
  181.9910  175.9600  138.3230 C   0  0  2  0  0  3  0  0  0  0  0  0
  185.1660  174.5620  137.2920 C   0  0  0  0  0  2  0  0  0  0  0  0
  183.6670  179.1940  139.7910 C   0  0  2  0  0  3  0  0  0  0  0  0
  182.8860  180.9370  138.6660 C   0  0  0  0  0  1  0  0  0  0  0  0
  184.0670  180.3740  139.1540 O   0  0  0  0  0  0  0  0  0  0  0  0
  184.7290  178.7060  140.7880 C   0  0  2  0  0  3  0  0  0  0  0  0
  184.1980  178.7670  142.1550 C   0  0  0  0  0  0  0  0  0  0  0  0
  183.7610  178.8150  143.2770 C   0  0  0  0  0  0  0  0  0  0  0  0
  183.2300  178.8740  144.6390 C   0  0  0  0  0  1  0  0  0  0  0  0
  185.8950  179.4750  140.6980 O   0  0  0  0  0  0  0  0  0  0  0  0
  186.9280  178.6050  141.0510 C   0  0  0  0  0  2  0  0  0  0  0  0
  187.9160  178.6340  140.0670 O   0  0  0  0  0  1  0  0  0  0  0  0
  1 16  1  0  0  0  0
  3  2  1  6  0  0  0
  3  6  1  0  0  0  0
  3 17  1  0  0  0  0
  4 12  1  0  0  0  0
  4 14  1  0  0  0  0
  7  8  1  0  0  0  0
  8 11  1  0  0  0  0
  8 19  1  1  0  0  0
  9  3  1  0  0  0  0
  9  7  1  1  0  0  0
 10 14  2  0  0  0  0
 11 13  1  6  0  0  0
 12 16  1  0  0  0  0
 14 13  1  0  0  0  0
 15  5  1  6  0  0  0
 15  9  1  0  0  0  0
 15 18  1  0  0  0  0
 17  1  1  1  0  0  0
 17 11  1  0  0  0  0
 18  6  1  0  0  0  0
 19 21  1  6  0  0  0
 19 22  1  0  0  0  0
 20 21  1  0  0  0  0
 22 23  1  1  0  0  0
 23 24  3  0  0  0  0
 24 25  1  0  0  0  0
 26 22  1  0  0  0  0
 26 27  1  0  0  0  0
 28 27  1  0  0  0  0
M  END
>  <MODEL>
1

>  <REMARK>
 VINA RESULT:      -5.4      0.000      0.000
  Name = 
  6 active torsions:
  status: ('A' for Active; 'I' for Inactive)
    1  A    between atoms: C_9  and  C_12
    2  A    between atoms: C_9  and  C_13
    3  A    between atoms: C_9  and  O_14
    4  A    between atoms: C_10  and  C_13
    5  A    between atoms: C_13  and  O_24
    6  A    between atoms: O_14  and  C_18
                            x       y       z     vdW  Elec       q    Type
                         _______ _______ _______ _____ _____    ______ ____

>  <TORSDO>
F 6

$$$$
=
 OpenBabel11052413383D

 28 30  0  0  1  0  0  0  0  0999 V2000
  183.6640  174.4050  137.0520 C   0  0  0  0  0  2  0  0  0  0  0  0
  185.5910  175.6010  135.0400 C   0  0  0  0  0  1  0  0  0  0  0  0
  185.5730  175.9890  136.5200 C   0  0  1  0  0  0  0  0  0  0  0  0
  181.2950  176.1600  136.2160 O   0  0  0  0  0  0  0  0  0  0  0  0
  188.2340  177.1890  135.4790 O   0  0  0  0  0  1  0  0  0  0  0  0
  186.4000  175.1000  137.2370 O   0  0  0  0  0  0  0  0  0  0  0  0
  185.8170  178.0700  137.9630 C   0  0  0  0  0  2  0  0  0  0  0  0
  184.3160  178.1260  138.1690 C   0  0  1  0  0  3  0  0  0  0  0  0
  186.1840  177.3840  136.6530 C   0  0  1  0  0  3  0  0  0  0  0  0
  181.1180  178.3000  137.0310 O   0  0  0  0  0  0  0  0  0  0  0  0
  183.7430  176.7060  138.2570 C   0  0  1  0  0  3  0  0  0  0  0  0
  181.2030  174.7440  136.4130 C   0  0  0  0  0  2  0  0  0  0  0  0
  182.2200  176.7760  138.4910 C   0  0  0  0  0  2  0  0  0  0  0  0
  181.4770  177.1100  137.2310 C   0  0  0  0  0  0  0  0  0  0  0  0
  187.6510  177.0850  136.7420 C   0  0  1  0  0  3  0  0  0  0  0  0
  182.2020  174.1730  137.4210 C   0  0  0  0  0  2  0  0  0  0  0  0
  184.0990  175.8830  136.9890 C   0  0  2  0  0  3  0  0  0  0  0  0
  187.7040  175.6430  137.2110 C   0  0  0  0  0  2  0  0  0  0  0  0
  183.9600  178.9790  139.4010 C   0  0  2  0  0  3  0  0  0  0  0  0
  182.7620  180.7360  138.7770 C   0  0  0  0  0  1  0  0  0  0  0  0
  184.0600  180.3440  139.1090 O   0  0  0  0  0  0  0  0  0  0  0  0
  184.7620  178.6140  140.6600 C   0  0  2  0  0  3  0  0  0  0  0  0
  183.8960  178.6790  141.8420 C   0  0  0  0  0  0  0  0  0  0  0  0
  183.1850  178.7330  142.8140 C   0  0  0  0  0  0  0  0  0  0  0  0
  182.3220  178.7990  143.9940 C   0  0  0  0  0  1  0  0  0  0  0  0
  185.8560  179.4710  140.8260 O   0  0  0  0  0  0  0  0  0  0  0  0
  186.7900  178.7270  141.5510 C   0  0  0  0  0  2  0  0  0  0  0  0
  187.9690  178.6190  140.8160 O   0  0  0  0  0  1  0  0  0  0  0  0
  1 16  1  0  0  0  0
  3  2  1  6  0  0  0
  3  9  1  0  0  0  0
  3 17  1  0  0  0  0
  3  6  1  0  0  0  0
  4 12  1  0  0  0  0
  4 14  1  0  0  0  0
  7  8  1  0  0  0  0
  8 11  1  0  0  0  0
  8 19  1  1  0  0  0
  9 15  1  0  0  0  0
  9  7  1  1  0  0  0
 10 14  2  0  0  0  0
 11 13  1  6  0  0  0
 12 16  1  0  0  0  0
 14 13  1  0  0  0  0
 15  5  1  6  0  0  0
 15 18  1  0  0  0  0
 17  1  1  1  0  0  0
 17 11  1  0  0  0  0
 18  6  1  0  0  0  0
 19 21  1  6  0  0  0
 19 22  1  0  0  0  0
 20 21  1  0  0  0  0
 22 26  1  0  0  0  0
 22 23  1  1  0  0  0
 23 24  3  0  0  0  0
 24 25  1  0  0  0  0
 26 27  1  0  0  0  0
 28 27  1  0  0  0  0
M  END
>  <MODEL>
2

>  <REMARK>
 VINA RESULT:      -5.4      1.618      2.182
  Name = 
  6 active torsions:
  status: ('A' for Active; 'I' for Inactive)
    1  A    between atoms: C_9  and  C_12
    2  A    between atoms: C_9  and  C_13
    3  A    between atoms: C_9  and  O_14
    4  A    between atoms: C_10  and  C_13
    5  A    between atoms: C_13  and  O_24
    6  A    between atoms: O_14  and  C_18
                            x       y       z     vdW  Elec       q    Type
                         _______ _______ _______ _____ _____    ______ ____

>  <TORSDO>
F 6

$$$$
=
 OpenBabel11052413383D

 28 30  0  0  1  0  0  0  0  0999 V2000
  189.0020  174.9220  135.5650 C   0  0  0  0  0  2  0  0  0  0  0  0
  191.7940  176.0610  135.2550 C   0  0  0  0  0  1  0  0  0  0  0  0
  191.1840  175.6890  136.6070 C   0  0  1  0  0  0  0  0  0  0  0  0
  187.5880  177.6270  135.2920 O   0  0  0  0  0  0  0  0  0  0  0  0
  194.1890  176.0950  137.2450 O   0  0  0  0  0  1  0  0  0  0  0  0
  191.4420  174.3280  136.8680 O   0  0  0  0  0  0  0  0  0  0  0  0
  191.1060  176.5790  138.9890 C   0  0  0  0  0  2  0  0  0  0  0  0
  189.7030  177.1100  138.7650 C   0  0  1  0  0  3  0  0  0  0  0  0
  191.8960  176.5010  137.6900 C   0  0  1  0  0  3  0  0  0  0  0  0
  187.4280  179.0190  137.1120 O   0  0  0  0  0  0  0  0  0  0  0  0
  188.9210  176.1620  137.8470 C   0  0  1  0  0  3  0  0  0  0  0  0
  187.1800  176.4450  134.5940 C   0  0  0  0  0  2  0  0  0  0  0  0
  187.4900  176.7010  137.6470 C   0  0  0  0  0  2  0  0  0  0  0  0
  187.4540  177.8400  136.6720 C   0  0  0  0  0  0  0  0  0  0  0  0
  193.0960  175.6520  137.9900 C   0  0  1  0  0  3  0  0  0  0  0  0
  187.5120  175.1330  135.3090 C   0  0  0  0  0  2  0  0  0  0  0  0
  189.6620  175.9590  136.4970 C   0  0  2  0  0  3  0  0  0  0  0  0
  192.6910  174.2650  137.5240 C   0  0  0  0  0  2  0  0  0  0  0  0
  188.9850  177.3550  140.1060 C   0  0  2  0  0  3  0  0  0  0  0  0
  187.2320  178.6340  140.5530 C   0  0  0  0  0  1  0  0  0  0  0  0
  188.5860  178.6910  140.2220 O   0  0  0  0  0  0  0  0  0  0  0  0
  189.7920  176.9000  141.3320 C   0  0  2  0  0  3  0  0  0  0  0  0
  188.9230  176.8490  142.5120 C   0  0  0  0  0  0  0  0  0  0  0  0
  188.2100  176.8060  143.4830 C   0  0  0  0  0  0  0  0  0  0  0  0
  187.3440  176.7540  144.6620 C   0  0  0  0  0  1  0  0  0  0  0  0
  190.8690  177.7610  141.5730 O   0  0  0  0  0  0  0  0  0  0  0  0
  191.6110  177.1360  142.5780 C   0  0  0  0  0  2  0  0  0  0  0  0
  191.9020  178.0590  143.5820 O   0  0  0  0  0  1  0  0  0  0  0  0
  3  2  1  6  0  0  0
  3  6  1  0  0  0  0
  3  9  1  0  0  0  0
  4 14  1  0  0  0  0
  6 18  1  0  0  0  0
  8  7  1  0  0  0  0
  8 19  1  1  0  0  0
  9 15  1  0  0  0  0
  9  7  1  1  0  0  0
 11 13  1  6  0  0  0
 11  8  1  0  0  0  0
 12  4  1  0  0  0  0
 12 16  1  0  0  0  0
 14 10  2  0  0  0  0
 14 13  1  0  0  0  0
 15  5  1  6  0  0  0
 16  1  1  0  0  0  0
 17  1  1  1  0  0  0
 17  3  1  0  0  0  0
 17 11  1  0  0  0  0
 18 15  1  0  0  0  0
 19 21  1  1  0  0  0
 19 22  1  0  0  0  0
 21 20  1  0  0  0  0
 22 26  1  0  0  0  0
 22 23  1  1  0  0  0
 23 24  3  0  0  0  0
 24 25  1  0  0  0  0
 26 27  1  0  0  0  0
 27 28  1  0  0  0  0
M  END
>  <MODEL>
3

>  <REMARK>
 VINA RESULT:      -5.3      5.117      7.130
  Name = 
  6 active torsions:
  status: ('A' for Active; 'I' for Inactive)
    1  A    between atoms: C_9  and  C_12
    2  A    between atoms: C_9  and  C_13
    3  A    between atoms: C_9  and  O_14
    4  A    between atoms: C_10  and  C_13
    5  A    between atoms: C_13  and  O_24
    6  A    between atoms: O_14  and  C_18
                            x       y       z     vdW  Elec       q    Type
                         _______ _______ _______ _____ _____    ______ ____

>  <TORSDO>
F 6

$$$$
=
 OpenBabel11052413383D

 28 30  0  0  1  0  0  0  0  0999 V2000
  186.5690  177.1860  144.3590 C   0  0  0  0  0  2  0  0  0  0  0  0
  185.1310  179.6030  143.2250 C   0  0  0  0  0  1  0  0  0  0  0  0
  185.7380  178.5000  142.3550 C   0  0  1  0  0  0  0  0  0  0  0  0
  189.1940  178.6750  144.8940 O   0  0  0  0  0  0  0  0  0  0  0  0
  183.9640  180.1020  140.3820 O   0  0  0  0  0  1  0  0  0  0  0  0
  184.7850  177.4760  142.1830 O   0  0  0  0  0  0  0  0  0  0  0  0
  187.0260  178.2670  140.1740 C   0  0  0  0  0  2  0  0  0  0  0  0
  188.3180  178.0530  140.9380 C   0  0  1  0  0  3  0  0  0  0  0  0
  186.0250  179.0900  140.9730 C   0  0  1  0  0  3  0  0  0  0  0  0
  190.6890  179.0000  143.1820 O   0  0  0  0  0  0  0  0  0  0  0  0
  188.0460  177.2610  142.2230 C   0  0  1  0  0  3  0  0  0  0  0  0
  188.5650  177.8080  145.8460 C   0  0  0  0  0  2  0  0  0  0  0  0
  189.3700  177.0290  142.9780 C   0  0  0  0  0  2  0  0  0  0  0  0
  189.8180  178.2600  143.7090 C   0  0  0  0  0  0  0  0  0  0  0  0
  184.7070  178.9260  140.2750 C   0  0  1  0  0  3  0  0  0  0  0  0
  187.7190  176.6910  145.2320 C   0  0  0  0  0  2  0  0  0  0  0  0
  186.9900  177.9800  143.1060 C   0  0  2  0  0  3  0  0  0  0  0  0
  184.0180  177.8160  141.0470 C   0  0  0  0  0  2  0  0  0  0  0  0
  189.3800  177.3800  140.0480 C   0  0  2  0  0  3  0  0  0  0  0  0
  191.5370  176.9740  140.3560 C   0  0  0  0  0  1  0  0  0  0  0  0
  190.6210  178.0130  140.1850 O   0  0  0  0  0  0  0  0  0  0  0  0
  188.9680  177.2660  138.5720 C   0  0  2  0  0  3  0  0  0  0  0  0
  189.5070  176.0280  137.9960 C   0  0  0  0  0  0  0  0  0  0  0  0
  189.9480  175.0110  137.5220 C   0  0  0  0  0  0  0  0  0  0  0  0
  190.4830  173.7770  136.9470 C   0  0  0  0  0  1  0  0  0  0  0  0
  189.4210  178.3660  137.8360 O   0  0  0  0  0  0  0  0  0  0  0  0
  188.5950  178.4110  136.7110 C   0  0  0  0  0  2  0  0  0  0  0  0
  187.5870  179.3530  136.9120 O   0  0  0  0  0  1  0  0  0  0  0  0
  1 16  1  0  0  0  0
  3 17  1  0  0  0  0
  3  2  1  1  0  0  0
  4 12  1  0  0  0  0
  6  3  1  0  0  0  0
  7  8  1  0  0  0  0
  8 19  1  6  0  0  0
  8 11  1  0  0  0  0
  9  7  1  6  0  0  0
  9  3  1  0  0  0  0
 10 14  2  0  0  0  0
 11 13  1  1  0  0  0
 11 17  1  0  0  0  0
 13 14  1  0  0  0  0
 14  4  1  0  0  0  0
 15  5  1  1  0  0  0
 15  9  1  0  0  0  0
 15 18  1  0  0  0  0
 16 12  1  0  0  0  0
 17  1  1  1  0  0  0
 18  6  1  0  0  0  0
 19 21  1  6  0  0  0
 21 20  1  0  0  0  0
 22 23  1  6  0  0  0
 22 19  1  0  0  0  0
 24 23  3  0  0  0  0
 25 24  1  0  0  0  0
 26 22  1  0  0  0  0
 27 28  1  0  0  0  0
 27 26  1  0  0  0  0
M  END
>  <MODEL>
4

>  <REMARK>
 VINA RESULT:      -5.1      3.737      7.796
  Name = 
  6 active torsions:
  status: ('A' for Active; 'I' for Inactive)
    1  A    between atoms: C_9  and  C_12
    2  A    between atoms: C_9  and  C_13
    3  A    between atoms: C_9  and  O_14
    4  A    between atoms: C_10  and  C_13
    5  A    between atoms: C_13  and  O_24
    6  A    between atoms: O_14  and  C_18
                            x       y       z     vdW  Elec       q    Type
                         _______ _______ _______ _____ _____    ______ ____

>  <TORSDO>
F 6

$$$$
=
 OpenBabel11052413383D

 28 30  0  0  1  0  0  0  0  0999 V2000
  190.3730  175.9400  138.9500 C   0  0  0  0  0  2  0  0  0  0  0  0
  191.6390  177.7610  141.0160 C   0  0  0  0  0  1  0  0  0  0  0  0
  190.2000  177.2540  141.1130 C   0  0  1  0  0  0  0  0  0  0  0  0
  189.8050  178.1830  136.9410 O   0  0  0  0  0  0  0  0  0  0  0  0
  190.7540  178.4310  143.9250 O   0  0  0  0  0  1  0  0  0  0  0  0
  190.1950  176.0090  141.7730 O   0  0  0  0  0  0  0  0  0  0  0  0
  187.9030  178.1130  141.7910 C   0  0  0  0  0  2  0  0  0  0  0  0
  187.5070  178.2610  140.3350 C   0  0  1  0  0  3  0  0  0  0  0  0
  189.4090  178.2320  141.9830 C   0  0  1  0  0  3  0  0  0  0  0  0
  187.9420  179.5010  137.2000 O   0  0  0  0  0  0  0  0  0  0  0  0
  188.1330  177.1350  139.5020 C   0  0  1  0  0  3  0  0  0  0  0  0
  190.4000  176.9290  136.5830 C   0  0  0  0  0  2  0  0  0  0  0  0
  187.7030  177.2820  138.0280 C   0  0  0  0  0  2  0  0  0  0  0  0
  188.4700  178.3650  137.3290 C   0  0  0  0  0  0  0  0  0  0  0  0
  189.6880  177.7250  143.3680 C   0  0  1  0  0  3  0  0  0  0  0  0
  190.0040  175.7550  137.4810 C   0  0  0  0  0  2  0  0  0  0  0  0
  189.6780  177.1190  139.6590 C   0  0  2  0  0  3  0  0  0  0  0  0
  190.0910  176.2780  143.1550 C   0  0  0  0  0  2  0  0  0  0  0  0
  185.9750  178.3220  140.1830 C   0  0  2  0  0  3  0  0  0  0  0  0
  184.8070  178.6960  138.3380 C   0  0  0  0  0  1  0  0  0  0  0  0
  185.6010  179.3330  139.2920 O   0  0  0  0  0  0  0  0  0  0  0  0
  185.2260  178.4430  141.5190 C   0  0  2  0  0  3  0  0  0  0  0  0
  183.7840  178.2780  141.3010 C   0  0  0  0  0  0  0  0  0  0  0  0
  182.6000  178.1410  141.1230 C   0  0  0  0  0  0  0  0  0  0  0  0
  181.1620  177.9740  140.9070 C   0  0  0  0  0  1  0  0  0  0  0  0
  185.4740  179.6800  142.1240 O   0  0  0  0  0  0  0  0  0  0  0  0
  184.8830  179.5880  143.3870 C   0  0  0  0  0  2  0  0  0  0  0  0
  185.5590  178.6350  144.1480 O   0  0  0  0  0  1  0  0  0  0  0  0
  3  2  1  6  0  0  0
  3  6  1  0  0  0  0
  3  9  1  0  0  0  0
  4 14  1  0  0  0  0
  6 18  1  0  0  0  0
  8 19  1  1  0  0  0
  8  7  1  0  0  0  0
  9  7  1  6  0  0  0
  9 15  1  0  0  0  0
 10 14  2  0  0  0  0
 11 13  1  6  0  0  0
 11 17  1  0  0  0  0
 11  8  1  0  0  0  0
 12  4  1  0  0  0  0
 12 16  1  0  0  0  0
 14 13  1  0  0  0  0
 15  5  1  6  0  0  0
 16  1  1  0  0  0  0
 17  1  1  1  0  0  0
 17  3  1  0  0  0  0
 18 15  1  0  0  0  0
 19 21  1  6  0  0  0
 19 22  1  0  0  0  0
 20 21  1  0  0  0  0
 22 23  1  6  0  0  0
 22 26  1  0  0  0  0
 24 23  3  0  0  0  0
 25 24  1  0  0  0  0
 26 27  1  0  0  0  0
 27 28  1  0  0  0  0
M  END
>  <MODEL>
5

>  <REMARK>
 VINA RESULT:      -4.9      3.263      7.058
  Name = 
  6 active torsions:
  status: ('A' for Active; 'I' for Inactive)
    1  A    between atoms: C_9  and  C_12
    2  A    between atoms: C_9  and  C_13
    3  A    between atoms: C_9  and  O_14
    4  A    between atoms: C_10  and  C_13
    5  A    between atoms: C_13  and  O_24
    6  A    between atoms: O_14  and  C_18
                            x       y       z     vdW  Elec       q    Type
                         _______ _______ _______ _____ _____    ______ ____

>  <TORSDO>
F 6

$$$$
=
 OpenBabel11052413383D

 28 30  0  0  1  0  0  0  0  0999 V2000
  179.4850  178.6370  141.0480 C   0  0  0  0  0  2  0  0  0  0  0  0
  179.4360  181.4810  140.0000 C   0  0  0  0  0  1  0  0  0  0  0  0
  180.3680  180.3990  139.4520 C   0  0  1  0  0  0  0  0  0  0  0  0
  181.1640  179.3020  143.5240 O   0  0  0  0  0  0  0  0  0  0  0  0
  180.5720  182.6750  137.3580 O   0  0  0  0  0  1  0  0  0  0  0  0
  179.7000  179.6920  138.4320 O   0  0  0  0  0  0  0  0  0  0  0  0
  182.7680  180.1630  138.6430 C   0  0  0  0  0  2  0  0  0  0  0  0
  183.1670  179.5130  139.9530 C   0  0  1  0  0  3  0  0  0  0  0  0
  181.5720  181.0900  138.8100 C   0  0  1  0  0  3  0  0  0  0  0  0
  183.4460  179.4770  143.3410 O   0  0  0  0  0  0  0  0  0  0  0  0
  182.0200  178.6390  140.4780 C   0  0  1  0  0  3  0  0  0  0  0  0
  179.9790  178.4970  143.5620 C   0  0  0  0  0  2  0  0  0  0  0  0
  182.4460  177.9650  141.7980 C   0  0  0  0  0  2  0  0  0  0  0  0
  182.3860  178.9180  142.9550 C   0  0  0  0  0  0  0  0  0  0  0  0
  181.0760  181.3760  137.4230 C   0  0  1  0  0  3  0  0  0  0  0  0
  179.6800  177.7390  142.2670 C   0  0  0  0  0  2  0  0  0  0  0  0
  180.7180  179.4690  140.6410 C   0  0  2  0  0  3  0  0  0  0  0  0
  179.9470  180.3810  137.2240 C   0  0  0  0  0  2  0  0  0  0  0  0
  184.4830  178.7270  139.8020 C   0  0  2  0  0  3  0  0  0  0  0  0
  186.0210  178.8430  141.3930 C   0  0  0  0  0  1  0  0  0  0  0  0
  185.5720  179.4880  140.2390 O   0  0  0  0  0  0  0  0  0  0  0  0
  184.7140  178.1750  138.3870 C   0  0  2  0  0  3  0  0  0  0  0  0
  183.8450  177.0160  138.1530 C   0  0  0  0  0  0  0  0  0  0  0  0
  183.1300  176.0650  137.9610 C   0  0  0  0  0  0  0  0  0  0  0  0
  182.2620  174.9110  137.7290 C   0  0  0  0  0  1  0  0  0  0  0  0
  186.0520  177.8090  138.2020 O   0  0  0  0  0  0  0  0  0  0  0  0
  186.4310  178.4210  137.0050 C   0  0  0  0  0  2  0  0  0  0  0  0
  187.6440  179.0830  137.1850 O   0  0  0  0  0  1  0  0  0  0  0  0
  1 16  1  0  0  0  0
  3  2  1  1  0  0  0
  3 17  1  0  0  0  0
  4 12  1  0  0  0  0
  6  3  1  0  0  0  0
  7  8  1  0  0  0  0
  8 19  1  6  0  0  0
  8 11  1  0  0  0  0
  9  7  1  6  0  0  0
  9  3  1  0  0  0  0
 11 17  1  0  0  0  0
 11 13  1  1  0  0  0
 13 14  1  0  0  0  0
 14 10  2  0  0  0  0
 14  4  1  0  0  0  0
 15  5  1  1  0  0  0
 15  9  1  0  0  0  0
 16 12  1  0  0  0  0
 17  1  1  6  0  0  0
 18 15  1  0  0  0  0
 18  6  1  0  0  0  0
 19 21  1  6  0  0  0
 21 20  1  0  0  0  0
 22 23  1  1  0  0  0
 22 19  1  0  0  0  0
 24 23  3  0  0  0  0
 25 24  1  0  0  0  0
 26 22  1  0  0  0  0
 27 28  1  0  0  0  0
 27 26  1  0  0  0  0
M  END
>  <MODEL>
6

>  <REMARK>
 VINA RESULT:      -4.7      2.311      5.148
  Name = 
  6 active torsions:
  status: ('A' for Active; 'I' for Inactive)
    1  A    between atoms: C_9  and  C_12
    2  A    between atoms: C_9  and  C_13
    3  A    between atoms: C_9  and  O_14
    4  A    between atoms: C_10  and  C_13
    5  A    between atoms: C_13  and  O_24
    6  A    between atoms: O_14  and  C_18
                            x       y       z     vdW  Elec       q    Type
                         _______ _______ _______ _____ _____    ______ ____

>  <TORSDO>
F 6

$$$$
=
 OpenBabel11052413383D

 28 30  0  0  1  0  0  0  0  0999 V2000
  187.6180  178.7590  140.4050 C   0  0  0  0  0  2  0  0  0  0  0  0
  185.2580  177.5040  141.8330 C   0  0  0  0  0  1  0  0  0  0  0  0
  186.3070  178.3630  142.5400 C   0  0  1  0  0  0  0  0  0  0  0  0
  189.2800  176.1850  140.3400 O   0  0  0  0  0  0  0  0  0  0  0  0
  184.0250  178.1300  144.6230 O   0  0  0  0  0  1  0  0  0  0  0  0
  185.9230  179.7170  142.4560 O   0  0  0  0  0  0  0  0  0  0  0  0
  187.5880  178.4090  144.7370 C   0  0  0  0  0  2  0  0  0  0  0  0
  188.8280  177.8750  144.0480 C   0  0  1  0  0  3  0  0  0  0  0  0
  186.3130  177.9840  144.0210 C   0  0  1  0  0  3  0  0  0  0  0  0
  190.4880  175.5610  142.1920 O   0  0  0  0  0  0  0  0  0  0  0  0
  188.9270  178.4440  142.6270 C   0  0  1  0  0  3  0  0  0  0  0  0
  189.1000  177.0410  139.2060 C   0  0  0  0  0  2  0  0  0  0  0  0
  190.2040  177.9120  141.9450 C   0  0  0  0  0  2  0  0  0  0  0  0
  190.0390  176.4960  141.4780 C   0  0  0  0  0  0  0  0  0  0  0  0
  185.2200  178.8480  144.5780 C   0  0  1  0  0  3  0  0  0  0  0  0
  188.8580  178.5130  139.5480 C   0  0  0  0  0  2  0  0  0  0  0  0
  187.6500  178.1170  141.8060 C   0  0  2  0  0  3  0  0  0  0  0  0
  185.0980  179.9790  143.5730 C   0  0  0  0  0  2  0  0  0  0  0  0
  190.0900  178.1600  144.8840 C   0  0  2  0  0  3  0  0  0  0  0  0
  191.6770  179.6090  144.3450 C   0  0  0  0  0  1  0  0  0  0  0  0
  191.2080  178.3260  144.0600 O   0  0  0  0  0  0  0  0  0  0  0  0
  190.3510  177.1190  145.9840 C   0  0  2  0  0  3  0  0  0  0  0  0
  189.4910  177.3870  147.1420 C   0  0  0  0  0  0  0  0  0  0  0  0
  188.7860  177.6080  148.0940 C   0  0  0  0  0  0  0  0  0  0  0  0
  187.9300  177.8760  149.2510 C   0  0  0  0  0  1  0  0  0  0  0  0
  191.6940  177.1290  146.3780 O   0  0  0  0  0  0  0  0  0  0  0  0
  191.9300  175.8490  146.8830 C   0  0  0  0  0  2  0  0  0  0  0  0
  192.6440  175.9450  148.0770 O   0  0  0  0  0  1  0  0  0  0  0  0
  3  2  1  6  0  0  0
  3  9  1  0  0  0  0
  4 14  1  0  0  0  0
  6  3  1  0  0  0  0
  6 18  1  0  0  0  0
  8  7  1  0  0  0  0
  8 19  1  1  0  0  0
  9 15  1  0  0  0  0
  9  7  1  1  0  0  0
 11 13  1  6  0  0  0
 11  8  1  0  0  0  0
 12 16  1  0  0  0  0
 12  4  1  0  0  0  0
 14 13  1  0  0  0  0
 14 10  2  0  0  0  0
 15  5  1  6  0  0  0
 16  1  1  0  0  0  0
 17  1  1  6  0  0  0
 17  3  1  0  0  0  0
 17 11  1  0  0  0  0
 18 15  1  0  0  0  0
 19 21  1  6  0  0  0
 19 22  1  0  0  0  0
 21 20  1  0  0  0  0
 22 26  1  0  0  0  0
 22 23  1  1  0  0  0
 23 24  3  0  0  0  0
 24 25  1  0  0  0  0
 26 27  1  0  0  0  0
 27 28  1  0  0  0  0
M  END
>  <MODEL>
7

>  <REMARK>
 VINA RESULT:      -4.5      4.846      8.540
  Name = 
  6 active torsions:
  status: ('A' for Active; 'I' for Inactive)
    1  A    between atoms: C_9  and  C_12
    2  A    between atoms: C_9  and  C_13
    3  A    between atoms: C_9  and  O_14
    4  A    between atoms: C_10  and  C_13
    5  A    between atoms: C_13  and  O_24
    6  A    between atoms: O_14  and  C_18
                            x       y       z     vdW  Elec       q    Type
                         _______ _______ _______ _____ _____    ______ ____

>  <TORSDO>
F 6

$$$$
=
 OpenBabel11052413383D

 28 30  0  0  1  0  0  0  0  0999 V2000
  190.6480  177.7760  140.5050 C   0  0  0  0  0  2  0  0  0  0  0  0
  189.5870  176.1750  138.1600 C   0  0  0  0  0  1  0  0  0  0  0  0
  188.9070  177.4370  138.6920 C   0  0  1  0  0  0  0  0  0  0  0  0
  189.5410  175.8750  142.6390 O   0  0  0  0  0  0  0  0  0  0  0  0
  187.5120  176.9430  135.9690 O   0  0  0  0  0  1  0  0  0  0  0  0
  189.4690  178.5630  138.0570 O   0  0  0  0  0  0  0  0  0  0  0  0
  186.5590  178.3140  139.1310 C   0  0  0  0  0  2  0  0  0  0  0  0
  186.7200  178.0560  140.6170 C   0  0  1  0  0  3  0  0  0  0  0  0
  187.4310  177.3840  138.2970 C   0  0  1  0  0  3  0  0  0  0  0  0
  187.3410  176.0350  143.2780 O   0  0  0  0  0  0  0  0  0  0  0  0
  188.1670  178.3300  141.0450 C   0  0  1  0  0  3  0  0  0  0  0  0
  190.8790  176.3880  142.6510 C   0  0  0  0  0  2  0  0  0  0  0  0
  188.3120  178.0870  142.5610 C   0  0  0  0  0  2  0  0  0  0  0  0
  188.3830  176.6250  142.8880 C   0  0  0  0  0  0  0  0  0  0  0  0
  187.4470  177.9670  136.9150 C   0  0  1  0  0  3  0  0  0  0  0  0
  191.0460  177.7530  141.9790 C   0  0  0  0  0  2  0  0  0  0  0  0
  189.1640  177.4700  140.2200 C   0  0  2  0  0  3  0  0  0  0  0  0
  188.7290  178.7800  136.8740 C   0  0  0  0  0  2  0  0  0  0  0  0
  185.7010  178.8750  141.4320 C   0  0  2  0  0  3  0  0  0  0  0  0
  184.9080  179.2530  143.4660 C   0  0  0  0  0  1  0  0  0  0  0  0
  185.4080  178.2420  142.6450 O   0  0  0  0  0  0  0  0  0  0  0  0
  184.4220  179.2200  140.6550 C   0  0  2  0  0  3  0  0  0  0  0  0
  183.7250  177.9900  140.2650 C   0  0  0  0  0  0  0  0  0  0  0  0
  183.1510  176.9800  139.9440 C   0  0  0  0  0  0  0  0  0  0  0  0
  182.4540  175.7530  139.5550 C   0  0  0  0  0  1  0  0  0  0  0  0
  184.7140  179.9800  139.5170 O   0  0  0  0  0  0  0  0  0  0  0  0
  183.4880  180.1410  138.8660 C   0  0  0  0  0  2  0  0  0  0  0  0
  183.1940  181.4990  138.7580 O   0  0  0  0  0  1  0  0  0  0  0  0
  1 16  1  0  0  0  0
  3  2  1  6  0  0  0
  3 17  1  0  0  0  0
  4 12  1  0  0  0  0
  4 14  1  0  0  0  0
  6  3  1  0  0  0  0
  7  8  1  0  0  0  0
  8 11  1  0  0  0  0
  8 19  1  1  0  0  0
  9  3  1  0  0  0  0
  9  7  1  1  0  0  0
 11 13  1  1  0  0  0
 13 14  1  0  0  0  0
 14 10  2  0  0  0  0
 15  5  1  6  0  0  0
 15  9  1  0  0  0  0
 16 12  1  0  0  0  0
 17  1  1  6  0  0  0
 17 11  1  0  0  0  0
 18 15  1  0  0  0  0
 18  6  1  0  0  0  0
 19 21  1  1  0  0  0
 21 20  1  0  0  0  0
 22 23  1  6  0  0  0
 22 19  1  0  0  0  0
 24 23  3  0  0  0  0
 25 24  1  0  0  0  0
 26 22  1  0  0  0  0
 27 26  1  0  0  0  0
 28 27  1  0  0  0  0
M  END
>  <MODEL>
8

>  <REMARK>
 VINA RESULT:      -4.4      2.794      6.606
  Name = 
  6 active torsions:
  status: ('A' for Active; 'I' for Inactive)
    1  A    between atoms: C_9  and  C_12
    2  A    between atoms: C_9  and  C_13
    3  A    between atoms: C_9  and  O_14
    4  A    between atoms: C_10  and  C_13
    5  A    between atoms: C_13  and  O_24
    6  A    between atoms: O_14  and  C_18
                            x       y       z     vdW  Elec       q    Type
                         _______ _______ _______ _____ _____    ______ ____

>  <TORSDO>
F 6

$$$$
=
 OpenBabel11052413383D

 28 30  0  0  1  0  0  0  0  0999 V2000
  190.0270  172.9890  136.2550 C   0  0  0  0  0  2  0  0  0  0  0  0
  192.2620  174.7020  135.1310 C   0  0  0  0  0  1  0  0  0  0  0  0
  191.6170  174.9510  136.4950 C   0  0  1  0  0  0  0  0  0  0  0  0
  187.8220  174.3190  134.5940 O   0  0  0  0  0  0  0  0  0  0  0  0
  194.1560  176.7270  136.5480 O   0  0  0  0  0  1  0  0  0  0  0  0
  192.2880  174.1810  137.4670 O   0  0  0  0  0  0  0  0  0  0  0  0
  190.8660  176.9090  137.9350 C   0  0  0  0  0  2  0  0  0  0  0  0
  189.4190  176.6570  137.5580 C   0  0  1  0  0  3  0  0  0  0  0  0
  191.8260  176.4220  136.8580 C   0  0  1  0  0  3  0  0  0  0  0  0
  186.9090  176.3070  135.2940 O   0  0  0  0  0  0  0  0  0  0  0  0
  189.1680  175.1500  137.4130 C   0  0  1  0  0  3  0  0  0  0  0  0
  187.9640  172.9000  134.7330 C   0  0  0  0  0  2  0  0  0  0  0  0
  187.6880  174.9060  137.0530 C   0  0  0  0  0  2  0  0  0  0  0  0
  187.4100  175.1960  135.6080 C   0  0  0  0  0  0  0  0  0  0  0  0
  193.1840  176.4050  137.4950 C   0  0  1  0  0  3  0  0  0  0  0  0
  188.6160  172.4480  136.0410 C   0  0  0  0  0  2  0  0  0  0  0  0
  190.1320  174.5230  136.3700 C   0  0  2  0  0  3  0  0  0  0  0  0
  193.3640  174.9650  137.9400 C   0  0  0  0  0  2  0  0  0  0  0  0
  188.4620  177.3170  138.5680 C   0  0  2  0  0  3  0  0  0  0  0  0
  188.1850  178.7740  136.9210 C   0  0  0  0  0  1  0  0  0  0  0  0
  187.4890  178.0780  137.9110 O   0  0  0  0  0  0  0  0  0  0  0  0
  189.1780  178.1370  139.6530 C   0  0  2  0  0  3  0  0  0  0  0  0
  189.5430  177.2670  140.7780 C   0  0  0  0  0  0  0  0  0  0  0  0
  189.8430  176.5550  141.7020 C   0  0  0  0  0  0  0  0  0  0  0  0
  190.2080  175.6900  142.8250 C   0  0  0  0  0  1  0  0  0  0  0  0
  188.3690  179.1840  140.1080 O   0  0  0  0  0  0  0  0  0  0  0  0
  187.5440  178.6080  141.0770 C   0  0  0  0  0  2  0  0  0  0  0  0
  186.2220  178.9840  140.8450 O   0  0  0  0  0  1  0  0  0  0  0  0
  3  2  1  6  0  0  0
  3  9  1  0  0  0  0
  3  6  1  0  0  0  0
  4 12  1  0  0  0  0
  4 14  1  0  0  0  0
  6 18  1  0  0  0  0
  8  7  1  0  0  0  0
  8 19  1  1  0  0  0
  9 15  1  0  0  0  0
  9  7  1  1  0  0  0
 10 14  2  0  0  0  0
 11 13  1  6  0  0  0
 11  8  1  0  0  0  0
 12 16  1  0  0  0  0
 14 13  1  0  0  0  0
 15  5  1  6  0  0  0
 15 18  1  0  0  0  0
 16  1  1  0  0  0  0
 17  1  1  1  0  0  0
 17  3  1  0  0  0  0
 17 11  1  0  0  0  0
 19 21  1  6  0  0  0
 19 22  1  0  0  0  0
 20 21  1  0  0  0  0
 22 26  1  0  0  0  0
 22 23  1  1  0  0  0
 23 24  3  0  0  0  0
 24 25  1  0  0  0  0
 26 27  1  0  0  0  0
 28 27  1  0  0  0  0
M  END
>  <MODEL>
9

>  <REMARK>
 VINA RESULT:      -4.4      5.099      7.474
  Name = 
  6 active torsions:
  status: ('A' for Active; 'I' for Inactive)
    1  A    between atoms: C_9  and  C_12
    2  A    between atoms: C_9  and  C_13
    3  A    between atoms: C_9  and  O_14
    4  A    between atoms: C_10  and  C_13
    5  A    between atoms: C_13  and  O_24
    6  A    between atoms: O_14  and  C_18
                            x       y       z     vdW  Elec       q    Type
                         _______ _______ _______ _____ _____    ______ ____

>  <TORSDO>
F 6

$$$$
