=
 OpenBabel11052414063D

 34 38  0  0  1  0  0  0  0  0999 V2000
  190.8010  173.7280  136.5790 C   0  0  0  0  0  0  0  0  0  0  0  0
  188.3380  173.6780  135.9260 C   0  0  2  0  0  3  0  0  0  0  0  0
  189.3040  175.3620  137.5770 C   0  0  0  0  0  0  0  0  0  0  0  0
  189.1760  178.6980  137.9970 C   0  0  0  0  0  2  0  0  0  0  0  0
  190.0360  172.4050  134.6000 C   0  0  0  0  0  2  0  0  0  0  0  0
  188.6610  172.3510  135.2410 C   0  0  0  0  0  2  0  0  0  0  0  0
  187.5150  176.7540  136.5240 C   0  0  0  0  0  2  0  0  0  0  0  0
  189.4950  174.2430  136.7340 C   0  0  0  0  0  0  0  0  0  0  0  0
  187.7810  179.1530  137.5790 C   0  0  0  0  0  2  0  0  0  0  0  0
  191.0810  172.5450  135.6970 C   0  0  0  0  0  2  0  0  0  0  0  0
  190.4010  175.8920  138.3000 C   0  0  0  0  0  0  0  0  0  0  0  0
  191.8290  174.2610  137.2860 N   0  0  0  0  0  0  0  0  0  0  0  0
  187.2260  173.4950  136.7300 F   0  0  0  0  0  0  0  0  0  0  0  0
  189.0950  177.8570  139.1820 N   0  0  0  0  0  2  0  0  0  0  0  0
  190.3290  177.0720  139.2590 C   0  0  1  0  0  3  0  0  0  0  0  0
  186.8670  178.0630  136.9870 C   0  0  2  0  0  3  0  0  0  0  0  0
  188.0230  175.9890  137.6540 N   0  0  0  0  0  2  0  0  0  0  0  0
  191.6580  175.3090  138.1270 C   0  0  0  0  0  3  0  0  0  0  0  0
  189.7910  176.2570  142.9010 C   0  0  2  0  0  3  0  0  0  0  0  0
  191.1810  176.2830  143.1890 O   0  0  0  0  0  0  0  0  0  0  0  0
  190.6310  176.6570  140.6360 N   0  0  2  0  0  0  0  0  0  0  0  0
  191.7380  177.4830  142.7010 C   0  0  0  0  0  2  0  0  0  0  0  0
  189.4440  176.7580  141.4890 C   0  0  0  0  0  2  0  0  0  0  0  0
  191.7060  177.5060  141.1660 C   0  0  0  0  0  2  0  0  0  0  0  0
  188.9960  176.9960  143.9610 C   0  0  0  0  0  1  0  0  0  0  0  0
  185.5510  177.8860  137.7410 C   0  0  0  0  0  2  0  0  0  0  0  0
  185.2970  178.9690  138.6300 O   0  0  0  0  0  0  0  0  0  0  0  0
  182.6000  178.9680  139.5650 C   0  0  0  0  0  1  0  0  0  0  0  0
  185.0720  178.8080  140.0020 C   0  0  0  0  0  0  0  0  0  0  0  0
  183.7550  178.7930  140.4900 C   0  0  0  0  0  0  0  0  0  0  0  0
  184.5810  178.4670  142.7450 C   0  0  0  0  0  3  0  0  0  0  0  0
  185.8930  178.4880  142.2690 C   0  0  0  0  0  3  0  0  0  0  0  0
  186.1380  178.6610  140.9040 C   0  0  0  0  0  3  0  0  0  0  0  0
  183.5140  178.6220  141.8570 C   0  0  0  0  0  3  0  0  0  0  0  0
  1  8  2  0  0  0  0
  1 12  1  0  0  0  0
  2 13  1  1  0  0  0
  2  8  1  0  0  0  0
  3 17  1  0  0  0  0
  3 11  2  0  0  0  0
  4 14  1  0  0  0  0
  5  6  1  0  0  0  0
  5 10  1  0  0  0  0
  6  2  1  0  0  0  0
  7 16  1  0  0  0  0
  7 17  1  0  0  0  0
  8  3  1  0  0  0  0
  9  4  1  0  0  0  0
 10  1  1  0  0  0  0
 12 18  2  0  0  0  0
 14 15  1  0  0  0  0
 15 11  1  6  0  0  0
 15 21  1  0  0  0  0
 16  9  1  0  0  0  0
 16 26  1  1  0  0  0
 18 11  1  0  0  0  0
 19 20  1  0  0  0  0
 19 25  1  1  0  0  0
 21 24  1  1  0  0  0
 21 23  1  0  0  0  0
 22 20  1  0  0  0  0
 23 19  1  0  0  0  0
 24 22  1  0  0  0  0
 26 27  1  0  0  0  0
 27 29  1  0  0  0  0
 28 30  1  0  0  0  0
 29 30  2  0  0  0  0
 29 33  1  0  0  0  0
 30 34  1  0  0  0  0
 32 31  1  0  0  0  0
 33 32  2  0  0  0  0
 34 31  2  0  0  0  0
M  END
>  <MODEL>
1

>  <REMARK>
 VINA RESULT:      -7.9      0.000      0.000
  Name = 
  4 active torsions:
  status: ('A' for Active; 'I' for Inactive)
    1  A    between atoms: O_3  and  C_13
    2  A    between atoms: O_3  and  C_17
    3  A    between atoms: N_12  and  C_28
    4  A    between atoms: C_17  and  C_29
                            x       y       z     vdW  Elec       q    Type
                         _______ _______ _______ _____ _____    ______ ____

>  <TORSDO>
F 4

$$$$
=
 OpenBabel11052414063D

 34 38  0  0  1  0  0  0  0  0999 V2000
  182.9560  177.4810  136.1760 C   0  0  0  0  0  0  0  0  0  0  0  0
  184.8720  177.4900  137.8550 C   0  0  2  0  0  3  0  0  0  0  0  0
  182.6330  178.6240  138.2950 C   0  0  0  0  0  0  0  0  0  0  0  0
  180.3780  178.6580  140.7930 C   0  0  0  0  0  2  0  0  0  0  0  0
  184.9020  175.9370  135.8930 C   0  0  0  0  0  2  0  0  0  0  0  0
  185.7200  176.9090  136.7240 C   0  0  0  0  0  2  0  0  0  0  0  0
  183.2250  177.9040  140.6150 C   0  0  0  0  0  2  0  0  0  0  0  0
  183.4750  177.9010  137.4200 C   0  0  0  0  0  0  0  0  0  0  0  0
  181.1530  178.5580  142.1030 C   0  0  0  0  0  2  0  0  0  0  0  0
  183.7890  176.7060  135.1960 C   0  0  0  0  0  2  0  0  0  0  0  0
  181.3240  178.9740  137.8820 C   0  0  0  0  0  0  0  0  0  0  0  0
  181.6970  177.8330  135.8120 N   0  0  0  0  0  0  0  0  0  0  0  0
  185.5490  178.5660  138.4010 F   0  0  0  0  0  0  0  0  0  0  0  0
  180.6780  179.9170  140.1260 N   0  0  0  0  0  2  0  0  0  0  0  0
  180.3270  179.7700  138.7120 C   0  0  1  0  0  3  0  0  0  0  0  0
  182.6740  178.3550  141.9710 C   0  0  2  0  0  3  0  0  0  0  0  0
  183.0810  178.9490  139.6120 N   0  0  0  0  0  2  0  0  0  0  0  0
  180.8890  178.5570  136.6220 C   0  0  0  0  0  3  0  0  0  0  0  0
  180.8890  183.1680  137.1780 C   0  0  2  0  0  3  0  0  0  0  0  0
  179.5230  183.5330  137.3030 O   0  0  0  0  0  0  0  0  0  0  0  0
  180.0250  181.0630  138.0840 N   0  0  2  0  0  0  0  0  0  0  0  0
  179.0960  183.3030  138.6280 C   0  0  0  0  0  2  0  0  0  0  0  0
  181.2450  181.8540  137.8920 C   0  0  0  0  0  2  0  0  0  0  0  0
  179.0780  181.7980  138.9330 C   0  0  0  0  0  2  0  0  0  0  0  0
  181.8030  184.2980  137.6140 C   0  0  0  0  0  1  0  0  0  0  0  0
  183.5030  179.4360  142.6620 C   0  0  0  0  0  2  0  0  0  0  0  0
  184.8480  179.0200  142.8750 O   0  0  0  0  0  0  0  0  0  0  0  0
  187.2590  177.4950  142.9330 C   0  0  0  0  0  1  0  0  0  0  0  0
  185.3480  178.6190  144.1190 C   0  0  0  0  0  0  0  0  0  0  0  0
  186.5370  177.8760  144.1790 C   0  0  0  0  0  0  0  0  0  0  0  0
  186.3900  177.8130  146.5970 C   0  0  0  0  0  3  0  0  0  0  0  0
  185.2020  178.5450  146.5460 C   0  0  0  0  0  3  0  0  0  0  0  0
  184.6810  178.9440  145.3120 C   0  0  0  0  0  3  0  0  0  0  0  0
  187.0540  177.4770  145.4160 C   0  0  0  0  0  3  0  0  0  0  0  0
  1  8  1  0  0  0  0
  2 13  1  6  0  0  0
  3 17  1  0  0  0  0
  4  9  1  0  0  0  0
  5  6  1  0  0  0  0
  6  2  1  0  0  0  0
  7 16  1  0  0  0  0
  8  2  1  0  0  0  0
  8  3  2  0  0  0  0
 10  5  1  0  0  0  0
 10  1  1  0  0  0  0
 11  3  1  0  0  0  0
 12  1  2  0  0  0  0
 12 18  1  0  0  0  0
 14  4  1  0  0  0  0
 15 11  1  6  0  0  0
 15 14  1  0  0  0  0
 16  9  1  0  0  0  0
 16 26  1  6  0  0  0
 17  7  1  0  0  0  0
 18 11  2  0  0  0  0
 19 20  1  0  0  0  0
 19 25  1  1  0  0  0
 19 23  1  0  0  0  0
 20 22  1  0  0  0  0
 21 23  1  1  0  0  0
 21 15  1  0  0  0  0
 21 24  1  0  0  0  0
 22 24  1  0  0  0  0
 26 27  1  0  0  0  0
 27 29  1  0  0  0  0
 28 30  1  0  0  0  0
 29 30  2  0  0  0  0
 29 33  1  0  0  0  0
 30 34  1  0  0  0  0
 32 31  1  0  0  0  0
 33 32  2  0  0  0  0
 34 31  2  0  0  0  0
M  END
>  <MODEL>
2

>  <REMARK>
 VINA RESULT:      -7.5      4.699      8.658
  Name = 
  4 active torsions:
  status: ('A' for Active; 'I' for Inactive)
    1  A    between atoms: O_3  and  C_13
    2  A    between atoms: O_3  and  C_17
    3  A    between atoms: N_12  and  C_28
    4  A    between atoms: C_17  and  C_29
                            x       y       z     vdW  Elec       q    Type
                         _______ _______ _______ _____ _____    ______ ____

>  <TORSDO>
F 4

$$$$
=
 OpenBabel11052414063D

 34 38  0  0  1  0  0  0  0  0999 V2000
  180.5280  180.7350  135.9240 C   0  0  0  0  0  0  0  0  0  0  0  0
  181.1850  181.8930  138.0980 C   0  0  2  0  0  3  0  0  0  0  0  0
  181.6760  179.4370  137.6280 C   0  0  0  0  0  0  0  0  0  0  0  0
  184.3570  177.4130  137.8380 C   0  0  0  0  0  2  0  0  0  0  0  0
  180.4750  183.2280  136.1040 C   0  0  0  0  0  2  0  0  0  0  0  0
  180.3290  183.0600  137.6050 C   0  0  0  0  0  2  0  0  0  0  0  0
  183.6630  180.0240  139.0270 C   0  0  0  0  0  2  0  0  0  0  0  0
  181.0970  180.6580  137.2150 C   0  0  0  0  0  0  0  0  0  0  0  0
  185.1680  177.8620  139.0490 C   0  0  0  0  0  2  0  0  0  0  0  0
  179.8990  182.0000  135.4150 C   0  0  0  0  0  2  0  0  0  0  0  0
  181.6090  178.3040  136.7790 C   0  0  0  0  0  0  0  0  0  0  0  0
  180.4820  179.6310  135.1360 N   0  0  0  0  0  0  0  0  0  0  0  0
  180.8080  181.5920  139.3950 F   0  0  0  0  0  0  0  0  0  0  0  0
  183.0680  176.8860  138.2620 N   0  0  0  0  0  2  0  0  0  0  0  0
  182.1650  176.9270  137.1100 C   0  0  1  0  0  3  0  0  0  0  0  0
  184.6620  179.1280  139.7660 C   0  0  2  0  0  3  0  0  0  0  0  0
  182.3750  179.3610  138.8700 N   0  0  0  0  0  2  0  0  0  0  0  0
  180.9980  178.4430  135.5300 C   0  0  0  0  0  3  0  0  0  0  0  0
  179.4430  174.8230  138.6520 C   0  0  2  0  0  3  0  0  0  0  0  0
  179.4250  173.9150  137.5610 O   0  0  0  0  0  0  0  0  0  0  0  0
  181.0910  175.9320  137.2190 N   0  0  2  0  0  0  0  0  0  0  0  0
  180.7380  173.4730  137.2970 C   0  0  0  0  0  2  0  0  0  0  0  0
  180.6050  175.8290  138.5980 C   0  0  0  0  0  2  0  0  0  0  0  0
  181.5980  174.6300  136.7650 C   0  0  0  0  0  2  0  0  0  0  0  0
  179.4080  174.0890  139.9790 C   0  0  0  0  0  1  0  0  0  0  0  0
  184.3460  178.9140  141.2450 C   0  0  0  0  0  2  0  0  0  0  0  0
  185.4420  178.3370  141.9460 O   0  0  0  0  0  0  0  0  0  0  0  0
  187.6980  177.0340  143.1120 C   0  0  0  0  0  1  0  0  0  0  0  0
  185.5270  178.2820  143.3420 C   0  0  0  0  0  0  0  0  0  0  0  0
  186.6300  177.6560  143.9440 C   0  0  0  0  0  0  0  0  0  0  0  0
  185.7410  178.1690  146.1380 C   0  0  0  0  0  3  0  0  0  0  0  0
  184.6360  178.7870  145.5480 C   0  0  0  0  0  3  0  0  0  0  0  0
  184.5280  178.8400  144.1560 C   0  0  0  0  0  3  0  0  0  0  0  0
  186.7340  177.6020  145.3370 C   0  0  0  0  0  3  0  0  0  0  0  0
  1  8  1  0  0  0  0
  2 13  1  1  0  0  0
  3 17  1  0  0  0  0
  4 14  1  0  0  0  0
  4  9  1  0  0  0  0
  5  6  1  0  0  0  0
  6  2  1  0  0  0  0
  7 16  1  0  0  0  0
  8  3  2  0  0  0  0
  8  2  1  0  0  0  0
  9 16  1  0  0  0  0
 10  1  1  0  0  0  0
 10  5  1  0  0  0  0
 11  3  1  0  0  0  0
 12 18  1  0  0  0  0
 12  1  2  0  0  0  0
 15 11  1  1  0  0  0
 15 21  1  0  0  0  0
 15 14  1  0  0  0  0
 16 26  1  1  0  0  0
 17  7  1  0  0  0  0
 18 11  2  0  0  0  0
 19 25  1  1  0  0  0
 20 19  1  0  0  0  0
 21 24  1  1  0  0  0
 21 23  1  0  0  0  0
 22 20  1  0  0  0  0
 23 19  1  0  0  0  0
 24 22  1  0  0  0  0
 26 27  1  0  0  0  0
 27 29  1  0  0  0  0
 28 30  1  0  0  0  0
 29 30  2  0  0  0  0
 29 33  1  0  0  0  0
 30 34  1  0  0  0  0
 32 31  1  0  0  0  0
 33 32  2  0  0  0  0
 34 31  2  0  0  0  0
M  END
>  <MODEL>
3

>  <REMARK>
 VINA RESULT:      -7.4      5.219      9.198
  Name = 
  4 active torsions:
  status: ('A' for Active; 'I' for Inactive)
    1  A    between atoms: O_3  and  C_13
    2  A    between atoms: O_3  and  C_17
    3  A    between atoms: N_12  and  C_28
    4  A    between atoms: C_17  and  C_29
                            x       y       z     vdW  Elec       q    Type
                         _______ _______ _______ _____ _____    ______ ____

>  <TORSDO>
F 4

$$$$
=
 OpenBabel11052414063D

 34 38  0  0  1  0  0  0  0  0999 V2000
  180.1570  179.5340  141.0160 C   0  0  0  0  0  0  0  0  0  0  0  0
  181.2540  179.0480  143.2640 C   0  0  2  0  0  3  0  0  0  0  0  0
  182.3690  178.5290  141.0320 C   0  0  0  0  0  0  0  0  0  0  0  0
  185.3760  179.0940  139.6300 C   0  0  0  0  0  2  0  0  0  0  0  0
  179.2390  180.5250  143.1200 C   0  0  0  0  0  2  0  0  0  0  0  0
  179.8940  179.3830  143.8750 C   0  0  0  0  0  2  0  0  0  0  0  0
  184.3780  179.0920  142.4080 C   0  0  0  0  0  2  0  0  0  0  0  0
  181.2440  179.0050  141.7440 C   0  0  0  0  0  0  0  0  0  0  0  0
  186.4170  179.0030  140.7410 C   0  0  0  0  0  2  0  0  0  0  0  0
  178.9310  180.0620  141.7040 C   0  0  0  0  0  2  0  0  0  0  0  0
  182.3520  178.5220  139.6150 C   0  0  0  0  0  0  0  0  0  0  0  0
  180.1740  179.5130  139.6590 N   0  0  0  0  0  0  0  0  0  0  0  0
  181.6810  177.8380  143.7830 F   0  0  0  0  0  0  0  0  0  0  0  0
  184.7550  177.7950  139.4150 N   0  0  0  0  0  2  0  0  0  0  0  0
  183.4800  178.0150  138.7290 C   0  0  1  0  0  3  0  0  0  0  0  0
  185.8650  178.8080  142.1660 C   0  0  2  0  0  3  0  0  0  0  0  0
  183.5380  178.1100  141.7380 N   0  0  0  0  0  2  0  0  0  0  0  0
  181.2270  179.0270  138.9600 C   0  0  0  0  0  3  0  0  0  0  0  0
  183.2710  174.4230  137.6010 C   0  0  2  0  0  3  0  0  0  0  0  0
  182.6320  174.7660  136.3800 O   0  0  0  0  0  0  0  0  0  0  0  0
  183.0610  176.8370  137.9570 N   0  0  2  0  0  0  0  0  0  0  0  0
  183.3730  175.7760  135.7320 C   0  0  0  0  0  2  0  0  0  0  0  0
  183.7850  175.6380  138.3910 C   0  0  0  0  0  2  0  0  0  0  0  0
  183.3090  177.0860  136.5310 C   0  0  0  0  0  2  0  0  0  0  0  0
  184.3710  173.4030  137.3790 C   0  0  0  0  0  1  0  0  0  0  0  0
  186.3910  177.5570  142.8660 C   0  0  0  0  0  2  0  0  0  0  0  0
  186.0870  177.5580  144.2570 O   0  0  0  0  0  0  0  0  0  0  0  0
  185.3100  178.4150  146.8660 C   0  0  0  0  0  1  0  0  0  0  0  0
  187.0600  177.5820  145.2630 C   0  0  0  0  0  0  0  0  0  0  0  0
  186.7050  177.9900  146.5590 C   0  0  0  0  0  0  0  0  0  0  0  0
  188.9800  177.6260  147.3100 C   0  0  0  0  0  3  0  0  0  0  0  0
  189.3430  177.2270  146.0220 C   0  0  0  0  0  3  0  0  0  0  0  0
  188.3880  177.2080  145.0020 C   0  0  0  0  0  3  0  0  0  0  0  0
  187.6640  178.0090  147.5760 C   0  0  0  0  0  3  0  0  0  0  0  0
  1 10  1  0  0  0  0
  1  8  1  0  0  0  0
  2 13  1  1  0  0  0
  2  6  1  0  0  0  0
  3 17  1  0  0  0  0
  3  8  2  0  0  0  0
  4  9  1  0  0  0  0
  5  6  1  0  0  0  0
  8  2  1  0  0  0  0
  9 16  1  0  0  0  0
 10  5  1  0  0  0  0
 11  3  1  0  0  0  0
 12  1  2  0  0  0  0
 14  4  1  0  0  0  0
 15 14  1  1  0  0  0
 15 11  1  0  0  0  0
 16  7  1  0  0  0  0
 16 26  1  6  0  0  0
 17  7  1  0  0  0  0
 18 11  2  0  0  0  0
 18 12  1  0  0  0  0
 19 25  1  6  0  0  0
 19 23  1  0  0  0  0
 20 19  1  0  0  0  0
 21 24  1  6  0  0  0
 21 23  1  0  0  0  0
 21 15  1  0  0  0  0
 22 20  1  0  0  0  0
 22 24  1  0  0  0  0
 26 27  1  0  0  0  0
 27 29  1  0  0  0  0
 29 30  1  0  0  0  0
 30 28  1  0  0  0  0
 30 34  2  0  0  0  0
 31 34  1  0  0  0  0
 32 31  2  0  0  0  0
 33 29  2  0  0  0  0
 33 32  1  0  0  0  0
M  END
>  <MODEL>
4

>  <REMARK>
 VINA RESULT:      -7.1      4.710      9.077
  Name = 
  4 active torsions:
  status: ('A' for Active; 'I' for Inactive)
    1  A    between atoms: O_3  and  C_13
    2  A    between atoms: O_3  and  C_17
    3  A    between atoms: N_12  and  C_28
    4  A    between atoms: C_17  and  C_29
                            x       y       z     vdW  Elec       q    Type
                         _______ _______ _______ _____ _____    ______ ____

>  <TORSDO>
F 4

$$$$
=
 OpenBabel11052414063D

 34 38  0  0  1  0  0  0  0  0999 V2000
  191.8490  174.0570  136.7420 C   0  0  0  0  0  0  0  0  0  0  0  0
  189.5540  173.7580  135.6760 C   0  0  2  0  0  3  0  0  0  0  0  0
  190.0230  175.4640  137.5110 C   0  0  0  0  0  0  0  0  0  0  0  0
  189.4310  178.7420  137.9880 C   0  0  0  0  0  2  0  0  0  0  0  0
  191.5890  172.7470  134.6280 C   0  0  0  0  0  2  0  0  0  0  0  0
  190.1430  172.5090  135.0220 C   0  0  0  0  0  2  0  0  0  0  0  0
  188.2820  176.6910  136.2030 C   0  0  0  0  0  2  0  0  0  0  0  0
  190.4840  174.4130  136.6840 C   0  0  0  0  0  0  0  0  0  0  0  0
  188.0810  179.0550  137.3490 C   0  0  0  0  0  2  0  0  0  0  0  0
  192.4120  172.9540  135.8910 C   0  0  0  0  0  2  0  0  0  0  0  0
  190.9130  176.0810  138.4250 C   0  0  0  0  0  0  0  0  0  0  0  0
  192.6740  174.6690  137.6290 N   0  0  0  0  0  0  0  0  0  0  0  0
  188.3530  173.4150  136.2720 F   0  0  0  0  0  0  0  0  0  0  0  0
  189.2540  177.8430  139.1200 N   0  0  0  0  0  2  0  0  0  0  0  0
  190.5420  177.2000  139.3870 C   0  0  1  0  0  3  0  0  0  0  0  0
  187.4160  177.8970  136.5820 C   0  0  2  0  0  3  0  0  0  0  0  0
  188.6830  175.9380  137.3830 N   0  0  0  0  0  2  0  0  0  0  0  0
  192.2420  175.6510  138.4540 C   0  0  0  0  0  3  0  0  0  0  0  0
  189.5510  176.4480  142.9460 C   0  0  2  0  0  3  0  0  0  0  0  0
  190.8990  176.3360  143.3770 O   0  0  0  0  0  0  0  0  0  0  0  0
  190.6570  176.7590  140.7840 N   0  0  2  0  0  0  0  0  0  0  0  0
  191.6190  177.4750  142.9600 C   0  0  0  0  0  2  0  0  0  0  0  0
  189.4030  176.9790  141.5110 C   0  0  0  0  0  2  0  0  0  0  0  0
  191.7500  177.4990  141.4300 C   0  0  0  0  0  2  0  0  0  0  0  0
  188.7260  177.2640  143.9240 C   0  0  0  0  0  1  0  0  0  0  0  0
  186.0220  177.5380  137.0940 C   0  0  0  0  0  2  0  0  0  0  0  0
  185.5880  178.4250  138.1200 O   0  0  0  0  0  0  0  0  0  0  0  0
  185.6800  179.0000  140.9140 C   0  0  0  0  0  1  0  0  0  0  0  0
  184.4270  178.2250  138.8760 C   0  0  0  0  0  0  0  0  0  0  0  0
  184.4400  178.5090  140.2510 C   0  0  0  0  0  0  0  0  0  0  0  0
  182.1130  177.8560  140.4200 C   0  0  0  0  0  3  0  0  0  0  0  0
  182.0930  177.5630  139.0550 C   0  0  0  0  0  3  0  0  0  0  0  0
  183.2460  177.7440  138.2870 C   0  0  0  0  0  3  0  0  0  0  0  0
  183.2840  178.3250  141.0170 C   0  0  0  0  0  3  0  0  0  0  0  0
  1 12  1  0  0  0  0
  2 13  1  1  0  0  0
  2  8  1  0  0  0  0
  3 11  2  0  0  0  0
  4 14  1  0  0  0  0
  5  6  1  0  0  0  0
  5 10  1  0  0  0  0
  6  2  1  0  0  0  0
  7 16  1  0  0  0  0
  7 17  1  0  0  0  0
  8  1  2  0  0  0  0
  8  3  1  0  0  0  0
  9  4  1  0  0  0  0
 10  1  1  0  0  0  0
 11 18  1  0  0  0  0
 12 18  2  0  0  0  0
 14 15  1  0  0  0  0
 15 11  1  6  0  0  0
 15 21  1  0  0  0  0
 16 26  1  1  0  0  0
 16  9  1  0  0  0  0
 17  3  1  0  0  0  0
 19 20  1  0  0  0  0
 19 25  1  1  0  0  0
 21 24  1  1  0  0  0
 21 23  1  0  0  0  0
 22 20  1  0  0  0  0
 23 19  1  0  0  0  0
 24 22  1  0  0  0  0
 26 27  1  0  0  0  0
 27 29  1  0  0  0  0
 29 30  1  0  0  0  0
 30 28  1  0  0  0  0
 30 34  2  0  0  0  0
 31 34  1  0  0  0  0
 32 31  2  0  0  0  0
 33 29  2  0  0  0  0
 33 32  1  0  0  0  0
M  END
>  <MODEL>
5

>  <REMARK>
 VINA RESULT:      -7.0      0.884      1.598
  Name = 
  4 active torsions:
  status: ('A' for Active; 'I' for Inactive)
    1  A    between atoms: O_3  and  C_13
    2  A    between atoms: O_3  and  C_17
    3  A    between atoms: N_12  and  C_28
    4  A    between atoms: C_17  and  C_29
                            x       y       z     vdW  Elec       q    Type
                         _______ _______ _______ _____ _____    ______ ____

>  <TORSDO>
F 4

$$$$
=
 OpenBabel11052414063D

 34 38  0  0  1  0  0  0  0  0999 V2000
  186.2350  178.5800  140.4480 C   0  0  0  0  0  0  0  0  0  0  0  0
  186.7310  177.8810  142.8480 C   0  0  2  0  0  3  0  0  0  0  0  0
  188.2990  177.3800  140.9020 C   0  0  0  0  0  0  0  0  0  0  0  0
  191.5850  177.7450  140.2770 C   0  0  0  0  0  2  0  0  0  0  0  0
  184.9230  179.5390  142.3480 C   0  0  0  0  0  2  0  0  0  0  0  0
  185.2940  178.3050  143.1510 C   0  0  0  0  0  2  0  0  0  0  0  0
  189.9630  177.6890  142.7420 C   0  0  0  0  0  2  0  0  0  0  0  0
  187.0770  177.9180  141.3680 C   0  0  0  0  0  0  0  0  0  0  0  0
  192.3250  177.5030  141.5890 C   0  0  0  0  0  2  0  0  0  0  0  0
  184.9240  179.1790  140.8700 C   0  0  0  0  0  2  0  0  0  0  0  0
  188.6170  177.4490  139.5230 C   0  0  0  0  0  0  0  0  0  0  0  0
  186.5710  178.6280  139.1340 N   0  0  0  0  0  0  0  0  0  0  0  0
  186.9300  176.6130  143.3640 F   0  0  0  0  0  0  0  0  0  0  0  0
  190.9370  176.5190  139.8320 N   0  0  0  0  0  2  0  0  0  0  0  0
  189.8800  176.8890  138.8880 C   0  0  1  0  0  3  0  0  0  0  0  0
  191.4390  177.2850  142.8300 C   0  0  2  0  0  3  0  0  0  0  0  0
  189.2330  176.8220  141.8270 N   0  0  0  0  0  2  0  0  0  0  0  0
  187.7190  178.0860  138.6640 C   0  0  0  0  0  3  0  0  0  0  0  0
  190.3320  173.7500  136.8480 C   0  0  2  0  0  3  0  0  0  0  0  0
  189.2030  174.0280  136.0330 O   0  0  0  0  0  0  0  0  0  0  0  0
  189.5680  175.7950  137.9580 N   0  0  2  0  0  0  0  0  0  0  0  0
  189.3020  175.3420  135.5300 C   0  0  0  0  0  2  0  0  0  0  0  0
  190.7230  174.9110  137.7770 C   0  0  0  0  0  2  0  0  0  0  0  0
  189.1640  176.3650  136.6670 C   0  0  0  0  0  2  0  0  0  0  0  0
  191.5120  173.2870  136.0150 C   0  0  0  0  0  1  0  0  0  0  0  0
  191.6890  175.9570  143.5420 C   0  0  0  0  0  2  0  0  0  0  0  0
  191.9040  176.1340  144.9380 O   0  0  0  0  0  0  0  0  0  0  0  0
  192.4300  176.0030  147.7400 C   0  0  0  0  0  1  0  0  0  0  0  0
  190.9250  176.6090  145.8190 C   0  0  0  0  0  0  0  0  0  0  0  0
  191.1600  176.5670  147.2020 C   0  0  0  0  0  0  0  0  0  0  0  0
  188.9940  177.5710  147.6140 C   0  0  0  0  0  3  0  0  0  0  0  0
  188.7490  177.6100  146.2400 C   0  0  0  0  0  3  0  0  0  0  0  0
  189.7090  177.1280  145.3460 C   0  0  0  0  0  3  0  0  0  0  0  0
  190.1960  177.0480  148.0940 C   0  0  0  0  0  3  0  0  0  0  0  0
  1 10  1  0  0  0  0
  1  8  1  0  0  0  0
  2  6  1  0  0  0  0
  2 13  1  6  0  0  0
  3  8  2  0  0  0  0
  3 17  1  0  0  0  0
  4  9  1  0  0  0  0
  5  6  1  0  0  0  0
  7 16  1  0  0  0  0
  8  2  1  0  0  0  0
  9 16  1  0  0  0  0
 10  5  1  0  0  0  0
 11  3  1  0  0  0  0
 12  1  2  0  0  0  0
 14  4  1  0  0  0  0
 15 11  1  1  0  0  0
 15 14  1  0  0  0  0
 16 26  1  6  0  0  0
 17  7  1  0  0  0  0
 18 12  1  0  0  0  0
 18 11  2  0  0  0  0
 19 25  1  6  0  0  0
 19 23  1  0  0  0  0
 20 19  1  0  0  0  0
 21 24  1  6  0  0  0
 21 15  1  0  0  0  0
 22 20  1  0  0  0  0
 22 24  1  0  0  0  0
 23 21  1  0  0  0  0
 26 27  1  0  0  0  0
 27 29  1  0  0  0  0
 29 30  1  0  0  0  0
 30 28  1  0  0  0  0
 30 34  2  0  0  0  0
 31 34  1  0  0  0  0
 32 31  2  0  0  0  0
 33 29  2  0  0  0  0
 33 32  1  0  0  0  0
M  END
>  <MODEL>
6

>  <REMARK>
 VINA RESULT:      -7.0      2.631      7.402
  Name = 
  4 active torsions:
  status: ('A' for Active; 'I' for Inactive)
    1  A    between atoms: O_3  and  C_13
    2  A    between atoms: O_3  and  C_17
    3  A    between atoms: N_12  and  C_28
    4  A    between atoms: C_17  and  C_29
                            x       y       z     vdW  Elec       q    Type
                         _______ _______ _______ _____ _____    ______ ____

>  <TORSDO>
F 4

$$$$
=
 OpenBabel11052414063D

 34 38  0  0  1  0  0  0  0  0999 V2000
  193.3740  175.3770  137.5950 C   0  0  0  0  0  0  0  0  0  0  0  0
  191.5680  174.2300  136.2100 C   0  0  2  0  0  3  0  0  0  0  0  0
  191.0460  175.8140  138.1370 C   0  0  0  0  0  0  0  0  0  0  0  0
  189.0550  178.4850  138.6130 C   0  0  0  0  0  2  0  0  0  0  0  0
  193.9470  174.2610  135.4320 C   0  0  0  0  0  2  0  0  0  0  0  0
  192.7070  173.4040  135.6130 C   0  0  0  0  0  2  0  0  0  0  0  0
  189.1110  176.2990  136.6310 C   0  0  0  0  0  2  0  0  0  0  0  0
  192.0050  175.1290  137.3560 C   0  0  0  0  0  0  0  0  0  0  0  0
  187.7860  178.2530  137.8000 C   0  0  0  0  0  2  0  0  0  0  0  0
  194.4490  174.6890  136.8030 C   0  0  0  0  0  2  0  0  0  0  0  0
  191.4730  176.6690  139.1830 C   0  0  0  0  0  0  0  0  0  0  0  0
  193.7480  176.2030  138.6050 N   0  0  0  0  0  0  0  0  0  0  0  0
  190.5700  173.3640  136.6230 F   0  0  0  0  0  0  0  0  0  0  0  0
  189.1510  177.5040  139.6850 N   0  0  0  0  0  2  0  0  0  0  0  0
  190.5500  177.4430  140.1130 C   0  0  1  0  0  3  0  0  0  0  0  0
  187.7740  176.9910  136.9160 C   0  0  2  0  0  3  0  0  0  0  0  0
  189.6560  175.6880  137.8350 N   0  0  0  0  0  2  0  0  0  0  0  0
  192.8440  176.8390  139.3870 C   0  0  0  0  0  3  0  0  0  0  0  0
  189.5530  176.3840  143.5910 C   0  0  2  0  0  3  0  0  0  0  0  0
  190.8770  176.5040  144.0880 O   0  0  0  0  0  0  0  0  0  0  0  0
  190.6800  176.9770  141.5000 N   0  0  2  0  0  0  0  0  0  0  0  0
  191.3940  177.7700  143.7440 C   0  0  0  0  0  2  0  0  0  0  0  0
  189.3760  176.9350  142.1670 C   0  0  0  0  0  2  0  0  0  0  0  0
  191.5870  177.8780  142.2240 C   0  0  0  0  0  2  0  0  0  0  0  0
  188.5480  176.9970  144.5490 C   0  0  0  0  0  1  0  0  0  0  0  0
  186.6200  176.0370  137.2180 C   0  0  0  0  0  2  0  0  0  0  0  0
  187.0310  174.6740  137.1770 O   0  0  0  0  0  0  0  0  0  0  0  0
  187.6900  173.1120  134.8810 C   0  0  0  0  0  1  0  0  0  0  0  0
  186.1810  173.6190  136.8280 C   0  0  0  0  0  0  0  0  0  0  0  0
  186.4850  172.8270  135.7090 C   0  0  0  0  0  0  0  0  0  0  0  0
  184.5100  171.4820  136.1090 C   0  0  0  0  0  3  0  0  0  0  0  0
  184.1960  172.2690  137.2180 C   0  0  0  0  0  3  0  0  0  0  0  0
  185.0260  173.3350  137.5750 C   0  0  0  0  0  3  0  0  0  0  0  0
  185.6500  171.7620  135.3550 C   0  0  0  0  0  3  0  0  0  0  0  0
  1 12  1  0  0  0  0
  2 13  1  1  0  0  0
  2  8  1  0  0  0  0
  3 11  2  0  0  0  0
  4 14  1  0  0  0  0
  5  6  1  0  0  0  0
  5 10  1  0  0  0  0
  6  2  1  0  0  0  0
  7 16  1  0  0  0  0
  7 17  1  0  0  0  0
  8  1  2  0  0  0  0
  8  3  1  0  0  0  0
  9  4  1  0  0  0  0
 10  1  1  0  0  0  0
 11 18  1  0  0  0  0
 12 18  2  0  0  0  0
 14 15  1  0  0  0  0
 15 11  1  6  0  0  0
 15 21  1  0  0  0  0
 16 26  1  1  0  0  0
 16  9  1  0  0  0  0
 17  3  1  0  0  0  0
 19 20  1  0  0  0  0
 19 25  1  1  0  0  0
 21 23  1  1  0  0  0
 21 24  1  0  0  0  0
 22 20  1  0  0  0  0
 23 19  1  0  0  0  0
 24 22  1  0  0  0  0
 27 26  1  0  0  0  0
 28 30  1  0  0  0  0
 29 27  1  0  0  0  0
 29 33  1  0  0  0  0
 30 29  2  0  0  0  0
 31 32  1  0  0  0  0
 32 33  2  0  0  0  0
 34 30  1  0  0  0  0
 34 31  2  0  0  0  0
M  END
>  <MODEL>
7

>  <REMARK>
 VINA RESULT:      -7.0      2.599      4.338
  Name = 
  4 active torsions:
  status: ('A' for Active; 'I' for Inactive)
    1  A    between atoms: O_3  and  C_13
    2  A    between atoms: O_3  and  C_17
    3  A    between atoms: N_12  and  C_28
    4  A    between atoms: C_17  and  C_29
                            x       y       z     vdW  Elec       q    Type
                         _______ _______ _______ _____ _____    ______ ____

>  <TORSDO>
F 4

$$$$
=
 OpenBabel11052414063D

 34 38  0  0  1  0  0  0  0  0999 V2000
  183.7280  178.7420  144.5730 C   0  0  0  0  0  0  0  0  0  0  0  0
  186.0450  177.9780  143.8360 C   0  0  2  0  0  3  0  0  0  0  0  0
  184.0920  178.2520  142.2210 C   0  0  0  0  0  0  0  0  0  0  0  0
  183.5890  179.7550  139.2530 C   0  0  0  0  0  2  0  0  0  0  0  0
  185.6940  178.9870  146.0990 C   0  0  0  0  0  2  0  0  0  0  0  0
  186.3600  177.8630  145.3270 C   0  0  0  0  0  2  0  0  0  0  0  0
  185.9930  178.8830  140.7250 C   0  0  0  0  0  2  0  0  0  0  0  0
  184.5870  178.2960  143.5440 C   0  0  0  0  0  0  0  0  0  0  0  0
  184.8820  179.6240  138.4540 C   0  0  0  0  0  2  0  0  0  0  0  0
  184.1850  178.8190  146.0020 C   0  0  0  0  0  2  0  0  0  0  0  0
  182.7380  178.5790  141.9660 C   0  0  0  0  0  0  0  0  0  0  0  0
  182.4360  179.0480  144.2930 N   0  0  0  0  0  0  0  0  0  0  0  0
  186.4190  176.7980  143.2180 F   0  0  0  0  0  0  0  0  0  0  0  0
  182.9940  178.4440  139.4640 N   0  0  0  0  0  2  0  0  0  0  0  0
  182.0720  178.5470  140.5980 C   0  0  1  0  0  3  0  0  0  0  0  0
  186.0700  178.9850  139.1980 C   0  0  2  0  0  3  0  0  0  0  0  0
  184.9700  177.9340  141.1400 N   0  0  0  0  0  2  0  0  0  0  0  0
  181.9350  178.9760  143.0370 C   0  0  0  0  0  3  0  0  0  0  0  0
  180.3760  175.2570  139.8770 C   0  0  2  0  0  3  0  0  0  0  0  0
  179.0790  175.7960  140.0840 O   0  0  0  0  0  0  0  0  0  0  0  0
  181.0180  177.5250  140.5430 N   0  0  2  0  0  0  0  0  0  0  0  0
  178.9310  176.9690  139.3160 C   0  0  0  0  0  2  0  0  0  0  0  0
  181.4880  176.3190  139.8550 C   0  0  0  0  0  2  0  0  0  0  0  0
  179.8510  178.0790  139.8450 C   0  0  0  0  0  2  0  0  0  0  0  0
  180.4180  174.3870  138.6350 C   0  0  0  0  0  1  0  0  0  0  0  0
  186.6330  177.7430  138.5090 C   0  0  0  0  0  2  0  0  0  0  0  0
  187.8680  178.0120  137.8540 O   0  0  0  0  0  0  0  0  0  0  0  0
  189.7550  176.9510  135.9940 C   0  0  0  0  0  1  0  0  0  0  0  0
  189.1110  177.5890  138.3400 C   0  0  0  0  0  0  0  0  0  0  0  0
  190.0630  177.0720  137.4470 C   0  0  0  0  0  0  0  0  0  0  0  0
  191.6200  176.7500  139.2750 C   0  0  0  0  0  3  0  0  0  0  0  0
  190.6760  177.2560  140.1710 C   0  0  0  0  0  3  0  0  0  0  0  0
  189.4250  177.6700  139.7070 C   0  0  0  0  0  3  0  0  0  0  0  0
  191.3130  176.6560  137.9170 C   0  0  0  0  0  3  0  0  0  0  0  0
  1 10  1  0  0  0  0
  2 13  1  6  0  0  0
  2  6  1  0  0  0  0
  3  8  1  0  0  0  0
  4 14  1  0  0  0  0
  6  5  1  0  0  0  0
  7 17  1  0  0  0  0
  8  2  1  0  0  0  0
  8  1  2  0  0  0  0
  9 16  1  0  0  0  0
  9  4  1  0  0  0  0
 10  5  1  0  0  0  0
 11  3  2  0  0  0  0
 11 18  1  0  0  0  0
 12  1  1  0  0  0  0
 15 14  1  6  0  0  0
 15 11  1  0  0  0  0
 16 26  1  6  0  0  0
 16  7  1  0  0  0  0
 17  3  1  0  0  0  0
 18 12  2  0  0  0  0
 19 25  1  6  0  0  0
 19 20  1  0  0  0  0
 21 24  1  6  0  0  0
 21 15  1  0  0  0  0
 22 24  1  0  0  0  0
 22 20  1  0  0  0  0
 23 19  1  0  0  0  0
 23 21  1  0  0  0  0
 27 29  1  0  0  0  0
 27 26  1  0  0  0  0
 28 30  1  0  0  0  0
 29 33  1  0  0  0  0
 30 34  1  0  0  0  0
 30 29  2  0  0  0  0
 31 32  1  0  0  0  0
 33 32  2  0  0  0  0
 34 31  2  0  0  0  0
M  END
>  <MODEL>
8

>  <REMARK>
 VINA RESULT:      -6.7      3.637      8.924
  Name = 
  4 active torsions:
  status: ('A' for Active; 'I' for Inactive)
    1  A    between atoms: O_3  and  C_13
    2  A    between atoms: O_3  and  C_17
    3  A    between atoms: N_12  and  C_28
    4  A    between atoms: C_17  and  C_29
                            x       y       z     vdW  Elec       q    Type
                         _______ _______ _______ _____ _____    ______ ____

>  <TORSDO>
F 4

$$$$
=
 OpenBabel11052414063D

 34 38  0  0  1  0  0  0  0  0999 V2000
  180.6830  177.6440  140.2370 C   0  0  0  0  0  0  0  0  0  0  0  0
  182.8010  178.5600  141.3180 C   0  0  2  0  0  3  0  0  0  0  0  0
  182.8290  177.0750  139.2480 C   0  0  0  0  0  0  0  0  0  0  0  0
  184.2790  177.1670  136.2120 C   0  0  0  0  0  2  0  0  0  0  0  0
  180.5550  179.4810  141.9280 C   0  0  0  0  0  2  0  0  0  0  0  0
  181.8920  179.0020  142.4640 C   0  0  0  0  0  2  0  0  0  0  0  0
  184.8150  178.5190  138.7800 C   0  0  0  0  0  2  0  0  0  0  0  0
  182.0930  177.7170  140.2700 C   0  0  0  0  0  0  0  0  0  0  0  0
  185.6540  177.8050  136.3870 C   0  0  0  0  0  2  0  0  0  0  0  0
  179.8360  178.3040  141.2860 C   0  0  0  0  0  2  0  0  0  0  0  0
  182.1490  176.3160  138.2630 C   0  0  0  0  0  0  0  0  0  0  0  0
  180.0640  176.9090  139.2790 N   0  0  0  0  0  0  0  0  0  0  0  0
  183.8760  177.8720  141.8530 F   0  0  0  0  0  0  0  0  0  0  0  0
  184.2270  175.8880  136.9060 N   0  0  0  0  0  2  0  0  0  0  0  0
  182.8180  175.5550  137.1270 C   0  0  1  0  0  3  0  0  0  0  0  0
  185.9760  178.3310  137.7980 C   0  0  2  0  0  3  0  0  0  0  0  0
  184.2450  177.2380  139.1760 N   0  0  0  0  0  2  0  0  0  0  0  0
  180.7540  176.2560  138.3130 C   0  0  0  0  0  3  0  0  0  0  0  0
  183.5730  171.8620  137.1020 C   0  0  2  0  0  3  0  0  0  0  0  0
  182.1990  171.5050  137.1270 O   0  0  0  0  0  0  0  0  0  0  0  0
  182.6100  174.1070  137.2620 N   0  0  2  0  0  0  0  0  0  0  0  0
  181.5170  172.1990  136.1070 C   0  0  0  0  0  2  0  0  0  0  0  0
  183.8160  173.3650  136.8870 C   0  0  0  0  0  2  0  0  0  0  0  0
  181.4850  173.7040  136.4090 C   0  0  0  0  0  2  0  0  0  0  0  0
  184.3400  171.0270  136.0940 C   0  0  0  0  0  1  0  0  0  0  0  0
  187.2310  177.7160  138.4140 C   0  0  0  0  0  2  0  0  0  0  0  0
  187.7880  178.5450  139.4290 O   0  0  0  0  0  0  0  0  0  0  0  0
  190.2700  177.2790  140.0420 C   0  0  0  0  0  1  0  0  0  0  0  0
  188.0070  178.1200  140.7440 C   0  0  0  0  0  0  0  0  0  0  0  0
  189.2230  177.5020  141.0780 C   0  0  0  0  0  0  0  0  0  0  0  0
  188.4890  177.2700  143.3750 C   0  0  0  0  0  3  0  0  0  0  0  0
  187.2740  177.8760  143.0510 C   0  0  0  0  0  3  0  0  0  0  0  0
  187.0320  178.2960  141.7400 C   0  0  0  0  0  3  0  0  0  0  0  0
  189.4600  177.0810  142.3900 C   0  0  0  0  0  3  0  0  0  0  0  0
  1  8  1  0  0  0  0
  1 10  1  0  0  0  0
  2 13  1  1  0  0  0
  2  6  1  0  0  0  0
  3  8  2  0  0  0  0
  4  9  1  0  0  0  0
  4 14  1  0  0  0  0
  5  6  1  0  0  0  0
  7 17  1  0  0  0  0
  8  2  1  0  0  0  0
  9 16  1  0  0  0  0
 10  5  1  0  0  0  0
 11 18  2  0  0  0  0
 11  3  1  0  0  0  0
 12  1  2  0  0  0  0
 15 14  1  1  0  0  0
 15 21  1  0  0  0  0
 15 11  1  0  0  0  0
 16 26  1  1  0  0  0
 16  7  1  0  0  0  0
 17  3  1  0  0  0  0
 18 12  1  0  0  0  0
 19 25  1  6  0  0  0
 19 20  1  0  0  0  0
 21 24  1  6  0  0  0
 22 24  1  0  0  0  0
 22 20  1  0  0  0  0
 23 19  1  0  0  0  0
 23 21  1  0  0  0  0
 26 27  1  0  0  0  0
 27 29  1  0  0  0  0
 28 30  1  0  0  0  0
 29 30  2  0  0  0  0
 29 33  1  0  0  0  0
 30 34  1  0  0  0  0
 32 31  1  0  0  0  0
 33 32  2  0  0  0  0
 34 31  2  0  0  0  0
M  END
>  <MODEL>
9

>  <REMARK>
 VINA RESULT:      -6.5      3.879      8.436
  Name = 
  4 active torsions:
  status: ('A' for Active; 'I' for Inactive)
    1  A    between atoms: O_3  and  C_13
    2  A    between atoms: O_3  and  C_17
    3  A    between atoms: N_12  and  C_28
    4  A    between atoms: C_17  and  C_29
                            x       y       z     vdW  Elec       q    Type
                         _______ _______ _______ _____ _____    ______ ____

>  <TORSDO>
F 4

$$$$
