=
 OpenBabel11052415183D

 37 42  0  0  1  0  0  0  0  0999 V2000
  188.0450  177.0570  143.6890 C   0  0  1  0  0  0  0  0  0  0  0  0
  185.0130  178.9110  144.3180 C   0  0  0  0  0  0  0  0  0  0  0  0
  185.9260  179.1890  140.5940 C   0  0  2  0  0  3  0  0  0  0  0  0
  189.1870  177.2550  144.7360 C   0  0  0  0  0  0  0  0  0  0  0  0
  183.6410  178.2980  142.1590 C   0  0  0  0  0  3  0  0  0  0  0  0
  187.1730  178.4940  140.2310 N   0  0  0  0  0  0  0  0  0  0  0  0
  191.1330  176.8720  143.2030 C   0  0  0  0  0  0  0  0  0  0  0  0
  189.2090  178.4620  145.6490 C   0  0  0  0  0  2  0  0  0  0  0  0
  185.8110  179.4120  142.0660 C   0  0  0  0  0  3  0  0  0  0  0  0
  187.3000  178.2560  138.8150 C   0  0  0  0  0  0  0  0  0  0  0  0
  182.4380  177.4990  140.2590 N   0  0  0  0  0  1  0  0  0  0  0  0
  190.4800  176.7350  144.4370 O   0  0  0  0  0  0  0  0  0  0  0  0
  186.7340  177.1750  144.2420 O   0  0  0  0  0  0  0  0  0  0  0  0
  184.0380  177.9720  145.0170 C   0  0  0  0  0  1  0  0  0  0  0  0
  184.9120  177.8920  138.8240 N   0  0  0  0  0  0  0  0  0  0  0  0
  188.8240  177.0880  146.1950 C   0  0  0  0  0  2  0  0  0  0  0  0
  183.5880  178.1090  140.8370 C   0  0  0  0  0  0  0  0  0  0  0  0
  186.4520  178.4910  144.6750 C   0  0  0  0  0  2  0  0  0  0  0  0
  190.6390  177.6710  142.1630 O   0  0  0  0  0  0  0  0  0  0  0  0
  187.7350  177.4550  141.1090 C   0  0  0  0  0  2  0  0  0  0  0  0
  184.7710  178.4120  140.0110 C   0  0  0  0  0  0  0  0  0  0  0  0
  188.2390  178.0050  142.4560 C   0  0  2  0  0  3  0  0  0  0  0  0
  184.8270  178.9060  142.8160 C   0  0  0  0  0  0  0  0  0  0  0  0
  184.7750  180.3120  144.8490 C   0  0  0  0  0  1  0  0  0  0  0  0
  189.6200  178.6460  142.3260 C   0  0  0  0  0  2  0  0  0  0  0  0
  192.1990  176.2320  143.0130 O   0  0  0  0  0  0  0  0  0  0  0  0
  188.1610  175.6040  143.2310 C   0  0  0  0  0  1  0  0  0  0  0  0
  186.1780  177.9440  138.1360 C   0  0  0  0  0  3  0  0  0  0  0  0
  189.0920  179.3740  137.7710 O   0  0  0  0  0  0  0  0  0  0  0  0
  188.6410  178.2680  138.1730 C   0  0  0  0  0  0  0  0  0  0  0  0
  188.9440  175.8660  137.4470 C   0  0  0  0  0  3  0  0  0  0  0  0
  189.4750  177.0550  137.9740 C   0  0  0  0  0  0  0  0  0  0  0  0
  190.8450  177.1030  138.2810 C   0  0  0  0  0  3  0  0  0  0  0  0
  193.0110  176.0470  138.3960 O   0  0  0  0  0  1  0  0  0  0  0  0
  191.1160  174.8070  137.5660 C   0  0  0  0  0  3  0  0  0  0  0  0
  191.6610  175.9860  138.0820 C   0  0  0  0  0  0  0  0  0  0  0  0
  189.7580  174.7480  137.2460 C   0  0  0  0  0  3  0  0  0  0  0  0
  1 27  1  6  0  0  0
  1 13  1  0  0  0  0
  1  4  1  0  0  0  0
  2 18  1  0  0  0  0
  2 24  1  0  0  0  0
  2 14  1  0  0  0  0
  3  9  1  1  0  0  0
  4  8  1  0  0  0  0
  4 16  1  0  0  0  0
  5 23  1  0  0  0  0
  6  3  1  0  0  0  0
  6 20  1  0  0  0  0
  7 12  1  0  0  0  0
  8 16  1  0  0  0  0
  9 23  2  0  0  0  0
 10  6  1  0  0  0  0
 11 17  1  0  0  0  0
 12  4  1  0  0  0  0
 13 18  1  0  0  0  0
 15 21  2  0  0  0  0
 17  5  2  0  0  0  0
 19 25  1  0  0  0  0
 19  7  1  0  0  0  0
 21  3  1  0  0  0  0
 21 17  1  0  0  0  0
 22 20  1  6  0  0  0
 22  1  1  0  0  0  0
 23  2  1  0  0  0  0
 25 22  1  0  0  0  0
 26  7  2  0  0  0  0
 28 10  2  0  0  0  0
 28 15  1  0  0  0  0
 29 30  2  0  0  0  0
 30 10  1  0  0  0  0
 31 32  1  0  0  0  0
 32 30  1  0  0  0  0
 32 33  2  0  0  0  0
 35 36  2  0  0  0  0
 36 33  1  0  0  0  0
 36 34  1  0  0  0  0
 37 31  2  0  0  0  0
 37 35  1  0  0  0  0
M  END
>  <MODEL>
1

>  <REMARK>
 VINA RESULT:      -7.6      0.000      0.000
  Name = 
  2 active torsions:
  status: ('A' for Active; 'I' for Inactive)
    1  A    between atoms: C_6  and  C_31
    2  A    between atoms: C_14  and  C_31
                            x       y       z     vdW  Elec       q    Type
                         _______ _______ _______ _____ _____    ______ ____

>  <TORSDO>
F 2

$$$$
=
 OpenBabel11052415183D

 37 42  0  0  1  0  0  0  0  0999 V2000
  184.4690  175.9470  137.2010 C   0  0  1  0  0  0  0  0  0  0  0  0
  187.5430  177.7930  137.6150 C   0  0  0  0  0  0  0  0  0  0  0  0
  184.9120  179.1300  140.0790 C   0  0  2  0  0  3  0  0  0  0  0  0
  184.0240  175.6990  135.7250 C   0  0  0  0  0  0  0  0  0  0  0  0
  187.5960  178.0190  140.2350 C   0  0  0  0  0  3  0  0  0  0  0  0
  183.6010  178.4680  139.9710 N   0  0  0  0  0  0  0  0  0  0  0  0
  181.5490  175.6290  136.1140 C   0  0  0  0  0  0  0  0  0  0  0  0
  184.5570  176.5520  134.5940 C   0  0  0  0  0  2  0  0  0  0  0  0
  185.7660  178.8930  138.8770 C   0  0  0  0  0  3  0  0  0  0  0  0
  182.7640  178.6730  141.1270 C   0  0  0  0  0  0  0  0  0  0  0  0
  187.6190  177.9720  142.6210 N   0  0  0  0  0  1  0  0  0  0  0  0
  182.7190  175.1770  135.4870 O   0  0  0  0  0  0  0  0  0  0  0  0
  185.8850  176.0110  137.3700 O   0  0  0  0  0  0  0  0  0  0  0  0
  188.6590  176.7800  137.8330 C   0  0  0  0  0  1  0  0  0  0  0  0
  184.7980  178.5550  142.4240 N   0  0  0  0  0  0  0  0  0  0  0  0
  185.0550  175.1200  134.7800 C   0  0  0  0  0  2  0  0  0  0  0  0
  186.9640  178.2570  141.3890 C   0  0  0  0  0  0  0  0  0  0  0  0
  186.4480  177.1470  136.7430 C   0  0  0  0  0  2  0  0  0  0  0  0
  181.5160  176.7560  136.9470 O   0  0  0  0  0  0  0  0  0  0  0  0
  183.4750  177.1580  139.3120 C   0  0  0  0  0  2  0  0  0  0  0  0
  185.5550  178.6880  141.3710 C   0  0  0  0  0  0  0  0  0  0  0  0
  183.7580  177.2100  137.7990 C   0  0  2  0  0  3  0  0  0  0  0  0
  186.9500  178.2750  138.9220 C   0  0  0  0  0  0  0  0  0  0  0  0
  188.1230  178.9740  136.8610 C   0  0  0  0  0  1  0  0  0  0  0  0
  182.5530  177.7240  137.0130 C   0  0  0  0  0  2  0  0  0  0  0  0
  180.4850  174.9810  135.9400 O   0  0  0  0  0  0  0  0  0  0  0  0
  184.0260  174.7060  137.9730 C   0  0  0  0  0  1  0  0  0  0  0  0
  183.3660  178.6980  142.3320 C   0  0  0  0  0  3  0  0  0  0  0  0
  180.6010  177.7620  141.3320 O   0  0  0  0  0  0  0  0  0  0  0  0
  181.2880  178.7560  140.9730 C   0  0  0  0  0  0  0  0  0  0  0  0
  179.5660  180.6000  141.1350 C   0  0  0  0  0  3  0  0  0  0  0  0
  180.5760  179.9370  140.4190 C   0  0  0  0  0  0  0  0  0  0  0  0
  180.9470  180.4360  139.1590 C   0  0  0  0  0  3  0  0  0  0  0  0
  180.6850  182.0350  137.3720 O   0  0  0  0  0  1  0  0  0  0  0  0
  179.3030  182.2010  139.3410 C   0  0  0  0  0  3  0  0  0  0  0  0
  180.3120  181.5580  138.6200 C   0  0  0  0  0  0  0  0  0  0  0  0
  178.9310  181.7230  140.5990 C   0  0  0  0  0  3  0  0  0  0  0  0
  1 13  1  0  0  0  0
  1 22  1  0  0  0  0
  1 27  1  1  0  0  0
  2 14  1  0  0  0  0
  2 23  1  0  0  0  0
  3  9  1  6  0  0  0
  3 21  1  0  0  0  0
  4  1  1  0  0  0  0
  5 17  2  0  0  0  0
  6  3  1  0  0  0  0
  6 10  1  0  0  0  0
  7 19  1  0  0  0  0
  8 16  1  0  0  0  0
  8  4  1  0  0  0  0
  9 23  2  0  0  0  0
 10 28  2  0  0  0  0
 12  4  1  0  0  0  0
 12  7  1  0  0  0  0
 16  4  1  0  0  0  0
 17 11  1  0  0  0  0
 18 13  1  0  0  0  0
 18  2  1  0  0  0  0
 19 25  1  0  0  0  0
 20  6  1  0  0  0  0
 21 17  1  0  0  0  0
 21 15  2  0  0  0  0
 22 25  1  6  0  0  0
 22 20  1  0  0  0  0
 23  5  1  0  0  0  0
 24  2  1  0  0  0  0
 26  7  2  0  0  0  0
 28 15  1  0  0  0  0
 30 10  1  0  0  0  0
 30 29  2  0  0  0  0
 32 30  1  0  0  0  0
 32 31  2  0  0  0  0
 33 32  1  0  0  0  0
 34 36  1  0  0  0  0
 35 37  2  0  0  0  0
 36 33  2  0  0  0  0
 36 35  1  0  0  0  0
 37 31  1  0  0  0  0
M  END
>  <MODEL>
2

>  <REMARK>
 VINA RESULT:      -6.5      4.324      8.902
  Name = 
  2 active torsions:
  status: ('A' for Active; 'I' for Inactive)
    1  A    between atoms: C_6  and  C_31
    2  A    between atoms: C_14  and  C_31
                            x       y       z     vdW  Elec       q    Type
                         _______ _______ _______ _____ _____    ______ ____

>  <TORSDO>
F 2

$$$$
=
 OpenBabel11052415183D

 37 42  0  0  1  0  0  0  0  0999 V2000
  181.3900  175.4130  138.4490 C   0  0  1  0  0  0  0  0  0  0  0  0
  182.6990  177.0890  135.5330 C   0  0  0  0  0  0  0  0  0  0  0  0
  184.0700  178.7840  138.7000 C   0  0  0  0  0  0  0  0  0  0  0  0
  179.8650  175.0750  138.4050 C   0  0  0  0  0  0  0  0  0  0  0  0
  185.1710  177.5220  136.3210 C   0  0  0  0  0  3  0  0  0  0  0  0
  183.5700  178.1990  139.9550 N   0  0  0  0  0  0  0  0  0  0  0  0
  179.4130  175.1930  140.8680 C   0  0  0  0  0  0  0  0  0  0  0  0
  178.9310  175.7990  137.4600 C   0  0  0  0  0  2  0  0  0  0  0  0
  183.2360  178.3970  137.5230 C   0  0  0  0  0  3  0  0  0  0  0  0
  184.3680  178.5480  141.1040 C   0  0  0  0  0  0  0  0  0  0  0  0
  187.4280  177.6660  137.0850 N   0  0  0  0  0  1  0  0  0  0  0  0
  179.2360  174.6180  139.6000 O   0  0  0  0  0  0  0  0  0  0  0  0
  182.0150  175.4020  137.1650 O   0  0  0  0  0  0  0  0  0  0  0  0
  183.3320  176.0300  134.6410 C   0  0  0  0  0  1  0  0  0  0  0  0
  186.2720  178.4070  139.6240 N   0  0  0  0  0  0  0  0  0  0  0  0
  179.3500  174.3590  137.1760 C   0  0  0  0  0  2  0  0  0  0  0  0
  186.0340  177.8920  137.2730 C   0  0  2  0  0  3  0  0  0  0  0  0
  181.5500  176.4460  136.3330 C   0  0  0  0  0  2  0  0  0  0  0  0
  180.1240  176.3820  141.0750 O   0  0  0  0  0  0  0  0  0  0  0  0
  182.9800  176.8500  139.9710 C   0  0  0  0  0  2  0  0  0  0  0  0
  185.5250  178.4080  138.5560 C   0  0  0  0  0  0  0  0  0  0  0  0
  181.6460  176.7620  139.2040 C   0  0  2  0  0  3  0  0  0  0  0  0
  183.7060  177.7120  136.4770 C   0  0  0  0  0  0  0  0  0  0  0  0
  182.1170  178.1680  134.6390 C   0  0  0  0  0  1  0  0  0  0  0  0
  180.4770  177.2860  140.0370 C   0  0  0  0  0  2  0  0  0  0  0  0
  178.9310  174.6010  141.8670 O   0  0  0  0  0  0  0  0  0  0  0  0
  182.0380  174.2680  139.2250 C   0  0  0  0  0  1  0  0  0  0  0  0
  185.7020  178.6320  140.9290 C   0  0  0  0  0  3  0  0  0  0  0  0
  182.4960  178.9790  142.4690 O   0  0  0  0  0  0  0  0  0  0  0  0
  183.7280  178.7110  142.4350 C   0  0  0  0  0  0  0  0  0  0  0  0
  183.9180  179.0680  144.9300 C   0  0  0  0  0  3  0  0  0  0  0  0
  184.4540  178.5840  143.7260 C   0  0  0  0  0  0  0  0  0  0  0  0
  185.6930  177.9240  143.7570 C   0  0  0  0  0  3  0  0  0  0  0  0
  187.6160  177.1190  144.9720 O   0  0  0  0  0  1  0  0  0  0  0  0
  185.8480  178.2630  146.1470 C   0  0  0  0  0  3  0  0  0  0  0  0
  186.3890  177.7680  144.9590 C   0  0  0  0  0  0  0  0  0  0  0  0
  184.6120  178.9120  146.1340 C   0  0  0  0  0  3  0  0  0  0  0  0
  1 22  1  0  0  0  0
  1 27  1  1  0  0  0
  2 18  1  0  0  0  0
  2 23  1  0  0  0  0
  3  6  1  0  0  0  0
  4  1  1  0  0  0  0
  4 12  1  0  0  0  0
  5 23  2  0  0  0  0
  5 17  1  0  0  0  0
  6 20  1  0  0  0  0
  6 10  1  0  0  0  0
  7 19  1  0  0  0  0
  7 26  2  0  0  0  0
  8  4  1  0  0  0  0
  9  3  2  0  0  0  0
 10 30  1  0  0  0  0
 12  7  1  0  0  0  0
 13  1  1  0  0  0  0
 14  2  1  0  0  0  0
 15 28  1  0  0  0  0
 16  8  1  0  0  0  0
 16  4  1  0  0  0  0
 17 11  1  1  0  0  0
 17 21  1  0  0  0  0
 18 13  1  0  0  0  0
 21  3  1  0  0  0  0
 21 15  2  0  0  0  0
 22 20  1  1  0  0  0
 22 25  1  0  0  0  0
 23  9  1  0  0  0  0
 24  2  1  0  0  0  0
 25 19  1  0  0  0  0
 28 10  2  0  0  0  0
 30 29  2  0  0  0  0
 30 32  1  0  0  0  0
 31 37  1  0  0  0  0
 32 33  1  0  0  0  0
 32 31  2  0  0  0  0
 33 36  2  0  0  0  0
 36 34  1  0  0  0  0
 36 35  1  0  0  0  0
 37 35  2  0  0  0  0
M  END
>  <MODEL>
3

>  <REMARK>
 VINA RESULT:      -6.4      4.193      8.678
  Name = 
  2 active torsions:
  status: ('A' for Active; 'I' for Inactive)
    1  A    between atoms: C_6  and  C_31
    2  A    between atoms: C_14  and  C_31
                            x       y       z     vdW  Elec       q    Type
                         _______ _______ _______ _____ _____    ______ ____

>  <TORSDO>
F 2

$$$$
=
 OpenBabel11052415183D

 37 42  0  0  1  0  0  0  0  0999 V2000
  187.7040  177.1400  143.8040 C   0  0  1  0  0  0  0  0  0  0  0  0
  185.8100  178.9060  146.3190 C   0  0  0  0  0  0  0  0  0  0  0  0
  184.3560  179.6870  142.8470 C   0  0  2  0  0  3  0  0  0  0  0  0
  189.2560  177.1870  143.9720 C   0  0  0  0  0  0  0  0  0  0  0  0
  183.3780  178.6020  145.3630 C   0  0  0  0  0  3  0  0  0  0  0  0
  185.0780  179.0430  141.7380 N   0  0  0  0  0  0  0  0  0  0  0  0
  189.8710  177.0080  141.5490 C   0  0  0  0  0  0  0  0  0  0  0  0
  189.9200  178.2560  144.8120 C   0  0  0  0  0  2  0  0  0  0  0  0
  185.1560  179.7070  144.1080 C   0  0  0  0  0  3  0  0  0  0  0  0
  184.3200  179.0010  140.5130 C   0  0  0  0  0  0  0  0  0  0  0  0
  181.2190  178.0780  144.4920 N   0  0  0  0  0  1  0  0  0  0  0  0
  190.0690  176.7060  142.9040 O   0  0  0  0  0  0  0  0  0  0  0  0
  186.9930  177.1880  145.0420 O   0  0  0  0  0  0  0  0  0  0  0  0
  185.3630  177.8850  147.3580 C   0  0  0  0  0  1  0  0  0  0  0  0
  182.3820  178.6510  141.9120 N   0  0  0  0  0  0  0  0  0  0  0  0
  189.8170  176.8230  145.3290 C   0  0  0  0  0  2  0  0  0  0  0  0
  182.5350  178.5960  144.3260 C   0  0  0  0  0  0  0  0  0  0  0  0
  187.1380  178.4340  145.6950 C   0  0  0  0  0  2  0  0  0  0  0  0
  188.9280  177.9440  141.1040 O   0  0  0  0  0  0  0  0  0  0  0  0
  185.9590  177.8890  141.9860 C   0  0  0  0  0  2  0  0  0  0  0  0
  183.0180  179.0030  142.9940 C   0  0  0  0  0  0  0  0  0  0  0  0
  187.2100  178.2470  142.8120 C   0  0  2  0  0  3  0  0  0  0  0  0
  184.7690  179.1080  145.2380 C   0  0  0  0  0  0  0  0  0  0  0  0
  186.0560  180.2220  147.0320 C   0  0  0  0  0  1  0  0  0  0  0  0
  188.2930  178.8930  141.9490 C   0  0  0  0  0  2  0  0  0  0  0  0
  190.5570  176.3940  140.6910 O   0  0  0  0  0  0  0  0  0  0  0  0
  187.3990  175.7630  143.2170 C   0  0  0  0  0  1  0  0  0  0  0  0
  182.9920  178.7900  140.6130 C   0  0  0  0  0  3  0  0  0  0  0  0
  185.0840  180.2250  138.6500 O   0  0  0  0  0  0  0  0  0  0  0  0
  185.0130  179.0930  139.2010 C   0  0  0  0  0  0  0  0  0  0  0  0
  184.8380  176.9380  137.8920 C   0  0  0  0  0  3  0  0  0  0  0  0
  185.6220  177.9320  138.5010 C   0  0  0  0  0  0  0  0  0  0  0  0
  187.0200  177.8410  138.4050 C   0  0  0  0  0  3  0  0  0  0  0  0
  189.0040  176.6940  137.6520 O   0  0  0  0  0  1  0  0  0  0  0  0
  186.8290  175.7870  137.1410 C   0  0  0  0  0  3  0  0  0  0  0  0
  187.6210  176.7730  137.7330 C   0  0  0  0  0  0  0  0  0  0  0  0
  185.4370  175.8700  137.2190 C   0  0  0  0  0  3  0  0  0  0  0  0
  1 27  1  6  0  0  0
  1  4  1  0  0  0  0
  1 13  1  0  0  0  0
  2 24  1  0  0  0  0
  2 14  1  0  0  0  0
  3 21  1  0  0  0  0
  3  9  1  1  0  0  0
  4  8  1  0  0  0  0
  4 16  1  0  0  0  0
  6 20  1  0  0  0  0
  6  3  1  0  0  0  0
  7 12  1  0  0  0  0
  8 16  1  0  0  0  0
  9 23  2  0  0  0  0
 10 28  2  0  0  0  0
 10  6  1  0  0  0  0
 12  4  1  0  0  0  0
 13 18  1  0  0  0  0
 15 21  2  0  0  0  0
 17 11  1  0  0  0  0
 17  5  2  0  0  0  0
 18  2  1  0  0  0  0
 19  7  1  0  0  0  0
 19 25  1  0  0  0  0
 20 22  1  0  0  0  0
 21 17  1  0  0  0  0
 22 25  1  6  0  0  0
 22  1  1  0  0  0  0
 23  5  1  0  0  0  0
 23  2  1  0  0  0  0
 26  7  2  0  0  0  0
 28 15  1  0  0  0  0
 29 30  2  0  0  0  0
 30 10  1  0  0  0  0
 31 32  1  0  0  0  0
 32 30  1  0  0  0  0
 33 32  2  0  0  0  0
 34 36  1  0  0  0  0
 35 37  1  0  0  0  0
 35 36  2  0  0  0  0
 36 33  1  0  0  0  0
 37 31  2  0  0  0  0
M  END
>  <MODEL>
4

>  <REMARK>
 VINA RESULT:      -6.4      1.940      3.004
  Name = 
  2 active torsions:
  status: ('A' for Active; 'I' for Inactive)
    1  A    between atoms: C_6  and  C_31
    2  A    between atoms: C_14  and  C_31
                            x       y       z     vdW  Elec       q    Type
                         _______ _______ _______ _____ _____    ______ ____

>  <TORSDO>
F 2

$$$$
=
 OpenBabel11052415183D

 37 42  0  0  1  0  0  0  0  0999 V2000
  182.8480  177.8140  138.7740 C   0  0  1  0  0  0  0  0  0  0  0  0
  180.8390  177.6750  135.7790 C   0  0  0  0  0  0  0  0  0  0  0  0
  184.1330  175.7830  135.1910 C   0  0  0  0  0  0  0  0  0  0  0  0
  182.9240  179.2090  139.4720 C   0  0  0  0  0  0  0  0  0  0  0  0
  181.2900  175.1920  135.0360 C   0  0  0  0  0  3  0  0  0  0  0  0
  185.0500  175.8060  136.3440 N   0  0  0  0  0  0  0  0  0  0  0  0
  185.2050  178.9680  140.4820 C   0  0  0  0  0  0  0  0  0  0  0  0
  182.5940  180.4790  138.7180 C   0  0  0  0  0  2  0  0  0  0  0  0
  183.0770  176.8350  135.2870 C   0  0  0  0  0  3  0  0  0  0  0  0
  186.0710  174.7910  136.2790 C   0  0  0  0  0  0  0  0  0  0  0  0
  181.6250  172.8710  134.5940 N   0  0  0  0  0  1  0  0  0  0  0  0
  183.8690  179.3920  140.5240 O   0  0  0  0  0  0  0  0  0  0  0  0
  181.6130  177.5790  138.0960 O   0  0  0  0  0  0  0  0  0  0  0  0
  179.4660  177.1460  136.1720 C   0  0  0  0  0  1  0  0  0  0  0  0
  184.3810  173.3800  135.2840 N   0  0  0  0  0  0  0  0  0  0  0  0
  181.6150  179.9170  139.7470 C   0  0  0  0  0  2  0  0  0  0  0  0
  182.1370  174.1740  134.8560 C   0  0  2  0  0  3  0  0  0  0  0  0
  181.4460  178.4280  136.9790 C   0  0  0  0  0  2  0  0  0  0  0  0
  185.8040  178.4410  139.3300 O   0  0  0  0  0  0  0  0  0  0  0  0
  184.5520  176.1300  137.6910 C   0  0  0  0  0  2  0  0  0  0  0  0
  183.5810  174.3850  135.0610 C   0  0  0  0  0  0  0  0  0  0  0  0
  184.0770  177.5890  137.8280 C   0  0  2  0  0  3  0  0  0  0  0  0
  181.7700  176.5660  135.3360 C   0  0  0  0  0  0  0  0  0  0  0  0
  180.6530  178.6590  134.6390 C   0  0  0  0  0  1  0  0  0  0  0  0
  185.2490  178.5500  138.0270 C   0  0  0  0  0  2  0  0  0  0  0  0
  185.8920  179.0450  141.5330 O   0  0  0  0  0  0  0  0  0  0  0  0
  182.8890  176.7900  139.9070 C   0  0  0  0  0  1  0  0  0  0  0  0
  185.7220  173.5930  135.7690 C   0  0  0  0  0  3  0  0  0  0  0  0
  188.1110  174.0580  137.2040 O   0  0  0  0  0  0  0  0  0  0  0  0
  187.4200  175.0510  136.8480 C   0  0  0  0  0  0  0  0  0  0  0  0
  188.0110  177.3520  135.9860 C   0  0  0  0  0  3  0  0  0  0  0  0
  187.9970  176.4080  137.0270 C   0  0  0  0  0  0  0  0  0  0  0  0
  188.5070  176.7810  138.2810 C   0  0  0  0  0  3  0  0  0  0  0  0
  189.5420  178.4090  139.7300 O   0  0  0  0  0  1  0  0  0  0  0  0
  189.0520  178.9830  137.4400 C   0  0  0  0  0  3  0  0  0  0  0  0
  189.0350  178.0580  138.4860 C   0  0  0  0  0  0  0  0  0  0  0  0
  188.5380  178.6300  136.1900 C   0  0  0  0  0  3  0  0  0  0  0  0
  1  4  1  0  0  0  0
  1 27  1  1  0  0  0
  2 14  1  0  0  0  0
  2 18  1  0  0  0  0
  3  9  2  0  0  0  0
  3  6  1  0  0  0  0
  4 16  1  0  0  0  0
  4 12  1  0  0  0  0
  5 23  2  0  0  0  0
  6 20  1  0  0  0  0
  7 12  1  0  0  0  0
  7 26  2  0  0  0  0
  8  4  1  0  0  0  0
  8 16  1  0  0  0  0
  9 23  1  0  0  0  0
 10  6  1  0  0  0  0
 10 30  1  0  0  0  0
 13  1  1  0  0  0  0
 15 28  1  0  0  0  0
 17 11  1  1  0  0  0
 17  5  1  0  0  0  0
 17 21  1  0  0  0  0
 18 13  1  0  0  0  0
 19  7  1  0  0  0  0
 21  3  1  0  0  0  0
 21 15  2  0  0  0  0
 22 20  1  1  0  0  0
 22 25  1  0  0  0  0
 22  1  1  0  0  0  0
 23  2  1  0  0  0  0
 24  2  1  0  0  0  0
 25 19  1  0  0  0  0
 28 10  2  0  0  0  0
 30 32  1  0  0  0  0
 30 29  2  0  0  0  0
 31 37  2  0  0  0  0
 31 32  1  0  0  0  0
 32 33  2  0  0  0  0
 33 36  1  0  0  0  0
 35 36  2  0  0  0  0
 36 34  1  0  0  0  0
 37 35  1  0  0  0  0
M  END
>  <MODEL>
5

>  <REMARK>
 VINA RESULT:      -6.3      4.177      6.861
  Name = 
  2 active torsions:
  status: ('A' for Active; 'I' for Inactive)
    1  A    between atoms: C_6  and  C_31
    2  A    between atoms: C_14  and  C_31
                            x       y       z     vdW  Elec       q    Type
                         _______ _______ _______ _____ _____    ______ ____

>  <TORSDO>
F 2

$$$$
=
 OpenBabel11052415183D

 37 42  0  0  1  0  0  0  0  0999 V2000
  185.4000  173.4490  136.9640 C   0  0  1  0  0  0  0  0  0  0  0  0
  188.4340  175.2350  136.1660 C   0  0  0  0  0  0  0  0  0  0  0  0
  185.6780  177.7520  137.0860 C   0  0  2  0  0  3  0  0  0  0  0  0
  185.0280  172.2840  135.9920 C   0  0  0  0  0  0  0  0  0  0  0  0
  188.3620  177.1120  138.0080 C   0  0  0  0  0  3  0  0  0  0  0  0
  184.3800  177.1310  137.3970 N   0  0  0  0  0  0  0  0  0  0  0  0
  182.5380  172.3910  136.2600 C   0  0  0  0  0  0  0  0  0  0  0  0
  185.6050  172.2160  134.5950 C   0  0  0  0  0  2  0  0  0  0  0  0
  186.5900  176.8230  136.3540 C   0  0  0  0  0  3  0  0  0  0  0  0
  183.4870  178.0060  138.1150 C   0  0  0  0  0  0  0  0  0  0  0  0
  188.2730  178.6280  139.8490 N   0  0  0  0  0  1  0  0  0  0  0  0
  183.7400  171.6840  136.1140 O   0  0  0  0  0  0  0  0  0  0  0  0
  186.8070  173.6610  137.0910 O   0  0  0  0  0  0  0  0  0  0  0  0
  189.5490  174.6510  137.0240 C   0  0  0  0  0  1  0  0  0  0  0  0
  185.4600  178.8360  139.2360 N   0  0  0  0  0  0  0  0  0  0  0  0
  186.1070  171.2690  135.6830 C   0  0  0  0  0  2  0  0  0  0  0  0
  187.6750  178.0190  138.7090 C   0  0  0  0  0  0  0  0  0  0  0  0
  187.3870  174.1370  135.8930 C   0  0  0  0  0  2  0  0  0  0  0  0
  182.4550  173.7860  136.1570 O   0  0  0  0  0  0  0  0  0  0  0  0
  184.2970  175.7030  137.7470 C   0  0  0  0  0  2  0  0  0  0  0  0
  186.2640  178.2810  138.3730 C   0  0  0  0  0  0  0  0  0  0  0  0
  184.6510  174.7690  136.5740 C   0  0  2  0  0  3  0  0  0  0  0  0
  187.7760  176.4280  136.8260 C   0  0  0  0  0  0  0  0  0  0  0  0
  189.0370  175.6630  134.8420 C   0  0  0  0  0  1  0  0  0  0  0  0
  183.4790  174.6030  135.6080 C   0  0  0  0  0  2  0  0  0  0  0  0
  181.4900  171.7460  136.5180 O   0  0  0  0  0  0  0  0  0  0  0  0
  184.9340  172.9920  138.3440 C   0  0  0  0  0  1  0  0  0  0  0  0
  184.0330  178.8300  139.0320 C   0  0  0  0  0  3  0  0  0  0  0  0
  181.5250  178.5370  136.9240 O   0  0  0  0  0  0  0  0  0  0  0  0
  182.0190  177.9130  137.9020 C   0  0  0  0  0  0  0  0  0  0  0  0
  180.6920  175.8330  138.4460 C   0  0  0  0  0  3  0  0  0  0  0  0
  181.1020  177.1360  138.7740 C   0  0  0  0  0  0  0  0  0  0  0  0
  180.6590  177.6970  139.9830 C   0  0  0  0  0  3  0  0  0  0  0  0
  179.3800  177.5520  142.0230 O   0  0  0  0  0  1  0  0  0  0  0  0
  179.4070  175.6900  140.4910 C   0  0  0  0  0  3  0  0  0  0  0  0
  179.8140  176.9810  140.8350 C   0  0  0  0  0  0  0  0  0  0  0  0
  179.8480  175.1150  139.2980 C   0  0  0  0  0  3  0  0  0  0  0  0
  1 13  1  0  0  0  0
  1 27  1  1  0  0  0
  2 23  1  0  0  0  0
  2 14  1  0  0  0  0
  3  9  1  1  0  0  0
  3  6  1  0  0  0  0
  3 21  1  0  0  0  0
  4 12  1  0  0  0  0
  4  1  1  0  0  0  0
  5 17  2  0  0  0  0
  6 20  1  0  0  0  0
  6 10  1  0  0  0  0
  7 26  2  0  0  0  0
  8 16  1  0  0  0  0
  8  4  1  0  0  0  0
  9 23  2  0  0  0  0
 10 28  2  0  0  0  0
 12  7  1  0  0  0  0
 16  4  1  0  0  0  0
 17 11  1  0  0  0  0
 18  2  1  0  0  0  0
 18 13  1  0  0  0  0
 19  7  1  0  0  0  0
 21 17  1  0  0  0  0
 21 15  2  0  0  0  0
 22 25  1  1  0  0  0
 22  1  1  0  0  0  0
 22 20  1  0  0  0  0
 23  5  1  0  0  0  0
 24  2  1  0  0  0  0
 25 19  1  0  0  0  0
 28 15  1  0  0  0  0
 29 30  2  0  0  0  0
 30 10  1  0  0  0  0
 30 32  1  0  0  0  0
 31 32  2  0  0  0  0
 31 37  1  0  0  0  0
 32 33  1  0  0  0  0
 33 36  2  0  0  0  0
 35 36  1  0  0  0  0
 36 34  1  0  0  0  0
 37 35  2  0  0  0  0
M  END
>  <MODEL>
6

>  <REMARK>
 VINA RESULT:      -6.2      4.776      9.013
  Name = 
  2 active torsions:
  status: ('A' for Active; 'I' for Inactive)
    1  A    between atoms: C_6  and  C_31
    2  A    between atoms: C_14  and  C_31
                            x       y       z     vdW  Elec       q    Type
                         _______ _______ _______ _____ _____    ______ ____

>  <TORSDO>
F 2

$$$$
=
 OpenBabel11052415183D

 37 42  0  0  1  0  0  0  0  0999 V2000
  182.5420  177.3350  139.2050 C   0  0  1  0  0  0  0  0  0  0  0  0
  182.0220  177.0430  135.6450 C   0  0  0  0  0  0  0  0  0  0  0  0
  185.7760  177.4730  136.3530 C   0  0  0  0  0  0  0  0  0  0  0  0
  181.5460  178.2750  139.9570 C   0  0  0  0  0  0  0  0  0  0  0  0
  184.0800  175.5360  135.0010 C   0  0  0  0  0  3  0  0  0  0  0  0
  186.1000  177.6380  137.7810 N   0  0  0  0  0  0  0  0  0  0  0  0
  183.0800  179.0000  141.8020 C   0  0  0  0  0  0  0  0  0  0  0  0
  180.7530  179.3290  139.2150 C   0  0  0  0  0  2  0  0  0  0  0  0
  184.3300  177.7150  136.0700 C   0  0  0  0  0  3  0  0  0  0  0  0
  187.4890  177.3960  138.0800 C   0  0  0  0  0  0  0  0  0  0  0  0
  185.8650  174.0050  134.5940 N   0  0  0  0  0  1  0  0  0  0  0  0
  181.8240  178.6110  141.3140 O   0  0  0  0  0  0  0  0  0  0  0  0
  181.9710  176.6920  138.0650 O   0  0  0  0  0  0  0  0  0  0  0  0
  181.2130  175.7760  135.4020 C   0  0  0  0  0  1  0  0  0  0  0  0
  187.3890  175.6730  136.3900 N   0  0  0  0  0  0  0  0  0  0  0  0
  180.0690  178.0570  139.7110 C   0  0  0  0  0  2  0  0  0  0  0  0
  185.3760  175.2330  135.1240 C   0  0  2  0  0  3  0  0  0  0  0  0
  181.6610  177.6080  137.0330 C   0  0  0  0  0  2  0  0  0  0  0  0
  184.1800  179.2430  140.9690 O   0  0  0  0  0  0  0  0  0  0  0  0
  185.1400  177.2300  138.8190 C   0  0  0  0  0  2  0  0  0  0  0  0
  186.2550  176.1090  135.9200 C   0  0  0  0  0  0  0  0  0  0  0  0
  183.8640  178.0930  138.8390 C   0  0  2  0  0  3  0  0  0  0  0  0
  183.5120  176.7910  135.5580 C   0  0  0  0  0  0  0  0  0  0  0  0
  181.6240  178.0620  134.5940 C   0  0  0  0  0  1  0  0  0  0  0  0
  184.0880  179.4200  139.5630 C   0  0  0  0  0  2  0  0  0  0  0  0
  183.2320  179.1150  143.0450 O   0  0  0  0  0  0  0  0  0  0  0  0
  182.8600  176.2100  140.1870 C   0  0  0  0  0  1  0  0  0  0  0  0
  188.1080  176.4120  137.3980 C   0  0  0  0  0  3  0  0  0  0  0  0
  188.7080  179.2500  138.8760 O   0  0  0  0  0  0  0  0  0  0  0  0
  188.1600  178.1520  139.1700 C   0  0  0  0  0  0  0  0  0  0  0  0
  189.2350  176.8170  141.0280 C   0  0  0  0  0  3  0  0  0  0  0  0
  188.2290  177.6900  140.5800 C   0  0  0  0  0  0  0  0  0  0  0  0
  187.2900  178.1670  141.5080 C   0  0  0  0  0  3  0  0  0  0  0  0
  186.4030  178.2440  143.7510 O   0  0  0  0  0  1  0  0  0  0  0  0
  188.3420  176.8930  143.2750 C   0  0  0  0  0  3  0  0  0  0  0  0
  187.3420  177.7690  142.8470 C   0  0  0  0  0  0  0  0  0  0  0  0
  189.2900  176.4180  142.3660 C   0  0  0  0  0  3  0  0  0  0  0  0
  1  4  1  0  0  0  0
  1 27  1  1  0  0  0
  2 18  1  0  0  0  0
  3  6  1  0  0  0  0
  4 12  1  0  0  0  0
  5 17  1  0  0  0  0
  5 23  2  0  0  0  0
  6 10  1  0  0  0  0
  6 20  1  0  0  0  0
  7 26  2  0  0  0  0
  8 16  1  0  0  0  0
  8  4  1  0  0  0  0
  9  3  2  0  0  0  0
 10 30  1  0  0  0  0
 12  7  1  0  0  0  0
 13  1  1  0  0  0  0
 14  2  1  0  0  0  0
 15 28  1  0  0  0  0
 16  4  1  0  0  0  0
 17 11  1  1  0  0  0
 17 21  1  0  0  0  0
 18 13  1  0  0  0  0
 19  7  1  0  0  0  0
 21  3  1  0  0  0  0
 21 15  2  0  0  0  0
 22 20  1  1  0  0  0
 22  1  1  0  0  0  0
 22 25  1  0  0  0  0
 23  2  1  0  0  0  0
 23  9  1  0  0  0  0
 24  2  1  0  0  0  0
 25 19  1  0  0  0  0
 28 10  2  0  0  0  0
 29 30  2  0  0  0  0
 30 32  1  0  0  0  0
 31 37  1  0  0  0  0
 32 31  2  0  0  0  0
 32 33  1  0  0  0  0
 33 36  2  0  0  0  0
 36 35  1  0  0  0  0
 36 34  1  0  0  0  0
 37 35  2  0  0  0  0
M  END
>  <MODEL>
7

>  <REMARK>
 VINA RESULT:      -6.0      3.412      7.012
  Name = 
  2 active torsions:
  status: ('A' for Active; 'I' for Inactive)
    1  A    between atoms: C_6  and  C_31
    2  A    between atoms: C_14  and  C_31
                            x       y       z     vdW  Elec       q    Type
                         _______ _______ _______ _____ _____    ______ ____

>  <TORSDO>
F 2

$$$$
=
 OpenBabel11052415183D

 37 42  0  0  1  0  0  0  0  0999 V2000
  182.0280  176.4060  138.5250 C   0  0  1  0  0  0  0  0  0  0  0  0
  179.9970  174.0310  136.7170 C   0  0  0  0  0  0  0  0  0  0  0  0
  183.5940  173.9220  135.3640 C   0  0  2  0  0  3  0  0  0  0  0  0
  181.3800  177.8070  138.7590 C   0  0  0  0  0  0  0  0  0  0  0  0
  181.6990  172.0350  136.5070 C   0  0  0  0  0  3  0  0  0  0  0  0
  184.5050  174.8820  136.0110 N   0  0  0  0  0  0  0  0  0  0  0  0
  183.4880  179.1620  138.8030 C   0  0  0  0  0  0  0  0  0  0  0  0
  180.2260  178.2880  137.9060 C   0  0  0  0  0  2  0  0  0  0  0  0
  182.1580  174.2550  135.6040 C   0  0  0  0  0  3  0  0  0  0  0  0
  185.8980  174.5730  135.8030 C   0  0  0  0  0  0  0  0  0  0  0  0
  183.2670  170.2380  136.5690 N   0  0  0  0  0  1  0  0  0  0  0  0
  182.1990  178.8580  139.2650 O   0  0  0  0  0  0  0  0  0  0  0  0
  181.0810  175.3370  138.4780 O   0  0  0  0  0  0  0  0  0  0  0  0
  179.3130  173.1380  137.7440 C   0  0  0  0  0  1  0  0  0  0  0  0
  185.2410  172.2530  135.9530 N   0  0  0  0  0  0  0  0  0  0  0  0
  179.9840  177.8350  139.3440 C   0  0  0  0  0  2  0  0  0  0  0  0
  182.9360  171.5900  136.2690 C   0  0  0  0  0  0  0  0  0  0  0  0
  180.2390  175.4180  137.3450 C   0  0  0  0  0  2  0  0  0  0  0  0
  184.0610  178.5480  137.6810 O   0  0  0  0  0  0  0  0  0  0  0  0
  184.1680  175.4740  137.3150 C   0  0  0  0  0  2  0  0  0  0  0  0
  183.9750  172.5350  135.8210 C   0  0  0  0  0  0  0  0  0  0  0  0
  182.9500  176.4160  137.2580 C   0  0  2  0  0  3  0  0  0  0  0  0
  181.3070  173.4430  136.2360 C   0  0  0  0  0  0  0  0  0  0  0  0
  179.0570  174.1950  135.5380 C   0  0  0  0  0  1  0  0  0  0  0  0
  183.3260  177.7970  136.7250 C   0  0  0  0  0  2  0  0  0  0  0  0
  184.1700  180.0070  139.4370 O   0  0  0  0  0  0  0  0  0  0  0  0
  182.8770  176.1380  139.7660 C   0  0  0  0  0  1  0  0  0  0  0  0
  186.2490  173.2710  135.7930 C   0  0  0  0  0  3  0  0  0  0  0  0
  186.9980  176.2760  134.6020 O   0  0  0  0  0  0  0  0  0  0  0  0
  186.8990  175.6670  135.7020 C   0  0  0  0  0  0  0  0  0  0  0  0
  189.0340  175.4670  137.0390 C   0  0  0  0  0  3  0  0  0  0  0  0
  187.7910  176.0810  136.8160 C   0  0  0  0  0  0  0  0  0  0  0  0
  187.4050  177.1430  137.6490 C   0  0  0  0  0  3  0  0  0  0  0  0
  187.8350  178.6170  139.5110 O   0  0  0  0  0  1  0  0  0  0  0  0
  189.4630  176.9440  138.9070 C   0  0  0  0  0  3  0  0  0  0  0  0
  188.2330  177.5700  138.6910 C   0  0  0  0  0  0  0  0  0  0  0  0
  189.8650  175.8930  138.0790 C   0  0  0  0  0  3  0  0  0  0  0  0
  1  4  1  0  0  0  0
  1 27  1  1  0  0  0
  2 18  1  0  0  0  0
  2 14  1  0  0  0  0
  3  9  1  1  0  0  0
  3 21  1  0  0  0  0
  3  6  1  0  0  0  0
  4 12  1  0  0  0  0
  4 16  1  0  0  0  0
  6 20  1  0  0  0  0
  7 12  1  0  0  0  0
  7 26  2  0  0  0  0
  8  4  1  0  0  0  0
  8 16  1  0  0  0  0
  9 23  2  0  0  0  0
 10  6  1  0  0  0  0
 13  1  1  0  0  0  0
 17  5  2  0  0  0  0
 17 11  1  0  0  0  0
 18 13  1  0  0  0  0
 19  7  1  0  0  0  0
 21 15  2  0  0  0  0
 21 17  1  0  0  0  0
 22 25  1  1  0  0  0
 22 20  1  0  0  0  0
 22  1  1  0  0  0  0
 23  5  1  0  0  0  0
 23  2  1  0  0  0  0
 24  2  1  0  0  0  0
 25 19  1  0  0  0  0
 28 10  2  0  0  0  0
 28 15  1  0  0  0  0
 29 30  2  0  0  0  0
 30 10  1  0  0  0  0
 30 32  1  0  0  0  0
 31 37  1  0  0  0  0
 32 31  2  0  0  0  0
 32 33  1  0  0  0  0
 33 36  2  0  0  0  0
 36 35  1  0  0  0  0
 36 34  1  0  0  0  0
 37 35  2  0  0  0  0
M  END
>  <MODEL>
8

>  <REMARK>
 VINA RESULT:      -5.9      5.001      7.768
  Name = 
  2 active torsions:
  status: ('A' for Active; 'I' for Inactive)
    1  A    between atoms: C_6  and  C_31
    2  A    between atoms: C_14  and  C_31
                            x       y       z     vdW  Elec       q    Type
                         _______ _______ _______ _____ _____    ______ ____

>  <TORSDO>
F 2

$$$$
=
 OpenBabel11052415183D

 37 42  0  0  1  0  0  0  0  0999 V2000
  185.5440  173.7730  137.0310 C   0  0  1  0  0  0  0  0  0  0  0  0
  188.6820  175.5180  136.6630 C   0  0  0  0  0  0  0  0  0  0  0  0
  185.9170  178.0400  137.5460 C   0  0  2  0  0  3  0  0  0  0  0  0
  185.2330  172.7050  135.9340 C   0  0  0  0  0  0  0  0  0  0  0  0
  188.4880  177.2380  138.6450 C   0  0  0  0  0  3  0  0  0  0  0  0
  184.5810  177.4370  137.6850 N   0  0  0  0  0  0  0  0  0  0  0  0
  182.7330  172.8710  135.9870 C   0  0  0  0  0  0  0  0  0  0  0  0
  185.9340  172.7350  134.5940 C   0  0  0  0  0  2  0  0  0  0  0  0
  186.8690  177.1450  136.8210 C   0  0  0  0  0  3  0  0  0  0  0  0
  183.6480  178.2790  138.3930 C   0  0  0  0  0  0  0  0  0  0  0  0
  188.2690  178.5980  140.5930 N   0  0  0  0  0  1  0  0  0  0  0  0
  183.9250  172.1400  135.8890 O   0  0  0  0  0  0  0  0  0  0  0  0
  186.9380  173.9270  137.3010 O   0  0  0  0  0  0  0  0  0  0  0  0
  189.6980  174.8290  137.5640 C   0  0  0  0  0  1  0  0  0  0  0  0
  185.5300  178.9480  139.7520 N   0  0  0  0  0  0  0  0  0  0  0  0
  186.3100  171.6850  135.6370 C   0  0  0  0  0  2  0  0  0  0  0  0
  187.7620  178.1060  139.3570 C   0  0  0  0  0  0  0  0  0  0  0  0
  187.6370  174.4820  136.2050 C   0  0  0  0  0  2  0  0  0  0  0  0
  182.6950  174.2720  135.9970 O   0  0  0  0  0  0  0  0  0  0  0  0
  184.4310  175.9890  137.9030 C   0  0  0  0  0  2  0  0  0  0  0  0
  186.3950  178.4410  138.9200 C   0  0  0  0  0  0  0  0  0  0  0  0
  184.8670  175.1450  136.6900 C   0  0  2  0  0  3  0  0  0  0  0  0
  187.9960  176.6740  137.3610 C   0  0  0  0  0  0  0  0  0  0  0  0
  189.4150  176.0350  135.4390 C   0  0  0  0  0  1  0  0  0  0  0  0
  183.7840  175.0980  135.6130 C   0  0  0  0  0  2  0  0  0  0  0  0
  181.6490  172.2410  136.0950 O   0  0  0  0  0  0  0  0  0  0  0  0
  184.9410  173.2190  138.3210 C   0  0  0  0  0  1  0  0  0  0  0  0
  184.1280  179.0060  139.4210 C   0  0  0  0  0  3  0  0  0  0  0  0
  181.4400  177.5360  138.7440 O   0  0  0  0  0  0  0  0  0  0  0  0
  182.2040  178.2520  138.0420 C   0  0  0  0  0  0  0  0  0  0  0  0
  181.4700  178.4540  135.6320 C   0  0  0  0  0  3  0  0  0  0  0  0
  181.6110  179.0140  136.9130 C   0  0  0  0  0  0  0  0  0  0  0  0
  181.1370  180.3170  137.1340 C   0  0  0  0  0  3  0  0  0  0  0  0
  180.0950  182.3400  136.3300 O   0  0  0  0  0  1  0  0  0  0  0  0
  180.4280  180.4840  134.8260 C   0  0  0  0  0  3  0  0  0  0  0  0
  180.5520  181.0500  136.0970 C   0  0  0  0  0  0  0  0  0  0  0  0
  180.8850  179.1850  134.5940 C   0  0  0  0  0  3  0  0  0  0  0  0
  1 13  1  0  0  0  0
  1 27  1  1  0  0  0
  2 23  1  0  0  0  0
  2 14  1  0  0  0  0
  3  9  1  1  0  0  0
  3  6  1  0  0  0  0
  3 21  1  0  0  0  0
  4  1  1  0  0  0  0
  5 17  2  0  0  0  0
  6 20  1  0  0  0  0
  6 10  1  0  0  0  0
  7 19  1  0  0  0  0
  7 26  2  0  0  0  0
  8 16  1  0  0  0  0
  8  4  1  0  0  0  0
  9 23  2  0  0  0  0
 10 28  2  0  0  0  0
 12  4  1  0  0  0  0
 12  7  1  0  0  0  0
 16  4  1  0  0  0  0
 17 11  1  0  0  0  0
 18  2  1  0  0  0  0
 18 13  1  0  0  0  0
 21 17  1  0  0  0  0
 21 15  2  0  0  0  0
 22 25  1  6  0  0  0
 22  1  1  0  0  0  0
 22 20  1  0  0  0  0
 23  5  1  0  0  0  0
 24  2  1  0  0  0  0
 25 19  1  0  0  0  0
 28 15  1  0  0  0  0
 30 10  1  0  0  0  0
 30 29  2  0  0  0  0
 31 32  1  0  0  0  0
 32 33  2  0  0  0  0
 32 30  1  0  0  0  0
 35 36  2  0  0  0  0
 36 34  1  0  0  0  0
 36 33  1  0  0  0  0
 37 35  1  0  0  0  0
 37 31  2  0  0  0  0
M  END
>  <MODEL>
9

>  <REMARK>
 VINA RESULT:      -5.8      4.895      8.861
  Name = 
  2 active torsions:
  status: ('A' for Active; 'I' for Inactive)
    1  A    between atoms: C_6  and  C_31
    2  A    between atoms: C_14  and  C_31
                            x       y       z     vdW  Elec       q    Type
                         _______ _______ _______ _____ _____    ______ ____

>  <TORSDO>
F 2

$$$$
