=
 OpenBabel11052414183D

 34 39  0  0  1  0  0  0  0  0999 V2000
  190.8140  177.0870  141.5030 C   0  0  0  0  0  0  0  0  0  0  0  0
  188.7940  178.3120  140.6890 C   0  0  2  0  0  3  0  0  0  0  0  0
  188.9420  177.7170  143.0520 C   0  0  2  0  0  3  0  0  0  0  0  0
  186.9910  177.8280  144.6010 C   0  0  1  0  0  3  0  0  0  0  0  0
  190.6850  177.8290  139.1920 C   0  0  0  0  0  3  0  0  0  0  0  0
  189.3190  178.1060  139.3790 O   0  0  0  0  0  0  0  0  0  0  0  0
  186.7590  178.5240  142.1620 C   0  0  0  0  0  2  0  0  0  0  0  0
  189.3310  177.2650  141.6520 C   0  0  2  0  0  3  0  0  0  0  0  0
  191.4380  177.3700  140.2000 C   0  0  0  0  0  3  0  0  0  0  0  0
  189.8140  177.1200  144.1870 C   0  0  1  0  0  3  0  0  0  0  0  0
  191.4990  176.5500  142.4680 N   0  0  0  0  0  0  0  0  0  0  0  0
  187.2630  178.2760  140.7250 C   0  0  0  0  0  2  0  0  0  0  0  0
  187.5560  176.7170  145.4730 C   0  0  0  0  0  2  0  0  0  0  0  0
  189.0900  176.6670  145.4670 C   0  0  2  0  0  3  0  0  0  0  0  0
  187.4250  177.5620  143.1690 C   0  0  1  0  0  3  0  0  0  0  0  0
  190.8510  176.0990  143.7030 C   0  0  0  0  0  2  0  0  0  0  0  0
  190.9700  176.8850  147.1770 C   0  0  0  0  0  0  0  0  0  0  0  0
  191.5570  177.6110  148.0240 O   0  0  0  0  0  0  0  0  0  0  0  0
  189.6690  177.2650  146.6750 N   0  0  0  0  0  0  0  0  0  0  0  0
  191.6450  175.6290  146.7390 C   0  0  0  0  0  1  0  0  0  0  0  0
  189.0000  178.4420  147.2360 C   0  0  0  0  0  3  0  0  0  0  0  0
  189.1320  178.4440  148.7500 C   0  0  0  0  0  2  0  0  0  0  0  0
  187.8270  178.0290  148.1150 C   0  0  0  0  0  2  0  0  0  0  0  0
  185.5950  177.8260  144.7040 O   0  0  0  0  0  0  0  0  0  0  0  0
  185.2660  179.1040  145.1630 C   0  0  0  0  0  2  0  0  0  0  0  0
  184.1400  179.6780  144.3230 C   0  0  0  0  0  2  0  0  0  0  0  0
  182.8490  178.9510  144.6420 C   0  0  0  0  0  2  0  0  0  0  0  0
  179.8020  178.4980  143.8510 C   0  0  0  0  0  1  0  0  0  0  0  0
  182.2280  178.5030  143.4070 N   0  0  0  0  0  0  0  0  0  0  0  0
  180.9720  179.2660  143.2520 C   0  0  1  0  0  3  0  0  0  0  0  0
  181.0270  178.5960  141.0430 C   0  0  0  0  0  2  0  0  0  0  0  0
  182.5440  178.4350  140.9790 C   0  0  0  0  0  2  0  0  0  0  0  0
  183.1530  178.8320  142.3210 C   0  0  0  0  0  2  0  0  0  0  0  0
  180.6880  179.6520  141.9120 O   0  0  0  0  0  0  0  0  0  0  0  0
  1  8  1  0  0  0  0
  1 11  2  0  0  0  0
  2 12  1  6  0  0  0
  2  8  1  0  0  0  0
  3 15  1  0  0  0  0
  3 10  1  0  0  0  0
  4 24  1  0  0  0  0
  4 13  1  0  0  0  0
  5  6  1  0  0  0  0
  5  9  2  0  0  0  0
  6  2  1  0  0  0  0
  7 15  1  0  0  0  0
  8  3  1  0  0  0  0
  9  1  1  0  0  0  0
 10 14  1  0  0  0  0
 11 16  1  0  0  0  0
 12  7  1  0  0  0  0
 14 13  1  0  0  0  0
 14 19  1  0  0  0  0
 15  4  1  0  0  0  0
 16 10  1  0  0  0  0
 17 18  2  0  0  0  0
 19 17  1  0  0  0  0
 19 21  1  0  0  0  0
 20 17  1  0  0  0  0
 21 23  1  0  0  0  0
 21 22  1  0  0  0  0
 23 22  1  0  0  0  0
 24 25  1  0  0  0  0
 26 27  1  0  0  0  0
 26 25  1  0  0  0  0
 29 27  1  0  0  0  0
 30 29  1  0  0  0  0
 30 28  1  0  0  0  0
 31 34  1  0  0  0  0
 32 31  1  0  0  0  0
 32 33  1  0  0  0  0
 33 29  1  0  0  0  0
 34 30  1  0  0  0  0
M  END
>  <MODEL>
1

>  <REMARK>
 VINA RESULT:      -8.3      0.000      0.000
  Name = 
  7 active torsions:
  status: ('A' for Active; 'I' for Inactive)
    1  A    between atoms: C_3  and  N_13
    2  A    between atoms: C_3  and  C_17
    3  A    between atoms: C_5  and  O_18
    4  A    between atoms: C_12  and  N_23
    5  A    between atoms: C_17  and  C_29
    6  A    between atoms: O_18  and  C_29
    7  A    between atoms: N_23  and  C_28
                            x       y       z     vdW  Elec       q    Type
                         _______ _______ _______ _____ _____    ______ ____

>  <TORSDO>
F 7

$$$$
=
 OpenBabel11052414183D

 34 39  0  0  1  0  0  0  0  0999 V2000
  189.3260  177.2680  145.5000 C   0  0  0  0  0  0  0  0  0  0  0  0
  186.8620  177.4560  145.8670 C   0  0  2  0  0  3  0  0  0  0  0  0
  187.7410  177.7040  143.6030 C   0  0  2  0  0  3  0  0  0  0  0  0
  186.3860  178.6100  141.7170 C   0  0  1  0  0  3  0  0  0  0  0  0
  188.3890  176.8870  147.7100 C   0  0  0  0  0  3  0  0  0  0  0  0
  187.1670  177.4180  147.2600 O   0  0  0  0  0  0  0  0  0  0  0  0
  185.3690  178.3330  144.0340 C   0  0  0  0  0  2  0  0  0  0  0  0
  188.0600  177.9500  145.0700 C   0  0  2  0  0  3  0  0  0  0  0  0
  189.4350  176.7710  146.8810 C   0  0  0  0  0  3  0  0  0  0  0  0
  188.9840  177.6260  142.6790 C   0  0  1  0  0  3  0  0  0  0  0  0
  190.3540  177.2580  144.7050 N   0  0  0  0  0  0  0  0  0  0  0  0
  185.6580  178.3490  145.5500 C   0  0  0  0  0  2  0  0  0  0  0  0
  187.6260  179.1470  141.0170 C   0  0  0  0  0  2  0  0  0  0  0  0
  188.8870  178.3220  141.3100 C   0  0  2  0  0  3  0  0  0  0  0  0
  186.6300  178.6810  143.2150 C   0  0  1  0  0  3  0  0  0  0  0  0
  190.3100  177.9130  143.3940 C   0  0  0  0  0  2  0  0  0  0  0  0
  190.5590  176.8800  140.0310 C   0  0  0  0  0  0  0  0  0  0  0  0
  190.7460  175.8970  139.2650 O   0  0  0  0  0  0  0  0  0  0  0  0
  189.2300  177.4220  140.2030 N   0  0  0  0  0  0  0  0  0  0  0  0
  191.7420  177.4680  140.7230 C   0  0  0  0  0  1  0  0  0  0  0  0
  188.1280  176.8840  139.4010 C   0  0  0  0  0  3  0  0  0  0  0  0
  188.5950  176.6320  137.9760 C   0  0  0  0  0  2  0  0  0  0  0  0
  187.7540  177.8480  138.2820 C   0  0  0  0  0  2  0  0  0  0  0  0
  185.2840  179.3940  141.3570 O   0  0  0  0  0  0  0  0  0  0  0  0
  184.6500  178.6780  140.3380 C   0  0  0  0  0  2  0  0  0  0  0  0
  183.1750  179.0310  140.3010 C   0  0  0  0  0  2  0  0  0  0  0  0
  182.4350  178.2190  141.3460 C   0  0  0  0  0  2  0  0  0  0  0  0
  180.5540  178.5060  143.8950 C   0  0  0  0  0  1  0  0  0  0  0  0
  181.0860  178.7390  141.4980 N   0  0  0  0  0  0  0  0  0  0  0  0
  181.0370  179.4430  142.7960 C   0  0  1  0  0  3  0  0  0  0  0  0
  179.1100  180.4370  142.0010 C   0  0  0  0  0  2  0  0  0  0  0  0
  179.4850  180.3170  140.5260 C   0  0  0  0  0  2  0  0  0  0  0  0
  180.8700  179.6880  140.4040 C   0  0  0  0  0  2  0  0  0  0  0  0
  180.2670  180.6390  142.7800 O   0  0  0  0  0  0  0  0  0  0  0  0
  1  9  1  0  0  0  0
  2 12  1  1  0  0  0
  2  6  1  0  0  0  0
  3  8  1  0  0  0  0
  4 15  1  0  0  0  0
  6  5  1  0  0  0  0
  7 12  1  0  0  0  0
  8  1  1  0  0  0  0
  8  2  1  0  0  0  0
  9  5  2  0  0  0  0
 10 16  1  0  0  0  0
 10  3  1  0  0  0  0
 11  1  2  0  0  0  0
 13 14  1  0  0  0  0
 13  4  1  0  0  0  0
 14 10  1  0  0  0  0
 15  3  1  0  0  0  0
 15  7  1  0  0  0  0
 16 11  1  0  0  0  0
 17 19  1  0  0  0  0
 17 20  1  0  0  0  0
 18 17  2  0  0  0  0
 19 14  1  0  0  0  0
 21 19  1  0  0  0  0
 22 23  1  0  0  0  0
 22 21  1  0  0  0  0
 23 21  1  0  0  0  0
 24  4  1  0  0  0  0
 25 24  1  0  0  0  0
 26 25  1  0  0  0  0
 26 27  1  0  0  0  0
 27 29  1  0  0  0  0
 29 30  1  0  0  0  0
 30 28  1  0  0  0  0
 31 34  1  0  0  0  0
 32 31  1  0  0  0  0
 33 32  1  0  0  0  0
 33 29  1  0  0  0  0
 34 30  1  0  0  0  0
M  END
>  <MODEL>
2

>  <REMARK>
 VINA RESULT:      -8.2      1.771      5.317
  Name = 
  7 active torsions:
  status: ('A' for Active; 'I' for Inactive)
    1  A    between atoms: C_3  and  N_13
    2  A    between atoms: C_3  and  C_17
    3  A    between atoms: C_5  and  O_18
    4  A    between atoms: C_12  and  N_23
    5  A    between atoms: C_17  and  C_29
    6  A    between atoms: O_18  and  C_29
    7  A    between atoms: N_23  and  C_28
                            x       y       z     vdW  Elec       q    Type
                         _______ _______ _______ _____ _____    ______ ____

>  <TORSDO>
F 7

$$$$
=
 OpenBabel11052414183D

 34 39  0  0  1  0  0  0  0  0999 V2000
  189.3650  177.2520  145.4930 C   0  0  0  0  0  0  0  0  0  0  0  0
  186.8980  177.4510  145.8320 C   0  0  2  0  0  3  0  0  0  0  0  0
  187.8030  177.6970  143.5790 C   0  0  2  0  0  3  0  0  0  0  0  0
  186.4730  178.6110  141.6780 C   0  0  1  0  0  3  0  0  0  0  0  0
  188.4020  176.8720  147.6910 C   0  0  0  0  0  3  0  0  0  0  0  0
  187.1870  177.4090  147.2290 O   0  0  0  0  0  0  0  0  0  0  0  0
  185.4290  178.3360  143.9840 C   0  0  0  0  0  2  0  0  0  0  0  0
  188.1070  177.9400  145.0500 C   0  0  2  0  0  3  0  0  0  0  0  0
  189.4570  176.7530  146.8740 C   0  0  0  0  0  3  0  0  0  0  0  0
  189.0560  177.6140  142.6680 C   0  0  1  0  0  3  0  0  0  0  0  0
  190.4020  177.2380  144.7090 N   0  0  0  0  0  0  0  0  0  0  0  0
  185.7010  178.3490  145.5030 C   0  0  0  0  0  2  0  0  0  0  0  0
  187.7240  179.1430  140.9930 C   0  0  0  0  0  2  0  0  0  0  0  0
  188.9780  178.3120  141.2990 C   0  0  2  0  0  3  0  0  0  0  0  0
  186.7010  178.6790  143.1790 C   0  0  1  0  0  3  0  0  0  0  0  0
  190.3750  177.8950  143.3980 C   0  0  0  0  0  2  0  0  0  0  0  0
  190.6640  176.8860  140.0220 C   0  0  0  0  0  0  0  0  0  0  0  0
  190.8610  175.9020  139.2590 O   0  0  0  0  0  0  0  0  0  0  0  0
  189.3290  177.4120  140.1950 N   0  0  0  0  0  0  0  0  0  0  0  0
  191.8410  177.4920  140.7070 C   0  0  0  0  0  1  0  0  0  0  0  0
  188.2310  176.8560  139.3980 C   0  0  0  0  0  3  0  0  0  0  0  0
  188.7000  176.5950  137.9760 C   0  0  0  0  0  2  0  0  0  0  0  0
  187.8470  177.8060  138.2710 C   0  0  0  0  0  2  0  0  0  0  0  0
  185.3780  179.4000  141.3080 O   0  0  0  0  0  0  0  0  0  0  0  0
  184.7300  178.6690  140.3090 C   0  0  0  0  0  2  0  0  0  0  0  0
  183.4810  178.0190  140.8750 C   0  0  0  0  0  2  0  0  0  0  0  0
  182.2530  178.6760  140.2770 C   0  0  0  0  0  2  0  0  0  0  0  0
  179.0730  178.6420  140.3330 C   0  0  0  0  0  1  0  0  0  0  0  0
  181.3020  178.9810  141.3320 N   0  0  0  0  0  0  0  0  0  0  0  0
  180.1770  178.0350  141.1880 C   0  0  1  0  0  3  0  0  0  0  0  0
  179.6160  178.6220  143.3500 C   0  0  0  0  0  2  0  0  0  0  0  0
  181.0350  179.0040  143.7670 C   0  0  0  0  0  2  0  0  0  0  0  0
  181.9900  178.7520  142.6040 C   0  0  0  0  0  2  0  0  0  0  0  0
  179.6540  177.5610  142.4230 O   0  0  0  0  0  0  0  0  0  0  0  0
  1  9  1  0  0  0  0
  2 12  1  1  0  0  0
  2  6  1  0  0  0  0
  3  8  1  0  0  0  0
  4 15  1  0  0  0  0
  6  5  1  0  0  0  0
  7 12  1  0  0  0  0
  8  1  1  0  0  0  0
  8  2  1  0  0  0  0
  9  5  2  0  0  0  0
 10 16  1  0  0  0  0
 10  3  1  0  0  0  0
 11  1  2  0  0  0  0
 13 14  1  0  0  0  0
 13  4  1  0  0  0  0
 14 10  1  0  0  0  0
 15  3  1  0  0  0  0
 15  7  1  0  0  0  0
 16 11  1  0  0  0  0
 17 19  1  0  0  0  0
 17 20  1  0  0  0  0
 18 17  2  0  0  0  0
 19 14  1  0  0  0  0
 21 19  1  0  0  0  0
 22 23  1  0  0  0  0
 22 21  1  0  0  0  0
 23 21  1  0  0  0  0
 24  4  1  0  0  0  0
 25 26  1  0  0  0  0
 25 24  1  0  0  0  0
 27 26  1  0  0  0  0
 27 29  1  0  0  0  0
 28 30  1  0  0  0  0
 29 33  1  0  0  0  0
 30 29  1  0  0  0  0
 30 34  1  0  0  0  0
 31 32  1  0  0  0  0
 33 32  1  0  0  0  0
 34 31  1  0  0  0  0
M  END
>  <MODEL>
3

>  <REMARK>
 VINA RESULT:      -8.2      1.754      5.357
  Name = 
  7 active torsions:
  status: ('A' for Active; 'I' for Inactive)
    1  A    between atoms: C_3  and  N_13
    2  A    between atoms: C_3  and  C_17
    3  A    between atoms: C_5  and  O_18
    4  A    between atoms: C_12  and  N_23
    5  A    between atoms: C_17  and  C_29
    6  A    between atoms: O_18  and  C_29
    7  A    between atoms: N_23  and  C_28
                            x       y       z     vdW  Elec       q    Type
                         _______ _______ _______ _____ _____    ______ ____

>  <TORSDO>
F 7

$$$$
=
 OpenBabel11052414183D

 34 39  0  0  1  0  0  0  0  0999 V2000
  191.0140  177.2290  145.0400 C   0  0  0  0  0  0  0  0  0  0  0  0
  188.7740  176.9240  146.1050 C   0  0  2  0  0  3  0  0  0  0  0  0
  188.8930  177.3470  143.7040 C   0  0  2  0  0  3  0  0  0  0  0  0
  186.9010  177.9710  142.3400 C   0  0  1  0  0  3  0  0  0  0  0  0
  190.8510  176.6640  147.3980 C   0  0  0  0  0  3  0  0  0  0  0  0
  189.4730  176.9430  147.3480 O   0  0  0  0  0  0  0  0  0  0  0  0
  186.6740  177.4910  144.8300 C   0  0  0  0  0  2  0  0  0  0  0  0
  189.5730  177.6470  145.0310 C   0  0  2  0  0  3  0  0  0  0  0  0
  191.6120  176.7600  146.3010 C   0  0  0  0  0  3  0  0  0  0  0  0
  189.8040  177.5190  142.4610 C   0  0  1  0  0  3  0  0  0  0  0  0
  191.7490  177.4250  143.9860 N   0  0  0  0  0  0  0  0  0  0  0  0
  187.3840  177.5600  146.1990 C   0  0  0  0  0  2  0  0  0  0  0  0
  187.7590  178.7440  141.3490 C   0  0  0  0  0  2  0  0  0  0  0  0
  189.1830  178.1850  141.2200 C   0  0  2  0  0  3  0  0  0  0  0  0
  187.5530  178.0840  143.7070 C   0  0  1  0  0  3  0  0  0  0  0  0
  191.2010  178.0620  142.7840 C   0  0  0  0  0  2  0  0  0  0  0  0
  190.6230  176.7930  139.6400 C   0  0  0  0  0  0  0  0  0  0  0  0
  190.6710  175.8750  138.7780 O   0  0  0  0  0  0  0  0  0  0  0  0
  189.3520  177.3740  140.0100 N   0  0  0  0  0  0  0  0  0  0  0  0
  191.9050  177.2650  140.2380 C   0  0  0  0  0  1  0  0  0  0  0  0
  188.1400  176.9580  139.2980 C   0  0  0  0  0  3  0  0  0  0  0  0
  188.4530  176.7260  137.8280 C   0  0  0  0  0  2  0  0  0  0  0  0
  187.7470  177.9920  138.2510 C   0  0  0  0  0  2  0  0  0  0  0  0
  185.6140  178.5210  142.3570 O   0  0  0  0  0  0  0  0  0  0  0  0
  185.4490  179.0900  141.0920 C   0  0  0  0  0  2  0  0  0  0  0  0
  184.1300  178.6380  140.4930 C   0  0  0  0  0  2  0  0  0  0  0  0
  184.2400  178.6220  138.9810 C   0  0  0  0  0  2  0  0  0  0  0  0
  184.3650  177.0350  136.2270 C   0  0  0  0  0  1  0  0  0  0  0  0
  183.4200  177.5480  138.4460 N   0  0  0  0  0  0  0  0  0  0  0  0
  184.3200  176.6470  137.6980 C   0  0  1  0  0  3  0  0  0  0  0  0
  182.6130  175.0960  137.8300 C   0  0  0  0  0  2  0  0  0  0  0  0
  182.0030  175.6630  139.1100 C   0  0  0  0  0  2  0  0  0  0  0  0
  182.8420  176.8430  139.5920 C   0  0  0  0  0  2  0  0  0  0  0  0
  184.0120  175.2650  137.8450 O   0  0  0  0  0  0  0  0  0  0  0  0
  1  9  1  0  0  0  0
  2 12  1  1  0  0  0
  2  6  1  0  0  0  0
  3 15  1  0  0  0  0
  3  8  1  0  0  0  0
  4 24  1  0  0  0  0
  4 15  1  0  0  0  0
  6  5  1  0  0  0  0
  7 12  1  0  0  0  0
  8  1  1  0  0  0  0
  8  2  1  0  0  0  0
  9  5  2  0  0  0  0
 10 16  1  0  0  0  0
 10  3  1  0  0  0  0
 11  1  2  0  0  0  0
 13  4  1  0  0  0  0
 14 13  1  0  0  0  0
 14 10  1  0  0  0  0
 15  7  1  0  0  0  0
 16 11  1  0  0  0  0
 17 19  1  0  0  0  0
 17 20  1  0  0  0  0
 18 17  2  0  0  0  0
 19 14  1  0  0  0  0
 21 19  1  0  0  0  0
 22 23  1  0  0  0  0
 22 21  1  0  0  0  0
 23 21  1  0  0  0  0
 25 24  1  0  0  0  0
 26 25  1  0  0  0  0
 27 26  1  0  0  0  0
 28 30  1  0  0  0  0
 29 27  1  0  0  0  0
 29 33  1  0  0  0  0
 30 34  1  0  0  0  0
 30 29  1  0  0  0  0
 31 34  1  0  0  0  0
 31 32  1  0  0  0  0
 32 33  1  0  0  0  0
M  END
>  <MODEL>
4

>  <REMARK>
 VINA RESULT:      -8.1      2.582      5.867
  Name = 
  7 active torsions:
  status: ('A' for Active; 'I' for Inactive)
    1  A    between atoms: C_3  and  N_13
    2  A    between atoms: C_3  and  C_17
    3  A    between atoms: C_5  and  O_18
    4  A    between atoms: C_12  and  N_23
    5  A    between atoms: C_17  and  C_29
    6  A    between atoms: O_18  and  C_29
    7  A    between atoms: N_23  and  C_28
                            x       y       z     vdW  Elec       q    Type
                         _______ _______ _______ _____ _____    ______ ____

>  <TORSDO>
F 7

$$$$
=
 OpenBabel11052414183D

 34 39  0  0  1  0  0  0  0  0999 V2000
  189.9630  177.1870  143.3050 C   0  0  0  0  0  0  0  0  0  0  0  0
  187.5290  177.7330  143.1630 C   0  0  2  0  0  3  0  0  0  0  0  0
  188.7800  177.3720  141.0990 C   0  0  2  0  0  3  0  0  0  0  0  0
  187.8910  177.9890  138.8520 C   0  0  1  0  0  3  0  0  0  0  0  0
  188.6440  177.4130  145.3330 C   0  0  0  0  0  3  0  0  0  0  0  0
  187.6020  177.9680  144.5680 O   0  0  0  0  0  0  0  0  0  0  0  0
  186.4920  178.3490  140.9490 C   0  0  0  0  0  2  0  0  0  0  0  0
  188.8980  177.8980  142.5220 C   0  0  2  0  0  3  0  0  0  0  0  0
  189.7770  176.9980  144.7520 C   0  0  0  0  0  3  0  0  0  0  0  0
  190.1260  176.9500  140.4550 C   0  0  1  0  0  3  0  0  0  0  0  0
  191.0900  176.8840  142.7320 N   0  0  0  0  0  0  0  0  0  0  0  0
  186.5390  178.6660  142.4590 C   0  0  0  0  0  2  0  0  0  0  0  0
  189.2930  178.2110  138.3030 C   0  0  0  0  0  2  0  0  0  0  0  0
  190.3520  177.3320  138.9820 C   0  0  2  0  0  3  0  0  0  0  0  0
  187.9050  178.3600  140.3260 C   0  0  1  0  0  3  0  0  0  0  0  0
  191.3510  177.2330  141.3320 C   0  0  0  0  0  2  0  0  0  0  0  0
  192.0970  175.7500  138.0000 C   0  0  0  0  0  0  0  0  0  0  0  0
  192.3530  174.6050  137.5410 O   0  0  0  0  0  0  0  0  0  0  0  0
  190.7250  176.1770  138.1580 N   0  0  0  0  0  0  0  0  0  0  0  0
  193.2410  176.6430  138.3450 C   0  0  0  0  0  1  0  0  0  0  0  0
  189.6450  175.3070  137.6840 C   0  0  0  0  0  3  0  0  0  0  0  0
  190.1500  174.4120  136.5640 C   0  0  0  0  0  2  0  0  0  0  0  0
  189.3000  175.6150  136.2330 C   0  0  0  0  0  2  0  0  0  0  0  0
  186.9900  178.7940  138.1470 O   0  0  0  0  0  0  0  0  0  0  0  0
  186.8340  178.1630  136.9110 C   0  0  0  0  0  2  0  0  0  0  0  0
  185.9210  176.9600  137.0590 C   0  0  0  0  0  2  0  0  0  0  0  0
  184.4760  177.4020  136.9370 C   0  0  0  0  0  2  0  0  0  0  0  0
  183.5960  179.6800  138.9750 C   0  0  0  0  0  1  0  0  0  0  0  0
  183.8370  177.3380  138.2410 N   0  0  0  0  0  0  0  0  0  0  0  0
  182.9110  178.4860  138.3260 C   0  0  1  0  0  3  0  0  0  0  0  0
  181.9310  177.3590  140.0870 C   0  0  0  0  0  2  0  0  0  0  0  0
  182.3410  175.9660  139.6110 C   0  0  0  0  0  2  0  0  0  0  0  0
  183.0860  176.0830  138.2850 C   0  0  0  0  0  2  0  0  0  0  0  0
  181.6820  178.1940  138.9800 O   0  0  0  0  0  0  0  0  0  0  0  0
  1  9  1  0  0  0  0
  2 12  1  6  0  0  0
  2  6  1  0  0  0  0
  3  8  1  0  0  0  0
  4 15  1  0  0  0  0
  6  5  1  0  0  0  0
  7 12  1  0  0  0  0
  8  2  1  0  0  0  0
  8  1  1  0  0  0  0
  9  5  2  0  0  0  0
 10  3  1  0  0  0  0
 10 16  1  0  0  0  0
 11  1  2  0  0  0  0
 13  4  1  0  0  0  0
 13 14  1  0  0  0  0
 14 10  1  0  0  0  0
 15  7  1  0  0  0  0
 15  3  1  0  0  0  0
 16 11  1  0  0  0  0
 17 19  1  0  0  0  0
 17 20  1  0  0  0  0
 18 17  2  0  0  0  0
 19 14  1  0  0  0  0
 21 19  1  0  0  0  0
 22 21  1  0  0  0  0
 23 22  1  0  0  0  0
 23 21  1  0  0  0  0
 24  4  1  0  0  0  0
 25 26  1  0  0  0  0
 25 24  1  0  0  0  0
 27 26  1  0  0  0  0
 27 29  1  0  0  0  0
 29 33  1  0  0  0  0
 29 30  1  0  0  0  0
 30 28  1  0  0  0  0
 30 34  1  0  0  0  0
 32 31  1  0  0  0  0
 33 32  1  0  0  0  0
 34 31  1  0  0  0  0
M  END
>  <MODEL>
5

>  <REMARK>
 VINA RESULT:      -8.1      2.771      6.521
  Name = 
  7 active torsions:
  status: ('A' for Active; 'I' for Inactive)
    1  A    between atoms: C_3  and  N_13
    2  A    between atoms: C_3  and  C_17
    3  A    between atoms: C_5  and  O_18
    4  A    between atoms: C_12  and  N_23
    5  A    between atoms: C_17  and  C_29
    6  A    between atoms: O_18  and  C_29
    7  A    between atoms: N_23  and  C_28
                            x       y       z     vdW  Elec       q    Type
                         _______ _______ _______ _____ _____    ______ ____

>  <TORSDO>
F 7

$$$$
=
 OpenBabel11052414183D

 34 39  0  0  1  0  0  0  0  0999 V2000
  186.1490  178.2450  145.8330 C   0  0  0  0  0  0  0  0  0  0  0  0
  185.4200  178.2370  143.4430 C   0  0  2  0  0  3  0  0  0  0  0  0
  187.7690  177.8270  143.9630 C   0  0  2  0  0  3  0  0  0  0  0  0
  189.5670  177.8800  142.2350 C   0  0  1  0  0  3  0  0  0  0  0  0
  183.7980  178.5050  145.2740 C   0  0  0  0  0  3  0  0  0  0  0  0
  184.1610  178.7010  143.9290 O   0  0  0  0  0  0  0  0  0  0  0  0
  187.1330  178.2630  141.5930 C   0  0  0  0  0  2  0  0  0  0  0  0
  186.5320  178.5830  144.4220 C   0  0  2  0  0  3  0  0  0  0  0  0
  184.7250  178.2520  146.2060 C   0  0  0  0  0  3  0  0  0  0  0  0
  188.8320  177.6010  145.0690 C   0  0  1  0  0  3  0  0  0  0  0  0
  187.0730  178.1000  146.7350 N   0  0  0  0  0  0  0  0  0  0  0  0
  185.7730  178.8170  142.0700 C   0  0  0  0  0  2  0  0  0  0  0  0
  190.6090  178.3030  143.2600 C   0  0  0  0  0  2  0  0  0  0  0  0
  190.3080  177.7860  144.6740 C   0  0  2  0  0  3  0  0  0  0  0  0
  188.2330  178.4730  142.6560 C   0  0  1  0  0  3  0  0  0  0  0  0
  188.4920  178.2710  146.4050 C   0  0  0  0  0  2  0  0  0  0  0  0
  191.2170  175.4550  144.1700 C   0  0  0  0  0  0  0  0  0  0  0  0
  192.1400  174.6150  144.3440 O   0  0  0  0  0  0  0  0  0  0  0  0
  191.1280  176.6190  145.0220 N   0  0  0  0  0  0  0  0  0  0  0  0
  190.2240  175.1970  143.0880 C   0  0  0  0  0  1  0  0  0  0  0  0
  192.0560  176.7560  146.1480 C   0  0  0  0  0  3  0  0  0  0  0  0
  192.0540  175.4830  146.9810 C   0  0  0  0  0  2  0  0  0  0  0  0
  191.3080  176.7000  147.4740 C   0  0  0  0  0  2  0  0  0  0  0  0
  189.9450  178.3560  140.9750 O   0  0  0  0  0  0  0  0  0  0  0  0
  190.8450  177.4060  140.4860 C   0  0  0  0  0  2  0  0  0  0  0  0
  190.1860  176.5880  139.3910 C   0  0  0  0  0  2  0  0  0  0  0  0
  190.6200  177.1120  138.0370 C   0  0  0  0  0  2  0  0  0  0  0  0
  188.6390  175.1290  136.5330 C   0  0  0  0  0  1  0  0  0  0  0  0
  189.4480  177.3570  137.2140 N   0  0  0  0  0  0  0  0  0  0  0  0
  188.4770  176.2840  137.5110 C   0  0  1  0  0  3  0  0  0  0  0  0
  186.9030  177.6550  136.5240 C   0  0  0  0  0  2  0  0  0  0  0  0
  187.6350  178.9590  136.8330 C   0  0  0  0  0  2  0  0  0  0  0  0
  188.9040  178.6530  137.6230 C   0  0  0  0  0  2  0  0  0  0  0  0
  187.1240  176.7200  137.5550 O   0  0  0  0  0  0  0  0  0  0  0  0
  1  9  1  0  0  0  0
  1 11  2  0  0  0  0
  2 12  1  6  0  0  0
  2  6  1  0  0  0  0
  2  8  1  0  0  0  0
  3  8  1  0  0  0  0
  3 10  1  0  0  0  0
  4 15  1  0  0  0  0
  4 13  1  0  0  0  0
  5  9  2  0  0  0  0
  6  5  1  0  0  0  0
  7 12  1  0  0  0  0
  7 15  1  0  0  0  0
  8  1  1  0  0  0  0
 10 16  1  0  0  0  0
 13 14  1  0  0  0  0
 14 19  1  0  0  0  0
 14 10  1  0  0  0  0
 15  3  1  0  0  0  0
 16 11  1  0  0  0  0
 17 18  2  0  0  0  0
 17 19  1  0  0  0  0
 19 21  1  0  0  0  0
 20 17  1  0  0  0  0
 21 22  1  0  0  0  0
 21 23  1  0  0  0  0
 22 23  1  0  0  0  0
 24  4  1  0  0  0  0
 25 24  1  0  0  0  0
 26 25  1  0  0  0  0
 27 26  1  0  0  0  0
 28 30  1  0  0  0  0
 29 30  1  0  0  0  0
 29 33  1  0  0  0  0
 29 27  1  0  0  0  0
 30 34  1  0  0  0  0
 31 32  1  0  0  0  0
 31 34  1  0  0  0  0
 32 33  1  0  0  0  0
M  END
>  <MODEL>
6

>  <REMARK>
 VINA RESULT:      -8.0      2.420      6.230
  Name = 
  7 active torsions:
  status: ('A' for Active; 'I' for Inactive)
    1  A    between atoms: C_3  and  N_13
    2  A    between atoms: C_3  and  C_17
    3  A    between atoms: C_5  and  O_18
    4  A    between atoms: C_12  and  N_23
    5  A    between atoms: C_17  and  C_29
    6  A    between atoms: O_18  and  C_29
    7  A    between atoms: N_23  and  C_28
                            x       y       z     vdW  Elec       q    Type
                         _______ _______ _______ _____ _____    ______ ____

>  <TORSDO>
F 7

$$$$
=
 OpenBabel11052414183D

 34 39  0  0  1  0  0  0  0  0999 V2000
  189.8340  177.2400  143.1870 C   0  0  0  0  0  0  0  0  0  0  0  0
  187.3990  177.7180  142.8980 C   0  0  2  0  0  3  0  0  0  0  0  0
  188.7780  177.3700  140.9140 C   0  0  2  0  0  3  0  0  0  0  0  0
  188.0060  177.9390  138.6120 C   0  0  1  0  0  3  0  0  0  0  0  0
  188.3930  177.4500  145.1330 C   0  0  0  0  0  3  0  0  0  0  0  0
  187.3830  177.9690  144.3020 O   0  0  0  0  0  0  0  0  0  0  0  0
  186.4780  178.2820  140.6200 C   0  0  0  0  0  2  0  0  0  0  0  0
  188.7990  177.9130  142.3350 C   0  0  2  0  0  3  0  0  0  0  0  0
  189.5690  177.0610  144.6240 C   0  0  0  0  0  3  0  0  0  0  0  0
  190.1700  176.9780  140.3550 C   0  0  1  0  0  3  0  0  0  0  0  0
  191.0000  176.9620  142.6860 N   0  0  0  0  0  0  0  0  0  0  0  0
  186.4270  178.6160  142.1260 C   0  0  0  0  0  2  0  0  0  0  0  0
  189.4310  178.1940  138.1430 C   0  0  0  0  0  2  0  0  0  0  0  0
  190.4720  177.3520  138.8930 C   0  0  2  0  0  3  0  0  0  0  0  0
  187.9230  178.3250  140.0800 C   0  0  1  0  0  3  0  0  0  0  0  0
  191.3340  177.3040  141.2990 C   0  0  0  0  0  2  0  0  0  0  0  0
  192.3150  175.8170  138.0220 C   0  0  0  0  0  0  0  0  0  0  0  0
  192.6310  174.6740  137.5940 O   0  0  0  0  0  0  0  0  0  0  0  0
  190.9230  176.1990  138.1060 N   0  0  0  0  0  0  0  0  0  0  0  0
  193.4100  176.7530  138.4080 C   0  0  0  0  0  1  0  0  0  0  0  0
  189.8970  175.2860  137.5940 C   0  0  0  0  0  3  0  0  0  0  0  0
  190.5020  174.3520  136.5570 C   0  0  0  0  0  2  0  0  0  0  0  0
  189.6580  175.5210  136.1080 C   0  0  0  0  0  2  0  0  0  0  0  0
  187.1270  178.7130  137.8460 O   0  0  0  0  0  0  0  0  0  0  0  0
  186.9200  177.9730  136.6790 C   0  0  0  0  0  2  0  0  0  0  0  0
  186.2520  176.6540  137.0170 C   0  0  0  0  0  2  0  0  0  0  0  0
  186.0140  175.8660  135.7450 C   0  0  0  0  0  2  0  0  0  0  0  0
  187.0860  172.8900  136.0820 C   0  0  0  0  0  1  0  0  0  0  0  0
  185.3310  174.6240  136.0630 N   0  0  0  0  0  0  0  0  0  0  0  0
  186.2410  173.8370  136.9220 C   0  0  1  0  0  3  0  0  0  0  0  0
  184.3760  172.5970  137.4840 C   0  0  0  0  0  2  0  0  0  0  0  0
  183.3730  173.7190  137.2230 C   0  0  0  0  0  2  0  0  0  0  0  0
  184.1220  174.9810  136.8070 C   0  0  0  0  0  2  0  0  0  0  0  0
  185.5850  173.1330  137.9700 O   0  0  0  0  0  0  0  0  0  0  0  0
  1  9  1  0  0  0  0
  2 12  1  6  0  0  0
  2  6  1  0  0  0  0
  3  8  1  0  0  0  0
  4 15  1  0  0  0  0
  6  5  1  0  0  0  0
  7 12  1  0  0  0  0
  8  2  1  0  0  0  0
  8  1  1  0  0  0  0
  9  5  2  0  0  0  0
 10  3  1  0  0  0  0
 10 16  1  0  0  0  0
 11  1  2  0  0  0  0
 13  4  1  0  0  0  0
 13 14  1  0  0  0  0
 14 10  1  0  0  0  0
 15  7  1  0  0  0  0
 15  3  1  0  0  0  0
 16 11  1  0  0  0  0
 17 19  1  0  0  0  0
 17 20  1  0  0  0  0
 18 17  2  0  0  0  0
 19 14  1  0  0  0  0
 21 19  1  0  0  0  0
 22 21  1  0  0  0  0
 23 22  1  0  0  0  0
 23 21  1  0  0  0  0
 24  4  1  0  0  0  0
 25 26  1  0  0  0  0
 25 24  1  0  0  0  0
 27 29  1  0  0  0  0
 27 26  1  0  0  0  0
 28 30  1  0  0  0  0
 29 33  1  0  0  0  0
 29 30  1  0  0  0  0
 30 34  1  0  0  0  0
 31 34  1  0  0  0  0
 32 31  1  0  0  0  0
 33 32  1  0  0  0  0
M  END
>  <MODEL>
7

>  <REMARK>
 VINA RESULT:      -7.9      3.907      7.489
  Name = 
  7 active torsions:
  status: ('A' for Active; 'I' for Inactive)
    1  A    between atoms: C_3  and  N_13
    2  A    between atoms: C_3  and  C_17
    3  A    between atoms: C_5  and  O_18
    4  A    between atoms: C_12  and  N_23
    5  A    between atoms: C_17  and  C_29
    6  A    between atoms: O_18  and  C_29
    7  A    between atoms: N_23  and  C_28
                            x       y       z     vdW  Elec       q    Type
                         _______ _______ _______ _____ _____    ______ ____

>  <TORSDO>
F 7

$$$$
=
 OpenBabel11052414183D

 34 39  0  0  1  0  0  0  0  0999 V2000
  187.9560  176.5390  135.8340 C   0  0  0  0  0  0  0  0  0  0  0  0
  189.0900  177.0640  137.9970 C   0  0  2  0  0  3  0  0  0  0  0  0
  186.6670  177.3160  137.8420 C   0  0  2  0  0  3  0  0  0  0  0  0
  185.3190  178.5240  139.5580 C   0  0  1  0  0  3  0  0  0  0  0  0
  190.3450  176.1660  136.0810 C   0  0  0  0  0  3  0  0  0  0  0  0
  190.3130  176.8970  137.2820 O   0  0  0  0  0  0  0  0  0  0  0  0
  187.8370  178.2590  139.8300 C   0  0  0  0  0  2  0  0  0  0  0  0
  187.9590  177.4230  137.0460 C   0  0  2  0  0  3  0  0  0  0  0  0
  189.2250  175.9490  135.3790 C   0  0  0  0  0  3  0  0  0  0  0  0
  185.3950  177.1120  136.9790 C   0  0  1  0  0  3  0  0  0  0  0  0
  186.8760  176.4260  135.1210 N   0  0  0  0  0  0  0  0  0  0  0  0
  189.1820  178.1410  139.0830 C   0  0  0  0  0  2  0  0  0  0  0  0
  184.2670  178.9130  138.5300 C   0  0  0  0  0  2  0  0  0  0  0  0
  184.1350  177.8960  137.3880 C   0  0  2  0  0  3  0  0  0  0  0  0
  186.6630  178.4670  138.8500 C   0  0  1  0  0  3  0  0  0  0  0  0
  185.6530  177.1580  135.4690 C   0  0  0  0  0  2  0  0  0  0  0  0
  181.8390  177.0620  136.6520 C   0  0  0  0  0  0  0  0  0  0  0  0
  181.0040  176.1180  136.6440 O   0  0  0  0  0  0  0  0  0  0  0  0
  182.9670  177.0240  137.5550 N   0  0  0  0  0  0  0  0  0  0  0  0
  181.6110  178.2110  135.7290 C   0  0  0  0  0  1  0  0  0  0  0  0
  183.0710  175.9320  138.5260 C   0  0  0  0  0  3  0  0  0  0  0  0
  181.6880  175.5570  139.0380 C   0  0  0  0  0  2  0  0  0  0  0  0
  182.6050  176.3880  139.9030 C   0  0  0  0  0  2  0  0  0  0  0  0
  185.3380  179.4810  140.5780 O   0  0  0  0  0  0  0  0  0  0  0  0
  184.6360  178.8940  141.6340 C   0  0  0  0  0  2  0  0  0  0  0  0
  185.5810  178.0640  142.4830 C   0  0  0  0  0  2  0  0  0  0  0  0
  185.2190  178.2230  143.9460 C   0  0  0  0  0  2  0  0  0  0  0  0
  185.6960  179.1010  146.9660 C   0  0  0  0  0  1  0  0  0  0  0  0
  186.4320  178.3440  144.7370 N   0  0  0  0  0  0  0  0  0  0  0  0
  186.1000  177.9090  146.1090 C   0  0  1  0  0  3  0  0  0  0  0  0
  188.3790  177.7190  146.4280 C   0  0  0  0  0  2  0  0  0  0  0  0
  188.7090  177.4690  144.9570 C   0  0  0  0  0  2  0  0  0  0  0  0
  187.4170  177.4360  144.1470 C   0  0  0  0  0  2  0  0  0  0  0  0
  187.1270  177.1570  146.7450 O   0  0  0  0  0  0  0  0  0  0  0  0
  1  8  1  0  0  0  0
  2 12  1  1  0  0  0
  3 15  1  0  0  0  0
  4 24  1  0  0  0  0
  5  6  1  0  0  0  0
  6  2  1  0  0  0  0
  8  3  1  0  0  0  0
  8  2  1  0  0  0  0
  9  1  1  0  0  0  0
  9  5  2  0  0  0  0
 10 14  1  0  0  0  0
 10  3  1  0  0  0  0
 11 16  1  0  0  0  0
 11  1  2  0  0  0  0
 12  7  1  0  0  0  0
 13  4  1  0  0  0  0
 14 19  1  0  0  0  0
 14 13  1  0  0  0  0
 15  4  1  0  0  0  0
 15  7  1  0  0  0  0
 16 10  1  0  0  0  0
 17 19  1  0  0  0  0
 18 17  2  0  0  0  0
 19 21  1  0  0  0  0
 20 17  1  0  0  0  0
 21 22  1  0  0  0  0
 21 23  1  0  0  0  0
 22 23  1  0  0  0  0
 24 25  1  0  0  0  0
 25 26  1  0  0  0  0
 26 27  1  0  0  0  0
 27 29  1  0  0  0  0
 29 30  1  0  0  0  0
 30 34  1  0  0  0  0
 30 28  1  0  0  0  0
 31 34  1  0  0  0  0
 32 31  1  0  0  0  0
 33 29  1  0  0  0  0
 33 32  1  0  0  0  0
M  END
>  <MODEL>
8

>  <REMARK>
 VINA RESULT:      -7.7      3.698      7.975
  Name = 
  7 active torsions:
  status: ('A' for Active; 'I' for Inactive)
    1  A    between atoms: C_3  and  N_13
    2  A    between atoms: C_3  and  C_17
    3  A    between atoms: C_5  and  O_18
    4  A    between atoms: C_12  and  N_23
    5  A    between atoms: C_17  and  C_29
    6  A    between atoms: O_18  and  C_29
    7  A    between atoms: N_23  and  C_28
                            x       y       z     vdW  Elec       q    Type
                         _______ _______ _______ _____ _____    ______ ____

>  <TORSDO>
F 7

$$$$
=
 OpenBabel11052414183D

 34 39  0  0  1  0  0  0  0  0999 V2000
  190.2900  177.1470  141.3280 C   0  0  0  0  0  0  0  0  0  0  0  0
  188.5040  178.3160  140.0280 C   0  0  2  0  0  3  0  0  0  0  0  0
  188.1810  177.9580  142.4210 C   0  0  2  0  0  3  0  0  0  0  0  0
  185.9770  178.2540  143.5490 C   0  0  1  0  0  3  0  0  0  0  0  0
  190.6270  177.6550  138.9750 C   0  0  0  0  0  3  0  0  0  0  0  0
  189.2600  177.9700  138.8690 O   0  0  0  0  0  0  0  0  0  0  0  0
  186.2350  178.7050  141.0560 C   0  0  0  0  0  2  0  0  0  0  0  0
  188.8130  177.3620  141.1720 C   0  0  2  0  0  3  0  0  0  0  0  0
  191.1590  177.2880  140.1480 C   0  0  0  0  0  3  0  0  0  0  0  0
  188.8020  177.4640  143.7540 C   0  0  1  0  0  3  0  0  0  0  0  0
  190.7610  176.6990  142.4530 N   0  0  0  0  0  0  0  0  0  0  0  0
  186.9940  178.3070  139.7720 C   0  0  0  0  0  2  0  0  0  0  0  0
  186.3280  177.2270  144.6150 C   0  0  0  0  0  2  0  0  0  0  0  0
  187.8330  177.1530  144.9080 C   0  0  2  0  0  3  0  0  0  0  0  0
  186.6650  177.8390  142.2590 C   0  0  1  0  0  3  0  0  0  0  0  0
  189.8750  176.3840  143.5780 C   0  0  0  0  0  2  0  0  0  0  0  0
  187.2110  178.2190  147.1410 C   0  0  0  0  0  0  0  0  0  0  0  0
  187.5820  178.5500  148.3000 O   0  0  0  0  0  0  0  0  0  0  0  0
  188.1920  177.8600  146.1430 N   0  0  0  0  0  0  0  0  0  0  0  0
  185.7510  178.2350  146.8370 C   0  0  0  0  0  1  0  0  0  0  0  0
  189.6180  177.9840  146.4610 C   0  0  0  0  0  3  0  0  0  0  0  0
  190.1970  176.6190  146.7990 C   0  0  0  0  0  2  0  0  0  0  0  0
  189.8830  177.5940  147.9090 C   0  0  0  0  0  2  0  0  0  0  0  0
  184.5880  178.2840  143.3810 O   0  0  0  0  0  0  0  0  0  0  0  0
  184.1940  179.5340  143.8640 C   0  0  0  0  0  2  0  0  0  0  0  0
  182.9000  179.4000  144.6450 C   0  0  0  0  0  2  0  0  0  0  0  0
  181.9030  178.5940  143.8380 C   0  0  0  0  0  2  0  0  0  0  0  0
  182.4800  178.6330  140.7100 C   0  0  0  0  0  1  0  0  0  0  0  0
  181.3670  179.4170  142.7660 N   0  0  0  0  0  0  0  0  0  0  0  0
  181.2330  178.5480  141.5780 C   0  0  1  0  0  3  0  0  0  0  0  0
  179.8370  180.1850  140.7390 C   0  0  0  0  0  2  0  0  0  0  0  0
  179.3960  180.7120  142.1030 C   0  0  0  0  0  2  0  0  0  0  0  0
  180.0480  179.8780  143.2030 C   0  0  0  0  0  2  0  0  0  0  0  0
  180.0640  178.7960  140.8070 O   0  0  0  0  0  0  0  0  0  0  0  0
  1 11  2  0  0  0  0
  2 12  1  6  0  0  0
  2  8  1  0  0  0  0
  3 10  1  0  0  0  0
  4 13  1  0  0  0  0
  5  9  2  0  0  0  0
  6  5  1  0  0  0  0
  6  2  1  0  0  0  0
  7 15  1  0  0  0  0
  8  1  1  0  0  0  0
  8  3  1  0  0  0  0
  9  1  1  0  0  0  0
 10 14  1  0  0  0  0
 11 16  1  0  0  0  0
 12  7  1  0  0  0  0
 13 14  1  0  0  0  0
 14 19  1  0  0  0  0
 15  3  1  0  0  0  0
 15  4  1  0  0  0  0
 16 10  1  0  0  0  0
 17 18  2  0  0  0  0
 19 21  1  0  0  0  0
 19 17  1  0  0  0  0
 20 17  1  0  0  0  0
 21 22  1  0  0  0  0
 21 23  1  0  0  0  0
 22 23  1  0  0  0  0
 24  4  1  0  0  0  0
 24 25  1  0  0  0  0
 25 26  1  0  0  0  0
 27 26  1  0  0  0  0
 28 30  1  0  0  0  0
 29 33  1  0  0  0  0
 29 27  1  0  0  0  0
 30 29  1  0  0  0  0
 31 34  1  0  0  0  0
 31 32  1  0  0  0  0
 32 33  1  0  0  0  0
 34 30  1  0  0  0  0
M  END
>  <MODEL>
9

>  <REMARK>
 VINA RESULT:      -7.6      1.341      2.260
  Name = 
  7 active torsions:
  status: ('A' for Active; 'I' for Inactive)
    1  A    between atoms: C_3  and  N_13
    2  A    between atoms: C_3  and  C_17
    3  A    between atoms: C_5  and  O_18
    4  A    between atoms: C_12  and  N_23
    5  A    between atoms: C_17  and  C_29
    6  A    between atoms: O_18  and  C_29
    7  A    between atoms: N_23  and  C_28
                            x       y       z     vdW  Elec       q    Type
                         _______ _______ _______ _____ _____    ______ ____

>  <TORSDO>
F 7

$$$$
